data_functionalizedCrystal
_audit_creation_method	'MofGen! by Chris Wilmer'
_symmetry_space_group_name_H-M	'P1'
_symmetry_Int_Tables_number	1
_symmetry_cell_setting	triclinic
loop_
_symmetry_equiv_pos_as_xyz
  x,y,z
_cell_length_a	25.639242
_cell_length_b	25.639239
_cell_length_c	18.215399
_cell_angle_alpha	89.967555
_cell_angle_beta	89.982369
_cell_angle_gamma	90.030990
loop_
_atom_site_label
_atom_site_type_symbol
_atom_site_fract_x
_atom_site_fract_y
_atom_site_fract_z
Zn1	Zn	0.799242	-0.208251	-0.416121
Zn2	Zn	1.132575	0.125082	-0.082788
Zn3	Zn	1.465909	0.458416	0.250546
Zn4	Zn	0.799160	-0.295691	-0.293050
Zn5	Zn	1.132494	0.037643	0.040283
Zn6	Zn	1.465827	0.370976	0.373617
Zn7	Zn	0.711813	-0.208259	-0.293067
Zn8	Zn	1.045147	0.125074	0.040267
Zn9	Zn	1.378480	0.458407	0.373600
Zn10	Zn	0.711763	-0.295646	-0.416073
Zn11	Zn	1.045097	0.037688	-0.082740
Zn12	Zn	1.378430	0.371021	0.250593
O13	O	0.755495	-0.251962	-0.354578
O14	O	1.088828	0.081372	-0.021244
O15	O	1.422161	0.414705	0.312089
O16	O	0.872396	-0.219866	-0.399808
O17	O	1.205730	0.113468	-0.066475
O18	O	1.539063	0.446801	0.266858
O19	O	0.787560	-0.284115	-0.190068
O20	O	1.120894	0.049218	0.143265
O21	O	1.454227	0.382551	0.476599
O22	O	0.723466	-0.135093	-0.309417
O23	O	1.056799	0.198240	0.023917
O24	O	1.390133	0.531574	0.357250
O25	O	0.872336	-0.284107	-0.309389
O26	O	1.205670	0.049226	0.023945
O27	O	1.539003	0.382560	0.357278
O28	O	0.787699	-0.135087	-0.399824
O29	O	1.121033	0.198246	-0.066491
O30	O	1.454366	0.531580	0.266842
O31	O	0.723387	-0.219880	-0.190080
O32	O	1.056720	0.113454	0.143253
O33	O	1.390053	0.446787	0.476587
O34	O	0.638641	-0.219836	-0.309371
O35	O	0.971975	0.113497	0.023963
O36	O	1.305308	0.446831	0.357296
O37	O	0.723381	-0.284030	-0.519064
O38	O	1.056714	0.049303	-0.185731
O39	O	1.390048	0.382637	0.147603
O40	O	0.638605	-0.284038	-0.399743
O41	O	0.971938	0.049295	-0.066410
O42	O	1.305271	0.382628	0.266923
O43	O	0.787651	-0.219822	-0.519099
O44	O	1.120984	0.113512	-0.185766
O45	O	1.454318	0.446845	0.147568
O46	O	0.787512	-0.368850	-0.309343
O47	O	1.120845	-0.035517	0.023991
O48	O	1.454179	0.297817	0.357324
O49	O	0.723302	-0.368817	-0.399727
O50	O	1.056635	-0.035483	-0.066394
O51	O	1.389968	0.297850	0.266939
C52	C	0.619652	-0.251933	-0.354554
C53	C	0.952986	0.081400	-0.021221
C54	C	1.286319	0.414733	0.312113
C55	C	0.561538	-0.251934	-0.354561
C56	C	0.894872	0.081399	-0.021228
C57	C	1.228205	0.414733	0.312105
C58	C	0.310384	-0.218571	-0.401745
C59	C	0.643717	0.114763	-0.068412
C60	C	0.977051	0.448096	0.264922
C61	C	0.364988	-0.218565	-0.401741
C62	C	0.698322	0.114768	-0.068408
C63	C	1.031655	0.448101	0.264926
O64	O	0.393258	-0.190176	-0.441853
O65	O	0.726592	0.143158	-0.108520
O66	O	1.059925	0.476491	0.224814
N67	N	0.392264	-0.251956	-0.354586
N68	N	0.725598	0.081378	-0.021253
N69	N	1.058931	0.414711	0.312080
C70	C	0.364933	-0.285357	-0.307438
C71	C	0.698266	0.047976	0.025896
C72	C	1.031600	0.381310	0.359229
O73	O	0.393147	-0.313758	-0.267329
O74	O	0.726481	0.019575	0.066004
O75	O	1.059814	0.352909	0.399338
C76	C	0.310330	-0.285364	-0.307446
C77	C	0.643663	0.047969	0.025887
C78	C	0.976996	0.381302	0.359220
C79	C	0.283057	-0.251968	-0.354599
C80	C	0.616390	0.081365	-0.021266
C81	C	0.949723	0.414698	0.312068
C82	C	0.283111	-0.185177	-0.448894
C83	C	0.616444	0.148156	-0.115561
C84	C	0.949777	0.481489	0.217772
C85	C	0.228510	-0.185182	-0.448897
C86	C	0.561843	0.148151	-0.115564
C87	C	0.895177	0.481485	0.217769
C88	C	0.201183	-0.218580	-0.401751
C89	C	0.534516	0.114754	-0.068418
C90	C	0.867850	0.448087	0.264915
C91	C	0.228456	-0.251973	-0.354602
C92	C	0.561789	0.081361	-0.021269
C93	C	0.895123	0.414694	0.312065
C94	C	0.283000	-0.318768	-0.260302
C95	C	0.616333	0.014565	0.073031
C96	C	0.949666	0.347899	0.406365
C97	C	0.228393	-0.318773	-0.260315
C98	C	0.561726	0.014560	0.073018
C99	C	0.895059	0.347894	0.406352
C100	C	0.201119	-0.285377	-0.307468
C101	C	0.534453	0.047957	0.025866
C102	C	0.867786	0.381290	0.359199
C103	C	0.146528	-0.285375	-0.307459
C104	C	0.479862	0.047958	0.025875
C105	C	0.813195	0.381292	0.359208
N106	N	0.119252	-0.251985	-0.354613
N107	N	0.452586	0.081349	-0.021280
N108	N	0.785919	0.414682	0.312053
C109	C	0.146580	-0.218587	-0.401760
C110	C	0.479913	0.114746	-0.068426
C111	C	0.813246	0.448080	0.264907
C112	C	0.479604	-0.285340	-0.307425
C113	C	0.812937	0.047994	0.025909
C114	C	1.146270	0.381327	0.359242
C115	C	0.534206	-0.285330	-0.307412
C116	C	0.867539	0.048003	0.025921
C117	C	1.200873	0.381337	0.359255
C118	C	0.534257	-0.218539	-0.401716
C119	C	0.867591	0.114794	-0.068383
C120	C	1.200924	0.448128	0.264951
C121	C	0.479654	-0.218546	-0.401725
C122	C	0.812987	0.114787	-0.068391
C123	C	1.146321	0.448120	0.264942
C124	C	0.452328	-0.251949	-0.354579
C125	C	0.785661	0.081384	-0.021246
C126	C	1.118994	0.414717	0.312087
C127	C	0.031914	-0.218599	-0.401762
C128	C	0.365248	0.114734	-0.068429
C129	C	0.698581	0.448068	0.264905
C130	C	-0.022691	-0.218605	-0.401759
C131	C	0.310642	0.114728	-0.068425
C132	C	0.643976	0.448062	0.264908
C133	C	-0.022738	-0.285398	-0.307458
C134	C	0.310596	0.047936	0.025876
C135	C	0.643929	0.381269	0.359209
C136	C	0.031863	-0.285390	-0.307458
C137	C	0.365196	0.047943	0.025876
C138	C	0.698530	0.381277	0.359209
C139	C	0.059188	-0.251989	-0.354616
C140	C	0.392521	0.081344	-0.021283
C141	C	0.725854	0.414678	0.312051
O142	O	0.118224	-0.313752	-0.267369
O143	O	0.451557	0.019582	0.065964
O144	O	0.784890	0.352915	0.399298
O145	O	0.118359	-0.190196	-0.441868
O146	O	0.451692	0.143137	-0.108535
O147	O	0.785025	0.476471	0.224798
C148	C	0.755407	-0.387804	-0.354544
C149	C	1.088740	-0.054471	-0.021211
C150	C	1.422073	0.278862	0.312123
C151	C	0.755417	-0.445918	-0.354554
C152	C	1.088750	-0.112585	-0.021221
C153	C	1.422084	0.220748	0.312112
C154	C	0.789016	-0.806286	-0.307595
C155	C	1.122350	-0.472953	0.025739
C156	C	1.455683	-0.139619	0.359072
C157	C	0.789037	-0.860890	-0.307605
C158	C	1.122370	-0.527557	0.025729
C159	C	1.455703	-0.194224	0.359062
O160	O	0.817513	-0.889131	-0.267641
O161	O	1.150846	-0.555798	0.065692
O162	O	1.484179	-0.222464	0.399026
N163	N	0.755587	-0.888201	-0.354627
N164	N	1.088920	-0.554867	-0.021293
N165	N	1.422253	-0.221534	0.312040
C166	C	0.722118	-0.860904	-0.401647
C167	C	1.055451	-0.527571	-0.068314
C168	C	1.388785	-0.194237	0.265020
O169	O	0.693669	-0.889148	-0.441644
O170	O	1.027002	-0.555814	-0.108311
O171	O	1.360335	-0.222481	0.225022
C172	C	0.722101	-0.806301	-0.401640
C173	C	1.055434	-0.472967	-0.068307
C174	C	1.388768	-0.139634	0.265026
C175	C	0.755549	-0.778993	-0.354610
C176	C	1.088882	-0.445660	-0.021277
C177	C	1.422216	-0.112326	0.312057
C178	C	0.822462	-0.778978	-0.260569
C179	C	1.155796	-0.445645	0.072765
C180	C	1.489129	-0.112312	0.406098
C181	C	0.822441	-0.724378	-0.260558
C182	C	1.155775	-0.391045	0.072775
C183	C	1.489108	-0.057711	0.406109
C184	C	0.788974	-0.697085	-0.307573
C185	C	1.122307	-0.363752	0.025760
C186	C	1.455641	-0.030418	0.359093
C187	C	0.755528	-0.724393	-0.354599
C188	C	1.088861	-0.391059	-0.021266
C189	C	1.422195	-0.057726	0.312067
C190	C	0.688635	-0.779005	-0.448664
C191	C	1.021969	-0.445672	-0.115331
C192	C	1.355302	-0.112338	0.218003
C193	C	0.688621	-0.724398	-0.448654
C194	C	1.021955	-0.391065	-0.115320
C195	C	1.355288	-0.057731	0.218013
C196	C	0.722070	-0.697090	-0.401623
C197	C	1.055403	-0.363757	-0.068290
C198	C	1.388736	-0.030424	0.265043
C199	C	0.722040	-0.642499	-0.401604
C200	C	1.055373	-0.309166	-0.068271
C201	C	1.388707	0.024168	0.265063
N202	N	0.755490	-0.615189	-0.354582
N203	N	1.088823	-0.281855	-0.021249
N204	N	1.422156	0.051478	0.312085
C205	C	0.788957	-0.642482	-0.307567
C206	C	1.122290	-0.309148	0.025767
C207	C	1.455624	0.024185	0.359100
C208	C	0.722157	-0.975575	-0.401658
C209	C	1.055491	-0.642241	-0.068325
C210	C	1.388824	-0.308908	0.265008
C211	C	0.722172	-1.030177	-0.401662
C212	C	1.055505	-0.696844	-0.068329
C213	C	1.388838	-0.363510	0.265005
C214	C	0.789091	-1.030160	-0.307620
C215	C	1.122424	-0.696826	0.025713
C216	C	1.455758	-0.363493	0.359046
C217	C	0.789074	-0.975556	-0.307613
C218	C	1.122407	-0.642223	0.025720
C219	C	1.455740	-0.308890	0.359053
C220	C	0.755607	-0.948264	-0.354636
C221	C	1.088941	-0.614931	-0.021303
C222	C	1.422274	-0.281598	0.312030
C223	C	0.788910	-0.527817	-0.307548
C224	C	1.122243	-0.194483	0.025786
C225	C	1.455576	0.138850	0.359119
C226	C	0.788884	-0.473211	-0.307539
C227	C	1.122217	-0.139878	0.025794
C228	C	1.455551	0.193455	0.359128
C229	C	0.721967	-0.473233	-0.401583
C230	C	1.055300	-0.139900	-0.068250
C231	C	1.388634	0.193433	0.265084
C232	C	0.721990	-0.527834	-0.401589
C233	C	1.055324	-0.194501	-0.068256
C234	C	1.388657	0.138833	0.265077
C235	C	0.755466	-0.555124	-0.354569
C236	C	1.088799	-0.221791	-0.021236
C237	C	1.422133	0.111542	0.312098
O238	O	0.693580	-0.614224	-0.441549
O239	O	1.026913	-0.280890	-0.108216
O240	O	1.360247	0.052443	0.225117
O241	O	0.817406	-0.614231	-0.267583
O242	O	1.150740	-0.280898	0.065750
O243	O	1.484073	0.052435	0.399084
C244	C	0.891868	-0.251990	-0.354602
C245	C	1.225201	0.081343	-0.021269
C246	C	1.558534	0.414676	0.312065
C247	C	0.949982	-0.252003	-0.354612
C248	C	1.283315	0.081331	-0.021279
C249	C	1.616648	0.414664	0.312054
C250	C	0.755519	-0.251920	-0.546531
C251	C	1.088853	0.081413	-0.213197
C252	C	1.422186	0.414747	0.120136
C253	C	0.755530	-0.251902	-0.628330
C254	C	1.088863	0.081431	-0.294996
C255	C	1.422197	0.414765	0.038337
C256	C	0.755597	-0.115589	-0.354628
C257	C	1.088931	0.217745	-0.021294
C258	C	1.422264	0.551078	0.312039
C259	C	0.755641	-0.057475	-0.354649
C260	C	1.088974	0.275859	-0.021316
C261	C	1.422308	0.609192	0.312018
C262	C	0.722143	-0.218432	-0.816531
C263	C	1.055476	0.114901	-0.483198
C264	C	1.388810	0.448234	-0.149864
C265	C	0.722152	-0.218422	-0.893390
C266	C	1.055485	0.114912	-0.560056
C267	C	1.388819	0.448245	-0.226723
C268	C	0.788979	-0.285310	-0.893366
C269	C	1.122313	0.048024	-0.560033
C270	C	1.455646	0.381357	-0.226700
C271	C	0.788967	-0.285323	-0.816509
C272	C	1.122301	0.048011	-0.483176
C273	C	1.455634	0.381344	-0.149842
C274	C	0.755550	-0.251881	-0.778093
C275	C	1.088883	0.081453	-0.444760
C276	C	1.422217	0.414786	-0.111427
C277	C	0.755571	-0.251857	-0.931809
C278	C	1.088904	0.081476	-0.598476
C279	C	1.422238	0.414809	-0.265143
C280	C	0.755581	-0.251846	-1.015143
C281	C	1.088915	0.081487	-0.681810
C282	C	1.422248	0.414820	-0.348476
C283	C	0.755539	-0.251893	-0.694754
C284	C	1.088872	0.081441	-0.361421
C285	C	1.422206	0.414774	-0.028088
C286	C	0.755500	-0.251966	-0.163372
C287	C	1.088834	0.081368	0.169962
C288	C	1.422167	0.414701	0.503295
C289	C	0.755591	-0.251836	-0.081573
C290	C	1.088924	0.081497	0.251760
C291	C	1.422258	0.414831	0.585094
H292	H	0.457358	-0.312539	-0.269027
H293	H	0.790691	0.020794	0.064306
H294	H	1.124025	0.354127	0.397640
N295	N	0.685876	-0.443785	-0.452291
N296	N	1.019210	-0.110451	-0.118957
N297	N	1.352543	0.222882	0.214376
H298	H	0.693979	-0.453252	-0.504885
H299	H	1.027313	-0.119919	-0.171552
H300	H	1.360646	0.213414	0.161782
H301	H	0.648540	-0.453332	-0.440758
H302	H	0.981873	-0.119999	-0.107425
H303	H	1.315206	0.213335	0.225908
H304	H	0.816122	-0.450979	-0.269239
H305	H	1.149455	-0.117646	0.064095
H306	H	1.482788	0.215688	0.397428
N307	N	0.686120	-0.182343	-0.934843
N308	N	1.019453	0.150990	-0.601510
N309	N	1.352786	0.484323	-0.268176
H310	H	0.707388	-0.158113	-0.966749
H311	H	1.040722	0.175220	-0.633416
H312	H	1.374055	0.508553	-0.300082
H313	H	0.661885	-0.203619	-0.966672
H314	H	0.995218	0.129714	-0.633339
H315	H	1.328552	0.463047	-0.300005
H316	H	0.694930	-1.052406	-0.439952
H317	H	1.028263	-0.719073	-0.106618
H318	H	1.361596	-0.385739	0.226715
H319	H	0.849679	-0.702147	-0.222264
H320	H	1.183012	-0.368814	0.111069
H321	H	1.516346	-0.035481	0.444402
N322	N	0.450240	-0.182525	-0.452578
N323	N	0.783573	0.150809	-0.119245
N324	N	1.116907	0.484142	0.214089
H325	H	0.475842	-0.161366	-0.482439
H326	H	0.809176	0.171967	-0.149105
H327	H	1.142509	0.505300	0.184228
H328	H	0.427586	-0.203836	-0.486589
H329	H	0.760919	0.129497	-0.153256
H330	H	1.094253	0.462830	0.180077
H331	H	0.816187	-0.312536	-0.924654
H332	H	1.149520	0.020797	-0.591321
H333	H	1.482854	0.354130	-0.257987
N334	N	0.825191	-1.059607	-0.256917
N335	N	1.158524	-0.726274	0.076416
N336	N	1.491858	-0.392940	0.409750
H337	H	0.862540	-1.050068	-0.268396
H338	H	1.195873	-0.716734	0.064937
H339	H	1.529206	-0.383401	0.398271
H340	H	0.817050	-1.050130	-0.204340
H341	H	1.150383	-0.716797	0.128993
H342	H	1.483716	-0.383464	0.462327
N343	N	0.061280	-0.321405	-0.256594
N344	N	0.394614	0.011928	0.076739
N345	N	0.727947	0.345261	0.410073
H346	H	0.083930	-0.345661	-0.286438
H347	H	0.417264	-0.012328	0.046896
H348	H	0.750597	0.321006	0.380229
H349	H	0.083908	-0.300088	-0.222554
H350	H	0.417241	0.033245	0.110779
H351	H	0.750574	0.366578	0.444112
H352	H	0.816173	-0.312562	-0.785212
H353	H	1.149506	0.020771	-0.451879
H354	H	1.482839	0.354104	-0.118546
N355	N	0.686100	-0.182363	-0.775102
N356	N	1.019433	0.150970	-0.441768
N357	N	1.352766	0.484304	-0.108435
H358	H	0.648739	-0.190475	-0.788469
H359	H	0.982073	0.142858	-0.455136
H360	H	1.315406	0.476191	-0.121802
H361	H	0.691204	-0.187459	-0.720592
H362	H	1.024537	0.145875	-0.387259
H363	H	1.357871	0.479208	-0.053926
N364	N	0.652525	-0.694958	-0.499369
N365	N	0.985858	-0.361625	-0.166035
N366	N	1.319191	-0.028292	0.167298
H367	H	0.660626	-0.704428	-0.551963
H368	H	0.993959	-0.371095	-0.218629
H369	H	1.327293	-0.037762	0.114704
H370	H	0.615191	-0.704513	-0.487830
H371	H	0.948524	-0.371180	-0.154497
H372	H	1.281857	-0.037846	0.178837
N373	N	0.686054	-0.946137	-0.452368
N374	N	1.019387	-0.612804	-0.119035
N375	N	1.352721	-0.279470	0.214298
H376	H	0.694151	-0.955610	-0.504962
H377	H	1.027484	-0.622277	-0.171629
H378	H	1.360818	-0.288943	0.161704
H379	H	0.648721	-0.955693	-0.440822
H380	H	0.982055	-0.622359	-0.107488
H381	H	1.315388	-0.289026	0.225845
N382	N	-0.052107	-0.182578	-0.452610
N383	N	0.281226	0.150755	-0.119277
N384	N	0.614560	0.484088	0.214056
H385	H	-0.026506	-0.161421	-0.482475
H386	H	0.306827	0.171912	-0.149142
H387	H	0.640160	0.505246	0.184191
H388	H	-0.074766	-0.203888	-0.486618
H389	H	0.258567	0.129446	-0.153285
H390	H	0.591901	0.462779	0.180049
N391	N	0.563742	-0.182522	-0.452573
N392	N	0.897075	0.150811	-0.119240
N393	N	1.230408	0.484144	0.214093
H394	H	0.554251	-0.190693	-0.505135
H395	H	0.887584	0.142641	-0.171802
H396	H	1.220918	0.475974	0.161531
H397	H	0.554246	-0.145168	-0.441184
H398	H	0.887579	0.188165	-0.107851
H399	H	1.220912	0.521498	0.225483
N400	N	0.061381	-0.182575	-0.452625
N401	N	0.394715	0.150758	-0.119292
N402	N	0.728048	0.484091	0.214042
H403	H	0.035812	-0.161424	-0.482490
H404	H	0.369145	0.171909	-0.149156
H405	H	0.702478	0.505243	0.184177
H406	H	0.084039	-0.158349	-0.422731
H407	H	0.417373	0.174985	-0.089397
H408	H	0.750706	0.508318	0.243936
N409	N	0.563615	-0.321344	-0.256542
N410	N	0.896948	0.011989	0.076791
N411	N	1.230282	0.345323	0.410125
H412	H	0.554096	-0.358711	-0.267877
H413	H	0.887430	-0.025378	0.065457
H414	H	1.220763	0.307955	0.398790
H415	H	0.602345	-0.316233	-0.263708
H416	H	0.935678	0.017100	0.069625
H417	H	1.269011	0.350433	0.402958
H418	H	0.849718	-0.801195	-0.222283
H419	H	1.183051	-0.467861	0.111050
H420	H	1.516385	-0.134528	0.444384
H421	H	0.206309	-0.157990	-0.487297
H422	H	0.539642	0.175344	-0.153964
H423	H	0.872976	0.508677	0.179369
H424	H	0.305355	-0.157981	-0.487290
H425	H	0.638688	0.175353	-0.153957
H426	H	0.972022	0.508686	0.179376
H427	H	0.661396	-0.801229	-0.486958
H428	H	0.994729	-0.467896	-0.153624
H429	H	1.328062	-0.134563	0.179709
N430	N	0.312407	-0.354787	-0.209442
N431	N	0.645740	-0.021454	0.123892
N432	N	0.979074	0.311880	0.457225
H433	H	0.286802	-0.375944	-0.179583
H434	H	0.620135	-0.042610	0.153750
H435	H	0.953469	0.290723	0.487083
H436	H	0.335059	-0.379009	-0.239332
H437	H	0.668393	-0.045676	0.094001
H438	H	1.001726	0.287658	0.427335
H439	H	-0.044997	-0.312587	-0.269069
H440	H	0.288336	0.020746	0.064264
H441	H	0.621669	0.354079	0.397597
H442	H	0.694756	-0.550069	-0.439887
H443	H	1.028089	-0.216736	-0.106554
H444	H	1.361422	0.116598	0.226779
H445	H	0.206146	-0.345976	-0.221925
H446	H	0.539480	-0.012642	0.111409
H447	H	0.872813	0.320691	0.444742
H448	H	0.816170	-0.550030	-0.269261
H449	H	1.149503	-0.216697	0.064072
H450	H	1.482837	0.116637	0.397406
H451	H	0.816310	-0.953326	-0.269318
H452	H	1.149644	-0.619992	0.064015
H453	H	1.482977	-0.286659	0.397349
