data_functionalizedCrystal
_audit_creation_method	'MofGen! by Chris Wilmer'
_symmetry_space_group_name_H-M	'P1'
_symmetry_Int_Tables_number	1
_symmetry_cell_setting	triclinic
loop_
_symmetry_equiv_pos_as_xyz
  x,y,z
_cell_length_a	10.654545
_cell_length_b	15.944545
_cell_length_c	9.130313
_cell_angle_alpha	89.993380
_cell_angle_beta	89.996934
_cell_angle_gamma	83.989626
loop_
_atom_site_label
_atom_site_type_symbol
_atom_site_fract_x
_atom_site_fract_y
_atom_site_fract_z
O1	O	1.666313	0.117959	-0.121792
O2	O	1.300687	0.129203	-0.121799
O3	O	1.493489	0.001363	-0.121778
O4	O	1.473511	0.245798	-0.121813
O5	O	1.493475	0.001360	0.121821
O6	O	1.300674	0.129199	0.121800
O7	O	1.666299	0.117955	0.121806
Cu8	Cu	1.483486	0.123577	0.144046
Cu9	Cu	1.483501	0.123581	-0.144038
O10	O	1.473498	0.245794	0.121785
C11	C	1.253894	0.128376	-0.000000
C12	C	1.114482	0.125908	-0.000002
C13	C	1.048985	0.124745	0.132784
C14	C	0.917996	0.122412	0.132785
C15	C	0.918011	0.122411	-0.132800
C16	C	1.048999	0.124737	-0.132799
C17	C	1.492654	-0.029937	0.000023
C18	C	1.490172	-0.123198	0.000027
C19	C	1.363248	-0.394564	-0.000005
C20	C	1.424447	-0.343623	-0.120112
C21	C	1.481320	-0.458893	-0.000015
C22	C	1.424466	-0.343654	0.120057
C23	C	1.485663	-0.293954	0.000008
C24	C	1.542487	-0.409181	-0.120221
C25	C	1.542489	-0.409215	0.120056
C26	C	1.603774	-0.358306	-0.000079
C27	C	1.478815	-0.553910	-0.000030
C28	C	1.488177	-0.198941	0.000012
C29	C	1.713093	0.118782	0.000004
C30	C	1.852505	0.121249	-0.000003
C31	C	1.474333	0.277095	-0.000019
C32	C	1.476815	0.370356	-0.000032
N33	N	1.483484	0.123573	0.346668
N34	N	1.483513	0.123578	-0.346661
C35	C	1.568885	0.066990	0.423329
C36	C	1.568897	0.066990	0.576666
C37	C	1.398103	0.180164	0.576667
C38	C	1.398086	0.180159	0.423333
H39	H	0.864675	0.121465	0.240913
H40	H	1.102328	0.125682	-0.240937
O41	O	1.601842	-0.443326	-0.241454
C42	C	1.598774	-0.531512	-0.240015
H43	H	1.516939	-0.547992	-0.168833
H44	H	1.691282	-0.563006	-0.193583
C45	C	1.681517	-0.542793	-0.484748
C46	C	1.580998	-0.563034	-0.397331
H47	H	1.670558	-0.562239	-0.581788
H48	H	1.683589	-0.483381	-0.485717
H49	H	1.758597	-0.569039	-0.446038
H50	H	1.503923	-0.536779	-0.436031
H51	H	1.578913	-0.622443	-0.396372
H52	H	1.328536	0.226236	0.360911
H53	H	1.261563	-0.410804	-0.000125
O54	O	1.364786	-0.309602	0.241164
C55	C	1.238072	-0.327725	0.240686
H56	H	1.228958	-0.385845	0.170353
H57	H	1.175613	-0.271684	0.193831
C58	C	1.207534	-0.273328	0.484851
C59	C	1.196342	-0.344717	0.398476
H60	H	1.181789	-0.283806	0.582183
H61	H	1.292901	-0.261115	0.485172
H62	H	1.155484	-0.226634	0.445788
H63	H	1.248403	-0.391406	0.437529
H64	H	1.110982	-0.356938	0.398165
O65	O	1.725225	-0.339221	0.000055
C66	C	1.787676	-0.374076	0.125596
H67	H	1.737458	-0.429174	0.167037
H68	H	1.786604	-0.323884	0.214634
C69	C	1.986855	-0.337849	0.035575
C70	C	1.925183	-0.405527	0.086466
H71	H	2.071677	-0.357246	0.011442
H72	H	1.944781	-0.314363	-0.049002
H73	H	1.985949	-0.296029	0.109782
H74	H	1.926076	-0.447341	0.012254
H75	H	1.967261	-0.429020	0.171030
O76	O	1.651876	0.011938	0.349083
C77	C	1.727274	-0.037989	0.449635
H78	H	1.675799	-0.039253	0.558947
H79	H	1.820561	-0.010136	0.465914
C80	C	1.816375	-0.126895	0.255559
C81	C	1.753148	-0.128452	0.389815
H82	H	1.832342	-0.182696	0.218658
H83	H	1.765582	-0.093256	0.187813
H84	H	1.894107	-0.103680	0.269143
H85	H	1.675411	-0.151657	0.376226
H86	H	1.803929	-0.162097	0.457557
O87	O	1.651910	0.012142	0.651296
C88	C	1.729405	0.057611	0.739937
H89	H	1.679386	0.123028	0.762903
H90	H	1.822208	0.063898	0.680823
C91	C	1.817699	-0.069927	0.857387
C92	C	1.756260	0.010417	0.885604
H93	H	1.834270	-0.099039	0.947239
H94	H	1.765493	-0.100561	0.797664
H95	H	1.895028	-0.064677	0.808122
H96	H	1.678926	0.005166	0.934852
H97	H	1.808454	0.041050	0.945339
H98	H	1.328575	0.226236	0.639103
H99	H	1.102298	0.125698	0.240916
H100	H	0.864679	0.121458	-0.240918
H101	H	1.374587	-0.314975	-0.221655
H102	H	1.592304	-0.437878	0.221604
