data_functionalizedCrystal
_audit_creation_method	'MofGen! by Chris Wilmer'
_symmetry_space_group_name_H-M	'P1'
_symmetry_Int_Tables_number	1
_symmetry_cell_setting	triclinic
loop_
_symmetry_equiv_pos_as_xyz
  x,y,z
_cell_length_a	10.654550
_cell_length_b	10.654551
_cell_length_c	9.130313
_cell_angle_alpha	89.997246
_cell_angle_beta	89.999724
_cell_angle_gamma	84.485180
loop_
_atom_site_label
_atom_site_type_symbol
_atom_site_fract_x
_atom_site_fract_y
_atom_site_fract_z
O1	O	1.667840	0.176399	-0.121684
O2	O	1.302362	0.193205	-0.121710
O3	O	1.493503	0.002063	-0.121693
O4	O	1.476699	0.367541	-0.121701
O5	O	1.493490	0.002057	0.121906
O6	O	1.302349	0.193199	0.121889
O7	O	1.667827	0.176393	0.121915
Cu8	Cu	1.485087	0.184796	0.144144
Cu9	Cu	1.485102	0.184802	-0.143939
O10	O	1.476686	0.367535	0.121898
C11	C	1.255557	0.191968	0.000086
C12	C	1.116114	0.188276	0.000076
C13	C	1.036629	0.300818	0.000078
C14	C	0.905608	0.297341	0.000103
C15	C	0.933570	0.068772	0.000119
C16	C	1.064589	0.072249	0.000104
C17	C	1.492262	-0.044738	0.000104
C18	C	1.488570	-0.184181	0.000097
C19	C	1.486844	-0.249682	-0.132690
C20	C	1.483364	-0.380702	-0.132692
C21	C	1.483341	-0.380710	0.132893
C22	C	1.486812	-0.249691	0.132893
C23	C	1.714632	0.177630	0.000116
C24	C	1.854075	0.181322	0.000116
C25	C	1.477926	0.414336	0.000098
C26	C	1.481619	0.553779	0.000095
N27	N	1.485085	0.184790	0.346767
N28	N	1.485114	0.184798	-0.346562
C29	C	1.569751	0.100188	0.423426
C30	C	1.569763	0.100189	0.576763
C31	C	1.400439	0.269404	0.576768
C32	C	1.400421	0.269396	0.423434
H33	H	1.129309	-0.019401	0.000106
H34	H	1.481956	-0.434027	-0.240821
C35	C	1.307295	0.362469	0.339096
H36	H	1.319406	0.350339	0.236796
H37	H	1.321664	0.446418	0.364211
H38	H	1.223357	0.348048	0.364234
C39	C	1.093304	0.428440	0.000062
H40	H	1.027196	0.494967	0.000080
H41	H	1.143826	0.434553	-0.084891
H42	H	1.143838	0.434545	0.085016
C43	C	1.488705	-0.177629	0.278962
H44	H	1.491008	-0.090215	0.259940
H45	H	1.561237	-0.208035	0.333542
H46	H	1.415010	-0.190163	0.333506
C47	C	1.481416	-0.452770	0.278960
H48	H	1.482929	-0.394990	0.358044
H49	H	1.553170	-0.512822	0.284492
H50	H	1.406943	-0.494938	0.284469
H51	H	1.638687	0.031295	0.361008
C52	C	1.662901	0.007132	0.661082
H53	H	1.713323	-0.043248	0.593457
H54	H	1.617285	-0.045573	0.720912
H55	H	1.715577	0.052811	0.720883
H56	H	0.891602	-0.025693	0.000151
C57	C	1.307328	0.362474	0.661106
H58	H	1.319472	0.350372	0.763406
H59	H	1.223391	0.348057	0.635997
H60	H	1.321701	0.446424	0.635958
H61	H	1.488272	-0.196347	-0.240822
C62	C	0.818180	0.421137	0.000095
H63	H	0.867636	0.490731	0.000065
H64	H	0.766494	0.424540	0.085048
H65	H	0.766483	0.424525	-0.084859
