data_functionalizedCrystal
_audit_creation_method	'MofGen! by Chris Wilmer'
_symmetry_space_group_name_H-M	'P1'
_symmetry_Int_Tables_number	1
_symmetry_cell_setting	triclinic
loop_
_symmetry_equiv_pos_as_xyz
  x,y,z
_cell_length_a	19.288864
_cell_length_b	14.971486
_cell_length_c	14.048226
_cell_angle_alpha	89.993360
_cell_angle_beta	89.979690
_cell_angle_gamma	83.375187
loop_
_atom_site_label
_atom_site_type_symbol
_atom_site_fract_x
_atom_site_fract_y
_atom_site_fract_z
O1	O	0.921714	0.111581	-0.079466
O2	O	1.421714	0.611581	0.420534
O3	O	0.719502	0.126633	-0.079401
O4	O	1.219502	0.626633	0.420599
O5	O	0.826028	-0.011122	-0.079429
O6	O	1.326028	0.488878	0.420571
O7	O	0.815188	0.249337	-0.079439
O8	O	1.315188	0.749337	0.420561
O9	O	0.826015	-0.011130	0.078892
O10	O	1.326015	0.488870	0.578892
O11	O	0.719489	0.126625	0.078920
O12	O	1.219489	0.626625	0.578920
O13	O	0.921701	0.111573	0.078855
O14	O	1.421701	0.611573	0.578855
Zn15	Zn	0.820593	0.119098	0.104024
Zn16	Zn	1.320593	0.619098	0.604024
Zn17	Zn	0.820610	0.119109	-0.104571
Zn18	Zn	1.320610	0.619109	0.395429
O19	O	0.815175	0.249329	0.078882
O20	O	1.315175	0.749329	0.578882
C21	C	0.825537	-0.044448	-0.000268
C22	C	1.325537	0.455552	0.499732
C23	C	0.824084	-0.143737	-0.000269
C24	C	1.324084	0.356263	0.499731
C25	C	0.693618	0.126145	-0.000232
C26	C	1.193618	0.626145	0.499768
C27	C	0.616510	0.124691	-0.000207
C28	C	1.116510	0.624691	0.499793
C29	C	0.886665	-0.201301	-0.000288
C30	C	1.386665	0.298699	0.499712
C31	C	0.885296	-0.294593	-0.000297
C32	C	1.385296	0.205407	0.499703
C33	C	0.821345	-0.330320	-0.000280
C34	C	1.321345	0.169680	0.499720
C35	C	0.758759	-0.272749	-0.000264
C36	C	1.258759	0.227251	0.499736
C37	C	0.760129	-0.179458	-0.000261
C38	C	1.260129	0.320542	0.499739
C39	C	0.755909	-0.467196	-0.000266
C40	C	1.255909	0.032804	0.499734
C41	C	0.754538	-0.560492	-0.000267
C42	C	1.254538	-0.060492	0.499733
C43	C	0.881075	-0.582330	-0.000302
C44	C	1.381075	-0.082330	0.499698
C45	C	0.882445	-0.489040	-0.000300
C46	C	1.382445	0.010960	0.499700
C47	C	0.819859	-0.431475	-0.000281
C48	C	1.319859	0.068525	0.499719
C49	C	0.572077	0.205520	-0.000226
C50	C	1.072077	0.705520	0.499774
C51	C	0.499625	0.204154	-0.000236
C52	C	0.999625	0.704154	0.499764
C53	C	0.471610	0.121955	-0.000247
C54	C	0.971610	0.621955	0.499753
C55	C	0.516052	0.041116	-0.000224
C56	C	1.016052	0.541116	0.499776
C57	C	0.588502	0.042484	-0.000204
C58	C	1.088502	0.542484	0.499796
C59	C	0.363142	0.057340	-0.055744
C60	C	0.863142	0.557340	0.444256
C61	C	0.290693	0.055975	-0.055770
C62	C	0.790693	0.555975	0.444230
C63	C	0.248150	0.117732	-0.000305
C64	C	0.748150	0.617732	0.499695
C65	C	0.278064	0.180868	0.055174
C66	C	0.778064	0.680868	0.555174
C67	C	0.350514	0.182236	0.055194
C68	C	0.850514	0.682236	0.555194
C69	C	0.393051	0.120462	-0.000269
C70	C	0.893051	0.620462	0.499731
C71	C	0.125157	0.197085	-0.000333
C72	C	0.625157	0.697085	0.499667
C73	C	0.052704	0.195715	-0.000338
C74	C	0.552704	0.695715	0.499662
C75	C	0.069133	0.032675	-0.000335
C76	C	0.569133	0.532675	0.499665
C77	C	0.141584	0.034046	-0.000321
C78	C	0.641584	0.534046	0.499679
C79	C	0.169591	0.116254	-0.000324
C80	C	0.669591	0.616254	0.499676
C81	C	0.947586	0.112062	-0.000316
C82	C	1.447586	0.612062	0.499684
C83	C	1.024694	0.113516	-0.000347
C84	C	1.524694	0.613516	0.499653
C85	C	0.815667	0.282655	-0.000280
C86	C	1.315667	0.782655	0.499720
C87	C	0.817119	0.381944	-0.000286
C88	C	1.317119	0.881944	0.499714
N89	N	0.820587	0.119090	0.246385
N90	N	1.320587	0.619090	0.746385
N91	N	0.820622	0.119109	-0.246932
N92	N	1.320622	0.619109	0.253068
C93	C	0.867771	0.058117	0.296191
C94	C	1.367771	0.558117	0.796191
C95	C	0.867776	0.058117	0.395849
C96	C	1.367776	0.558117	0.895849
C97	C	0.820599	0.119094	0.445698
C98	C	1.320599	0.619094	0.945698
C99	C	0.773410	0.180070	0.395886
C100	C	1.273410	0.680070	0.895886
C101	C	0.773402	0.180066	0.296230
C102	C	1.273402	0.680066	0.796230
C103	C	0.773430	0.180077	0.603600
C104	C	1.273430	0.680077	1.103600
C105	C	0.773438	0.180082	0.703263
C106	C	1.273438	0.680082	1.203263
C107	C	0.867803	0.058128	0.703219
C108	C	1.367803	0.558128	1.203219
C109	C	0.867796	0.058123	0.603563
C110	C	1.367796	0.558123	1.103563
C111	C	0.820607	0.119101	0.553757
C112	C	1.320607	0.619101	1.053757
H113	H	0.938741	-0.172220	-0.000296
H114	H	1.438741	0.327780	0.499704
H115	H	0.934519	-0.459955	-0.000307
H116	H	1.434519	0.040045	0.499693
H117	H	0.147961	0.264023	-0.000322
H118	H	0.647961	0.764023	0.499678
H119	H	0.177762	-0.031773	-0.000311
H120	H	0.677762	0.468227	0.499689
H121	H	0.704944	-0.420328	-0.000254
H122	H	1.204944	0.079672	0.499746
H123	H	0.906226	0.008478	0.743776
H124	H	1.406226	0.508478	1.243776
H125	H	0.702464	-0.589577	-0.000237
H126	H	1.202464	-0.089577	0.499763
H127	H	0.906214	0.008475	0.562975
H128	H	1.406214	0.508475	1.062975
H129	H	0.016527	0.261539	-0.000347
H130	H	0.516527	0.761539	0.499653
H131	H	0.266342	0.004570	-0.100948
H132	H	0.766342	0.504570	0.399052
H133	H	0.706689	-0.301844	-0.000256
H134	H	1.206689	0.198156	0.499744
H135	H	0.709169	-0.132590	-0.000246
H136	H	1.209169	0.367410	0.499754
H137	H	0.735021	0.229736	0.743845
H138	H	1.235021	0.729736	1.243845
H139	H	0.397774	0.007049	-0.100916
H140	H	0.897774	0.507049	0.399084
H141	H	0.932035	-0.629204	-0.000320
H142	H	1.432035	-0.129204	0.499680
H143	H	0.735001	0.229728	0.563051
H144	H	1.235001	0.729728	1.063051
H145	H	0.594875	0.272460	-0.000230
H146	H	1.094875	0.772460	0.499770
H147	H	0.463441	0.269976	-0.000248
H148	H	0.963441	0.769976	0.499752
H149	H	0.374867	0.233641	0.100369
H150	H	0.874867	0.733641	0.600369
H151	H	0.493237	-0.025811	-0.000246
H152	H	0.993237	0.474189	0.499754
H153	H	0.243428	0.231155	0.100339
H154	H	0.743428	0.731155	0.600339
H155	H	0.734994	0.229716	0.436479
H156	H	1.234994	0.729716	0.936479
H157	H	0.624680	-0.023339	-0.000190
H158	H	1.124680	0.476661	0.499810
H159	H	0.936256	-0.341458	-0.000311
H160	H	1.436256	0.158542	0.499689
H161	H	0.734979	0.229715	0.255679
H162	H	1.234979	0.729715	0.755679
H163	H	0.906191	0.008466	0.255610
H164	H	1.406191	0.508466	0.755610
H165	H	0.046324	-0.034253	-0.000404
H166	H	0.546324	0.465747	0.499596
H167	H	0.906196	0.008467	0.436400
H168	H	1.406196	0.508467	0.936400
