data_functionalizedCrystal
_audit_creation_method	'MofGen! by Chris Wilmer'
_symmetry_space_group_name_H-M	'P1'
_symmetry_Int_Tables_number	1
_symmetry_cell_setting	triclinic
loop_
_symmetry_equiv_pos_as_xyz
  x,y,z
_cell_length_a	14.044220
_cell_length_b	14.971486
_cell_length_c	13.448316
_cell_angle_alpha	90.006811
_cell_angle_beta	90.001643
_cell_angle_gamma	88.401503
loop_
_atom_site_label
_atom_site_type_symbol
_atom_site_fract_x
_atom_site_fract_y
_atom_site_fract_z
O1	O	-1.257954	-0.215664	-0.082587
O2	O	-0.981976	-0.207882	-0.082612
O3	O	-1.127362	-0.082155	-0.082592
O4	O	-1.112568	-0.341390	-0.082608
O5	O	-1.127344	-0.082146	0.082792
O6	O	-0.981958	-0.207872	0.082771
O7	O	-1.257936	-0.215654	0.082797
Cu8	Cu	-1.119945	-0.211762	0.097885
Cu9	Cu	-1.119967	-0.211774	-0.097701
O10	O	-1.112550	-0.341380	0.082776
C11	C	-1.126691	-0.048774	0.000100
C12	C	-1.124708	0.050680	0.000098
C13	C	-0.946648	-0.204470	0.000076
C14	C	-0.841411	-0.194309	0.000067
C15	C	-1.293263	-0.219065	0.000106
C16	C	-1.398500	-0.229227	0.000109
C17	C	-0.648729	-0.175732	0.000088
C18	C	-0.591177	-0.247799	0.000088
C19	C	-0.483962	-0.237463	0.000099
C20	C	-0.755954	-0.186067	0.000076
C21	C	-1.113220	-0.374762	0.000083
C22	C	-1.115203	-0.474215	0.000077
N23	N	-1.119937	-0.211754	0.235449
C24	C	-1.210119	0.101176	0.000107
C25	C	-1.208250	0.194623	0.000097
C26	C	-1.120970	0.237571	0.000085
C27	C	-1.035554	0.187067	0.000074
C28	C	-1.037423	0.093623	0.000077
C29	C	-1.031663	0.381836	0.000070
C30	C	-1.029793	0.475288	0.000069
C31	C	-1.202490	0.482837	0.000090
C32	C	-1.204360	0.389392	0.000093
C33	C	-1.118942	0.338895	0.000083
N34	N	-1.119982	-0.211775	-0.235265
C35	C	-1.184334	-0.156109	0.287499
C36	C	-1.184340	-0.156108	0.391602
C37	C	-1.119952	-0.211759	0.443654
C38	C	-1.055549	-0.267406	0.391597
C39	C	-1.055539	-0.267401	0.287496
C40	C	-1.055575	-0.267414	0.608577
C41	C	-1.055586	-0.267420	0.712686
C42	C	-1.184376	-0.156122	0.712683
C43	C	-1.184366	-0.156117	0.608582
C44	C	-1.119963	-0.211765	0.556532
H45	H	-0.622427	-0.317261	0.000079
H46	H	-0.617481	-0.106277	0.000097
C47	C	-1.311629	-0.046089	0.297963
C48	C	-1.255109	-0.094933	0.230288
H49	H	-1.355318	-0.008316	0.262644
H50	H	-1.345770	-0.086066	0.338551
H51	H	-1.272128	-0.010747	0.338581
H52	H	-1.294610	-0.130280	0.189675
H53	H	-1.220967	-0.054951	0.189683
C54	C	-0.933280	0.287770	-0.084954
C55	C	-0.939615	0.234277	0.000061
H56	H	-0.874052	0.316918	-0.084954
H57	H	-0.937599	0.251466	-0.142616
H58	H	-0.983886	0.331214	-0.084938
H59	H	-0.889012	0.190828	0.000041
H60	H	-0.935286	0.270584	0.057738
H61	H	-1.236814	-0.110810	0.755068
C62	C	-0.939351	-0.015852	-0.084953
C63	C	-0.943537	0.038113	0.000067
H64	H	-0.881385	-0.050116	-0.084964
H65	H	-0.991593	-0.054798	-0.084938
H66	H	-0.942221	0.020763	-0.142618
H67	H	-0.940675	0.001497	0.057732
H68	H	-0.891281	0.077063	0.000061
C69	C	-1.204811	-0.036014	0.508676
C70	C	-1.255133	-0.094943	0.448807
H71	H	-1.248521	0.001753	0.543984
H72	H	-1.166477	-0.069151	0.554575
H73	H	-1.165320	-0.000667	0.468065
H74	H	-1.294620	-0.130294	0.489419
H75	H	-1.293484	-0.061802	0.402902
H76	H	-1.281192	0.066215	0.000122
H77	H	-1.277800	0.235734	0.000106
H78	H	-1.275430	0.354427	0.000109
C79	C	-1.276316	0.629429	0.000066
C80	C	-1.296384	0.538340	0.000084
H81	H	-1.334281	0.663695	0.000058
H82	H	-1.240535	0.643200	0.057731
H83	H	-1.240535	0.643170	-0.057615
H84	H	-1.332159	0.524599	0.057770
H85	H	-1.332180	0.524564	-0.057587
H86	H	-1.003154	-0.312736	0.755061
H87	H	-0.958722	0.510253	0.000075
H88	H	-1.003119	-0.312714	0.433984
C89	C	-0.928280	-0.377442	0.619031
C90	C	-0.984787	-0.328589	0.551362
H91	H	-0.884588	-0.415214	0.583706
H92	H	-0.894143	-0.337471	0.659642
H93	H	-0.967788	-0.412786	0.659627
H94	H	-0.945279	-0.293240	0.510771
H95	H	-1.018927	-0.368565	0.510735
H96	H	-0.962107	0.340724	0.000059
C97	C	-1.000042	-0.417789	0.255414
C98	C	-0.984757	-0.328571	0.230277
H99	H	-0.956344	-0.455551	0.220084
H100	H	-0.990829	-0.425752	0.324853
H101	H	-1.063317	-0.432575	0.238336
H102	H	-0.921483	-0.313783	0.247361
H103	H	-0.993962	-0.320604	0.160822
H104	H	-1.236799	-0.110807	0.566201
