data_functionalizedCrystal
_audit_creation_method	'MofGen! by Chris Wilmer'
_symmetry_space_group_name_H-M	'P1'
_symmetry_Int_Tables_number	1
_symmetry_cell_setting	triclinic
loop_
_symmetry_equiv_pos_as_xyz
  x,y,z
_cell_length_a	19.288864
_cell_length_b	10.540539
_cell_length_c	18.366186
_cell_angle_alpha	89.995944
_cell_angle_beta	89.977106
_cell_angle_gamma	83.830869
loop_
_atom_site_label
_atom_site_type_symbol
_atom_site_fract_x
_atom_site_fract_y
_atom_site_fract_z
O1	O	0.922409	0.158345	-0.060780
O2	O	0.720291	0.179705	-0.060730
O3	O	0.825961	-0.015784	-0.060755
O4	O	0.816739	0.353834	-0.060755
O5	O	0.825943	-0.015794	0.060344
O6	O	0.720273	0.179696	0.060370
O7	O	0.922391	0.158335	0.060319
Zn8	Zn	0.821329	0.169014	0.079572
Zn9	Zn	0.821353	0.169027	-0.079982
O10	O	0.816721	0.353825	0.060345
C11	C	0.694401	0.179013	-0.000174
C12	C	0.617284	0.176950	-0.000155
C13	C	0.573353	0.291654	-0.000166
C14	C	0.500893	0.289716	-0.000174
C15	C	0.472367	0.173067	-0.000185
C16	C	0.516308	0.058347	-0.000170
C17	C	0.588766	0.060289	-0.000155
C18	C	0.363499	0.081371	-0.042637
C19	C	0.291042	0.079434	-0.042656
C20	C	0.248881	0.167074	-0.000230
C21	C	0.279186	0.256671	0.042208
C22	C	0.351644	0.258613	0.042223
C23	C	0.393799	0.170949	-0.000202
C24	C	0.126381	0.279684	-0.000249
C25	C	0.053919	0.277741	-0.000252
C26	C	0.069336	0.046369	-0.000255
C27	C	0.141795	0.048315	-0.000244
C28	C	0.170313	0.164976	-0.000245
C29	C	0.825261	-0.063076	-0.000207
C30	C	0.823192	-0.203978	-0.000210
C31	C	0.743903	-0.385638	-0.000462
C32	C	0.746000	-0.239067	-0.000190
C33	C	0.860329	-0.266469	0.068934
C34	C	0.857695	-0.412955	0.068993
C35	C	0.859285	-0.413498	-0.068720
C36	C	0.859996	-0.266531	-0.069634
C37	C	0.948281	0.159027	-0.000238
C38	C	1.025399	0.161091	-0.000262
C39	C	0.817422	0.401117	-0.000206
C40	C	0.819491	0.542019	-0.000207
N41	N	0.821318	0.169005	0.188463
N42	N	0.821370	0.169026	-0.188873
C43	C	0.868124	0.082484	0.226552
C44	C	0.868129	0.082479	0.302780
C45	C	0.821333	0.169015	0.340915
C46	C	0.774518	0.255542	0.302817
C47	C	0.774510	0.255537	0.226591
C48	C	0.812807	0.284670	0.461677
C49	C	0.812820	0.284677	0.537902
C50	C	0.821353	0.169031	0.576023
C51	C	0.829889	0.053374	0.537909
C52	C	0.829881	0.053368	0.461683
C53	C	0.821336	0.169030	0.423570
C54	C	0.868167	0.082497	0.696767
C55	C	0.868167	0.082490	0.772996
C56	C	0.774559	0.255565	0.773032
C57	C	0.774556	0.255561	0.696804
C58	C	0.821364	0.169029	0.658676
H59	H	0.376315	0.331563	0.076779
F60	F	0.724713	0.347637	0.343404
H61	H	0.915040	-0.461966	-0.069199
F62	F	0.826591	-0.210047	0.136209
H63	H	0.018151	0.371151	-0.000257
H64	H	0.830233	-0.440547	0.120694
F65	F	0.234321	0.349952	0.087365
H66	H	0.906279	0.012034	0.665722
F67	F	0.635522	-0.061801	-0.000143
H68	H	0.149601	0.374676	-0.000238
F69	F	0.038981	-0.077779	-0.000260
H70	H	0.465117	0.383125	-0.000181
H71	H	0.836830	-0.040804	0.430654
H72	H	0.716558	-0.196659	0.049472
H73	H	0.716778	-0.195808	-0.049755
F74	F	0.917949	-0.009613	0.343324
F75	F	0.838976	-0.069715	0.578474
H76	H	0.177565	-0.045090	-0.000239
H77	H	0.805874	0.378852	0.568928
F78	F	0.704054	-0.422123	-0.065272
F79	F	0.826636	-0.453992	-0.137221
F80	F	0.258796	-0.015912	-0.087828
H81	H	0.736445	0.326019	0.665790
H82	H	0.397822	0.010002	-0.077190
H83	H	0.906280	0.012028	0.804009
H84	H	0.832823	-0.225063	-0.120785
H85	H	0.805846	0.378848	0.430646
F86	F	0.724691	0.347628	0.186052
F87	F	0.603699	0.415816	-0.000164
H88	H	0.913209	-0.462161	0.072117
F89	F	0.485947	-0.065799	-0.000179
H90	H	0.713527	-0.415173	0.048859
H91	H	0.736455	0.326019	0.804082
H92	H	0.917016	-0.245379	0.071492
F93	F	0.933557	-0.236506	-0.075115
F94	F	0.917938	-0.009614	0.185975
