data_functionalizedCrystal
_audit_creation_method	'MofGen! by Chris Wilmer'
_symmetry_space_group_name_H-M	'P1'
_symmetry_Int_Tables_number	1
_symmetry_cell_setting	triclinic
loop_
_symmetry_equiv_pos_as_xyz
  x,y,z
_cell_length_a	15.625020
_cell_length_b	14.519709
_cell_length_c	14.750779
_cell_angle_alpha	77.332886
_cell_angle_beta	85.134135
_cell_angle_gamma	83.969588
loop_
_atom_site_label
_atom_site_type_symbol
_atom_site_fract_x
_atom_site_fract_y
_atom_site_fract_z
O1	O	1.084515	0.234894	-0.457398
O2	O	0.842657	0.228163	-0.373199
O3	O	0.970001	0.097844	-0.417523
O4	O	0.957172	0.365213	-0.413074
O5	O	1.005999	0.061009	-0.270403
O6	O	0.878656	0.191327	-0.226078
O7	O	1.120513	0.198059	-0.310278
Zn8	Zn	1.005300	0.188845	-0.244820
Zn9	Zn	0.957871	0.237377	-0.438657
O10	O	0.993170	0.328378	-0.265954
C11	C	0.829703	0.206398	-0.288862
C12	C	0.737473	0.196414	-0.256753
C13	C	0.627099	0.162262	-0.131308
C14	C	0.713761	0.171647	-0.161488
C15	C	0.674526	0.211800	-0.321876
C16	C	0.587859	0.202415	-0.291709
C17	C	0.564153	0.177647	-0.196424
C18	C	0.524914	0.217799	-0.356825
C19	C	0.438254	0.208418	-0.326660
C20	C	0.414540	0.183654	-0.231379
C21	C	0.477494	0.168266	-0.166258
C22	C	0.548621	0.242573	-0.452110
C23	C	0.485675	0.257957	-0.517226
C24	C	0.399015	0.248570	-0.487061
C25	C	0.375301	0.223806	-0.391780
C26	C	0.336061	0.263958	-0.552181
C27	C	0.249402	0.254578	-0.522016
C28	C	0.288641	0.214426	-0.361615
C29	C	0.987402	0.045015	-0.343754
C30	C	0.985611	-0.057522	-0.343130
C31	C	0.979012	-0.432984	-0.340858
C32	C	0.980845	-0.328519	-0.341489
C33	C	0.982311	-0.245256	-0.341993
C34	C	0.984144	-0.140784	-0.342626
C35	C	1.133467	0.219824	-0.394616
C36	C	1.225696	0.229810	-0.426731
C37	C	0.975768	0.381207	-0.339724
C38	C	0.977558	0.483746	-0.340354
N39	N	1.037675	0.155723	-0.112533
N40	N	0.925502	0.270492	-0.570946
C41	C	0.835082	0.362955	0.309802
C42	C	0.857774	0.339752	0.402403
C43	C	0.970560	0.224403	0.363108
C44	C	0.947874	0.247593	0.270503
C45	C	0.880135	0.316871	0.243858
C46	C	0.992928	0.201509	0.204559
C47	C	0.970246	0.224701	0.111962
C48	C	0.902511	0.293977	0.085308
C49	C	0.857453	0.340063	0.151260
C50	C	1.060671	0.132237	0.231205
C51	C	1.105724	0.086152	0.165261
C52	C	1.083039	0.109339	0.072663
C53	C	1.015304	0.178616	0.046009
C54	C	1.128096	0.063254	0.006710
C55	C	1.105415	0.086446	-0.085888
C56	C	0.992622	0.201808	-0.046589
H57	H	0.269338	0.194269	-0.284024
F58	F	0.510915	0.284316	-0.618633
H59	H	1.025717	0.167999	0.384813
H60	H	0.355375	0.284134	-0.629762
F61	F	0.762977	0.436680	0.281446
H62	H	0.198148	0.267108	-0.575040
H63	H	0.765011	0.159123	-0.108455
F64	F	1.200195	-0.010465	0.035076
F65	F	0.920518	0.275532	-0.074945
H66	H	0.884047	0.312862	0.009907
H67	H	1.079138	0.113360	0.306604
F68	F	0.785349	0.413787	0.122904
H69	H	0.458191	0.148109	-0.088667
H70	H	0.693840	0.231970	-0.399458
H71	H	0.607796	0.142105	-0.053716
F72	F	0.809816	0.388812	0.472582
H73	H	1.160880	0.029748	0.186966
F74	F	0.640853	0.252558	-0.484212
H75	H	0.343975	0.176022	-0.206819
H76	H	1.142103	0.048919	-0.139582
