data_functionalizedCrystal
_audit_creation_method	'MofGen! by Chris Wilmer'
_symmetry_space_group_name_H-M	'P1'
_symmetry_Int_Tables_number	1
_symmetry_cell_setting	triclinic
loop_
_symmetry_equiv_pos_as_xyz
  x,y,z
_cell_length_a	10.908878
_cell_length_b	12.811415
_cell_length_c	9.482900
_cell_angle_alpha	94.039455
_cell_angle_beta	83.038437
_cell_angle_gamma	72.120565
loop_
_atom_site_label
_atom_site_type_symbol
_atom_site_fract_x
_atom_site_fract_y
_atom_site_fract_z
O1	O	1.719027	-0.178002	-0.097402
O2	O	2.219027	0.321998	0.402598
O3	O	1.347342	-0.097856	-0.107976
O4	O	1.847342	0.402144	0.392024
O5	O	1.539296	-0.289079	-0.082755
O6	O	2.039296	0.210921	0.417245
O7	O	1.527073	0.013220	-0.122623
O8	O	2.027073	0.513220	0.377377
O9	O	1.500310	-0.250109	0.153898
O10	O	2.000310	0.249891	0.653898
O11	O	1.308356	-0.058886	0.128677
O12	O	1.808356	0.441114	0.628677
O13	O	1.680041	-0.139032	0.139251
O14	O	2.180041	0.360968	0.639251
Cu15	Cu	1.490638	-0.095401	0.155572
Cu16	Cu	1.990638	0.404599	0.655572
Cu17	Cu	1.536745	-0.141487	-0.124297
Cu18	Cu	2.036745	0.358513	0.375703
O19	O	1.488087	0.052191	0.114030
O20	O	1.988087	0.552191	0.614030
C21	C	1.280211	-0.070881	0.009362
C22	C	1.780211	0.429119	0.509362
C23	C	1.138265	-0.048575	0.006419
C24	C	1.638265	0.451425	0.506419
C25	C	1.517923	-0.307687	0.040592
C26	C	2.017923	0.192313	0.540592
C27	C	1.512306	-0.421192	0.055552
C28	C	2.012306	0.078808	0.555552
C29	C	1.087044	-0.129965	0.017152
C30	C	1.587044	0.370035	0.517152
C31	C	0.940336	-0.106913	0.014110
C32	C	1.440336	0.393087	0.514110
C33	C	1.544237	-0.676953	-0.174366
C34	C	2.044237	-0.176953	0.325634
C35	C	1.538960	-0.783602	-0.160317
C36	C	2.038960	-0.283602	0.339683
C37	C	1.496468	-0.741137	0.097698
C38	C	1.996468	-0.241137	0.597698
C39	C	1.501745	-0.634488	0.083649
C40	C	2.001745	-0.134488	0.583649
C41	C	1.525631	-0.602402	-0.052388
C42	C	2.025631	-0.102402	0.447612
C43	C	1.530917	-0.495753	-0.066435
C44	C	2.030917	0.004247	0.433565
C45	C	1.488416	-0.453288	0.191578
C46	C	1.988416	0.046712	0.691578
C47	C	1.483139	-0.559937	0.205627
C48	C	1.983139	-0.059937	0.705627
C49	C	1.747172	-0.166008	0.021910
C50	C	2.247172	0.333992	0.521910
C51	C	1.889120	-0.188315	0.024844
C52	C	2.389120	0.311685	0.524844
C53	C	1.509460	0.070799	-0.009320
C54	C	2.009460	0.570799	0.490680
C55	C	1.515079	0.184301	-0.024289
C56	C	2.015079	0.684301	0.475711
N57	N	1.458219	-0.062988	0.352417
N58	N	1.958219	0.437012	0.852417
N59	N	1.569174	-0.173910	-0.321141
N60	N	2.069174	0.326090	0.178859
C61	C	1.527173	-0.131931	0.433710
C62	C	2.027173	0.368069	0.933710
C63	C	1.500209	-0.104957	0.597569
C64	C	2.000209	0.395043	1.097569
H65	H	1.151806	-0.216714	0.028586
H66	H	1.651806	0.283286	0.528586
F67	F	1.558759	-0.862941	-0.290143
F68	F	2.058759	-0.362941	0.209857
H69	H	1.463686	-0.586076	0.316384
H70	H	1.963686	-0.086076	0.816384
H71	H	1.379217	0.016004	0.404129
H72	H	1.879217	0.516004	0.904129
F73	F	1.569676	-0.642806	-0.319143
F74	F	2.069676	-0.142806	0.180857
H75	H	1.073506	0.038171	-0.005028
H76	H	1.573506	0.538171	0.494972
H77	H	0.875580	-0.020161	0.002662
H78	H	1.375580	0.479839	0.502662
H79	H	1.550371	-0.469632	-0.177203
H80	H	2.050371	0.030368	0.322797
H81	H	1.473270	-0.392577	0.290902
H82	H	1.973270	0.107423	0.790902
F83	F	0.973756	-0.301712	0.039784
F84	F	1.473756	0.198288	0.539784
F85	F	1.396942	-0.001702	0.665148
F86	F	1.896942	0.498298	1.165148
F87	F	1.471017	-0.775297	0.242464
F88	F	1.971017	-0.275297	0.742464
H89	H	1.606166	-0.210929	0.382001
H90	H	2.106166	0.289071	0.882001
H91	H	1.648171	-0.252913	0.627155
H92	H	2.148171	0.247087	1.127155
