data_functionalizedCrystal
_audit_creation_method	'MofGen! by Chris Wilmer'
_symmetry_space_group_name_H-M	'P1'
_symmetry_Int_Tables_number	1
_symmetry_cell_setting	triclinic
loop_
_symmetry_equiv_pos_as_xyz
  x,y,z
_cell_length_a	12.827893
_cell_length_b	29.839131
_cell_length_c	12.827885
_cell_angle_alpha	90.044475
_cell_angle_beta	90.019272
_cell_angle_gamma	90.035199
loop_
_atom_site_label
_atom_site_type_symbol
_atom_site_fract_x
_atom_site_fract_y
_atom_site_fract_z
Zn1	Zn	1.597526	-0.178832	0.590742
Zn2	Zn	1.597359	-0.253969	0.415957
Zn3	Zn	1.422767	-0.178854	0.416016
Zn4	Zn	1.422692	-0.253936	0.590657
O5	O	1.510086	-0.216398	0.503343
O6	O	1.743739	-0.188804	0.567567
O7	O	1.574161	-0.244028	0.269729
O8	O	1.446050	-0.115984	0.439253
O9	O	1.743617	-0.244007	0.439154
O10	O	1.574445	-0.115968	0.567624
O11	O	1.445889	-0.188841	0.269772
O12	O	1.276521	-0.188809	0.439171
O13	O	1.445922	-0.243950	0.736905
O14	O	1.276466	-0.243971	0.567480
O15	O	1.574372	-0.188771	0.736967
O16	O	1.574088	-0.316832	0.439072
O17	O	1.445761	-0.316807	0.567423
C18	C	1.238576	-0.216389	0.503323
C19	C	1.122423	-0.216396	0.503339
C20	C	1.070638	-0.243735	0.566733
C21	C	0.950588	-0.243743	0.566751
C22	C	1.509926	-0.333120	0.503255
C23	C	1.509954	-0.383055	0.503252
C24	C	1.576926	-0.692655	0.570281
C25	C	1.577040	-0.880328	0.570344
O26	O	1.633826	-0.904556	0.627269
N27	N	1.510263	-0.903840	0.503459
C28	C	1.443449	-0.880430	0.436559
O29	O	1.386647	-0.904735	0.379678
C30	C	1.443331	-0.692758	0.436502
C31	C	1.510119	-0.669249	0.503384
C32	C	1.643708	-0.669145	0.637158
C33	C	1.643683	-0.622230	0.637138
C34	C	1.576876	-0.598824	0.570240
C35	C	1.510094	-0.622333	0.503363
C36	C	1.376512	-0.669350	0.369608
C37	C	1.376487	-0.622429	0.369601
C38	C	1.443275	-0.598919	0.436483
C39	C	1.443262	-0.552012	0.436445
N40	N	1.510039	-0.528500	0.503330
C41	C	1.576846	-0.551906	0.570228
C42	C	1.443517	-0.978961	0.436592
C43	C	1.443548	-1.025879	0.436604
C44	C	1.577137	-1.025773	0.570391
C45	C	1.577111	-0.978854	0.570372
C46	C	1.510293	-0.955449	0.503476
C47	C	1.576789	-0.453380	0.570179
C48	C	1.576761	-0.406461	0.570150
C49	C	1.443168	-0.406571	0.436367
C50	C	1.443199	-0.453486	0.436392
C51	C	1.510013	-0.476890	0.503307
O52	O	1.386498	-0.527755	0.379559
O53	O	1.633623	-0.527593	0.627116
C54	C	1.576951	-0.739570	0.570301
C55	C	1.510169	-0.763080	0.503424
C56	C	1.443362	-0.739674	0.436527
C57	C	1.510200	-0.809997	0.503437
C58	C	1.577007	-0.833403	0.570334
C59	C	1.643783	-0.809892	0.637219
C60	C	1.643758	-0.762976	0.637199
C61	C	1.376586	-0.763186	0.369642
C62	C	1.376617	-0.810101	0.369667
C63	C	1.443424	-0.833507	0.436565
C64	C	1.782656	-0.216407	0.503364
C65	C	1.898809	-0.216410	0.503372
C66	C	1.510157	-0.216354	0.775913
C67	C	1.510187	-0.216336	0.892067
C68	C	1.510274	-0.099219	0.503454
C69	C	1.510355	-0.049285	0.503502
C70	C	1.510075	-0.216408	0.231833
C71	C	1.510247	-0.216300	0.115681
C72	C	1.573755	-0.189027	0.943882
C73	C	1.573788	-0.189007	1.063933
H74	H	1.631151	-0.387321	0.624613
O75	O	1.445432	-0.244261	1.062580
C76	C	1.468169	-0.289042	1.089158
H77	H	1.551628	-0.291318	1.119240
H78	H	1.412080	-0.300799	1.152412
C79	C	1.353529	-0.316209	0.955157
C80	C	1.456038	-0.319004	0.992097
H81	H	1.346042	-0.334692	0.895288
H82	H	1.338207	-0.286039	0.937254
H83	H	1.306800	-0.326006	1.007878
H84	H	1.502764	-0.309202	0.939382
H85	H	1.471368	-0.349173	1.009990
H86	H	0.906055	-0.267150	0.621021
O87	O	1.311881	-0.832956	0.304586
C88	C	1.371407	-0.860114	0.237162
H89	H	1.453711	-0.845953	0.230759
H90	H	1.375002	-0.895658	0.269492
C91	C	1.219306	-0.878289	0.136356
C92	C	1.320391	-0.860894	0.128484
H93	H	1.187835	-0.878772	0.069319
H94	H	1.179201	-0.859994	0.181782
H95	H	1.222315	-0.907907	0.163301
H96	H	1.317379	-0.831275	0.101552
H97	H	1.360494	-0.879184	0.083050
O98	O	0.952037	-0.188548	0.438566
C99	C	1.015091	-0.214113	0.370984
H100	H	1.031315	-0.248183	0.407698
H101	H	0.973046	-0.218995	0.293488
C102	C	1.098921	-0.147575	0.307161
C103	C	1.118854	-0.189419	0.352257
H104	H	1.162925	-0.132342	0.295604
H105	H	1.056438	-0.130351	0.352689
H106	H	1.063881	-0.151649	0.242585
H107	H	1.153881	-0.185343	0.416836
H108	H	1.161346	-0.206641	0.306739
O109	O	1.069336	-0.188417	0.438715
C110	C	1.096002	-0.143640	0.461703
H111	H	1.126122	-0.141397	0.545163
H112	H	1.159255	-0.131839	0.405657
C113	C	0.962005	-0.116454	0.347276
C114	C	0.998991	-0.113698	0.449786
H115	H	0.902166	-0.097984	0.339920
H116	H	0.944041	-0.146621	0.331785
H117	H	1.014724	-0.106620	0.300582
H118	H	0.946276	-0.123537	0.496476
H119	H	1.016943	-0.083532	0.465284
H120	H	1.631188	-0.472430	0.624674
O121	O	1.708590	-0.599465	0.702211
C122	C	1.767570	-0.630193	0.761234
H123	H	1.724776	-0.663650	0.764814
H124	H	1.846961	-0.635170	0.723040
C125	C	1.835121	-0.570747	0.868072
C126	C	1.782556	-0.611839	0.872476
H127	H	1.844370	-0.559424	0.936690
H128	H	1.795388	-0.550044	0.828305
H129	H	1.901274	-0.574900	0.836239
H130	H	1.716399	-0.607684	0.904297
H131	H	1.822278	-0.632540	0.912251
H132	H	1.698110	-0.688197	0.691640
H133	H	1.631495	-0.959716	0.624834
H134	H	1.115180	-0.267133	0.620996
H135	H	1.628150	-0.165659	0.899366
O136	O	1.311546	-0.740503	0.304700
C137	C	1.207385	-0.751990	0.327461
H138	H	1.205217	-0.786037	0.367658
H139	H	1.172132	-0.725572	0.381130
C140	C	1.146816	-0.712416	0.176151
C141	C	1.144154	-0.754235	0.225515
H142	H	1.107810	-0.713799	0.113268
H143	H	1.216991	-0.704675	0.160819
H144	H	1.117440	-0.690405	0.220887
H145	H	1.173541	-0.776243	0.180785
H146	H	1.073982	-0.761979	0.240838
H147	H	1.631535	-1.044838	0.624860
H148	H	1.698143	-0.743838	0.691660
H149	H	1.389173	-1.045016	0.382132
H150	H	1.322126	-0.688483	0.315145
H151	H	1.698183	-0.828957	0.691686
O152	O	1.311543	-0.599763	0.304519
C153	C	1.252587	-0.630578	0.245520
H154	H	1.295416	-0.664008	0.241950
H155	H	1.173207	-0.635584	0.283729
C156	C	1.184957	-0.571262	0.138663
C157	C	1.237565	-0.612319	0.134271
H158	H	1.175686	-0.559998	0.070041
H159	H	1.224673	-0.550501	0.178414
H160	H	1.118812	-0.575439	0.170508
H161	H	1.303712	-0.608141	0.102438
H162	H	1.197859	-0.633079	0.094512
O163	O	1.378230	-0.476256	0.371387
C164	C	1.319283	-0.445534	0.312315
H165	H	1.315632	-0.412072	0.355097
H166	H	1.357591	-0.440567	0.232978
C167	C	1.212559	-0.504986	0.244622
C168	C	1.208068	-0.463888	0.297172
H169	H	1.143958	-0.516308	0.235276
H170	H	1.252275	-0.525685	0.284416
H171	H	1.244487	-0.500841	0.178514
H172	H	1.176153	-0.468035	0.363284
H173	H	1.168344	-0.443191	0.257388
H174	H	1.389105	-0.959908	0.382114
H175	H	1.388777	-0.387506	0.381897
O176	O	1.638617	-0.161126	1.117245
C177	C	1.624228	-0.167318	1.225240
H178	H	1.543550	-0.182034	1.240023
H179	H	1.686159	-0.191249	1.256198
C180	C	1.732925	-0.103800	1.263261
C181	C	1.633832	-0.121872	1.281418
H182	H	1.738854	-0.075768	1.297917
H183	H	1.742623	-0.099629	1.190503
H184	H	1.784523	-0.123747	1.289060
H185	H	1.582237	-0.101927	1.255608
H186	H	1.624126	-0.126038	1.354174
H187	H	1.455782	-0.239699	0.936582
