data_functionalizedCrystal
_audit_creation_method	'MofGen! by Chris Wilmer'
_symmetry_space_group_name_H-M	'P1'
_symmetry_Int_Tables_number	1
_symmetry_cell_setting	triclinic
loop_
_symmetry_equiv_pos_as_xyz
  x,y,z
_cell_length_a	10.686220
_cell_length_b	25.639239
_cell_length_c	10.686551
_cell_angle_alpha	85.590528
_cell_angle_beta	90.308082
_cell_angle_gamma	94.420676
loop_
_atom_site_label
_atom_site_type_symbol
_atom_site_fract_x
_atom_site_fract_y
_atom_site_fract_z
Zn1	Zn	1.972159	-0.127472	-0.562366
Zn2	Zn	1.955834	-0.222109	-0.352592
Zn3	Zn	1.746264	-0.140848	-0.368681
Zn4	Zn	1.762265	-0.221050	-0.578370
O5	O	1.859130	-0.177870	-0.465502
O6	O	2.145540	-0.134872	-0.521108
O7	O	1.914505	-0.217371	-0.179180
O8	O	1.776365	-0.065903	-0.394409
O9	O	2.133546	-0.204401	-0.366988
O10	O	1.942329	-0.056076	-0.536709
O11	O	1.760535	-0.157668	-0.191000
O12	O	1.572839	-0.156641	-0.409928
O13	O	1.803636	-0.202595	-0.751793
O14	O	1.584595	-0.215565	-0.563985
O15	O	1.957844	-0.133844	-0.740035
O16	O	1.930021	-0.295139	-0.382506
O17	O	1.787807	-0.294361	-0.548384
C18	C	1.533200	-0.187440	-0.490440
C19	C	1.393768	-0.191545	-0.501138
C20	C	1.858915	-0.313720	-0.465461
C21	C	1.858941	-0.371833	-0.465476
C22	C	1.933401	-0.732571	-0.379250
C23	C	1.933451	-0.787174	-0.379263
O24	O	1.996536	-0.815738	-0.305904
N25	N	1.859357	-0.814099	-0.465568
C26	C	1.785218	-0.786419	-0.551874
O27	O	1.722201	-0.814336	-0.625286
C28	C	1.785176	-0.731818	-0.551866
C29	C	1.859265	-0.704895	-0.465547
C30	C	2.007485	-0.705649	-0.292939
C31	C	2.007433	-0.651050	-0.292925
C32	C	1.933297	-0.623374	-0.379222
C33	C	1.859213	-0.650297	-0.465533
C34	C	1.711045	-0.704138	-0.638177
C35	C	1.711010	-0.649533	-0.638162
C36	C	1.785099	-0.622611	-0.551843
C37	C	1.785025	-0.568023	-0.551816
N38	N	1.859119	-0.541097	-0.465510
C39	C	1.933255	-0.568773	-0.379213
C40	C	1.785314	-0.901087	-0.551887
C41	C	1.785349	-0.955688	-0.551890
C42	C	1.933583	-0.956438	-0.379280
C43	C	1.933541	-0.901836	-0.379272
C44	C	1.859408	-0.874161	-0.465581
C45	C	1.933139	-0.454112	-0.379189
C46	C	1.933077	-0.399509	-0.379179
C47	C	1.784847	-0.398763	-0.551793
C48	C	1.784904	-0.453362	-0.551799
C49	C	1.859060	-0.481035	-0.465493
O50	O	1.721976	-0.539424	-0.625140
O51	O	1.996274	-0.540849	-0.305825
C52	C	2.186333	-0.168263	-0.440468
C53	C	2.325768	-0.164169	-0.429800
C54	C	1.884346	-0.166610	-0.792704
C55	C	1.895092	-0.161811	-0.932138
C56	C	1.859383	-0.041486	-0.465568
C57	C	1.859490	0.016632	-0.465597
C58	C	1.834084	-0.189046	-0.139567
C59	C	1.823582	-0.193690	-0.000116
H60	H	1.993408	-0.377591	-0.308884
H61	H	1.964545	-0.130848	-0.980617
C62	C	1.198262	-0.224691	-0.587503
C63	C	1.328363	-0.227430	-0.594645
H64	H	1.157887	-0.246842	-0.645235
H65	H	1.170334	-0.235816	-0.504818
H66	H	1.178333	-0.189557	-0.607633
H67	H	1.348293	-0.262564	-0.574505
H68	H	1.356301	-0.216308	-0.677347
H69	H	1.993527	-0.476637	-0.308913
C70	C	2.153977	-0.657292	-0.122332
C71	C	2.088895	-0.621461	-0.198056
H72	H	2.204280	-0.639025	-0.063771
H73	H	2.095674	-0.681873	-0.078482
H74	H	2.206131	-0.675272	-0.173390
H75	H	2.036733	-0.603484	-0.146999
H76	H	2.147205	-0.596870	-0.241909
H77	H	2.067862	-0.728176	-0.222665
H78	H	1.725005	-0.977604	-0.622169
H79	H	1.374220	-0.137590	-0.360538
H80	H	1.650707	-0.726050	-0.708462
C81	C	2.080063	-0.908075	-0.208657
C82	C	2.014990	-0.872245	-0.284395
H83	H	2.130354	-0.889807	-0.150088
H84	H	2.021755	-0.932657	-0.164816
H85	H	2.132228	-0.926054	-0.259704
H86	H	1.962817	-0.854269	-0.233348
H87	H	2.073305	-0.847654	-0.328239
C88	C	1.999637	-1.040466	-0.302816
C89	C	2.015198	-0.986859	-0.284521
H90	H	2.050058	-1.059244	-0.244352
H91	H	1.913990	-1.052584	-0.290730
H92	H	2.024333	-1.045925	-0.385770
H93	H	1.990494	-0.981400	-0.201569
H94	H	2.100864	-0.974737	-0.296597
H95	H	1.724935	-0.878556	-0.622167
H96	H	1.650643	-0.627002	-0.708450
C97	C	1.638384	-0.447132	-0.722422
C98	C	1.703466	-0.482958	-0.646681
H99	H	1.588122	-0.465402	-0.781010
H100	H	1.586202	-0.429164	-0.671388
H101	H	1.696697	-0.422541	-0.766252
H102	H	1.645153	-0.507548	-0.602844
H103	H	1.755653	-0.500936	-0.697722
H104	H	1.754142	-0.224655	-0.951643
H105	H	1.724483	-0.376221	-0.622052
