data_functionalizedCrystal
_audit_creation_method	'MofGen! by Chris Wilmer'
_symmetry_space_group_name_H-M	'P1'
_symmetry_Int_Tables_number	1
_symmetry_cell_setting	triclinic
loop_
_symmetry_equiv_pos_as_xyz
  x,y,z
_cell_length_a	16.625548
_cell_length_b	11.169416
_cell_length_c	11.169409
_cell_angle_alpha	89.969126
_cell_angle_beta	90.023153
_cell_angle_gamma	89.988592
loop_
_atom_site_label
_atom_site_type_symbol
_atom_site_fract_x
_atom_site_fract_y
_atom_site_fract_z
Zn1	Zn	1.232769	0.477676	0.678662
Zn2	Zn	1.732769	0.977676	1.178662
Zn3	Zn	1.232695	0.678416	0.477984
Zn4	Zn	1.732695	1.178416	0.977984
Zn5	Zn	1.097925	0.477750	0.477984
Zn6	Zn	1.597925	0.977750	0.977984
Zn7	Zn	1.097930	0.678319	0.678617
Zn8	Zn	1.597930	1.178319	1.178617
O9	O	1.165330	0.578040	0.578312
O10	O	1.665330	1.078040	1.078312
O11	O	1.345592	0.504314	0.652060
O12	O	1.845592	1.004314	1.152060
O13	O	1.214784	0.651869	0.310034
O14	O	1.714784	1.151869	0.810034
O15	O	1.115841	0.309790	0.504624
O16	O	1.615841	0.809790	1.004624
O17	O	1.345537	0.651797	0.504622
O18	O	1.845537	1.151797	1.004622
O19	O	1.214911	0.309736	0.652060
O20	O	1.714911	0.809736	1.152060
O21	O	1.115769	0.504440	0.310034
O22	O	1.615769	1.004440	0.810034
O23	O	0.985093	0.504346	0.504580
O24	O	1.485093	1.004346	1.004580
O25	O	1.115850	0.651632	0.846573
O26	O	1.615850	1.151632	1.346573
O27	O	0.985097	0.651703	0.651984
O28	O	1.485097	1.151703	1.151984
O29	O	1.214915	0.504220	0.846605
O30	O	1.714915	1.004220	1.346605
O31	O	1.214789	0.846353	0.504579
O32	O	1.714789	1.346353	1.004579
O33	O	1.115778	0.846282	0.651983
O34	O	1.615778	1.346282	1.151983
C35	C	0.955839	0.578023	0.578278
C36	C	1.455839	1.078023	1.078278
C37	C	0.866218	0.578045	0.578292
C38	C	1.366218	1.078045	1.078292
C39	C	1.165298	0.889865	0.578302
C40	C	1.665298	1.389865	1.078302
C41	C	1.165358	1.023265	0.578339
C42	C	1.665358	1.523265	1.078339
C43	C	1.165391	0.577907	0.891354
C44	C	1.665391	1.077907	1.391354
C45	C	1.165418	0.577850	1.024754
C46	C	1.665418	1.077850	1.524754
C47	C	0.538042	0.578052	0.578343
C48	C	1.038042	1.078052	1.078343
C49	C	0.629350	0.578047	0.578325
C50	C	1.129350	1.078047	1.078325
C51	C	0.702127	0.578049	0.578317
C52	C	1.202127	1.078049	1.078317
C53	C	0.793441	0.578042	0.578301
C54	C	1.293441	1.078042	1.078301
C55	C	1.375638	0.578058	0.578346
C56	C	1.875638	1.078058	1.078346
C57	C	1.465260	0.578066	0.578361
C58	C	1.965260	1.078066	1.078361
C59	C	1.165384	0.264998	0.578347
C60	C	1.665384	0.764998	1.078347
C61	C	1.165407	0.131598	0.578362
C62	C	1.665407	0.631598	1.078362
C63	C	1.165314	0.578086	0.266487
C64	C	1.665314	1.078086	0.766487
C65	C	1.165444	0.577805	0.133087
C66	C	1.665444	1.077805	0.633087
