data_functionalizedCrystal
_audit_creation_method	'MofGen! by Chris Wilmer'
_symmetry_space_group_name_H-M	'P1'
_symmetry_Int_Tables_number	1
_symmetry_cell_setting	triclinic
loop_
_symmetry_equiv_pos_as_xyz
  x,y,z
_cell_length_a	16.959455
_cell_length_b	16.959454
_cell_length_c	16.959447
_cell_angle_alpha	89.973264
_cell_angle_beta	90.014322
_cell_angle_gamma	89.982978
loop_
_atom_site_label
_atom_site_type_symbol
_atom_site_fract_x
_atom_site_fract_y
_atom_site_fract_z
Zn1	Zn	1.208384	0.314730	0.446928
Zn2	Zn	1.208306	0.446923	0.314758
Zn3	Zn	1.076212	0.314755	0.314766
Zn4	Zn	1.076177	0.446864	0.446897
O5	O	1.142270	0.380818	0.380837
O6	O	1.318984	0.332280	0.429406
O7	O	1.190766	0.429426	0.204148
O8	O	1.093792	0.204141	0.332314
O9	O	1.318927	0.429402	0.332301
O10	O	1.190898	0.204123	0.429413
O11	O	1.093717	0.332323	0.204154
O12	O	0.965597	0.332265	0.332283
O13	O	1.093732	0.429301	0.557512
O14	O	0.965571	0.429325	0.429359
O15	O	1.190864	0.332223	0.557535
O16	O	1.190732	0.557526	0.332270
O17	O	1.093657	0.557482	0.429352
C18	C	0.936904	0.380792	0.380819
C19	C	0.849047	0.380800	0.380830
C20	C	1.142204	0.586184	0.380824
C21	C	1.142248	0.674041	0.380844
C22	C	0.477560	0.330238	0.330395
C23	C	0.477582	0.431463	0.431324
C24	C	0.560128	0.431452	0.431320
C25	C	0.601394	0.380834	0.380851
C26	C	0.560114	0.330226	0.330387
C27	C	0.601414	0.482064	0.481777
C28	C	0.683965	0.482055	0.481773
C29	C	0.725233	0.431432	0.431308
C30	C	0.683948	0.380822	0.380843
C31	C	0.725213	0.330204	0.330374
C32	C	0.683930	0.279589	0.279913
C33	C	0.601381	0.279603	0.279922
C34	C	0.807781	0.431418	0.431299
C35	C	0.807767	0.330193	0.330366
C36	C	1.142303	0.380753	0.587006
C37	C	1.142317	0.380725	0.674862
C38	C	1.348438	0.380845	0.380856
C39	C	1.436295	0.380856	0.380864
C40	C	1.142358	0.174650	0.380868
C41	C	1.142395	0.086793	0.380881
C42	C	1.091796	1.045524	0.431382
C43	C	1.192963	1.045509	0.330373
C44	C	1.192936	0.962963	0.330365
C45	C	1.142337	0.921694	0.380867
C46	C	1.091765	0.962970	0.431375
C47	C	1.243501	0.921680	0.279852
C48	C	1.243475	0.839130	0.279842
C49	C	1.192879	0.797859	0.330348
C50	C	1.142306	0.839140	0.380859
C51	C	1.091707	0.797871	0.431360
C52	C	1.041137	0.839151	0.481876
C53	C	1.041170	0.921699	0.481881
C54	C	1.192847	0.715310	0.330343
C55	C	1.091676	0.715317	0.431353
C56	C	1.142283	0.380826	0.175471
C57	C	1.142422	0.380631	0.087615
C58	C	1.091839	0.431185	1.046328
C59	C	1.192983	0.330097	1.046348
C60	C	1.192962	0.330114	0.963802
C61	C	1.142380	0.380668	0.922515
C62	C	1.091818	0.431205	0.963775
C63	C	1.243529	0.279584	0.922536
C64	C	1.243510	0.279599	0.839985
C65	C	1.192923	0.330149	0.798697
C66	C	1.142359	0.380688	0.839962
C67	C	1.091776	0.431242	0.798675
C68	C	1.041207	0.481777	0.839938
C69	C	1.041231	0.481756	0.922487
C70	C	1.192899	0.330171	0.716149
C71	C	1.091755	0.431262	0.716122
H72	H	0.841360	0.288968	0.289273
N73	N	0.728441	0.225000	0.225474
H74	H	0.786998	0.232680	0.233127
H75	H	0.714033	0.168563	0.237875
N76	N	0.852306	0.486009	0.485713
H77	H	0.837962	0.473811	0.542213
H78	H	0.910847	0.478296	0.477984
H79	H	1.284686	0.238450	0.806396
N80	N	1.037293	0.485673	1.090838
H81	H	1.069399	0.522299	1.125087
H82	H	1.005251	0.517649	1.052113
H83	H	1.234016	0.681704	0.289211
N84	N	0.986689	0.536242	0.967005
H85	H	1.018801	0.572867	1.001250
H86	H	0.954641	0.568219	0.928287
N87	N	1.247537	0.275572	1.090871
H88	H	1.304004	0.287857	1.076502
H89	H	1.239813	0.283253	1.149413
N90	N	1.037250	1.090043	0.485857
H91	H	1.005192	1.051370	0.517845
H92	H	1.069412	1.124249	0.522472
H93	H	1.284715	0.238430	0.956158
H94	H	1.234074	0.289028	0.682556
H95	H	1.050557	0.472422	0.682512
H96	H	1.000026	0.522942	0.806312
N97	N	0.433035	0.275660	0.275964
H98	H	0.447410	0.219195	0.288329
H99	H	0.374494	0.283418	0.283654
H100	H	0.443979	0.472679	0.472409
N101	N	0.556853	0.225028	0.225490
H102	H	0.595518	0.192958	0.193517
H103	H	0.522615	0.188494	0.257727
N104	N	0.556909	0.536664	0.536200
H105	H	0.498351	0.528988	0.528548
H106	H	0.571359	0.524436	0.592673
H107	H	0.999998	0.955317	0.523007
N108	N	1.037097	0.670804	0.485817
H109	H	1.069180	0.636509	0.522471
H110	H	1.005078	0.709530	0.517763
N111	N	0.728490	0.536643	0.536195
H112	H	0.689821	0.568712	0.568166
H113	H	0.762755	0.504508	0.572828
H114	H	1.234154	1.079115	0.289252
N115	N	0.986560	0.794630	0.536335
H116	H	1.018647	0.760333	0.572985
H117	H	0.954538	0.833348	0.568286
N118	N	1.298056	0.966201	0.225380
H119	H	1.334678	1.000410	0.257535
H120	H	1.330032	0.927485	0.193380
N121	N	1.298021	0.794609	0.225369
H122	H	1.330081	0.833280	0.193381
H123	H	1.334565	0.760323	0.257583
