data_functionalizedCrystal
_audit_creation_method	'MofGen! by Chris Wilmer'
_symmetry_space_group_name_H-M	'P1'
_symmetry_Int_Tables_number	1
_symmetry_cell_setting	triclinic
loop_
_symmetry_equiv_pos_as_xyz
  x,y,z
_cell_length_a	6.817900
_cell_length_b	17.982959
_cell_length_c	10.773894
_cell_angle_alpha	96.506974
_cell_angle_beta	96.645922
_cell_angle_gamma	102.451857
loop_
_atom_site_label
_atom_site_type_symbol
_atom_site_fract_x
_atom_site_fract_y
_atom_site_fract_z
V1	V	-3.943879	-0.102609	-0.389451
O2	O	-3.938325	0.007812	-0.381502
O3	O	-3.890812	-0.206227	-0.387303
O4	O	-3.861680	-0.099767	-0.559069
O5	O	-3.967659	-0.099386	-0.208547
V6	V	-4.432491	-0.089551	-0.367751
O7	O	-4.193973	-0.131254	-0.437053
O8	O	-4.632593	-0.060907	-0.320150
O9	O	-4.262351	0.014067	-0.369899
O10	O	-4.555442	-0.199972	-0.375700
O11	O	-4.526107	-0.092774	-0.548656
O12	O	-4.291483	-0.092393	-0.198133
C13	C	-3.735771	-0.231527	-0.381292
C14	C	-3.773445	-0.316228	-0.380667
C15	C	-3.971817	-0.359856	-0.386614
C16	C	-4.007205	-0.439442	-0.386034
C17	C	-3.844216	-0.475398	-0.379497
C18	C	-3.645828	-0.431764	-0.373553
C19	C	-3.610444	-0.352180	-0.374142
C20	C	-3.788521	-0.752717	-0.371177
C21	C	-3.823921	-0.832306	-0.370584
C22	C	-4.185282	-0.839979	-0.383068
C23	C	-4.149898	-0.760395	-0.383657
C24	C	-3.951516	-0.716769	-0.377720
C25	C	-3.913147	-0.630473	-0.378352
C26	C	-3.882580	-0.561692	-0.378856
C27	C	-3.698609	-0.095725	-0.600395
C28	C	-3.712655	-0.094086	-0.739062
C29	C	-3.890602	-0.096926	-0.806939
C30	C	-3.905123	-0.095233	-0.950258
C31	C	-4.080734	0.039363	-0.375906
C32	C	-4.022297	0.124063	-0.376540
C33	C	-4.117897	-0.096438	-0.156800
C34	C	-4.083090	-0.098072	-0.018132
H35	H	-4.346818	-0.875510	-0.387904
N36	N	-4.325698	-0.721618	-0.390720
H37	H	-4.330540	-0.695611	-0.468967
H38	H	-4.307484	-0.681965	-0.313467
N39	N	-3.648113	-0.871086	-0.363532
H40	H	-3.574459	-0.862406	-0.438632
H41	H	-3.700791	-0.928107	-0.364010
H42	H	-3.626990	-0.717205	-0.366335
H43	H	-4.224703	-0.101760	-0.970148
N44	N	-4.078177	-0.101813	-0.743381
H45	H	-4.198925	-0.103477	-0.808369
H46	H	-4.057885	-0.055252	-0.677240
H47	H	-3.448912	-0.316659	-0.369304
H48	H	-3.513123	-0.461046	-0.368238
H49	H	-3.571056	-0.090397	-0.787053
N50	N	-3.717526	-0.090372	-1.013794
H51	H	-3.613606	-0.041642	-0.976049
H52	H	-3.754637	-0.089892	-1.107163
N53	N	-4.147611	-0.321076	-0.393668
H54	H	-4.221282	-0.329766	-0.318577
H55	H	-4.244098	-0.343464	-0.474067
N56	N	-4.221163	-0.486500	-0.392452
H57	H	-4.319044	-0.451646	-0.396676
H58	H	-4.232223	-0.512850	-0.314757
