data_functionalizedCrystal
_audit_creation_method	'MofGen! by Chris Wilmer'
_symmetry_space_group_name_H-M	'P1'
_symmetry_Int_Tables_number	1
_symmetry_cell_setting	triclinic
loop_
_symmetry_equiv_pos_as_xyz
  x,y,z
_cell_length_a	12.645330
_cell_length_b	12.759401
_cell_length_c	12.759393
_cell_angle_alpha	90.020120
_cell_angle_beta	89.969952
_cell_angle_gamma	89.986338
loop_
_atom_site_label
_atom_site_type_symbol
_atom_site_fract_x
_atom_site_fract_y
_atom_site_fract_z
Zn1	Zn	-0.422091	-1.606234	-0.594038
Zn2	Zn	-0.599395	-1.606119	-0.418363
Zn3	Zn	-0.422133	-1.430536	-0.418372
Zn4	Zn	-0.599300	-1.430515	-0.593999
O5	O	-0.510730	-1.518351	-0.506193
O6	O	-0.445632	-1.753239	-0.570746
O7	O	-0.575938	-1.582788	-0.271343
O8	O	-0.273780	-1.453899	-0.441695
O9	O	-0.575897	-1.753155	-0.441678
O10	O	-0.273749	-1.582983	-0.570756
O11	O	-0.445705	-1.453788	-0.271350
O12	O	-0.445613	-1.283512	-0.441657
O13	O	-0.575736	-1.453864	-0.741025
O14	O	-0.575777	-1.283497	-0.570690
O15	O	-0.445541	-1.582964	-0.741054
O16	O	-0.747730	-1.582768	-0.441641
O17	O	-0.747660	-1.453753	-0.570680
C18	C	-0.510690	-1.245383	-0.506171
C19	C	-0.510699	-1.128607	-0.506187
C20	C	-0.442995	-1.073782	-0.573495
C21	C	-0.443009	-0.964058	-0.573498
C22	C	-0.578440	-0.963993	-0.438883
C23	C	-0.578420	-1.073715	-0.438874
C24	C	-0.364808	-1.073818	-0.651217
C25	C	-0.364823	-0.964094	-0.651221
C26	C	-0.786160	-1.518274	-0.506178
C27	C	-0.903990	-1.518337	-0.506207
C28	C	-1.071554	-1.437509	-0.587636
C29	C	-0.948995	-1.437095	-0.587374
C30	C	-0.948592	-1.488364	-0.395485
C31	C	-1.071190	-1.487871	-0.395979
C32	C	-1.071084	-1.629634	-0.534602
C33	C	-0.948477	-1.628952	-0.537024
C34	C	-0.234225	-1.518456	-0.506231
C35	C	-0.116394	-1.518501	-0.506247
C36	C	-0.510623	-1.518424	-0.780226
C37	C	-0.510577	-1.518456	-0.897003
C38	C	-0.510757	-0.792384	-0.506209
C39	C	-0.510734	-0.909161	-0.506198
C40	C	-0.442778	-1.585687	-0.951882
C41	C	-0.442740	-1.585712	-1.061606
C42	C	-0.578309	-1.451271	-1.061563
C43	C	-0.578341	-1.451242	-0.951841
C44	C	-0.364512	-1.663309	-0.951907
C45	C	-0.364474	-1.663334	-1.061631
C46	C	-0.510760	-1.518338	-0.233226
C47	C	-0.510507	-1.518510	-0.116449
H48	H	-0.633541	-1.118350	-0.384056
Cl49	Cl	-1.118693	-1.671848	-0.657139
H50	H	-0.633577	-0.919287	-0.384080
H51	H	-0.919443	-1.545485	-0.333187
H52	H	-0.917836	-1.692473	-0.482061
Cl53	Cl	-0.238001	-1.119790	-0.617787
Cl54	Cl	-0.244097	-1.618241	-1.114203
H55	H	-0.394306	-1.107882	-0.728457
Cl56	Cl	-0.244361	-0.911533	-0.606440
Cl57	Cl	-0.903844	-1.309892	-0.558375
Cl58	Cl	-0.902425	-1.466043	-0.714131
H59	H	-0.386468	-1.744703	-1.091413
H60	H	-0.386914	-0.934348	-0.732557
H61	H	-1.100960	-1.456089	-0.670005
H62	H	-0.282412	-1.641544	-0.922149
H63	H	-0.393949	-1.740579	-0.917874
H64	H	-0.633477	-1.396546	-1.106226
Cl65	Cl	-0.663560	-1.366702	-0.882854
H66	H	-1.099878	-1.406632	-0.371958
Cl67	Cl	-1.116999	-1.574983	-0.299154
Cl68	Cl	-1.119278	-1.311104	-0.559027
H69	H	-0.919321	-1.651556	-0.618509
Cl70	Cl	-1.115876	-1.722802	-0.443098
Cl71	Cl	-0.901334	-1.364242	-0.357726
