data_functionalizedCrystal
_audit_creation_method	'MofGen! by Chris Wilmer'
_symmetry_space_group_name_H-M	'P1'
_symmetry_Int_Tables_number	1
_symmetry_cell_setting	triclinic
loop_
_symmetry_equiv_pos_as_xyz
  x,y,z
_cell_length_a	13.339070
_cell_length_b	13.101050
_cell_length_c	13.339070
_cell_angle_alpha	85.723856
_cell_angle_beta	64.370706
_cell_angle_gamma	85.727433
loop_
_atom_site_label
_atom_site_type_symbol
_atom_site_fract_x
_atom_site_fract_y
_atom_site_fract_z
O1	O	1.501148	-0.085242	-0.546159
O2	O	1.186339	-0.085237	-0.473899
O3	O	1.307613	-0.085236	-0.352625
O4	O	1.379874	-0.085243	-0.667434
O5	O	1.298918	0.085194	-0.361348
O6	O	1.177643	0.085193	-0.482622
O7	O	1.492452	0.085188	-0.554882
Zn8	Zn	1.333667	0.112250	-0.520137
Zn9	Zn	1.345124	-0.112299	-0.508644
O10	O	1.371178	0.085187	-0.676157
C11	C	1.140876	-0.000021	-0.466055
C12	C	1.018361	-0.000020	-0.429671
N13	N	1.325856	0.265498	-0.527982
C14	C	0.732975	-0.000042	-0.712569
C15	C	0.848084	-0.000047	-0.746756
C16	C	0.890659	-0.000040	-0.667488
C17	C	0.818114	-0.000029	-0.554026
C18	C	0.702994	-0.000032	-0.519835
C19	C	0.860678	-0.000029	-0.474754
C20	C	0.788133	-0.000018	-0.361293
C21	C	0.673025	-0.000020	-0.327107
C22	C	0.630449	-0.000028	-0.406376
C23	C	0.975798	-0.000026	-0.508945
C24	C	0.945817	-0.000016	-0.316212
C25	C	0.830708	-0.000011	-0.282024
C26	C	1.315231	0.474541	-0.538666
C27	C	1.363563	0.525417	-0.490122
C28	C	1.357651	0.641735	-0.496066
C29	C	1.321142	0.358212	-0.532723
C30	C	1.537916	-0.000030	-0.562726
C31	C	1.660430	-0.000038	-0.599109
C32	C	1.291059	-0.000022	-0.315871
C33	C	1.254676	-0.000026	-0.193356
N34	N	1.352941	0.734453	-0.500803
C35	C	1.387732	-0.000029	-0.712910
C36	C	1.424116	-0.000032	-0.835424
C37	C	1.537575	-0.000029	0.092031
C38	C	1.571762	-0.000020	-0.023078
C39	C	1.492494	-0.000022	-0.065653
C40	C	1.379032	-0.000032	0.006892
C41	C	1.344841	-0.000033	0.122012
C42	C	1.299760	-0.000026	-0.035673
C43	C	1.186298	-0.000036	0.036873
C44	C	1.152113	-0.000038	0.151981
C45	C	1.231382	-0.000036	0.194556
C46	C	1.333951	-0.000025	-0.150793
C47	C	1.141217	-0.000028	-0.120812
C48	C	1.107029	-0.000038	-0.005703
H49	H	1.034853	-0.000031	-0.601326
N50	N	1.008241	-0.000026	-0.702427
N51	N	1.062635	0.071815	-0.764395
H52	H	1.145683	0.071831	-0.789078
H53	H	1.269416	0.518337	-0.584689
N54	N	1.527412	-0.000040	-0.183232
N55	N	1.503324	-0.071889	-0.224242
H56	H	1.527990	-0.071908	-0.307287
H57	H	0.698299	-0.000057	-0.777096
N58	N	1.196435	-0.000049	0.312145
N59	N	1.141813	-0.071888	0.373888
H60	H	1.117130	-0.071897	0.456937
H61	H	0.907143	-0.000065	-0.839136
H62	H	0.536719	-0.000023	-0.378546
N63	N	1.449839	0.000002	-0.224889
N64	N	1.506869	0.071847	-0.225738
H65	H	1.588722	0.071867	-0.278069
H66	H	1.664142	-0.000010	-0.082136
N67	N	0.991139	-0.000029	0.068423
N68	N	0.946902	0.071811	0.132330
H69	H	0.865055	0.071818	0.184685
N70	N	1.618548	-0.000012	0.135504
N71	N	1.683216	0.071834	0.108937
H72	H	1.740410	0.071850	0.139638
N73	N	0.756599	0.000016	-0.166130
N74	N	0.685356	0.071861	-0.129238
H75	H	0.633016	0.071882	-0.047387
H76	H	1.059725	-0.000038	0.211045
N77	N	1.421110	0.470493	-0.432439
N78	N	1.466594	0.518261	-0.386834
H79	H	1.507256	0.479469	-0.346117
N80	N	1.060238	-0.000055	-0.164287
N81	N	0.995568	-0.071900	-0.137723
H82	H	0.938382	-0.071918	-0.168435
H83	H	0.613961	-0.000022	-0.234719
H84	H	0.980480	-0.000014	-0.251664
