data_functionalizedCrystal
_audit_creation_method	'MofGen! by Chris Wilmer'
_symmetry_space_group_name_H-M	'P1'
_symmetry_Int_Tables_number	1
_symmetry_cell_setting	triclinic
loop_
_symmetry_equiv_pos_as_xyz
  x,y,z
_cell_length_a	11.792241
_cell_length_b	11.792241
_cell_length_c	7.540329
_cell_angle_alpha	89.996256
_cell_angle_beta	90.001242
_cell_angle_gamma	84.193416
loop_
_atom_site_label
_atom_site_type_symbol
_atom_site_fract_x
_atom_site_fract_y
_atom_site_fract_z
O1	O	1.506906	0.155566	-0.147311
O2	O	1.840240	0.488899	0.186022
O3	O	2.173573	0.822233	0.519356
O4	O	1.176565	0.171599	-0.147352
O5	O	1.509899	0.504932	0.185981
O6	O	1.843232	0.838266	0.519314
O7	O	1.349752	-0.001588	-0.147318
O8	O	1.683086	0.331745	0.186015
O9	O	2.016419	0.665079	0.519348
O10	O	1.333719	0.328753	-0.147345
O11	O	1.667053	0.662086	0.185988
O12	O	2.000386	0.995420	0.519322
O13	O	1.349742	-0.001590	0.147647
O14	O	1.683075	0.331743	0.480980
O15	O	2.016409	0.665077	0.814314
O16	O	1.176555	0.171597	0.147613
O17	O	1.509888	0.504930	0.480946
O18	O	1.843222	0.838264	0.814279
O19	O	1.506896	0.155564	0.147654
O20	O	1.840229	0.488897	0.480987
O21	O	2.173563	0.822231	0.814321
Cu22	Cu	1.341725	0.163580	0.174566
Cu23	Cu	1.675058	0.496914	0.507899
Cu24	Cu	2.008391	0.830247	0.841233
Cu25	Cu	1.341737	0.163583	-0.174264
Cu26	Cu	1.675070	0.496916	0.159069
Cu27	Cu	2.008403	0.830249	0.492402
O28	O	1.333709	0.328751	0.147620
O29	O	1.667042	0.662084	0.480953
O30	O	2.000376	0.995418	0.814287
C31	C	1.134269	0.170591	0.000125
C32	C	1.467603	0.503924	0.333458
C33	C	1.800936	0.837258	0.666792
C34	C	1.008255	0.167576	0.000110
C35	C	1.341589	0.500910	0.333443
C36	C	1.674922	0.834243	0.666776
C37	C	0.777543	0.162034	0.000161
C38	C	1.110877	0.495367	0.333494
C39	C	1.444210	0.828700	0.666828
C40	C	0.905928	0.165113	0.000133
C41	C	1.239262	0.498447	0.333466
C42	C	1.572595	0.831780	0.666799
C43	C	1.348740	-0.043880	0.000164
C44	C	1.682073	0.289453	0.333497
C45	C	2.015407	0.622787	0.666830
C46	C	1.345726	-0.169894	0.000162
C47	C	1.679059	0.163440	0.333495
C48	C	2.012392	0.496773	0.666828
C49	C	1.340183	-0.400606	0.000131
C50	C	1.673516	-0.067272	0.333465
C51	C	2.006849	0.266061	0.666798
C52	C	1.343262	-0.272221	0.000148
C53	C	1.676596	0.061113	0.333481
C54	C	2.009929	0.394446	0.666814
C55	C	1.549192	0.156572	0.000173
C56	C	1.882525	0.489905	0.333506
C57	C	2.215859	0.823239	0.666840
C58	C	1.675206	0.159587	0.000177
C59	C	2.008539	0.492920	0.333510
C60	C	2.341873	0.826253	0.666843
C61	C	1.334721	0.371043	0.000134
C62	C	1.668055	0.704376	0.333468
C63	C	2.001388	1.037710	0.666801
C64	C	1.337736	0.497057	0.000125
C65	C	1.671069	0.830390	0.333458
C66	C	2.004402	1.163723	0.666791
N67	N	1.341724	0.163578	0.419915
N68	N	1.675058	0.496911	0.753248
N69	N	2.008391	0.830244	1.086581
N70	N	1.341746	0.163576	-0.419613
N71	N	1.675079	0.496910	-0.086279
N72	N	2.008413	0.830243	0.247054
