data_functionalizedCrystal
_audit_creation_method	'MofGen! by Chris Wilmer'
_symmetry_space_group_name_H-M	'P1'
_symmetry_Int_Tables_number	1
_symmetry_cell_setting	triclinic
loop_
_symmetry_equiv_pos_as_xyz
  x,y,z
_cell_length_a	18.050589
_cell_length_b	18.050591
_cell_length_c	18.050583
_cell_angle_alpha	90.011642
_cell_angle_beta	90.031910
_cell_angle_gamma	90.027061
loop_
_atom_site_label
_atom_site_type_symbol
_atom_site_fract_x
_atom_site_fract_y
_atom_site_fract_z
Zn1	Zn	-0.295629	1.135301	0.419848
Zn2	Zn	-0.419842	1.135209	0.295668
Zn3	Zn	-0.295668	1.011117	0.295682
Zn4	Zn	-0.419779	1.011068	0.419826
O5	O	-0.357730	1.073174	0.357756
O6	O	-0.312116	1.239213	0.403379
O7	O	-0.403413	1.118730	0.191745
O8	O	-0.191738	1.027650	0.312168
O9	O	-0.403375	1.239146	0.312144
O10	O	-0.191710	1.118887	0.403393
O11	O	-0.312183	1.027561	0.191755
O12	O	-0.312122	0.907186	0.312146
O13	O	-0.403268	1.027565	0.523753
O14	O	-0.403306	0.907150	0.403354
O15	O	-0.312055	1.118838	0.523770
O16	O	-0.523758	1.118682	0.312122
O17	O	-0.523712	1.027476	0.403341
C18	C	-0.357712	0.880222	0.357750
C19	C	-0.357722	0.797676	0.357765
C20	C	-0.407410	0.548852	0.407296
C21	C	-0.425497	0.598221	0.339512
C22	C	-0.357745	0.500555	0.357764
C23	C	-0.339681	0.598268	0.425545
C24	C	-0.357735	0.646540	0.357768
C25	C	-0.375867	0.548837	0.289943
C26	C	-0.290020	0.548880	0.376022
C27	C	-0.308081	0.598227	0.308191
C28	C	-0.357752	0.416457	0.357762
C29	C	-0.357728	0.730637	0.357762
C30	C	-0.550682	1.073084	0.357744
C31	C	-0.633228	1.073114	0.357763
C32	C	-0.832680	1.023565	0.407350
C33	C	-0.882130	1.005465	0.339584
C34	C	-0.784358	1.073187	0.357773
C35	C	-0.881990	1.091322	0.425547
C36	C	-0.930343	1.073256	0.357788
C37	C	-0.832721	1.055052	0.289971
C38	C	-0.832576	1.140940	0.375979
C39	C	-0.882004	1.122867	0.308166
C40	C	-0.700260	1.073145	0.357765
C41	C	-1.014440	1.073297	0.357788
C42	C	-0.164024	1.073284	0.357785
C43	C	-0.081478	1.073331	0.357797
C44	C	-0.357650	1.073206	0.551462
C45	C	-0.357617	1.073220	0.634007
C46	C	-0.357748	1.266879	0.357763
C47	C	-0.357756	1.349425	0.357765
C48	C	-0.357755	1.073184	0.164804
C49	C	-0.357580	1.073314	0.082258
C50	C	-0.307991	1.122905	0.833467
C51	C	-0.289814	1.055171	0.882866
C52	C	-0.357604	1.073250	0.785138
C53	C	-0.375734	1.141011	0.882821
C54	C	-0.357590	1.073285	0.931123
C55	C	-0.339391	1.005481	0.833449
C56	C	-0.425344	1.091367	0.833400
C57	C	-0.407192	1.023586	0.882776
C58	C	-0.357610	1.073231	0.701040
C59	C	-0.357584	1.073296	1.015220
H60	H	-0.266077	0.619769	0.266256
H61	H	-0.482619	1.106699	0.811658
H62	H	-0.391074	1.198301	0.904511
F63	F	-0.215185	0.520527	0.396237
H64	H	-0.323984	0.948174	0.811853
F65	F	-0.804370	0.968637	0.462074
H66	H	-0.449447	0.527173	0.449130
H67	H	-0.482767	0.619893	0.324065
F68	F	-0.214931	1.035156	0.911268
F69	F	-0.462017	0.968657	0.910910
H70	H	-0.266009	1.164827	0.811814
H71	H	-0.391211	0.527215	0.232607
H72	H	-0.903913	0.948201	0.324200
F73	F	-0.319716	0.626650	0.500465
H74	H	-0.811168	1.039674	0.232646
H75	H	-0.810795	1.198192	0.391396
F76	F	-0.910133	1.177757	0.253314
H77	H	-0.903632	1.106634	0.482856
