data_functionalizedCrystal
_audit_creation_method	'MofGen! by Chris Wilmer'
_symmetry_space_group_name_H-M	'P1'
_symmetry_Int_Tables_number	1
_symmetry_cell_setting	triclinic
loop_
_symmetry_equiv_pos_as_xyz
  x,y,z
_cell_length_a	10.654562
_cell_length_b	10.489716
_cell_length_c	9.730223
_cell_angle_alpha	90.002678
_cell_angle_beta	89.996961
_cell_angle_gamma	84.509620
loop_
_atom_site_label
_atom_site_type_symbol
_atom_site_fract_x
_atom_site_fract_y
_atom_site_fract_z
O1	O	1.667893	0.179236	-0.114367
O2	O	1.302423	0.196288	-0.114349
O3	O	1.493490	0.002158	-0.114363
O4	O	1.476826	0.373365	-0.114352
O5	O	1.493488	0.002163	0.114217
O6	O	1.302421	0.196293	0.114231
O7	O	1.667891	0.179240	0.114213
Zn8	Zn	1.485156	0.187768	0.150514
Zn9	Zn	1.485158	0.187761	-0.150650
O10	O	1.476824	0.373370	0.114228
C11	C	1.255624	0.195035	-0.000056
C12	C	1.116180	0.191279	-0.000050
C13	C	1.050647	0.189530	0.124538
C14	C	0.919624	0.186010	0.124515
C15	C	0.919676	0.185995	-0.124695
C16	C	1.050699	0.189506	-0.124671
C17	C	1.050615	0.189544	0.268418
C18	C	0.919592	0.186025	0.268395
C19	C	1.492237	-0.045371	-0.000077
C20	C	1.488491	-0.187000	-0.000090
C21	C	1.605659	-0.284725	-0.000083
C22	C	1.543746	-0.362061	-0.112778
C23	C	1.543717	-0.362020	0.112584
C24	C	1.426627	-0.262471	-0.112878
C25	C	1.426615	-0.262424	0.112585
C26	C	1.364615	-0.339711	-0.000137
C27	C	1.714690	0.180493	-0.000082
C28	C	1.854134	0.184250	-0.000098
C29	C	1.478077	0.420899	-0.000061
C30	C	1.481823	0.562529	-0.000058
N31	N	1.485163	0.187771	0.356051
N32	N	1.485161	0.187747	-0.356186
C33	C	1.569789	0.101840	0.427970
C34	C	1.569786	0.101824	0.571853
C35	C	1.400526	0.273683	0.571884
C36	C	1.400524	0.273691	0.428004
C37	C	1.667514	0.002622	0.427953
C38	C	1.667511	0.002607	0.571836
H39	H	1.080225	0.282576	0.313064
C40	C	1.360713	-0.204104	0.239514
C41	C	1.364141	-0.071025	0.237109
C42	C	1.303441	-0.017256	0.354014
H43	H	1.402395	-0.238197	0.319617
H44	H	1.275515	-0.223794	0.240328
H45	H	1.449324	-0.051346	0.236308
H46	H	1.322453	-0.036898	0.157031
H47	H	1.218243	-0.036946	0.354829
H48	H	1.345128	-0.051358	0.434109
H49	H	1.305748	0.073044	0.352392
C50	C	1.308578	0.367121	0.350167
C51	C	1.234483	0.442383	0.443980
C52	C	1.149775	0.528477	0.372327
H53	H	1.255780	0.320880	0.294033
H54	H	1.354186	0.420733	0.294071
H55	H	1.188878	0.388778	0.500052
H56	H	1.287247	0.488652	0.500117
H57	H	1.195383	0.582089	0.316231
H58	H	1.096986	0.482225	0.316196
H59	H	1.099499	0.579560	0.435968
C60	C	1.741470	-0.251625	-0.000447
C61	C	1.762612	-0.178981	-0.117447
C62	C	1.887688	-0.148423	-0.117825
H63	H	1.796798	-0.328206	-0.001396
H64	H	1.756636	-0.203567	0.079611
H65	H	1.747458	-0.227038	-0.197483
H66	H	1.707314	-0.102385	-0.116522
H67	H	1.902854	-0.100366	-0.037768
H68	H	1.943005	-0.225011	-0.118771
H69	H	1.902046	-0.099122	-0.197201
H70	H	1.593208	-0.405580	-0.208061
C71	C	1.308578	0.366763	0.650187
C72	C	1.231120	0.298069	0.732806
C73	C	1.146413	0.383773	0.804968
H74	H	1.258054	0.417979	0.586903
H75	H	1.354191	0.420270	0.706402
H76	H	1.185511	0.244584	0.676595
H77	H	1.281608	0.246857	0.796114
H78	H	1.192026	0.437281	0.861183
H79	H	1.095899	0.434985	0.741675
H80	H	1.093856	0.337178	0.861043
C81	C	1.360845	-0.204483	-0.240029
C82	C	1.365251	-0.071516	-0.238611
C83	C	1.304693	-0.018056	-0.355732
H84	H	1.275452	-0.223494	-0.240482
H85	H	1.402191	-0.239393	-0.319992
H86	H	1.323903	-0.036618	-0.158669
H87	H	1.450628	-0.052469	-0.238178
H88	H	1.346039	-0.052967	-0.435695
H89	H	1.219304	-0.037076	-0.356176
H90	H	1.307685	0.072165	-0.354792
C91	C	1.228600	-0.372166	-0.000487
C92	C	1.167844	-0.321339	-0.118696
C93	C	1.042554	-0.351227	-0.119080
H94	H	1.186546	-0.336547	0.078723
H95	H	1.226879	-0.462551	0.000204
H96	H	1.169558	-0.230973	-0.119374
H97	H	1.209860	-0.356950	-0.197925
H98	H	1.040834	-0.441611	-0.118389
H99	H	1.000513	-0.315606	-0.039865
H100	H	1.001319	-0.316756	-0.199288
H101	H	1.593202	-0.405512	0.207857
C102	C	1.638785	-0.128168	0.376133
C103	C	1.621214	-0.208183	0.488277
C104	C	1.594729	-0.328666	0.440593
H105	H	1.707211	-0.164575	0.321919
H106	H	1.564290	-0.119214	0.321942
H107	H	1.695700	-0.217141	0.542445
H108	H	1.552784	-0.171817	0.542502
H109	H	1.520234	-0.319711	0.386402
H110	H	1.663160	-0.365060	0.386379
H111	H	1.582793	-0.382967	0.516674
H112	H	1.758709	0.033695	0.383324
C113	C	1.796269	0.031827	0.623645
C114	C	1.875031	0.049717	0.511493
C115	C	1.993641	0.076649	0.559166
H116	H	1.832135	-0.037674	0.677834
H117	H	1.787433	0.107483	0.677858
H118	H	1.883870	-0.025931	0.457303
H119	H	1.839204	0.119221	0.457293
H120	H	1.984805	0.152305	0.613379
H121	H	2.029495	0.007144	0.613354
H122	H	2.047092	0.088802	0.483079
H123	H	0.889968	0.092995	0.313038
H124	H	0.866345	0.184552	-0.226157
C125	C	1.112032	0.071886	0.342064
C126	C	1.018613	-0.003594	0.387090
C127	C	1.075143	-0.111996	0.454916
H128	H	1.158431	0.097796	0.418855
H129	H	1.167340	0.023627	0.280722
H130	H	0.963327	0.044655	0.448427
H131	H	0.972208	-0.029537	0.310325
H132	H	1.130451	-0.160255	0.393575
H133	H	1.121541	-0.086074	0.531701
H134	H	1.011768	-0.163228	0.485463
C135	C	0.857839	0.303647	0.341850
C136	C	0.888429	0.414172	0.273863
C137	C	0.831498	0.522506	0.341496
H138	H	0.887364	0.304610	0.433921
H139	H	0.768931	0.301208	0.341752
H140	H	0.977318	0.416611	0.273975
H141	H	0.858902	0.413251	0.181796
H142	H	0.742591	0.520066	0.341399
H143	H	0.861028	0.523456	0.433565
H144	H	0.852236	0.597509	0.295370
H145	H	1.104053	0.190910	-0.226122
H146	H	1.636963	-0.090047	0.616451
