data_functionalizedCrystal
_audit_creation_method	'MofGen! by Chris Wilmer'
_symmetry_space_group_name_H-M	'P1'
_symmetry_Int_Tables_number	1
_symmetry_cell_setting	triclinic
loop_
_symmetry_equiv_pos_as_xyz
  x,y,z
_cell_length_a	6.817900
_cell_length_b	19.453172
_cell_length_c	19.453114
_cell_angle_alpha	96.317064
_cell_angle_beta	78.290712
_cell_angle_gamma	78.289512
loop_
_atom_site_label
_atom_site_type_symbol
_atom_site_fract_x
_atom_site_fract_y
_atom_site_fract_z
V1	V	3.998005	-0.097914	-0.219330
O2	O	3.995098	0.003953	-0.214817
O3	O	3.941032	-0.193423	-0.218154
O4	O	3.941025	-0.096738	-0.314839
O5	O	3.995104	-0.093402	-0.117463
V6	V	4.483855	-0.085691	-0.207106
O7	O	4.254158	-0.124727	-0.246143
O8	O	4.677900	-0.058877	-0.180293
O9	O	4.317622	0.009819	-0.208281
O10	O	4.604159	-0.187557	-0.211619
O11	O	4.604153	-0.090203	-0.308973
O12	O	4.317628	-0.086867	-0.111597
C13	C	3.784225	-0.216696	-0.214778
C14	C	3.818872	-0.294778	-0.214454
C15	C	4.247899	-0.855852	-0.216325
C16	C	4.215361	-0.782485	-0.216625
C17	C	4.017282	-0.742102	-0.212598
C18	C	3.851722	-0.775088	-0.208253
C19	C	3.884261	-0.848452	-0.207947
N20	N	3.850595	-0.630535	-0.250130
N21	N	3.819697	-0.560842	-0.250423
C22	C	3.919231	-0.521058	-0.213521
N23	N	4.050866	-0.553601	-0.176325
N24	N	4.081774	-0.623301	-0.176035
C25	C	3.981978	-0.662549	-0.212930
C26	C	4.049499	-0.408526	-0.218186
C27	C	4.016951	-0.335157	-0.218482
C28	C	3.653311	-0.327762	-0.210117
C29	C	3.685861	-0.401129	-0.209815
C30	C	3.883960	-0.441507	-0.213853
C31	C	3.784216	-0.093364	-0.338108
C32	C	3.818856	-0.093034	-0.416189
C33	C	4.137771	0.033088	-0.211656
C34	C	4.082361	0.111169	-0.211984
C35	C	4.016595	-0.096405	-0.456457
C36	C	4.049143	-0.096096	-0.529823
C37	C	3.883948	-0.092429	-0.562920
C38	C	3.686179	-0.089054	-0.522641
C39	C	3.653632	-0.089356	-0.449276
N40	N	3.820875	-0.129523	-0.681834
N41	N	3.851806	-0.129238	-0.751529
C42	C	3.981996	-0.091516	-0.783965
N43	N	4.080122	-0.054100	-0.744076
N44	N	4.049196	-0.054389	-0.674375
C45	C	3.919218	-0.092100	-0.642472
C46	C	4.215040	-0.094551	-0.903785
C47	C	4.247579	-0.094237	-0.977151
C48	C	3.884612	-0.087202	-0.969969
C49	C	3.852075	-0.087509	-0.896603
C50	C	4.017299	-0.091187	-0.863516
C51	C	4.137780	-0.090243	-0.088324
C52	C	4.082379	-0.090569	-0.010242
H53	H	3.492031	-0.294882	-0.206836
H54	H	4.408603	-0.096977	-1.009936
H55	H	3.691060	-0.084772	-0.863817
H56	H	4.210174	-0.098844	-0.562617
O57	O	4.461547	-0.899403	-0.220665
H58	H	4.571184	-0.864138	-0.223725
O59	O	4.393224	-0.098501	-0.868090
H60	H	4.511542	-0.148245	-0.891557
O61	O	4.194778	-0.100351	-0.420766
H62	H	4.337746	-0.102633	-0.461096
O63	O	4.393911	-0.746904	-0.221319
H64	H	4.537129	-0.787308	-0.224082
O65	O	3.706117	-0.083369	-1.005490
H66	H	3.686640	-0.034976	-1.031125
H67	H	4.151759	-0.308307	-0.222013
H68	H	3.749455	-0.875303	-0.204414
O69	O	3.638080	-0.731539	-0.203919
H70	H	3.643266	-0.674984	-0.204871
H71	H	4.210802	-0.441404	-0.221470
H72	H	3.551676	-0.086067	-0.549593
H73	H	3.551061	-0.427980	-0.206283
O74	O	3.440353	-0.085722	-0.405832
H75	H	3.384601	-0.132100	-0.425843
