data_functionalizedCrystal
_audit_creation_method	'MofGen! by Chris Wilmer'
_symmetry_space_group_name_H-M	'P1'
_symmetry_Int_Tables_number	1
_symmetry_cell_setting	triclinic
loop_
_symmetry_equiv_pos_as_xyz
  x,y,z
_cell_length_a	16.625539
_cell_length_b	10.686220
_cell_length_c	10.686285
_cell_angle_alpha	90.345431
_cell_angle_beta	94.392139
_cell_angle_gamma	85.649691
loop_
_atom_site_label
_atom_site_type_symbol
_atom_site_fract_x
_atom_site_fract_y
_atom_site_fract_z
Zn1	Zn	-0.342920	-1.956165	0.352082
Zn2	Zn	0.157080	-1.456165	0.852082
Zn3	Zn	-0.197047	-1.972163	0.561874
Zn4	Zn	0.302953	-1.472163	1.061874
Zn5	Zn	-0.217581	-1.746396	0.368240
Zn6	Zn	0.282419	-1.246396	0.868240
Zn7	Zn	-0.341319	-1.762490	0.577904
Zn8	Zn	0.158681	-1.262490	1.077904
O9	O	-0.274716	-1.859304	0.465025
O10	O	0.225284	-1.359304	0.965025
O11	O	-0.315646	-2.133825	0.366441
O12	O	0.184354	-1.633825	0.866441
O13	O	-0.086937	-1.942175	0.536241
O14	O	0.413063	-1.442175	1.036241
O15	O	-0.243471	-1.760791	0.190553
O16	O	0.256529	-1.260791	0.690553
O17	O	-0.208473	-2.145579	0.520574
O18	O	0.291527	-1.645579	1.020574
O19	O	-0.335557	-1.914907	0.178682
O20	O	0.164443	-1.414907	0.678682
O21	O	-0.102024	-1.776305	0.393979
O22	O	0.397976	-1.276305	0.893979
O23	O	-0.241918	-1.572993	0.409522
O24	O	0.258082	-1.072993	0.909522
O25	O	-0.454364	-1.788221	0.547894
O26	O	0.045636	-1.288221	1.047894
O27	O	-0.332828	-1.584817	0.563562
O28	O	0.167172	-1.084817	1.063562
O29	O	-0.455540	-1.930513	0.381984
O30	O	0.044460	-1.430513	0.881984
O31	O	-0.206921	-1.957781	0.739544
O32	O	0.293079	-1.457781	1.239544
O33	O	-0.312917	-1.803735	0.751321
O34	O	0.187083	-1.303735	1.251321
C35	C	-0.257533	-1.884274	0.790946
C36	C	0.242467	-1.384274	1.290946
C37	C	-0.250204	-1.895072	0.930368
C38	C	0.249796	-1.395072	1.430368
C39	C	-0.289428	-1.533390	0.490036
C40	C	0.210572	-1.033390	0.990036
C41	C	-0.295739	-1.393965	0.500766
C42	C	0.204261	-0.893965	1.000766
C43	C	-0.485027	-1.859378	0.464925
C44	C	0.014973	-1.359378	0.964925
C45	C	-0.574648	-1.859410	0.464883
C46	C	-0.074648	-1.359410	0.964883
C47	C	-0.902829	-1.859457	0.464738
C48	C	-0.402829	-1.359457	0.964738
C49	C	-0.811519	-1.859440	0.464782
C50	C	-0.311519	-1.359440	0.964782
C51	C	-0.738741	-1.859434	0.464811
C52	C	-0.238741	-1.359434	0.964811
C53	C	-0.647426	-1.859416	0.464854
C54	C	-0.147426	-1.359416	0.964854
C55	C	-0.065226	-1.859295	0.465028
C56	C	0.434774	-1.359295	0.965028
C57	C	0.024388	-1.859479	0.464699
C58	C	0.524388	-1.359479	0.964699
C59	C	-0.259948	-2.186490	0.439917
C60	C	0.240052	-1.686490	0.939917
C61	C	-0.253654	-2.325917	0.429218
C62	C	0.246346	-1.825917	0.929218
C63	C	-0.291983	-1.834270	0.137828
C64	C	0.208017	-1.334270	0.637828
C65	C	-0.299341	-1.823601	-0.001604
C66	C	0.200659	-1.323601	0.498396
H67	H	-0.212794	-1.374322	0.359755
H68	H	0.287206	-0.874322	0.859755
H69	H	-0.336597	-1.345554	0.570241
H70	H	0.163403	-0.845554	1.070241
H71	H	-0.347018	-1.754154	0.949977
H72	H	0.152982	-1.254154	1.449977
Cl73	Cl	-0.176580	-2.002288	1.005127
Cl74	Cl	0.323420	-1.502288	1.505127
