data_functionalizedCrystal
_audit_creation_method	'MofGen! by Chris Wilmer'
_symmetry_space_group_name_H-M	'P1'
_symmetry_Int_Tables_number	1
_symmetry_cell_setting	triclinic
loop_
_symmetry_equiv_pos_as_xyz
  x,y,z
_cell_length_a	12.759401
_cell_length_b	13.032721
_cell_length_c	12.759393
_cell_angle_alpha	82.850774
_cell_angle_beta	90.020938
_cell_angle_gamma	97.205831
loop_
_atom_site_label
_atom_site_type_symbol
_atom_site_fract_x
_atom_site_fract_y
_atom_site_fract_z
Zn1	Zn	1.553113	-0.415945	0.647098
Zn2	Zn	1.530669	-0.590725	0.493722
Zn3	Zn	1.377404	-0.416001	0.471441
Zn4	Zn	1.355078	-0.590652	0.669350
O5	O	1.454066	-0.503331	0.570403
O6	O	1.697156	-0.439137	0.626765
O7	O	1.510289	-0.567601	0.343752
O8	O	1.419449	-0.269756	0.476105
O9	O	1.680666	-0.567547	0.514080
O10	O	1.548541	-0.269715	0.605160
O11	O	1.397686	-0.439232	0.327382
O12	O	1.227423	-0.439161	0.497681
O13	O	1.381397	-0.567423	0.813412
O14	O	1.211019	-0.567477	0.643084
O15	O	1.526892	-0.439067	0.797064
O16	O	1.488640	-0.736953	0.535656
O17	O	1.359634	-0.736899	0.664689
C18	C	1.181100	-0.503318	0.570380
C19	C	1.064321	-0.503338	0.570399
C20	C	1.000932	-0.570253	0.646017
C21	C	0.891208	-0.570257	0.646038
C22	C	0.908271	-0.436427	0.494813
C23	C	1.017994	-0.436419	0.494797
C24	C	1.419307	-0.774844	0.605028
C25	C	1.404533	-0.890999	0.619876
C26	C	1.461832	-0.942776	0.562700
C27	C	1.446564	-1.062828	0.578045
C28	C	1.728097	-0.503344	0.570426
C29	C	1.844873	-0.503350	0.570436
C30	C	1.454157	-0.503230	0.844423
C31	C	1.454196	-0.503188	0.961194
C32	C	1.488989	-0.230757	0.535665
C33	C	1.503872	-0.114602	0.520862
C34	C	1.454045	-0.503355	0.297438
C35	C	1.454247	-0.503104	0.180630
C36	C	1.529962	-0.436342	1.007544
C37	C	1.529986	-0.436297	1.117263
C38	C	1.378473	-0.569952	1.134273
C39	C	1.378446	-0.569991	1.024556
H40	H	1.522197	-0.898229	0.502394
O41	O	1.374564	-1.116122	0.649925
C42	C	1.375361	-1.224123	0.649259
H43	H	1.407940	-1.238955	0.570092
H44	H	1.291407	-1.265745	0.661598
H45	H	1.427380	-1.255001	0.715545
O46	O	1.305001	-0.634813	1.195982
C47	C	1.321255	-0.620430	1.302759
H48	H	1.406724	-0.586206	1.313397
H49	H	1.304107	-0.698692	1.354431
H50	H	1.266078	-0.564763	1.326794
H51	H	1.316741	-0.624424	0.986817
O52	O	1.575743	-1.061426	0.448785
C53	C	1.523927	-0.998372	0.372890
H54	H	1.437011	-1.031405	0.370521
H55	H	1.562133	-0.997056	0.291902
H56	H	1.530739	-0.915670	0.394873
H57	H	1.038649	-0.624740	0.707579
H58	H	1.344178	-0.935548	0.680190
H59	H	1.591640	-0.381943	0.955958
O60	O	0.829754	-0.635210	0.719632
C61	C	0.859513	-0.612483	0.821481
H62	H	0.944322	-0.572308	0.818589
H63	H	0.853631	-0.687962	0.878086
H64	H	0.804651	-0.558804	0.850125
O65	O	0.863091	-0.371526	0.421423
C66	C	0.752655	-0.385861	0.437666
H67	H	0.727357	-0.466554	0.482227
H68	H	0.711835	-0.378675	0.358073
H69	H	0.729473	-0.323948	0.485832
O70	O	1.079419	-0.371381	0.421232
C71	C	1.015005	-0.312306	0.354519
H72	H	0.931309	-0.355109	0.356273
H73	H	1.048111	-0.301056	0.270323
H74	H	1.013508	-0.232986	0.383012
H75	H	1.591680	-0.381863	1.154995
