data_functionalizedCrystal
_audit_creation_method	'MofGen! by Chris Wilmer'
_symmetry_space_group_name_H-M	'P1'
_symmetry_Int_Tables_number	1
_symmetry_cell_setting	triclinic
loop_
_symmetry_equiv_pos_as_xyz
  x,y,z
_cell_length_a	16.120484
_cell_length_b	16.959455
_cell_length_c	16.959447
_cell_angle_alpha	89.985678
_cell_angle_beta	92.866538
_cell_angle_gamma	92.922454
loop_
_atom_site_label
_atom_site_type_symbol
_atom_site_fract_x
_atom_site_fract_y
_atom_site_fract_z
Zn1	Zn	-0.331957	1.192394	-0.462851
Zn2	Zn	0.168043	1.692394	0.037149
Zn3	Zn	-0.471386	1.185600	-0.337369
Zn4	Zn	0.028614	1.685600	0.162631
Zn5	Zn	-0.331984	1.060221	-0.330690
Zn6	Zn	0.168016	1.560221	0.169310
Zn7	Zn	-0.471323	1.053474	-0.469504
Zn8	Zn	0.028677	1.553474	0.030496
O9	O	-0.401662	1.122922	-0.400103
O10	O	0.098338	1.622922	0.099897
O11	O	-0.350468	1.302103	-0.446216
O12	O	0.149532	1.802103	0.053784
O13	O	-0.452931	1.168949	-0.225874
O14	O	0.047069	1.668949	0.274126
O15	O	-0.215315	1.083421	-0.342642
O16	O	0.284685	1.583421	0.157358
O17	O	-0.452905	1.297112	-0.354025
O18	O	0.047095	1.797112	0.145975
O19	O	-0.215296	1.180528	-0.439740
O20	O	0.284704	1.680528	0.060260
O21	O	-0.350513	1.076833	-0.220967
O22	O	0.149487	1.576833	0.279033
O23	O	-0.350452	0.948716	-0.349093
O24	O	0.149548	1.448716	0.150907
O25	O	-0.452799	1.071921	-0.579231
O26	O	0.047201	1.571921	-0.079231
O27	O	-0.452824	0.943759	-0.451079
O28	O	0.047176	1.443759	0.048921
O29	O	-0.350408	1.173985	-0.574343
O30	O	0.149592	1.673985	-0.074343
O31	O	-0.588043	1.162407	-0.360476
O32	O	-0.088043	1.662407	0.139524
O33	O	-0.587997	1.065334	-0.457556
O34	O	-0.087997	1.565334	0.042444
C35	C	-0.401635	0.917557	-0.400084
C36	C	0.098365	1.417557	0.099916
C37	C	-0.401643	0.829700	-0.400095
C38	C	0.098357	1.329700	0.099905
C39	C	-0.618270	1.112422	-0.410480
C40	C	-0.118270	1.612422	0.089520
C41	C	-0.710935	1.108003	-0.414945
C42	C	-0.210935	1.608003	0.085055
C43	C	-0.348314	0.460783	-0.347103
C44	C	0.151686	0.960783	0.152897
C45	C	-0.455080	0.455662	-0.453153
C46	C	0.044920	0.955662	0.046847
C47	C	-0.455068	0.538208	-0.453147
C48	C	0.044932	1.038208	0.046853
C49	C	-0.401679	0.582046	-0.400118
C50	C	0.098321	1.082046	0.099882
C51	C	-0.348302	0.543337	-0.347094
C52	C	0.151698	1.043337	0.152906
C53	C	-0.508450	0.576923	-0.506165
C54	C	-0.008450	1.076923	-0.006165
C55	C	-0.508441	0.659474	-0.506161
C56	C	-0.008441	1.159474	-0.006161
C57	C	-0.455047	0.703314	-0.453135
C58	C	0.044953	1.203314	0.046865
C59	C	-0.401667	0.664600	-0.400109
C60	C	0.098333	1.164600	0.099891
C61	C	-0.348278	0.708437	-0.347080
C62	C	0.151722	1.208437	0.152920
C63	C	-0.294893	0.669725	-0.294058
C64	C	0.205107	1.169725	0.205942
C65	C	-0.294908	0.587176	-0.294068
C66	C	0.205092	1.087176	0.205932
C67	C	-0.455032	0.785863	-0.453125
C68	C	0.044968	1.285863	0.046875
C69	C	-0.348266	0.790991	-0.347071
C70	C	0.151734	1.290991	0.152929
C71	C	-0.880596	1.099938	-0.423114
C72	C	-0.380596	1.599938	0.076886
C73	C	-0.921888	1.146048	-0.377106
C74	C	-0.421888	1.646048	0.122894
C75	C	-1.016293	1.141561	-0.381651
C76	C	-0.516293	1.641561	0.118349
C77	C	-0.786182	1.104424	-0.418570
C78	C	-0.286182	1.604424	0.081430
C79	C	-0.184209	1.133485	-0.389704
C80	C	0.315791	1.633485	0.110296
C81	C	-0.091544	1.137986	-0.385272
C82	C	0.408456	1.637986	0.114728
C83	C	-0.401593	1.122959	-0.606268
C84	C	0.098407	1.622959	-0.106268
C85	C	-0.401564	1.122974	-0.694124
C86	C	0.098436	1.622974	-0.194124
C87	C	-0.401691	1.329089	-0.400123
C88	C	0.098309	1.829089	0.099877
C89	C	-0.401703	1.416945	-0.400132
C90	C	0.098297	1.916945	0.099868
C91	C	-0.454787	1.069933	-1.068143
C92	C	0.045213	1.569933	-0.568143
C93	C	-0.348166	1.176213	-1.063048
C94	C	0.151834	1.676213	-0.563048
C95	C	-0.348183	1.176191	-0.980503
C96	C	0.151817	1.676191	-0.480503
C97	C	-0.401504	1.123040	-0.941774
C98	C	0.098496	1.623040	-0.441774
C99	C	-0.454808	1.069911	-0.985590
C100	C	0.045192	1.569911	-0.485590
C101	C	-0.294887	1.229324	-0.936681
C102	C	0.205113	1.729324	-0.436681
C103	C	-0.294903	1.229305	-0.854130
C104	C	0.205097	1.729305	-0.354130
C105	C	-0.348221	1.176150	-0.815400
C106	C	0.151779	1.676150	-0.315400
C107	C	-0.401525	1.123018	-0.859221
C108	C	0.098475	1.623018	-0.359221
C109	C	-0.454846	1.069867	-0.820492
C110	C	0.045154	1.569867	-0.320492
C111	C	-0.508148	1.016731	-0.864312
C112	C	-0.008148	1.516731	-0.364312
C113	C	-0.508125	1.016755	-0.946860
C114	C	-0.008125	1.516755	-0.446860
C115	C	-0.348243	1.176125	-0.732853
C116	C	0.151757	1.676125	-0.232853
C117	C	-0.454867	1.069845	-0.737940
C118	C	0.045133	1.569845	-0.237940
C119	C	-0.401671	1.122935	-0.194738
C120	C	0.098329	1.622935	0.305262
C121	C	-0.401466	1.123084	-0.106872
C122	C	0.098534	1.623084	0.393128
H123	H	-0.304784	0.826679	-0.303892
H124	H	0.195216	1.326679	0.196108
H125	H	-0.886339	1.188892	-0.334302
H126	H	-0.386339	1.688892	0.165698
F127	F	-0.238079	0.716389	-0.237618
F128	F	0.261921	1.216389	0.262382
H129	H	-0.916143	1.057096	-0.465913
H130	H	-0.416143	1.557096	0.034087
F131	F	-0.511616	1.013269	-0.696728
F132	F	-0.011616	1.513269	-0.196728
F133	F	-0.291525	1.232677	-0.686221
F134	F	0.208475	1.732677	-0.186221
F135	F	-0.511508	1.013382	-1.114778
F136	F	-0.011508	1.513382	-0.614778
F137	F	-0.564898	0.960169	-0.823085
F138	F	-0.064898	1.460169	-0.323085
H139	H	-0.551523	0.973497	-0.982545
H140	H	-0.051523	1.473497	-0.482545
F141	F	-0.511912	0.409004	-0.509574
F142	F	-0.011912	0.909004	-0.009574
F143	F	-0.291427	1.232781	-1.104268
F144	F	0.208573	1.732781	-0.604268
H145	H	-0.251481	1.272602	-0.968220
H146	H	0.248519	1.772602	-0.468220
H147	H	-0.251446	0.555649	-0.250899
H148	H	0.248554	1.055649	0.249101
H149	H	-0.251501	1.272571	-0.818459
H150	H	0.248499	1.772571	-0.318459
H151	H	-0.304847	0.429260	-0.303935
H152	H	0.195153	0.929260	0.196065
F153	F	-0.511849	0.827059	-0.509547
F154	F	-0.011849	1.327059	-0.009547
H155	H	-0.551923	0.541224	-0.549333
H156	H	-0.051923	1.041224	-0.049333
H157	H	-0.551910	0.690987	-0.549336
H158	H	-0.051910	1.190987	-0.049336
