data_functionalizedCrystal
_audit_creation_method	'MofGen! by Chris Wilmer'
_symmetry_space_group_name_H-M	'P1'
_symmetry_Int_Tables_number	1
_symmetry_cell_setting	triclinic
loop_
_symmetry_equiv_pos_as_xyz
  x,y,z
_cell_length_a	17.077402
_cell_length_b	12.759401
_cell_length_c	12.759393
_cell_angle_alpha	90.020938
_cell_angle_beta	89.965312
_cell_angle_gamma	89.975592
loop_
_atom_site_label
_atom_site_type_symbol
_atom_site_fract_x
_atom_site_fract_y
_atom_site_fract_z
Zn1	Zn	-0.312438	-1.606207	-0.593990
Zn2	Zn	0.187562	-1.106207	-0.093990
Zn3	Zn	-0.443724	-1.606073	-0.418297
Zn4	Zn	0.056276	-1.106073	0.081703
Zn5	Zn	-0.312480	-1.430505	-0.418325
Zn6	Zn	0.187520	-0.930505	0.081675
Zn7	Zn	-0.443669	-1.430472	-0.593934
Zn8	Zn	0.056331	-0.930472	-0.093934
O9	O	-0.378078	-1.518314	-0.506136
O10	O	0.121922	-1.018314	-0.006136
O11	O	-0.329859	-1.753210	-0.570695
O12	O	0.170141	-1.253210	-0.070695
O13	O	-0.426355	-1.582741	-0.271279
O14	O	0.073645	-1.082741	0.228721
O15	O	-0.202628	-1.453882	-0.441662
O16	O	0.297372	-0.953882	0.058338
O17	O	-0.426314	-1.753111	-0.441614
O18	O	0.073686	-1.253111	0.058386
O19	O	-0.202597	-1.582969	-0.570722
O20	O	0.297403	-1.082969	-0.070722
O21	O	-0.329930	-1.453753	-0.271300
O22	O	0.170070	-0.953753	0.228700
O23	O	-0.329877	-1.283480	-0.441608
O24	O	0.170123	-0.783480	0.058392
O25	O	-0.426221	-1.453826	-0.740962
O26	O	0.073779	-0.953826	-0.240962
O27	O	-0.426261	-1.283456	-0.570627
O28	O	0.073739	-0.783456	-0.070627
O29	O	-0.329806	-1.582937	-0.741003
O30	O	0.170194	-1.082937	-0.241003
O31	O	-0.553564	-1.582709	-0.441560
O32	O	-0.053564	-1.082709	0.058440
O33	O	-0.553524	-1.453696	-0.570600
O34	O	-0.053524	-0.953696	-0.070600
C35	C	-0.378068	-1.245347	-0.506115
C36	C	0.121932	-0.745347	-0.006115
C37	C	-0.378083	-1.128570	-0.506131
C38	C	0.121917	-0.628570	-0.006131
C39	C	-0.582026	-1.518213	-0.506094
C40	C	-0.082026	-1.018213	-0.006094
C41	C	-0.669276	-1.518266	-0.506111
C42	C	-0.169276	-1.018266	-0.006111
C43	C	-0.378003	-1.518393	-0.780170
C44	C	0.121997	-1.018393	-0.280170
C45	C	-0.377971	-1.518426	-0.896946
C46	C	0.122029	-1.018426	-0.396946
C47	C	-0.710261	-1.585511	-0.438993
C48	C	-0.210261	-1.085511	0.061007
C49	C	-0.792241	-1.585563	-0.439019
C50	C	-0.292241	-1.085563	0.060981
C51	C	-0.833235	-1.518362	-0.506161
C52	C	-0.333235	-1.018362	-0.006161
C53	C	-0.792244	-1.451114	-0.573287
C54	C	-0.292244	-0.951114	-0.073287
C55	C	-0.710265	-1.451068	-0.573265
C56	C	-0.210265	-0.951068	-0.073265
C57	C	-0.963114	-1.451211	-0.573327
C58	C	-0.463114	-0.951211	-0.073327
C59	C	-1.045099	-1.451255	-0.573348
C60	C	-0.545099	-0.951255	-0.073348
C61	C	-1.045090	-1.585705	-0.439082
C62	C	-0.545090	-1.085705	0.060918
C63	C	-0.963111	-1.585660	-0.439059
C64	C	-0.463111	-1.085660	0.060941
C65	C	-0.922126	-1.518410	-0.506184
C66	C	-0.422126	-1.018410	-0.006184
C67	C	-0.173334	-1.518445	-0.506201
C68	C	0.326666	-1.018445	-0.006201
C69	C	-0.086084	-1.518500	-0.506229
C70	C	0.413916	-1.018500	-0.006229
C71	C	-0.378088	-1.792347	-0.506158
C72	C	0.121912	-1.292347	-0.006158
C73	C	-0.378093	-1.909124	-0.506167
C74	C	0.121907	-1.409124	-0.006167
C75	C	-0.428347	-1.073723	-0.573206
C76	C	0.071653	-0.573723	-0.073206
C77	C	-0.428350	-0.963999	-0.573227
C78	C	0.071650	-0.463999	-0.073227
C79	C	-0.327823	-0.963979	-0.439089
C80	C	0.172177	-0.463979	0.060911
C81	C	-0.327817	-1.073701	-0.439075
C82	C	0.172183	-0.573701	0.060925
C83	C	-0.327759	-1.585660	-0.951831
C84	C	0.172241	-1.085660	-0.451831
C85	C	-0.327725	-1.585677	-1.061555
C86	C	0.172275	-1.085677	-0.561555
C87	C	-0.428121	-1.451226	-1.061500
C88	C	0.071879	-0.951226	-0.561500
C89	C	-0.428150	-1.451203	-0.951778
C90	C	0.071850	-0.951203	-0.451778
C91	C	-0.378096	-1.518296	-0.233169
C92	C	0.121904	-1.018296	0.266831
C93	C	-0.377907	-1.518466	-0.116393
C94	C	0.122093	-1.018466	0.383607
H95	H	-0.676889	-1.640229	-0.384314
H96	H	-0.176889	-1.140229	0.115686
H97	H	-0.676896	-1.396311	-0.627921
H98	H	-0.176896	-0.896311	-0.127921
C99	C	-0.272553	-1.659597	-0.891520
C100	C	0.227447	-1.159597	-0.391520
N101	N	-0.230968	-1.715286	-0.846097
N102	N	0.269032	-1.215286	-0.346097
C103	C	-0.272520	-1.134036	-0.365283
C104	C	0.227480	-0.634036	0.134717
N105	N	-0.230872	-1.179481	-0.309707
N106	N	0.269128	-0.679481	0.190293
C107	C	-0.272491	-1.659642	-1.121924
C108	C	0.227509	-1.159642	-0.621924
N109	N	-0.230885	-1.715355	-1.167393
N110	N	0.269115	-1.215355	-0.667393
C111	C	-0.918033	-1.377223	-0.647160
C112	C	-0.418033	-0.877223	-0.147160
N113	N	-0.884077	-1.321489	-0.702762
N114	N	-0.384077	-0.821489	-0.202762
C115	C	-0.483651	-0.903672	-0.647005
C116	C	0.016349	-0.403672	-0.147005
N117	N	-0.525309	-0.858235	-0.702575
N118	N	-0.025309	-0.358235	-0.202575
H119	H	-0.469038	-1.396447	-0.907090
H120	H	0.030962	-0.896447	-0.407090
C121	C	-0.483635	-1.134075	-0.646978
C122	C	0.016365	-0.634075	-0.146978
N123	N	-0.525278	-1.179530	-0.702549
N124	N	-0.025278	-0.679530	-0.202549
C125	C	-0.272538	-0.903613	-0.365325
C126	C	0.227462	-0.403613	0.134675
N127	N	-0.230897	-0.858146	-0.309762
N128	N	0.269103	-0.358146	0.190238
H129	H	-0.825608	-1.640320	-0.384364
H130	H	-0.325608	-1.140320	0.115636
C131	C	-0.918019	-1.659567	-0.365184
C132	C	-0.418019	-1.159567	0.134816
N133	N	-0.884057	-1.715232	-0.309537
N134	N	-0.384057	-1.215232	0.190463
H135	H	-1.078464	-1.640466	-0.384429
H136	H	-0.578464	-1.140466	0.115571
C137	C	-1.090191	-1.377342	-0.647218
C138	C	-0.590191	-0.877342	-0.147218
N139	N	-1.124154	-1.321673	-0.702861
N140	N	-0.624154	-0.821673	-0.202861
H141	H	-0.468977	-1.396497	-1.106157
H142	H	0.031023	-0.896497	-0.606157
H143	H	-0.825628	-1.396402	-0.627959
H144	H	-0.325628	-0.896402	-0.127959
