data_functionalizedCrystal
_audit_creation_method	'MofGen! by Chris Wilmer'
_symmetry_space_group_name_H-M	'P1'
_symmetry_Int_Tables_number	1
_symmetry_cell_setting	triclinic
loop_
_symmetry_equiv_pos_as_xyz
  x,y,z
_cell_length_a	10.967819
_cell_length_b	10.489716
_cell_length_c	10.065875
_cell_angle_alpha	98.882384
_cell_angle_beta	69.228723
_cell_angle_gamma	84.622748
loop_
_atom_site_label
_atom_site_type_symbol
_atom_site_fract_x
_atom_site_fract_y
_atom_site_fract_z
O1	O	1.740669	0.093298	-0.522881
O2	O	1.363372	0.124950	-0.434143
O3	O	1.560623	-0.076813	-0.480540
O4	O	1.543418	0.295061	-0.476484
O5	O	1.523012	-0.038190	-0.244704
O6	O	1.325761	0.163574	-0.198308
O7	O	1.703057	0.131921	-0.287045
Zn8	Zn	1.508437	0.153880	-0.205232
Zn9	Zn	1.557992	0.102992	-0.515956
O10	O	1.505806	0.333685	-0.240648
C11	C	1.296254	0.144876	-0.304863
C12	C	1.152298	0.146690	-0.271006
C13	C	0.958826	0.129375	-0.343116
C14	C	1.107612	0.127492	-0.378100
C15	C	1.540526	-0.104984	-0.362323
C16	C	1.536660	-0.246465	-0.361426
C17	C	1.657618	-0.348869	-0.389862
C18	C	1.612244	-0.442772	-0.491105
C19	C	1.575134	-0.404655	-0.258582
C20	C	1.491352	-0.338521	-0.462776
C21	C	1.454243	-0.300382	-0.230154
C22	C	1.408785	-0.394237	-0.331404
C23	C	1.770176	0.111995	-0.416328
C24	C	1.914134	0.110179	-0.450195
C25	C	1.525905	0.361855	-0.358869
C26	C	1.529771	0.503335	-0.359775
N27	N	1.474627	0.188608	0.006826
N28	N	1.591813	0.068253	-0.728017
C29	C	1.546220	0.115067	0.057765
C30	C	1.520209	0.141805	0.221050
H31	H	1.179495	0.109670	-0.495682
H32	H	1.303501	-0.414559	-0.306703
H33	H	1.762851	-0.328328	-0.414726
H34	H	0.886937	0.147210	-0.225542
H35	H	1.080414	0.164527	-0.153423
C36	C	1.702390	-0.525983	-0.640127
H37	H	1.651139	-0.575243	-0.680765
H38	H	1.768405	-0.583740	-0.628757
H39	H	1.743230	-0.470284	-0.702807
H40	H	1.439648	0.224562	0.298321
C41	C	1.443638	-0.299114	-0.579528
H42	H	1.446468	-0.208860	-0.579449
H43	H	1.355576	-0.314913	-0.559146
H44	H	1.499463	-0.349246	-0.672031
H45	H	1.387547	-0.238768	-0.119847
C46	C	1.365788	0.300390	0.111203
H47	H	1.324233	0.343052	0.058073
H48	H	1.403883	0.361384	0.157993
H49	H	1.302077	0.265683	0.181926
C50	C	1.011236	0.086096	-0.609030
H51	H	1.098500	0.087982	-0.611706
H52	H	0.988367	0.152328	-0.654523
H53	H	1.006761	0.003098	-0.658848
H54	H	1.610545	-0.434028	-0.172298
H55	H	1.626767	0.032306	-0.019505
C56	C	1.700637	-0.043555	0.167618
H57	H	1.742173	-0.086231	0.220755
H58	H	1.764352	-0.008882	0.096875
H59	H	1.662510	-0.104545	0.120856
