data_functionalizedCrystal
_audit_creation_method	'MofGen! by Chris Wilmer'
_symmetry_space_group_name_H-M	'P1'
_symmetry_Int_Tables_number	1
_symmetry_cell_setting	triclinic
loop_
_symmetry_equiv_pos_as_xyz
  x,y,z
_cell_length_a	17.077404
_cell_length_b	19.805405
_cell_length_c	17.077396
_cell_angle_alpha	90.028963
_cell_angle_beta	90.019501
_cell_angle_gamma	90.026951
loop_
_atom_site_label
_atom_site_type_symbol
_atom_site_fract_x
_atom_site_fract_y
_atom_site_fract_z
Zn1	Zn	1.200034	-0.269459	0.443840
Zn2	Zn	1.700034	0.230541	0.943840
Zn3	Zn	1.199932	-0.382652	0.312573
Zn4	Zn	1.699932	0.117348	0.812573
Zn5	Zn	1.068765	-0.269483	0.312588
Zn6	Zn	1.568765	0.230517	0.812588
Zn7	Zn	1.068725	-0.382612	0.443797
Zn8	Zn	1.568725	0.117388	0.943797
O9	O	1.134364	-0.326052	0.378199
O10	O	1.634364	0.173948	0.878199
O11	O	1.309867	-0.284481	0.426439
O12	O	1.809867	0.215519	0.926439
O13	O	1.182507	-0.367667	0.202728
O14	O	1.682507	0.132333	0.702728
O15	O	1.086238	-0.174763	0.330023
O16	O	1.586238	0.325237	0.830023
O17	O	1.309792	-0.367644	0.329998
O18	O	1.809792	0.132356	0.829998
O19	O	1.182680	-0.174746	0.426454
O20	O	1.682680	0.325254	0.926454
O21	O	1.086140	-0.284522	0.202739
O22	O	1.586140	0.215478	0.702739
O23	O	0.958913	-0.284483	0.329981
O24	O	1.458913	0.215517	0.829981
O25	O	1.086169	-0.367575	0.553649
O26	O	1.586169	0.132425	1.053649
O27	O	0.958883	-0.367598	0.426380
O28	O	1.458883	0.132402	0.926380
O29	O	1.182641	-0.284442	0.553681
O30	O	1.682641	0.215558	1.053681
O31	O	1.182467	-0.477363	0.329956
O32	O	1.682467	0.022637	0.829956
O33	O	1.086070	-0.477334	0.426365
O34	O	1.586070	0.022666	0.926365
C35	C	0.930416	-0.326039	0.378178
C36	C	1.430416	0.173961	0.878178
C37	C	0.843166	-0.326050	0.378187
C38	C	1.343166	0.173950	0.878187
C39	C	0.802181	-0.369394	0.428301
C40	C	1.302181	0.130606	0.928301
C41	C	0.720201	-0.369395	0.428314
C42	C	1.220201	0.130605	0.928314
C43	C	0.679207	-0.326056	0.378208
C44	C	1.179207	0.173944	0.878208
C45	C	0.720198	-0.282708	0.328091
C46	C	1.220198	0.217292	0.828091
C47	C	0.802177	-0.282703	0.328083
C48	C	1.302177	0.217297	0.828083
C49	C	0.549328	-0.282721	0.328110
C50	C	1.049328	0.217279	0.828110
C51	C	0.467343	-0.282726	0.328117
C52	C	0.967343	0.217274	0.828117
C53	C	0.467352	-0.369413	0.428341
C54	C	0.967352	0.130587	0.928341
C55	C	0.549331	-0.369409	0.428333
C56	C	1.049331	0.130591	0.928333
C57	C	0.590316	-0.326061	0.378215
C58	C	1.090316	0.173939	0.878215
C59	C	1.134275	-0.501908	0.378171
C60	C	1.634275	-0.001908	0.878171
C61	C	1.134308	-0.577140	0.378185
C62	C	1.634308	-0.077140	0.878185
C63	C	1.184496	-0.612416	0.428436
C64	C	1.684496	-0.112416	0.928436
C65	C	1.184524	-0.683105	0.428450
C66	C	1.684524	-0.183105	0.928450
C67	C	1.134368	-0.718515	0.378210
C68	C	1.634368	-0.218515	0.878210
C69	C	1.084175	-0.683233	0.327957
C70	C	1.584175	-0.183233	0.827957
C71	C	1.084143	-0.612546	0.327947
C72	C	1.584143	-0.112546	0.827947
C73	C	1.084301	-0.968307	0.327997
C74	C	1.584301	-0.468307	0.827997
C75	C	1.084338	-1.038999	0.328009
C76	C	1.584338	-0.538999	0.828009
C77	C	1.184682	-1.038865	0.428501
C78	C	1.684682	-0.538865	0.928501
C79	C	1.184650	-0.968178	0.428491
C80	C	1.684650	-0.468178	0.928491
C81	C	1.134454	-0.932902	0.378241
C82	C	1.634454	-0.432902	0.878241
C83	C	1.134423	-0.856254	0.378227
C84	C	1.634423	-0.356254	0.878227
C85	C	1.134403	-0.795162	0.378219
C86	C	1.634403	-0.295162	0.878219
C87	C	1.339108	-0.326064	0.378222
C88	C	1.839108	0.173936	0.878222
C89	C	1.426358	-0.326070	0.378231
C90	C	1.926358	0.173930	0.878231
C91	C	1.134411	-0.326002	0.582944
C92	C	1.634411	0.173998	1.082944
C93	C	1.134432	-0.325980	0.670194
C94	C	1.634432	0.174020	1.170194
C95	C	1.134475	-0.149509	0.378245
C96	C	1.634475	0.350491	0.878245
C97	C	1.134523	-0.074277	0.378265
C98	C	1.634523	0.425723	0.878265
C99	C	1.134362	-0.326052	0.174252
C100	C	1.634362	0.173948	0.674252
C101	C	1.134494	-0.325883	0.087002
C102	C	1.634494	0.174117	0.587002
C103	C	1.184667	-0.282689	0.711202
C104	C	1.684667	0.217311	1.211202
C105	C	1.184676	-0.282667	0.793182
C106	C	1.684676	0.217333	1.293182
C107	C	1.134454	-0.325939	0.834153
C108	C	1.634454	0.174061	1.334153
C109	C	1.084214	-0.369232	0.793139
C110	C	1.584214	0.130768	1.293139
C111	C	1.084201	-0.369251	0.711160
C112	C	1.584201	0.130749	1.211160
C113	C	1.084245	-0.369191	0.964009
C114	C	1.584245	0.130809	1.464009
C115	C	1.084259	-0.369174	1.045994
C116	C	1.584259	0.130826	1.545994
C117	C	1.184720	-0.282608	1.046031
C118	C	1.684720	0.217392	1.546031
C119	C	1.184708	-0.282626	0.964052
C120	C	1.684708	0.217374	1.464052
C121	C	1.134468	-0.325920	0.923044
C122	C	1.634468	0.174080	1.423044
H123	H	0.582696	-0.247417	0.287306
H124	H	1.082696	0.252583	0.787306
H125	H	0.835546	-0.247405	0.287279
H126	H	1.335546	0.252595	0.787279
O127	O	1.233318	-0.717452	0.477148
O128	O	1.733318	-0.217452	0.977148
C129	C	1.284065	-0.758315	0.432498
C130	C	1.784065	-0.258315	0.932498
H131	H	1.256411	-0.768952	0.372989
H132	H	1.756411	-0.268952	0.872989
H133	H	1.294588	-0.808000	0.464483
H134	H	1.794588	-0.308000	0.964483
H135	H	1.342231	-0.731038	0.423918
H136	H	1.842231	-0.231038	0.923918
O137	O	1.035720	-1.073428	0.279126
O138	O	1.535720	-0.573428	0.779126
C139	C	1.080454	-1.114324	0.228482
C140	C	1.580454	-0.614324	0.728482
H141	H	1.142269	-1.092974	0.223676
H142	H	1.642269	-0.592974	0.723676
H143	H	1.052089	-1.115185	0.168051
H144	H	1.552089	-0.615185	0.668051
H145	H	1.083177	-1.167879	0.252767
H146	H	1.583177	-0.667879	0.752767
O147	O	1.233506	-0.240706	0.833109
O148	O	1.733506	0.259294	1.333109
C149	C	1.284198	-0.279229	0.880523
C150	C	1.784198	0.220771	1.380523
H151	H	1.256486	-0.330521	0.892781
H152	H	1.756486	0.169479	1.392781
H153	H	1.294731	-0.251645	0.938181
H154	H	1.794731	0.248355	1.438181
H155	H	1.342366	-0.286672	0.848947
H156	H	1.842366	0.213328	1.348947
O157	O	1.233396	-0.933886	0.477369
O158	O	1.733396	-0.433886	0.977369
C159	C	1.277714	-0.980181	0.521713
C160	C	1.777714	-0.480181	1.021713
H161	H	1.245585	-1.030593	0.524408
H162	H	1.745585	-0.530593	1.024408
H163	H	1.286040	-0.959717	0.583565
H164	H	1.786040	-0.459717	1.083565
H165	H	1.337352	-0.987669	0.493025
H166	H	1.837352	-0.487669	0.993025
O167	O	1.035528	-0.934151	0.279103
O168	O	1.535528	-0.434151	0.779103
C169	C	0.991260	-0.980565	0.234772
C170	C	1.491260	-0.480565	0.734772
H171	H	1.023438	-1.030931	0.232101
H172	H	1.523438	-0.530931	0.732101
H173	H	0.982921	-0.960186	0.172911
H174	H	1.482921	-0.460186	0.672911
H175	H	0.931625	-0.988111	0.263456
H176	H	1.431625	-0.488111	0.763456
H177	H	1.043334	-0.712070	0.287053
H178	H	1.543334	-0.212070	0.787053
H179	H	1.225551	-1.067595	0.469419
H180	H	1.725551	-0.567595	0.969419
O181	O	1.233479	-0.240590	0.671527
O182	O	1.733479	0.259410	1.171527
C183	C	1.277831	-0.202388	0.725306
C184	C	1.777831	0.297612	1.225306
H185	H	1.245689	-0.200030	0.783738
H186	H	1.745689	0.299970	1.283738
H187	H	1.286234	-0.149064	0.701637
H188	H	1.786234	0.350936	1.201637
H189	H	1.337435	-0.227175	0.734029
H190	H	1.837435	0.272825	1.234029
H191	H	1.043286	-0.404496	0.677773
H192	H	1.543286	0.095504	1.177773
O193	O	0.589032	-0.411530	0.477077
O194	O	1.089032	0.088470	0.977077
C195	C	0.535281	-0.449803	0.521301
C196	C	1.035281	0.050197	1.021301
H197	H	0.476856	-0.422088	0.524086
H198	H	0.976856	0.077912	1.024086
H199	H	0.558995	-0.457090	0.583129
H200	H	1.058995	0.042910	1.083129
H201	H	0.526527	-0.501177	0.492449
H202	H	1.026527	-0.001177	0.992449
H203	H	1.043274	-0.583824	0.287029
H204	H	1.543274	-0.083824	0.787029
H205	H	0.835552	-0.404688	0.469101
H206	H	1.335552	0.095312	0.969101
O207	O	1.035466	-0.411361	0.832851
O208	O	1.535466	0.088639	1.332851
C209	C	1.052587	-0.478827	0.812816
C210	C	1.552587	0.021173	1.312816
H211	H	1.082751	-0.480245	0.753298
H212	H	1.582751	0.019755	1.253298
H213	H	0.995915	-0.509173	0.809994
H214	H	1.495915	-0.009173	1.309994
H215	H	1.092939	-0.501616	0.858954
H216	H	1.592939	-0.001616	1.358954
H217	H	1.225607	-0.247394	0.930696
H218	H	1.725607	0.252606	1.430696
H219	H	1.225626	-0.247355	1.079424
H220	H	1.725626	0.252645	1.579424
H221	H	0.433977	-0.404706	0.469150
H222	H	0.933977	0.095294	0.969150
O223	O	0.680297	-0.411534	0.476880
O224	O	1.180297	0.088466	0.976880
C225	C	0.632850	-0.455209	0.432096
C226	C	1.132850	0.044791	0.932096
H227	H	0.620558	-0.431267	0.372661
H228	H	1.120558	0.068733	0.872661
H229	H	0.575210	-0.464317	0.464054
H230	H	1.075210	0.035683	0.964054
H231	H	0.664413	-0.505358	0.423360
H232	H	1.164413	-0.005358	0.923360
O233	O	1.035397	-0.411226	1.085673
O234	O	1.535397	0.088774	1.585673
C235	C	0.991060	-0.449450	1.031902
C236	C	1.491060	0.050550	1.531902
H237	H	0.988349	-0.421742	0.973471
H238	H	1.488349	0.078258	1.473471
H239	H	0.929213	-0.456655	1.055581
H240	H	1.429213	0.043345	1.555581
H241	H	1.019765	-0.500863	1.023174
H242	H	1.519765	-0.000863	1.523174
H243	H	0.433968	-0.247428	0.287326
H244	H	0.933968	0.252572	0.787326
O245	O	0.680500	-0.240544	0.279392
O246	O	1.180500	0.259456	0.779392
C247	C	0.734258	-0.202299	0.235145
C248	C	1.234258	0.297701	0.735145
H249	H	0.792709	-0.199985	0.267298
H250	H	1.292709	0.300015	0.767298
H251	H	0.710592	-0.148963	0.226882
H252	H	1.210592	0.351037	0.726882
H253	H	0.742941	-0.227020	0.175476
H254	H	1.242941	0.272980	0.675476
H255	H	1.043322	-0.404435	0.930623
H256	H	1.543322	0.095565	1.430623
H257	H	1.225342	-0.583590	0.469344
H258	H	1.725342	-0.083590	0.969344
