data_functionalizedCrystal
_audit_creation_method	'MofGen! by Chris Wilmer'
_symmetry_space_group_name_H-M	'P1'
_symmetry_Int_Tables_number	1
_symmetry_cell_setting	triclinic
loop_
_symmetry_equiv_pos_as_xyz
  x,y,z
_cell_length_a	15.944551
_cell_length_b	15.944551
_cell_length_c	14.421503
_cell_angle_alpha	90.000609
_cell_angle_beta	90.011571
_cell_angle_gamma	83.498738
loop_
_atom_site_label
_atom_site_type_symbol
_atom_site_fract_x
_atom_site_fract_y
_atom_site_fract_z
O1	O	-1.114511	-0.108326	0.077017
O2	O	-0.869961	-0.121682	0.077040
O3	O	-0.998914	0.007271	0.077020
O4	O	-0.985558	-0.237279	0.077038
O5	O	-0.998930	0.007262	-0.077204
O6	O	-0.869977	-0.121690	-0.077183
O7	O	-1.114526	-0.108334	-0.077206
Cu8	Cu	-0.992253	-0.115013	-0.091277
Cu9	Cu	-0.992235	-0.115003	0.091110
O10	O	-0.985574	-0.237287	-0.077186
C11	C	-0.838675	-0.121132	-0.000069
C12	C	-0.745429	-0.119470	-0.000060
C13	C	-0.998367	0.038561	-0.000092
C14	C	-0.996705	0.131807	-0.000093
C15	C	-1.145813	-0.108885	-0.000096
C16	C	-1.239059	-0.110547	-0.000098
C17	C	-0.530572	-0.035565	-0.000084
C18	C	-0.469544	-0.074523	0.075959
C19	C	-0.574703	-0.116462	-0.000071
C20	C	-0.469582	-0.074551	-0.076093
C21	C	-0.409790	-0.113551	-0.000086
C22	C	-0.514903	-0.155443	0.076035
C23	C	-0.514947	-0.155459	-0.076086
C24	C	-0.453937	-0.194476	-0.000024
C25	C	-0.669705	-0.118137	-0.000062
C26	C	-0.314789	-0.111883	-0.000089
C27	C	-0.986120	-0.268577	-0.000072
C28	C	-0.987782	-0.361823	-0.000066
N29	N	-0.992272	-0.115020	-0.219558
C30	C	-0.912801	0.346663	-0.000072
C31	C	-0.951771	0.407676	-0.076117
C32	C	-0.993698	0.302533	-0.000085
C33	C	-0.951775	0.407668	0.075935
C34	C	-0.990787	0.467445	-0.000074
C35	C	-1.032690	0.362317	-0.076193
C36	C	-1.032682	0.362303	0.075927
C37	C	-1.071711	0.423298	-0.000136
C38	C	-0.995372	0.207530	-0.000092
C39	C	-0.989119	0.562446	-0.000073
C40	C	-1.051913	-0.055379	-0.469196
C41	C	-0.976013	-0.039061	-0.530987
C42	C	-0.992253	-0.115009	-0.408719
C43	C	-1.068135	-0.131278	-0.531022
C44	C	-0.992242	-0.114998	-0.591441
C45	C	-0.916316	-0.098655	-0.469149
C46	C	-1.008487	-0.190904	-0.469179
C47	C	-0.932533	-0.174619	-0.530942
C48	C	-0.992261	-0.115014	-0.303458
C49	C	-0.992226	-0.114994	-0.696700
N50	N	-0.992222	-0.114990	0.219392
H51	H	-0.449428	-0.040304	0.140243
N52	N	-1.026724	-0.275893	-0.433172
H53	H	-0.977504	-0.301615	-0.394623
H54	H	-1.035577	-0.314265	-0.487163
N55	N	-1.160729	0.467232	-0.000190
H56	H	-1.202092	0.423715	-0.000764
H57	H	-1.169614	0.504089	-0.057095
N58	N	-1.153142	-0.149511	-0.567024
H59	H	-1.191909	-0.157250	-0.513076
H60	H	-1.146018	-0.202719	-0.605579
H61	H	-0.420779	-0.261683	0.000023
N62	N	-1.118669	0.011454	-0.433277
H63	H	-1.118561	0.010620	-0.363249
H64	H	-1.175848	-0.000288	-0.456818
N65	N	-0.541357	-0.200715	0.161298
H66	H	-0.512738	-0.260558	0.161569
H67	H	-0.604607	-0.201470	0.160747
H68	H	-0.563905	0.031573	0.000005
H69	H	-0.882021	-0.225045	-0.557882
N70	N	-0.541597	-0.200773	-0.161237
H71	H	-0.525293	-0.170170	-0.218651
H72	H	-0.604775	-0.202046	-0.160215
H73	H	-0.449503	-0.040323	-0.140379
H74	H	-0.845652	0.313356	-0.000141
H75	H	-0.917561	0.427781	-0.140401
H76	H	-1.066863	0.342176	0.140214
H77	H	-1.066884	0.342324	-0.140554
N78	N	-0.906430	0.434290	0.161089
H79	H	-0.846413	0.406124	0.161023
H80	H	-0.936435	0.416980	0.218474
H81	H	-0.852124	-0.084817	-0.442086
N82	N	-0.957806	0.045956	-0.566958
H83	H	-1.002906	0.090959	-0.544505
H84	H	-0.957374	0.045079	-0.636982
