data_functionalizedCrystal
_audit_creation_method	'MofGen! by Chris Wilmer'
_symmetry_space_group_name_H-M	'P1'
_symmetry_Int_Tables_number	1
_symmetry_cell_setting	triclinic
loop_
_symmetry_equiv_pos_as_xyz
  x,y,z
_cell_length_a	31.640172
_cell_length_b	21.606444
_cell_length_c	21.606444
_cell_angle_alpha	60.003871
_cell_angle_beta	59.997094
_cell_angle_gamma	90.005175
loop_
_atom_site_label
_atom_site_type_symbol
_atom_site_fract_x
_atom_site_fract_y
_atom_site_fract_z
Zr1	Zr	0.407177	-0.081118	0.677369
O2	O	0.339687	-0.179949	0.806495
O3	O	0.427867	-0.050824	0.548248
O4	O	0.427866	-0.179936	0.677361
O5	O	0.339687	0.051013	0.677387
O6	O	0.497424	-0.179923	0.677348
O7	O	0.339687	-0.050837	0.677383
O8	O	0.497425	0.051036	0.446389
O9	O	0.339686	-0.179946	0.908346
O10	O	0.488600	-0.037890	0.601346
O11	O	0.436691	0.038109	0.601358
O12	O	0.436690	-0.113904	0.753372
O13	O	0.384780	-0.037905	0.753385
Zr14	Zr	0.518112	0.081342	0.677355
Zr15	Zr	0.518113	-0.081096	0.677348
Zr16	Zr	0.407177	0.081321	0.677376
Zr17	Zr	0.407176	-0.081113	0.839809
Zr18	Zr	0.518114	0.081337	0.514915
O19	O	0.497422	0.051048	0.806476
O20	O	0.497423	-0.179919	0.806466
O21	O	0.339686	0.051017	0.806505
O22	O	0.585603	0.180174	0.548229
O23	O	0.585603	-0.050793	0.548219
O24	O	0.427867	0.180143	0.548258
O25	O	0.585602	-0.050789	0.677337
O26	O	0.497423	0.180161	0.677363
O27	O	0.427866	0.180147	0.677376
O28	O	0.585602	0.051061	0.677342
O29	O	0.427865	-0.179929	0.908330
O30	O	0.497425	0.180153	0.446394
O31	O	0.585604	0.180171	0.446378
O32	O	0.585604	0.051054	0.446373
O33	O	0.339686	-0.050829	0.908352
O34	O	0.427865	-0.050812	0.908336
O35	O	0.488600	0.114129	0.601352
O36	O	0.540510	0.038130	0.601339
O37	O	0.488599	-0.037885	0.753366
O38	O	0.436689	0.038114	0.753379
C39	C	0.323881	0.000085	0.677388
C40	C	0.276786	0.000076	0.677396
C41	C	0.462646	0.000106	0.474174
C42	C	0.462647	0.000103	0.405214
C43	C	0.462645	0.203298	0.677371
C44	C	0.462645	0.272258	0.677374
C45	C	0.011877	0.039806	0.597998
C46	C	-0.165108	0.039821	0.597982
O47	O	-0.164949	0.073594	0.530492
N48	N	-0.214334	0.000142	0.677338
C49	C	-0.219314	-0.039541	0.756703
O50	O	-0.265245	-0.073284	0.824200
C51	C	-0.042329	-0.039551	0.756718
C52	C	0.006897	0.000125	0.677357
C53	C	0.061101	0.079480	0.518643
C54	C	0.105344	0.079472	0.518648
C55	C	0.100364	0.039791	0.598007
C56	C	0.051140	0.000118	0.677361
C57	C	-0.047309	-0.079228	0.836082
C58	C	-0.003058	-0.079226	0.836078
C59	C	0.046168	-0.039550	0.756717
C60	C	0.090403	-0.039571	0.756725
N61	N	0.139629	0.000109	0.677369
C62	C	0.144610	0.039790	0.598010
C63	C	-0.312231	-0.039534	0.756690
C64	C	-0.356477	-0.039533	0.756687
C65	C	-0.302268	0.039831	0.597966
C66	C	-0.258022	0.039825	0.597970
C67	C	-0.263005	0.000146	0.677335
C68	C	0.237522	0.039771	0.598026
C69	C	0.281767	0.039757	0.598037
C70	C	0.227554	-0.039603	0.756758
C71	C	0.183313	-0.039593	0.756747
C72	C	0.188300	0.000100	0.677374
O73	O	0.090283	-0.073319	0.824180
O74	O	0.190545	0.073542	0.530524
C75	C	-0.032366	0.039814	0.597993
C76	C	-0.081590	0.000140	0.677347
C77	C	-0.086570	-0.039541	0.756706
C78	C	-0.125836	0.000142	0.677344
C79	C	-0.120855	0.039823	0.597985
C80	C	-0.071629	0.079502	0.518629
C81	C	-0.027386	0.079495	0.518634
C82	C	-0.135797	-0.079221	0.836062
C83	C	-0.180038	-0.079211	0.836051
C84	C	-0.175058	-0.039529	0.756692
C85	C	0.601408	0.000139	0.677337
C86	C	0.648503	0.000149	0.677328
C87	C	0.462645	-0.203074	0.677353
C88	C	0.462645	-0.272033	0.677350
C89	C	0.435549	0.264978	0.756730
C90	C	0.435546	0.329775	0.756727
C91	C	0.462643	0.401851	0.677368
C92	C	0.489740	0.409129	0.598006
C93	C	0.489739	0.344333	0.598010
C94	C	0.489744	0.670448	0.597991
C95	C	0.489744	0.735246	0.597994
C96	C	0.435551	0.655890	0.756709
C97	C	0.435550	0.591094	0.756712
C98	C	0.462645	0.598377	0.677351
C99	C	0.462646	0.528116	0.677354
C100	C	0.462645	0.472112	0.677364
C101	C	0.489742	-0.039568	0.372810
C102	C	0.489744	-0.039563	0.308010
C103	C	0.462647	0.000110	0.275620
C104	C	0.435551	0.039786	0.308027
C105	C	0.435553	0.039785	0.372821
C106	C	0.435545	0.039793	0.046717
C107	C	0.435544	0.039789	-0.018080
C108	C	0.489736	-0.039556	-0.018094
C109	C	0.489738	-0.039557	0.046700
C110	C	0.462644	0.000123	0.079098
C111	C	0.462643	0.000118	0.149361
C112	C	0.462645	0.000111	0.205363
C113	C	0.462643	0.000119	0.880550
C114	C	0.462643	0.000121	0.949510
C115	C	0.601410	0.000133	0.474149
C116	C	0.648505	0.000140	0.405180
C117	C	0.462646	0.203292	0.474183
C118	C	0.462647	0.272249	0.405226
C119	C	0.601409	0.203319	0.474157
C120	C	0.648505	0.272285	0.405191
C121	C	0.323880	-0.203094	0.880567
C122	C	0.276785	-0.272060	0.949533
C123	C	0.323880	0.000092	0.880576
C124	C	0.276785	0.000085	0.949545
C125	C	0.462644	-0.203067	0.880541
C126	C	0.462643	-0.272024	0.949499
C127	C	0.643525	-0.039545	0.372794
C128	C	0.687772	-0.039554	0.308000
C129	C	0.736999	0.000127	0.275587
C130	C	0.741977	0.039813	0.307979
C131	C	0.697731	0.039817	0.372777
C132	C	0.489743	0.344320	0.372839
C133	C	0.489741	0.409119	0.308056
C134	C	0.462646	0.401845	0.275655
C135	C	0.435546	0.329766	0.308048
C136	C	0.435545	0.264969	0.372835
C137	C	0.697722	0.265002	0.372798
C138	C	0.741978	0.329797	0.308006
C139	C	0.737015	0.401874	0.275605
C140	C	0.687792	0.409156	0.308005
C141	C	0.643538	0.344362	0.372800
C142	C	0.227567	-0.264777	0.981935
C143	C	0.183312	-0.329572	1.046746
C144	C	0.188275	-0.401650	1.079151
C145	C	0.237498	-0.408932	1.046747
C146	C	0.281752	-0.344137	0.981940
C147	C	0.281764	0.039763	0.981937
C148	C	0.237517	0.039754	1.046749
C149	C	0.188291	0.000070	1.079164
C150	C	0.183312	-0.039613	1.046769
C151	C	0.227559	-0.039607	0.981962
C152	C	0.489744	-0.264726	0.981879
C153	C	0.489753	-0.329512	1.046663
C154	C	0.462659	-0.401596	1.079070
C155	C	0.435558	-0.408893	1.046684
C156	C	0.435551	-0.344107	0.981896
H157	H	0.321849	0.072069	0.533409
H158	H	0.701773	0.206318	0.399169
H159	H	0.413491	0.072093	0.281645
H160	H	0.511807	-0.071867	0.281626
H161	H	0.701793	0.072138	0.399136
F162	F	0.784086	0.000117	0.206622
F163	F	0.141171	-0.470604	1.148124
F164	F	0.406715	0.082011	0.407306
F165	F	0.242827	0.081994	1.081212
F166	F	0.406720	-0.485617	1.081188
H167	H	0.683708	-0.071871	0.281635
H168	H	0.413488	0.649966	0.821328
F169	F	0.518580	0.678208	0.513528
H170	H	0.145423	0.111778	0.454024
F171	F	0.518585	0.811958	0.513525
F172	F	0.518585	0.352079	0.407308
H173	H	0.462651	0.454613	0.222902
F174	F	0.222273	-0.188072	0.947457
H175	H	0.511805	-0.071879	0.399181
H176	H	0.413481	-0.350061	0.955540
F177	F	0.591139	-0.081785	0.407281
F178	F	0.518577	0.352083	0.513548
H179	H	0.152267	0.000072	1.131934
H180	H	0.413486	0.323854	0.281658
H181	H	0.511800	-0.071865	0.073073
F182	F	0.518574	-0.081784	-0.052582
F183	F	0.334150	0.082001	0.947452
F184	F	0.794372	0.082044	0.273472
F185	F	0.406703	0.082017	-0.052551
F186	F	0.242772	-0.485649	1.081241
F187	F	0.406706	0.188267	0.407292
H188	H	0.413486	0.072106	0.073085
H189	H	0.241591	0.072093	0.533393
F190	F	0.518576	0.485840	0.513546
H191	H	0.782053	0.323854	0.281632
H192	H	-0.087384	-0.111536	0.900706
F193	F	0.784119	0.470829	0.206643
H194	H	0.511811	0.467802	0.281689
H195	H	0.065165	0.111797	0.454016
H196	H	0.511807	-0.206037	0.955503
F197	F	0.682518	0.485873	0.273512
H198	H	0.012693	0.111805	0.454010
H199	H	0.603464	0.350303	0.399167
F200	F	0.130931	-0.321806	1.081220
H201	H	0.511822	-0.323556	1.073025
H202	H	0.321826	-0.350077	0.955560
F203	F	-0.205634	0.082054	0.513504
H204	H	0.143230	-0.071910	0.821369
H205	H	0.143226	-0.071922	1.073171
F206	F	0.222251	-0.081836	0.947491
H207	H	-0.298219	0.072136	0.533348
F208	F	-0.408864	-0.081772	0.841154
H209	H	-0.316297	-0.071850	0.821322
F210	F	0.222263	-0.081823	0.841213
F211	F	-0.008367	-0.121457	0.920552
F212	F	-0.232427	-0.121445	0.920524
F213	F	-0.066336	0.121731	0.434170
F214	F	0.406711	0.188272	0.841196
F215	F	-0.141107	-0.121457	0.920532
F216	F	0.406712	0.514386	0.841176
F217	F	0.406692	0.322023	0.841188
F218	F	0.462670	-0.470541	1.148025
