data_functionalizedCrystal
_audit_creation_method	'MofGen! by Chris Wilmer'
_symmetry_space_group_name_H-M	'P1'
_symmetry_Int_Tables_number	1
_symmetry_cell_setting	triclinic
loop_
_symmetry_equiv_pos_as_xyz
  x,y,z
_cell_length_a	26.809956
_cell_length_b	14.519709
_cell_length_c	14.519709
_cell_angle_alpha	83.680145
_cell_angle_beta	90.003406
_cell_angle_gamma	89.996771
loop_
_atom_site_label
_atom_site_type_symbol
_atom_site_fract_x
_atom_site_fract_y
_atom_site_fract_z
O1	O	0.041416	-1.223875	-0.120878
O2	O	0.041431	-0.955398	-0.135115
O3	O	0.041419	-1.096755	0.006242
O4	O	0.041428	-1.082518	-0.262235
O5	O	-0.041541	-1.096728	0.006220
O6	O	-0.041528	-0.955371	-0.135136
O7	O	-0.041544	-1.223848	-0.120900
Zn8	Zn	-0.054707	-1.089605	-0.128021
Zn9	Zn	0.054595	-1.089641	-0.127993
O10	O	-0.041531	-1.082491	-0.262257
C11	C	-0.000047	-0.921025	-0.134462
C12	C	-0.000041	-0.818643	-0.132474
C13	C	-0.000061	-1.096078	0.040591
C14	C	-0.000061	-1.094089	0.142972
N15	N	-0.129303	-1.089588	-0.128040
C16	C	-0.473935	-1.152225	-0.065416
C17	C	-0.682813	-1.152247	-0.065402
O18	O	-0.709821	-1.205466	-0.012162
N19	N	-0.708930	-1.089645	-0.127973
C20	C	-0.682826	-1.027030	-0.190548
O21	O	-0.709833	-0.973777	-0.243761
C22	C	-0.473949	-1.027004	-0.190556
C23	C	-0.447834	-1.089616	-0.127988
C24	C	-0.447820	-1.214831	-0.002851
C25	C	-0.395604	-1.214829	-0.002859
C26	C	-0.369502	-1.152220	-0.065431
C27	C	-0.395618	-1.089614	-0.127995
C28	C	-0.447845	-0.964385	-0.253126
C29	C	-0.395622	-0.964383	-0.253121
C30	C	-0.369507	-1.026995	-0.190553
C31	C	-0.317300	-1.027002	-0.190575
N32	N	-0.291182	-1.089604	-0.128004
C33	C	-0.317283	-1.152213	-0.065432
C34	C	-0.792489	-1.027049	-0.190540
C35	C	-0.844708	-1.027056	-0.190539
C36	C	-0.844691	-1.152273	-0.065392
C37	C	-0.792471	-1.152269	-0.065398
C38	C	-0.766371	-1.089651	-0.127969
C39	C	-0.207625	-1.152203	-0.065453
C40	C	-0.155405	-1.152197	-0.065468
C41	C	-0.155426	-1.026978	-0.190612
C42	C	-0.207642	-1.026986	-0.190600
C43	C	-0.233741	-1.089602	-0.128013
O44	O	-0.290259	-0.973804	-0.243780
O45	O	-0.290267	-1.205443	-0.012212
C46	C	-0.526151	-1.152228	-0.065408
C47	C	-0.552266	-1.089622	-0.127973
C48	C	-0.526165	-1.027013	-0.190545
C49	C	-0.604485	-1.089629	-0.127972
C50	C	-0.630587	-1.152238	-0.065400
C51	C	-0.604469	-1.214840	-0.002829
C52	C	-0.552252	-1.214837	-0.002836
C53	C	-0.552283	-0.964411	-0.253116
C54	C	-0.604499	-0.964420	-0.253104
C55	C	-0.630601	-1.027029	-0.190532
N56	N	0.129191	-1.089665	-0.127967
C57	C	-0.000065	-1.258221	-0.121553
C58	C	-0.000067	-1.360602	-0.123541
C59	C	-0.000064	-0.443748	-0.125154
C60	C	-0.000057	-0.548056	-0.127187
C61	C	-0.000052	-0.631192	-0.128814
C62	C	-0.000046	-0.735507	-0.130847
C63	C	-0.000050	-1.083168	-0.296606
C64	C	-0.000047	-1.085156	-0.398987
C65	C	-0.000048	-1.086770	0.517868
C66	C	-0.000052	-1.088803	0.413560
C67	C	-0.000055	-1.090430	0.330423
C68	C	-0.000058	-1.092463	0.226109
H69	H	-0.134143	-1.203186	-0.014517
H70	H	-0.469101	-0.913400	-0.304075
Br71	Br	-0.757035	-1.237245	0.019520
H72	H	-0.374374	-0.913388	-0.304073
Br73	Br	-0.119994	-0.942014	-0.275531
Br74	Br	-0.483234	-1.299810	0.082080
Br75	Br	-0.880125	-1.237241	0.019526
H76	H	-0.865967	-0.976082	-0.241498
H77	H	-0.228905	-0.976011	-0.241558
H78	H	-0.771242	-0.976056	-0.241495
H79	H	-0.530993	-1.265821	0.048113
H80	H	-0.625729	-1.265822	0.048117
Br81	Br	-0.639936	-0.879444	-0.338032
H82	H	-0.228869	-1.203189	-0.014487
Br83	Br	-0.360167	-1.299800	0.082063
Br84	Br	-0.516867	-0.879434	-0.338042
