data_functionalizedCrystal
_audit_creation_method	'MofGen! by Chris Wilmer'
_symmetry_space_group_name_H-M	'P1'
_symmetry_Int_Tables_number	1
_symmetry_cell_setting	triclinic
loop_
_symmetry_equiv_pos_as_xyz
  x,y,z
_cell_length_a	16.109301
_cell_length_b	15.995350
_cell_length_c	14.586319
_cell_angle_alpha	89.998440
_cell_angle_beta	89.999213
_cell_angle_gamma	83.476928
loop_
_atom_site_label
_atom_site_type_symbol
_atom_site_fract_x
_atom_site_fract_y
_atom_site_fract_z
O1	O	1.103160	0.107624	-0.076178
O2	O	0.861101	0.121018	-0.076192
O3	O	0.988747	-0.007569	-0.076184
O4	O	0.975514	0.236210	-0.076186
O5	O	0.988739	-0.007570	0.076297
O6	O	0.861093	0.121016	0.076289
O7	O	1.103151	0.107622	0.076303
Cu8	Cu	0.982121	0.114319	0.090219
Cu9	Cu	0.982131	0.114321	-0.090107
O10	O	0.975505	0.236208	0.076295
C11	C	0.830122	0.120474	0.000047
C12	C	0.737826	0.118848	0.000041
C13	C	0.515573	0.191366	0.000051
C14	C	0.428853	0.189831	0.000057
C15	C	0.448686	0.037268	0.000055
C16	C	0.535405	0.038804	0.000055
C17	C	0.568846	0.115855	0.000049
C18	C	0.395406	0.112785	0.000054
C19	C	0.301380	0.111120	0.000061
C20	C	0.662879	0.117520	0.000044
C21	C	0.988196	-0.038764	0.000055
C22	C	0.986556	-0.131714	0.000050
C23	C	0.980665	-0.469460	0.000053
C24	C	0.889758	-0.422001	-0.000295
C25	C	0.891399	-0.325311	0.000049
C26	C	0.983587	-0.301900	0.000051
C27	C	1.028421	-0.342991	0.087126
C28	C	1.026137	-0.439626	0.087198
C29	C	1.028025	-0.439983	-0.086201
C30	C	1.028003	-0.343037	-0.087351
C31	C	0.985243	-0.207203	0.000053
C32	C	0.979012	-0.564157	0.000057
C33	C	1.134130	0.108166	0.000062
C34	C	1.226426	0.109792	0.000062
C35	C	0.976056	0.267404	0.000054
C36	C	0.977697	0.360354	0.000053
N37	N	0.982120	0.114317	0.217050
N38	N	0.982139	0.114317	-0.216939
C39	C	1.038660	0.057398	0.452061
C40	C	1.038662	0.057396	0.548042
C41	C	0.925593	0.171238	0.548044
C42	C	0.925587	0.171236	0.452064
C43	C	0.982125	0.114316	0.404075
C44	C	0.982134	0.114317	0.596036
C45	C	0.982136	0.114315	0.700103
C46	C	0.982122	0.114317	0.300001
H47	H	0.542798	0.254106	0.000053
H48	H	0.421447	-0.025465	0.000066
O49	O	0.592874	-0.042643	0.000055
H50	H	0.555053	-0.096480	0.000047
H51	H	0.879562	0.217582	0.587126
H52	H	0.856156	-0.296879	-0.062370
O53	O	0.864608	0.232624	0.400293
H54	H	0.875201	0.297905	0.418694
H55	H	0.993437	-0.457919	0.152287
O56	O	0.371391	0.271274	0.000057
H57	H	0.409217	0.325107	0.000047
O58	O	0.984652	-0.306865	-0.172687
H59	H	0.931694	-0.259780	-0.152945
H60	H	1.092879	-0.471892	0.091150
O61	O	0.841615	-0.446544	-0.082992
H62	H	0.881961	-0.492834	-0.124731
O63	O	0.841832	-0.447924	0.081957
H64	H	0.882478	-0.494462	0.123085
H65	H	1.096149	-0.328884	0.090365
H66	H	1.095231	-0.327694	-0.092608
O67	O	0.844410	-0.288387	0.082878
H68	H	0.778769	-0.303095	0.079850
O69	O	0.987173	-0.305392	0.172964
H70	H	0.934748	-0.257453	0.153829
H71	H	0.998307	-0.460513	-0.152198
O72	O	1.116806	-0.482080	-0.086989
H73	H	1.127191	-0.523800	-0.026284
H74	H	1.084696	0.011050	0.412990
H75	H	1.084697	0.011047	0.587109
