data_functionalizedCrystal
_audit_creation_method	'MofGen! by Chris Wilmer'
_symmetry_space_group_name_H-M	'P1'
_symmetry_Int_Tables_number	1
_symmetry_cell_setting	triclinic
loop_
_symmetry_equiv_pos_as_xyz
  x,y,z
_cell_length_a	12.645331
_cell_length_b	19.121111
_cell_length_c	12.645323
_cell_angle_alpha	87.589835
_cell_angle_beta	89.984262
_cell_angle_gamma	87.530722
loop_
_atom_site_label
_atom_site_type_symbol
_atom_site_fract_x
_atom_site_fract_y
_atom_site_fract_z
Zn1	Zn	1.602644	0.279622	-0.617209
Zn2	Zn	1.594928	0.397081	-0.447493
Zn3	Zn	1.425357	0.279647	-0.439976
Zn4	Zn	1.417746	0.397036	-0.624727
O5	O	1.510169	0.338346	-0.532351
O6	O	1.749967	0.295212	-0.594695
O7	O	1.572390	0.381532	-0.298150
O8	O	1.455289	0.181359	-0.457195
O9	O	1.744298	0.381509	-0.470006
O10	O	1.585541	0.181341	-0.587407
O11	O	1.447807	0.295254	-0.292628
O12	O	1.276001	0.295210	-0.464485
O13	O	1.442317	0.381431	-0.772075
O14	O	1.270409	0.381455	-0.600220
O15	O	1.578161	0.295168	-0.766552
O16	O	1.565010	0.495359	-0.477295
O17	O	1.434835	0.495326	-0.607508
C18	C	1.234740	0.338330	-0.532353
C19	C	1.116909	0.338341	-0.532380
C20	C	0.945844	0.392895	-0.617363
C21	C	1.068415	0.392719	-0.617693
C22	C	1.077216	0.264366	-0.558150
C23	C	0.954597	0.264699	-0.558746
C24	C	0.948446	0.357165	-0.421330
C25	C	1.070947	0.358783	-0.422039
C26	C	1.498288	0.520827	-0.544057
C27	C	1.493302	0.598893	-0.549099
C28	C	1.558788	0.635562	-0.483730
C29	C	1.554105	0.708913	-0.488479
C30	C	1.483931	0.745594	-0.558593
C31	C	1.418442	0.708919	-0.623970
C32	C	1.423131	0.635569	-0.619225
C33	C	1.466385	0.967063	-0.576312
C34	C	1.461699	1.040418	-0.581050
C35	C	1.597364	1.040407	-0.445560
C36	C	1.602042	0.967056	-0.440817
C37	C	1.536557	0.930388	-0.506197
C38	C	1.479140	0.820570	-0.563447
C39	C	1.541354	0.855412	-0.501348
C40	C	1.786673	0.338363	-0.532350
C41	C	1.904503	0.338370	-0.532350
C42	C	1.510250	0.338292	-0.808853
C43	C	1.510285	0.338269	-0.926682
C44	C	1.522116	1.155153	-0.520637
C45	C	1.527185	1.077088	-0.515680
C46	C	1.424589	0.392281	-1.097704
C47	C	1.424787	0.392549	-0.975162
C48	C	1.620686	0.358357	-0.972478
C49	C	1.620213	0.358696	-1.095099
C50	C	1.486657	0.263867	-1.089105
C51	C	1.484135	0.264313	-0.966527
C52	C	1.510152	0.338350	-0.256922
C53	C	1.510335	0.338175	-0.139081
H54	H	1.096509	0.413218	-0.402516
Br55	Br	1.355235	0.233348	-1.138665
Br56	Br	1.125939	0.297390	-0.311436
Br57	Br	1.590846	0.196679	-1.133130
H58	H	1.440029	0.447637	-0.949383
H59	H	0.921998	0.317449	-0.358046
Br60	Br	1.654020	0.585789	-0.388560
Br61	Br	1.636595	0.805631	-0.406203
H62	H	1.402914	0.249163	-0.936465
H63	H	0.914095	0.410188	-0.396993
H64	H	1.542409	0.221869	-0.933173
Br65	Br	1.697296	0.917281	-0.345672
Br66	Br	1.686235	1.090175	-0.356839
H67	H	1.439670	0.447025	-1.132037
Br68	Br	1.366438	1.090198	-0.676193
H69	H	0.915847	0.380617	-0.699247
H70	H	1.342771	0.379978	-0.944262
Br71	Br	1.377513	0.917308	-0.665044
Br72	Br	1.112629	0.484157	-0.591731
H73	H	1.422002	0.850444	-0.620532
Br74	Br	1.654599	0.449233	-1.148601
H75	H	1.369807	0.605713	-0.672458
Br76	Br	1.287459	0.371529	-1.145498
H77	H	0.912792	0.447933	-0.601981
H78	H	1.361309	0.738790	-0.681063
Br79	Br	1.118683	0.371988	-0.754961
H80	H	1.686009	0.320998	-1.122348
Br81	Br	1.729681	0.294752	-0.919828
Br82	Br	0.908682	0.238128	-0.693782
H83	H	1.607430	0.738766	-0.435247
H84	H	0.927638	0.222618	-0.499396
Br85	Br	1.130172	0.237306	-0.691675
Br86	Br	1.130270	0.194810	-0.457828
Br87	Br	1.655830	0.447946	-0.927081
