data_functionalizedCrystal
_audit_creation_method	'MofGen! by Chris Wilmer'
_symmetry_space_group_name_H-M	'P1'
_symmetry_Int_Tables_number	1
_symmetry_cell_setting	triclinic
loop_
_symmetry_equiv_pos_as_xyz
  x,y,z
_cell_length_a	17.038272
_cell_length_b	17.019294
_cell_length_c	15.186229
_cell_angle_alpha	86.117288
_cell_angle_beta	90.002277
_cell_angle_gamma	87.244363
loop_
_atom_site_label
_atom_site_type_symbol
_atom_site_fract_x
_atom_site_fract_y
_atom_site_fract_z
O1	O	1.037219	0.171285	-0.086105
O2	O	0.809591	0.168566	-0.085924
O3	O	0.929755	0.055519	-0.077334
O4	O	0.917055	0.284332	-0.094695
O5	O	0.929747	0.055517	0.069123
O6	O	0.809583	0.168563	0.060533
O7	O	1.037211	0.171283	0.060353
Zn8	Zn	0.923396	0.169923	0.083696
Zn9	Zn	0.923406	0.169926	-0.109268
O10	O	0.917047	0.284330	0.051763
C11	C	0.780460	0.166091	-0.012511
C12	C	0.693674	0.158710	-0.011962
C13	C	0.643502	0.226471	-0.017102
C14	C	0.561957	0.219531	-0.016563
C15	C	0.530586	0.144831	-0.010891
C16	C	0.580765	0.077066	-0.005747
C17	C	0.662308	0.084006	-0.006280
C18	C	0.284849	0.120313	-0.009007
C19	C	0.203300	0.113378	-0.008477
C20	C	0.184498	0.255844	-0.019292
C21	C	0.266043	0.262778	-0.019829
C22	C	0.316215	0.195013	-0.014681
C23	C	0.447235	0.137736	-0.010343
C24	C	0.399564	0.202108	-0.015223
C25	C	0.929269	0.026096	-0.001875
C26	C	0.927825	-0.061571	0.004770
C27	C	0.927152	-0.102751	-0.071942
C28	C	0.925790	-0.185124	-0.065695
C29	C	0.925106	-0.226315	0.017264
C30	C	0.925776	-0.185128	0.093981
C31	C	0.927133	-0.102757	0.087733
C32	C	0.921004	-0.475023	0.040121
C33	C	0.919649	-0.557400	0.046362
C34	C	0.919662	-0.557390	-0.113314
C35	C	0.921023	-0.475017	-0.119554
C36	C	0.921689	-0.433838	-0.042837
C37	C	0.923716	-0.310513	0.023651
C38	C	0.923074	-0.349641	-0.049225
C39	C	1.066341	0.173758	-0.013062
C40	C	1.153128	0.181138	-0.013618
C41	C	0.917532	0.313752	-0.023698
C42	C	0.918977	0.401420	-0.030349
N43	N	0.923394	0.169921	0.215389
N44	N	0.923414	0.169922	-0.240960
C45	C	0.976621	0.119883	0.444914
C46	C	0.976623	0.119881	0.537104
C47	C	0.870181	0.219962	0.529508
C48	C	0.870176	0.219959	0.437320
C49	C	0.923400	0.169921	0.395026
C50	C	0.923408	0.169922	0.579403
C51	C	0.923410	0.169921	0.679359
C52	C	0.923397	0.169921	0.295063
H53	H	0.291579	0.323607	-0.024459
H54	H	0.421684	0.076915	-0.005699
N55	N	0.927897	-0.058327	-0.161420
H56	H	0.927263	-0.096917	-0.209067
H57	H	0.880020	-0.021007	-0.167735
H58	H	0.826833	0.260706	0.396698
N59	N	0.169462	0.032805	-0.002364
H60	H	0.213618	-0.009072	0.000817
H61	H	0.136038	0.026826	0.052382
H62	H	0.143640	0.311015	-0.023481
H63	H	0.919088	-0.590935	0.113921
N64	N	1.034038	0.065923	0.590909
H65	H	1.025110	0.009328	0.579162
H66	H	1.089479	0.078843	0.573855
N67	N	0.507809	0.292592	-0.022092
H68	H	0.473576	0.292857	0.032191
H69	H	0.540077	0.340949	-0.025798
N70	N	0.925177	-0.229548	-0.148433
H71	H	0.925859	-0.190958	-0.201934
H72	H	0.973093	-0.266825	-0.148985
N73	N	0.812778	0.273930	0.575126
H74	H	0.820857	0.266342	0.641097
H75	H	0.821743	0.330498	0.554716
N76	N	0.338956	0.047227	-0.003449
H77	H	0.306707	-0.001146	0.000224
H78	H	0.373199	0.046996	-0.057723
H79	H	0.923161	-0.344060	0.091196
N80	N	0.921733	-0.430618	0.122865
H81	H	0.970735	-0.399584	0.124074
H82	H	0.873822	-0.393344	0.123544
H83	H	0.555216	0.016243	-0.001116
H84	H	0.703158	0.028828	-0.002094
N85	N	0.433403	0.282672	-0.021347
H86	H	0.415100	0.312602	-0.077913
H87	H	0.415103	0.312551	0.030711
H88	H	0.921582	-0.441485	-0.187108
H89	H	0.669037	0.287300	-0.021722
N90	N	0.918944	-0.601804	-0.196055
H91	H	0.869943	-0.632837	-0.197274
H92	H	0.919615	-0.563160	-0.249507
H93	H	1.019958	0.079138	0.410480
N94	N	0.925044	-0.229553	0.183459
H95	H	0.973719	-0.218355	0.217514
H96	H	0.876807	-0.212059	0.216962
H97	H	0.927669	-0.069228	0.150200
H98	H	0.923626	-0.316099	-0.116770
