data_functionalizedCrystal
_audit_creation_method	'MofGen! by Chris Wilmer'
_symmetry_space_group_name_H-M	'P1'
_symmetry_Int_Tables_number	1
_symmetry_cell_setting	triclinic
loop_
_symmetry_equiv_pos_as_xyz
  x,y,z
_cell_length_a	14.519709
_cell_length_b	16.109301
_cell_length_c	14.586319
_cell_angle_alpha	90.002176
_cell_angle_beta	90.006913
_cell_angle_gamma	96.429187
loop_
_atom_site_label
_atom_site_type_symbol
_atom_site_fract_x
_atom_site_fract_y
_atom_site_fract_z
O1	O	0.118543	-1.103332	0.076184
O2	O	0.451877	-0.769999	0.409518
O3	O	0.785210	-0.436665	0.742851
O4	O	0.133295	-0.861296	0.076199
O5	O	0.466629	-0.527962	0.409532
O6	O	0.799962	-0.194629	0.742866
O7	O	-0.008333	-0.988731	0.076183
O8	O	0.325001	-0.655398	0.409516
O9	O	0.658334	-0.322064	0.742850
O10	O	0.260171	-0.975897	0.076200
O11	O	0.593505	-0.642563	0.409534
O12	O	0.926838	-0.309230	0.742867
O13	O	-0.008342	-0.988730	-0.076298
O14	O	0.324992	-0.655397	0.257036
O15	O	0.658325	-0.322063	0.590369
O16	O	0.133287	-0.861295	-0.076282
O17	O	0.466620	-0.527961	0.257052
O18	O	0.799953	-0.194628	0.590385
O19	O	0.118534	-1.103331	-0.076296
O20	O	0.451868	-0.769998	0.257037
O21	O	0.785201	-0.436664	0.590370
Cu22	Cu	0.125910	-0.982313	-0.090212
Cu23	Cu	0.459243	-0.648979	0.243122
Cu24	Cu	0.792576	-0.315646	0.576455
Cu25	Cu	0.125920	-0.982314	0.090114
Cu26	Cu	0.459253	-0.648981	0.423448
Cu27	Cu	0.792587	-0.315647	0.756781
O28	O	0.260163	-0.975896	-0.076280
O29	O	0.593496	-0.642562	0.257053
O30	O	0.926829	-0.309229	0.590386
C31	C	0.132693	-0.830319	-0.000039
C32	C	0.466027	-0.496986	0.333294
C33	C	0.799360	-0.163653	0.666627
C34	C	0.130902	-0.738021	-0.000034
C35	C	0.464235	-0.404687	0.333299
C36	C	0.797569	-0.071354	0.666633
C37	C	-0.042696	-0.988132	-0.000057
C38	C	0.290638	-0.654799	0.333276
C39	C	0.623971	-0.321466	0.666609
C40	C	-0.145073	-0.986340	-0.000058
C41	C	0.188260	-0.653007	0.333276
C42	C	0.521594	-0.319673	0.666609
N43	N	0.125921	-0.982315	0.216946
N44	N	0.459254	-0.648982	0.550280
N45	N	0.792587	-0.315649	0.883613
C46	C	-0.519955	-0.979741	-0.000034
C47	C	-0.186622	-0.646408	0.333300
C48	C	0.146712	-0.313075	0.666633
C49	C	-0.415651	-0.981574	-0.000041
C50	C	-0.082318	-0.648241	0.333293
C51	C	0.251016	-0.314907	0.666626
C52	C	-0.332517	-0.983041	-0.000047
C53	C	0.000816	-0.649707	0.333287
C54	C	0.334149	-0.316374	0.666620
C55	C	-0.228207	-0.984873	-0.000052
C56	C	0.105127	-0.651540	0.333281
C57	C	0.438460	-0.318207	0.666615
C58	C	0.294526	-0.976494	-0.000038
C59	C	0.627859	-0.643161	0.333295
C60	C	0.961192	-0.309828	0.666629
C61	C	0.396903	-0.978287	-0.000031
C62	C	0.730236	-0.644953	0.333302
C63	C	1.063570	-0.311620	0.666635
C64	C	0.119136	-1.134307	-0.000056
C65	C	0.452470	-0.800974	0.333277
C66	C	0.785803	-0.467641	0.666611
C67	C	0.120928	-1.226606	-0.000055
C68	C	0.454261	-0.893273	0.333278
C69	C	0.787595	-0.559939	0.666611
C70	C	0.210775	-0.515887	-0.000040
C71	C	0.544109	-0.182553	0.333294
C72	C	0.877442	0.150780	0.666627
C73	C	0.209085	-0.429163	-0.000046
C74	C	0.542418	-0.095830	0.333288
C75	C	0.875752	0.237503	0.666621
C76	C	0.041048	-0.448747	-0.000053
C77	C	0.374381	-0.115414	0.333281
C78	C	0.707715	0.217920	0.666614
C79	C	0.042739	-0.535468	-0.000053
C80	C	0.376073	-0.202135	0.333280
C81	C	0.709406	0.131198	0.666614
C82	C	0.127606	-0.569036	-0.000042
C83	C	0.460939	-0.235703	0.333291
C84	C	0.794273	0.097631	0.666625
C85	C	0.124224	-0.395591	-0.000047
C86	C	0.457557	-0.062258	0.333286
C87	C	0.790891	0.271076	0.666619
C88	C	0.122390	-0.301562	-0.000054
C89	C	0.455724	0.031772	0.333279
C90	C	0.789057	0.365105	0.666613
C91	C	0.129440	-0.663071	-0.000037
C92	C	0.462773	-0.329738	0.333296
C93	C	0.796107	0.003596	0.666630
N94	N	0.125902	-0.982318	-0.217044
N95	N	0.459235	-0.648985	0.116290
N96	N	0.792568	-0.315651	0.449623
C97	C	0.063329	-1.038853	0.451946
C98	C	0.396663	-0.705520	0.785279
C99	C	0.729996	-0.372186	1.118612
C100	C	0.063327	-1.038856	0.547927
C101	C	0.396661	-0.705522	0.881260
C102	C	0.729994	-0.372189	1.214593
C103	C	0.188500	-0.925777	0.547950
C104	C	0.521833	-0.592444	0.881284
C105	C	0.855166	-0.259111	1.214617
C106	C	0.188506	-0.925780	0.451971
C107	C	0.521839	-0.592446	0.785304
C108	C	0.855172	-0.259113	1.118638
C109	C	0.125915	-0.982317	0.403971
C110	C	0.459249	-0.648983	0.737304
C111	C	0.792582	-0.315650	1.070638
C112	C	0.125907	-0.982317	0.595932
C113	C	0.459241	-0.648983	0.929265
C114	C	0.792574	-0.315650	1.262598
C115	C	0.125905	-0.982319	0.699999
C116	C	0.459239	-0.648986	1.033332
C117	C	0.792572	-0.315652	1.366666
C118	C	0.125918	-0.982316	0.299897
C119	C	0.459251	-0.648982	0.633231
C120	C	0.792585	-0.315649	0.966564
H121	H	0.279879	-0.543214	-0.000037
H122	H	0.613213	-0.209881	0.333296
H123	H	0.946546	0.123453	0.666629
H124	H	0.239475	-0.879740	0.412907
H125	H	0.572808	-0.546407	0.746241
H126	H	0.906142	-0.213074	1.079574
Br127	Br	0.321963	-0.357035	-0.000047
Br128	Br	0.655296	-0.023701	0.333287
Br129	Br	0.988630	0.309632	0.666620
H130	H	0.012366	-1.084890	0.412866
H131	H	0.345699	-0.751557	0.746200
H132	H	0.679033	-0.418223	1.079533
H133	H	-0.024991	-0.578745	-0.000058
H134	H	0.308342	-0.245412	0.333276
H135	H	0.641675	0.087922	0.666609
Br136	Br	-0.021610	-1.115591	0.613032
Br137	Br	0.311723	-0.782258	0.946365
Br138	Br	0.645057	-0.448924	1.279699
Br139	Br	-0.074122	-0.403185	-0.000064
Br140	Br	0.259211	-0.069852	0.333269
Br141	Br	0.592544	0.263481	0.666603
H142	H	0.239458	-0.879745	0.587042
H143	H	0.572791	-0.546412	0.920375
H144	H	0.906125	-0.213079	1.253708
