data_functionalizedCrystal
_audit_creation_method	'MofGen! by Chris Wilmer'
_symmetry_space_group_name_H-M	'P1'
_symmetry_Int_Tables_number	1
_symmetry_cell_setting	triclinic
loop_
_symmetry_equiv_pos_as_xyz
  x,y,z
_cell_length_a	14.853567
_cell_length_b	9.065218
_cell_length_c	7.540329
_cell_angle_alpha	90.003038
_cell_angle_beta	90.000203
_cell_angle_gamma	95.674592
loop_
_atom_site_label
_atom_site_type_symbol
_atom_site_fract_x
_atom_site_fract_y
_atom_site_fract_z
O1	O	0.132191	-1.957778	-0.147470
O2	O	0.632191	-1.457778	0.352530
O3	O	0.143034	-1.528279	-0.147471
O4	O	0.643034	-1.028279	0.352529
O5	O	0.006468	-1.754501	-0.147476
O6	O	0.506468	-1.254501	0.352524
O7	O	0.268757	-1.731556	-0.147465
O8	O	0.768757	-1.231556	0.352535
O9	O	0.006466	-1.754488	0.147489
O10	O	0.506466	-1.254488	0.647489
O11	O	0.143032	-1.528265	0.147494
O12	O	0.643032	-1.028265	0.647494
O13	O	0.132189	-1.957765	0.147495
O14	O	0.632189	-1.457765	0.647495
Cu15	Cu	0.137611	-1.743014	0.174427
Cu16	Cu	0.637611	-1.243014	0.674427
Cu17	Cu	0.137613	-1.743030	-0.174403
Cu18	Cu	0.637613	-1.243030	0.325597
O19	O	0.268756	-1.731542	0.147500
O20	O	0.768756	-1.231542	0.647500
C21	C	0.141991	-1.473306	0.000011
C22	C	0.641991	-0.973306	0.500011
C23	C	0.138875	-1.309525	0.000010
C24	C	0.638875	-0.809525	0.500010
C25	C	-0.027130	-1.753455	0.000001
C26	C	0.472870	-1.253455	0.500001
C27	C	-0.127236	-1.750339	-0.000014
C28	C	0.372764	-1.250339	0.499986
C29	C	0.133232	-2.012738	0.000009
C30	C	0.633232	-1.512738	0.500009
C31	C	0.136348	-2.176519	-0.000002
C32	C	0.636348	-1.676519	0.499998
C33	C	-0.540862	-1.602788	0.000019
C34	C	-0.040862	-1.102788	0.500019
C35	C	-0.560154	-1.871546	0.000020
C36	C	-0.060154	-1.371546	0.500020
C37	C	-0.466099	-1.874475	0.000010
C38	C	0.033901	-1.374475	0.500010
C39	C	-0.409421	-1.741559	0.000007
C40	C	0.090579	-1.241559	0.500007
C41	C	-0.446798	-1.605714	0.000014
C42	C	0.053202	-1.105714	0.500014
C43	C	-0.428714	-2.010318	0.000020
C44	C	0.071286	-1.510318	0.500020
C45	C	-0.334654	-2.013253	0.000012
C46	C	0.165346	-1.513253	0.500012
C47	C	-0.277974	-1.880335	-0.000004
C48	C	0.222026	-1.380335	0.499996
C49	C	-0.315356	-1.744484	0.000002
C50	C	0.184644	-1.244484	0.500002
C51	C	-0.258678	-1.611568	-0.000001
C52	C	0.241322	-1.111568	0.499999
C53	C	-0.296059	-1.475716	-0.000008
C54	C	0.203941	-0.975716	0.499992
C55	C	-0.390118	-1.472796	-0.000001
C56	C	0.109882	-0.972796	0.499999
C57	C	-0.183915	-1.883255	-0.000011
C58	C	0.316085	-1.383255	0.499989
C59	C	-0.164614	-1.614494	-0.000006
C60	C	0.335386	-1.114494	0.499994
C61	C	0.302353	-1.732589	0.000019
C62	C	0.802353	-1.232589	0.500019
C63	C	0.402460	-1.735704	0.000022
C64	C	0.902460	-1.235704	0.500022
N65	N	0.137609	-1.743013	0.419776
N66	N	0.637609	-1.243013	0.919776
N67	N	0.137608	-1.743042	-0.419752
N68	N	0.637608	-1.243042	0.080248
H69	H	-0.118471	-1.506255	-0.000016
H70	H	0.381529	-1.006255	0.499984
H71	H	-0.474868	-2.118531	0.000039
H72	H	0.025132	-1.618531	0.500039
Cl73	Cl	-0.631407	-2.038630	0.000053
Cl74	Cl	-0.131407	-1.538630	0.500053
H75	H	-0.420562	-1.362192	-0.000005
H76	H	0.079438	-0.862192	0.499995
Cl77	Cl	-0.136925	-2.054026	0.000031
Cl78	Cl	0.363075	-1.554026	0.500031
Cl79	Cl	-0.224796	-1.308629	0.000003
Cl80	Cl	0.275204	-0.808629	0.500003
Cl81	Cl	-0.587852	-1.432011	-0.000007
Cl82	Cl	-0.087852	-0.932011	0.499993
H83	H	-0.304227	-2.123872	0.000015
H84	H	0.195773	-1.623872	0.500015
