data_functionalizedCrystal
_audit_creation_method	'MofGen! by Chris Wilmer'
_symmetry_space_group_name_H-M	'P1'
_symmetry_Int_Tables_number	1
_symmetry_cell_setting	triclinic
loop_
_symmetry_equiv_pos_as_xyz
  x,y,z
_cell_length_a	21.606444
_cell_length_b	14.809374
_cell_length_c	21.606444
_cell_angle_alpha	89.997260
_cell_angle_beta	59.990835
_cell_angle_gamma	52.851113
loop_
_atom_site_label
_atom_site_type_symbol
_atom_site_fract_x
_atom_site_fract_y
_atom_site_fract_z
Zr1	Zr	0.528017	0.991009	-0.006569
O2	O	0.681920	0.826765	-0.117805
O3	O	0.391292	1.041358	0.027546
O4	O	0.520417	1.041373	-0.101593
O5	O	0.552800	0.826739	0.113183
O6	O	0.494880	1.210660	-0.088821
O7	O	0.552795	0.826750	0.011334
O8	O	0.263900	1.210632	0.142184
O9	O	0.783780	0.826766	-0.117822
O10	O	0.422109	1.189169	0.051608
O11	O	0.441170	1.062823	0.118087
O12	O	0.593197	1.062841	-0.033957
O13	O	0.612258	0.936496	0.032521
Zr14	Zr	0.487296	1.260984	0.176239
Zr15	Zr	0.487289	1.261002	0.013800
Zr16	Zr	0.528024	0.990991	0.155870
Zr17	Zr	0.690472	0.991010	-0.006596
Zr18	Zr	0.324841	1.260983	0.176266
O19	O	0.624021	1.210636	0.142124
O20	O	0.624010	1.210661	-0.088843
O21	O	0.681930	0.826740	0.113162
O22	O	0.333393	1.425228	0.287474
O23	O	0.333383	1.425253	0.056508
O24	O	0.391303	1.041332	0.258512
O25	O	0.462513	1.425254	0.056486
O26	O	0.494896	1.210620	0.271262
O27	O	0.520433	1.041334	0.258491
O28	O	0.462517	1.425243	0.158336
O29	O	0.751407	1.041375	-0.101631
O30	O	0.263906	1.210618	0.271301
O31	O	0.231533	1.425227	0.287491
O32	O	0.231527	1.425241	0.158375
O33	O	0.783786	0.826752	0.011295
O34	O	0.751412	1.041361	0.027486
O35	O	0.422116	1.189152	0.203627
O36	O	0.403055	1.315497	0.137149
O37	O	0.574143	1.189170	0.051583
O38	O	0.593204	1.062825	0.118061
C39	C	0.304450	1.125995	0.084869
C40	C	0.235484	1.125994	0.084880
C41	C	0.273285	1.032735	0.021718
C42	C	0.208495	1.032738	0.021703
C43	C	0.105905	1.125996	0.084853
C44	C	0.068103	1.219265	0.148018
C45	C	0.132892	1.219266	0.148030
C46	C	-0.193183	1.219264	0.147971
C47	C	-0.257971	1.219254	0.147955
C48	C	-0.117580	1.032737	0.021643
C49	C	-0.052791	1.032738	0.021655
C50	C	-0.090599	1.126009	0.084818
C51	C	-0.020347	1.126006	0.084834
C52	C	0.035654	1.125996	0.084841
C53	C	0.558601	0.788276	0.059356
C54	C	0.575891	0.673657	0.050709
C55	C	0.498728	0.685223	0.089300
C56	C	0.516596	0.566760	0.080364
C57	C	0.710863	1.125999	0.084801
C58	C	0.779829	1.125999	0.084790
C59	C	0.507647	1.126019	-0.118351
C60	C	0.507644	1.126026	-0.187310
C61	C	0.456712	1.463717	0.110313
C62	C	0.439422	1.578336	0.118961
C63	C	0.521738	1.032705	-0.617655
C64	C	0.521730	1.032716	-0.552855
C65	C	0.507659	1.125985	-0.513424
C66	C	0.493585	1.219256	-0.538792
C67	C	0.493587	1.219249	-0.603587
C68	C	0.493579	1.219286	-0.277478
C69	C	0.493581	1.219284	-0.212680
C70	C	0.521722	1.032754	-0.226745
C71	C	0.521723	1.032747	-0.291541
C72	C	0.507645	1.126021	-0.316900
C73	C	0.507652	1.126009	-0.387163
C74	C	0.507659	1.125992	-0.443166
C75	C	0.507666	1.125974	0.288021
C76	C	0.507669	1.125967	0.356980
C77	C	0.253506	1.463715	0.110347
C78	C	0.167250	1.578334	0.119006
C79	C	0.304459	1.125973	0.288054
C80	C	0.235496	1.125964	0.357025
C81	C	0.253515	1.463693	0.313533
C82	C	0.167262	1.578304	0.391151
C83	C	0.761798	0.788300	-0.143863
C84	C	0.848051	0.673689	-0.221481
C85	C	0.761807	0.788278	0.059322
C86	C	0.848063	0.673660	0.050664
C87	C	0.710854	1.126021	-0.118385
C88	C	0.779817	1.126029	-0.187356
C89	C	0.136689	1.566217	0.078414
C90	C	0.055652	1.673903	0.086534
C91	C	0.005174	1.793704	0.135250
C92	C	0.035741	1.805818	0.175843
C93	C	0.116781	1.698133	0.167719
C94	C	0.193164	1.191903	0.434073
C95	C	0.128375	1.191890	0.498884
C96	C	0.105914	1.125946	0.486647
C97	C	0.148254	1.060000	0.409591
C98	C	0.213047	1.060005	0.344781
C99	C	0.116805	1.698089	0.392901
C100	C	0.035768	1.805788	0.465826
C101	C	0.005186	1.793700	0.537000
C102	C	0.055651	1.673903	0.535247
C103	C	0.136690	1.566206	0.462323
C104	C	0.898516	0.553905	-0.223232
C105	C	0.979573	0.446205	-0.296156
C106	C	1.010159	0.458293	-0.367330
C107	C	0.959689	0.578091	-0.365578
C108	C	0.878639	0.685787	-0.292654
C109	C	0.878631	0.685776	0.091249
C110	C	0.959685	0.578090	0.083111
C111	C	1.010166	0.458289	0.034393
C112	C	0.979596	0.446175	-0.006197
C113	C	0.898547	0.553860	0.001936
C114	C	0.802255	1.191986	-0.175093
C115	C	0.867041	1.192018	-0.239890
C116	C	0.909394	1.126085	-0.316950
C117	C	0.886949	1.060126	-0.329211
C118	C	0.822159	1.060102	-0.264414
H119	H	-0.086802	0.956795	-0.029790
H120	H	0.837551	0.783319	-0.291237
F121	F	0.536705	0.933475	-0.333506
F122	F	0.395087	0.812796	0.141147
H123	H	0.767781	1.245676	-0.112352
H124	H	0.533203	0.956751	-0.649759
H125	H	-0.341509	1.295201	0.199382
F126	F	0.335775	0.705908	0.170793
H127	H	-0.060813	1.881378	0.141860
H128	H	0.211443	1.245603	0.444052
H129	H	1.020653	0.348672	-0.297568
F130	F	0.824921	0.813267	0.143102
H131	H	1.076160	0.370615	0.027777
H132	H	0.984561	0.587978	0.116169
F133	F	0.023133	1.660985	0.043328
H134	H	0.962149	1.126115	-0.369705
F135	F	0.890920	1.262218	-0.226825
H136	H	1.020709	0.348619	-0.045864
H137	H	0.655181	0.576053	0.011055
H138	H	0.803899	1.006386	-0.274410
H139	H	0.873663	0.543977	-0.031112
F140	F	-0.017995	1.933329	0.227691
H141	H	0.533186	0.956776	-0.532203
H142	H	0.141652	1.708016	0.200779
F143	F	0.478607	1.318515	-0.630579
H144	H	0.533182	0.956808	-0.206089
H145	H	0.093908	1.245596	0.561620
H146	H	0.921442	1.006445	-0.391962
F147	F	0.190401	1.438726	0.026559
H148	H	0.053155	1.125952	0.539426
H149	H	0.595892	0.469155	0.040708
H150	H	0.482121	1.295239	-0.180575
F151	F	0.382469	0.933471	-0.045493
H152	H	0.030742	0.956793	-0.029766
F153	F	0.248734	0.933476	-0.045521
H154	H	0.482118	1.295232	-0.298121
H155	H	0.177764	1.468676	0.460909
H156	H	0.129957	1.006310	0.399639
H157	H	-0.223979	1.295212	0.199402
H158	H	0.482122	1.295203	-0.506680
H159	H	0.030738	1.664079	0.593207
F160	F	1.096422	0.343660	-0.444938
F161	F	-0.041083	1.318521	0.215226
H162	H	0.141692	1.707955	0.334956
H163	H	0.102106	1.295206	0.199463
F164	F	0.258089	0.989827	0.262783
H165	H	-0.005313	1.903323	0.467239
F166	F	-0.081067	1.908333	0.614607
H167	H	0.873620	0.544038	-0.165286
H168	H	0.984603	0.587918	-0.423536
