data_functionalizedCrystal
_audit_creation_method	'MofGen! by Chris Wilmer'
_symmetry_space_group_name_H-M	'P1'
_symmetry_Int_Tables_number	1
_symmetry_cell_setting	triclinic
loop_
_symmetry_equiv_pos_as_xyz
  x,y,z
_cell_length_a	12.759401
_cell_length_b	15.297327
_cell_length_c	12.759393
_cell_angle_alpha	99.642489
_cell_angle_beta	89.981827
_cell_angle_gamma	99.706546
loop_
_atom_site_label
_atom_site_type_symbol
_atom_site_fract_x
_atom_site_fract_y
_atom_site_fract_z
Zn1	Zn	1.533794	-0.359111	-0.666298
Zn2	Zn	2.033794	0.140889	-0.166298
Zn3	Zn	1.503244	-0.509996	-0.521003
Zn4	Zn	2.003244	-0.009996	-0.021003
Zn5	Zn	1.358087	-0.359156	-0.490647
Zn6	Zn	1.858087	0.140844	0.009353
Zn7	Zn	1.327653	-0.509929	-0.696631
Zn8	Zn	1.827653	-0.009929	-0.196631
O9	O	1.430695	-0.434548	-0.593645
O10	O	1.930695	0.065452	-0.093645
O11	O	1.676760	-0.379135	-0.647034
O12	O	2.176760	0.120865	-0.147034
O13	O	1.483941	-0.490034	-0.369965
O14	O	1.983941	0.009966	0.130035
O15	O	1.406917	-0.232904	-0.488548
O16	O	1.906917	0.267096	0.011452
O17	O	1.654316	-0.489990	-0.540287
O18	O	2.154316	0.010010	-0.040287
O19	O	1.536007	-0.232871	-0.617599
O20	O	2.036007	0.267129	-0.117599
O21	O	1.377295	-0.379212	-0.347662
O22	O	1.877295	0.120788	0.152338
O23	O	1.207031	-0.379147	-0.517961
O24	O	1.707031	0.120853	-0.017961
O25	O	1.355046	-0.489876	-0.839619
O26	O	1.855046	0.010124	-0.339619
O27	O	1.184671	-0.489919	-0.669297
O28	O	1.684671	0.010081	-0.169297
O29	O	1.506497	-0.379070	-0.817334
O30	O	2.006497	0.120930	-0.317334
O31	O	1.454430	-0.636233	-0.569700
O32	O	1.954430	-0.136233	-0.069700
O33	O	1.325424	-0.636183	-0.698733
O34	O	1.825424	-0.136183	-0.198733
C35	C	1.157731	-0.434531	-0.593627
C36	C	1.657731	0.065469	-0.093627
C37	C	1.040951	-0.434546	-0.593649
C38	C	1.540951	0.065454	-0.093649
C39	C	0.974455	-0.492317	-0.672357
C40	C	1.474455	0.007683	-0.172357
C41	C	0.864729	-0.492329	-0.672371
C42	C	1.364729	0.007671	-0.172371
C43	C	0.888004	-0.376795	-0.514959
C44	C	1.388004	0.123205	-0.014959
C45	C	0.997730	-0.376779	-0.514950
C46	C	1.497730	0.123221	-0.014950
C47	C	1.017677	-0.550084	-0.751056
C48	C	1.517677	-0.050084	-0.251056
C49	C	0.951179	-0.607861	-0.829770
C50	C	1.451179	-0.107861	-0.329770
C51	C	0.841453	-0.607872	-0.829783
C52	C	1.341453	-0.107872	-0.329783
C53	C	0.798224	-0.550107	-0.751083
C54	C	1.298224	-0.050107	-0.251083
C55	C	1.383338	-0.668942	-0.640825
C56	C	1.883338	-0.168942	-0.140825
C57	C	1.363175	-0.769217	-0.661044
C58	C	1.863175	-0.269217	-0.161044
C59	C	1.575237	-1.051852	-0.449496
C60	C	2.075237	-0.551852	0.050504
C61	C	1.594181	-0.957639	-0.430494
C62	C	2.094181	-0.457639	0.069506
C63	C	1.536432	-0.910529	-0.488130
C64	C	2.036432	-0.410529	0.011870
C65	C	1.459734	-0.957641	-0.564771
C66	C	1.959734	-0.457641	-0.064771
C67	C	1.440783	-1.051863	-0.583769
C68	C	1.940783	-0.551863	-0.083769
C69	C	1.401977	-0.910540	-0.622403
C70	C	1.901977	-0.410540	-0.122403
C71	C	1.325280	-0.957652	-0.699043
C72	C	1.825280	-0.457652	-0.199043
C73	C	1.306332	-1.051865	-0.718038
C74	C	1.806332	-0.551865	-0.218038
C75	C	1.364082	-1.098975	-0.660403
C76	C	1.864082	-0.598975	-0.160403
C77	C	1.420928	-0.816317	-0.603405
C78	C	1.920928	-0.316317	-0.103405
C79	C	1.286474	-0.816329	-0.737677
C80	C	1.786474	-0.316329	-0.237677
C81	C	1.267530	-0.910542	-0.756679
C82	C	1.767530	-0.410542	-0.256679
C83	C	1.704724	-0.434565	-0.593663
C84	C	2.204724	0.065435	-0.093663
C85	C	1.821500	-0.434573	-0.593671
C86	C	2.321500	0.065427	-0.093671
C87	C	1.430784	-0.434460	-0.867661
C88	C	1.930784	0.065540	-0.367661
C89	C	1.430823	-0.434423	-0.984430
C90	C	1.930823	0.065577	-0.484430
C91	C	1.478265	-0.199239	-0.546304
C92	C	1.978265	0.300761	-0.046304
C93	C	1.498536	-0.098964	-0.526130
C94	C	1.998536	0.401036	-0.026130
C95	C	1.352028	-0.492062	-1.160611
C96	C	1.852028	0.007938	-0.660611
C97	C	1.351989	-0.492095	-1.050894
C98	C	1.851989	0.007905	-0.550894
C99	C	1.509694	-0.376707	-1.027687
C100	C	2.009694	0.123293	-0.527687
C101	C	1.509728	-0.376671	-1.137402
C102	C	2.009728	0.123329	-0.637402
C103	C	1.273195	-0.549745	-1.227071
C104	C	1.773195	-0.049745	-0.727071
C105	C	1.194322	-0.607460	-1.183821
C106	C	1.694322	-0.107460	-0.683821
C107	C	1.194283	-0.607493	-1.074104
C108	C	1.694283	-0.107493	-0.574104
C109	C	1.273117	-0.549811	-1.007636
C110	C	1.773117	-0.049811	-0.507636
C111	C	1.430679	-0.434570	-0.320682
C112	C	1.930679	0.065430	0.179318
C113	C	1.430895	-0.434353	-0.203862
C114	C	1.930895	0.065647	0.296138
H115	H	0.787315	-0.654911	-0.893882
H116	H	1.287315	-0.154911	-0.393882
H117	H	0.852798	-0.329765	-0.450884
H118	H	1.352798	0.170235	0.049116
Br119	Br	1.273057	-0.549851	-0.858732
Br120	Br	1.773057	-0.049851	-0.358732
Br121	Br	1.273250	-0.549710	-1.375975
Br122	Br	1.773250	-0.049710	-0.875975
Br123	Br	1.698274	-0.893707	-0.326496
Br124	Br	2.198274	-0.393707	0.173504
Br125	Br	1.616736	-0.298320	-1.196101
Br126	Br	2.116736	0.201680	-0.696101
Br127	Br	1.616671	-0.298424	-0.937482
Br128	Br	2.116671	0.201576	-0.437482
H129	H	0.708878	-0.550113	-0.751108
H130	H	1.208878	-0.050113	-0.251108
Br131	Br	1.163446	-0.974490	-0.860691
Br132	Br	1.663446	-0.474490	-0.360691
Br133	Br	1.166589	-0.550077	-0.751036
Br134	Br	1.666589	-0.050077	-0.251036
H135	H	1.551859	-0.833816	-0.472653
H136	H	2.051859	-0.333816	0.027347
H137	H	1.348664	-1.175691	-0.675872
H138	H	1.848664	-0.675691	-0.175872
H139	H	1.239447	-0.777972	-0.784607
H140	H	1.739447	-0.277972	-0.284607
Br141	Br	1.009846	-0.686245	-0.936579
Br142	Br	1.509846	-0.186245	-0.436579
H143	H	1.051874	-0.329730	-0.450866
H144	H	1.551874	0.170270	0.049134
H145	H	1.130053	-0.654479	-1.038892
H146	H	1.630053	-0.154479	-0.538892
Br147	Br	1.087328	-0.685727	-1.274020
Br148	Br	1.587328	-0.185727	-0.774020
H149	H	1.622242	-1.090217	-0.402571
H150	H	2.122242	-0.590217	0.097429
Br151	Br	1.525012	-0.752391	-0.499394
Br152	Br	2.025012	-0.252391	0.000606
Br153	Br	1.202236	-1.115802	-0.822044
Br154	Br	1.702236	-0.615802	-0.322044
