data_functionalizedCrystal
_audit_creation_method	'MofGen! by Chris Wilmer'
_symmetry_space_group_name_H-M	'P1'
_symmetry_Int_Tables_number	1
_symmetry_cell_setting	triclinic
loop_
_symmetry_equiv_pos_as_xyz
  x,y,z
_cell_length_a	10.654562
_cell_length_b	6.394989
_cell_length_c	9.730223
_cell_angle_alpha	89.998443
_cell_angle_beta	89.996961
_cell_angle_gamma	94.506093
loop_
_atom_site_label
_atom_site_type_symbol
_atom_site_fract_x
_atom_site_fract_y
_atom_site_fract_z
O1	O	1.670934	-0.293559	-0.114371
O2	O	1.305753	-0.321489	-0.114353
O3	O	1.493527	-0.003535	-0.114363
O4	O	1.483160	-0.611513	-0.114361
O5	O	1.493525	-0.003543	0.114217
O6	O	1.305751	-0.321497	0.114227
O7	O	1.670932	-0.293567	0.114209
Zn8	Zn	1.488341	-0.307533	0.150510
Zn9	Zn	1.488344	-0.307523	-0.150654
O10	O	1.483158	-0.611521	0.114219
C11	C	1.258933	-0.319436	-0.000061
C12	C	1.119425	-0.313284	-0.000054
C13	C	1.053863	-0.310419	0.124534
C14	C	0.922779	-0.304655	0.124511
C15	C	0.922832	-0.304631	-0.124699
C16	C	1.053914	-0.310380	-0.124675
C17	C	1.053831	-0.310442	0.268414
C18	C	0.922748	-0.304678	0.268391
C19	C	1.717752	-0.295619	-0.000086
C20	C	1.857260	-0.301772	-0.000102
C21	C	1.491476	0.074312	-0.000078
C22	C	1.485212	0.310638	-0.000079
N23	N	1.488348	-0.307539	0.356046
N24	N	1.488346	-0.307500	-0.356190
C25	C	1.571517	-0.166798	0.427968
C26	C	1.571513	-0.166772	0.571851
C27	C	1.405169	-0.448249	0.571878
C28	C	1.405167	-0.448262	0.427998
C29	C	1.667559	-0.004295	0.427953
C30	C	1.667555	-0.004270	0.571836
H31	H	1.337434	-0.562847	0.369441
O32	O	1.789048	-0.071698	0.368812
H33	H	1.833949	0.056738	0.304605
H34	H	0.877990	-0.449068	0.323627
H35	H	1.644415	0.156290	0.388900
H36	H	1.107291	-0.312680	-0.226127
H37	H	1.337444	-0.562820	0.630476
H38	H	1.635435	0.147483	0.616453
O39	O	1.795881	-0.051724	0.623583
H40	H	1.867623	0.069783	0.585502
H41	H	0.869476	-0.302266	-0.226161
H42	H	1.098561	-0.166061	0.323666
H43	H	0.891545	-0.152312	0.313036
O44	O	1.095165	-0.512235	0.327590
H45	H	1.011071	-0.614570	0.358945
