data_functionalizedCrystal
_audit_creation_method	'MofGen! by Chris Wilmer'
_symmetry_space_group_name_H-M	'P1'
_symmetry_Int_Tables_number	1
_symmetry_cell_setting	triclinic
loop_
_symmetry_equiv_pos_as_xyz
  x,y,z
_cell_length_a	14.044220
_cell_length_b	11.026607
_cell_length_c	9.482900
_cell_angle_alpha	78.599815
_cell_angle_beta	100.144013
_cell_angle_gamma	100.887447
loop_
_atom_site_label
_atom_site_type_symbol
_atom_site_fract_x
_atom_site_fract_y
_atom_site_fract_z
O1	O	-1.320299	-0.280364	-0.120726
O2	O	-1.042498	-0.269603	-0.120763
O3	O	-1.158374	-0.095838	-0.120742
O4	O	-1.204423	-0.454128	-0.120747
O5	O	-1.134863	-0.131288	0.121046
O6	O	-1.018987	-0.305053	0.121025
O7	O	-1.296788	-0.315814	0.121062
Cu8	Cu	-1.155741	-0.313670	0.143121
Cu9	Cu	-1.183545	-0.271746	-0.142822
O10	O	-1.180912	-0.489578	0.121042
C11	C	-1.138124	-0.067432	0.000149
C12	C	-1.112800	0.070024	0.000140
C13	C	-0.994625	-0.282619	0.000126
C14	C	-0.887005	-0.268573	0.000112
C15	C	-1.344661	-0.302797	0.000170
C16	C	-1.452283	-0.316842	0.000175
C17	C	-0.689959	-0.242902	0.000141
C18	C	-0.649321	-0.342507	0.000146
C19	C	-0.539679	-0.328224	0.000162
C20	C	-0.799612	-0.257184	0.000125
C21	C	-1.201163	-0.517984	0.000147
C22	C	-1.226487	-0.655439	0.000146
N23	N	-1.136192	-0.343157	0.344238
C24	C	-1.182724	0.136260	0.000148
C25	C	-1.156553	0.278328	0.000139
N26	N	-1.203100	-0.242250	-0.343938
C27	C	-1.177771	-0.280436	0.416444
C28	C	-1.161515	-0.304980	0.583859
H29	H	-0.696874	-0.438509	0.000137
C30	C	-1.007202	0.134837	-0.000105
C31	C	-1.000723	0.226943	-0.124488
C32	C	-0.903463	0.286682	-0.124755
H33	H	-0.966628	0.075007	-0.000183
H34	H	-0.986200	0.172733	0.084163
H35	H	-1.021713	0.189048	-0.208735
H36	H	-1.041276	0.286799	-0.124437
H37	H	-0.882461	0.324578	-0.040486
H38	H	-0.862897	0.226843	-0.124829
H39	H	-0.899055	0.349190	-0.209140
C40	C	-1.332172	0.280079	0.000390
C41	C	-1.365901	0.296348	0.124773
C42	C	-1.463254	0.236978	0.125037
H43	H	-1.335850	0.193160	0.000468
H44	H	-1.371660	0.315712	-0.083879
H45	H	-1.326423	0.260710	0.209020
H46	H	-1.362247	0.383254	0.124721
H47	H	-1.502742	0.272611	0.040768
H48	H	-1.466922	0.150062	0.125111
H49	H	-1.486154	0.248018	0.209422
H50	H	-1.225400	-0.208563	0.354325
C51	C	-0.626543	-0.114885	-0.000163
C52	C	-0.580144	-0.082683	-0.124573
C53	C	-0.521715	0.035243	-0.124919
H54	H	-0.578505	-0.117400	0.084057
H55	H	-0.666429	-0.054209	-0.000253
H56	H	-0.540260	-0.143343	-0.124471
H57	H	-0.628158	-0.080141	-0.208813
H58	H	-0.561602	0.095918	-0.125009
H59	H	-0.473683	0.032716	-0.040694
H60	H	-0.490234	0.057111	-0.209336
C61	C	-1.097823	-0.400645	0.666596
C62	C	-1.003042	-0.365190	0.629719
C63	C	-0.944340	-0.453273	0.705924
H64	H	-1.124835	-0.480682	0.641788
H65	H	-1.095270	-0.404392	0.768124
H66	H	-1.005598	-0.361457	0.528214
H67	H	-0.976001	-0.285167	0.654531
H68	H	-0.941787	-0.457019	0.807451
H69	H	-0.971361	-0.533304	0.681110
H70	H	-0.880023	-0.429222	0.680924
H71	H	-1.250731	-0.170372	0.593946
H72	H	-1.088555	-0.415021	0.406359
H73	H	-1.261963	0.087788	0.000167
H74	H	-1.077309	0.326795	0.000119
