data_functionalizedCrystal
_audit_creation_method	'MofGen! by Chris Wilmer'
_symmetry_space_group_name_H-M	'P1'
_symmetry_Int_Tables_number	1
_symmetry_cell_setting	triclinic
loop_
_symmetry_equiv_pos_as_xyz
  x,y,z
_cell_length_a	14.908993
_cell_length_b	19.076919
_cell_length_c	19.077174
_cell_angle_alpha	89.937411
_cell_angle_beta	90.847787
_cell_angle_gamma	84.241894
loop_
_atom_site_label
_atom_site_type_symbol
_atom_site_fract_x
_atom_site_fract_y
_atom_site_fract_z
Zn1	Zn	1.384009	0.230974	-0.326431
Zn2	Zn	1.717343	0.564308	0.006902
Zn3	Zn	2.050676	0.897641	0.340235
Zn4	Zn	1.371784	0.344342	-0.204723
Zn5	Zn	1.705118	0.677676	0.128610
Zn6	Zn	2.038451	1.011009	0.461944
Zn7	Zn	1.227319	0.233607	-0.215688
Zn8	Zn	1.560653	0.566940	0.117645
Zn9	Zn	1.893986	0.900274	0.450978
Zn10	Zn	1.226761	0.355809	-0.328438
Zn11	Zn	1.560094	0.689142	0.004895
Zn12	Zn	1.893428	1.022476	0.338228
O13	O	1.302468	0.291183	-0.268820
O14	O	1.635802	0.624516	0.064513
O15	O	1.969135	0.957850	0.397846
O16	O	1.508656	0.240112	-0.304858
O17	O	1.841989	0.573445	0.028476
O18	O	2.175322	0.906779	0.361809
O19	O	1.347738	0.325956	-0.108056
O20	O	1.681071	0.659289	0.225277
O21	O	2.014405	0.992623	0.558611
O22	O	1.253454	0.134671	-0.234128
O23	O	1.586788	0.468004	0.099206
O24	O	1.920121	0.801338	0.432539
O25	O	1.499674	0.323403	-0.215439
O26	O	1.833007	0.656736	0.117894
O27	O	2.166341	0.990070	0.451228
O28	O	1.368574	0.132737	-0.315490
O29	O	1.701907	0.466070	0.017843
O30	O	2.035241	0.799403	0.351176
O31	O	1.241600	0.244599	-0.116112
O32	O	1.574934	0.577933	0.217221
O33	O	1.908267	0.911266	0.550555
O34	O	1.100977	0.255718	-0.236074
O35	O	1.434310	0.589051	0.097260
O36	O	1.767644	0.922385	0.430593
O37	O	1.252503	0.342946	-0.426294
O38	O	1.585836	0.676280	-0.092960
O39	O	1.919170	1.009613	0.240373
O40	O	1.100567	0.345499	-0.318911
O41	O	1.433900	0.678833	0.014423
O42	O	1.767234	1.012166	0.347756
O43	O	1.368033	0.251231	-0.424819
O44	O	1.701366	0.584564	-0.091486
O45	O	2.034699	0.917898	0.241847
O46	O	1.347197	0.444450	-0.217385
O47	O	1.680530	0.777784	0.115948
O48	O	2.013863	1.111117	0.449282
O49	O	1.240649	0.452875	-0.308278
O50	O	1.573982	0.786208	0.025055
O51	O	1.907315	1.119541	0.358389
C52	C	1.068032	0.302139	-0.278900
C53	C	1.401365	0.635472	0.054433
C54	C	1.734699	0.968806	0.387767
C55	C	0.967739	0.306844	-0.283228
C56	C	1.301072	0.640177	0.050105
C57	C	1.634406	0.973510	0.383438
C58	C	0.779667	0.222064	-0.205234
C59	C	1.113000	0.555398	0.128100
C60	C	1.446333	0.888731	0.461433
C61	C	0.685432	0.226482	-0.209298
C62	C	1.018766	0.559816	0.124035
C63	C	1.352099	0.893149	0.457368
C64	C	0.685034	0.320101	-0.295418
C65	C	1.018368	0.653434	0.037916
C66	C	1.351701	0.986767	0.371249
C67	C	0.779269	0.315683	-0.291353
C68	C	1.112602	0.649016	0.041980
C69	C	1.445935	0.982349	0.375314
C70	C	0.826581	0.266662	-0.246260
C71	C	1.159915	0.599995	0.087073
C72	C	1.493248	0.933329	0.420406
C73	C	0.920818	0.262241	-0.242200
C74	C	1.254151	0.595574	0.091133
C75	C	1.587484	0.928908	0.424467
C76	C	0.920418	0.355863	-0.328315
C77	C	1.253751	0.689196	0.005018
C78	C	1.587084	1.022529	0.338351
C79	C	0.826183	0.360281	-0.332380
C80	C	1.159517	0.693614	0.000953
C81	C	1.492850	1.026947	0.334287
C82	C	1.292561	0.474224	-0.261874
C83	C	1.625894	0.807558	0.071460
C84	C	1.959227	1.140891	0.404793
C85	C	1.288406	0.552527	-0.258922
C86	C	1.621739	0.885861	0.074412
C87	C	1.955073	1.219194	0.407745
C88	C	1.346349	0.588250	-0.299934
C89	C	1.679683	0.921583	0.033399
C90	C	2.013016	1.254917	0.366733
C91	C	1.342442	0.661824	-0.297162
C92	C	1.675775	0.995157	0.036171
C93	C	2.009108	1.328491	0.369505
C94	C	1.280595	0.699674	-0.253373
C95	C	1.613928	1.033007	0.079960
C96	C	1.947261	1.366340	0.413294
C97	C	1.222645	0.663946	-0.212359
C98	C	1.555979	0.997280	0.120974
C99	C	1.889312	1.330613	0.454308
C100	C	1.226549	0.590374	-0.215135
C101	C	1.559882	0.923707	0.118198
C102	C	1.893216	1.257040	0.451531
C103	C	1.262493	0.919826	-0.240526
C104	C	1.595826	1.253160	0.092807
C105	C	1.929160	1.586493	0.426141
C106	C	1.258595	0.993404	-0.237751
C107	C	1.591929	1.326737	0.095582
C108	C	1.925262	1.660070	0.428916
C109	C	1.378391	0.991276	-0.322555
C110	C	1.711724	1.324610	0.010778
C111	C	2.045058	1.657943	0.344111
C112	C	1.382293	0.917702	-0.325325
C113	C	1.715626	1.251036	0.008009
C114	C	2.048960	1.584369	0.341342
C115	C	1.324340	0.881982	-0.284314
C116	C	1.657674	1.215315	0.049020
C117	C	1.991007	1.548648	0.382353
N118	N	1.276601	0.774878	-0.250537
N119	N	1.609934	1.108212	0.082797
N120	N	1.943268	1.441545	0.416130
N121	N	1.328330	0.806779	-0.287154
N122	N	1.661664	1.140112	0.046179
N123	N	1.994997	1.473445	0.379512
C124	C	1.537820	0.280185	-0.258701
C125	C	1.871154	0.613518	0.074632
C126	C	2.204487	0.946852	0.407965
C127	C	1.638113	0.275498	-0.254389
C128	C	1.971446	0.608831	0.078944
C129	C	2.304780	0.942165	0.412277
C130	C	1.312402	1.107428	-0.275803
C131	C	1.645736	1.440761	0.057531
C132	C	1.979069	1.774095	0.390864
C133	C	1.316539	1.029126	-0.278764
C134	C	1.649872	1.362460	0.054570
C135	C	1.983205	1.695793	0.387903
C136	C	1.311569	0.298074	-0.451710
C137	C	1.644903	0.631407	-0.118376
C138	C	1.978236	0.964741	0.214957
C139	C	1.315447	0.301011	-0.529646
C140	C	1.648781	0.634344	-0.196313
C141	C	1.982114	0.967677	0.137020
C142	C	1.262012	0.260033	-0.570455
C143	C	1.595345	0.593366	-0.237122
C144	C	1.928678	0.926699	0.096212
C145	C	1.265652	0.262798	-0.643685
C146	C	1.598985	0.596131	-0.310351
C147	C	1.932319	0.929465	0.022982
C148	C	1.322733	0.306538	-0.676104
C149	C	1.656067	0.639871	-0.342771
C150	C	1.989400	0.973204	-0.009438
C151	C	1.376171	0.347520	-0.635290
C152	C	1.709504	0.680853	-0.301957
C153	C	2.042838	1.014187	0.031376
C154	C	1.372525	0.344758	-0.562062
C155	C	1.705859	0.678091	-0.228729
C156	C	2.039192	1.011425	0.104604
C157	C	1.339557	0.319343	-0.894663
C158	C	1.672891	0.652677	-0.561330
C159	C	2.006224	0.986010	-0.227997
C160	C	1.343201	0.322100	-0.967897
C161	C	1.676534	0.655434	-0.634564
C162	C	2.009867	0.988767	-0.301230
C163	C	1.232680	0.237379	-0.976286
C164	C	1.566013	0.570712	-0.642953
C165	C	1.899347	0.904046	-0.309620
C166	C	1.229043	0.234618	-0.903056
C167	C	1.562377	0.567951	-0.569723
C168	C	1.895710	0.901284	-0.236390
C169	C	1.282478	0.275603	-0.862249
C170	C	1.615811	0.608936	-0.528915
C171	C	1.949144	0.942270	-0.195582
N172	N	1.326458	0.309363	-0.750957
N173	N	1.659791	0.642697	-0.417623
N174	N	1.993124	0.976030	-0.084290
N175	N	1.278748	0.272780	-0.787398
N176	N	1.612081	0.606114	-0.454064
N177	N	1.945415	0.939447	-0.120731
C178	C	1.293458	0.284266	-0.086642
C179	C	1.626791	0.617599	0.246691
C180	C	1.960124	0.950932	0.580025
C181	C	1.289765	0.281123	-0.008706
C182	C	1.623098	0.614456	0.324628
C183	C	1.956432	0.947789	0.657961
H184	H	0.787648	0.400194	-0.369091
H185	H	1.120982	0.733527	-0.035758
H186	H	1.454315	1.066860	0.297576
F187	F	1.192769	1.033685	-0.191141
F188	F	1.526102	1.367018	0.142193
F189	F	1.859436	1.700351	0.475526
H190	H	1.215535	0.224411	-0.544065
H191	H	1.548868	0.557744	-0.210731
H192	H	1.882202	0.891078	0.122602
H193	H	1.172285	0.694770	-0.176708
H194	H	1.505618	1.028103	0.156625
H195	H	1.838951	1.361436	0.489959
H196	H	1.432654	0.886887	-0.360981
H197	H	1.765987	1.220220	-0.027648
H198	H	2.099320	1.553553	0.305685
F199	F	0.971171	0.210068	-0.194211
F200	F	1.304504	0.543402	0.139123
F201	F	1.637837	0.876735	0.472456
F202	F	1.175813	0.193765	-1.019721
F203	F	1.509146	0.527098	-0.686388
F204	F	1.842480	0.860431	-0.353055
F205	F	1.436916	0.394076	-0.669796
F206	F	1.770249	0.727409	-0.336463
F207	F	2.103583	1.060742	-0.003129
H208	H	1.383057	0.352724	-0.861447
H209	H	1.716390	0.686058	-0.528113
H210	H	2.049724	1.019391	-0.194780
F211	F	1.208743	0.219211	-0.687114
F212	F	1.542076	0.552544	-0.353780
F213	F	1.875410	0.885878	-0.020447
H214	H	1.416046	0.378121	-0.528836
H215	H	1.749379	0.711454	-0.195503
H216	H	2.082712	1.044788	0.137830
F217	F	0.970356	0.403319	-0.371993
F218	F	1.303689	0.736653	-0.038660
F219	F	1.637022	1.069986	0.294673
F220	F	0.830023	0.169889	-0.157249
F221	F	1.163356	0.503222	0.176084
F222	F	1.496690	0.836555	0.509418
F223	F	1.164877	0.552356	-0.171485
F224	F	1.498210	0.885689	0.161848
F225	F	1.831543	1.219022	0.495182
H226	H	0.647238	0.190165	-0.175891
H227	H	0.980571	0.523499	0.157443
H228	H	1.313905	0.856832	0.490776
H229	H	0.646495	0.360017	-0.332123
H230	H	0.979829	0.693350	0.001210
H231	H	1.313162	1.026684	0.334543
H232	H	1.396715	0.557437	-0.335589
H233	H	1.730049	0.890770	-0.002255
H234	H	2.063382	1.224104	0.331078
F235	F	1.168291	0.188063	-0.868558
F236	F	1.501624	0.521396	-0.535225
F237	F	1.834958	0.854730	-0.201892
F238	F	1.404104	0.699840	-0.340821
F239	F	1.737437	1.033174	-0.007488
F240	F	2.070771	1.366507	0.325845
F241	F	1.440062	1.029299	-0.366201
F242	F	1.773395	1.362632	-0.032868
F243	F	2.106728	1.695965	0.300465
F244	F	1.403964	0.368651	-1.002399
F245	F	1.737297	0.701984	-0.669065
F246	F	2.070631	1.035318	-0.335732
H247	H	1.215307	0.890748	-0.207132
H248	H	1.548641	1.224081	0.126202
H249	H	1.881974	1.557415	0.459535
