data_functionalizedCrystal
_audit_creation_method	'MofGen! by Chris Wilmer'
_symmetry_space_group_name_H-M	'P1'
_symmetry_Int_Tables_number	1
_symmetry_cell_setting	triclinic
loop_
_symmetry_equiv_pos_as_xyz
  x,y,z
_cell_length_a	10.540535
_cell_length_b	16.109301
_cell_length_c	15.186229
_cell_angle_alpha	90.005167
_cell_angle_beta	89.999024
_cell_angle_gamma	96.007438
loop_
_atom_site_label
_atom_site_type_symbol
_atom_site_fract_x
_atom_site_fract_y
_atom_site_fract_z
O1	O	1.684219	-0.117147	-0.073184
O2	O	1.314647	-0.128191	-0.073196
O3	O	1.509586	-0.001700	-0.073181
O4	O	1.489281	-0.243638	-0.073199
O5	O	1.509573	-0.001698	0.073277
O6	O	1.314634	-0.128189	0.073261
O7	O	1.684206	-0.117146	0.073274
Zn8	Zn	1.499418	-0.122667	0.096521
Zn9	Zn	1.499435	-0.122669	-0.096443
O10	O	1.489268	-0.243636	0.073258
C11	C	1.267350	-0.127362	0.000031
C12	C	1.126437	-0.124887	0.000026
C13	C	1.091083	-0.032533	0.000037
C14	C	0.944519	-0.029928	0.000378
C15	C	0.916492	-0.167044	0.083505
C16	C	1.063230	-0.169009	0.083566
C17	C	1.063109	-0.170355	-0.082989
C18	C	0.916824	-0.166083	-0.084077
C19	C	1.508757	0.029281	0.000048
C20	C	1.506291	0.121591	0.000050
C21	C	1.731503	-0.117974	0.000045
C22	C	1.872416	-0.120449	0.000043
C23	C	1.490097	-0.274617	0.000027
C24	C	1.492563	-0.366927	0.000020
N25	N	1.499416	-0.122665	0.228213
C26	C	1.616229	0.343192	0.000039
C27	C	1.613902	0.429927	0.000032
C28	C	1.382615	0.411465	0.000028
C29	C	1.384943	0.324732	0.000029
C30	C	1.501754	0.290598	0.000039
C31	C	1.497099	0.464066	0.000031
C32	C	1.494575	0.558107	0.000023
C33	C	1.504279	0.196551	0.000045
N34	N	1.499448	-0.122665	-0.228136
C35	C	1.585764	-0.066674	0.453943
C36	C	1.585768	-0.066672	0.546133
C37	C	1.413090	-0.178658	0.546128
C38	C	1.413081	-0.178656	0.453940
C39	C	1.499425	-0.122664	0.407850
C40	C	1.499438	-0.122665	0.592228
C41	C	1.499442	-0.122664	0.692184
C42	C	1.499420	-0.122665	0.307887
H43	H	1.133562	0.002930	-0.059806
H44	H	1.287512	0.439267	0.000021
H45	H	0.916578	0.006334	0.060566
O46	O	1.149280	0.013666	0.079209
H47	H	1.203273	-0.028864	0.118553
O48	O	1.092467	-0.258685	0.088277
H49	H	1.148993	-0.267849	0.148511
H50	H	1.342793	-0.224246	0.583664
O51	O	1.742217	0.306380	0.000042
H52	H	1.724609	0.237232	0.000050
O53	O	1.678909	-0.006290	0.595843
H54	H	1.662784	0.058627	0.578151
O55	O	1.737371	0.486657	0.000044
H56	H	1.818982	0.448347	0.000060
H57	H	1.342768	-0.224250	0.416408
H58	H	1.291718	0.281907	0.000026
O59	O	1.117040	-0.127323	0.166528
H60	H	1.166642	-0.172541	0.205385
H61	H	0.868185	-0.233692	0.086369
H62	H	1.656068	-0.021081	0.416419
H63	H	0.915706	0.006512	-0.059438
O64	O	0.876188	-0.124683	0.166104
H65	H	0.770739	-0.125734	0.167060
O66	O	1.119879	-0.132181	-0.166821
H67	H	1.193873	-0.080370	-0.150250
O68	O	0.879574	-0.121185	-0.165876
H69	H	0.830352	-0.066290	-0.146699
O70	O	0.850655	-0.253608	-0.091095
H71	H	0.784796	-0.266007	-0.034480
H72	H	1.084325	-0.238304	-0.083801
