data_functionalizedCrystal
_audit_creation_method	'MofGen! by Chris Wilmer'
_symmetry_space_group_name_H-M	'P1'
_symmetry_Int_Tables_number	1
_symmetry_cell_setting	triclinic
loop_
_symmetry_equiv_pos_as_xyz
  x,y,z
_cell_length_a	8.559649
_cell_length_b	13.596369
_cell_length_c	14.519731
_cell_angle_alpha	89.993029
_cell_angle_beta	103.266241
_cell_angle_gamma	90.005227
loop_
_atom_site_label
_atom_site_type_symbol
_atom_site_fract_x
_atom_site_fract_y
_atom_site_fract_z
O1	O	2.120036	0.081774	0.031278
O2	O	2.370036	0.331774	0.281278
O3	O	2.620036	0.581774	0.531278
O4	O	2.870036	0.831774	0.781278
O5	O	1.654975	0.081781	-0.016339
O6	O	1.904975	0.331781	0.233661
O7	O	2.154975	0.581781	0.483661
O8	O	2.404975	0.831781	0.733661
O9	O	1.899818	0.081768	0.142590
O10	O	2.149818	0.331768	0.392590
O11	O	2.399818	0.581768	0.642590
O12	O	2.649818	0.831768	0.892590
O13	O	1.875193	0.081787	-0.127652
O14	O	2.125193	0.331787	0.122348
O15	O	2.375193	0.581787	0.372348
O16	O	2.625193	0.831787	0.622348
O17	O	1.899794	-0.081815	0.142596
O18	O	2.149794	0.168185	0.392596
O19	O	2.399794	0.418185	0.642596
O20	O	2.649794	0.668185	0.892596
O21	O	1.654950	-0.081802	-0.016334
O22	O	1.904950	0.168198	0.233666
O23	O	2.154950	0.418198	0.483666
O24	O	2.404950	0.668198	0.733666
O25	O	2.120012	-0.081809	0.031283
O26	O	2.370012	0.168191	0.281283
O27	O	2.620012	0.418191	0.531283
O28	O	2.870012	0.668191	0.781283
Zn29	Zn	1.887477	-0.107778	0.007476
Zn30	Zn	2.137477	0.142222	0.257476
Zn31	Zn	2.387477	0.392222	0.507476
Zn32	Zn	2.637477	0.642222	0.757476
Zn33	Zn	1.887509	0.107750	0.007468
Zn34	Zn	2.137509	0.357750	0.257468
Zn35	Zn	2.387509	0.607750	0.507468
Zn36	Zn	2.637509	0.857750	0.757468
O37	O	1.875168	-0.081796	-0.127646
O38	O	2.125168	0.168204	0.122354
O39	O	2.375168	0.418204	0.372354
O40	O	2.625168	0.668204	0.622354
C41	C	1.595443	-0.000010	-0.019945
C42	C	1.845443	0.249990	0.230055
C43	C	2.095443	0.499990	0.480055
C44	C	2.345443	0.749990	0.730055
C45	C	1.418095	-0.000008	-0.030686
C46	C	1.668095	0.249992	0.219314
C47	C	1.918095	0.499992	0.469314
C48	C	2.168095	0.749992	0.719314
N49	N	1.887467	-0.254870	0.007482
N50	N	2.137467	-0.004870	0.257482
N51	N	2.387467	0.245130	0.507482
N52	N	2.637467	0.495130	0.757482
C53	C	1.887507	-0.656161	0.007467
C54	C	2.137507	-0.406161	0.257467
C55	C	2.387507	-0.156161	0.507467
C56	C	2.637507	0.093839	0.757467
C57	C	1.887491	-0.544509	0.007468
C58	C	2.137491	-0.294509	0.257468
C59	C	2.387491	-0.044509	0.507468
C60	C	2.637491	0.205491	0.757468
C61	C	1.887488	-0.455519	0.007474
C62	C	2.137488	-0.205519	0.257474
C63	C	2.387488	0.044481	0.507474
C64	C	2.637488	0.294481	0.757474
C65	C	1.887470	-0.343860	0.007476
C66	C	2.137470	-0.093860	0.257476
C67	C	2.387470	0.156140	0.507476
C68	C	2.637470	0.406140	0.757476
C69	C	2.179543	-0.000016	0.034889
C70	C	2.429543	0.249984	0.284889
C71	C	2.679543	0.499984	0.534889
C72	C	2.929543	0.749984	0.784889
C73	C	2.356891	-0.000012	0.045630
C74	C	2.606891	0.249988	0.295630
C75	C	2.856891	0.499988	0.545630
C76	C	3.106891	0.749988	0.795630
C77	C	1.898652	-0.000023	0.176870
C78	C	2.148652	0.249977	0.426870
C79	C	2.398652	0.499977	0.676870
C80	C	2.648652	0.749977	0.926870
C81	C	1.895194	-0.000024	0.279002
C82	C	2.145194	0.249976	0.529002
C83	C	2.395194	0.499976	0.779002
C84	C	2.645194	0.749976	1.029002
N85	N	1.887532	0.254842	0.007470
N86	N	2.137532	0.504842	0.257470
N87	N	2.387532	0.754842	0.507470
N88	N	2.637532	1.004842	0.757470
C89	C	1.876334	-0.000003	-0.161925
C90	C	2.126334	0.249997	0.088075
C91	C	2.376334	0.499997	0.338075
C92	C	2.626334	0.749997	0.588075
C93	C	1.879792	0.000004	-0.264057
C94	C	2.129792	0.250004	-0.014057
C95	C	2.379792	0.500004	0.235943
C96	C	2.629792	0.750004	0.485943
C97	C	1.892385	-0.000022	0.361944
C98	C	2.142385	0.249978	0.611944
C99	C	2.392385	0.499978	0.861944
C100	C	2.642385	0.749978	1.111944
C101	C	1.888874	-0.000014	0.466001
C102	C	2.138874	0.249986	0.716001
C103	C	2.388874	0.499986	0.966001
C104	C	2.638874	0.749986	1.216001
C105	C	1.886088	-0.000008	0.548940
C106	C	2.136088	0.249992	0.798940
C107	C	2.386088	0.499992	1.048940
C108	C	2.636088	0.749992	1.298940
C109	C	1.882578	-0.000002	0.653003
C110	C	2.132578	0.249998	0.903003
C111	C	2.382578	0.499998	1.153003
C112	C	2.632578	0.749998	1.403003
H113	H	1.334809	0.000002	-0.104247
H114	H	1.584809	0.250002	0.145753
H115	H	1.834809	0.500002	0.395753
H116	H	2.084809	0.750002	0.645753
H117	H	1.440168	-0.000012	0.119186
H118	H	1.690168	0.249988	0.369186
H119	H	1.940168	0.499988	0.619186
H120	H	2.190168	0.749988	0.869186
