data_functionalizedCrystal
_audit_creation_method	'MofGen! by Chris Wilmer'
_symmetry_space_group_name_H-M	'P1'
_symmetry_Int_Tables_number	1
_symmetry_cell_setting	triclinic
loop_
_symmetry_equiv_pos_as_xyz
  x,y,z
_cell_length_a	16.120530
_cell_length_b	12.645330
_cell_length_c	16.120297
_cell_angle_alpha	92.876762
_cell_angle_beta	90.128140
_cell_angle_gamma	87.113442
loop_
_atom_site_label
_atom_site_type_symbol
_atom_site_fract_x
_atom_site_fract_y
_atom_site_fract_z
Zn1	Zn	1.247482	-0.537081	-0.534595
Zn2	Zn	1.254445	-0.705843	-0.395547
Zn3	Zn	1.115471	-0.519167	-0.388512
Zn4	Zn	1.108402	-0.704866	-0.527517
O5	O	1.181450	-0.616739	-0.461543
O6	O	1.364772	-0.567373	-0.522057
O7	O	1.241883	-0.673991	-0.278248
O8	O	1.133026	-0.373200	-0.407909
O9	O	1.369888	-0.691362	-0.419899
O10	O	1.230014	-0.386361	-0.515235
O11	O	1.139779	-0.536842	-0.273080
O12	O	0.998166	-0.535895	-0.401045
O13	O	1.120978	-0.689698	-0.644821
O14	O	0.992972	-0.672327	-0.503171
O15	O	1.223160	-0.566427	-0.650022
O16	O	1.235028	-0.854056	-0.413035
O17	O	1.127731	-0.853339	-0.509992
C18	C	0.965397	-0.602062	-0.450577
C19	C	0.872967	-0.595810	-0.445905
C20	C	0.703737	-0.584371	-0.437383
C21	C	0.660000	-0.649190	-0.485763
C22	C	0.565835	-0.642825	-0.481022
C23	C	0.797911	-0.590734	-0.442124
C24	C	1.181390	-0.892164	-0.461528
C25	C	1.181439	-1.009999	-0.461554
C26	C	1.114193	-1.177186	-0.522761
C27	C	1.113876	-1.054592	-0.522537
C28	C	1.162161	-1.047614	-0.372717
C29	C	1.161751	-1.170210	-0.373088
C30	C	1.268390	-1.184441	-0.488492
C31	C	1.267753	-1.061915	-0.490381
C32	C	1.398347	-0.631475	-0.472552
C33	C	1.490775	-0.637754	-0.477244
C34	C	1.170504	-0.629952	-0.678438
C35	C	1.165839	-0.635582	-0.770865
C36	C	1.181532	-0.340242	-0.461577
C37	C	1.181567	-0.222415	-0.461592
C38	C	1.157292	-0.645836	-0.940091
C39	C	1.205771	-0.587337	-0.983855
C40	C	1.201016	-0.593042	-1.078018
C41	C	1.162047	-0.640132	-0.845919
C42	C	1.192401	-0.603505	-0.245494
C43	C	1.197227	-0.597587	-0.153075
H44	H	1.125592	-1.211590	-0.588700
H45	H	1.050134	-1.202791	-0.504798
C46	C	1.096412	-0.719301	-0.984998
C47	C	1.002464	-0.703555	-0.968352
C48	C	0.941591	-0.777029	-1.013268
C49	C	0.974665	-0.866249	-1.074830
C50	C	1.068617	-0.881999	-1.091479
C51	C	1.129491	-0.808525	-1.046563
H52	H	0.977977	-0.637505	-0.922778
H53	H	0.872041	-0.765369	-1.000944
H54	H	0.929603	-0.920639	-1.108080
H55	H	1.093105	-0.948048	-1.137053
H56	H	1.199040	-0.820184	-1.058887
H57	H	1.049419	-1.020022	-0.504364
H58	H	0.693277	-0.709462	-0.530745
H59	H	0.670462	-0.524103	-0.392405
C60	C	1.225481	-1.210260	-0.309086
C61	C	1.298564	-1.286611	-0.337346
C62	C	1.362287	-1.326652	-0.273338
C63	C	1.352929	-1.290341	-0.181070
C64	C	1.279843	-1.213985	-0.152805
C65	C	1.216119	-1.173945	-0.216813
H66	H	1.305494	-1.313495	-0.405652
H67	H	1.416390	-1.383175	-0.294262
H68	H	1.400101	-1.319981	-0.133688
H69	H	1.272912	-1.187102	-0.084499
H70	H	1.162016	-1.117421	-0.195889
C71	C	1.129419	-1.020583	-0.611345
C72	C	1.142212	-1.105048	-0.682965
C73	C	1.157728	-1.071044	-0.771782
C74	C	1.160452	-0.952575	-0.788979
C75	C	1.147659	-0.868102	-0.717357
C76	C	1.132143	-0.902106	-0.628540
H77	H	1.140196	-1.192753	-0.670236
H78	H	1.167199	-1.133577	-0.824800
H79	H	1.171938	-0.927403	-0.854726
H80	H	1.149675	-0.780398	-0.730085
H81	H	1.122672	-0.839573	-0.575521
H82	H	1.250846	-0.532968	-0.950605
H83	H	1.098415	-1.193374	-0.350817
C84	C	1.226612	-1.008283	-0.309194
C85	C	1.237280	-0.888577	-0.293702
C86	C	1.301732	-0.849244	-0.230181
C87	C	1.355515	-0.929618	-0.182152
C88	C	1.344849	-1.049332	-0.197642
C89	C	1.280397	-1.088664	-0.261163
H90	H	1.197465	-0.829073	-0.329258
H91	H	1.309628	-0.760624	-0.218714
H92	H	1.403227	-0.900502	-0.135129
H93	H	1.384664	-1.108836	-0.162086
H94	H	1.272501	-1.177285	-0.272630
C95	C	1.077523	-0.998843	-0.342209
C96	C	1.025837	-0.924931	-0.397742
C97	C	0.941197	-0.876163	-0.367240
C98	C	0.908243	-0.901306	-0.281205
C99	C	0.959930	-0.975222	-0.225667
C100	C	1.044570	-1.023990	-0.256169
H101	H	1.050231	-0.906314	-0.461435
H102	H	0.902936	-0.821445	-0.408353
H103	H	0.845588	-0.865205	-0.258625
H104	H	0.935536	-0.993838	-0.161974
H105	H	1.082832	-1.078708	-0.215056
H106	H	1.286844	-1.220602	-0.552405
H107	H	1.320237	-1.032010	-0.449427
C108	C	1.287505	-1.029510	-0.578732
C109	C	1.300725	-1.114988	-0.649560
C110	C	1.320471	-1.082576	-0.737913
C111	C	1.326996	-0.964688	-0.755437
C112	C	1.313776	-0.879202	-0.684607
C113	C	1.294030	-0.911613	-0.596255
H114	H	1.295895	-1.202263	-0.636589
H115	H	1.330258	-1.145859	-0.790345
H116	H	1.341613	-0.940695	-0.820841
H117	H	1.318606	-0.791927	-0.697579
H118	H	1.284243	-0.848331	-0.543822
H119	H	1.318531	-1.213794	-0.443994
