data_functionalizedCrystal
_audit_creation_method	'MofGen! by Chris Wilmer'
_symmetry_space_group_name_H-M	'P1'
_symmetry_Int_Tables_number	1
_symmetry_cell_setting	triclinic
loop_
_symmetry_equiv_pos_as_xyz
  x,y,z
_cell_length_a	27.780882
_cell_length_b	27.780884
_cell_length_c	27.780936
_cell_angle_alpha	90.002261
_cell_angle_beta	59.997799
_cell_angle_gamma	119.999789
loop_
_atom_site_label
_atom_site_type_symbol
_atom_site_fract_x
_atom_site_fract_y
_atom_site_fract_z
O1	O	0.424592	-0.330213	-0.014321
O2	O	0.326022	-0.260214	0.014251
O3	O	0.424588	-0.260214	-0.084318
O4	O	0.326026	-0.330213	0.084247
O5	O	0.344528	-0.340274	-0.084318
O6	O	0.245962	-0.340274	0.014251
O7	O	0.344532	-0.410273	-0.014321
Zn8	Zn	0.282536	-0.387985	-0.000035
Zn9	Zn	0.388018	-0.282503	-0.000035
O10	O	0.245966	-0.410273	0.084248
C11	C	0.177734	-0.120430	0.029862
C12	C	0.211527	-0.056934	0.025772
C13	C	0.119397	-0.149664	0.030267
C14	C	0.177730	-0.207598	0.029867
C15	C	0.211519	-0.237303	0.025783
C16	C	0.119393	-0.236700	0.030273
C17	C	0.090568	-0.207596	0.029862
C18	C	0.031162	-0.237298	0.025772
C19	C	0.206427	-0.149666	0.030273
C20	C	-0.016831	-0.261295	0.022466
C21	C	0.238829	-0.005636	0.022467
C22	C	0.238818	-0.261301	0.022482
C23	C	-0.077040	-0.291400	0.018321
C24	C	0.273079	0.058719	0.018322
C25	C	0.273065	-0.291409	0.018343
O26	O	-0.234707	-0.410266	-0.014339
O27	O	-0.094711	-0.340265	0.014229
O28	O	-0.094704	-0.340270	-0.084338
O29	O	-0.234714	-0.410261	0.084228
O30	O	-0.094701	-0.260209	-0.084343
O31	O	-0.094708	-0.260204	0.014225
O32	O	-0.234704	-0.330205	-0.014344
Zn33	Zn	-0.164706	-0.282493	-0.000061
Zn34	Zn	-0.164709	-0.387977	-0.000054
O35	O	-0.234711	-0.330200	0.084223
C36	C	0.492828	-0.207603	-0.372394
C37	C	0.459037	-0.237307	-0.402098
C38	C	0.551166	-0.149673	-0.401496
C39	C	0.492828	-0.207604	-0.285228
C40	C	0.459036	-0.237307	-0.221733
C41	C	0.551166	-0.149673	-0.314463
C42	C	0.579994	-0.120438	-0.372393
C43	C	0.639400	-0.056943	-0.402096
C44	C	0.464132	-0.236706	-0.314464
C45	C	0.687394	-0.005646	-0.426092
C46	C	0.431736	-0.261304	-0.426095
C47	C	0.431736	-0.261304	-0.170435
C48	C	0.747605	0.058709	-0.456197
C49	C	0.397486	-0.291409	-0.456201
C50	C	0.397486	-0.291410	-0.106080
C51	C	0.580008	-0.462879	-0.029964
C52	C	0.639417	-0.433174	-0.025878
C53	C	0.551182	-0.520809	-0.030373
C54	C	0.492839	-0.462880	-0.029960
C55	C	0.459045	-0.433178	-0.025869
C56	C	0.464144	-0.520811	-0.030368
C57	C	0.492842	-0.550045	-0.029964
C58	C	0.459052	-0.613540	-0.025878
C59	C	0.551178	-0.433777	-0.030369
C60	C	0.431752	-0.664837	-0.022575
C61	C	0.687412	-0.409177	-0.022576
C62	C	0.431742	-0.409182	-0.022562
C63	C	0.397504	-0.729192	-0.018433
C64	C	0.747625	-0.379070	-0.018434
C65	C	0.397490	-0.379077	-0.018415
O66	O	0.344549	0.249047	-0.014343
O67	O	0.245980	0.080483	0.014226
O68	O	0.344550	0.179042	-0.084342
O69	O	0.245978	0.150488	0.084224
O70	O	0.424607	0.179040	-0.084336
O71	O	0.326036	0.080480	0.014231
O72	O	0.424605	0.249045	-0.014338
Zn73	Zn	0.388031	0.164762	-0.000053
Zn74	Zn	0.282554	0.164766	-0.000059
O75	O	0.326034	0.150486	0.084230
O76	O	0.905273	0.249033	-0.494995
O77	O	0.765273	0.080470	-0.425001
O78	O	0.765270	0.179032	-0.424994
O79	O	0.905276	0.150471	-0.495003
O80	O	0.765272	0.179034	-0.505055
O81	O	0.765275	0.080472	-0.505062
O82	O	0.905275	0.249035	-0.575056
Zn83	Zn	0.835275	0.164754	-0.552770
Zn84	Zn	0.835273	0.164751	-0.447287
O85	O	0.905278	0.150473	-0.575063
O86	O	0.326020	-0.330218	-0.575063
O87	O	0.424588	-0.260215	-0.505065
O88	O	0.326020	-0.260217	-0.505059
O89	O	0.424589	-0.330216	-0.575069
O90	O	0.245961	-0.340275	-0.425000
O91	O	0.344530	-0.340273	-0.425006
O92	O	0.245962	-0.410276	-0.495003
Zn93	Zn	0.282535	-0.387986	-0.447293
Zn94	Zn	0.388015	-0.282505	-0.552775
O95	O	0.344531	-0.410274	-0.495009
C96	C	0.090559	-0.550051	0.372323
C97	C	0.031152	-0.613546	0.402025
C98	C	0.119386	-0.520817	0.401426
C99	C	0.177725	-0.462885	0.285158
C100	C	0.211517	-0.433181	0.221663
C101	C	0.206420	-0.433783	0.314394
C102	C	0.177724	-0.462886	0.372324
C103	C	0.211515	-0.433183	0.402029
C104	C	0.119387	-0.520816	0.314392
C105	C	0.238815	-0.409187	0.426026
C106	C	-0.016842	-0.664843	0.426021
C107	C	0.238818	-0.409184	0.170365
C108	C	0.273064	-0.379082	0.456133
C109	C	-0.077053	-0.729198	0.456125
C110	C	0.273068	-0.379078	0.106010
C111	C	0.177761	-0.120445	-0.372420
C112	C	0.211554	-0.056951	-0.402125
C113	C	0.206457	-0.149682	-0.401521
C114	C	0.090590	-0.207608	-0.285252
C115	C	0.031179	-0.237308	-0.221756
C116	C	0.119418	-0.236712	-0.314485
C117	C	0.177759	-0.207612	-0.372416
C118	C	0.211551	-0.237318	-0.402117
C119	C	0.119420	-0.149677	-0.314489
C120	C	0.238852	-0.261316	-0.426113
C121	C	0.238857	-0.005654	-0.426124
C122	C	-0.016817	-0.261303	-0.170458
C123	C	0.273102	-0.291424	-0.456216
C124	C	0.273109	0.058701	-0.456232
C125	C	-0.077032	-0.291406	-0.106103
C126	C	-0.507174	-0.462860	0.372301
C127	C	-0.540966	-0.433155	0.402003
C128	C	-0.535872	-0.520790	0.401406
C129	C	-0.420004	-0.462864	0.285137
C130	C	-0.360594	-0.433163	0.221642
C131	C	-0.448834	-0.520794	0.314373
C132	C	-0.507175	-0.550027	0.372304
C133	C	-0.540968	-0.613521	0.402010
C134	C	-0.448833	-0.433760	0.314371
C135	C	-0.568270	-0.664818	0.426008
C136	C	-0.568268	-0.409157	0.425999
C137	C	-0.312597	-0.409168	0.170343
C138	C	-0.602522	-0.729173	0.456115
C139	C	-0.602518	-0.379050	0.456103
C140	C	-0.252383	-0.379064	0.105988
C141	C	0.580005	0.194619	-0.372405
C142	C	0.639409	0.190525	-0.402104
C143	C	0.551178	0.195023	-0.401510
C144	C	0.492843	0.194635	-0.285245
C145	C	0.459054	0.190558	-0.221751
C146	C	0.464149	0.195039	-0.314482
C147	C	0.492843	0.194621	-0.372410
C148	C	0.459052	0.190530	-0.402115
C149	C	0.551179	0.195036	-0.314476
C150	C	0.431752	0.187222	-0.426113
C151	C	0.687401	0.187216	-0.426097
C152	C	0.431754	0.187263	-0.170455
C153	C	0.397503	0.183075	-0.456220
C154	C	0.747609	0.183066	-0.456199
C155	C	0.397506	0.183130	-0.106101
O156	O	0.424649	0.249027	-0.575092
O157	O	0.326070	0.080461	-0.505095
O158	O	0.424629	0.179018	-0.505082
O159	O	0.326090	0.150471	-0.575105
O160	O	0.344563	0.179021	-0.425026
O161	O	0.246004	0.080464	-0.425039
O162	O	0.344583	0.249030	-0.495036
Zn163	Zn	0.282581	0.164748	-0.447327
Zn164	Zn	0.388072	0.164744	-0.552804
O165	O	0.246024	0.150474	-0.495049
C166	C	0.177742	0.134906	0.372298
C167	C	0.211532	0.138997	0.402003
C168	C	0.119406	0.134505	0.401398
C169	C	0.177741	0.134893	0.285133
C170	C	0.211531	0.138970	0.221639
C171	C	0.119406	0.134492	0.314364
C172	C	0.090580	0.134909	0.372293
C173	C	0.031176	0.139004	0.401992
C174	C	0.206435	0.134489	0.314370
C175	C	-0.016815	0.142313	0.425985
C176	C	0.238832	0.142304	0.426002
C177	C	0.238831	0.142265	0.170343
C178	C	-0.077023	0.146464	0.456086
C179	C	0.273081	0.146451	0.456109
C180	C	0.273079	0.146398	0.105989
H181	H	0.095271	-0.126191	0.030925
O182	O	-0.419957	-0.548740	0.286397
C183	C	-0.352575	-0.517180	0.270059
H184	H	-0.346980	-0.489276	0.299478
H185	H	-0.315958	-0.487268	0.222103
C186	C	-0.342865	-0.595079	0.241120
C187	C	-0.335995	-0.560810	0.277257
H188	H	-0.332636	-0.621991	0.245557
H189	H	-0.388261	-0.616341	0.252125
H190	H	-0.312350	-0.570146	0.201160
H191	H	-0.366516	-0.585742	0.317216
H192	H	-0.290604	-0.539553	0.266258
H193	H	0.095249	-0.544287	0.449028
H194	H	0.095280	0.133853	0.448996
O195	O	0.580045	-0.548728	-0.031150
C196	C	0.637836	-0.510477	-0.031439
H197	H	0.633207	-0.475466	-0.012392
H198	H	0.685508	-0.488259	-0.078623
C199	C	0.648506	-0.589003	-0.017139
C200	C	0.642817	-0.546004	0.006259
H201	H	0.651581	-0.610917	0.006112
H202	H	0.609573	-0.614773	-0.016947
H203	H	0.688233	-0.570481	-0.056459
H204	H	0.603087	-0.564527	0.045575
H205	H	0.681744	-0.520238	0.006074
O206	O	0.408170	0.195858	-0.286411
C207	C	0.388893	0.196116	-0.228897
H208	H	0.434712	0.214205	-0.227088
H209	H	0.346718	0.149225	-0.196461
C210	C	0.306641	0.213087	-0.214552
C211	C	0.362917	0.235310	-0.212332
H212	H	0.290615	0.237261	-0.204331
H213	H	0.319626	0.212911	-0.253299
H214	H	0.271502	0.174012	-0.187521
H215	H	0.398058	0.274381	-0.239367
H216	H	0.349938	0.235493	-0.173588
H217	H	0.253368	-0.126194	0.030932
H218	H	0.575284	-0.126201	-0.290985
H219	H	0.095257	-0.544288	0.290923
O220	O	0.579848	-0.121747	-0.458272
C221	C	0.541879	-0.159994	-0.477809
H222	H	0.487829	-0.195015	-0.438166
H223	H	0.566853	-0.182200	-0.503284
C224	C	0.606067	-0.081455	-0.566979
C225	C	0.539680	-0.124465	-0.518289
H226	H	0.604713	-0.059539	-0.591952
H227	H	0.631650	-0.055687	-0.553818
H228	H	0.626872	-0.099966	-0.588202
H229	H	0.518880	-0.105953	-0.497064
H230	H	0.514094	-0.150229	-0.531447
O231	O	0.408218	-0.548756	-0.031262
C232	C	0.423433	-0.517197	-0.082301
H233	H	0.480755	-0.489296	-0.117321
H234	H	0.405393	-0.487282	-0.070957
C235	C	0.316587	-0.595094	-0.063056
C236	C	0.386990	-0.560829	-0.106071
H237	H	0.294106	-0.622007	-0.077718
H238	H	0.306335	-0.616355	-0.028669
H239	H	0.301563	-0.570158	-0.053607
H240	H	0.402015	-0.585764	-0.115514
H241	H	0.397245	-0.539573	-0.140461
O242	O	0.580030	0.195774	-0.458285
C243	C	0.637813	0.196051	-0.477819
H244	H	0.633188	0.177023	-0.438174
H245	H	0.685493	0.243228	-0.503291
C246	C	0.648452	0.181698	-0.566994
C247	C	0.642769	0.158323	-0.518302
H248	H	0.651512	0.158429	-0.591968
H249	H	0.609524	0.181514	-0.553835
H250	H	0.688186	0.221012	-0.588214
H251	H	0.603032	0.119013	-0.497079
H252	H	0.681691	0.158500	-0.531458
O253	O	0.262354	-0.376967	0.286413
C254	C	0.247160	-0.341127	0.270062
H255	H	0.189841	-0.363413	0.299478
H256	H	0.265202	-0.334431	0.222106
C257	C	0.354019	-0.253546	0.241114
C258	C	0.283620	-0.280916	0.277247
H259	H	0.376511	-0.216404	0.245544
H260	H	0.364257	-0.277692	0.252128
H261	H	0.369045	-0.247971	0.201154
H262	H	0.268594	-0.286497	0.317206
H263	H	0.273380	-0.256770	0.266241
H264	H	-0.582816	-0.544257	0.449005
O265	O	0.090532	-0.293504	-0.286407
C266	C	0.032766	-0.313028	-0.228891
H267	H	0.012866	-0.285301	-0.227085
H268	H	0.047231	-0.308299	-0.196461
C269	C	0.001451	-0.412250	-0.214530
C270	C	-0.022994	-0.378199	-0.212313
H271	H	-0.032944	-0.452451	-0.204302
H272	H	0.040370	-0.399097	-0.253279
H273	H	0.013504	-0.408303	-0.187505
H274	H	-0.035039	-0.382141	-0.239343
H275	H	-0.061917	-0.391355	-0.173568
O276	O	0.090719	-0.293459	0.030976
C277	C	0.138288	-0.296688	-0.019544
H278	H	0.192031	-0.257572	-0.036939
H279	H	0.128927	-0.295640	-0.054956
C280	C	0.064291	-0.402512	0.017970
C281	C	0.130299	-0.354471	-0.003393
H282	H	0.059361	-0.438156	0.027931
H283	H	0.032241	-0.400337	0.052005
H284	H	0.056498	-0.401631	-0.011544
H285	H	0.138088	-0.355349	0.026123
H286	H	0.162350	-0.356648	-0.037423
O287	O	0.580063	0.195849	-0.286566
C288	C	0.637823	0.196088	-0.324799
H289	H	0.657725	0.214174	-0.372428
H290	H	0.623351	0.149192	-0.315053
C291	C	0.669137	0.213055	-0.256892
C292	C	0.693585	0.235273	-0.315391
H293	H	0.703534	0.237223	-0.251087
H294	H	0.630222	0.212892	-0.231132
H295	H	0.657078	0.173975	-0.248776
H296	H	0.705636	0.274349	-0.323503
H297	H	0.732504	0.235444	-0.341152
H298	H	0.095283	0.133836	0.290888
O299	O	-0.420111	-0.376966	0.286462
C300	C	-0.458101	-0.357437	0.324699
H301	H	-0.487642	-0.385165	0.372327
H302	H	-0.495252	-0.362158	0.314955
C303	C	-0.373226	-0.258215	0.256794
C304	C	-0.409504	-0.292268	0.315291
H305	H	-0.343250	-0.218015	0.250989
H306	H	-0.347632	-0.271372	0.231032
H307	H	-0.404191	-0.262156	0.248681
H308	H	-0.378539	-0.288332	0.323401
H309	H	-0.435092	-0.279109	0.341054
H310	H	0.253386	0.133843	0.290899
H311	H	0.575304	-0.386180	-0.031019
O312	O	0.408118	-0.293484	-0.286541
C313	C	0.388822	-0.313002	-0.324769
H314	H	0.434649	-0.285311	-0.372401
H315	H	0.346696	-0.308218	-0.315049
C316	C	0.306459	-0.412203	-0.256813
C317	C	0.362747	-0.378195	-0.315316
H318	H	0.290371	-0.452418	-0.250981
H319	H	0.319457	-0.399053	-0.231057
H320	H	0.271361	-0.408210	-0.248720
H321	H	0.397847	-0.382183	-0.323406
H322	H	0.349754	-0.391347	-0.341074
O323	O	0.262485	-0.121588	-0.458294
C324	C	0.281748	-0.064082	-0.477831
H325	H	0.261123	-0.049677	-0.438188
H326	H	0.260056	-0.063576	-0.503315
C327	C	0.385286	-0.039097	-0.566992
C328	C	0.359958	-0.021403	-0.518301
H329	H	0.433529	-0.012771	-0.591957
H330	H	0.372307	-0.077842	-0.553830
H331	H	0.367202	-0.038676	-0.588221
H332	H	0.378035	-0.021832	-0.497068
H333	H	0.372942	0.017342	-0.531459
H334	H	0.095296	-0.126201	-0.291020
