data_functionalizedCrystal
_audit_creation_method	'MofGen! by Chris Wilmer'
_symmetry_space_group_name_H-M	'P1'
_symmetry_Int_Tables_number	1
_symmetry_cell_setting	triclinic
loop_
_symmetry_equiv_pos_as_xyz
  x,y,z
_cell_length_a	17.077404
_cell_length_b	18.101395
_cell_length_c	17.077396
_cell_angle_alpha	89.972533
_cell_angle_beta	89.980223
_cell_angle_gamma	90.026490
loop_
_atom_site_label
_atom_site_type_symbol
_atom_site_fract_x
_atom_site_fract_y
_atom_site_fract_z
Zn1	Zn	1.200010	-0.294921	-0.443854
Zn2	Zn	1.533343	0.038413	-0.110521
Zn3	Zn	1.866676	0.371746	0.222813
Zn4	Zn	1.199898	-0.418769	-0.312590
Zn5	Zn	1.533231	-0.085436	0.020743
Zn6	Zn	1.866565	0.247897	0.354076
Zn7	Zn	1.068742	-0.294936	-0.312601
Zn8	Zn	1.402075	0.038397	0.020732
Zn9	Zn	1.735408	0.371730	0.354065
Zn10	Zn	1.068691	-0.418715	-0.443813
Zn11	Zn	1.402024	-0.085382	-0.110480
Zn12	Zn	1.735357	0.247952	0.222853
O13	O	1.134335	-0.356835	-0.378215
O14	O	1.467668	-0.023502	-0.044881
O15	O	1.801002	0.309831	0.288452
O16	O	1.309842	-0.311366	-0.426454
O17	O	1.643175	0.021967	-0.093121
O18	O	1.976509	0.355301	0.240213
O19	O	1.182474	-0.402372	-0.202745
O20	O	1.515808	-0.069039	0.130589
O21	O	1.849141	0.264295	0.463922
O22	O	1.086223	-0.191301	-0.330034
O23	O	1.419556	0.142032	0.003299
O24	O	1.752889	0.475365	0.336633
O25	O	1.309760	-0.402357	-0.330015
O26	O	1.643093	-0.069024	0.003318
O27	O	1.976426	0.264310	0.336652
O28	O	1.182665	-0.191290	-0.426465
O29	O	1.515998	0.142043	-0.093131
O30	O	1.849331	0.475377	0.240202
O31	O	1.086114	-0.311392	-0.202753
O32	O	1.419448	0.021941	0.130580
O33	O	1.752781	0.355274	0.463914
O34	O	0.958888	-0.311340	-0.329994
O35	O	1.292221	0.021994	0.003339
O36	O	1.625555	0.355327	0.336672
O37	O	1.086136	-0.402264	-0.553666
O38	O	1.419469	-0.068931	-0.220332
O39	O	1.752803	0.264402	0.113001
O40	O	0.958851	-0.402279	-0.426395
O41	O	1.292184	-0.068946	-0.093062
O42	O	1.625517	0.264387	0.240271
O43	O	1.182616	-0.311313	-0.553696
O44	O	1.515949	0.022020	-0.220362
O45	O	1.849282	0.355354	0.112971
O46	O	1.182425	-0.522395	-0.329976
O47	O	1.515758	-0.189062	0.003358
O48	O	1.849092	0.144272	0.336691
O49	O	1.086028	-0.522355	-0.426385
O50	O	1.419361	-0.189022	-0.093051
O51	O	1.752694	0.144312	0.240282
C52	C	0.930387	-0.356806	-0.378192
C53	C	1.263721	-0.023472	-0.044859
C54	C	1.597054	0.309861	0.288475
C55	C	0.843137	-0.356811	-0.378201
C56	C	1.176471	-0.023478	-0.044868
C57	C	1.509804	0.309856	0.288466
C58	C	0.467324	-0.404294	-0.428354
C59	C	0.800657	-0.070960	-0.095021
C60	C	1.133991	0.262373	0.238312
C61	C	0.549305	-0.404284	-0.428342
C62	C	0.882638	-0.070951	-0.095009
C63	C	1.215971	0.262383	0.238324
C64	C	0.590288	-0.356855	-0.378227
C65	C	0.923622	-0.023522	-0.044894
C66	C	1.256955	0.309812	0.288439
C67	C	0.549288	-0.309438	-0.328115
C68	C	0.882621	0.023895	0.005218
C69	C	1.215954	0.357229	0.338551
C70	C	0.467309	-0.309452	-0.328124
C71	C	0.800642	0.023881	0.005210
C72	C	1.133975	0.357215	0.338543
C73	C	0.720158	-0.309411	-0.328102
C74	C	1.053491	0.023922	0.005231
C75	C	1.386824	0.357256	0.338564
C76	C	0.802142	-0.309396	-0.328095
C77	C	1.135476	0.023937	0.005239
C78	C	1.468809	0.357271	0.338572
C79	C	0.802154	-0.404243	-0.428321
C80	C	1.135487	-0.070910	-0.094987
C81	C	1.468820	0.262424	0.238346
C82	C	0.720175	-0.404257	-0.428329
C83	C	1.053508	-0.070924	-0.094996
C84	C	1.386841	0.262410	0.238337
C85	C	0.679179	-0.356839	-0.378218
C86	C	1.012513	-0.023505	-0.044885
C87	C	1.345846	0.309828	0.288449
C88	C	1.134230	-0.549246	-0.378192
C89	C	1.467563	-0.215913	-0.044858
C90	C	1.800897	0.117421	0.288475
C91	C	1.134257	-0.631560	-0.378208
C92	C	1.467590	-0.298227	-0.044875
C93	C	1.800924	0.035107	0.288459
C94	C	1.134429	-0.930651	-0.378250
C95	C	1.467762	-0.597318	-0.044917
C96	C	1.801096	-0.263984	0.288416
C97	C	1.073919	-0.899331	-0.439059
C98	C	1.407252	-0.565998	-0.105725
C99	C	1.740586	-0.232665	0.227608
C100	C	1.073632	-0.813714	-0.438869
C101	C	1.406965	-0.480380	-0.105535
C102	C	1.740298	-0.147047	0.227798
C103	C	1.134344	-0.782268	-0.378230
C104	C	1.467677	-0.448935	-0.044897
C105	C	1.801010	-0.115602	0.288437
C106	C	1.111947	-0.813418	-0.295500
C107	C	1.445280	-0.480085	0.037833
C108	C	1.778613	-0.146752	0.371166
C109	C	1.111557	-0.899063	-0.295864
C110	C	1.444890	-0.565730	0.037469
C111	C	1.778223	-0.232397	0.370802
C112	C	1.217469	-0.899001	-0.399443
C113	C	1.550802	-0.565668	-0.066110
C114	C	1.884135	-0.232334	0.267223
C115	C	1.216980	-0.813350	-0.401257
C116	C	1.550314	-0.480016	-0.067924
C117	C	1.883647	-0.146683	0.265409
C118	C	1.134297	-0.698409	-0.378213
C119	C	1.467630	-0.365076	-0.044880
C120	C	1.800963	-0.031742	0.288453
C121	C	1.134474	-1.014510	-0.378261
C122	C	1.467807	-0.681177	-0.044928
C123	C	1.801141	-0.347844	0.288405
C124	C	1.339079	-0.356866	-0.378238
C125	C	1.672413	-0.023532	-0.044905
C126	C	2.005746	0.309801	0.288429
C127	C	1.426329	-0.356879	-0.378248
C128	C	1.759662	-0.023545	-0.044914
C129	C	2.092996	0.309788	0.288419
C130	C	1.134462	-0.163673	-0.378255
C131	C	1.467795	0.169660	-0.044922
C132	C	1.801129	0.502993	0.288412
C133	C	1.134516	-0.081359	-0.378272
C134	C	1.467849	0.251974	-0.044939
C135	C	1.801183	0.585307	0.288394
C136	C	1.134383	-0.356781	-0.582959
C137	C	1.467716	-0.023448	-0.249626
C138	C	1.801049	0.309886	0.083708
C139	C	1.134403	-0.356758	-0.670209
C140	C	1.467736	-0.023424	-0.336876
C141	C	1.801069	0.309909	-0.003542
C142	C	1.184641	-0.309395	-0.711216
C143	C	1.517975	0.023938	-0.377883
C144	C	1.851308	0.357271	-0.044549
C145	C	1.184651	-0.309371	-0.793196
C146	C	1.517984	0.023963	-0.459863
C147	C	1.851318	0.357296	-0.126530
C148	C	1.134425	-0.356713	-0.834168
C149	C	1.467758	-0.023379	-0.500835
C150	C	1.801092	0.309954	-0.167502
C151	C	1.084181	-0.404077	-0.793156
C152	C	1.417514	-0.070743	-0.459822
C153	C	1.750847	0.262590	-0.126489
C154	C	1.084168	-0.404097	-0.711177
C155	C	1.417501	-0.070764	-0.377843
C156	C	1.750835	0.262569	-0.044510
C157	C	1.084212	-0.404032	-0.964026
C158	C	1.417546	-0.070699	-0.630692
C159	C	1.750879	0.262634	-0.297359
C160	C	1.084226	-0.404013	-1.046010
C161	C	1.417559	-0.070680	-0.712677
C162	C	1.750893	0.262654	-0.379344
C163	C	1.184695	-0.309306	-1.046046
C164	C	1.518029	0.024027	-0.712712
C165	C	1.851362	0.357361	-0.379379
C166	C	1.184683	-0.309326	-0.964067
C167	C	1.518016	0.024007	-0.630733
C168	C	1.851349	0.357340	-0.297400
C169	C	1.134439	-0.356692	-0.923059
C170	C	1.467772	-0.023358	-0.589726
C171	C	1.801106	0.309975	-0.256393
C172	C	1.134333	-0.356836	-0.174267
C173	C	1.467666	-0.023503	0.159066
C174	C	1.801000	0.309830	0.492400
C175	C	1.134465	-0.356651	-0.087017
C176	C	1.467798	-0.023318	0.246316
C177	C	1.801131	0.310016	0.579649
H178	H	0.433932	-0.270840	-0.287324
H179	H	0.767265	0.062494	0.046009
H180	H	1.100598	0.395827	0.379343
H181	H	1.012743	-0.920913	-0.425197
H182	H	1.346076	-0.587580	-0.091864
H183	H	1.679409	-0.254247	0.241469
H184	H	1.087644	-0.792650	-0.500212
H185	H	1.420978	-0.459317	-0.166878
H186	H	1.754311	-0.125984	0.166455
H187	H	1.087793	-0.919880	-0.500600
H188	H	1.421126	-0.586547	-0.167267
H189	H	1.754459	-0.253213	0.166066
H190	H	1.225544	-0.270846	-0.677862
H191	H	1.558877	0.062487	-0.344529
H192	H	1.892210	0.395820	-0.011196
H193	H	1.237888	-0.920550	-0.458741
H194	H	1.571221	-0.587217	-0.125408
H195	H	1.904555	-0.253884	0.207925
H196	H	0.835536	-0.442851	-0.469125
H197	H	1.168869	-0.109518	-0.135792
H198	H	1.502202	0.223816	0.197542
H199	H	0.582679	-0.442896	-0.469142
H200	H	0.916012	-0.109562	-0.135809
H201	H	1.249346	0.223771	0.197525
H202	H	0.686808	-0.442874	-0.469141
H203	H	1.020141	-0.109541	-0.135808
H204	H	1.353474	0.223792	0.197526
H205	H	1.012081	-0.793286	-0.424830
H206	H	1.345414	-0.459952	-0.091497
H207	H	1.678747	-0.126619	0.241836
H208	H	1.233870	-0.792988	-0.462142
H209	H	1.567203	-0.459655	-0.128809
H210	H	1.900537	-0.126321	0.204525
H211	H	1.154633	-0.793051	-0.248958
H212	H	1.487966	-0.459718	0.084375
H213	H	1.821299	-0.126385	0.417709
H214	H	1.043326	-0.442561	-1.079368
H215	H	1.376659	-0.109228	-0.746034
H216	H	1.709993	0.224105	-0.412701
H217	H	0.433961	-0.442912	-0.469168
H218	H	0.767294	-0.109579	-0.135835
H219	H	1.100627	0.223755	0.197499
H220	H	1.050855	-0.919102	-0.277912
H221	H	1.384188	-0.585769	0.055421
H222	H	1.717522	-0.252435	0.388755
H223	H	0.835509	-0.270768	-0.287294
H224	H	1.168843	0.062566	0.046039
H225	H	1.502176	0.395899	0.379373
H226	H	0.686782	-0.270796	-0.287298
H227	H	1.020115	0.062537	0.046035
H228	H	1.353449	0.395870	0.379369
H229	H	1.262551	-0.919254	-0.355154
H230	H	1.595884	-0.585921	-0.021821
H231	H	1.929217	-0.252588	0.311513
H232	H	0.582663	-0.270824	-0.287307
H233	H	0.915997	0.062510	0.046026
H234	H	1.249330	0.395843	0.379359
H235	H	1.153718	-0.919784	-0.249012
H236	H	1.487051	-0.586451	0.084321
H237	H	1.820384	-0.253117	0.417654
H238	H	1.225562	-0.270805	-0.826581
H239	H	1.558896	0.062528	-0.493247
H240	H	1.892229	0.395861	-0.159914
H241	H	1.051888	-0.792029	-0.277226
H242	H	1.385222	-0.458696	0.056107
H243	H	1.718555	-0.125362	0.389440
H244	H	1.043251	-0.442657	-0.677790
H245	H	1.376584	-0.109324	-0.344456
H246	H	1.709917	0.224010	-0.011123
H247	H	1.264448	-0.791941	-0.360196
H248	H	1.597782	-0.458608	-0.026863
H249	H	1.931115	-0.125274	0.306471
H250	H	1.225585	-0.270781	-0.930709
H251	H	1.558919	0.062553	-0.597376
H252	H	1.892252	0.395886	-0.264043
H253	H	1.225604	-0.270738	-1.079437
H254	H	1.558937	0.062595	-0.746104
H255	H	1.892271	0.395929	-0.412771
H256	H	1.043287	-0.442591	-0.930640
H257	H	1.376620	-0.109257	-0.597307
H258	H	1.709953	0.224076	-0.263974
H259	H	1.043283	-0.442621	-0.826522
H260	H	1.376616	-0.109287	-0.493188
H261	H	1.709950	0.224046	-0.159855
