data_functionalizedCrystal
_audit_creation_method	'MofGen! by Chris Wilmer'
_symmetry_space_group_name_H-M	'P1'
_symmetry_Int_Tables_number	1
_symmetry_cell_setting	triclinic
loop_
_symmetry_equiv_pos_as_xyz
  x,y,z
_cell_length_a	15.995350
_cell_length_b	15.995350
_cell_length_c	15.072220
_cell_angle_alpha	89.998899
_cell_angle_beta	89.991149
_cell_angle_gamma	96.507625
loop_
_atom_site_label
_atom_site_type_symbol
_atom_site_fract_x
_atom_site_fract_y
_atom_site_fract_z
O1	O	1.110996	-0.107921	-0.073703
O2	O	0.867221	-0.121249	-0.073721
O3	O	0.995772	0.007303	-0.073710
O4	O	0.982444	-0.236472	-0.073713
O5	O	0.995740	0.007296	0.073855
O6	O	0.867189	-0.121256	0.073844
O7	O	1.110964	-0.107928	0.073862
Zn8	Zn	0.989071	-0.114593	0.097283
Zn9	Zn	0.989113	-0.114584	-0.097141
O10	O	0.982413	-0.236480	0.073852
C11	C	0.836010	-0.120701	0.000060
C12	C	0.743060	-0.119049	0.000053
C13	C	0.405312	-0.113117	0.000071
C14	C	0.452746	-0.021565	0.000401
C15	C	0.549436	-0.023217	0.000063
C16	C	0.572873	-0.116060	0.000063
C17	C	0.531804	-0.161212	-0.084201
C18	C	0.435168	-0.158912	-0.084266
C19	C	0.434793	-0.160812	0.083543
C20	C	0.531738	-0.160790	0.084651
C21	C	0.667570	-0.117727	0.000055
C22	C	0.310614	-0.111452	0.000073
C23	C	0.995205	0.038494	0.000070
C24	C	0.993553	0.131444	0.000065
C25	C	1.142175	-0.108476	0.000080
C26	C	1.235125	-0.110127	0.000081
C27	C	0.982980	-0.267671	0.000069
C28	C	0.984631	-0.360621	0.000069
N29	N	0.989049	-0.114599	0.229971
C30	C	0.987621	0.469192	0.000068
C31	C	0.896069	0.421758	-0.000270
C32	C	0.897721	0.325068	0.000063
C33	C	0.990564	0.301631	0.000066
C34	C	1.035702	0.342705	0.084335
C35	C	1.033402	0.439341	0.084405
C36	C	1.035330	0.439707	-0.083404
C37	C	1.035308	0.342761	-0.084518
C38	C	0.992231	0.206934	0.000068
C39	C	0.985956	0.563890	0.000072
N40	N	0.989142	-0.114571	-0.229830
C41	C	0.989112	-0.114580	0.589173
C42	C	0.920095	-0.183135	0.551560
C43	C	0.920254	-0.183385	0.448735
C44	C	0.989080	-0.114590	0.410969
C45	C	1.076445	-0.133671	0.448266
C46	C	1.076058	-0.134159	0.551124
C47	C	0.971542	-0.026741	0.551272
C48	C	0.969537	-0.027327	0.448409
C49	C	0.989067	-0.114593	0.310255
C50	C	0.989130	-0.114579	0.689886
H51	H	0.416873	-0.125979	-0.147255
H52	H	0.560191	-0.129845	-0.146912
N53	N	1.122434	0.482053	0.089496
H54	H	1.129195	0.517927	0.144734
H55	H	1.134709	0.518720	0.035447
N56	N	0.586351	0.024112	-0.080095
H57	H	0.616195	-0.014919	-0.118495
H58	H	0.627751	0.072839	-0.060086
H59	H	0.577852	0.012275	0.060467
H60	H	1.103910	0.328579	0.087471
N61	N	0.567900	-0.117134	0.167229
H62	H	0.556017	-0.056453	0.166697
H63	H	0.630698	-0.119579	0.168847
N64	N	0.428202	0.026908	0.080449
H65	H	0.386093	-0.010004	0.117277
H66	H	0.402266	0.078387	0.060277
N67	N	0.407580	-0.121174	0.168150
H68	H	0.375859	-0.071893	0.153224
H69	H	0.458832	-0.101007	0.204712
N70	N	0.552082	-0.250474	0.091400
H71	H	0.588411	-0.263438	0.039486
H72	H	0.498145	-0.289971	0.090681
H73	H	0.861974	0.297200	0.060568
H74	H	1.091540	-0.198219	0.575106
N75	N	1.031801	0.043418	0.414372
H76	H	1.017671	0.098635	0.439521
H77	H	1.028943	0.045267	0.347472
N78	N	0.392467	-0.247950	-0.089337
H79	H	0.356593	-0.254736	-0.144569
H80	H	0.355802	-0.260213	-0.035281
H81	H	0.909219	-0.008392	0.577258
H82	H	0.859490	0.440293	-0.060701
N83	N	0.392726	-0.250224	0.084316
H84	H	0.408427	-0.280104	0.028749
H85	H	0.329667	-0.249849	0.086658
N86	N	0.426789	0.026693	-0.079189
H87	H	0.441300	-0.003000	-0.135318
H88	H	0.457546	0.085427	-0.078398
N89	N	0.550520	-0.251559	-0.088369
H90	H	0.585886	-0.264119	-0.035547
H91	H	0.582180	-0.260836	-0.144847
H92	H	0.862238	0.296649	-0.060344
H93	H	0.859626	0.441349	0.059819
N94	N	0.989769	0.463588	0.167839
H95	H	0.972205	0.411525	0.204225
H96	H	0.938381	0.491541	0.151437
H97	H	1.004325	0.314320	0.147042
N98	N	0.995706	0.466917	-0.168011
H99	H	0.946423	0.498639	-0.153085
H100	H	0.975545	0.415664	-0.204579
N101	N	1.038205	0.040840	0.583485
H102	H	1.079592	0.014733	0.622438
H103	H	1.010798	0.084073	0.618654
H104	H	0.905271	-0.012846	0.424032
H105	H	1.002306	0.315516	-0.146857
N106	N	1.124994	0.322421	-0.091261
H107	H	1.137950	0.286095	-0.039348
H108	H	1.164489	0.376359	-0.090536
H109	H	1.102831	0.471468	-0.083968
H110	H	0.855314	-0.172016	0.423519
N111	N	0.833793	-0.168334	0.584352
H112	H	0.838592	-0.117048	0.623910
H113	H	0.808542	-0.219054	0.619021
H114	H	1.129029	-0.085068	0.423801
N115	N	0.934772	-0.269003	0.585740
H116	H	0.985929	-0.263687	0.625487
H117	H	0.944212	-0.306955	0.534009
H118	H	0.931473	-0.248570	0.424121
H119	H	1.129019	-0.086195	0.576003
N120	N	1.097453	-0.217556	0.414136
H121	H	1.050506	-0.243313	0.374524
H122	H	1.104306	-0.256306	0.465888
