data_functionalizedCrystal
_audit_creation_method	'MofGen! by Chris Wilmer'
_symmetry_space_group_name_H-M	'P1'
_symmetry_Int_Tables_number	1
_symmetry_cell_setting	triclinic
loop_
_symmetry_equiv_pos_as_xyz
  x,y,z
_cell_length_a	15.698487
_cell_length_b	12.970454
_cell_length_c	12.970454
_cell_angle_alpha	89.998131
_cell_angle_beta	60.001183
_cell_angle_gamma	59.998789
loop_
_atom_site_label
_atom_site_type_symbol
_atom_site_fract_x
_atom_site_fract_y
_atom_site_fract_z
Zr1	Zr	0.932401	0.993216	-0.135304
O2	O	1.110111	0.828593	-0.299918
O3	O	0.754691	1.043682	-0.084845
O4	O	0.932401	1.043683	-0.299929
O5	O	0.932402	0.828590	0.084833
O6	O	0.932402	1.213349	-0.299935
O7	O	0.932401	0.828591	-0.084833
O8	O	0.614511	1.213347	0.084813
O9	O	1.250292	0.828593	-0.299914
O10	O	0.827787	1.191825	-0.063324
O11	O	0.827787	1.065204	0.063300
O12	O	1.037017	1.065205	-0.189935
O13	O	1.037017	0.938584	-0.063310
Zr14	Zr	0.932404	1.263812	0.135286
Zr15	Zr	0.932402	1.263814	-0.135312
Zr16	Zr	0.932403	0.993214	0.135294
Zr17	Zr	1.155974	0.993215	-0.135298
Zr18	Zr	0.708831	1.263813	0.135280
O19	O	1.110114	1.213346	0.084827
O20	O	1.110112	1.213349	-0.299930
O21	O	1.110112	0.828590	0.084838
O22	O	0.754694	1.428435	0.299900
O23	O	0.754693	1.428438	-0.084856
O24	O	0.754693	1.043679	0.299912
O25	O	0.932403	1.428438	-0.084852
O26	O	0.932404	1.213345	0.299911
O27	O	0.932403	1.043679	0.299917
O28	O	0.932404	1.428436	0.084815
O29	O	1.250293	1.043682	-0.299921
O30	O	0.614512	1.213346	0.299903
O31	O	0.614513	1.428435	0.299896
O32	O	0.614512	1.428437	0.084806
O33	O	1.250293	0.828591	-0.084824
O34	O	1.250294	1.043681	-0.084831
O35	O	0.827788	1.191823	0.189916
O36	O	0.827788	1.318444	0.063292
O37	O	1.037018	1.191824	-0.063318
O38	O	1.037018	1.065203	0.063306
C39	C	0.652747	1.128514	-0.000017
C40	C	0.557834	1.128515	-0.000019
C41	C	0.932401	0.790036	0.000001
C42	C	0.932401	0.675160	0.000005
C43	C	0.932401	1.128516	-0.338487
C44	C	0.932401	1.128517	-0.453363
C45	C	0.384051	1.128511	0.000003
C46	C	0.480756	1.128510	-0.000006
C47	C	1.212058	1.128514	-0.000001
C48	C	1.306971	1.128513	0.000001
C49	C	0.932404	1.466992	-0.000019
C50	C	0.932404	1.581868	-0.000023
C51	C	0.932404	1.128512	0.338468
C52	C	0.932404	1.128511	0.453345
C53	C	0.652748	1.466992	-0.000027
C54	C	0.557836	1.581868	-0.000033
C55	C	0.652748	1.128512	0.338461
C56	C	0.557836	1.128511	0.453334
C57	C	0.652750	1.466990	0.338450
C58	C	0.557838	1.581865	0.453320
C59	C	1.212055	0.790038	-0.338468
C60	C	1.306967	0.675163	-0.453338
C61	C	1.212057	0.790036	0.000009
C62	C	1.306969	0.675160	0.000015
C63	C	1.212057	1.128516	-0.338479
C64	C	1.306969	1.128517	-0.453352
C65	C	0.513264	1.569721	-0.066140
C66	C	0.424096	1.677650	-0.066171
C67	C	0.379496	1.797723	-0.000087
C68	C	0.424077	1.809868	0.066021
C69	C	0.513249	1.701941	0.066044
C70	C	0.513265	1.194605	0.573384
C71	C	0.424098	1.194600	0.681330
C72	C	0.379497	1.128507	0.669224
C73	C	0.424077	1.062405	0.549162
C74	C	0.513249	1.062404	0.441218
C75	C	0.513267	1.701918	0.441168
C76	C	0.424099	1.809866	0.549090
C77	C	0.379499	1.797759	0.669164
C78	C	0.424080	1.677693	0.681313
C79	C	0.513251	1.569748	0.573392
C80	C	1.351549	0.555110	-0.441186
C81	C	1.440744	0.447162	-0.549108
C82	C	1.485349	0.459269	-0.669182
C83	C	1.440763	0.579335	-0.681332
C84	C	1.351576	0.687280	-0.573411
C85	C	1.351551	0.687306	0.066111
C86	C	1.440743	0.579378	0.066112
C87	C	1.485346	0.459305	0.000024
C88	C	1.440760	0.447160	-0.066079
C89	C	1.351576	0.555087	-0.066087
C90	C	1.351541	1.194622	-0.441206
C91	C	1.440709	1.194647	-0.549131
C92	C	1.485310	1.128559	-0.669202
C93	C	1.440728	1.062452	-0.681346
C94	C	1.351556	1.062435	-0.573422
H95	H	0.549576	1.471961	-0.119969
H96	H	1.477029	0.589291	0.119946
F97	F	0.560723	1.714833	0.313387
F98	F	1.488245	0.592201	-0.809133
F99	F	0.376666	1.937637	0.536133
F100	F	1.488240	0.319358	-0.136406
F101	F	0.560713	1.264959	0.586297
F102	F	0.560670	0.992060	0.313455
H103	H	0.387749	1.008595	0.539323
F104	F	1.304132	0.542140	-0.136431
H105	H	0.306890	1.885665	0.757030
F106	F	1.580264	0.344449	0.000045
F107	F	1.488215	0.992111	-0.809145
F108	F	1.304100	0.815088	0.136452
F109	F	1.304136	0.992061	-0.586369
H110	H	0.387751	1.907646	0.119824
H111	H	1.315242	1.248439	-0.343448
H112	H	1.557920	1.128583	-0.757071
H113	H	0.306886	1.885594	-0.000115
H114	H	1.477031	0.349410	-0.539191
H115	H	0.387809	1.667737	-0.120004
H116	H	0.549529	1.711849	0.119884
F117	F	0.376665	1.264961	0.809097
H118	H	0.306887	1.128518	0.757129
H119	H	1.476998	1.248478	-0.539219
H120	H	0.387753	1.667853	0.779092
H121	H	0.549530	1.471999	0.583305
H122	H	1.557970	0.371363	-0.757048
F123	F	1.304130	0.815047	-0.586364
F124	F	1.304091	0.542195	-0.313405
