data_functionalizedCrystal
_audit_creation_method	'MofGen! by Chris Wilmer'
_symmetry_space_group_name_H-M	'P1'
_symmetry_Int_Tables_number	1
_symmetry_cell_setting	triclinic
loop_
_symmetry_equiv_pos_as_xyz
  x,y,z
_cell_length_a	13.897449
_cell_length_b	10.686285
_cell_length_c	10.685880
_cell_angle_alpha	89.638885
_cell_angle_beta	85.604544
_cell_angle_gamma	85.632943
loop_
_atom_site_label
_atom_site_type_symbol
_atom_site_fract_x
_atom_site_fract_y
_atom_site_fract_z
Zn1	Zn	1.546595	-0.553658	-0.671069
Zn2	Zn	2.046595	-0.053658	-0.171069
Zn3	Zn	1.544637	-0.747396	-0.445241
Zn4	Zn	2.044637	-0.247396	0.054759
Zn5	Zn	1.372045	-0.537654	-0.461314
Zn6	Zn	1.872045	-0.037654	0.038686
Zn7	Zn	1.396650	-0.763374	-0.654960
Zn8	Zn	1.896650	-0.263374	-0.154960
O9	O	1.464982	-0.650521	-0.558146
O10	O	1.964982	-0.150521	-0.058146
O11	O	1.681319	-0.579369	-0.641127
O12	O	2.181319	-0.079369	-0.141127
O13	O	1.510626	-0.706188	-0.271821
O14	O	2.010626	-0.206188	0.228179
O15	O	1.385722	-0.364233	-0.502606
O16	O	1.885722	0.135767	-0.002606
O17	O	1.679880	-0.721707	-0.475212
O18	O	2.179880	-0.221707	0.024788
O19	O	1.513964	-0.375991	-0.656712
O20	O	2.013964	0.124009	-0.156712
O21	O	1.383823	-0.552092	-0.283630
O22	O	1.883823	-0.052092	0.216370
O23	O	1.240326	-0.567586	-0.486986
O24	O	1.740326	-0.067586	0.013014
O25	O	1.427657	-0.748940	-0.832648
O26	O	1.927657	-0.248940	-0.332648
O27	O	1.258403	-0.733421	-0.629257
O28	O	1.758403	-0.233421	-0.129257
O29	O	1.537821	-0.594862	-0.844483
O30	O	2.037821	-0.094862	-0.344483
O31	O	1.534483	-0.925060	-0.459592
O32	O	2.034483	-0.425060	0.040408
O33	O	1.425758	-0.936799	-0.613672
O34	O	1.925758	-0.436799	-0.113672
C35	C	1.482606	-0.976448	-0.533167
C36	C	1.982606	-0.476448	-0.033167
C37	C	1.490236	-1.115885	-0.522523
C38	C	1.990236	-0.615885	-0.022523
C39	C	1.214365	-0.650502	-0.558118
C40	C	1.714365	-0.150502	-0.058118
C41	C	1.107153	-0.650526	-0.558134
C42	C	1.607153	-0.150526	-0.058134
C43	C	0.910860	-0.650533	-0.558167
C44	C	1.410860	-0.150533	-0.058167
C45	C	1.020091	-0.650525	-0.558145
C46	C	1.520091	-0.150525	-0.058145
C47	C	1.716577	-0.650541	-0.558174
C48	C	2.216577	-0.150541	-0.058174
C49	C	1.823793	-0.650549	-0.558186
C50	C	2.323793	-0.150549	-0.058186
C51	C	1.485702	-0.675469	-0.885357
C52	C	1.985702	-0.175469	-0.385357
C53	C	1.494532	-0.686100	-1.024795
C54	C	1.994532	-0.186100	-0.524795
C55	C	1.447317	-0.323323	-0.583249
C56	C	1.947317	0.176677	-0.083249
C57	C	1.439789	-0.183890	-0.593947
C58	C	1.939789	0.316110	-0.093947
C59	C	1.444393	-0.625579	-0.232214
C60	C	1.944393	-0.125579	0.267786
C61	C	1.435731	-0.614595	-0.092804
C62	C	1.935731	-0.114595	0.407196
H63	H	1.390762	-1.135441	-0.663240
H64	H	1.890762	-0.635441	-0.163240
H65	H	1.539260	-1.164340	-0.453217
H66	H	2.039260	-0.664340	0.046783
C67	C	1.358585	-0.520898	-1.027364
C68	C	1.858585	-0.020898	-0.527364
C69	C	1.349555	-0.510034	-0.883244
C70	C	1.849555	-0.010034	-0.383244
C71	C	1.272408	-0.416336	-0.817794
C72	C	1.772408	0.083664	-0.317794
C73	C	1.204292	-0.333503	-0.896464
C74	C	1.704292	0.166497	-0.396464
C75	C	1.213319	-0.344365	-1.040593
C76	C	1.713319	0.155635	-0.540593
C77	C	1.290466	-0.438063	-1.106042
C78	C	1.790466	0.061937	-0.606042
H79	H	1.399981	-0.571354	-0.825000
H80	H	1.899981	-0.071354	-0.325000
H81	H	1.265726	-0.408296	-0.711100
H82	H	1.765726	0.091704	-0.211100
H83	H	1.147183	-0.264142	-0.848014
H84	H	1.647183	0.235858	-0.348014
H85	H	1.162893	-0.283045	-1.098836
H86	H	1.662893	0.216955	-0.598836
H87	H	1.297148	-0.446103	-1.212736
H88	H	1.797148	0.053897	-0.712736
H89	H	1.551637	-0.755459	-1.073249
H90	H	2.051637	-0.255459	-0.573249
