data_functionalizedCrystal
_audit_creation_method	'MofGen! by Chris Wilmer'
_symmetry_space_group_name_H-M	'P1'
_symmetry_Int_Tables_number	1
_symmetry_cell_setting	triclinic
loop_
_symmetry_equiv_pos_as_xyz
  x,y,z
_cell_length_a	12.811445
_cell_length_b	14.044220
_cell_length_c	11.892095
_cell_angle_alpha	85.756173
_cell_angle_beta	99.333684
_cell_angle_gamma	88.596493
loop_
_atom_site_label
_atom_site_type_symbol
_atom_site_fract_x
_atom_site_fract_y
_atom_site_fract_z
O1	O	1.420300	0.112366	0.239596
O2	O	1.113962	0.128263	0.208197
O3	O	1.262532	-0.017657	0.223414
O4	O	1.271730	0.258286	0.224379
O5	O	1.250143	-0.005509	0.034138
O6	O	1.101573	0.140411	0.018921
O7	O	1.407910	0.124514	0.050320
Zn8	Zn	1.252775	0.134391	0.004569
Zn9	Zn	1.269098	0.118386	0.253949
O10	O	1.259341	0.270434	0.035103
C11	C	1.068326	0.133818	0.109516
C12	C	0.950803	0.132258	0.097470
C13	C	1.252312	-0.046887	0.128363
C14	C	1.240305	-0.152081	0.127131
C15	C	0.743468	0.116101	0.281204
C16	C	0.633044	0.114636	0.269891
C17	C	0.619529	0.127869	0.063530
C18	C	0.729953	0.129335	0.074844
C19	C	0.791918	0.123449	0.183684
C20	C	0.902345	0.124907	0.194997
C21	C	0.888827	0.138147	-0.011362
C22	C	0.778403	0.136682	-0.022676
C23	C	1.218354	-0.344685	0.124897
C24	C	1.303515	-0.402544	0.133630
C25	C	1.291301	-0.509716	0.132387
C26	C	1.230566	-0.237504	0.126140
C27	C	1.453547	0.118959	0.149003
C28	C	1.571071	0.120518	0.161057
C29	C	1.269561	0.299664	0.130157
C30	C	1.281569	0.404857	0.131396
N31	N	1.241642	0.145314	-0.165626
C32	C	1.357699	0.031397	-0.390387
C33	C	1.349926	0.039038	-0.509525
C34	C	1.218317	0.168234	-0.523042
C35	C	1.226091	0.160592	-0.403904
C36	C	1.295785	0.092172	-0.337580
C37	C	1.303563	0.084536	-0.218440
C38	C	1.171950	0.213726	-0.231960
C39	C	1.164177	0.221368	-0.351098
N40	N	1.280238	0.107456	0.424144
H41	H	0.952796	0.120114	0.283621
H42	H	1.107430	0.277072	-0.405113
Br43	Br	1.081552	-0.396275	0.110885
H44	H	1.360314	0.028827	-0.164439
Br45	Br	1.452296	-0.061443	-0.300371
Br46	Br	0.567291	0.104670	0.402244
Br47	Br	1.440326	-0.350956	0.147643
H48	H	1.400341	-0.010452	-0.552516
Br49	Br	1.123722	0.261072	-0.613065
Br50	Br	1.087931	0.296219	-0.160283
H51	H	0.569057	0.132670	-0.025083
Br52	Br	0.827570	0.108095	0.428911
Br53	Br	0.694298	0.144677	-0.170381
Br54	Br	0.954588	0.148099	-0.143719
