data_functionalizedCrystal
_audit_creation_method	'MofGen! by Chris Wilmer'
_symmetry_space_group_name_H-M	'P1'
_symmetry_Int_Tables_number	1
_symmetry_cell_setting	triclinic
loop_
_symmetry_equiv_pos_as_xyz
  x,y,z
_cell_length_a	17.038272
_cell_length_b	14.519709
_cell_length_c	12.996460
_cell_angle_alpha	89.999398
_cell_angle_beta	90.000375
_cell_angle_gamma	92.604149
loop_
_atom_site_label
_atom_site_type_symbol
_atom_site_fract_x
_atom_site_fract_y
_atom_site_fract_z
O1	O	0.102496	-1.231713	0.085433
O2	O	0.352496	-0.981713	0.335433
O3	O	0.602496	-0.731713	0.585433
O4	O	0.852496	-0.481713	0.835433
O5	O	0.114567	-0.964159	0.085465
O6	O	0.364567	-0.714159	0.335465
O7	O	0.614567	-0.464159	0.585465
O8	O	0.864567	-0.214159	0.835465
O9	O	-0.005287	-1.096346	0.085441
O10	O	0.244713	-0.846346	0.335441
O11	O	0.494713	-0.596346	0.585441
O12	O	0.744713	-0.346346	0.835441
O13	O	0.222349	-1.099526	0.085457
O14	O	0.472349	-0.849526	0.335457
O15	O	0.722349	-0.599526	0.585457
O16	O	0.972349	-0.349526	0.835457
O17	O	-0.005280	-1.096328	-0.085693
O18	O	0.244720	-0.846328	0.164307
O19	O	0.494720	-0.596328	0.414307
O20	O	0.744720	-0.346328	0.664307
O21	O	0.114574	-0.964142	-0.085669
O22	O	0.364574	-0.714142	0.164331
O23	O	0.614574	-0.464142	0.414331
O24	O	0.864574	-0.214142	0.664331
O25	O	0.102503	-1.231695	-0.085701
O26	O	0.352503	-0.981695	0.164299
O27	O	0.602503	-0.731695	0.414299
O28	O	0.852503	-0.481695	0.664299
Cu29	Cu	0.108539	-1.097917	-0.101311
Cu30	Cu	0.358539	-0.847917	0.148689
Cu31	Cu	0.608539	-0.597917	0.398689
Cu32	Cu	0.858539	-0.347917	0.648689
Cu33	Cu	0.108531	-1.097938	0.101075
Cu34	Cu	0.358531	-0.847938	0.351075
Cu35	Cu	0.608531	-0.597938	0.601075
Cu36	Cu	0.858531	-0.347938	0.851075
O37	O	0.222356	-1.099508	-0.085677
O38	O	0.472356	-0.849508	0.164323
O39	O	0.722356	-0.599508	0.414323
O40	O	0.972356	-0.349508	0.664323
C41	C	0.114008	-0.929748	-0.000098
C42	C	0.364008	-0.679748	0.249902
C43	C	0.614008	-0.429748	0.499902
C44	C	0.864008	-0.179748	0.749902
C45	C	0.112322	-0.827237	-0.000086
C46	C	0.362322	-0.577237	0.249914
C47	C	0.612322	-0.327237	0.499914
C48	C	0.862322	-0.077237	0.749914
C49	C	-0.034416	-1.093444	-0.000125
C50	C	0.215584	-0.843444	0.249875
C51	C	0.465584	-0.593444	0.499875
C52	C	0.715584	-0.343444	0.749875
C53	C	-0.121223	-1.084814	-0.000124
C54	C	0.128777	-0.834814	0.249876
C55	C	0.378777	-0.584814	0.499876
C56	C	0.628777	-0.334814	0.749876
C57	C	0.103062	-1.266107	-0.000135
C58	C	0.353062	-1.016107	0.249865
C59	C	0.603062	-0.766107	0.499865
C60	C	0.853062	-0.516107	0.749865
C61	C	0.104748	-1.368617	-0.000141
C62	C	0.354748	-1.118617	0.249859
C63	C	0.604748	-0.868617	0.499859
C64	C	0.854748	-0.618617	0.749859
C65	C	-0.171209	-1.164047	-0.000135
C66	C	0.078791	-0.914047	0.249865
C67	C	0.328791	-0.664047	0.499865
C68	C	0.578791	-0.414047	0.749865
C69	C	-0.252773	-1.155933	-0.000124
C70	C	-0.002773	-0.905933	0.249876
C71	C	0.247227	-0.655933	0.499876
C72	C	0.497227	-0.405933	0.749876
C73	C	-0.284349	-1.068585	-0.000110
C74	C	-0.034349	-0.818585	0.249890
C75	C	0.215651	-0.568585	0.499890
C76	C	0.465651	-0.318585	0.749890
C77	C	-0.234357	-0.989347	-0.000097
C78	C	0.015643	-0.739347	0.249903
C79	C	0.265643	-0.489347	0.499903
C80	C	0.515643	-0.239347	0.749903
C81	C	-0.152795	-0.997462	-0.000100
C82	C	0.097205	-0.747462	0.249900
C83	C	0.347205	-0.497462	0.499900
C84	C	0.597205	-0.247462	0.749900
C85	C	-0.530153	-1.039916	-0.000093
C86	C	-0.280153	-0.789916	0.249907
C87	C	-0.030153	-0.539916	0.499907
C88	C	0.219847	-0.289916	0.749907
C89	C	-0.611722	-1.031807	-0.000092
C90	C	-0.361722	-0.781807	0.249908
C91	C	-0.111722	-0.531807	0.499908
C92	C	0.138278	-0.281807	0.749908
C93	C	-0.630132	-1.198394	-0.000118
C94	C	-0.380132	-0.948394	0.249882
C95	C	-0.130132	-0.698394	0.499882
C96	C	0.119868	-0.448394	0.749882
C97	C	-0.548568	-1.206502	-0.000127
C98	C	-0.298568	-0.956502	0.249873
C99	C	-0.048568	-0.706502	0.499873
C100	C	0.201432	-0.456502	0.749873
C101	C	-0.498583	-1.127263	-0.000108
C102	C	-0.248583	-0.877263	0.249892
C103	C	0.001417	-0.627263	0.499892
C104	C	0.251417	-0.377263	0.749892
C105	C	-0.367720	-1.060289	-0.000102
C106	C	-0.117720	-0.810289	0.249898
C107	C	0.132280	-0.560289	0.499898
C108	C	0.382280	-0.310289	0.749898
C109	C	-0.415213	-1.135560	-0.000109
C110	C	-0.165213	-0.885560	0.249891
C111	C	0.084787	-0.635560	0.499891
C112	C	0.334787	-0.385560	0.749891
C113	C	0.251486	-1.102410	-0.000108
C114	C	0.501486	-0.852410	0.249892
C115	C	0.751486	-0.602410	0.499892
C116	C	1.001486	-0.352410	0.749892
C117	C	0.338292	-1.111040	-0.000103
C118	C	0.588292	-0.861040	0.249897
C119	C	0.838292	-0.611040	0.499897
C120	C	1.088292	-0.361040	0.749897
N121	N	0.108544	-1.097909	-0.243658
N122	N	0.358544	-0.847909	0.006342
N123	N	0.608544	-0.597909	0.256342
N124	N	0.858544	-0.347909	0.506342
C125	C	0.106116	-0.451867	-0.000134
C126	C	0.356116	-0.201867	0.249866
C127	C	0.606116	0.048133	0.499866
C128	C	0.856116	0.298133	0.749866
C129	C	0.107839	-0.556307	-0.000120
C130	C	0.357839	-0.306307	0.249880
C131	C	0.607839	-0.056307	0.499880
C132	C	0.857839	0.193693	0.749880
C133	C	0.109219	-0.639549	-0.000109
C134	C	0.359219	-0.389549	0.249891
C135	C	0.609219	-0.139549	0.499891
C136	C	0.859219	0.110451	0.749891
C137	C	0.110942	-0.743995	-0.000098
C138	C	0.360942	-0.493995	0.249902
C139	C	0.610942	-0.243995	0.499902
C140	C	0.860942	0.006005	0.749902
C141	C	0.108546	-1.097913	-0.336764
C142	C	0.358546	-0.847913	-0.086764
C143	C	0.608546	-0.597913	0.163236
C144	C	0.858546	-0.347913	0.413236
C145	C	0.108541	-1.097921	-0.453569
C146	C	0.358541	-0.847921	-0.203569
C147	C	0.608541	-0.597921	0.046431
C148	C	0.858541	-0.347921	0.296431
C149	C	0.108532	-1.097932	-0.546667
C150	C	0.358532	-0.847932	-0.296667
C151	C	0.608532	-0.597932	-0.046667
C152	C	0.858532	-0.347932	0.203333
C153	C	0.108528	-1.097941	-0.663480
C154	C	0.358528	-0.847941	-0.413480
C155	C	0.608528	-0.597941	-0.163480
C156	C	0.858528	-0.347941	0.086520
N157	N	0.108519	-1.097952	0.243422
N158	N	0.358519	-0.847952	0.493422
N159	N	0.608519	-0.597952	0.743422
N160	N	0.858519	-0.347952	0.993422
H161	H	-0.145506	-1.235175	-0.000152
H162	H	0.104494	-0.985175	0.249848
H163	H	0.354494	-0.735175	0.499848
H164	H	0.604494	-0.485175	0.749848
H165	H	-0.293468	-1.220453	-0.000135
H166	H	-0.043468	-0.970453	0.249865
H167	H	0.206532	-0.720453	0.499865
H168	H	0.456532	-0.470453	0.749865
H169	H	-0.489465	-0.975394	-0.000078
H170	H	-0.239465	-0.725394	0.249922
H171	H	0.010535	-0.475394	0.499922
H172	H	0.260535	-0.225394	0.749922
H173	H	-0.522865	-1.277629	-0.000139
H174	H	-0.272865	-1.027629	0.249861
H175	H	-0.022865	-0.777629	0.499861
H176	H	0.227135	-0.527629	0.749861
H177	H	-0.670838	-1.262906	-0.000131
H178	H	-0.420838	-1.012906	0.249869
H179	H	-0.170838	-0.762906	0.499869
H180	H	0.079162	-0.512906	0.749869
C181	C	-0.402462	-0.964208	-0.000109
C182	C	-0.152462	-0.714208	0.249891
C183	C	0.097538	-0.464208	0.499891
C184	C	0.347538	-0.214208	0.749891
N185	N	-0.428633	-0.891840	-0.000118
N186	N	-0.178633	-0.641840	0.249882
N187	N	0.071367	-0.391840	0.499882
N188	N	0.321367	-0.141840	0.749882
C189	C	-0.269093	-0.893263	-0.000090
C190	C	-0.019093	-0.643263	0.249910
C191	C	0.230907	-0.393263	0.499910
C192	C	0.480907	-0.143263	0.749910
N193	N	-0.295256	-0.820890	-0.000093
N194	N	-0.045256	-0.570890	0.249907
N195	N	0.204744	-0.320890	0.499907
N196	N	0.454744	-0.070890	0.749907
H197	H	-0.389500	-1.206678	-0.000097
H198	H	-0.139500	-0.956678	0.249903
H199	H	0.110500	-0.706678	0.499903
H200	H	0.360500	-0.456678	0.749903
H201	H	-0.637427	-0.960675	-0.000098
H202	H	-0.387427	-0.710675	0.249902
H203	H	-0.137427	-0.460675	0.499902
H204	H	0.112573	-0.210675	0.749902
H205	H	-0.112096	-0.932942	-0.000091
H206	H	0.137904	-0.682942	0.249909
H207	H	0.387904	-0.432942	0.499909
H208	H	0.637904	-0.182942	0.749909
