data_functionalizedCrystal
_audit_creation_method	'MofGen! by Chris Wilmer'
_symmetry_space_group_name_H-M	'P1'
_symmetry_Int_Tables_number	1
_symmetry_cell_setting	triclinic
loop_
_symmetry_equiv_pos_as_xyz
  x,y,z
_cell_length_a	14.908571
_cell_length_b	16.959454
_cell_length_c	14.909227
_cell_angle_alpha	86.677455
_cell_angle_beta	83.209827
_cell_angle_gamma	86.716421
loop_
_atom_site_label
_atom_site_type_symbol
_atom_site_fract_x
_atom_site_fract_y
_atom_site_fract_z
Zn1	Zn	1.413376	-0.356324	-0.591543
Zn2	Zn	1.404537	-0.495722	-0.440181
Zn3	Zn	1.253269	-0.356342	-0.431474
Zn4	Zn	1.261976	-0.481241	-0.582782
O5	O	1.333289	-0.422407	-0.511495
O6	O	1.538871	-0.380868	-0.578774
O7	O	1.377128	-0.483300	-0.312357
O8	O	1.274563	-0.245730	-0.452729
O9	O	1.532377	-0.483283	-0.467570
O10	O	1.392192	-0.245717	-0.570331
O11	O	1.265992	-0.380898	-0.305960
O12	O	1.127757	-0.366857	-0.444235
O13	O	1.289403	-0.458603	-0.710613
O14	O	1.134154	-0.458620	-0.555401
O15	O	1.400635	-0.366827	-0.717049
O16	O	1.385571	-0.604410	-0.459075
O17	O	1.280832	-0.593771	-0.563844
C18	C	1.098112	-0.411170	-0.497923
C19	C	0.997503	-0.406381	-0.492138
C20	C	0.815149	-0.493098	-0.596869
C21	C	0.720618	-0.488601	-0.591437
C22	C	0.713910	-0.392884	-0.475847
C23	C	0.808440	-0.397382	-0.481279
C24	C	0.859057	-0.447491	-0.541791
C25	C	0.953589	-0.451993	-0.547218
C26	C	0.946879	-0.356272	-0.431633
C27	C	0.852348	-0.351775	-0.426201
C28	C	1.333213	-0.627771	-0.511475
C29	C	1.333264	-0.715628	-0.511502
C30	C	1.278836	-1.081600	-0.566047
C31	C	1.388001	-1.092618	-0.457050
C32	C	1.387969	-1.010071	-0.457040
C33	C	1.333368	-0.963285	-0.511533
C34	C	1.278800	-0.999045	-0.566036
C35	C	1.442529	-0.974305	-0.402531
C36	C	1.442499	-0.891753	-0.402518
C37	C	1.387902	-0.844965	-0.457016
C38	C	1.333332	-0.880730	-0.511522
C39	C	1.278732	-0.833944	-0.566015
C40	C	1.224166	-0.869707	-0.620527
C41	C	1.224203	-0.952257	-0.620535
C42	C	1.387865	-0.762415	-0.457009
C43	C	1.278696	-0.751389	-0.566005
C44	C	1.569385	-0.433689	-0.525121
C45	C	1.669995	-0.438496	-0.530927
C46	C	1.346976	-0.411098	-0.747593
C47	C	1.352808	-0.406278	-0.848204
C48	C	1.333392	-0.216242	-0.511536
C49	C	1.333436	-0.128387	-0.511553
C50	C	1.418935	-0.351708	-0.993363
C51	C	1.413460	-0.356233	-0.898830
C52	C	1.297630	-0.451803	-0.892118
C53	C	1.303106	-0.447278	-0.986651
C54	C	1.363759	-0.397228	-1.037270
C55	C	1.369229	-0.392698	-1.131804
C56	C	1.253405	-0.488272	-1.125091
C57	C	1.247930	-0.492797	-1.030558
C58	C	1.319708	-0.433618	-0.276318
C59	C	1.314051	-0.438223	-0.175718
H60	H	0.982638	-0.319138	-0.386782
Cl61	Cl	1.155611	-0.997223	-0.689055
H62	H	0.672682	-0.352082	-0.426586
H63	H	0.684873	-0.525737	-0.636289
H64	H	0.811123	-0.310975	-0.376936
H65	H	1.208467	-0.525328	-1.160849
Cl66	Cl	1.210247	-1.126558	-0.634576
H67	H	1.179706	-0.831604	-0.664891
Cl68	Cl	1.456638	-1.151436	-0.388549
H69	H	1.234237	-0.713299	-0.610384
Cl70	Cl	1.456446	-0.717458	-0.388476
Cl71	Cl	1.511171	-1.033124	-0.334036
Cl72	Cl	1.495158	-0.288768	-1.057000
H73	H	1.486929	-0.862639	-0.358133
Cl74	Cl	1.445471	-0.329773	-1.195438
H75	H	1.248256	-0.492557	-0.850888
H76	H	1.198550	-0.533548	-0.989331
Cl77	Cl	1.482829	-0.299008	-0.843635
Cl78	Cl	1.017220	-0.514989	-0.623288
Cl79	Cl	0.878784	-0.556100	-0.672930
