data_functionalizedCrystal
_audit_creation_method	'MofGen! by Chris Wilmer'
_symmetry_space_group_name_H-M	'P1'
_symmetry_Int_Tables_number	1
_symmetry_cell_setting	triclinic
loop_
_symmetry_equiv_pos_as_xyz
  x,y,z
_cell_length_a	27.732048
_cell_length_b	27.732048
_cell_length_c	26.210047
_cell_angle_alpha	90.018945
_cell_angle_beta	89.988763
_cell_angle_gamma	97.357345
loop_
_atom_site_label
_atom_site_type_symbol
_atom_site_fract_x
_atom_site_fract_y
_atom_site_fract_z
O1	O	0.057516	-0.640941	-0.042369
O2	O	0.390850	-0.307608	0.290965
O3	O	0.724183	0.025726	0.624298
O4	O	0.066262	-0.500148	-0.042385
O5	O	0.399595	-0.166814	0.290948
O6	O	0.732928	0.166519	0.624282
O7	O	-0.008508	-0.574917	-0.042367
O8	O	0.324826	-0.241584	0.290967
O9	O	0.658159	0.091749	0.624300
O10	O	0.132286	-0.566172	-0.042387
O11	O	0.465619	-0.232838	0.290946
O12	O	0.798952	0.100495	0.624280
O13	O	-0.008509	-0.574883	0.042491
O14	O	0.324825	-0.241549	0.375825
O15	O	0.658158	0.091784	0.709158
O16	O	0.066261	-0.500113	0.042473
O17	O	0.399594	-0.166780	0.375806
O18	O	0.732928	0.166553	0.709140
O19	O	0.057515	-0.640907	0.042489
O20	O	0.390849	-0.307573	0.375823
O21	O	0.724182	0.025760	0.709156
Cu22	Cu	0.061888	-0.570507	0.050229
Cu23	Cu	0.395221	-0.237173	0.383563
Cu24	Cu	0.728555	0.096160	0.716896
Cu25	Cu	0.061889	-0.570548	-0.050125
Cu26	Cu	0.395222	-0.237214	0.283208
Cu27	Cu	0.728556	0.096119	0.616542
O28	O	0.132285	-0.566137	0.042471
O29	O	0.465618	-0.232804	0.375804
O30	O	0.798952	0.100529	0.709138
C31	C	0.066078	-0.482124	0.000042
C32	C	0.399411	-0.148790	0.333376
C33	C	0.732744	0.184543	0.666709
C34	C	0.065525	-0.428469	0.000036
C35	C	0.398858	-0.095135	0.333370
C36	C	0.732192	0.238198	0.666703
C37	C	-0.026515	-0.574716	0.000064
C38	C	0.306818	-0.241383	0.333397
C39	C	0.640152	0.091950	0.666731
C40	C	-0.080170	-0.574164	0.000068
C41	C	0.253163	-0.240830	0.333401
C42	C	0.586497	0.092503	0.666735
N43	N	0.061887	-0.570482	0.120813
N44	N	0.395220	-0.237148	0.454147
N45	N	0.728554	0.096185	0.787480
C46	C	-0.418985	-0.614867	0.000046
C47	C	-0.085652	-0.281534	0.333380
C48	C	0.247682	0.051799	0.666713
C49	C	-0.620645	-0.612816	0.000039
C50	C	-0.287311	-0.279483	0.333372
C51	C	0.046022	0.053850	0.666706
O52	O	-0.651900	-0.650037	0.000021
O53	O	-0.318567	-0.316704	0.333354
O54	O	0.014766	0.016630	0.666688
N55	N	-0.639768	-0.568481	0.000034
N56	N	-0.306435	-0.235148	0.333368
N57	N	0.026898	0.098186	0.666701
C58	C	-0.608474	-0.524656	0.000028
C59	C	-0.275140	-0.191322	0.333362
C60	C	0.058193	0.142011	0.666695
O61	O	-0.629367	-0.486899	0.000019
O62	O	-0.296033	-0.153565	0.333352
O63	O	0.037300	0.179768	0.666686
C64	C	-0.406815	-0.526707	0.000032
C65	C	-0.073482	-0.193374	0.333365
C66	C	0.259852	0.139960	0.666699
C67	C	-0.387694	-0.571045	0.000042
C68	C	-0.054361	-0.237712	0.333375
C69	C	0.278972	0.095622	0.666709
C70	C	-0.399864	-0.659202	0.000056
C71	C	-0.066530	-0.325868	0.333389
C72	C	0.266803	0.007465	0.666722
C73	C	-0.349452	-0.659714	0.000060
C74	C	-0.016118	-0.326381	0.333394
C75	C	0.317215	0.006953	0.666727
C76	C	-0.318161	-0.615892	0.000056
C77	C	0.015172	-0.282559	0.333389
C78	C	0.348506	0.050775	0.666722
C79	C	-0.337282	-0.571557	0.000046
C80	C	-0.003949	-0.238224	0.333380
C81	C	0.329384	0.095109	0.666713
C82	C	-0.375521	-0.482882	0.000022
C83	C	-0.042188	-0.149549	0.333356
C84	C	0.291145	0.183785	0.666689
C85	C	-0.325104	-0.483399	0.000022
C86	C	0.008229	-0.150065	0.333355
C87	C	0.341563	0.183268	0.666689
C88	C	-0.305983	-0.527737	0.000032
C89	C	0.027350	-0.194404	0.333365
C90	C	0.360683	0.138930	0.666698
C91	C	-0.255580	-0.528247	0.000046
C92	C	0.077754	-0.194914	0.333380
C93	C	0.411087	0.138419	0.666713
N94	N	-0.236456	-0.572583	0.000051
N95	N	0.096877	-0.239249	0.333384
N96	N	0.430211	0.094084	0.666718
C97	C	-0.267747	-0.616405	0.000056
C98	C	0.065587	-0.283072	0.333389
C99	C	0.398920	0.050262	0.666722
C100	C	-0.714348	-0.523582	0.000027
C101	C	-0.381014	-0.190248	0.333361
C102	C	-0.047681	0.143085	0.666694
C103	C	-0.764762	-0.523069	0.000027
C104	C	-0.431429	-0.189735	0.333361
C105	C	-0.098096	0.143598	0.666694
C106	C	-0.776930	-0.611230	0.000037
C107	C	-0.443596	-0.277896	0.333371
C108	C	-0.110263	0.055437	0.666704
C109	C	-0.726514	-0.611742	0.000041
C110	C	-0.393181	-0.278409	0.333374
C111	C	-0.059848	0.054925	0.666708
C112	C	-0.695224	-0.567917	0.000032
C113	C	-0.361891	-0.234583	0.333365
C114	C	-0.028557	0.098750	0.666699
C115	C	-0.161878	-0.617477	0.000066
C116	C	0.171456	-0.284144	0.333399
C117	C	0.504789	0.049189	0.666733
C118	C	-0.111461	-0.617986	0.000073
C119	C	0.221873	-0.284652	0.333406
C120	C	0.555206	0.048681	0.666739
C121	C	-0.099298	-0.529825	0.000060
C122	C	0.234036	-0.196492	0.333393
C123	C	0.567369	0.136842	0.666727
C124	C	-0.149710	-0.529316	0.000056
C125	C	0.183623	-0.195983	0.333389
C126	C	0.516957	0.137350	0.666723
C127	C	-0.180999	-0.573146	0.000057
C128	C	0.152334	-0.239813	0.333391
C129	C	0.485667	0.093520	0.666724
O130	O	-0.224296	-0.491047	0.000059
O131	O	0.109038	-0.157713	0.333392
O132	O	0.442371	0.175620	0.666725
O133	O	-0.246844	-0.654156	0.000054
O134	O	0.086489	-0.320823	0.333387
O135	O	0.419823	0.012510	0.666720
C136	C	-0.469397	-0.614355	0.000042
C137	C	-0.136064	-0.281022	0.333375
C138	C	0.197270	0.052312	0.666709
C139	C	-0.488518	-0.570021	0.000033
C140	C	-0.155185	-0.236687	0.333366
C141	C	0.178148	0.096646	0.666699
C142	C	-0.457228	-0.526198	0.000028
C143	C	-0.123894	-0.192865	0.333361
C144	C	0.209439	0.140468	0.666695
C145	C	-0.538933	-0.569508	0.000033
C146	C	-0.205599	-0.236174	0.333366
C147	C	0.127734	0.097159	0.666699
C148	C	-0.570223	-0.613330	0.000037
C149	C	-0.236890	-0.279996	0.333371
C150	C	0.096443	0.053337	0.666704
C151	C	-0.551100	-0.657665	0.000042
C152	C	-0.217766	-0.324332	0.333375
C153	C	0.115567	0.009002	0.666709
C154	C	-0.500688	-0.658177	0.000046
C155	C	-0.167354	-0.324844	0.333380
C156	C	0.165979	0.008489	0.666713
C157	C	-0.476351	-0.481863	0.000023
C158	C	-0.143018	-0.148530	0.333357
C159	C	0.190315	0.184803	0.666690
C160	C	-0.526764	-0.481355	0.000019
C161	C	-0.193430	-0.148021	0.333353
C162	C	0.139903	0.185312	0.666686
C163	C	-0.558054	-0.525177	0.000024
C164	C	-0.224721	-0.191843	0.333357
C165	C	0.108612	0.141490	0.666691
C166	C	0.150292	-0.566338	0.000040
C167	C	0.483626	-0.233005	0.333373
C168	C	0.816959	0.100329	0.666706
C169	C	0.203947	-0.566891	0.000032
C170	C	0.537280	-0.233557	0.333365
C171	C	0.870614	0.099776	0.666699
C172	C	0.057699	-0.658931	0.000061
C173	C	0.391033	-0.325597	0.333394
C174	C	0.724366	0.007736	0.666728
C175	C	0.058252	-0.712586	0.000064
C176	C	0.391586	-0.379252	0.333397
C177	C	0.724919	-0.045919	0.666730
C178	C	0.106229	-0.089654	0.000053
C179	C	0.439562	0.243680	0.333386
C180	C	0.772895	0.577013	0.666719
C181	C	0.104178	0.112006	0.000057
C182	C	0.437511	0.445339	0.333391
C183	C	0.770844	0.778673	0.666724
O184	O	0.141398	0.143262	0.000074
O185	O	0.474732	0.476595	0.333408
O186	O	0.808065	0.809928	0.666741
N187	N	0.059843	0.131130	0.000063
N188	N	0.393176	0.464463	0.333396
N189	N	0.726509	0.797796	0.666730
C190	C	0.016017	0.099835	0.000071
C191	C	0.349350	0.433168	0.333404
C192	C	0.682684	0.766502	0.666737
O193	O	-0.021740	0.120728	0.000081
O194	O	0.311593	0.454062	0.333414
O195	O	0.644927	0.787395	0.666747
C196	C	0.018068	-0.101824	0.000069
C197	C	0.351402	0.231510	0.333403
C198	C	0.684735	0.564843	0.666736
C199	C	0.062407	-0.120944	0.000059
C200	C	0.395740	0.212389	0.333392
C201	C	0.729073	0.545722	0.666725
C202	C	0.150563	-0.108775	0.000043
C203	C	0.483897	0.224558	0.333376
C204	C	0.817230	0.557892	0.666709
C205	C	0.151075	-0.159187	0.000039
C206	C	0.484409	0.174147	0.333372
C207	C	0.817742	0.507480	0.666705
C208	C	0.107253	-0.190477	0.000045
C209	C	0.440587	0.142856	0.333378
C210	C	0.773920	0.476189	0.666711
C211	C	0.062919	-0.171356	0.000055
C212	C	0.396252	0.161977	0.333388
C213	C	0.729585	0.495310	0.666721
C214	C	-0.025757	-0.133117	0.000081
C215	C	0.307577	0.200216	0.333414
C216	C	0.640910	0.533549	0.666747
C217	C	-0.025240	-0.183534	0.000082
C218	C	0.308094	0.149799	0.333415
C219	C	0.641427	0.483132	0.666748
C220	C	0.019098	-0.202655	0.000071
C221	C	0.352432	0.130678	0.333404
C222	C	0.685765	0.464011	0.666738
C223	C	0.019609	-0.253059	0.000057
C224	C	0.352942	0.080275	0.333390
C225	C	0.686276	0.413608	0.666724
N226	N	0.063944	-0.272183	0.000051
N227	N	0.397277	0.061151	0.333385
N228	N	0.730611	0.394484	0.666718
C229	C	0.107766	-0.240892	0.000045
C230	C	0.441100	0.092441	0.333379
C231	C	0.774433	0.425775	0.666712
C232	C	0.014943	0.205709	0.000070
C233	C	0.348276	0.539043	0.333404
C234	C	0.681610	0.872376	0.666737
C235	C	0.014430	0.256124	0.000070
C236	C	0.347763	0.589457	0.333403
C237	C	0.681097	0.922790	0.666736
C238	C	0.102591	0.268291	0.000057
C239	C	0.435924	0.601624	0.333391
C240	C	0.769258	0.934958	0.666724
C241	C	0.103104	0.217876	0.000054
C242	C	0.436437	0.551209	0.333388
C243	C	0.769770	0.884542	0.666721
C244	C	0.059278	0.186585	0.000065
C245	C	0.392612	0.519919	0.333398
C246	C	0.725945	0.853252	0.666731
C247	C	0.108839	-0.346761	0.000036
C248	C	0.442172	-0.013428	0.333370
C249	C	0.775505	0.319906	0.666703
C250	C	0.109347	-0.397178	0.000030
C251	C	0.442681	-0.063845	0.333364
C252	C	0.776014	0.269489	0.666697
C253	C	0.021186	-0.409341	0.000045
C254	C	0.354520	-0.076008	0.333379
C255	C	0.687853	0.257326	0.666712
C256	C	0.020678	-0.358929	0.000049
C257	C	0.354011	-0.025595	0.333382
C258	C	0.687344	0.307738	0.666715
C259	C	0.064508	-0.327639	0.000046
C260	C	0.397841	0.005694	0.333379
C261	C	0.731175	0.339027	0.666713
O262	O	-0.017592	-0.284343	0.000046
O263	O	0.315741	0.048991	0.333379
O264	O	0.649075	0.382324	0.666713
O265	O	0.145518	-0.261794	0.000047
O266	O	0.478851	0.071539	0.333380
O267	O	0.812184	0.404872	0.666713
C268	C	0.105716	-0.039242	0.000057
C269	C	0.439050	0.294092	0.333390
C270	C	0.772383	0.627425	0.666723
C271	C	0.061382	-0.020120	0.000067
C272	C	0.394715	0.313213	0.333400
C273	C	0.728049	0.646546	0.666733
C274	C	0.017560	-0.051411	0.000073
C275	C	0.350893	0.281922	0.333406
C276	C	0.684226	0.615256	0.666740
C277	C	0.060869	0.030294	0.000066
C278	C	0.394202	0.363627	0.333399
C279	C	0.727536	0.696961	0.666733
C280	C	0.104691	0.061585	0.000060
C281	C	0.438025	0.394918	0.333393
C282	C	0.771358	0.728251	0.666727
C283	C	0.149026	0.042461	0.000054
C284	C	0.482360	0.375794	0.333388
C285	C	0.815693	0.709128	0.666721
C286	C	0.149539	-0.007951	0.000050
C287	C	0.482872	0.325382	0.333384
C288	C	0.816205	0.658716	0.666717
C289	C	-0.026775	-0.032287	0.000078
C290	C	0.306558	0.301046	0.333412
C291	C	0.639891	0.634379	0.666745
C292	C	-0.027284	0.018125	0.000082
C293	C	0.306049	0.351459	0.333415
C294	C	0.639383	0.684792	0.666749
C295	C	0.016538	0.049416	0.000076
C296	C	0.349871	0.382749	0.333409
C297	C	0.683205	0.716083	0.666742
N298	N	0.061886	-0.570577	-0.120709
N299	N	0.395220	-0.237243	0.212624
N300	N	0.728553	0.096090	0.545958
C301	C	0.094981	-0.537408	0.526773
C302	C	0.428315	-0.204075	0.860106
C303	C	0.761648	0.129259	1.193439
C304	C	0.094982	-0.537385	0.313114
C305	C	0.428315	-0.204051	0.646447
C306	C	0.761648	0.129282	0.979781
O307	O	0.123115	-0.509207	0.285489
O308	O	0.456448	-0.175874	0.618822
O309	O	0.789782	0.157460	0.952155
N310	N	0.061885	-0.570497	0.286397
N311	N	0.395219	-0.237164	0.619731
N312	N	0.728552	0.096170	0.953064
C313	C	0.028785	-0.603615	0.313098
C314	C	0.362118	-0.270282	0.646431
C315	C	0.695451	0.063051	0.979765
O316	O	0.000631	-0.631775	0.285471
O317	O	0.333964	-0.298442	0.618805
O318	O	0.667298	0.034891	0.952138
C319	C	0.028783	-0.603636	0.526756
C320	C	0.362116	-0.270303	0.860089
C321	C	0.695449	0.063031	1.193422
C322	C	0.061884	-0.570525	0.553470
C323	C	0.395218	-0.237191	0.886803
C324	C	0.728551	0.096142	1.220137
C325	C	0.128080	-0.504299	0.553487
C326	C	0.461413	-0.170966	0.886820
C327	C	0.794747	0.162367	1.220154
C328	C	0.128081	-0.504307	0.606898
C329	C	0.461415	-0.170974	0.940232
C330	C	0.794748	0.162359	1.273565
C331	C	0.094984	-0.537424	0.633596
C332	C	0.428317	-0.204091	0.966929
C333	C	0.761651	0.129243	1.300262
C334	C	0.061886	-0.570533	0.606881
C335	C	0.395219	-0.237199	0.940215
C336	C	0.728552	0.096134	1.273548
C337	C	-0.004320	-0.636752	0.553456
C338	C	0.329013	-0.303418	0.886789
C339	C	0.662347	0.029915	1.220122
C340	C	-0.004319	-0.636753	0.606873
C341	C	0.329015	-0.303420	0.940207
C342	C	0.662348	0.029914	1.273540
C343	C	0.028783	-0.603642	0.633588
C344	C	0.362116	-0.270308	0.966921
C345	C	0.695450	0.063025	1.300254
C346	C	0.028790	-0.603657	0.686990
C347	C	0.362123	-0.270324	1.020323
C348	C	0.695456	0.063009	1.353657
N349	N	0.061886	-0.570545	0.713707
N350	N	0.395219	-0.237212	1.047040
N351	N	0.728553	0.096122	1.380374
C352	C	0.094983	-0.537428	0.687010
C353	C	0.428316	-0.204095	1.020343
C354	C	0.761650	0.129238	1.353676
C355	C	0.028789	-0.603603	0.200925
C356	C	0.362122	-0.270269	0.534258
C357	C	0.695456	0.063064	0.867591
C358	C	0.028790	-0.603598	0.147511
C359	C	0.362123	-0.270265	0.480844
C360	C	0.695457	0.063068	0.814177
C361	C	0.094986	-0.537367	0.147530
C362	C	0.428320	-0.204034	0.480864
C363	C	0.761653	0.129300	0.814197
C364	C	0.094987	-0.537374	0.200945
C365	C	0.428321	-0.204041	0.534279
C366	C	0.761654	0.129292	0.867612
C367	C	0.061885	-0.570491	0.227642
C368	C	0.395218	-0.237157	0.560975
C369	C	0.728552	0.096176	0.894308
C370	C	0.094984	-0.537448	0.799178
C371	C	0.428317	-0.204114	1.132511
C372	C	0.761650	0.129219	1.465844
C373	C	0.094983	-0.537460	0.852594
C374	C	0.428317	-0.204127	1.185927
C375	C	0.761650	0.129207	1.519261
C376	C	0.028786	-0.603689	0.852569
C377	C	0.362119	-0.270356	1.185903
C378	C	0.695452	0.062977	1.519236
C379	C	0.028787	-0.603679	0.799158
C380	C	0.362121	-0.270346	1.132491
C381	C	0.695454	0.062988	1.465825
C382	C	0.061888	-0.570554	0.772463
C383	C	0.395222	-0.237221	1.105797
C384	C	0.728555	0.096112	1.439130
O385	O	0.000667	-0.631817	0.714649
O386	O	0.334001	-0.298483	1.047982
O387	O	0.667334	0.034850	1.381315
O388	O	0.123125	-0.509265	0.714646
O389	O	0.456459	-0.175932	1.047979
O390	O	0.789792	0.157401	1.381313
C391	C	0.094980	-0.537400	0.473361
C392	C	0.428313	-0.204067	0.806695
C393	C	0.761647	0.129266	1.140028
C394	C	0.061881	-0.570509	0.446647
C395	C	0.395215	-0.237176	0.779980
C396	C	0.728548	0.096158	1.113314
C397	C	0.028784	-0.603626	0.473344
C398	C	0.362118	-0.270292	0.806678
C399	C	0.695451	0.063041	1.140011
C400	C	0.061883	-0.570504	0.393233
C401	C	0.395216	-0.237171	0.726566
C402	C	0.728549	0.096162	1.059900
C403	C	0.094980	-0.537388	0.366536
C404	C	0.428313	-0.204054	0.699869
C405	C	0.761646	0.129279	1.033202
C406	C	0.128076	-0.504276	0.393253
C407	C	0.461409	-0.170942	0.726586
C408	C	0.794743	0.162391	1.059919
C409	C	0.128077	-0.504283	0.446664
C410	C	0.461411	-0.170950	0.779997
C411	C	0.794744	0.162383	1.113331
C412	C	-0.004312	-0.636738	0.446627
C413	C	0.329021	-0.303405	0.779961
C414	C	0.662355	0.029929	1.113294
C415	C	-0.004310	-0.636728	0.393216
C416	C	0.329023	-0.303394	0.726549
C417	C	0.662356	0.029939	1.059882
C418	C	0.028787	-0.603611	0.366519
C419	C	0.362120	-0.270278	0.699852
C420	C	0.695454	0.063056	1.033185
H421	H	-0.095896	-0.654093	0.000082
H422	H	0.237438	-0.320759	0.333415
H423	H	0.570771	0.012574	0.666749
Cl424	Cl	-0.285770	-0.428300	0.000010
Cl425	Cl	0.047563	-0.094967	0.333344
Cl426	Cl	0.380896	0.238366	0.666677
H427	H	0.121937	-0.510474	0.777449
H428	H	0.455270	-0.177141	1.110782
H429	H	0.788604	0.156193	1.444116
H430	H	-0.063392	0.033688	0.000086
H431	H	0.269941	0.367021	0.333420
H432	H	0.603275	0.700355	0.666753
Cl433	Cl	-0.059952	-0.474737	0.000053
Cl434	Cl	0.273382	-0.141404	0.333386
Cl435	Cl	0.606715	0.191929	0.666720
H436	H	0.139207	0.202311	0.000049
H437	H	0.472541	0.535645	0.333382
H438	H	0.805874	0.868978	0.666715
H439	H	0.001838	-0.630646	0.777407
H440	H	0.335171	-0.297312	1.110740
H441	H	0.668504	0.036021	1.444074
H442	H	0.121940	-0.510497	0.874343
H443	H	0.455274	-0.177163	1.207676
H444	H	0.788607	0.156170	1.541010
Cl445	Cl	-0.173748	-0.473577	0.000053
Cl446	Cl	0.159585	-0.140243	0.333387
Cl447	Cl	0.492918	0.193090	0.666720
Cl448	Cl	-0.012819	-0.645232	0.113933
Cl449	Cl	0.320515	-0.311898	0.447266
Cl450	Cl	0.653848	0.021435	0.780600
H451	H	0.001839	-0.630654	0.874315
H452	H	0.335173	-0.297321	1.207648
H453	H	0.668506	0.036013	1.540981
Cl454	Cl	-0.590446	-0.712755	0.000050
Cl455	Cl	-0.257113	-0.379422	0.333383
Cl456	Cl	0.076221	-0.046088	0.666717
Cl457	Cl	0.157681	0.307637	0.000052
Cl458	Cl	0.491015	0.640970	0.333385
Cl459	Cl	0.824348	0.974304	0.666718
Cl460	Cl	-0.201205	-0.672579	0.000068
Cl461	Cl	0.132128	-0.339246	0.333401
Cl462	Cl	0.465462	-0.005912	0.666735
H463	H	-0.031276	-0.663720	0.628607
H464	H	0.302057	-0.330386	0.961940
H465	H	0.635391	0.002947	1.295274
Cl466	Cl	-0.012828	-0.645240	0.234480
Cl467	Cl	0.320506	-0.311907	0.567813
Cl468	Cl	0.653839	0.021426	0.901147
H469	H	-0.485125	-0.694282	0.000054
H470	H	-0.151791	-0.360949	0.333388
H471	H	0.181542	-0.027615	0.666721
Cl472	Cl	0.205662	-0.069446	0.000033
Cl473	Cl	0.538995	0.263887	0.333367
Cl474	Cl	0.872329	0.597221	0.666700
H475	H	-0.542327	-0.445246	0.000016
H476	H	-0.208993	-0.111913	0.333349
H477	H	0.124340	0.221420	0.666682
H478	H	-0.425336	-0.694889	0.000058
H479	H	-0.092003	-0.361556	0.333391
H480	H	0.241330	-0.028223	0.666724
H481	H	0.121941	-0.510412	0.222693
H482	H	0.455274	-0.177079	0.556026
H483	H	0.788608	0.156255	0.889360
Cl484	Cl	-0.702482	-0.667483	0.000053
Cl485	Cl	-0.369149	-0.334150	0.333386
Cl486	Cl	-0.035816	-0.000817	0.666719
Cl487	Cl	0.169685	-0.462645	0.359680
Cl488	Cl	0.503018	-0.129311	0.693014
Cl489	Cl	0.836351	0.204022	1.026347
H490	H	-0.062462	-0.057760	0.000085
H491	H	0.270872	0.275573	0.333418
H492	H	0.604205	0.608907	0.666751
Cl493	Cl	-0.325422	-0.715456	0.000058
Cl494	Cl	0.007911	-0.382123	0.333391
Cl495	Cl	0.341244	-0.048790	0.666725
H496	H	0.155032	-0.477321	0.468411
H497	H	0.488365	-0.143988	0.801744
H498	H	0.821698	0.189345	1.135078
H499	H	-0.450879	-0.446177	0.000018
H500	H	-0.117545	-0.112844	0.333352
H501	H	0.215788	0.220490	0.666685
Cl502	Cl	-0.045923	-0.678375	0.480183
Cl503	Cl	0.287410	-0.345041	0.813516
Cl504	Cl	0.620743	-0.011708	1.146849
Cl505	Cl	0.165091	-0.421212	0.000015
Cl506	Cl	0.498424	-0.087878	0.333349
Cl507	Cl	0.831757	0.245455	0.666682
H508	H	0.184708	0.067947	0.000047
H509	H	0.518041	0.401280	0.333381
H510	H	0.851375	0.734614	0.666714
Cl511	Cl	0.163940	-0.307434	0.000032
Cl512	Cl	0.497274	0.025900	0.333366
Cl513	Cl	0.830607	0.359233	0.666699
Cl514	Cl	0.169693	-0.462677	0.640476
Cl515	Cl	0.503026	-0.129344	0.973810
Cl516	Cl	0.836360	0.203990	1.307143
Cl517	Cl	-0.045937	-0.678378	0.519883
Cl518	Cl	0.287397	-0.345044	0.853216
Cl519	Cl	0.620730	-0.011711	1.186550
H520	H	-0.031265	-0.663695	0.371469
H521	H	0.302069	-0.330362	0.704802
H522	H	0.635402	0.002972	1.038135
Cl523	Cl	-0.035062	-0.334890	0.000065
Cl524	Cl	0.298271	-0.001557	0.333398
Cl525	Cl	0.631605	0.331776	0.666731
H526	H	-0.061861	-0.117558	0.000090
H527	H	0.271472	0.215775	0.333423
H528	H	0.604805	0.549108	0.666757
H529	H	-0.060929	-0.209009	0.000091
H530	H	0.272405	0.124324	0.333424
H531	H	0.605738	0.457657	0.666757
H532	H	0.155032	-0.477329	0.531755
H533	H	0.488365	-0.143996	0.865088
H534	H	0.821698	0.189337	1.198421
H535	H	-0.021674	0.271687	0.000070
H536	H	0.311659	0.605020	0.333404
H537	H	0.644992	0.938354	0.666737
Cl538	Cl	0.205281	-0.031981	0.000038
Cl539	Cl	0.538614	0.301353	0.333371
Cl540	Cl	0.871948	0.634686	0.666704
Cl541	Cl	0.136593	-0.495734	0.113958
Cl542	Cl	0.469926	-0.162401	0.447291
Cl543	Cl	0.803260	0.170932	0.780624
Cl544	Cl	0.206818	-0.183216	0.000029
Cl545	Cl	0.540151	0.150117	0.333362
Cl546	Cl	0.873485	0.483450	0.666695
H547	H	-0.802415	-0.646911	0.000041
H548	H	-0.469082	-0.313578	0.333375
H549	H	-0.135749	0.019755	0.666708
H550	H	-0.780325	-0.486964	0.000028
H551	H	-0.446992	-0.153631	0.333362
H552	H	-0.113659	0.179703	0.666695
Cl553	Cl	-0.675018	-0.468481	0.000017
Cl554	Cl	-0.341684	-0.135148	0.333350
Cl555	Cl	-0.008351	0.198186	0.666684
Cl556	Cl	-0.040158	0.166379	0.000082
Cl557	Cl	0.293176	0.499713	0.333415
Cl558	Cl	0.626509	0.833046	0.666749
H559	H	-0.014492	-0.434827	0.000048
H560	H	0.318841	-0.101493	0.333382
H561	H	0.652174	0.231840	0.666715
Cl562	Cl	-0.399546	-0.427139	0.000007
Cl563	Cl	-0.066213	-0.093806	0.333340
Cl564	Cl	0.267121	0.239528	0.666673
