data_functionalizedCrystal
_audit_creation_method	'MofGen! by Chris Wilmer'
_symmetry_space_group_name_H-M	'P1'
_symmetry_Int_Tables_number	1
_symmetry_cell_setting	triclinic
loop_
_symmetry_equiv_pos_as_xyz
  x,y,z
_cell_length_a	17.699077
_cell_length_b	10.723024
_cell_length_c	16.776229
_cell_angle_alpha	90.006254
_cell_angle_beta	90.000648
_cell_angle_gamma	83.874223
loop_
_atom_site_label
_atom_site_type_symbol
_atom_site_fract_x
_atom_site_fract_y
_atom_site_fract_z
O1	O	1.005070	0.157764	0.066276
O2	O	1.505070	0.657764	0.566276
O3	O	0.784820	0.178302	0.066279
O4	O	1.284820	0.678302	0.566279
O5	O	0.900025	-0.013630	0.066274
O6	O	1.400025	0.486370	0.566274
O7	O	0.889865	0.349696	0.066280
O8	O	1.389865	0.849696	0.566280
O9	O	0.900023	-0.013647	-0.066302
O10	O	1.400023	0.486353	0.433698
O11	O	0.784818	0.178285	-0.066297
O12	O	1.284818	0.678285	0.433703
O13	O	1.005068	0.157747	-0.066301
O14	O	1.505068	0.657747	0.433699
Zn15	Zn	0.894943	0.168013	-0.087348
Zn16	Zn	1.394943	0.668013	0.412652
Zn17	Zn	0.894945	0.168036	0.087327
Zn18	Zn	1.394945	0.668036	0.587327
O19	O	0.889863	0.349679	-0.066296
O20	O	1.389863	0.849679	0.433704
C21	C	0.756618	0.177559	-0.000009
C22	C	1.256618	0.677559	0.499991
C23	C	0.672585	0.175355	-0.000007
C24	C	1.172585	0.675355	0.499993
C25	C	0.633110	0.174307	-0.072275
C26	C	1.133110	0.674307	0.427725
C27	C	0.554154	0.172216	-0.072276
C28	C	1.054154	0.672216	0.427724
C29	C	0.514675	0.171182	-0.000008
C30	C	1.014675	0.671182	0.499992
C31	C	0.554156	0.172226	0.072266
C32	C	1.054156	0.672226	0.572266
C33	C	0.633110	0.174308	0.072266
C34	C	1.133110	0.674308	0.572266
C35	C	0.235739	0.163829	0.072267
C36	C	0.735739	0.663829	0.572267
C37	C	0.156779	0.161751	0.072262
C38	C	0.656779	0.661751	0.572262
C39	C	0.156783	0.161737	-0.072275
C40	C	0.656783	0.661737	0.427725
C41	C	0.235738	0.163819	-0.072275
C42	C	0.735738	0.663819	0.427725
C43	C	0.275213	0.164856	-0.000002
C44	C	0.775213	0.664856	0.499998
C45	C	0.360826	0.167121	-0.000001
C46	C	0.860826	0.667121	0.499999
C47	C	0.429062	0.168927	-0.000007
C48	C	0.929062	0.668927	0.499993
C49	C	0.899285	-0.060126	-0.000013
C50	C	1.399285	0.439874	0.499987
C51	C	0.897073	-0.198642	-0.000010
C52	C	1.397073	0.301358	0.499990
C53	C	0.961535	-0.274732	-0.000010
C54	C	1.461535	0.225268	0.499990
C55	C	0.959250	-0.417896	-0.000007
C56	C	1.459250	0.082104	0.499993
C57	C	1.033270	0.158490	-0.000011
C58	C	1.533270	0.658490	0.499989
C59	C	1.117303	0.160694	-0.000008
C60	C	1.617303	0.660694	0.499992
C61	C	0.890603	0.396175	-0.000007
C62	C	1.390603	0.896175	0.499993
C63	C	0.892815	0.534691	-0.000005
C64	C	1.392815	1.034691	0.499995
N65	N	0.894948	0.168042	0.206538
N66	N	1.394948	0.668042	0.706538
N67	N	0.894946	0.167997	-0.206560
N68	N	1.394946	0.667997	0.293440
C69	C	0.946057	0.083221	0.248253
C70	C	1.446057	0.583221	0.748253
C71	C	0.946060	0.083218	0.331705
C72	C	1.446060	0.583218	0.831705
C73	C	0.894949	0.168030	0.373441
C74	C	1.394949	0.668030	0.873441
C75	C	0.843837	0.252860	0.331720
C76	C	1.343837	0.752860	0.831720
C77	C	0.843839	0.252868	0.248269
C78	C	1.343839	0.752868	0.748269
C79	C	0.843831	0.252830	0.668267
C80	C	1.343831	0.752830	1.168267
C81	C	0.843833	0.252813	0.751724
C82	C	1.343833	0.752813	1.251724
C83	C	0.946053	0.083180	0.751703
C84	C	1.446053	0.583180	1.251703
C85	C	0.946054	0.083188	0.668252
C86	C	1.446054	0.583188	1.168252
C87	C	0.894945	0.168021	0.626539
C88	C	1.394945	0.668021	1.126539
C89	C	0.894944	0.168025	0.536051
C90	C	1.394944	0.668025	1.036051
C91	C	0.894947	0.168021	0.463928
C92	C	1.394947	0.668021	0.963928
H93	H	0.522019	0.171342	-0.131124
H94	H	1.022019	0.671342	0.368876
H95	H	0.802216	0.321902	0.634311
H96	H	1.302216	0.821902	1.134311
H97	H	0.267870	0.164670	0.131117
H98	H	0.767870	0.664670	0.631117
H99	H	0.987671	0.014107	0.785675
H100	H	1.487671	0.514107	1.285675
H101	H	0.124634	0.160887	-0.131124
H102	H	0.624634	0.660887	0.368876
C103	C	1.033806	-0.506220	-0.000008
C104	C	1.533806	-0.006220	0.499992
N105	N	1.089964	-0.572749	-0.000007
N106	N	1.589964	-0.072749	0.499993
C107	C	0.510725	0.171085	0.151762
C108	C	1.010725	0.671085	0.651762
N109	N	0.478014	0.170230	0.211640
N110	N	0.978014	0.670230	0.711640
C111	C	0.787613	0.346175	0.202383
C112	C	1.287613	0.846175	0.702383
N113	N	0.745263	0.416459	0.167823
N114	N	1.245263	0.916459	0.667823
C115	C	0.818256	-0.376993	-0.000004
C116	C	1.318256	0.123007	0.499996
N117	N	0.762099	-0.310464	-0.000001
N118	N	1.262099	0.189536	0.499999
C119	C	1.038381	-0.219559	-0.000017
C120	C	1.538381	0.280441	0.499983
N121	N	1.096264	-0.178005	-0.000025
N122	N	1.596264	0.321995	0.499975
H123	H	0.665248	0.175159	-0.131125
H124	H	1.165248	0.675159	0.368875
H125	H	0.840192	-0.239487	-0.000004
H126	H	1.340192	0.260513	0.499996
H127	H	0.802211	0.321882	0.785704
H128	H	1.302211	0.821882	1.285704
H129	H	0.987674	0.014152	0.214277
H130	H	1.487674	0.514152	0.714277
C131	C	1.002281	-0.010098	0.377588
C132	C	1.502281	0.489902	0.877588
N133	N	1.044628	-0.080389	0.412146
N134	N	1.544628	0.419611	0.912146
C135	C	0.676532	0.175463	0.151767
C136	C	1.176532	0.675463	0.651767
N137	N	0.709237	0.176330	0.211649
N138	N	1.209237	0.676330	0.711649
H139	H	0.267878	0.164667	-0.131123
H140	H	0.767878	0.664667	0.368877
C141	C	0.113353	0.160600	0.151766
C142	C	0.613353	0.660600	0.651766
N143	N	0.080646	0.159730	0.211646
N144	N	0.580646	0.659730	0.711646
H145	H	0.987671	0.014122	0.634274
H146	H	1.487671	0.514122	1.134274
C147	C	0.787615	0.346155	0.377632
C148	C	1.287615	0.846155	0.877632
N149	N	0.745264	0.416422	0.412213
N150	N	1.245264	0.916422	0.912213
