data_functionalizedCrystal
_audit_creation_method	'MofGen! by Chris Wilmer'
_symmetry_space_group_name_H-M	'P1'
_symmetry_Int_Tables_number	1
_symmetry_cell_setting	triclinic
loop_
_symmetry_equiv_pos_as_xyz
  x,y,z
_cell_length_a	12.759401
_cell_length_b	18.215405
_cell_length_c	12.759393
_cell_angle_alpha	90.034559
_cell_angle_beta	90.018496
_cell_angle_gamma	90.022893
loop_
_atom_site_label
_atom_site_type_symbol
_atom_site_fract_x
_atom_site_fract_y
_atom_site_fract_z
Zn1	Zn	1.606197	-0.292938	0.593959
Zn2	Zn	1.606066	-0.416024	0.418270
Zn3	Zn	1.430499	-0.292976	0.418299
Zn4	Zn	1.430463	-0.415967	0.593912
O5	O	1.518306	-0.354476	0.506110
O6	O	1.753200	-0.309273	0.570662
O7	O	1.582738	-0.399741	0.271253
O8	O	1.453875	-0.189987	0.441632
O9	O	1.753105	-0.399704	0.441584
O10	O	1.582960	-0.189959	0.570690
O11	O	1.453749	-0.309339	0.271274
O12	O	1.283473	-0.309284	0.441586
O13	O	1.453814	-0.399607	0.740939
O14	O	1.283447	-0.399645	0.570608
O15	O	1.582925	-0.309218	0.740974
O16	O	1.582703	-0.519001	0.441538
O17	O	1.453687	-0.518959	0.570581
C18	C	1.245339	-0.354463	0.506096
C19	C	1.128562	-0.354475	0.506115
C20	C	1.518205	-0.545683	0.506074
C21	C	1.518259	-0.627482	0.506094
C22	C	1.073714	-0.401601	0.573185
C23	C	0.963990	-0.401610	0.573197
C24	C	0.963972	-0.307365	0.439058
C25	C	1.073694	-0.307352	0.439053
C26	C	1.073723	-0.456015	0.650626
C27	C	0.963999	-0.456025	0.650638
C28	C	1.585505	-0.815600	0.573385
C29	C	1.585543	-0.892458	0.573404
C30	C	1.451237	-0.892601	0.438901
C31	C	1.451195	-0.815744	0.438887
C32	C	1.518334	-0.777245	0.506128
C33	C	1.518415	-0.930961	0.506161
C34	C	1.518456	-1.014295	0.506182
C35	C	1.518293	-0.693906	0.506108
C36	C	1.792339	-0.354490	0.506125
C37	C	1.909116	-0.354497	0.506131
C38	C	1.518380	-0.354402	0.780144
C39	C	1.518411	-0.354370	0.896920
C40	C	1.518436	-0.162523	0.506169
C41	C	1.518491	-0.080724	0.506195
C42	C	1.518293	-0.354497	0.233143
C43	C	1.518466	-0.354322	0.116367
C44	C	1.585648	-0.307300	0.951802
C45	C	1.585673	-0.307274	1.061526
C46	C	1.451221	-0.401394	1.061477
C47	C	1.451191	-0.401416	0.951755
C48	C	1.663277	-0.252963	0.951832
C49	C	1.663302	-0.252936	1.061556
H50	H	0.919285	-0.268999	0.384459
C51	C	1.113279	-0.435696	0.759225
C52	C	1.027781	-0.423279	0.825661
C53	C	1.064178	-0.404550	0.925702
H54	H	1.154612	-0.474685	0.786295
H55	H	1.154621	-0.392412	0.754952
H56	H	0.986455	-0.466558	0.829938
H57	H	0.986439	-0.384288	0.798625
H58	H	1.105521	-0.361266	0.921428
H59	H	1.105512	-0.443542	0.952761
H60	H	1.006175	-0.396117	0.970788
C61	C	0.924450	-0.532040	0.621313
C62	C	1.009951	-0.578528	0.603365
C63	C	0.973559	-0.648552	0.576337
H64	H	0.883131	-0.551124	0.676905
H65	H	0.883094	-0.528922	0.559546
H66	H	1.051290	-0.581648	0.665125
H67	H	1.051278	-0.559467	0.547769
H68	H	0.932203	-0.645435	0.514570
H69	H	0.932241	-0.667629	0.631932
H70	H	1.031566	-0.680101	0.564147
C71	C	1.133055	-0.256150	0.366129
C72	C	1.061517	-0.214900	0.307386
C73	C	1.116161	-0.167728	0.240189
H74	H	1.175885	-0.224052	0.406291
H75	H	1.175811	-0.284236	0.320216
H76	H	1.018779	-0.186816	0.353294
H77	H	1.018685	-0.246979	0.267203
H78	H	1.158917	-0.195814	0.194275
H79	H	1.158989	-0.135635	0.280359
H80	H	1.067631	-0.139739	0.200316
H81	H	1.640173	-0.784256	0.628137
H82	H	1.640238	-0.923683	0.628174
C83	C	1.378470	-0.934534	0.365931
C84	C	1.392905	-1.010052	0.380313
C85	C	1.325902	-1.048702	0.313097
H86	H	1.307819	-0.922060	0.381170
H87	H	1.393894	-0.922006	0.295330
H88	H	1.377473	-1.022575	0.450898
H89	H	1.463541	-1.022548	0.365066
H90	H	1.341326	-1.036173	0.242496
H91	H	1.255255	-1.036222	0.328342
H92	H	1.335693	-1.099944	0.322839
H93	H	1.396492	-0.784513	0.384118
C94	C	1.766402	-0.280182	0.906637
C95	C	1.834746	-0.298200	0.988542
C96	C	1.929758	-0.323268	0.946948
H97	H	1.754022	-0.322423	0.864728
H98	H	1.796883	-0.242714	0.864783
H99	H	1.804271	-0.335664	1.030378
H100	H	1.847157	-0.255970	1.030458
H101	H	1.960239	-0.285800	0.905094
H102	H	1.917367	-0.365507	0.905039
H103	H	1.976144	-0.335490	1.002513
C104	C	1.378131	-0.452589	0.892357
C105	C	1.319288	-0.493793	0.963866
C106	C	1.251976	-0.540945	0.909188
H107	H	1.332278	-0.424514	0.849567
H108	H	1.418248	-0.484711	0.849559
H109	H	1.279175	-0.461674	1.006647
H110	H	1.365114	-0.521883	1.006659
H111	H	1.292093	-0.573068	0.866390
H112	H	1.206130	-0.512864	0.866400
H113	H	1.212050	-0.568912	0.957698
H114	H	1.396491	-0.439695	1.106137
H115	H	1.107727	-0.510128	0.621338
H116	H	0.930005	-0.435680	0.727991
H117	H	1.641520	-0.195969	0.922080
C118	C	1.624535	-0.180661	1.106770
C119	C	1.598816	-0.132809	1.024879
C120	C	1.563112	-0.066223	1.066492
H121	H	1.564244	-0.189289	1.148650
H122	H	1.678065	-0.159318	1.148657
H123	H	1.545289	-0.154148	0.983010
H124	H	1.659090	-0.124160	0.982992
H125	H	1.616643	-0.044879	1.108379
H126	H	1.502824	-0.074858	1.108372
H127	H	1.545666	-0.033744	1.010936
H128	H	1.744670	-0.268201	1.091333
