data_functionalizedCrystal
_audit_creation_method	'MofGen! by Chris Wilmer'
_symmetry_space_group_name_H-M	'P1'
_symmetry_Int_Tables_number	1
_symmetry_cell_setting	triclinic
loop_
_symmetry_equiv_pos_as_xyz
  x,y,z
_cell_length_a	16.120484
_cell_length_b	10.686220
_cell_length_c	10.686551
_cell_angle_alpha	89.691918
_cell_angle_beta	88.707809
_cell_angle_gamma	82.929033
loop_
_atom_site_label
_atom_site_type_symbol
_atom_site_fract_x
_atom_site_fract_y
_atom_site_fract_z
Zn1	Zn	-0.203137	-1.957921	-0.579045
Zn2	Zn	0.130196	-1.624587	-0.245712
Zn3	Zn	0.463530	-1.291254	0.087621
Zn4	Zn	-0.353948	-1.931025	-0.381655
Zn5	Zn	-0.020615	-1.597692	-0.048322
Zn6	Zn	0.312718	-1.264359	0.285012
Zn7	Zn	-0.224452	-1.730532	-0.387111
Zn8	Zn	0.108882	-1.397198	-0.053778
Zn9	Zn	0.442215	-1.063865	0.279556
Zn10	Zn	-0.352260	-1.737575	-0.607294
Zn11	Zn	-0.018926	-1.404242	-0.273961
Zn12	Zn	0.314407	-1.070908	0.059372
O13	O	-0.283449	-1.839263	-0.488776
O14	O	0.049884	-1.505930	-0.155443
O15	O	0.383218	-1.172597	0.177890
O16	O	-0.214929	-2.130476	-0.538756
O17	O	0.118405	-1.797142	-0.205422
O18	O	0.451738	-1.463809	0.127911
O19	O	-0.346397	-1.890226	-0.207623
O20	O	-0.013064	-1.556893	0.125711
O21	O	0.320270	-1.223559	0.459044
O22	O	-0.105021	-1.769004	-0.403033
O23	O	0.228312	-1.435670	-0.069699
O24	O	0.561646	-1.102337	0.263634
O25	O	-0.325729	-2.110716	-0.393734
O26	O	0.007604	-1.777383	-0.060400
O27	O	0.340937	-1.444049	0.272933
O28	O	-0.089361	-1.936065	-0.544046
O29	O	0.243972	-1.602732	-0.210713
O30	O	0.577305	-1.269399	0.122621
O31	O	-0.251257	-1.742924	-0.211631
O32	O	0.082077	-1.409591	0.121702
O33	O	0.415410	-1.076258	0.455035
O34	O	-0.249619	-1.555343	-0.430424
O35	O	0.083714	-1.222010	-0.097091
O36	O	0.417047	-0.888677	0.236242
O37	O	-0.322851	-1.781008	-0.778303
O38	O	0.010482	-1.447674	-0.444970
O39	O	0.343815	-1.114341	-0.111636
O40	O	-0.343519	-1.560518	-0.592192
O41	O	-0.010186	-1.227185	-0.258859
O42	O	0.323147	-0.893851	0.074475
O43	O	-0.213292	-1.942895	-0.757549
O44	O	0.120042	-1.609561	-0.424215
O45	O	0.453375	-1.276228	-0.090882
O46	O	-0.470327	-1.897056	-0.421125
O47	O	-0.136994	-1.563722	-0.087792
O48	O	0.196339	-1.230389	0.245541
O49	O	-0.469087	-1.754928	-0.586902
O50	O	-0.135753	-1.421595	-0.253568
O51	O	0.197580	-1.088262	0.079765
C52	C	-0.298700	-1.512264	-0.514966
C53	C	0.034634	-1.178931	-0.181633
C54	C	0.367967	-0.845597	0.151700
C55	C	-0.305242	-1.372373	-0.526202
C56	C	0.028091	-1.039040	-0.192868
C57	C	0.361425	-0.705706	0.140465
C58	C	-0.499938	-1.823874	-0.506511
C59	C	-0.166605	-1.490541	-0.173178
C60	C	0.166729	-1.157207	0.160155
C61	C	-0.592545	-1.817409	-0.514131
C62	C	-0.259212	-1.484076	-0.180798
C63	C	0.074122	-1.150742	0.152536
C64	C	-0.265505	-1.865737	-0.814505
C65	C	0.067828	-1.532404	-0.481172
C66	C	0.401161	-1.199070	-0.147838
C67	C	-0.257859	-1.877019	-0.953311
C68	C	0.075474	-1.543685	-0.619978
C69	C	0.408808	-1.210352	-0.286645
C70	C	-0.762098	-1.805615	-0.528067
C71	C	-0.428764	-1.472282	-0.194734
C72	C	-0.095431	-1.138948	0.138599
C73	C	-0.803948	-1.873138	-0.449488
C74	C	-0.470615	-1.539805	-0.116155
C75	C	-0.137282	-1.206472	0.217179
C76	C	-0.898293	-1.866576	-0.457242
C77	C	-0.564960	-1.533243	-0.123909
C78	C	-0.231627	-1.199910	0.209424
C79	C	-0.667744	-1.812176	-0.520315
C80	C	-0.334411	-1.478842	-0.186981
C81	C	-0.001078	-1.145509	0.146352
C82	C	-0.066112	-1.854749	-0.470997
C83	C	0.267221	-1.521416	-0.137664
C84	C	0.600555	-1.188082	0.195670
C85	C	0.026504	-1.861348	-0.463420
C86	C	0.359838	-1.528015	-0.130087
C87	C	0.693171	-1.194681	0.203246
C88	C	-0.268140	-2.167539	-0.462485
C89	C	0.065194	-1.834206	-0.129152
C90	C	0.398527	-1.500873	0.204182
C91	C	-0.261616	-2.307431	-0.451281
C92	C	0.071718	-1.974098	-0.117948
C93	C	0.405051	-1.640764	0.215385
C94	C	-0.301259	-1.812969	-0.164304
C95	C	0.032074	-1.479636	0.169029
C96	C	0.365407	-1.146302	0.502362
C97	C	-0.308660	-1.801948	-0.025460
C98	C	0.024673	-1.468615	0.307873
C99	C	0.358007	-1.135281	0.641207
H100	H	-0.768923	-1.935874	-0.376390
H101	H	-0.435589	-1.602541	-0.043056
H102	H	-0.102256	-1.269208	0.290277
H103	H	-0.797121	-1.742882	-0.601158
H104	H	-0.463788	-1.409549	-0.267825
H105	H	-0.130455	-1.076215	0.065508
H106	H	-0.219261	-1.358852	-0.378542
H107	H	0.114072	-1.025519	-0.045209
H108	H	0.447406	-0.692185	0.288125
H109	H	-0.358005	-1.729049	-0.981039
H110	H	-0.024671	-1.395716	-0.647705
H111	H	0.308662	-1.062383	-0.314372
H112	H	-0.347606	-1.320945	-0.598938
H113	H	-0.014272	-0.987612	-0.265605
H114	H	0.319061	-0.654278	0.067729
H115	H	-0.208516	-1.949930	-0.997738
H116	H	0.124817	-1.616597	-0.664405
H117	H	0.458150	-1.283264	-0.331071
