data_functionalizedCrystal
_audit_creation_method	'MofGen! by Chris Wilmer'
_symmetry_space_group_name_H-M	'P1'
_symmetry_Int_Tables_number	1
_symmetry_cell_setting	triclinic
loop_
_symmetry_equiv_pos_as_xyz
  x,y,z
_cell_length_a	12.827893
_cell_length_b	13.897447
_cell_length_c	12.827885
_cell_angle_alpha	89.968996
_cell_angle_beta	89.980728
_cell_angle_gamma	90.019691
loop_
_atom_site_label
_atom_site_type_symbol
_atom_site_fract_x
_atom_site_fract_y
_atom_site_fract_z
Zn1	Zn	1.597640	-0.383964	-0.590840
Zn2	Zn	1.930973	-0.050631	-0.257506
Zn3	Zn	2.264306	0.282703	0.075827
Zn4	Zn	1.597521	-0.545290	-0.416096
Zn5	Zn	1.930854	-0.211957	-0.082763
Zn6	Zn	2.264188	0.121376	0.250570
Zn7	Zn	1.422881	-0.384012	-0.416113
Zn8	Zn	1.756214	-0.050678	-0.082780
Zn9	Zn	2.089548	0.282655	0.250553
Zn10	Zn	1.422854	-0.545219	-0.590796
Zn11	Zn	1.756187	-0.211886	-0.257463
Zn12	Zn	2.089520	0.121447	0.075870
O13	O	1.510224	-0.464621	-0.503462
O14	O	1.843557	-0.131288	-0.170128
O15	O	2.176890	0.202045	0.163205
O16	O	1.743860	-0.405374	-0.567671
O17	O	2.077193	-0.072041	-0.234337
O18	O	2.410527	0.261292	0.098996
O19	O	1.574316	-0.523946	-0.269863
O20	O	1.907650	-0.190613	0.063471
O21	O	2.240983	0.142721	0.396804
O22	O	1.446124	-0.249024	-0.439317
O23	O	1.779457	0.084310	-0.105983
O24	O	2.112791	0.417643	0.227350
O25	O	1.743773	-0.523900	-0.439288
O26	O	2.077106	-0.190567	-0.105954
O27	O	2.410439	0.142767	0.227379
O28	O	1.574518	-0.248989	-0.567687
O29	O	1.907852	0.084345	-0.234354
O30	O	2.241185	0.417678	0.098979
O31	O	1.446009	-0.405455	-0.269875
O32	O	1.779343	-0.072122	0.063458
O33	O	2.112676	0.261211	0.396792
O34	O	1.276641	-0.405386	-0.439274
O35	O	1.609975	-0.072053	-0.105941
O36	O	1.943308	0.261281	0.227392
O37	O	1.446077	-0.523779	-0.737038
O38	O	1.779411	-0.190445	-0.403705
O39	O	2.112744	0.142888	-0.070372
O40	O	1.276621	-0.523825	-0.567613
O41	O	1.609955	-0.190491	-0.234280
O42	O	1.943288	0.142842	0.099053
O43	O	1.574492	-0.405305	-0.737070
O44	O	1.907825	-0.071972	-0.403737
O45	O	2.241159	0.261361	-0.070404
O46	O	1.574290	-0.680263	-0.439245
O47	O	1.907623	-0.346929	-0.105912
O48	O	2.240957	-0.013596	0.227421
O49	O	1.445963	-0.680210	-0.567597
O50	O	1.779296	-0.346877	-0.234263
O51	O	2.112629	-0.013544	0.099070
C52	C	1.238714	-0.464604	-0.503442
C53	C	1.572047	-0.131270	-0.170108
C54	C	1.905381	0.202063	0.163225
C55	C	1.122561	-0.464619	-0.503458
C56	C	1.455894	-0.131286	-0.170125
C57	C	1.789227	0.202047	0.163209
C58	C	0.950689	-0.523194	-0.439864
C59	C	1.284022	-0.189861	-0.106530
C60	C	1.617356	0.143473	0.226803
C61	C	1.070739	-0.523179	-0.439846
C62	C	1.404073	-0.189846	-0.106512
C63	C	1.737406	0.143487	0.226821
C64	C	1.510139	-0.715236	-0.503437
C65	C	1.843472	-0.381902	-0.170104
C66	C	2.176805	-0.048569	0.163229
C67	C	1.510198	-0.822450	-0.503462
C68	C	1.843531	-0.489116	-0.170129
C69	C	2.176865	-0.155783	0.163205
C70	C	1.510249	-0.909519	-0.503486
C71	C	1.843582	-0.576186	-0.170152
C72	C	2.176915	-0.242853	0.163181
C73	C	1.510322	-1.018752	-0.503513
C74	C	1.843655	-0.685418	-0.170179
C75	C	2.176989	-0.352085	0.163154
C76	C	1.782794	-0.464640	-0.503482
C77	C	2.116127	-0.131307	-0.170149
C78	C	2.449461	0.202027	0.163185
C79	C	1.898947	-0.464648	-0.503491
C80	C	2.232280	-0.131314	-0.170158
C81	C	2.565614	0.202019	0.163176
C82	C	1.510295	-0.464529	-0.776032
C83	C	1.843628	-0.131195	-0.442698
C84	C	2.176962	0.202138	-0.109365
C85	C	1.510325	-0.464489	-0.892185
C86	C	1.843659	-0.131156	-0.558852
C87	C	2.176992	0.202177	-0.225518
C88	C	1.510338	-0.213028	-0.503509
C89	C	1.843671	0.120305	-0.170175
C90	C	2.177004	0.453638	0.163158
C91	C	1.510386	-0.105814	-0.503529
C92	C	1.843719	0.227519	-0.170195
C93	C	2.177053	0.560852	0.163138
C94	C	1.446835	-0.523048	-1.063998
C95	C	1.780168	-0.189714	-0.730665
C96	C	2.113501	0.143619	-0.397332
C97	C	1.446802	-0.523090	-0.943948
C98	C	1.780135	-0.189756	-0.610615
C99	C	2.113469	0.143577	-0.277281
C100	C	1.510213	-0.464644	-0.231952
C101	C	1.843546	-0.131311	0.101382
C102	C	2.176880	0.202023	0.434715
C103	C	1.510385	-0.464412	-0.115799
C104	C	1.843719	-0.131078	0.217534
C105	C	2.177052	0.202255	0.550868
H106	H	1.392448	-0.573214	-1.108527
H107	H	1.725782	-0.239881	-0.775194
H108	H	2.059115	0.093453	-0.441860
H109	H	1.115236	-0.573308	-0.385378
H110	H	1.448569	-0.239975	-0.052044
H111	H	1.781903	0.093358	0.281289
H112	H	1.078071	-0.414496	-0.557938
H113	H	1.411404	-0.081163	-0.224604
H114	H	1.744737	0.252171	0.108729
H115	H	1.392398	-0.573294	-0.899401
H116	H	1.725731	-0.239960	-0.566068
H117	H	2.059065	0.093373	-0.232734
O118	O	0.891646	-0.589602	-0.367718
O119	O	1.224980	-0.256268	-0.034384
O120	O	1.558313	0.077065	0.298949
H121	H	0.947810	-0.632480	-0.321100
H122	H	1.281143	-0.299147	0.012234
H123	H	1.614476	0.034186	0.345567
O124	O	0.957979	-0.398228	-0.575632
O125	O	1.291312	-0.064894	-0.242299
O126	O	1.624646	0.268439	0.091034
H127	H	1.007719	-0.441490	-0.628674
H128	H	1.341053	-0.108157	-0.295340
H129	H	1.674386	0.225177	0.037993
O130	O	1.582383	-0.397974	-0.951186
O131	O	1.915716	-0.064641	-0.617852
O132	O	2.249049	0.268692	-0.284519
H133	H	1.635495	-0.441165	-1.000924
H134	H	1.968828	-0.107832	-0.667590
H135	H	2.302162	0.225501	-0.334257
O136	O	1.582435	-0.397960	-1.056827
O137	O	1.915768	-0.064626	-0.723494
O138	O	2.249102	0.268707	-0.390160
H139	H	1.535631	-0.348943	-1.007096
H140	H	1.868965	-0.015610	-0.673763
H141	H	2.202298	0.317724	-0.340429
