data_functionalizedCrystal
_audit_creation_method	'MofGen! by Chris Wilmer'
_symmetry_space_group_name_H-M	'P1'
_symmetry_Int_Tables_number	1
_symmetry_cell_setting	triclinic
loop_
_symmetry_equiv_pos_as_xyz
  x,y,z
_cell_length_a	6.817900
_cell_length_b	10.943867
_cell_length_c	9.109049
_cell_angle_alpha	97.374230
_cell_angle_beta	111.764134
_cell_angle_gamma	108.843261
loop_
_atom_site_label
_atom_site_type_symbol
_atom_site_fract_x
_atom_site_fract_y
_atom_site_fract_z
V1	V	-4.187655	-0.234902	-0.507833
O2	O	-4.143959	-0.046616	-0.498184
O3	O	-4.165141	-0.410082	-0.504341
O4	O	-4.197075	-0.256696	-0.729324
O5	O	-4.111804	-0.201063	-0.271644
V6	V	-4.660436	-0.209379	-0.479585
O7	O	-4.472475	-0.290890	-0.569797
O8	O	-4.825812	-0.153392	-0.417621
O9	O	-4.459743	-0.034199	-0.483076
O10	O	-4.821529	-0.397665	-0.489233
O11	O	-4.853683	-0.243218	-0.715774
O12	O	-4.427809	-0.187585	-0.258093
C13	C	-4.014569	-0.451993	-0.496326
C14	C	-4.077834	-0.595368	-0.494947
C15	C	-4.055301	-0.256332	-0.783312
C16	C	-4.144458	-0.275311	-0.964382
C17	C	-4.308366	-0.687101	-0.502617
C18	C	-4.323910	-0.800605	-0.632465
C19	C	-4.175014	-0.737340	-0.362676
C20	C	-4.092606	-0.707010	-0.624925
C21	C	-3.943667	-0.643709	-0.355016
C22	C	-3.959071	-0.757176	-0.484891
C23	C	-4.273657	0.007705	-0.491088
C24	C	-4.189633	0.151078	-0.492476
C25	C	-4.232923	-0.187952	-0.204098
C26	C	-4.123004	-0.168967	-0.023026
H27	H	-4.036376	-0.063380	-0.934695
N28	N	-4.537619	-0.890343	-0.787835
H29	H	-4.670004	-0.865062	-0.794454
H30	H	-4.577987	-0.987273	-0.786143
N31	N	-3.764069	-0.797986	-0.474981
H32	H	-3.620338	-0.738744	-0.371146
H33	H	-3.733853	-0.787582	-0.574114
H34	H	-4.455472	-0.656116	-0.510293
N35	N	-3.730009	-0.553922	-0.199660
H36	H	-3.760800	-0.564147	-0.100707
H37	H	-3.687868	-0.457177	-0.202451
N38	N	-4.259157	-0.415169	-1.081358
H39	H	-4.308751	-0.409373	-1.198469
H40	H	-4.398696	-0.469851	-1.067482
H41	H	-4.057316	-0.692951	-0.735887
N42	N	-4.222052	-0.756224	-0.215865
H43	H	-4.354553	-0.730987	-0.222708
H44	H	-4.079754	-0.696883	-0.111210
