data_functionalizedCrystal
_audit_creation_method	'MofGen! by Chris Wilmer'
_symmetry_space_group_name_H-M	'P1'
_symmetry_Int_Tables_number	1
_symmetry_cell_setting	triclinic
loop_
_symmetry_equiv_pos_as_xyz
  x,y,z
_cell_length_a	34.571875
_cell_length_b	34.571051
_cell_length_c	34.567439
_cell_angle_alpha	60.004367
_cell_angle_beta	60.008842
_cell_angle_gamma	59.994195
loop_
_atom_site_label
_atom_site_type_symbol
_atom_site_fract_x
_atom_site_fract_y
_atom_site_fract_z
O1	O	0.053721	-0.565181	0.472559
O2	O	0.020283	-0.440038	0.380761
O3	O	0.099534	-0.519209	0.380676
O4	O	-0.025530	-0.486010	0.472643
O5	O	0.125831	-0.492917	0.406885
O6	O	0.046580	-0.413746	0.406969
O7	O	0.080018	-0.538889	0.498767
Zn8	Zn	0.067475	-0.472143	0.457030
Zn9	Zn	0.032827	-0.506784	0.422498
O10	O	0.000767	-0.459718	0.498852
N11	N	0.091122	-0.448505	0.480598
N12	N	0.009184	-0.530426	0.398930
C13	C	0.124402	-0.415465	0.717633
C14	C	0.328327	-0.415388	0.513477
C15	C	0.124221	-0.415437	0.513630
C16	C	0.124201	-0.211364	0.513624
C17	C	0.157075	-0.309853	0.546423
C18	C	0.157084	-0.382601	0.546423
C19	C	0.175289	-0.364414	0.564591
C20	C	0.254624	-0.350722	0.522790
C21	C	0.304220	-0.367243	0.506229
C22	C	0.304249	-0.447494	0.536832
C23	C	0.254655	-0.430972	0.553394
C24	C	0.169014	-0.285043	0.497667
C25	C	0.152454	-0.235444	0.481153
C26	C	0.112020	-0.235469	0.562154
C27	C	0.128580	-0.285068	0.578668
C28	C	0.108321	-0.370634	0.558439
C29	C	0.091776	-0.387168	0.541918
C30	C	0.172754	-0.427637	0.501375
C31	C	0.189301	-0.411103	0.517891
C32	C	0.108399	-0.370649	0.643978
C33	C	0.091911	-0.387197	0.693575
C34	C	0.172928	-0.427676	0.693511
C35	C	0.189415	-0.411128	0.643912
C36	C	0.157149	-0.382613	0.619147
C37	C	0.229844	-0.382585	0.546371
C38	C	0.105624	-0.433333	0.772186
C39	C	0.382878	-0.432925	0.495007
C40	C	0.105380	-0.433313	0.495792
C41	C	0.105683	-0.156808	0.496094
C42	C	-0.023527	-0.563458	0.161535
C43	C	-0.023851	-0.767445	0.365663
C44	C	-0.023821	-0.563448	0.365756
C45	C	-0.227785	-0.563229	0.365355
C46	C	-0.129302	-0.596153	0.332678
C47	C	-0.056593	-0.596234	0.332823
C48	C	-0.074746	-0.614396	0.314578
C49	C	-0.088477	-0.693710	0.356299
C50	C	-0.071982	-0.743310	0.372851
C51	C	0.008266	-0.743392	0.342376
C52	C	-0.008230	-0.693794	0.325823
C53	C	-0.154162	-0.608103	0.381422
C54	C	-0.203757	-0.591517	0.397874
C55	C	-0.203630	-0.551037	0.316836
C56	C	-0.154034	-0.567623	0.300384
C57	C	-0.068543	-0.547475	0.320829
C58	C	-0.052041	-0.530969	0.337421
C59	C	-0.011639	-0.611977	0.377990
C60	C	-0.028141	-0.628485	0.361404
C61	C	-0.068417	-0.547482	0.235199
C62	C	-0.051814	-0.530977	0.185602
C63	C	-0.011349	-0.611990	0.185649
C64	C	-0.027951	-0.628493	0.235248
C65	C	-0.056486	-0.596238	0.260022
C66	C	-0.056602	-0.668955	0.332787
C67	C	-0.005599	-0.544662	0.106983
C68	C	-0.006342	-0.821999	0.384121
C69	C	-0.005979	-0.544649	0.383673
C70	C	-0.282336	-0.544682	0.382817
N71	N	0.427518	-0.448428	0.480350
O72	O	0.589573	-0.456297	0.363634
O73	O	0.589761	-0.548399	0.488643
O74	O	0.589681	-0.548188	0.409364
O75	O	0.589654	-0.456508	0.442913
O76	O	0.510890	-0.521988	0.435708
O77	O	0.510970	-0.522199	0.514987
O78	O	0.510782	-0.430098	0.389978
Zn79	Zn	0.498366	-0.471989	0.456665
Zn80	Zn	0.602177	-0.506508	0.421956
O81	O	0.510862	-0.430308	0.469257
N82	N	0.673025	-0.530068	0.398267
N83	N	0.091092	-0.112167	0.480590
O84	O	-0.025539	0.049976	0.472612
O85	O	0.099472	0.050011	0.380491
O86	O	0.020155	0.049979	0.380751
O87	O	0.053778	0.050009	0.472352
O88	O	0.046458	-0.028818	0.407008
O89	O	0.125775	-0.028785	0.406748
O90	O	0.000764	-0.028821	0.498869
Zn91	Zn	0.067445	-0.041314	0.456977
Zn92	Zn	0.032791	0.062504	0.422382
O93	O	0.080081	-0.028788	0.498609
N94	N	0.009138	0.133358	0.398771
N95	N	0.091421	-0.448552	0.816827
O96	O	0.083469	-0.565164	0.978960
O97	O	-0.008614	-0.440110	0.979002
O98	O	-0.008399	-0.519410	0.978978
O99	O	0.083253	-0.485863	0.978984
O100	O	0.017837	-0.493128	0.900185
O101	O	0.017621	-0.413827	0.900208
O102	O	0.109704	-0.538881	0.900167
Zn103	Zn	0.067828	-0.472181	0.887677
Zn104	Zn	0.033262	-0.506810	0.991491
O105	O	0.109489	-0.459581	0.900191
N106	N	0.009668	-0.530444	1.062341
C107	C	0.030297	-0.411123	0.381218
C108	C	0.128439	-0.509167	0.381113
C109	C	0.070004	-0.567805	0.498310
C110	C	-0.028138	-0.469761	0.498415
C111	C	0.550388	-0.547982	0.517564
C112	C	0.550290	-0.547721	0.419387
C113	C	0.550153	-0.430514	0.361058
C114	C	0.550253	-0.430775	0.459234
C115	C	0.128339	0.010714	0.380902
C116	C	0.030148	0.010577	0.381256
C117	C	-0.028136	0.010574	0.498426
C118	C	0.070089	0.010613	0.498104
C119	C	-0.008178	-0.411214	0.939610
C120	C	-0.007906	-0.509413	0.939566
C121	C	0.109268	-0.567777	0.939558
C122	C	0.109002	-0.469572	0.939586
H123	H	0.052212	-0.377448	0.713786
H124	H	0.077150	-0.603753	0.527142
O125	O	-0.042624	-0.368349	0.939646
C126	C	-0.025567	-0.338861	0.939641
H127	H	0.004854	-0.361642	0.954551
H128	H	-0.055337	-0.316167	0.962526
H129	H	-0.012426	-0.314930	0.901842
H130	H	0.137795	-0.462392	0.939581
H131	H	0.022945	0.010574	0.352477
O132	O	0.021691	-0.368219	0.346863
C133	C	-0.024864	-0.338834	0.364066
H134	H	-0.047308	-0.361701	0.394497
H135	H	-0.040784	-0.316122	0.334374
H136	H	-0.024147	-0.314918	0.377238
O137	O	0.078639	0.010555	0.532500
C138	C	0.073418	-0.030266	0.572443
H139	H	0.049652	-0.043882	0.572085
H140	H	0.056721	-0.021091	0.606069
H141	H	0.109656	-0.058834	0.571476
H142	H	-0.064037	0.010563	0.527345
H143	H	0.164166	0.010943	0.351910
H144	H	-0.036687	-0.516580	0.939532
H145	H	0.550303	-0.576522	0.412207
H146	H	0.234479	-0.456922	0.572596
H147	H	0.164358	-0.516243	0.352233
O148	O	0.143701	-0.610655	0.939562
C149	C	0.126653	-0.640134	0.939540
H150	H	0.086299	-0.627306	0.954466
H151	H	0.141191	-0.678090	0.962403
H152	H	0.138683	-0.638843	0.901734
H153	H	0.199204	-0.450885	0.713670
O154	O	0.076990	-0.342971	0.619994
C155	C	0.030425	-0.335947	0.652546
H156	H	0.030548	-0.365855	0.687891
H157	H	0.006859	-0.335690	0.638239
H158	H	0.016215	-0.300617	0.657829
H159	H	0.229113	-0.420876	0.623698
H160	H	0.550436	-0.576894	0.553469
O161	O	0.550064	-0.395956	0.318263
C162	C	0.550049	-0.355171	0.318275
H163	H	0.535170	-0.355747	0.356282
H164	H	0.527126	-0.322203	0.297244
H165	H	0.587835	-0.354581	0.301308
O166	O	0.077005	-0.342878	0.586082
C167	C	0.048291	-0.301286	0.561069
H168	H	0.067413	-0.294378	0.521385
H169	H	0.040794	-0.270047	0.569947
H170	H	0.013448	-0.305801	0.571649
H171	H	0.550247	-0.401977	0.466412
O172	O	-0.070969	-0.461276	0.532883
C173	C	-0.079446	-0.422925	0.543813
H174	H	-0.044268	-0.419113	0.533323
H175	H	-0.098606	-0.429689	0.583475
H176	H	-0.102317	-0.388964	0.523480
O177	O	0.044403	-0.375605	0.553671
C178	C	0.023848	-0.392577	0.603351
H179	H	0.052115	-0.423162	0.619310
H180	H	-0.005383	-0.405466	0.612863
H181	H	0.008192	-0.362829	0.618051
H182	H	0.229008	-0.420842	0.508101
O183	O	0.204076	-0.455251	0.473592
C184	C	0.232722	-0.430188	0.431998
H185	H	0.213548	-0.390510	0.425122
H186	H	0.240208	-0.439051	0.400752
H187	H	0.267575	-0.440735	0.436484
O188	O	0.328281	-0.494515	0.543704
C189	C	0.295774	-0.519096	0.568057
H190	H	0.260427	-0.497468	0.588399
H191	H	0.310134	-0.554864	0.593933
H192	H	0.290474	-0.524833	0.541533
H193	H	0.324395	-0.341295	0.487026
H194	H	0.192214	-0.305222	0.471410
O195	O	0.230598	-0.303707	0.515947
C196	C	0.263109	-0.279126	0.491570
H197	H	0.298478	-0.304577	0.497269
H198	H	0.248787	-0.249216	0.505615
H199	H	0.268351	-0.263708	0.452115
H200	H	0.162174	-0.215242	0.441450
H201	H	0.088825	-0.215289	0.588411
H202	H	0.118851	-0.305270	0.618371
H203	H	-0.061536	-0.491273	0.165398
H204	H	-0.091654	-0.521212	0.255368
H205	H	0.011877	-0.638258	0.165483
H206	H	-0.091707	-0.521211	0.297556
O207	O	-0.016418	-0.675863	0.259338
C208	C	-0.033348	-0.696436	0.247157
H209	H	-0.063899	-0.668172	0.233463
H210	H	-0.046269	-0.725650	0.279762
H211	H	-0.003568	-0.712121	0.218399
O212	O	-0.063579	-0.483601	0.325686
C213	C	-0.046547	-0.463040	0.276011
H214	H	-0.015961	-0.491314	0.260067
H215	H	-0.033645	-0.433835	0.266546
H216	H	-0.076261	-0.447344	0.261251
O217	O	0.015980	-0.643371	0.405762
C218	C	0.022998	-0.689946	0.412774
H219	H	-0.006881	-0.689823	0.407167
H220	H	0.023199	-0.713486	0.450410
H221	H	0.058350	-0.704189	0.386418
H222	H	0.017729	-0.673638	0.306677
O223	O	0.055274	-0.767451	0.335557
C224	C	0.079871	-0.734964	0.311264
H225	H	0.058275	-0.699597	0.290904
H226	H	0.115651	-0.749328	0.285410
H227	H	0.085576	-0.729698	0.337832
O228	O	-0.016601	-0.675843	0.373076
C229	C	-0.058278	-0.687798	0.397952
H230	H	-0.088088	-0.659840	0.414736
H231	H	-0.051774	-0.723815	0.426847
H232	H	-0.068674	-0.689405	0.372388
H233	H	-0.127865	-0.673490	0.361973
O234	O	-0.103020	-0.767285	0.395756
C235	C	-0.149255	-0.734726	0.398373
H236	H	-0.151151	-0.699364	0.395069
H237	H	-0.175481	-0.749002	0.433829
H238	H	-0.158520	-0.729482	0.368337
H239	H	-0.223999	-0.601245	0.437568
O240	O	-0.130209	-0.635795	0.412855
C241	C	-0.162788	-0.642790	0.459407
H242	H	-0.198120	-0.612858	0.459262
H243	H	-0.148498	-0.643064	0.482999
H244	H	-0.168089	-0.678103	0.473603
H245	H	-0.223768	-0.527810	0.290539
H246	H	-0.133793	-0.557888	0.260690
