data_functionalizedCrystal
_audit_creation_method	'MofGen! by Chris Wilmer'
_symmetry_space_group_name_H-M	'P1'
_symmetry_Int_Tables_number	1
_symmetry_cell_setting	triclinic
loop_
_symmetry_equiv_pos_as_xyz
  x,y,z
_cell_length_a	25.639239
_cell_length_b	19.077142
_cell_length_c	19.076919
_cell_angle_alpha	89.925643
_cell_angle_beta	92.268407
_cell_angle_gamma	92.265911
loop_
_atom_site_label
_atom_site_type_symbol
_atom_site_fract_x
_atom_site_fract_y
_atom_site_fract_z
Zn1	Zn	-0.252951	-1.058185	-0.440433
Zn2	Zn	0.247049	-0.558185	0.059567
Zn3	Zn	-0.337016	-1.062797	-0.322920
Zn4	Zn	0.162984	-0.562797	0.177080
Zn5	Zn	-0.245946	-0.945405	-0.318223
Zn6	Zn	0.254054	-0.445405	0.181777
Zn7	Zn	-0.336700	-0.940619	-0.435668
Zn8	Zn	0.163300	-0.440619	0.064332
O9	O	-0.293153	-1.001752	-0.379311
O10	O	0.206847	-0.501752	0.120689
O11	O	-0.267167	-1.157128	-0.428804
O12	O	0.232833	-0.657128	0.071196
O13	O	-0.322137	-1.051158	-0.223966
O14	O	0.177863	-0.551158	0.276034
O15	O	-0.173713	-0.960439	-0.334463
O16	O	0.326287	-0.460439	0.165537
O17	O	-0.328929	-1.160516	-0.342468
O18	O	0.171071	-0.660516	0.157532
O19	O	-0.178860	-1.043298	-0.424250
O20	O	0.321140	-0.543298	0.075750
O21	O	-0.255228	-0.964911	-0.220515
O22	O	0.244772	-0.464911	0.279485
O23	O	-0.254920	-0.846440	-0.329843
O24	O	0.245080	-0.346440	0.170157
O25	O	-0.328390	-0.952281	-0.534631
O26	O	0.171610	-0.452281	-0.034631
O27	O	-0.321597	-0.842923	-0.416129
O28	O	0.178403	-0.342923	0.083871
O29	O	-0.266860	-1.038657	-0.538132
O30	O	0.233140	-0.538657	-0.038132
O31	O	-0.410137	-1.046517	-0.337847
O32	O	0.089863	-0.546517	0.162153
O33	O	-0.409904	-0.956753	-0.420683
O34	O	0.090096	-0.456753	0.079317
C35	C	-0.287464	-0.819186	-0.371960
C36	C	0.212536	-0.319186	0.128040
C37	C	-0.285044	-0.741082	-0.368832
C38	C	0.214956	-0.241082	0.131168
C39	C	-0.318670	-0.702580	-0.412216
C40	C	0.181330	-0.202580	0.087784
C41	C	-0.316388	-0.629193	-0.409280
C42	C	0.183612	-0.129193	0.090720
C43	C	-0.280483	-0.594311	-0.362956
C44	C	0.219517	-0.094311	0.137044
C45	C	-0.246854	-0.632819	-0.319570
C46	C	0.253146	-0.132819	0.180430
C47	C	-0.249133	-0.706204	-0.322510
C48	C	0.250867	-0.206204	0.177490
C49	C	-0.269937	-0.375027	-0.349357
C50	C	0.230063	0.124973	0.150643
C51	C	-0.267661	-0.301637	-0.346419
C52	C	0.232339	0.198363	0.153581
C53	C	-0.337195	-0.298017	-0.436130
C54	C	0.162805	0.201983	0.063870
C55	C	-0.339473	-0.371403	-0.439063
C56	C	0.160527	0.128597	0.060937
C57	C	-0.305842	-0.409905	-0.395680
C58	C	0.194158	0.090095	0.104320
N59	N	-0.278152	-0.519298	-0.359952
N60	N	0.221848	-0.019298	0.140048
N61	N	-0.308172	-0.484916	-0.398687
N62	N	0.191828	0.015084	0.101313
C63	C	-0.428991	-1.001635	-0.379274
C64	C	0.071009	-0.501635	0.120726
C65	C	-0.487106	-1.001648	-0.379284
C66	C	0.012894	-0.501648	0.120716
C67	C	-0.847588	-1.048606	-0.336260
C68	C	-0.347588	-0.548606	0.163740
C69	C	-0.902193	-1.048633	-0.336270
C70	C	-0.402193	-0.548633	0.163730
O71	O	-0.930525	-1.088437	-0.299649
O72	O	-0.430525	-0.588437	0.200351
N73	N	-0.929398	-1.001873	-0.379362
N74	N	-0.429398	-0.501873	0.120638
C75	C	-0.901994	-0.955089	-0.422452
C76	C	-0.401994	-0.455089	0.077548
O77	O	-0.930148	-0.915319	-0.459107
O78	O	-0.430148	-0.415319	0.040893
C79	C	-0.847390	-0.955066	-0.422445
C80	C	-0.347390	-0.455066	0.077555
C81	C	-0.820188	-1.001824	-0.379345
C82	C	-0.320188	-0.501824	0.120655
C83	C	-0.820385	-1.095360	-0.293163
C84	C	-0.320385	-0.595360	0.206837
C85	C	-0.765784	-1.095332	-0.293152
C86	C	-0.265784	-0.595332	0.206848
C87	C	-0.738384	-1.048550	-0.336237
C88	C	-0.238384	-0.548550	0.163763
C89	C	-0.765586	-1.001796	-0.379333
C90	C	-0.265586	-0.501796	0.120667
C91	C	-0.819988	-0.908286	-0.465538
C92	C	-0.319988	-0.408286	0.034462
C93	C	-0.765380	-0.908267	-0.465528
C94	C	-0.265380	-0.408267	0.034472
C95	C	-0.738178	-0.955025	-0.422427
C96	C	-0.238178	-0.455025	0.077573
C97	C	-0.683585	-0.954986	-0.422407
C98	C	-0.183585	-0.454986	0.077593
N99	N	-0.656380	-1.001745	-0.379315
N100	N	-0.156380	-0.501745	0.120685
C101	C	-0.683780	-1.048527	-0.336230
C102	C	-0.183780	-0.548527	0.163770
C103	C	-1.016667	-0.955141	-0.422465
C104	C	-0.516667	-0.455141	0.077535
C105	C	-1.071270	-0.955160	-0.422470
C106	C	-0.571270	-0.455160	0.077530
C107	C	-1.071465	-1.048705	-0.336288
C108	C	-0.571465	-0.548705	0.163712
C109	C	-1.016861	-1.048682	-0.336281
C110	C	-0.516861	-0.548682	0.163719
C111	C	-0.989462	-1.001901	-0.379373
C112	C	-0.489462	-0.501901	0.120627
C113	C	-0.569112	-1.048464	-0.336209
C114	C	-0.069112	-0.548464	0.163791
C115	C	-0.514506	-1.048430	-0.336199
C116	C	-0.014506	-0.548430	0.163801
C117	C	-0.514316	-0.954888	-0.422383
C118	C	-0.014316	-0.454888	0.077617
C119	C	-0.568918	-0.954920	-0.422390
C120	C	-0.068918	-0.454920	0.077610
C121	C	-0.596315	-1.001713	-0.379301
C122	C	-0.096315	-0.501713	0.120699
O123	O	-0.655218	-0.915204	-0.459012
O124	O	-0.155218	-0.415204	0.040988
O125	O	-0.655620	-1.088296	-0.299588
O126	O	-0.155620	-0.588296	0.200412
C127	C	-0.156786	-1.001888	-0.379364
C128	C	0.343214	-0.501888	0.120636
C129	C	-0.098674	-1.001946	-0.379387
C130	C	0.401326	-0.501946	0.120613
C131	C	-0.298371	-0.994421	-0.562590
C132	C	0.201629	-0.494421	-0.062590
C133	C	-0.300594	-0.991296	-0.640693
C134	C	0.199406	-0.491296	-0.140693
C135	C	-0.298862	-0.185031	-0.386683
C136	C	0.201138	0.314969	0.113317
C137	C	-0.301287	-0.263135	-0.389803
C138	C	0.198713	0.236865	0.110197
C139	C	-0.269605	-1.034797	-0.679210
C140	C	0.230395	-0.534797	-0.179210
C141	C	-0.271692	-1.031853	-0.752595
C142	C	0.228308	-0.531853	-0.252595
C143	C	-0.304771	-0.985412	-0.787463
C144	C	0.195229	-0.485412	-0.287463
C145	C	-0.335761	-0.941906	-0.748941
C146	C	0.164239	-0.441906	-0.248941
C147	C	-0.333671	-0.944847	-0.675557
C148	C	0.166329	-0.444847	-0.175557
C149	C	-0.314454	-0.971790	-1.006743
C150	C	0.185546	-0.471790	-0.506743
C151	C	-0.316543	-0.968854	-1.080133
C152	C	0.183457	-0.468854	-0.580133
C153	C	-0.252472	-1.058801	-1.083782
C154	C	0.247528	-0.558801	-0.583782
C155	C	-0.250388	-1.061741	-1.010396
C156	C	0.249612	-0.561741	-0.510396
C157	C	-0.281376	-1.018233	-0.971880
C158	C	0.218624	-0.518233	-0.471880
N159	N	-0.306906	-0.982403	-0.862475
N160	N	0.193094	-0.482403	-0.362475
N161	N	-0.279238	-1.021238	-0.896870
N162	N	0.220762	-0.521238	-0.396870
C163	C	-0.287920	-1.009095	-0.196746
C164	C	0.212080	-0.509095	0.303254
C165	C	-0.285553	-1.012355	-0.118649
C166	C	0.214447	-0.512355	0.381351
H167	H	-0.343771	-0.597847	-0.444608
H168	H	0.156229	-0.097847	0.055392
H169	H	-0.358900	-0.909417	-0.644197
H170	H	0.141100	-0.409417	-0.144197
H171	H	-0.238417	-0.273238	-0.308700
H172	H	0.261583	0.226762	0.191300
H173	H	-0.347909	-0.730975	-0.449936
H174	H	0.152091	-0.230975	0.050064
H175	H	-0.491998	-0.916797	-0.457460
H176	H	0.008002	-0.416797	0.042540
H177	H	-0.343481	-0.931033	-1.108520
H178	H	0.156519	-0.431033	-0.608520
H179	H	-0.242556	-0.406367	-0.314025
H180	H	0.257444	0.093633	0.185975
H181	H	-0.339695	-0.936373	-0.975393
H182	H	0.160305	-0.436373	-0.475393
H183	H	-0.362693	-0.904089	-0.777336
H184	H	0.137307	-0.404089	-0.277336
H185	H	-0.223453	-1.099561	-0.982012
H186	H	0.276547	-0.599561	-0.482012
H187	H	-0.364575	-0.266661	-0.471452
H188	H	0.135425	0.233339	0.028548
H189	H	-0.368712	-0.399799	-0.476784
H190	H	0.131288	0.100201	0.023216
H191	H	-0.217617	-0.604412	-0.281854
H192	H	0.282383	-0.104412	0.218146
H193	H	-0.227243	-1.094222	-1.115149
H194	H	0.272757	-0.594222	-0.615149
H195	H	-0.221749	-0.737552	-0.287185
H196	H	0.278251	-0.237552	0.212815
H197	H	-0.591413	-1.086570	-0.301123
H198	H	-0.091413	-0.586570	0.198877
H199	H	-0.492359	-1.086506	-0.301099
H200	H	0.007641	-0.586506	0.198901
H201	H	-1.093413	-0.917079	-0.457559
H202	H	-0.593413	-0.417079	0.042441
H203	H	-0.743639	-1.133408	-0.258058
H204	H	-0.243639	-0.633408	0.241942
H205	H	-0.842127	-0.870207	-0.500632
H206	H	-0.342127	-0.370207	-0.000632
H207	H	-0.842688	-1.133460	-0.258078
H208	H	-0.342688	-0.633460	0.241922
H209	H	-1.093784	-1.086800	-0.301208
H210	H	-0.593784	-0.586800	0.198792
H211	H	-0.994362	-0.917041	-0.457554
H212	H	-0.494362	-0.417041	0.042446
H213	H	-0.994716	-1.086757	-0.301185
H214	H	-0.494716	-0.586757	0.198815
H215	H	-0.743075	-0.870173	-0.500621
H216	H	-0.243075	-0.370173	-0.000621
H217	H	-0.591067	-0.916848	-0.457489
H218	H	-0.091067	-0.416848	0.042511
H219	H	-0.242670	-1.072618	-0.650826
H220	H	0.257330	-0.572618	-0.150826
H221	H	-0.246459	-1.067278	-0.783952
H222	H	0.253541	-0.567278	-0.283952
