data_functionalizedCrystal
_audit_creation_method	'MofGen! by Chris Wilmer'
_symmetry_space_group_name_H-M	'P1'
_symmetry_Int_Tables_number	1
_symmetry_cell_setting	triclinic
loop_
_symmetry_equiv_pos_as_xyz
  x,y,z
_cell_length_a	15.455436
_cell_length_b	8.634740
_cell_length_c	16.992695
_cell_angle_alpha	84.380735
_cell_angle_beta	92.855899
_cell_angle_gamma	93.079597
loop_
_atom_site_label
_atom_site_type_symbol
_atom_site_fract_x
_atom_site_fract_y
_atom_site_fract_z
O1	O	-0.072137	2.071483	-0.260994
O2	O	-0.072138	1.619864	-0.239355
O3	O	-0.072131	1.843863	-0.135895
O4	O	-0.072144	1.847483	-0.364454
O5	O	0.072129	1.856597	-0.129998
O6	O	0.072122	1.632598	-0.233459
O7	O	0.072122	2.084216	-0.255097
Cu8	Cu	0.085294	1.859570	-0.243739
Cu9	Cu	-0.085309	1.844511	-0.250713
O10	O	0.072115	1.860217	-0.358558
C11	C	-0.000008	1.568177	-0.231505
C12	C	-0.000008	1.395192	-0.216890
N13	N	0.205287	1.870173	-0.238835
C14	C	0.749283	1.929090	-0.211684
C15	C	0.658477	1.921037	-0.215400
C16	C	0.613086	1.817790	-0.263044
C17	C	0.658507	1.722602	-0.306982
C18	C	0.749311	1.730664	-0.303269
C19	C	0.341512	1.783047	-0.279060
C20	C	0.250701	1.774989	-0.282767
C21	C	0.250678	1.973426	-0.191186
C22	C	0.341485	1.981473	-0.187475
C23	C	0.386897	1.886290	-0.231415
N24	N	0.520268	1.809553	-0.266842
N25	N	0.479714	1.894537	-0.227621
N26	N	0.794697	1.833906	-0.255616
C27	C	-0.000001	1.845572	-0.103382
C28	C	-0.000001	1.831674	-0.015288
C29	C	-0.000009	2.135904	-0.262947
C30	C	-0.000015	2.308887	-0.277563
C31	C	-0.000016	1.858508	-0.391070
C32	C	-0.000022	1.872406	-0.479165
C33	C	-0.000000	1.965772	0.024822
C34	C	-0.000008	1.952703	0.107595
C35	C	-0.000011	1.805536	0.150258
C36	C	-0.000015	1.671428	0.110143
C37	C	-0.000013	1.684498	0.027370
C38	C	-0.000023	1.751367	0.397948
C39	C	-0.000023	1.738308	0.480726
C40	C	-0.000018	2.019584	0.478173
C41	C	-0.000010	2.032641	0.395399
C42	C	-0.000019	1.898533	0.355291
N43	N	-0.000017	1.792174	0.234866
N44	N	-0.000019	1.911895	0.270684
H45	H	-0.000029	1.336734	-0.153760
H46	H	0.786235	2.013157	-0.172883
O47	O	-0.000001	2.097349	0.150849
H48	H	-0.058805	2.092957	0.186084
H49	H	0.378480	1.705543	-0.314837
O50	O	-0.000006	1.386295	-0.361185
H51	H	-0.058802	1.345357	-0.394888
O52	O	0.609490	2.023706	-0.168022
H53	H	0.568120	1.949785	-0.126282
O54	O	-0.000006	2.191377	0.349390
H55	H	0.000006	2.177937	0.285095
O56	O	0.609562	1.611236	-0.358373
H57	H	0.627026	1.490216	-0.338368
H58	H	-0.000013	2.128767	0.510838
H59	H	0.786286	1.653157	-0.339045
O60	O	0.390443	2.092863	-0.136105
H61	H	0.343607	2.157719	-0.106190
O62	O	0.201701	2.076058	-0.143780
H63	H	0.130933	2.053108	-0.154360
O64	O	-0.000005	1.539868	-0.015897
H65	H	0.000003	1.435337	0.027674
O66	O	-0.000020	1.579573	0.526747
H67	H	-0.058810	1.561716	0.562123
O68	O	0.201738	1.663637	-0.334164
H69	H	0.248570	1.598816	-0.364102
O70	O	-0.000005	2.124502	-0.021193
H71	H	-0.000017	2.215550	0.020607
O72	O	-0.000010	1.606732	0.354692
H73	H	0.000003	1.502208	0.398267
H74	H	-0.000023	1.551601	0.144885
