data_functionalizedCrystal
_audit_creation_method	'MofGen! by Chris Wilmer'
_symmetry_space_group_name_H-M	'P1'
_symmetry_Int_Tables_number	1
_symmetry_cell_setting	triclinic
loop_
_symmetry_equiv_pos_as_xyz
  x,y,z
_cell_length_a	12.837943
_cell_length_b	27.732048
_cell_length_c	11.295483
_cell_angle_alpha	94.055952
_cell_angle_beta	85.461227
_cell_angle_gamma	88.735798
loop_
_atom_site_label
_atom_site_type_symbol
_atom_site_fract_x
_atom_site_fract_y
_atom_site_fract_z
O1	O	1.380472	0.122633	-0.099030
O2	O	1.880472	0.622633	0.400970
O3	O	1.078766	0.116430	-0.099036
O4	O	1.578766	0.616430	0.400964
O5	O	1.238988	0.049600	-0.099010
O6	O	1.738988	0.549600	0.400990
O7	O	1.220251	0.189464	-0.099056
O8	O	1.720251	0.689464	0.400944
O9	O	1.224916	0.055460	0.099039
O10	O	1.724916	0.555460	0.599039
O11	O	1.064694	0.122290	0.099013
O12	O	1.564694	0.622290	0.599013
O13	O	1.366400	0.128493	0.099019
O14	O	1.866400	0.628493	0.599019
Cu15	Cu	1.214262	0.125927	0.117099
Cu16	Cu	1.714262	0.625927	0.617099
Cu17	Cu	1.230904	0.118997	-0.117116
Cu18	Cu	1.730904	0.618997	0.382884
O19	O	1.206178	0.195323	0.098993
O20	O	1.706178	0.695323	0.598993
C21	C	1.033143	0.117265	-0.000012
C22	C	1.533143	0.617265	0.499988
C23	C	0.918166	0.111016	-0.000013
C24	C	1.418166	0.611016	0.499987
C25	C	0.676005	0.186144	-0.000020
C26	C	1.176005	0.686144	0.499980
C27	C	0.567973	0.180275	-0.000021
C28	C	1.067973	0.680275	0.499979
C29	C	0.594068	0.093407	-0.000005
C30	C	1.094068	0.593407	0.499995
C31	C	0.702100	0.099277	-0.000005
C32	C	1.202100	0.599277	0.499995
C33	C	0.743064	0.145647	-0.000014
C34	C	1.243064	0.645647	0.499986
C35	C	0.851099	0.151516	-0.000023
C36	C	1.351099	0.651516	0.499977
C37	C	0.877191	0.064649	0.000002
C38	C	1.377191	0.564649	0.500002
C39	C	0.769159	0.058780	0.000001
C40	C	1.269159	0.558780	0.500001
C41	C	1.231558	0.034504	0.000018
C42	C	1.731558	0.534504	0.500018
C43	C	1.230373	-0.019210	0.000027
C44	C	1.730373	0.480790	0.500027
C45	C	1.317601	-0.353705	-0.000032
C46	C	1.817601	0.146295	0.499968
C47	C	1.313207	-0.555583	-0.000049
C48	C	1.813207	-0.055583	0.499951
O49	O	1.392971	-0.582888	-0.000099
O50	O	1.892971	-0.082888	0.499901
N51	N	1.218201	-0.579414	-0.000050
N52	N	1.718201	-0.079414	0.499950
C53	C	1.124288	-0.552772	-0.000054
C54	C	1.624288	-0.052772	0.499946
O55	O	1.043380	-0.577674	-0.000067
O56	O	1.543380	-0.077674	0.499933
C57	C	1.128684	-0.350895	-0.000046
C58	C	1.628684	0.149105	0.499954
C59	C	1.223695	-0.327067	-0.000033
C60	C	1.723695	0.172933	0.499967
C61	C	1.412605	-0.329876	-0.000021
C62	C	1.912605	0.170124	0.499979
C63	C	1.413702	-0.279410	-0.000010
C64	C	1.913702	0.220590	0.499990
C65	C	1.319795	-0.252772	-0.000011
C66	C	1.819795	0.247228	0.499989
C67	C	1.224792	-0.276600	-0.000022
C68	C	1.724792	0.223400	0.499978
C69	C	1.034772	-0.324255	-0.000058
C70	C	1.534772	0.175745	0.499942
C71	C	1.035879	-0.273783	-0.000059
C72	C	1.535879	0.226217	0.499941
C73	C	1.130890	-0.249954	-0.000047
C74	C	1.630890	0.250046	0.499953
C75	C	1.131982	-0.199496	-0.000012
C76	C	1.631982	0.300504	0.499988
N77	N	1.226988	-0.175665	-0.000012
N78	N	1.726988	0.324335	0.499988
C79	C	1.320895	-0.202303	-0.000011
C80	C	1.820895	0.297697	0.499989
C81	C	1.121987	-0.658760	-0.000056
C82	C	1.621987	-0.158760	0.499944
C83	C	1.120887	-0.709229	-0.000056
C84	C	1.620887	-0.209229	0.499944
C85	C	1.309807	-0.712036	-0.000053
C86	C	1.809807	-0.212036	0.499947
C87	C	1.310905	-0.661566	-0.000045
C88	C	1.810905	-0.161566	0.499955
C89	C	1.216993	-0.634929	-0.000055
C90	C	1.716993	-0.134929	0.499945
C91	C	1.323191	-0.096319	0.000012
C92	C	1.823191	0.403681	0.500012
C93	C	1.324279	-0.045848	0.000028
C94	C	1.824279	0.454152	0.500028
C95	C	1.135361	-0.043045	0.000019
C96	C	1.635361	0.456955	0.500019
C97	C	1.134271	-0.093512	0.000010
C98	C	1.634271	0.406488	0.500010
C99	C	1.228195	-0.120148	0.000002
C100	C	1.728195	0.379852	0.500002
O101	O	1.052262	-0.172160	0.000025
O102	O	1.552262	0.327840	0.500025
O103	O	1.401793	-0.177392	-0.000024
O104	O	1.901793	0.322608	0.499976
C105	C	1.316504	-0.404172	-0.000043
C106	C	1.816504	0.095828	0.499957
C107	C	1.221501	-0.428000	-0.000054
C108	C	1.721501	0.072000	0.499946
C109	C	1.127594	-0.401362	-0.000055
C110	C	1.627594	0.098638	0.499945
C111	C	1.220401	-0.478469	-0.000054
C112	C	1.720401	0.021531	0.499946
C113	C	1.314308	-0.505107	-0.000053
C114	C	1.814308	-0.005107	0.499947
C115	C	1.409314	-0.481276	-0.000053
C116	C	1.909314	0.018724	0.499947
C117	C	1.410411	-0.430810	-0.000042
C118	C	1.910411	0.069190	0.499958
C119	C	1.032588	-0.425193	-0.000056
C120	C	1.532588	0.074807	0.499944
C121	C	1.031499	-0.475660	-0.000065
C122	C	1.531499	0.024340	0.499935
C123	C	1.125405	-0.502298	-0.000064
C124	C	1.625405	-0.002298	0.499936
C125	C	1.412023	0.127658	-0.000008
C126	C	1.912023	0.627658	0.499992
C127	C	1.527001	0.133908	-0.000015
C128	C	2.027001	0.633908	0.499985
C129	C	1.213608	0.210420	-0.000037
C130	C	1.713608	0.710420	0.499963
C131	C	1.214794	0.264133	-0.000055
C132	C	1.714794	0.764133	0.499945
N133	N	1.202564	0.130801	0.281834
N134	N	1.702564	0.630801	0.781834
N135	N	1.242610	0.114119	-0.281851
N136	N	1.742610	0.614119	0.218149
C137	C	1.326818	0.079005	0.531143
C138	C	1.826818	0.579005	1.031143
C139	C	1.317985	0.082692	0.655805
C140	C	1.817985	0.582692	1.155805
C141	C	1.176062	0.141860	0.655823
C142	C	1.676062	0.641860	1.155823
C143	C	1.184894	0.138173	0.531160
C144	C	1.684894	0.638173	1.031160
C145	C	1.260276	0.106745	0.468825
C146	C	1.760276	0.606745	0.968825
C147	C	1.269113	0.103060	0.344160
C148	C	1.769113	0.603060	0.844160
C149	C	1.127185	0.162225	0.344180
C150	C	1.627185	0.662225	0.844180
C151	C	1.118353	0.165912	0.468842
C152	C	1.618353	0.665912	0.968842
H153	H	0.884449	0.189273	-0.000028
H154	H	1.384449	0.689273	0.499972
Cl155	Cl	0.542550	0.035119	0.000023
Cl156	Cl	1.042550	0.535119	0.500023
H157	H	1.330495	0.077472	0.293408
H158	H	1.830495	0.577472	0.793408
H159	H	0.735790	0.021027	0.000023
H160	H	1.235790	0.521027	0.500023
H161	H	0.513376	0.213252	-0.000022
H162	H	1.013376	0.713252	0.499978
Cl163	Cl	1.430352	-0.631616	-0.000030
Cl164	Cl	1.930352	-0.131616	0.499970
H165	H	1.073006	0.184814	0.293426
H166	H	1.573006	0.684814	0.793426
H167	H	1.056976	0.191499	0.519610
H168	H	1.556976	0.691499	1.019610
H169	H	0.709358	0.223900	-0.000030
H170	H	1.209358	0.723900	0.499970
Cl171	Cl	0.915322	-0.354199	-0.000082
Cl172	Cl	1.415322	0.145801	0.499918
H173	H	0.931804	0.031673	-0.000001
H174	H	1.431804	0.531673	0.499999
H175	H	1.372168	0.060103	0.706541
H176	H	1.872168	0.560103	1.206541
Cl177	Cl	1.081291	0.181361	0.734199
Cl178	Cl	1.581291	0.681361	1.234199
H179	H	1.045507	-0.637077	-0.000064
H180	H	1.545507	-0.137077	0.499936
Cl181	Cl	1.443731	-0.015895	0.000042
Cl182	Cl	1.943731	0.484105	0.500042
Cl183	Cl	1.441269	-0.129796	0.000005
Cl184	Cl	1.941269	0.370204	0.500005
H185	H	1.388203	0.053419	0.480389
H186	H	1.888203	0.553419	0.980389
H187	H	1.058904	-0.021347	0.000023
H188	H	1.558904	0.478653	0.500023
H189	H	1.489079	-0.351560	-0.000025
H190	H	1.989079	0.148440	0.499975
Cl191	Cl	1.533153	-0.249462	-0.000028
Cl192	Cl	2.033153	0.250538	0.499972
H193	H	1.386270	-0.733734	-0.000052
H194	H	1.886270	-0.233734	0.499948
Cl195	Cl	0.917810	-0.240300	-0.000074
Cl196	Cl	1.417810	0.259700	0.499926
Cl197	Cl	1.001438	-0.739178	-0.000049
Cl198	Cl	1.501438	-0.239178	0.499951
H199	H	1.056903	-0.112913	0.000032
H200	H	1.556903	0.387087	0.500032
Cl201	Cl	1.529861	-0.400862	-0.000036
Cl202	Cl	2.029861	0.099138	0.499964
H203	H	1.485775	-0.502974	-0.000047
H204	H	1.985775	-0.002974	0.499953
H205	H	0.954123	-0.495056	-0.000065
H206	H	1.454123	0.004944	0.499935
H207	H	0.956117	-0.403509	-0.000059
H208	H	1.456117	0.096491	0.499941
