data_functionalizedCrystal
_audit_creation_method	'MofGen! by Chris Wilmer'
_symmetry_space_group_name_H-M	'P1'
_symmetry_Int_Tables_number	1
_symmetry_cell_setting	triclinic
loop_
_symmetry_equiv_pos_as_xyz
  x,y,z
_cell_length_a	9.065218
_cell_length_b	11.295483
_cell_length_c	9.065215
_cell_angle_alpha	85.843128
_cell_angle_beta	85.015291
_cell_angle_gamma	94.166271
loop_
_atom_site_label
_atom_site_type_symbol
_atom_site_fract_x
_atom_site_fract_y
_atom_site_fract_z
O1	O	1.970206	0.099026	0.206553
O2	O	1.540921	0.099027	0.224299
O3	O	1.764438	0.099021	0.000784
O4	O	1.746688	0.099031	0.430068
O5	O	1.744806	-0.099029	0.020385
O6	O	1.521288	-0.099023	0.243900
O7	O	1.950573	-0.099025	0.226154
Cu8	Cu	1.734138	-0.117108	0.236817
Cu9	Cu	1.757356	0.117110	0.213636
O10	O	1.727056	-0.099019	0.449669
C11	C	1.476118	0.000002	0.232394
C12	C	1.312275	0.000003	0.227294
N13	N	1.717819	-0.281843	0.253120
C14	C	1.891161	-0.531138	0.079879
C15	C	1.878839	-0.655801	0.092210
C16	C	1.680847	-0.655836	0.290105
C17	C	1.693169	-0.531172	0.277774
C18	C	1.798331	-0.468828	0.172659
C19	C	1.810659	-0.344162	0.160336
C20	C	1.612661	-0.344199	0.358224
C21	C	1.600339	-0.468863	0.370555
C22	C	2.015376	0.000003	0.218059
C23	C	2.179220	0.000010	0.223158
C24	C	1.752917	-0.000003	-0.044402
C25	C	1.747820	0.000001	-0.208246
N26	N	1.773687	0.281846	0.197321
C27	C	1.738577	0.000008	0.494855
C28	C	1.743676	0.000012	0.658698
H29	H	1.976798	-0.480376	-0.005700
H30	H	1.514714	-0.519638	0.456134
C31	C	1.510541	-0.275653	0.460289
C32	C	1.524098	-0.138529	0.446733
C33	C	1.421988	-0.069981	0.548799
C34	C	1.306321	-0.138558	0.664423
C35	C	1.292758	-0.275691	0.677984
C36	C	1.394868	-0.344238	0.575917
H37	H	1.609727	-0.087757	0.361137
H38	H	1.432029	0.031534	0.538760
H39	H	1.230733	-0.087815	0.739979
H40	H	1.207130	-0.326462	0.763580
H41	H	1.384828	-0.445753	0.585957
H42	H	1.896291	-0.293402	0.074750
H43	H	1.954428	-0.706530	0.016657
H44	H	1.595216	-0.706613	0.375678
