data_functionalizedCrystal
_audit_creation_method	'MofGen! by Chris Wilmer'
_symmetry_space_group_name_H-M	'P1'
_symmetry_Int_Tables_number	1
_symmetry_cell_setting	triclinic
loop_
_symmetry_equiv_pos_as_xyz
  x,y,z
_cell_length_a	31.640172
_cell_length_b	21.606444
_cell_length_c	21.606444
_cell_angle_alpha	60.001331
_cell_angle_beta	89.996430
_cell_angle_gamma	59.992512
loop_
_atom_site_label
_atom_site_type_symbol
_atom_site_fract_x
_atom_site_fract_y
_atom_site_fract_z
Zr1	Zr	0.407170	0.677390	-0.081225
O2	O	0.339676	0.806523	-0.180043
O3	O	0.427860	0.548267	-0.050934
O4	O	0.427855	0.677391	-0.180053
O5	O	0.339685	0.677394	0.050929
O6	O	0.497411	0.677380	-0.180057
O7	O	0.339682	0.677399	-0.050925
O8	O	0.497421	0.446401	0.050912
O9	O	0.339676	0.908373	-0.180040
O10	O	0.488593	0.601366	-0.038016
O11	O	0.436687	0.601370	0.038000
O12	O	0.436680	0.753397	-0.114020
O13	O	0.384774	0.753401	-0.038004
Zr14	Zr	0.518109	0.677366	0.081214
Zr15	Zr	0.518104	0.677373	-0.081231
Zr16	Zr	0.407175	0.677383	0.081221
Zr17	Zr	0.407168	0.839830	-0.081219
Zr18	Zr	0.518110	0.514926	0.081209
O19	O	0.497418	0.806489	0.050924
O20	O	0.497410	0.806499	-0.180053
O21	O	0.339684	0.806513	0.050933
O22	O	0.585603	0.548233	0.180033
O23	O	0.585595	0.548243	-0.050944
O24	O	0.427868	0.548257	0.180042
O25	O	0.585594	0.677362	-0.050940
O26	O	0.497424	0.677365	0.180042
O27	O	0.427868	0.677375	0.180046
O28	O	0.585597	0.677357	0.050915
O29	O	0.427853	0.908360	-0.180045
O30	O	0.497425	0.446396	0.180035
O31	O	0.585603	0.446383	0.180030
O32	O	0.585599	0.446388	0.050907
O33	O	0.339680	0.908368	-0.050918
O34	O	0.427858	0.908355	-0.050923
O35	O	0.488598	0.601359	0.114010
O36	O	0.540505	0.601354	0.037994
O37	O	0.488592	0.753386	-0.038011
O38	O	0.436686	0.753390	0.038005
C39	C	0.462641	0.474190	-0.000012
C40	C	0.462641	0.405230	-0.000014
C41	C	0.489735	0.372830	-0.039695
C42	C	0.489737	0.308030	-0.039689
C43	C	0.462642	0.275635	-0.000008
C44	C	0.435547	0.308038	0.039678
C45	C	0.435549	0.372832	0.039676
C46	C	0.435541	0.046729	0.039684
C47	C	0.435541	-0.018068	0.039680
C48	C	0.489729	-0.018074	-0.039682
C49	C	0.489731	0.046721	-0.039683
C50	C	0.462639	0.079114	0.000005
C51	C	0.462638	0.149377	0.000000
C52	C	0.462639	0.205379	-0.000007
C53	C	0.323878	0.677399	0.000003
C54	C	0.276783	0.677406	0.000006
C55	C	-0.015224	0.677365	-0.056116
C56	C	-0.192211	0.677354	-0.056122
O57	O	-0.215085	0.677317	-0.103824
N58	N	-0.214339	0.677353	-0.000010
C59	C	-0.192217	0.677349	0.056110
O60	O	-0.215097	0.677339	0.103840
C61	C	-0.015229	0.677354	0.056118
C62	C	0.006894	0.677364	-0.000002
C63	C	0.006900	0.677373	-0.112231
C64	C	0.051142	0.677381	-0.112231
C65	C	0.073261	0.677380	-0.056117
C66	C	0.051137	0.677371	-0.000002
C67	C	0.006895	0.677344	0.112240
C68	C	0.051145	0.677343	0.112238
C69	C	0.073269	0.677353	0.056119
C70	C	0.117498	0.677378	0.056111
N71	N	0.139626	0.677378	-0.000000
C72	C	0.117508	0.677379	-0.056114
C73	C	-0.285139	0.677349	0.056101
C74	C	-0.329386	0.677349	0.056098
C75	C	-0.329376	0.677352	-0.056133
C76	C	-0.285130	0.677357	-0.056133
C77	C	-0.263010	0.677349	-0.000011
C78	C	0.210420	0.677396	-0.056111
C79	C	0.254665	0.677407	-0.056108
C80	C	0.254653	0.677400	0.056124
C81	C	0.210410	0.677393	0.056119
C82	C	0.188296	0.677388	-0.000002
O83	O	0.140403	0.677404	0.103794
O84	O	0.140402	0.677370	-0.103828
C85	C	-0.059466	0.677357	-0.056116
C86	C	-0.081590	0.677349	-0.000001
C87	C	-0.059472	0.677347	0.056113
C88	C	-0.125838	0.677349	-0.000004
C89	C	-0.147956	0.677350	-0.056118
C90	C	-0.125827	0.677351	-0.112229
C91	C	-0.081585	0.677358	-0.112230
C92	C	-0.081600	0.677347	0.112225
C93	C	-0.125843	0.677340	0.112220
C94	C	-0.147962	0.677341	0.056106
C95	C	0.601401	0.677357	-0.000013
C96	C	0.648496	0.677350	-0.000016
C97	C	0.462632	0.677387	-0.203200
C98	C	0.462630	0.677390	-0.272162
C99	C	0.462638	0.880566	0.000001
C100	C	0.462637	0.949526	0.000004
C101	C	0.435532	0.756748	-0.344235
C102	C	0.435536	0.756745	-0.409029
C103	C	0.462636	0.677384	-0.401750
C104	C	0.489738	0.598020	-0.329670
C105	C	0.489736	0.598023	-0.264877
C106	C	0.489746	0.598004	-0.590973
C107	C	0.489744	0.598007	-0.655774
C108	C	0.435546	0.756727	-0.735126
C109	C	0.435544	0.756730	-0.670332
C110	C	0.462648	0.677366	-0.598258
C111	C	0.462644	0.677370	-0.528001
C112	C	0.462638	0.677379	-0.472006
C113	C	0.462646	0.677369	0.203189
C114	C	0.462649	0.677366	0.272152
C115	C	0.601403	0.474169	-0.000020
C116	C	0.648498	0.405202	-0.000025
C117	C	0.462648	0.474181	0.203183
C118	C	0.462651	0.405218	0.272143
C119	C	0.601410	0.474160	0.203175
C120	C	0.648507	0.405190	0.272132
C121	C	0.323869	0.880596	-0.203185
C122	C	0.276772	0.949566	-0.272142
C123	C	0.323876	0.880587	0.000010
C124	C	0.276781	0.949554	0.000015
C125	C	0.462631	0.880575	-0.203193
C126	C	0.462628	0.949538	-0.272153
C127	C	0.643516	0.372820	-0.039710
C128	C	0.687763	0.308027	-0.039730
C129	C	0.736990	0.275612	-0.000060
C130	C	0.741970	0.308001	0.039627
C131	C	0.697724	0.372797	0.039642
C132	C	0.489750	0.372827	0.344210
C133	C	0.489750	0.308037	0.409012
C134	C	0.462655	0.275637	0.401744
C135	C	0.435553	0.308035	0.329669
C136	C	0.435550	0.372827	0.264869
C137	C	0.697724	0.372799	0.264836
C138	C	0.741981	0.308003	0.329622
C139	C	0.737020	0.275595	0.401704
C140	C	0.687798	0.307993	0.408999
C141	C	0.643542	0.372792	0.344213
C142	C	0.227555	0.981965	-0.264846
C143	C	0.183298	1.046781	-0.329633
C144	C	0.188259	1.079192	-0.401715
C145	C	0.237480	1.046790	-0.409010
C146	C	0.281737	0.981980	-0.344224
C147	C	0.281762	0.981943	0.039693
C148	C	0.237516	1.046754	0.039695
C149	C	0.188289	1.079170	0.000022
C150	C	0.183309	1.046779	-0.039661
C151	C	0.227555	0.981974	-0.039667
C152	C	0.489729	0.981918	-0.264862
C153	C	0.489736	1.046708	-0.329651
C154	C	0.462640	1.079120	-0.401731
C155	C	0.435538	1.046734	-0.409021
C156	C	0.435534	0.981941	-0.344233
H157	H	0.413476	-0.044443	0.071996
H158	H	0.511791	-0.044459	-0.071996
Cl159	Cl	0.523792	0.087445	-0.089574
Cl160	Cl	0.132670	1.160639	0.000040
H161	H	-0.063594	0.677344	0.157920
H162	H	-0.011112	0.677336	0.157938
Cl163	Cl	0.221305	0.941233	-0.174236
Cl164	Cl	0.792662	0.194131	0.483143
Cl165	Cl	0.401489	0.413562	0.089565
Cl166	Cl	0.182594	0.677395	0.126665
H167	H	0.321842	0.955554	0.072004
H168	H	0.511806	0.533402	-0.323748
Cl169	Cl	0.792609	0.194151	-0.000085
Cl170	Cl	0.803860	0.267238	0.089498
Cl171	Cl	0.523826	0.267319	0.499611
Cl172	Cl	0.523818	0.413543	0.353367
Cl173	Cl	0.121419	1.087537	-0.089528
H174	H	0.462662	0.222879	0.454515
Cl175	Cl	0.243788	1.087457	0.089591
Cl176	Cl	0.401482	0.413535	0.174273
Cl177	Cl	0.401456	0.941250	-0.353413
Cl178	Cl	-0.257337	0.677343	0.126658
Cl179	Cl	0.581636	0.413559	-0.089592
H180	H	0.241513	1.073187	-0.467707
H181	H	0.511796	0.399205	-0.072012
H182	H	0.321810	0.955601	-0.350174
H183	H	0.192420	0.677390	-0.101809
Cl184	Cl	0.523798	0.941183	-0.174254
Cl185	Cl	0.681571	0.267241	0.499623
Cl186	Cl	0.401494	0.267291	0.320546
H187	H	0.511804	1.073070	-0.323700
H188	H	0.603470	0.399157	0.350165
H189	H	0.223492	0.955605	-0.071976
Cl190	Cl	0.121426	1.087498	-0.320445
H191	H	0.069154	0.677385	-0.157926
H192	H	0.462647	1.131879	-0.454480
Cl193	Cl	0.401485	0.087441	0.089581
H194	H	0.272667	0.677403	0.101810
H195	H	0.413477	1.073134	-0.467718
Cl196	Cl	0.803853	0.267284	0.320434
H197	H	0.069155	0.677334	0.157942
Cl198	Cl	0.523787	0.267319	-0.089593
H199	H	0.683698	0.281664	-0.072048
H200	H	0.152218	1.131964	-0.454462
H201	H	0.701787	0.399154	0.071963
H202	H	0.413489	0.281653	0.071991
Cl203	Cl	0.282474	0.677421	-0.126665
H204	H	-0.267120	0.677365	-0.101830
Cl205	Cl	-0.357190	0.677351	-0.126674
Cl206	Cl	-0.020899	0.677375	-0.182784
Cl207	Cl	0.703974	0.413532	0.174226
Cl208	Cl	-0.357199	0.677354	0.126642
Cl209	Cl	-0.053778	0.677368	-0.182783
H210	H	-0.143845	0.677356	-0.157922
Cl211	Cl	0.401467	0.856503	-0.679489
H212	H	-0.143855	0.677340	0.157919
H213	H	0.413471	0.821367	-0.467712
Cl214	Cl	0.401460	0.856523	-0.353395
H215	H	0.413479	0.821349	-0.793818
H216	H	0.511814	0.533378	-0.649839
H217	H	0.511802	0.533401	-0.206193
H218	H	0.511816	0.533382	-0.532296
