data_functionalizedCrystal
_audit_creation_method	'MofGen! by Chris Wilmer'
_symmetry_space_group_name_H-M	'P1'
_symmetry_Int_Tables_number	1
_symmetry_cell_setting	triclinic
loop_
_symmetry_equiv_pos_as_xyz
  x,y,z
_cell_length_a	19.121102
_cell_length_b	19.121063
_cell_length_c	19.120904
_cell_angle_alpha	94.741613
_cell_angle_beta	89.911827
_cell_angle_gamma	89.873098
loop_
_atom_site_label
_atom_site_type_symbol
_atom_site_fract_x
_atom_site_fract_y
_atom_site_fract_z
Zn1	Zn	1.039579	0.343506	0.456040
Zn2	Zn	1.039493	0.456149	0.343386
Zn3	Zn	0.927792	0.333518	0.333417
Zn4	Zn	0.917325	0.455677	0.455570
O5	O	0.981047	0.397212	0.397103
O6	O	1.137479	0.362826	0.445465
O7	O	1.029020	0.435899	0.243797
O8	O	0.947038	0.236577	0.345708
O9	O	1.137415	0.445584	0.362699
O10	O	1.029167	0.243915	0.435798
O11	O	0.946954	0.345802	0.236473
O12	O	0.828493	0.345345	0.345252
O13	O	0.929198	0.444780	0.553899
O14	O	0.820803	0.435094	0.434997
O15	O	1.019018	0.362368	0.554244
O16	O	1.018870	0.554352	0.362243
O17	O	0.929114	0.554005	0.444664
C18	C	0.799261	0.389085	0.388992
C19	C	0.721490	0.385626	0.385539
C20	C	0.972865	0.579659	0.404501
C21	C	0.969428	0.657714	0.407691
C22	C	0.680968	0.430793	0.430575
C23	C	0.607894	0.427534	0.427334
C24	C	0.575344	0.379110	0.379053
C25	C	0.615872	0.333937	0.334016
C26	C	0.688944	0.337194	0.337261
C27	C	0.354913	0.366933	0.366924
C28	C	0.281835	0.363681	0.363681
C29	C	0.273863	0.457277	0.457000
C30	C	0.346937	0.460532	0.460238
C31	C	0.387458	0.415357	0.415203
C32	C	0.500651	0.375778	0.375738
C33	C	0.462149	0.418686	0.418523
C34	C	0.972950	0.404635	0.580263
C35	C	0.969500	0.407799	0.658315
C36	C	1.163544	0.405372	0.405246
C37	C	1.241313	0.408849	0.408717
C38	C	0.989280	0.214054	0.389693
C39	C	0.992788	0.136003	0.386535
C40	C	1.014577	0.694545	0.366317
C41	C	1.011348	0.767887	0.369323
C42	C	0.962966	0.804396	0.413699
C43	C	0.917815	0.767560	0.455078
C44	C	0.921048	0.694220	0.452076
C45	C	0.950869	1.025828	0.424912
C46	C	0.947638	1.099173	0.427909
C47	C	1.041173	1.099494	0.342155
C48	C	1.044399	1.026153	0.339154
C49	C	0.999250	0.989323	0.380535
C50	C	0.959663	0.879363	0.416770
C51	C	1.002557	0.914358	0.377467
C52	C	0.989156	0.389769	0.214655
C53	C	0.992751	0.386414	0.136602
C54	C	1.014640	0.366379	0.695165
C55	C	1.011390	0.369348	0.768503
C56	C	0.963001	0.413741	0.804990
C57	C	0.917856	0.455162	0.768135
C58	C	0.921103	0.452188	0.694798
C59	C	0.950853	0.424862	1.026410
C60	C	0.947610	0.427833	1.099752
C61	C	1.041143	0.342019	1.100115
C62	C	1.044390	0.339052	1.026777
C63	C	0.999242	0.380470	0.989928
C64	C	0.959679	0.416779	0.879953
C65	C	1.002561	0.377429	0.914966
H66	H	0.707464	0.470228	0.469888
H67	H	0.488655	0.458110	0.457836
H68	H	1.077932	1.129489	0.308466
H69	H	0.474141	0.336353	0.336426
H70	H	0.884338	0.485909	0.664795
H71	H	0.920284	0.452927	0.909669
N72	N	0.904728	0.467162	0.988780
N73	N	0.840014	0.459946	0.993907
H74	H	0.807434	0.489823	0.967329
H75	H	1.048150	0.335622	0.798503
N76	N	0.910228	0.916646	0.462090
N77	N	0.869909	0.883756	0.499023
H78	H	0.834994	0.910088	0.531030
H79	H	0.373433	0.499966	0.499552
H80	H	1.077899	0.308298	1.130125
N81	N	0.904757	0.988220	0.467191
N82	N	0.906126	0.999222	0.532529
H83	H	0.873557	0.972661	0.562393
H84	H	0.878454	0.491305	0.797848
H85	H	1.083795	0.996429	0.303019
H86	H	0.908204	0.463985	1.129457
N87	N	1.057463	0.805524	0.327070
N88	N	1.099132	0.849393	0.355478
H89	H	1.131703	0.875978	0.325638
N90	N	1.064007	0.657256	0.320997
N91	N	1.109286	0.619277	0.346051
H92	H	1.144199	0.592942	0.314044
N93	N	0.898205	1.136456	0.473239
N94	N	0.857895	1.103565	0.510180
H95	H	0.822982	1.129896	0.542190
N96	N	1.051966	0.877058	0.332135
N97	N	1.031155	0.833260	0.284604
H98	H	1.066047	0.806910	0.252585
N99	N	1.064059	0.321030	0.657887
N100	N	1.066953	0.318378	0.592409
H101	H	1.101854	0.286347	0.566081
H102	H	1.083794	0.302905	0.997075
H103	H	1.041956	0.341281	0.885255
H104	H	0.878424	0.797292	0.491213
N105	N	0.730337	0.291066	0.291246
N106	N	0.771978	0.315703	0.249265
H107	H	0.801211	0.283122	0.216767
N108	N	0.566513	0.473673	0.473346
N109	N	0.595583	0.516906	0.516449
H110	H	0.566358	0.549494	0.548949
N111	N	0.232461	0.503415	0.502994
N112	N	0.167219	0.500505	0.500092
H113	H	0.137977	0.533091	0.532577
H114	H	0.255336	0.324240	0.324369
H115	H	0.884283	0.664233	0.485768
H116	H	0.589364	0.294506	0.294708
N117	N	0.396287	0.320788	0.320915
N118	N	0.367213	0.277561	0.277807
H119	H	0.396436	0.244971	0.245309
