data_functionalizedCrystal
_audit_creation_method	'MofGen! by Chris Wilmer'
_symmetry_space_group_name_H-M	'P1'
_symmetry_Int_Tables_number	1
_symmetry_cell_setting	triclinic
loop_
_symmetry_equiv_pos_as_xyz
  x,y,z
_cell_length_a	6.817900
_cell_length_b	11.102288
_cell_length_c	16.255661
_cell_angle_alpha	93.854370
_cell_angle_beta	103.488922
_cell_angle_gamma	108.605689
loop_
_atom_site_label
_atom_site_type_symbol
_atom_site_fract_x
_atom_site_fract_y
_atom_site_fract_z
V1	V	-4.052939	-0.176866	-0.263871
O2	O	-4.013087	0.007443	-0.258848
O3	O	-4.030117	-0.349679	-0.262067
O4	O	-4.004166	-0.174609	-0.378954
O5	O	-4.039217	-0.168840	-0.141151
V6	V	-4.533301	-0.154766	-0.249193
O7	O	-4.321131	-0.225344	-0.296069
O8	O	-4.715306	-0.106287	-0.216995
O9	O	-4.332916	0.018048	-0.250997
O10	O	-4.690550	-0.339074	-0.254216
O11	O	-4.664420	-0.162792	-0.371913
O12	O	-4.358867	-0.157023	-0.134110
C13	C	-3.881352	-0.391793	-0.257904
C14	C	-3.943976	-0.533073	-0.257196
C15	C	-3.848248	-0.168472	-0.407005
C16	C	-3.889824	-0.167770	-0.501086
C17	C	-4.156468	-0.605936	-0.261085
C18	C	-4.215302	-0.738685	-0.260426
C19	C	-3.849130	-0.725694	-0.251984
C20	C	-3.790303	-0.592949	-0.252650
C21	C	-3.799137	-0.159385	-0.723905
C22	C	-3.971599	-0.267595	-0.793381
C23	C	-3.966013	-0.166454	-0.673335
C24	C	-3.867658	-0.057005	-0.771496
C25	C	-4.039592	-0.165177	-0.839718
C26	C	-4.137972	-0.274760	-0.741581
C27	C	-4.033954	-0.064074	-0.719680
C28	C	-4.206557	-0.172315	-0.789137
C29	C	-3.923622	-0.167190	-0.577485
C30	C	-4.082002	-0.164450	-0.935567
C31	C	-4.145024	0.060155	-0.255158
C32	C	-4.061638	0.201433	-0.255872
C33	C	-4.178128	-0.163164	-0.106055
C34	C	-4.115790	-0.163859	-0.011973
H35	H	-4.388329	-0.798006	-0.263595
H36	H	-3.945686	-0.353640	-0.825467
O37	O	-3.699853	-0.783883	-0.247410
C38	C	-3.513026	-0.908746	-0.168121
C39	C	-3.682100	-0.842882	-0.173190
H40	H	-3.498650	-0.956486	-0.108128
H41	H	-3.350958	-0.833906	-0.165399
H42	H	-3.564417	-0.984688	-0.227127
H43	H	-3.630911	-0.766948	-0.114198
H44	H	-3.844127	-0.917798	-0.175953
O45	O	-3.583760	-0.522181	-0.248716
C46	C	-3.211946	-0.452981	-0.168070
C47	C	-3.445746	-0.533150	-0.172402
H48	H	-3.100291	-0.461844	-0.106383
H49	H	-3.196143	-0.347788	-0.169271
H50	H	-3.166307	-0.490037	-0.225388
H51	H	-3.491539	-0.496207	-0.115095
H52	H	-3.461423	-0.638330	-0.171241
H53	H	-3.626593	-0.154059	-0.695424
H54	H	-3.753780	0.034998	-0.785106
H55	H	-4.251849	-0.366887	-0.728114
H56	H	-4.379245	-0.177811	-0.817484
O57	O	-4.065095	0.038432	-0.681337
C58	C	-4.264508	0.110820	-0.596737
C59	C	-4.229543	-0.005396	-0.640148
H60	H	-4.397431	0.075428	-0.563409
H61	H	-4.312580	0.170338	-0.647086
H62	H	-4.109263	0.172745	-0.547524
H63	H	-4.384715	-0.067417	-0.689355
H64	H	-4.181373	-0.064818	-0.589750
O65	O	-4.305618	-0.547658	-0.265619
C66	C	-4.492653	-0.422933	-0.344958
C67	C	-4.323646	-0.488843	-0.339914
H68	H	-4.507317	-0.375388	-0.405030
H69	H	-4.441304	-0.346873	-0.286019
H70	H	-4.654585	-0.497835	-0.347583
H71	H	-4.161657	-0.414036	-0.337316
H72	H	-4.375178	-0.564928	-0.398852
