data_functionalizedCrystal
_audit_creation_method	'MofGen! by Chris Wilmer'
_symmetry_space_group_name_H-M	'P1'
_symmetry_Int_Tables_number	1
_symmetry_cell_setting	triclinic
loop_
_symmetry_equiv_pos_as_xyz
  x,y,z
_cell_length_a	12.759401
_cell_length_b	15.300062
_cell_length_c	12.759393
_cell_angle_alpha	99.650324
_cell_angle_beta	89.979062
_cell_angle_gamma	80.354433
loop_
_atom_site_label
_atom_site_type_symbol
_atom_site_fract_x
_atom_site_fract_y
_atom_site_fract_z
Zn1	Zn	1.678533	-0.358965	-0.666426
Zn2	Zn	1.708790	-0.509801	-0.521171
Zn3	Zn	1.502841	-0.359013	-0.490771
Zn4	Zn	1.533177	-0.509738	-0.696796
O5	O	1.605836	-0.434379	-0.593791
O6	O	1.829569	-0.378980	-0.647171
O7	O	1.681438	-0.489845	-0.370127
O8	O	1.500789	-0.232802	-0.488640
O9	O	1.851799	-0.489799	-0.540452
O10	O	1.629869	-0.232766	-0.617693
O11	O	1.530128	-0.379062	-0.347792
O12	O	1.359843	-0.379000	-0.518088
O13	O	1.552492	-0.489691	-0.839779
O14	O	1.382131	-0.489738	-0.669453
O15	O	1.659284	-0.378919	-0.817467
O16	O	1.710854	-0.635997	-0.569901
O17	O	1.581831	-0.635951	-0.698931
C18	C	1.332866	-0.434368	-0.593768
C19	C	1.216093	-0.434385	-0.593787
C20	C	1.172881	-0.492134	-0.672515
C21	C	1.063158	-0.492137	-0.672537
C22	C	1.039867	-0.376641	-0.515093
C23	C	1.149587	-0.376633	-0.515077
C24	C	1.652946	-0.668698	-0.641033
C25	C	1.673196	-0.768940	-0.661278
C26	C	1.749853	-0.815930	-0.738019
C27	C	1.768889	-0.910113	-0.757050
C28	C	1.711276	-0.957315	-0.699336
C29	C	1.634623	-0.910325	-0.622588
C30	C	1.615579	-0.816133	-0.603561
C31	C	1.577001	-0.957518	-0.564878
C32	C	1.500348	-0.910528	-0.488130
C33	C	1.481308	-0.816345	-0.469106
C34	C	1.538922	-0.769143	-0.526820
C35	C	1.596045	-1.051710	-0.583904
C36	C	1.461771	-1.051913	-0.449446
C37	C	1.442735	-0.957730	-0.430416
C38	C	1.879871	-0.434391	-0.593815
C39	C	1.996649	-0.434396	-0.593825
C40	C	1.605897	-0.434293	-0.867807
C41	C	1.605923	-0.434256	-0.984576
C42	C	1.558570	-0.199146	-0.546388
C43	C	1.538428	-0.098903	-0.526187
C44	C	1.661533	-0.376567	-1.027820
C45	C	1.661543	-0.376528	-1.137536
C46	C	1.550331	-0.491874	-1.160757
C47	C	1.550316	-0.491908	-1.051042
C48	C	1.605822	-0.434400	-0.320828
C49	C	1.605948	-0.434183	-0.204008
H50	H	1.658452	-1.089960	-0.646398
H51	H	1.706808	-0.329621	-0.973706
H52	H	1.184769	-0.329602	-0.450966
H53	H	0.985705	-0.329623	-0.451008
C54	C	1.742915	-0.709892	-0.857919
C55	C	1.813168	-0.764040	-0.801452
H56	H	1.782005	-0.677852	-0.897077
H57	H	1.704567	-0.746653	-0.905490
H58	H	1.694538	-0.668438	-0.809478
H59	H	1.861540	-0.805498	-0.849894
H60	H	1.851533	-0.727276	-0.753876
C61	C	1.811657	-1.092120	-0.799792
C62	C	1.732207	-1.060843	-0.720245
H63	H	1.824586	-1.156036	-0.812693
H64	H	1.789132	-1.070789	-0.863255
H65	H	1.875141	-1.070756	-0.777363
H66	H	1.668720	-1.082200	-0.742677
H67	H	1.754727	-1.082183	-0.656769
H68	H	1.706824	-0.329551	-1.172739
C69	C	1.899721	-0.900444	-0.888016
C70	C	1.853162	-0.961761	-0.841387
H71	H	1.951759	-0.932333	-0.940075
H72	H	1.846509	-0.863729	-0.920759
H73	H	1.932486	-0.863696	-0.834836
H74	H	1.820390	-0.998505	-0.894566
H75	H	1.906383	-0.998492	-0.808643
C76	C	1.411704	-0.634289	-0.526281
C77	C	1.517992	-0.665612	-0.505909
H78	H	1.398785	-0.570373	-0.513368
H79	H	1.397818	-0.655568	-0.598355
H80	H	1.366425	-0.655674	-0.480919
H81	H	1.563270	-0.644233	-0.551277
H82	H	1.531888	-0.644324	-0.433823
C83	C	1.500981	-0.543044	-1.339256
C84	C	1.489220	-0.555250	-1.233821
H85	H	1.463259	-0.582177	-1.384359
H86	H	1.473432	-0.482449	-1.345020
H87	H	1.574231	-0.556243	-1.359896
H88	H	1.415971	-0.542044	-1.213178
H89	H	1.516764	-0.615859	-1.228052
H90	H	1.418884	-0.778086	-0.406622
H91	H	1.380322	-0.919459	-0.367927
H92	H	1.505024	-0.538884	-1.015833
H93	H	1.414853	-1.090345	-0.402454
H94	H	1.027981	-0.539161	-0.736646
C95	C	1.184876	-0.606287	-0.828152
C96	C	1.245983	-0.555603	-0.759042
H97	H	1.230005	-0.645464	-0.881576
H98	H	1.148990	-0.640741	-0.789265
H99	H	1.134203	-0.567024	-0.860498
H100	H	1.296651	-0.594865	-0.726690
H101	H	1.281886	-0.521146	-0.797935
