data_functionalizedCrystal
_audit_creation_method	'MofGen! by Chris Wilmer'
_symmetry_space_group_name_H-M	'P1'
_symmetry_Int_Tables_number	1
_symmetry_cell_setting	triclinic
loop_
_symmetry_equiv_pos_as_xyz
  x,y,z
_cell_length_a	12.645331
_cell_length_b	12.645330
_cell_length_c	12.645323
_cell_angle_alpha	90.024870
_cell_angle_beta	90.015738
_cell_angle_gamma	90.016927
loop_
_atom_site_label
_atom_site_type_symbol
_atom_site_fract_x
_atom_site_fract_y
_atom_site_fract_z
Zn1	Zn	1.620731	-0.422053	0.599250
Zn2	Zn	1.620613	-0.599341	0.421990
Zn3	Zn	1.443446	-0.422089	0.422016
Zn4	Zn	1.443428	-0.599272	0.599227
O5	O	1.532054	-0.510689	0.510621
O6	O	1.769063	-0.445584	0.575735
O7	O	1.597069	-0.575872	0.273646
O8	O	1.467020	-0.273737	0.445547
O9	O	1.768976	-0.575836	0.445503
O10	O	1.597271	-0.273710	0.575760
O11	O	1.466905	-0.445646	0.273665
O12	O	1.295096	-0.445580	0.445524
O13	O	1.466989	-0.575720	0.747577
O14	O	1.295083	-0.575755	0.575721
O15	O	1.597253	-0.445517	0.747594
O16	O	1.597052	-0.747679	0.445481
O17	O	1.466874	-0.747629	0.575696
C18	C	1.256625	-0.510665	0.510623
C19	C	1.138795	-0.510680	0.510650
C20	C	0.971258	-0.593022	0.592129
C21	C	1.093818	-0.592757	0.592470
C22	C	1.094316	-0.399025	0.541171
C23	C	0.971718	-0.399528	0.541745
C24	C	0.971549	-0.539093	0.398390
C25	C	1.094155	-0.541535	0.398996
C26	C	1.531977	-0.786118	0.510606
C27	C	1.532041	-0.903948	0.510635
C28	C	1.450484	-1.071525	0.592806
C29	C	1.450067	-0.948966	0.592542
C30	C	1.501796	-0.948542	0.398917
C31	C	1.501298	-1.071141	0.399415
C32	C	1.644342	-1.071039	0.539276
C33	C	1.643654	-0.948432	0.541719
C34	C	1.808560	-0.510714	0.510619
C35	C	1.926390	-0.510724	0.510618
C36	C	1.532132	-0.510607	0.787126
C37	C	1.532166	-0.510572	0.904956
C38	C	1.532161	-0.234183	0.510659
C39	C	1.532206	-0.116353	0.510675
C40	C	1.532038	-0.510694	0.235191
C41	C	1.532210	-0.510430	0.117361
C42	C	1.449964	-0.592096	1.072510
C43	C	1.450179	-0.592500	0.949950
C44	C	1.643865	-0.540892	0.949463
C45	C	1.643414	-0.541403	1.072061
C46	C	1.503724	-0.398272	1.072158
C47	C	1.501232	-0.398944	0.949551
H48	H	0.943144	-0.375465	0.623788
N49	N	1.133672	-0.702430	0.567156
H50	H	1.178195	-0.700006	0.500902
H51	H	1.071547	-0.751331	0.555723
N52	N	1.675377	-0.650007	1.109972
H53	H	1.741476	-0.644318	1.154470
H54	H	1.689573	-0.697045	1.046992
N55	N	1.578133	-0.909928	0.315636
H56	H	1.633188	-0.863042	0.349607
H57	H	1.538277	-0.868438	0.260253
H58	H	1.563628	-0.337427	1.101164
N59	N	0.932377	-0.315577	0.466521
H60	H	0.888113	-0.262514	0.506570
H61	H	0.888030	-0.349675	0.409481
N62	N	1.727349	-0.466054	1.111372
H63	H	1.798841	-0.489451	1.084551
H64	H	1.727618	-0.465834	1.191239
H65	H	1.558238	-1.100799	0.336136
N66	N	0.932199	-0.703067	0.567081
H67	H	0.885036	-0.700645	0.502655
H68	H	0.890895	-0.731392	0.629277
H69	H	1.671932	-1.101884	0.619356
H70	H	1.123166	-0.573982	0.675626
N71	N	0.930479	-0.568485	0.701642
H72	H	0.883068	-0.504290	0.698684
H73	H	0.992106	-0.553863	0.750325
H74	H	1.706788	-0.483292	0.920320
N75	N	1.134994	-0.366573	0.648676
H76	H	1.105930	-0.294631	0.667613
H77	H	1.214787	-0.363488	0.647112
H78	H	0.940627	-0.619123	0.370649
N79	N	1.132900	-0.315586	0.464995
H80	H	1.179696	-0.349442	0.409836
H81	H	1.174476	-0.260285	0.504949
N82	N	1.397710	-0.361652	1.113089
H83	H	1.399938	-0.357388	1.192818
H84	H	1.341221	-0.413519	1.090701
H85	H	1.366889	-0.573305	1.101993
N86	N	1.475131	-0.702616	0.911079
H87	H	1.414439	-0.729665	0.866720
H88	H	1.486064	-0.751027	0.973635
H89	H	1.123238	-0.623697	0.375976
H90	H	1.469234	-1.100937	0.675916
H91	H	1.419031	-0.376079	0.920462
H92	H	1.419326	-1.099831	0.375185
N93	N	1.394349	-0.907998	0.366228
H94	H	1.365111	-0.860756	0.423616
H95	H	1.344973	-0.969739	0.354758
H96	H	1.666463	-0.919282	0.623938
N97	N	1.134702	-0.467900	0.314225
H98	H	1.182795	-0.413248	0.347145
H99	H	1.073015	-0.431393	0.279018
N100	N	1.474652	-0.701551	1.113301
H101	H	1.470992	-0.701713	1.193087
H102	H	1.548045	-0.722670	1.089955
H103	H	1.707747	-0.917783	0.486255
H104	H	1.705227	-1.100028	0.479457
N105	N	1.340477	-0.567322	0.910078
H106	H	1.291542	-0.555866	0.972144
H107	H	1.313618	-0.628171	0.865819
H108	H	0.942532	-0.479147	0.337657
H109	H	1.468990	-0.918812	0.675381
N110	N	1.341050	-1.112446	0.568037
H111	H	1.344181	-1.159897	0.503847
H112	H	1.292367	-1.050883	0.553316
H113	H	1.668424	-0.622023	0.918771
N114	N	1.339956	-0.910224	0.567432
H115	H	1.288978	-0.937071	0.622730
H116	H	1.317982	-0.937300	0.495558
H117	H	1.556760	-0.334882	0.918923
