data_functionalizedCrystal
_audit_creation_method	'MofGen! by Chris Wilmer'
_symmetry_space_group_name_H-M	'P1'
_symmetry_Int_Tables_number	1
_symmetry_cell_setting	triclinic
loop_
_symmetry_equiv_pos_as_xyz
  x,y,z
_cell_length_a	14.421503
_cell_length_b	16.992694
_cell_length_c	15.944493
_cell_angle_alpha	92.928367
_cell_angle_beta	89.989835
_cell_angle_gamma	89.997471
loop_
_atom_site_label
_atom_site_type_symbol
_atom_site_fract_x
_atom_site_fract_y
_atom_site_fract_z
O1	O	0.076976	-1.040371	0.178099
O2	O	0.410309	-0.707037	0.511432
O3	O	0.743642	-0.373704	0.844766
O4	O	0.077003	-0.812086	0.176145
O5	O	0.410336	-0.478752	0.509478
O6	O	0.743670	-0.145419	0.842812
O7	O	0.076996	-0.932486	0.055264
O8	O	0.410330	-0.599153	0.388597
O9	O	0.743663	-0.265819	0.721930
O10	O	0.076982	-0.919971	0.298980
O11	O	0.410316	-0.586637	0.632314
O12	O	0.743649	-0.253304	0.965647
O13	O	-0.077227	-0.932466	0.055281
O14	O	0.256106	-0.599133	0.388615
O15	O	0.589440	-0.265799	0.721948
O16	O	-0.077220	-0.812066	0.176163
O17	O	0.256113	-0.478732	0.509496
O18	O	0.589446	-0.145399	0.842830
O19	O	-0.077248	-1.040351	0.178117
O20	O	0.256085	-0.707018	0.511450
O21	O	0.589419	-0.373684	0.844784
Cu22	Cu	-0.091316	-0.926207	0.177142
Cu23	Cu	0.242017	-0.592873	0.510475
Cu24	Cu	0.575351	-0.259540	0.843808
Cu25	Cu	0.091071	-0.926230	0.177120
Cu26	Cu	0.424404	-0.592897	0.510454
Cu27	Cu	0.757738	-0.259563	0.843787
O28	O	-0.077241	-0.919951	0.298998
O29	O	0.256092	-0.586617	0.632332
O30	O	0.589426	-0.253284	0.965665
C31	C	-0.000105	-0.782864	0.173640
C32	C	0.333228	-0.449530	0.506974
C33	C	0.666562	-0.116197	0.840307
C34	C	-0.000094	-0.695821	0.166140
C35	C	0.333240	-0.362487	0.499473
C36	C	0.666573	-0.029154	0.832807
C37	C	-0.000111	-0.931964	0.023943
C38	C	0.333222	-0.598631	0.357277
C39	C	0.666555	-0.265298	0.690610
C40	C	-0.000099	-0.930431	-0.069408
C41	C	0.333234	-0.597098	0.263925
C42	C	0.666567	-0.263764	0.597259
N43	N	-0.219597	-0.926196	0.177156
N44	N	0.113736	-0.592862	0.510490
N45	N	0.447069	-0.259529	0.843823
C46	C	-0.469248	-0.870513	0.233024
C47	C	-0.135914	-0.537179	0.566358
C48	C	0.197419	-0.203846	0.899691
C49	C	-0.531060	-0.941361	0.254084
C50	C	-0.197727	-0.608028	0.587417
C51	C	0.135606	-0.274694	0.920750
C52	C	-0.408759	-0.926215	0.177137
C53	C	-0.075425	-0.592881	0.510471
C54	C	0.257908	-0.259548	0.843804
C55	C	-0.531040	-0.855385	0.156099
C56	C	-0.197707	-0.522052	0.489432
C57	C	0.135627	-0.188718	0.822766
C58	C	-0.591480	-0.926227	0.177121
C59	C	-0.258147	-0.592893	0.510454
C60	C	0.075187	-0.259560	0.843787
C61	C	-0.469210	-0.997099	0.198237
C62	C	-0.135877	-0.663765	0.531570
C63	C	0.197456	-0.330432	0.864904
C64	C	-0.469185	-0.911076	0.100216
C65	C	-0.135851	-0.577743	0.433549
C66	C	0.197482	-0.244409	0.766883
C67	C	-0.530969	-0.981975	0.121247
C68	C	-0.197636	-0.648642	0.454580
C69	C	0.135697	-0.315309	0.787913
C70	C	-0.303497	-0.926207	0.177149
C71	C	0.029836	-0.592873	0.510482
C72	C	0.363169	-0.259540	0.843816
C73	C	-0.696739	-0.926243	0.177109
C74	C	-0.363406	-0.592910	0.510442
C75	C	-0.030072	-0.259576	0.843776
N76	N	0.219352	-0.926247	0.177099
N77	N	0.552686	-0.592914	0.510433
N78	N	0.886019	-0.259581	0.843766
C79	C	-0.000138	-1.069573	0.180622
C80	C	0.333195	-0.736240	0.513955
C81	C	0.666529	-0.402906	0.847288
C82	C	-0.000143	-1.156616	0.188122
C83	C	0.333190	-0.823283	0.521455
C84	C	0.666524	-0.489949	0.854788
C85	C	-0.000099	-0.645570	0.238506
C86	C	0.333235	-0.312236	0.571839
C87	C	0.666568	0.021097	0.905173
C88	C	-0.000111	-0.563784	0.231454
C89	C	0.333222	-0.230451	0.564787
C90	C	0.666556	0.102882	0.898121
C91	C	-0.000112	-0.532251	0.152035
C92	C	0.333221	-0.198918	0.485368
C93	C	0.666555	0.134416	0.818702
C94	C	-0.000110	-0.582508	0.079664
C95	C	0.333223	-0.249175	0.412997
C96	C	0.666557	0.084159	0.746330
C97	C	-0.000104	-0.664292	0.086717
C98	C	0.333229	-0.330959	0.420050
C99	C	0.666563	0.002375	0.753383
C100	C	-0.000135	-0.288657	0.122803
C101	C	0.333198	0.044676	0.456137
C102	C	0.666532	0.378009	0.789470
C103	C	-0.000138	-0.206867	0.115756
C104	C	0.333195	0.126466	0.449089
C105	C	0.666529	0.459800	0.782423
C106	C	-0.000141	-0.188149	0.267547
C107	C	0.333192	0.145185	0.600880
C108	C	0.666526	0.478518	0.934214
C109	C	-0.000130	-0.269935	0.274593
C110	C	0.333204	0.063398	0.607926
C111	C	0.666537	0.396732	0.941260
C112	C	-0.000132	-0.320185	0.202221
C113	C	0.333201	0.013148	0.535555
C114	C	0.666534	0.346482	0.868888
N115	N	-0.000122	-0.448653	0.144825
N116	N	0.333212	-0.115320	0.478158
N117	N	0.666545	0.218014	0.811491
N118	N	-0.000129	-0.403781	0.209433
N119	N	0.333204	-0.070448	0.542766
N120	N	0.666537	0.262885	0.876099
C121	C	-0.000126	-1.001301	-0.300415
C122	C	0.333208	-0.667968	0.032919
C123	C	0.666541	-0.334634	0.366252
C124	C	0.075919	-0.963093	-0.353555
C125	C	0.409252	-0.629760	-0.020222
C126	C	0.742585	-0.296427	0.313112
C127	C	-0.000110	-0.927589	-0.240320
C128	C	0.333223	-0.594256	0.093014
C129	C	0.666556	-0.260923	0.426347
C130	C	-0.076133	-0.963056	-0.353515
C131	C	0.257200	-0.629723	-0.020181
C132	C	0.590533	-0.296390	0.313152
C133	C	-0.000125	-0.924850	-0.405413
C134	C	0.333208	-0.591517	-0.072080
C135	C	0.666541	-0.258183	0.261254
C136	C	0.075997	-0.889401	-0.292230
C137	C	0.409330	-0.556068	0.041103
C138	C	0.742663	-0.222735	0.374437
C139	C	-0.076124	-0.889375	-0.292186
C140	C	0.257209	-0.556042	0.041148
C141	C	0.590543	-0.222709	0.374481
C142	C	-0.000061	-0.851113	-0.345296
C143	C	0.333272	-0.517780	-0.011963
C144	C	0.666606	-0.184447	0.321370
C145	C	-0.000101	-0.929169	-0.145214
C146	C	0.333232	-0.595836	0.188120
C147	C	0.666565	-0.262503	0.521453
C148	C	-0.000128	-0.923264	-0.500516
C149	C	0.333206	-0.589931	-0.167183
C150	C	0.666539	-0.256597	0.166150
C151	C	-0.000131	-0.920472	0.330319
C152	C	0.333202	-0.587139	0.663652
C153	C	0.666535	-0.253806	0.996985
C154	C	-0.000137	-0.922006	0.423670
C155	C	0.333196	-0.588672	0.757003
C156	C	0.666529	-0.255339	1.090337
H157	H	-0.442147	-0.823455	0.280330
H158	H	-0.108814	-0.490122	0.613663
H159	H	0.224519	-0.156789	0.946996
H160	H	-0.000141	-0.147227	0.326467
H161	H	0.333193	0.186107	0.659801
H162	H	0.666526	0.519440	0.993134
H163	H	-0.442165	-1.057016	0.216101
H164	H	-0.108832	-0.723683	0.549435
H165	H	0.224501	-0.390350	0.882768
Br166	Br	-0.183280	-1.014950	-0.398242
Br167	Br	0.150053	-0.681617	-0.064908
Br168	Br	0.483387	-0.348283	0.268425
H169	H	-0.557900	-1.029137	0.073978
H170	H	-0.224566	-0.695804	0.407312
H171	H	0.108767	-0.362471	0.740645
H172	H	0.140355	-0.858298	-0.265504
H173	H	0.473688	-0.524965	0.067829
H174	H	0.807021	-0.191631	0.401162
H175	H	-0.000012	-0.787571	-0.365024
H176	H	0.333322	-0.454237	-0.031691
H177	H	0.666655	-0.120904	0.301643
H178	H	-0.441985	-0.898238	0.035191
H179	H	-0.108652	-0.564905	0.368525
H180	H	0.224682	-0.231571	0.701858
Br181	Br	-0.576313	-0.755542	0.126452
Br182	Br	-0.242980	-0.422209	0.459786
Br183	Br	0.090354	-0.088876	0.793119
H184	H	-0.558238	-0.954177	0.319128
H185	H	-0.224905	-0.620843	0.652461
H186	H	0.108428	-0.287510	0.985794
Br187	Br	-0.000118	-0.312724	0.382379
Br188	Br	0.333215	0.020609	0.715713
Br189	Br	0.666549	0.353942	1.049046
Br190	Br	-0.183272	-0.837538	-0.247355
Br191	Br	0.150061	-0.504204	0.085979
Br192	Br	0.483394	-0.170871	0.419312
H193	H	-0.000097	-0.671237	0.303177
H194	H	0.333236	-0.337904	0.636511
H195	H	0.666569	-0.004571	0.969844
H196	H	0.140202	-0.994231	-0.380420
H197	H	0.473535	-0.660898	-0.047087
H198	H	0.806869	-0.327564	0.286246
Br199	Br	-0.000018	-1.107126	-0.267266
Br200	Br	0.333316	-0.773792	0.066067
Br201	Br	0.666649	-0.440459	0.399401
Br202	Br	-0.000115	-0.495589	0.329670
Br203	Br	0.333219	-0.162255	0.663003
Br204	Br	0.666552	0.171078	0.996336
Br205	Br	-0.000159	-0.164072	0.007966
Br206	Br	0.333174	0.169261	0.341299
Br207	Br	0.666508	0.502594	0.674633
Br208	Br	-0.000120	-0.539714	-0.028121
Br209	Br	0.333213	-0.206381	0.305213
Br210	Br	0.666546	0.126953	0.638546
Br211	Br	-0.000141	-0.356844	0.024584
Br212	Br	0.333192	-0.023510	0.357917
Br213	Br	0.666525	0.309823	0.691251
Br214	Br	-0.000106	-0.732491	-0.011498
Br215	Br	0.333228	-0.399158	0.321835
Br216	Br	0.666561	-0.065825	0.655168
