data_functionalizedCrystal
_audit_creation_method	'MofGen! by Chris Wilmer'
_symmetry_space_group_name_H-M	'P1'
_symmetry_Int_Tables_number	1
_symmetry_cell_setting	triclinic
loop_
_symmetry_equiv_pos_as_xyz
  x,y,z
_cell_length_a	21.295420
_cell_length_b	21.295417
_cell_length_c	12.645323
_cell_angle_alpha	90.033992
_cell_angle_beta	90.022537
_cell_angle_gamma	90.026289
loop_
_atom_site_label
_atom_site_type_symbol
_atom_site_fract_x
_atom_site_fract_y
_atom_site_fract_z
Zn1	Zn	0.962343	-0.250675	0.599375
Zn2	Zn	0.962249	-0.355950	0.422087
Zn3	Zn	0.857070	-0.250690	0.422120
Zn4	Zn	0.857035	-0.355903	0.599303
O5	O	0.909674	-0.303304	0.510721
O6	O	1.050419	-0.264653	0.575874
O7	O	0.948272	-0.342013	0.273744
O8	O	0.871088	-0.162599	0.445677
O9	O	1.050351	-0.341998	0.445621
O10	O	0.948432	-0.162588	0.575906
O11	O	0.870997	-0.264679	0.273768
O12	O	0.768976	-0.264634	0.445607
O13	O	0.871029	-0.341918	0.747660
O14	O	0.768950	-0.341933	0.575783
O15	O	0.948398	-0.264608	0.747713
O16	O	0.948238	-0.444033	0.445551
O17	O	0.870938	-0.443998	0.575751
C18	C	0.746122	-0.303280	0.510691
C19	C	0.676154	-0.303285	0.510704
C20	C	0.176732	-0.263126	0.578670
C21	C	0.242474	-0.263121	0.578670
C22	C	0.275315	-0.303324	0.510746
C23	C	0.242408	-0.343545	0.442836
C24	C	0.176666	-0.343553	0.442846
N25	N	0.378507	-0.308071	0.417921
N26	N	0.440958	-0.308060	0.417915
C27	C	0.473390	-0.303303	0.510715
N28	N	0.441010	-0.298545	0.603522
N29	N	0.378553	-0.298553	0.603527
C30	C	0.346600	-0.303320	0.510728
C31	C	0.577574	-0.263082	0.578625
C32	C	0.643318	-0.263082	0.578627
C33	C	0.643250	-0.343502	0.442784
C34	C	0.577508	-0.343506	0.442792
C35	C	0.544674	-0.303292	0.510711
C36	C	0.909591	-0.466856	0.510662
C37	C	0.909614	-0.536824	0.510673
C38	C	0.949900	-0.569688	0.442947
C39	C	0.949929	-0.635430	0.442971
C40	C	0.909662	-0.668307	0.510709
C41	C	0.869373	-0.635435	0.578448
C42	C	0.869349	-0.569694	0.578430
N43	N	0.854594	-0.771568	0.518781
N44	N	0.854619	-0.834020	0.518792
C45	C	0.909732	-0.866381	0.510770
N46	N	0.964821	-0.833932	0.502716
N47	N	0.964796	-0.771475	0.502699
C48	C	0.909683	-0.739592	0.510737
C49	C	0.950053	-0.970531	0.443067
C50	C	0.950084	-1.036274	0.443098
C51	C	0.869522	-1.036278	0.578569
C52	C	0.869497	-0.970535	0.578544
C53	C	0.909762	-0.937666	0.510787
C54	C	1.073864	-0.303329	0.510752
C55	C	1.143832	-0.303340	0.510765
C56	C	0.909720	-0.303256	0.787227
C57	C	0.909740	-0.303235	0.905057
C58	C	0.909774	-0.139114	0.510803
C59	C	0.909817	-0.069146	0.510838
C60	C	0.909664	-0.303308	0.235291
C61	C	0.909766	-0.303151	0.117462
C62	C	0.860917	-0.351642	1.072587
C63	C	0.861045	-0.351881	0.950027
C64	C	0.976064	-0.321243	0.949571
C65	C	0.975796	-0.321547	1.072170
C66	C	0.892866	-0.236550	1.072273
C67	C	0.891387	-0.236949	0.949666
H68	H	0.550721	-0.376249	0.387491
H69	H	0.149880	-0.376301	0.387548
C70	C	0.278534	-0.387765	0.368115
N71	N	0.305744	-0.421074	0.311834
C72	C	0.679507	-0.218840	0.653330
N73	N	0.706765	-0.185515	0.709595
H74	H	0.669989	-0.376241	0.387487
C75	C	0.994186	-0.533535	0.368401
N76	N	1.027539	-0.506304	0.312247
C77	C	0.825461	-0.218586	0.910316
N78	N	0.775811	-0.204752	0.880656
C79	C	0.140618	-0.218895	0.653392
N80	N	0.113416	-0.185582	0.709677
H81	H	0.836543	-0.542936	0.633581
H82	H	0.550839	-0.230338	0.633929
C83	C	0.994354	-0.934372	0.368549
N84	N	1.027724	-0.907139	0.312426
H85	H	0.269266	-0.230372	0.633965
C86	C	0.994245	-0.671588	0.368459
N87	N	1.027623	-0.698820	0.312334
C88	C	0.825076	-0.671600	0.652957
N89	N	0.791711	-0.698840	0.709080
H90	H	0.982893	-1.063031	0.387950
H91	H	0.990636	-0.369420	0.918870
H92	H	0.836738	-1.063045	0.633728
C93	C	0.825192	-0.934384	0.653070
N94	N	0.791826	-0.907155	0.709219
H95	H	0.872200	-0.401256	0.920700
H96	H	0.811863	-0.340612	0.919929
C97	C	0.995145	-0.387322	1.110806
N98	N	1.009717	-0.436867	1.139902
C99	C	0.794275	-0.336560	1.112399
N100	N	0.744078	-0.325200	1.142393
C101	C	0.875846	-0.417930	1.114188
N102	N	0.887094	-0.467859	1.145517
H103	H	1.013426	-0.287762	1.101857
C104	C	1.026554	-0.275043	0.910218
N105	N	1.064582	-0.240244	0.880574
C106	C	0.828664	-0.214378	1.114017
N107	N	0.780304	-0.197686	1.145458
C108	C	0.935934	-0.185556	0.908293
N109	N	0.969488	-0.146848	0.877123
C110	C	0.940934	-0.187743	1.111478
N111	N	0.977140	-0.150987	1.141010
