data_functionalizedCrystal
_audit_creation_method	'MofGen! by Chris Wilmer'
_symmetry_space_group_name_H-M	'P1'
_symmetry_Int_Tables_number	1
_symmetry_cell_setting	triclinic
loop_
_symmetry_equiv_pos_as_xyz
  x,y,z
_cell_length_a	10.540539
_cell_length_b	14.044190
_cell_length_c	13.101039
_cell_angle_alpha	86.336293
_cell_angle_beta	93.389526
_cell_angle_gamma	88.858634
loop_
_atom_site_label
_atom_site_type_symbol
_atom_site_fract_x
_atom_site_fract_y
_atom_site_fract_z
O1	O	1.705799	0.128498	0.085178
O2	O	1.337661	0.141092	0.085192
O3	O	1.516198	-0.003226	0.085165
O4	O	1.527262	0.272816	0.085205
O5	O	1.503391	0.007146	-0.085263
O6	O	1.324853	0.151464	-0.085236
O7	O	1.692992	0.138870	-0.085250
Zn8	Zn	1.506889	0.146814	-0.112302
Zn9	Zn	1.523764	0.133148	0.112244
O10	O	1.514454	0.283188	-0.085223
C11	C	1.504955	-0.033387	-0.000052
C12	C	1.490521	-0.138710	-0.000060
C13	C	1.283859	0.145334	-0.000021
C14	C	1.142625	0.142507	-0.000016
C15	C	1.566502	-0.388485	-0.000023
C16	C	1.464157	-0.331548	-0.000026
C17	C	1.478830	-0.224244	-0.000045
C18	C	1.551831	-0.495800	-0.000004
C19	C	0.948216	0.034243	-0.000430
C20	C	1.095154	0.037084	-0.000035
C21	C	1.093398	0.187319	0.097310
C22	C	0.946495	0.183717	0.097381
C23	C	0.931658	0.197656	-0.096428
C24	C	1.078643	0.198705	-0.097703
C25	C	1.746794	0.134628	-0.000035
C26	C	1.888028	0.137454	-0.000033
C27	C	1.525698	0.313349	-0.000004
C28	C	1.540132	0.418672	0.000011
N29	N	1.495381	0.156139	-0.265549
C30	C	1.479726	0.168836	-0.474589
C31	C	1.550932	0.111121	-0.525475
C32	C	1.542221	0.118186	-0.641793
C33	C	1.488435	0.161773	-0.358261
N34	N	1.535281	0.123815	0.265491
H35	H	1.128487	0.001409	-0.069803
C36	C	1.330902	-0.374559	-0.000020
H37	H	1.338389	-0.442084	-0.000019
H38	H	1.290515	-0.357673	0.059407
H39	H	1.281600	-0.350468	-0.059465
C40	C	1.699746	-0.345472	-0.000051
H41	H	1.692249	-0.277947	-0.000072
H42	H	1.749074	-0.369556	0.059376
H43	H	1.740108	-0.362358	-0.059495
H44	H	1.412228	0.223551	-0.518376
C45	C	0.896818	-0.016285	-0.094718
H46	H	0.838184	0.025105	-0.134686
H47	H	0.965355	-0.032419	-0.134790
H48	H	0.855174	-0.072712	-0.072845
C49	C	0.908786	-0.027495	0.093313
H50	H	0.855807	0.009356	0.132694
H51	H	0.863683	-0.080988	0.070922
H52	H	0.982550	-0.048927	0.134169
H53	H	1.138085	-0.007371	0.069843
C54	C	0.910640	0.127075	0.195640
H55	H	0.985814	0.106474	0.235136
H56	H	0.860751	0.166695	0.234555
H57	H	0.863253	0.073092	0.177845
H58	H	0.906526	0.259267	0.101809
H59	H	1.618437	0.056405	-0.481683
C60	C	1.134546	0.291605	0.102229
H61	H	1.182233	0.308782	0.044836
H62	H	1.061326	0.332266	0.101329
H63	H	1.185492	0.298100	0.163556
H64	H	1.137865	0.147668	0.169732
H65	H	0.891118	0.168028	-0.170200
H66	H	1.110446	0.166023	-0.169705
H67	H	1.110201	0.275923	-0.103568
C68	C	0.878205	0.300578	-0.097303
H69	H	0.829527	0.306870	-0.039244
H70	H	0.946438	0.343722	-0.095154
H71	H	0.825646	0.314627	-0.158042
