data_functionalizedCrystal
_audit_creation_method	'MofGen! by Chris Wilmer'
_symmetry_space_group_name_H-M	'P1'
_symmetry_Int_Tables_number	1
_symmetry_cell_setting	triclinic
loop_
_symmetry_equiv_pos_as_xyz
  x,y,z
_cell_length_a	10.654550
_cell_length_b	10.654551
_cell_length_c	9.130313
_cell_angle_alpha	89.998309
_cell_angle_beta	89.992957
_cell_angle_gamma	84.485132
loop_
_atom_site_label
_atom_site_type_symbol
_atom_site_fract_x
_atom_site_fract_y
_atom_site_fract_z
O1	O	1.667840	0.176398	-0.121910
O2	O	1.302362	0.193204	-0.121885
O3	O	1.493503	0.002062	-0.121899
O4	O	1.476699	0.367541	-0.121896
O5	O	1.493490	0.002057	0.121700
O6	O	1.302349	0.193199	0.121713
O7	O	1.667827	0.176393	0.121689
Cu8	Cu	1.485087	0.184795	0.143944
Cu9	Cu	1.485102	0.184802	-0.144140
O10	O	1.476685	0.367535	0.121703
C11	C	1.255557	0.191968	-0.000083
C12	C	1.116114	0.188276	-0.000074
C13	C	1.036629	0.300817	-0.000095
C14	C	0.905608	0.297341	-0.000120
C15	C	0.933570	0.068771	-0.000110
C16	C	1.064589	0.072249	-0.000074
C17	C	1.088154	0.416844	-0.000094
C18	C	1.008667	0.529395	-0.000116
C19	C	0.877647	0.525918	-0.000142
C20	C	0.826112	0.409891	-0.000145
C21	C	1.492263	-0.044739	-0.000103
C22	C	1.488570	-0.184182	-0.000112
C23	C	1.486845	-0.249691	-0.132895
C24	C	1.483365	-0.380711	-0.132888
C25	C	1.483340	-0.380703	0.132696
C26	C	1.486811	-0.249684	0.132688
C27	C	1.488604	-0.184189	-0.265696
C28	C	1.486880	-0.249698	-0.398490
C29	C	1.483400	-0.380718	-0.398483
C30	C	1.481643	-0.446230	-0.265682
C31	C	1.714632	0.177629	-0.000117
C32	C	1.854075	0.181321	-0.000135
C33	C	1.477926	0.414336	-0.000097
C34	C	1.481619	0.553779	-0.000097
N35	N	1.485085	0.184790	0.346566
N36	N	1.485114	0.184797	-0.346763
C37	C	1.569751	0.100188	0.423212
C38	C	1.569763	0.100188	0.576549
C39	C	1.400438	0.269403	0.576581
C40	C	1.400421	0.269396	0.423247
H41	H	0.812931	0.617562	-0.000145
N42	N	1.229467	0.420590	-0.000050
H43	H	1.266542	0.376553	-0.090340
H44	H	1.249946	0.511195	0.000005
H45	H	0.719425	0.407069	-0.000143
N46	N	0.877993	-0.056365	-0.000108
H47	H	0.782932	-0.041490	-0.000135
H48	H	0.907025	-0.105666	-0.090404
H49	H	1.050636	0.623860	-0.000101
N50	N	1.150321	-0.049137	-0.000056
H51	H	1.205336	-0.052787	-0.090340
H52	H	1.205192	-0.052711	0.090324
H53	H	1.491441	-0.077506	-0.265716
H54	H	1.331470	0.338289	0.360837
N55	N	1.488657	-0.179035	-0.541718
H56	H	1.491091	-0.086090	-0.521578
H57	H	1.565739	-0.211401	-0.599792
N58	N	1.488694	-0.179023	0.275903
H59	H	1.491158	-0.086085	0.255743
H60	H	1.410367	-0.192414	0.333903
N61	N	1.481610	-0.451387	-0.541699
H62	H	1.483279	-0.390010	-0.625822
H63	H	1.557915	-0.515225	-0.547412
H64	H	1.481911	-0.434052	0.240816
N65	N	1.661099	0.008951	0.659211
H66	H	1.612650	-0.047116	0.722849
H67	H	1.714703	-0.044551	0.587262
H68	H	1.478791	-0.552913	-0.265687
H69	H	1.638687	0.031295	0.360783
N70	N	1.309127	0.360654	0.659286
H71	H	1.321985	0.347825	0.768053
H72	H	1.324399	0.449885	0.632467
