data_functionalizedCrystal
_audit_creation_method	'MofGen! by Chris Wilmer'
_symmetry_space_group_name_H-M	'P1'
_symmetry_Int_Tables_number	1
_symmetry_cell_setting	triclinic
loop_
_symmetry_equiv_pos_as_xyz
  x,y,z
_cell_length_a	15.944551
_cell_length_b	15.944551
_cell_length_c	14.421503
_cell_angle_alpha	89.996660
_cell_angle_beta	89.996859
_cell_angle_gamma	96.501262
loop_
_atom_site_label
_atom_site_type_symbol
_atom_site_fract_x
_atom_site_fract_y
_atom_site_fract_z
O1	O	1.114529	-0.108320	-0.077017
O2	O	1.447863	0.225013	0.256316
O3	O	1.781196	0.558346	0.589650
O4	O	0.869980	-0.121677	-0.077040
O5	O	1.203313	0.211657	0.256293
O6	O	1.536646	0.544990	0.589626
O7	O	0.998933	0.007276	-0.077020
O8	O	1.332266	0.340610	0.256314
O9	O	1.665599	0.673943	0.589647
O10	O	0.985576	-0.237273	-0.077038
O11	O	1.318910	0.096060	0.256296
O12	O	1.652243	0.429393	0.589629
O13	O	0.998911	0.007257	0.077204
O14	O	1.332245	0.340590	0.410537
O15	O	1.665578	0.673924	0.743870
O16	O	0.869958	-0.121696	0.077183
O17	O	1.203292	0.211637	0.410516
O18	O	1.536625	0.544971	0.743850
O19	O	1.114508	-0.108340	0.077206
O20	O	1.447841	0.224994	0.410540
O21	O	1.781175	0.558327	0.743873
Cu22	Cu	0.992231	-0.115020	0.091277
Cu23	Cu	1.325564	0.218314	0.424610
Cu24	Cu	1.658898	0.551647	0.757943
Cu25	Cu	0.992256	-0.114997	-0.091110
Cu26	Cu	1.325590	0.218337	0.242223
Cu27	Cu	1.658923	0.551670	0.575556
O28	O	0.985555	-0.237293	0.077186
O29	O	1.318888	0.096041	0.410519
O30	O	1.652222	0.429374	0.743852
C31	C	0.838675	-0.121132	0.000069
C32	C	1.172008	0.212202	0.333402
C33	C	1.505342	0.545535	0.666735
C34	C	0.745429	-0.119470	0.000060
C35	C	1.078762	0.213864	0.333393
C36	C	1.412096	0.547197	0.666727
C37	C	0.530572	-0.035565	0.000084
C38	C	0.863906	0.297768	0.333417
C39	C	1.197239	0.631102	0.666751
C40	C	0.469563	-0.074518	-0.075959
C41	C	0.802896	0.258815	0.257374
C42	C	1.136229	0.592149	0.590708
C43	C	0.574703	-0.116462	0.000071
C44	C	0.908036	0.216871	0.333404
C45	C	1.241370	0.550204	0.666738
C46	C	0.469564	-0.074556	0.076093
C47	C	0.802897	0.258777	0.409426
C48	C	1.136230	0.592111	0.742760
C49	C	0.409790	-0.113551	0.000086
C50	C	0.743124	0.219782	0.333419
C51	C	1.076457	0.553115	0.666753
C52	C	0.514922	-0.155437	-0.076035
C53	C	0.848255	0.177896	0.257298
C54	C	1.181588	0.511229	0.590632
C55	C	0.514929	-0.155464	0.076086
C56	C	0.848263	0.177869	0.409419
C57	C	1.181596	0.511203	0.742752
C58	C	0.453937	-0.194476	0.000024
C59	C	0.787271	0.138857	0.333357
C60	C	1.120604	0.472191	0.666691
C61	C	0.669705	-0.118137	0.000062
C62	C	1.003039	0.215197	0.333395
C63	C	1.336372	0.548530	0.666728
C64	C	0.314789	-0.111883	0.000089
C65	C	0.648123	0.221450	0.333422
C66	C	0.981456	0.554783	0.666755
C67	C	0.998367	0.038561	0.000092
C68	C	1.331701	0.371894	0.333426
C69	C	1.665034	0.705227	0.666759
C70	C	0.996705	0.131807	0.000093
C71	C	1.330038	0.465140	0.333426
C72	C	1.663372	0.798473	0.666759
C73	C	1.145813	-0.108885	0.000096
C74	C	1.479146	0.224449	0.333429
C75	C	1.812479	0.557782	0.666762
C76	C	1.239059	-0.110547	0.000098
C77	C	1.572392	0.222786	0.333431
C78	C	1.905725	0.556120	0.666765
C79	C	0.986120	-0.268577	0.000072
C80	C	1.319453	0.064756	0.333405
C81	C	1.652787	0.398090	0.666739
C82	C	0.987782	-0.361823	0.000066
C83	C	1.321116	-0.028490	0.333399
C84	C	1.654449	0.304844	0.666732
N85	N	0.992219	-0.115035	0.219558
N86	N	1.325553	0.218298	0.552891
N87	N	1.658886	0.551632	0.886225
C88	C	0.912801	0.346663	0.000072
C89	C	1.246134	0.679997	0.333405
C90	C	1.579467	1.013330	0.666738
C91	C	0.951753	0.407671	0.076117
C92	C	1.285086	0.741004	0.409450
C93	C	1.618419	1.074338	0.742784
C94	C	0.993698	0.302533	0.000085
C95	C	1.327031	0.635866	0.333418
C96	C	1.660365	0.969199	0.666752
C97	C	0.951793	0.407674	-0.075935
C98	C	1.285126	0.741007	0.257398
C99	C	1.618459	1.074340	0.590731
C100	C	0.990787	0.467445	0.000074
C101	C	1.324120	0.800779	0.333407
C102	C	1.657454	1.134112	0.666741
C103	C	1.032672	0.362312	0.076193
C104	C	1.366005	0.695645	0.409526
C105	C	1.699339	1.028979	0.742860
C106	C	1.032701	0.362308	-0.075927
C107	C	1.366034	0.695641	0.257406
C108	C	1.699367	1.028975	0.590739
C109	C	1.071711	0.423298	0.000136
C110	C	1.405045	0.756632	0.333470
C111	C	1.738378	1.089965	0.666803
C112	C	0.995372	0.207530	0.000092
C113	C	1.328706	0.540864	0.333426
C114	C	1.662039	0.874197	0.666759
C115	C	0.989119	0.562446	0.000073
C116	C	1.322452	0.895780	0.333407
C117	C	1.655785	1.229113	0.666740
N118	N	0.992275	-0.114975	-0.219392
N119	N	1.325608	0.218359	0.113942
N120	N	1.658941	0.551692	0.447275
C121	C	0.932581	-0.174636	0.469202
C122	C	1.265914	0.158697	0.802535
C123	C	1.599248	0.492031	1.135869
C124	C	1.008481	-0.190943	0.531011
C125	C	1.341814	0.142390	0.864344
C126	C	1.675148	0.475723	1.197677
C127	C	0.992240	-0.115015	0.408719
C128	C	1.325573	0.218318	0.742053
C129	C	1.658907	0.551652	1.075386
C130	C	0.916359	-0.098727	0.531005
C131	C	1.249693	0.234606	0.864338
C132	C	1.583026	0.567939	1.197671
C133	C	0.992253	-0.114997	0.591441
C134	C	1.325586	0.218336	0.924774
C135	C	1.658920	0.551669	1.258107
C136	C	1.068178	-0.131360	0.469167
C137	C	1.401512	0.201973	0.802500
C138	C	1.734845	0.535307	1.135834
C139	C	0.976007	-0.039111	0.469156
C140	C	1.309340	0.294222	0.802489
C141	C	1.642673	0.627556	1.135822
C142	C	1.051961	-0.055386	0.530936
C143	C	1.385295	0.277947	0.864270
C144	C	1.718628	0.611281	1.197603
C145	C	0.992231	-0.115027	0.303458
C146	C	1.325565	0.218306	0.636792
C147	C	1.658898	0.551640	0.970125
C148	C	0.992270	-0.114985	0.696700
C149	C	1.325604	0.218349	1.030033
C150	C	1.658937	0.551682	1.363366
H151	H	0.535052	-0.189660	0.140373
H152	H	0.868385	0.143673	0.473706
H153	H	1.201718	0.477007	0.807040
Cl154	Cl	0.898958	0.438705	-0.175187
Cl155	Cl	1.232291	0.772038	0.158147
Cl156	Cl	1.565624	1.105371	0.491480
Cl157	Cl	1.175472	0.474497	0.000209
Cl158	Cl	1.508805	0.807830	0.333542
Cl159	Cl	1.842139	1.141164	0.666875
H160	H	1.066897	0.342186	-0.140214
H161	H	1.400230	0.675519	0.193119
H162	H	1.733563	1.008852	0.526452
Cl163	Cl	0.545790	-0.208212	-0.175402
Cl164	Cl	0.879123	0.125121	0.157932
Cl165	Cl	1.212456	0.458455	0.491265
Cl166	Cl	1.167285	-0.152734	0.427412
Cl167	Cl	1.500618	0.180599	0.760746
Cl168	Cl	1.833952	0.513932	1.094079
Cl169	Cl	0.402738	-0.298236	-0.000046
Cl170	Cl	0.736071	0.035097	0.333287
Cl171	Cl	1.069404	0.368431	0.666621
H172	H	0.449469	-0.040333	0.140379
H173	H	0.782802	0.293000	0.473713
H174	H	1.116135	0.626334	0.807046
Cl175	Cl	0.854768	-0.252538	0.427345
Cl176	Cl	1.188102	0.080795	0.760679
Cl177	Cl	1.521435	0.414128	1.094012
H178	H	1.022224	-0.255126	0.558180
H179	H	1.355557	0.078207	0.891513
H180	H	1.688890	0.411541	1.224846
Cl181	Cl	0.809130	0.295238	0.000173
Cl182	Cl	1.142464	0.628572	0.333506
Cl183	Cl	1.475797	0.961905	0.666839
Cl184	Cl	1.085444	0.331442	0.175561
Cl185	Cl	1.418777	0.664775	0.508895
Cl186	Cl	1.752110	0.998108	0.842228
H187	H	1.102474	-0.004956	0.557872
H188	H	1.435807	0.328377	0.891206
H189	H	1.769140	0.661711	1.224539
Cl190	Cl	0.438529	-0.021682	-0.175211
Cl191	Cl	0.771862	0.311651	0.158122
Cl192	Cl	1.105195	0.644985	0.491456
Cl193	Cl	0.954753	0.059951	0.427170
Cl194	Cl	1.288086	0.393284	0.760504
Cl195	Cl	1.621419	0.726618	1.093837
H196	H	0.917527	0.427771	0.140401
H197	H	1.250861	0.761105	0.473734
H198	H	1.584194	1.094438	0.807067
Cl199	Cl	0.817278	-0.077467	0.572944
Cl200	Cl	1.150611	0.255866	0.906278
Cl201	Cl	1.483945	0.589199	1.239611
H202	H	0.563905	0.031573	-0.000005
H203	H	0.897238	0.364906	0.333328
H204	H	1.230572	0.698240	0.666662
