data_functionalizedCrystal
_audit_creation_method	'MofGen! by Chris Wilmer'
_symmetry_space_group_name_H-M	'P1'
_symmetry_Int_Tables_number	1
_symmetry_cell_setting	triclinic
loop_
_symmetry_equiv_pos_as_xyz
  x,y,z
_cell_length_a	19.288864
_cell_length_b	23.532357
_cell_length_c	22.010155
_cell_angle_alpha	90.016389
_cell_angle_beta	90.006397
_cell_angle_gamma	82.982267
loop_
_atom_site_label
_atom_site_type_symbol
_atom_site_fract_x
_atom_site_fract_y
_atom_site_fract_z
O1	O	0.921101	0.071052	0.050727
O2	O	1.171101	0.321052	0.300727
O3	O	1.421101	0.571052	0.550727
O4	O	1.671101	0.821052	0.800727
O5	O	0.718808	0.080637	0.050687
O6	O	0.968808	0.330637	0.300687
O7	O	1.218808	0.580637	0.550687
O8	O	1.468808	0.830637	0.800687
O9	O	0.826073	-0.007077	0.050696
O10	O	1.076073	0.242923	0.300696
O11	O	1.326073	0.492923	0.550696
O12	O	1.576073	0.742923	0.800696
O13	O	0.813836	0.158766	0.050718
O14	O	1.063836	0.408766	0.300718
O15	O	1.313836	0.658766	0.550718
O16	O	1.563836	0.908766	0.800718
O17	O	0.826089	-0.007092	-0.050355
O18	O	1.076089	0.242908	0.199645
O19	O	1.326089	0.492908	0.449645
O20	O	1.576089	0.742908	0.699645
O21	O	0.718825	0.080621	-0.050364
O22	O	0.968825	0.330621	0.199636
O23	O	1.218825	0.580621	0.449636
O24	O	1.468825	0.830621	0.699636
O25	O	0.921117	0.071037	-0.050323
O26	O	1.171117	0.321037	0.199677
O27	O	1.421117	0.571037	0.449677
O28	O	1.671117	0.821037	0.699677
Cu29	Cu	0.819973	0.075828	-0.059570
Cu30	Cu	1.069973	0.325828	0.190430
Cu31	Cu	1.319973	0.575828	0.440430
Cu32	Cu	1.569973	0.825828	0.690430
Cu33	Cu	0.819953	0.075846	0.059934
Cu34	Cu	1.069953	0.325846	0.309934
Cu35	Cu	1.319953	0.575846	0.559934
Cu36	Cu	1.569953	0.825846	0.809934
O37	O	0.813853	0.158750	-0.050332
O38	O	1.063853	0.408750	0.199668
O39	O	1.313853	0.658750	0.449668
O40	O	1.563853	0.908750	0.699668
C41	C	0.692941	0.080320	0.000156
C42	C	0.942941	0.330320	0.250156
C43	C	1.192941	0.580320	0.500156
C44	C	1.442941	0.830320	0.750156
C45	C	0.615841	0.079395	0.000140
C46	C	0.865841	0.329395	0.250140
C47	C	1.115841	0.579395	0.500140
C48	C	1.365841	0.829395	0.750140
C49	C	0.825775	-0.028301	0.000169
C50	C	1.075775	0.221699	0.250169
C51	C	1.325775	0.471699	0.500169
C52	C	1.575775	0.721699	0.750169
C53	C	0.824855	-0.091522	0.000163
C54	C	1.074855	0.158478	0.250163
C55	C	1.324855	0.408478	0.500163
C56	C	1.574855	0.658478	0.750163
C57	C	0.570975	0.130861	0.000157
C58	C	0.820975	0.380861	0.250157
C59	C	1.070975	0.630861	0.500157
C60	C	1.320975	0.880861	0.750157
C61	C	0.498530	0.129991	0.000163
C62	C	0.748530	0.379991	0.250163
C63	C	0.998530	0.629991	0.500163
C64	C	1.248530	0.879991	0.750163
C65	C	0.470956	0.077652	0.000165
C66	C	0.720956	0.327652	0.250165
C67	C	0.970956	0.577652	0.500165
C68	C	1.220956	0.827652	0.750165
C69	C	0.515832	0.026180	0.000145
C70	C	0.765832	0.276180	0.250145
C71	C	1.015832	0.526180	0.500145
C72	C	1.265832	0.776180	0.750145
C73	C	0.588274	0.027051	0.000133
C74	C	0.838274	0.277051	0.250133
C75	C	1.088274	0.527051	0.500133
C76	C	1.338274	0.777051	0.750133
C77	C	0.362824	0.036514	0.035583
C78	C	0.612824	0.286514	0.285583
C79	C	0.862824	0.536514	0.535583
C80	C	1.112824	0.786514	0.785583
C81	C	0.290382	0.035645	0.035599
C82	C	0.540382	0.285645	0.285599
C83	C	0.790382	0.535645	0.535599
C84	C	1.040382	0.785645	0.785599
C85	C	0.247519	0.074963	0.000202
C86	C	0.497519	0.324963	0.250202
C87	C	0.747519	0.574963	0.500202
C88	C	0.997519	0.824963	0.750202
C89	C	0.277105	0.115161	-0.035204
C90	C	0.527105	0.365161	0.214796
C91	C	0.777105	0.615161	0.464796
C92	C	1.027105	0.865161	0.714796
C93	C	0.349547	0.116032	-0.035217
C94	C	0.599547	0.366032	0.214783
C95	C	0.849547	0.616032	0.464783
C96	C	1.099547	0.866032	0.714783
C97	C	0.392405	0.076702	0.000179
C98	C	0.642405	0.326702	0.250179
C99	C	0.892405	0.576702	0.500179
C100	C	1.142405	0.826702	0.750179
C101	C	0.124100	0.125490	0.000225
C102	C	0.374100	0.375490	0.250225
C103	C	0.624100	0.625490	0.500225
C104	C	0.874100	0.875490	0.750225
C105	C	0.051655	0.124618	0.000228
C106	C	0.301655	0.374618	0.250228
C107	C	0.551655	0.624618	0.500228
C108	C	0.801655	0.874618	0.750228
C109	C	0.068958	0.020805	0.000216
C110	C	0.318958	0.270805	0.250216
C111	C	0.568958	0.520805	0.500216
C112	C	0.818958	0.770805	0.750216
C113	C	0.141401	0.021678	0.000207
C114	C	0.391401	0.271678	0.250207
C115	C	0.641401	0.521678	0.500207
C116	C	0.891401	0.771678	0.750207
C117	C	0.168968	0.074022	0.000214
C118	C	0.418968	0.324022	0.250214
C119	C	0.668968	0.574022	0.500214
C120	C	0.918968	0.824022	0.750214
C121	C	0.819069	-0.483537	0.055277
C122	C	1.069069	-0.233537	0.305277
C123	C	1.319069	0.016463	0.555277
C124	C	1.569069	0.266463	0.805277
C125	C	0.818194	-0.542938	0.055280
C126	C	1.068194	-0.292938	0.305280
C127	C	1.318194	-0.042938	0.555280
C128	C	1.568194	0.207062	0.805280
O129	O	0.817710	-0.573648	0.102126
O130	O	1.067710	-0.323648	0.352126
O131	O	1.317710	-0.073648	0.602126
O132	O	1.567710	0.176352	0.852126
N133	N	0.817769	-0.572659	0.000198
N134	N	1.067769	-0.322659	0.250198
N135	N	1.317769	-0.072659	0.500198
N136	N	1.567769	0.177341	0.750198
C137	C	0.818212	-0.542974	-0.054891
C138	C	1.068212	-0.292974	0.195109
C139	C	1.318212	-0.042974	0.445109
C140	C	1.568212	0.207026	0.695109
O141	O	0.817770	-0.573708	-0.101742
O142	O	1.067770	-0.323708	0.148258
O143	O	1.317770	-0.073708	0.398258
O144	O	1.567770	0.176292	0.648258
C145	C	0.819082	-0.483573	-0.054893
C146	C	1.069082	-0.233573	0.195107
C147	C	1.319082	0.016427	0.445107
C148	C	1.569082	0.266427	0.695107
C149	C	0.819514	-0.453857	0.000192
C150	C	1.069514	-0.203857	0.250192
C151	C	1.319514	0.046143	0.500192
C152	C	1.569514	0.296143	0.750192
C153	C	0.819500	-0.453820	0.110358
C154	C	1.069500	-0.203820	0.360358
C155	C	1.319500	0.046180	0.610358
C156	C	1.569500	0.296180	0.860358
C157	C	0.820376	-0.394423	0.110354
C158	C	1.070376	-0.144423	0.360354
C159	C	1.320376	0.105577	0.610354
C160	C	1.570376	0.355577	0.860354
C161	C	0.820821	-0.364743	0.055270
C162	C	1.070821	-0.114743	0.305270
C163	C	1.320821	0.135257	0.555270
C164	C	1.570821	0.385257	0.805270
C165	C	0.820390	-0.394460	0.000189
C166	C	1.070390	-0.144460	0.250189
C167	C	1.320390	0.105540	0.500189
C168	C	1.570390	0.355540	0.750189
C169	C	0.819520	-0.453889	-0.109981
C170	C	1.069520	-0.203889	0.140019
C171	C	1.319520	0.046111	0.390019
C172	C	1.569520	0.296111	0.640019
C173	C	0.820389	-0.394484	-0.109979
C174	C	1.070389	-0.144484	0.140021
C175	C	1.320389	0.105516	0.390021
C176	C	1.570389	0.355516	0.640021
C177	C	0.820821	-0.364768	-0.054894
C178	C	1.070821	-0.114768	0.195106
C179	C	1.320821	0.135232	0.445106
C180	C	1.570821	0.385232	0.695106
C181	C	0.821711	-0.305382	-0.054899
C182	C	1.071711	-0.055382	0.195101
C183	C	1.321711	0.194618	0.445101
C184	C	1.571711	0.444618	0.695101
N185	N	0.822136	-0.275662	0.000183
N186	N	1.072136	-0.025662	0.250183
N187	N	1.322136	0.224338	0.500183
N188	N	1.572136	0.474338	0.750183
C189	C	0.821690	-0.305342	0.055267
C190	C	1.071690	-0.055342	0.305267
C191	C	1.321690	0.194658	0.555267
C192	C	1.571690	0.444658	0.805267
C193	C	0.816385	-0.667719	-0.054881
C194	C	1.066385	-0.417719	0.195119
C195	C	1.316385	-0.167719	0.445119
C196	C	1.566385	0.082281	0.695119
C197	C	0.815520	-0.727119	-0.054879
C198	C	1.065520	-0.477119	0.195121
C199	C	1.315520	-0.227119	0.445121
C200	C	1.565520	0.022881	0.695121
C201	C	0.815500	-0.727079	0.055292
C202	C	1.065500	-0.477079	0.305292
C203	C	1.315500	-0.227079	0.555292
C204	C	1.565500	0.022921	0.805292
C205	C	0.816370	-0.667679	0.055290
C206	C	1.066370	-0.417679	0.305290
C207	C	1.316370	-0.167679	0.555290
C208	C	1.566370	0.082321	0.805290
C209	C	0.816809	-0.637999	0.000201
C210	C	1.066809	-0.387999	0.250201
C211	C	1.316809	-0.137999	0.500201
C212	C	1.566809	0.112001	0.750201
C213	C	0.823531	-0.180604	0.055256
C214	C	1.073531	0.069396	0.305256
C215	C	1.323531	0.319396	0.555256
C216	C	1.573531	0.569396	0.805256
C217	C	0.824410	-0.121202	0.055247
C218	C	1.074410	0.128798	0.305247
C219	C	1.324410	0.378798	0.555247
C220	C	1.574410	0.628798	0.805247
C221	C	0.824426	-0.121247	-0.054923
C222	C	1.074426	0.128753	0.195077
C223	C	1.324426	0.378753	0.445077
C224	C	1.574426	0.628753	0.695077
C225	C	0.823550	-0.180644	-0.054915
C226	C	1.073550	0.069356	0.195085
C227	C	1.323550	0.319356	0.445085
C228	C	1.573550	0.569356	0.695085
C229	C	0.823101	-0.210321	0.000179
C230	C	1.073101	0.039679	0.250179
C231	C	1.323101	0.289679	0.500179
C232	C	1.573101	0.539679	0.750179
O233	O	0.822192	-0.274634	-0.101721
O234	O	1.072192	-0.024634	0.148279
O235	O	1.322192	0.225366	0.398279
O236	O	1.572192	0.475366	0.648279
O237	O	0.822124	-0.274600	0.102110
O238	O	1.072124	-0.024600	0.352110
O239	O	1.322124	0.225400	0.602110
O240	O	1.572124	0.475400	0.852110
C241	C	0.946984	0.071353	0.000209
C242	C	1.196984	0.321353	0.250209
C243	C	1.446984	0.571353	0.500209
C244	C	1.696984	0.821353	0.750209
C245	C	1.024085	0.072279	0.000229
C246	C	1.274085	0.322279	0.250229
C247	C	1.524085	0.572279	0.500229
C248	C	1.774085	0.822279	0.750229
C249	C	0.814151	0.179975	0.000196
C250	C	1.064151	0.429975	0.250196
C251	C	1.314151	0.679975	0.500196
C252	C	1.564151	0.929975	0.750196
C253	C	0.815071	0.243196	0.000206
C254	C	1.065071	0.493196	0.250206
C255	C	1.315071	0.743196	0.500206
C256	C	1.565071	0.993196	0.750206
N257	N	0.819992	0.075815	-0.143623
N258	N	1.069992	0.325815	0.106377
N259	N	1.319992	0.575815	0.356377
N260	N	1.569992	0.825815	0.606377
N261	N	0.819940	0.075855	0.143986
N262	N	1.069940	0.325855	0.393986
N263	N	1.319940	0.575855	0.643986
N264	N	1.569940	0.825855	0.893986
C265	C	0.867568	0.037073	0.563770
C266	C	1.117568	0.287073	0.813770
C267	C	1.367568	0.537073	1.063770
C268	C	1.617568	0.787073	1.313770
C269	C	0.867573	0.037070	0.627377
C270	C	1.117573	0.287070	0.877377
C271	C	1.367573	0.537070	1.127377
C272	C	1.617573	0.787070	1.377377
O273	O	0.908059	0.004119	0.660272
O274	O	1.158059	0.254119	0.910272
O275	O	1.408059	0.504119	1.160272
O276	O	1.658059	0.754119	1.410272
N277	N	0.819987	0.075828	0.659193
N278	N	1.069987	0.325828	0.909193
N279	N	1.319987	0.575828	1.159193
N280	N	1.569987	0.825828	1.409193
C281	C	0.772398	0.114595	0.627398
C282	C	1.022398	0.364595	0.877398
C283	C	1.272398	0.614595	1.127398
C284	C	1.522398	0.864595	1.377398
O285	O	0.731924	0.147561	0.660301
O286	O	0.981924	0.397561	0.910301
O287	O	1.231924	0.647561	1.160301
O288	O	1.481924	0.897561	1.410301
C289	C	0.772397	0.114599	0.563792
C290	C	1.022397	0.364599	0.813792
C291	C	1.272397	0.614599	1.063792
C292	C	1.522397	0.864599	1.313792
C293	C	0.819981	0.075835	0.531979
C294	C	1.069981	0.325835	0.781979
C295	C	1.319981	0.575835	1.031979
C296	C	1.569981	0.825835	1.281979
C297	C	0.915149	-0.001688	0.531957
C298	C	1.165149	0.248312	0.781957
C299	C	1.415149	0.498312	1.031957
C300	C	1.665149	0.748312	1.281957
C301	C	0.915143	-0.001686	0.468353
C302	C	1.165143	0.248314	0.718353
C303	C	1.415143	0.498314	0.968353
C304	C	1.665143	0.748314	1.218353
C305	C	0.867556	0.037077	0.436563
C306	C	1.117556	0.287077	0.686563
C307	C	1.367556	0.537077	0.936563
C308	C	1.617556	0.787077	1.186563
C309	C	0.819975	0.075837	0.468376
C310	C	1.069975	0.325837	0.718376
C311	C	1.319975	0.575837	0.968376
C312	C	1.569975	0.825837	1.218376
C313	C	0.724812	0.153368	0.531998
C314	C	0.974812	0.403368	0.781998
C315	C	1.224812	0.653368	1.031998
C316	C	1.474812	0.903368	1.281998
C317	C	0.724815	0.153370	0.468388
C318	C	0.974815	0.403370	0.718388
C319	C	1.224815	0.653370	0.968388
C320	C	1.474815	0.903370	1.218388
C321	C	0.772399	0.114606	0.436575
C322	C	1.022399	0.364606	0.686575
C323	C	1.272399	0.614606	0.936575
C324	C	1.522399	0.864606	1.186575
C325	C	0.772383	0.114602	0.372982
C326	C	1.022383	0.364602	0.622982
C327	C	1.272383	0.614602	0.872982
C328	C	1.522383	0.864602	1.122982
N329	N	0.819968	0.075844	0.341166
N330	N	1.069968	0.325844	0.591166
N331	N	1.319968	0.575844	0.841166
N332	N	1.569968	0.825844	1.091166
C333	C	0.867555	0.037082	0.372957
C334	C	1.117555	0.287082	0.622957
C335	C	1.367555	0.537082	0.872957
C336	C	1.617555	0.787082	1.122957
C337	C	0.772405	0.114582	0.760976
C338	C	1.022405	0.364582	1.010976
C339	C	1.272405	0.614582	1.260976
C340	C	1.522405	0.864582	1.510976
C341	C	0.772402	0.114575	0.824581
C342	C	1.022402	0.364575	1.074581
C343	C	1.272402	0.614575	1.324581
C344	C	1.522402	0.864575	1.574581
C345	C	0.867578	0.037052	0.824556
C346	C	1.117578	0.287052	1.074556
C347	C	1.367578	0.537052	1.324556
C348	C	1.617578	0.787052	1.574556
C349	C	0.867577	0.037056	0.760949
C350	C	1.117577	0.287056	1.010949
C351	C	1.367577	0.537056	1.260949
C352	C	1.617577	0.787056	1.510949
C353	C	0.819991	0.075825	0.729160
C354	C	1.069991	0.325825	0.979160
C355	C	1.319991	0.575825	1.229160
C356	C	1.569991	0.825825	1.479160
C357	C	0.867538	0.037088	0.239385
C358	C	1.117538	0.287088	0.489385
C359	C	1.367538	0.537088	0.739385
C360	C	1.617538	0.787088	0.989385
C361	C	0.867526	0.037092	0.175776
C362	C	1.117526	0.287092	0.425776
C363	C	1.367526	0.537092	0.675776
C364	C	1.617526	0.787092	0.925776
C365	C	0.772353	0.114617	0.175808
C366	C	1.022353	0.364617	0.425808
C367	C	1.272353	0.614617	0.675808
C368	C	1.522353	0.864617	0.925808
C369	C	0.772363	0.114612	0.239411
C370	C	1.022363	0.364612	0.489411
C371	C	1.272363	0.614612	0.739411
C372	C	1.522363	0.864612	0.989411
C373	C	0.819961	0.075845	0.271198
C374	C	1.069961	0.325845	0.521198
C375	C	1.319961	0.575845	0.771198
C376	C	1.569961	0.825845	1.021198
O377	O	0.731920	0.147538	0.340047
O378	O	0.981920	0.397538	0.590047
O379	O	1.231920	0.647538	0.840047
O380	O	1.481920	0.897538	1.090047
O381	O	0.908029	0.004126	0.340046
O382	O	1.158029	0.254126	0.590046
O383	O	1.408029	0.504126	0.840046
O384	O	1.658029	0.754126	1.090046
H385	H	0.593414	0.173483	0.000164
H386	H	0.843414	0.423483	0.250164
H387	H	1.093414	0.673483	0.500164
H388	H	1.343414	0.923483	0.750164
N389	N	0.450131	0.185505	0.000183
N390	N	0.700131	0.435505	0.250183
N391	N	0.950131	0.685505	0.500183
N392	N	1.200131	0.935505	0.750183
H393	H	0.458970	0.208349	0.037647
H394	H	0.708970	0.458349	0.287647
H395	H	0.958970	0.708349	0.537647
H396	H	1.208970	0.958349	0.787647
H397	H	0.400076	0.176962	0.000169
H398	H	0.650076	0.426962	0.250169
H399	H	0.900076	0.676962	0.500169
H400	H	1.150076	0.926962	0.750169
N401	N	0.918860	-0.004713	0.141466
N402	N	1.168860	0.245287	0.391466
N403	N	1.418860	0.495287	0.641466
N404	N	1.668860	0.745287	0.891466
H405	H	0.911256	-0.045141	0.152522
H406	H	1.161256	0.204859	0.402522
H407	H	1.411256	0.454859	0.652522
H408	H	1.661256	0.704859	0.902522
H409	H	0.968055	0.001880	0.152560
H410	H	1.218055	0.251880	0.402560
H411	H	1.468055	0.501880	0.652560
H412	H	1.718055	0.751880	0.902560
N413	N	0.409049	-0.005896	0.073767
N414	N	0.659049	0.244104	0.323767
N415	N	0.909049	0.494104	0.573767
N416	N	1.159049	0.744104	0.823767
H417	H	0.459430	0.000753	0.068385
H418	H	0.709430	0.250753	0.318385
H419	H	0.959430	0.500753	0.568385
H420	H	1.209430	0.750753	0.818385
H421	H	0.403056	-0.046102	0.060529
H422	H	0.653056	0.203898	0.310529
H423	H	0.903056	0.453898	0.560529
H424	H	1.153056	0.703898	0.810529
H425	H	0.815179	-0.751311	-0.099735
H426	H	1.065179	-0.501311	0.150265
H427	H	1.315179	-0.251311	0.400265
H428	H	1.565179	-0.001311	0.650265
H429	H	0.733649	0.146151	0.735096
H430	H	0.983649	0.396151	0.985096
H431	H	1.233649	0.646151	1.235096
H432	H	1.483649	0.896151	1.485096
H433	H	0.953892	-0.033249	0.442455
H434	H	1.203892	0.216751	0.692455
H435	H	1.453892	0.466751	0.942455
H436	H	1.703892	0.716751	1.192455
H437	H	0.816720	-0.643487	0.100145
H438	H	1.066720	-0.393487	0.350145
H439	H	1.316720	-0.143487	0.600145
H440	H	1.566720	0.106513	0.850145
N441	N	0.819030	-0.485826	0.169777
N442	N	1.069030	-0.235826	0.419777
N443	N	1.319030	0.014174	0.669777
N444	N	1.569030	0.264174	0.919777
H445	H	0.818416	-0.527967	0.161432
H446	H	1.068416	-0.277967	0.411432
H447	H	1.318416	-0.027967	0.661432
H448	H	1.568416	0.222033	0.911432
H449	H	0.776116	-0.470703	0.193825
H450	H	1.026116	-0.220703	0.443825
H451	H	1.276116	0.029297	0.693825
H452	H	1.526116	0.279297	0.943825
N453	N	0.815020	-0.759097	0.114707
N454	N	1.065020	-0.509097	0.364707
N455	N	1.315020	-0.259097	0.614707
N456	N	1.565020	-0.009097	0.864707
H457	H	0.814401	-0.801236	0.106346
H458	H	1.064401	-0.551236	0.356346
H459	H	1.314401	-0.301236	0.606346
H460	H	1.564401	-0.051236	0.856346
H461	H	0.772102	-0.743978	0.138753
H462	H	1.022102	-0.493978	0.388753
H463	H	1.272102	-0.243978	0.638753
H464	H	1.522102	0.006022	0.888753
H465	H	0.686065	0.184934	0.557891
H466	H	0.936065	0.434934	0.807891
H467	H	1.186065	0.684934	1.057891
H468	H	1.436065	0.934934	1.307891
H469	H	0.906298	0.005522	0.265259
H470	H	1.156298	0.255522	0.515259
H471	H	1.406298	0.505522	0.765259
H472	H	1.656298	0.755522	1.015259
H473	H	0.733609	0.146172	0.265313
H474	H	0.983609	0.396172	0.515313
H475	H	1.233609	0.646172	0.765313
H476	H	1.483609	0.896172	1.015313
H477	H	0.824763	-0.097010	0.100106
H478	H	1.074763	0.152990	0.350106
H479	H	1.324763	0.402990	0.600106
H480	H	1.574763	0.652990	0.850106
H481	H	0.816744	-0.643558	-0.099743
H482	H	1.066744	-0.393558	0.150257
H483	H	1.316744	-0.143558	0.400257
H484	H	1.566744	0.106442	0.650257
N485	N	0.966480	-0.043498	0.566239
N486	N	1.216480	0.206502	0.816239
N487	N	1.466480	0.456502	1.066239
N488	N	1.716480	0.706502	1.316239
H489	H	0.996617	-0.068047	0.536425
H490	H	1.246617	0.181953	0.786425
H491	H	1.496617	0.431953	1.036425
H492	H	1.746617	0.681953	1.286425
H493	H	0.940137	-0.068673	0.592615
H494	H	1.190137	0.181327	0.842615
H495	H	1.440137	0.431327	1.092615
H496	H	1.690137	0.681327	1.342615
H497	H	0.242207	0.147177	-0.064028
H498	H	0.492207	0.397177	0.185972
H499	H	0.742207	0.647177	0.435972
H500	H	0.992207	0.897177	0.685972
N501	N	0.824896	-0.089226	-0.114333
N502	N	1.074896	0.160774	0.135667
N503	N	1.324896	0.410774	0.385667
N504	N	1.574896	0.660774	0.635667
H505	H	0.824489	-0.117061	-0.149231
H506	H	1.074489	0.132939	0.100769
H507	H	1.324489	0.382939	0.350769
H508	H	1.574489	0.632939	0.600769
H509	H	0.868322	-0.069310	-0.116728
H510	H	1.118322	0.180690	0.133272
H511	H	1.368322	0.430690	0.383272
H512	H	1.618322	0.680690	0.633272
H513	H	0.906324	0.005492	0.735051
H514	H	1.156324	0.255492	0.985051
H515	H	1.406324	0.505492	1.235051
H516	H	1.656324	0.755492	1.485051
N517	N	0.258474	-0.007710	0.073782
N518	N	0.508474	0.242290	0.323782
N519	N	0.758474	0.492290	0.573782
N520	N	1.008474	0.742290	0.823782
H521	H	0.224944	0.012845	0.104068
H522	H	0.474944	0.262845	0.354068
H523	H	0.724944	0.512845	0.604068
H524	H	0.974944	0.762845	0.854068
H525	H	0.296660	-0.032479	0.096157
H526	H	0.546660	0.217521	0.346157
H527	H	0.796660	0.467521	0.596157
H528	H	1.046660	0.717521	0.846157
N529	N	0.381460	0.159381	-0.073403
N530	N	0.631460	0.409381	0.176597
N531	N	0.881460	0.659381	0.426597
N532	N	1.131460	0.909381	0.676597
H533	H	0.343319	0.184159	-0.095827
H534	H	0.593319	0.434159	0.154173
H535	H	0.843319	0.684159	0.404173
H536	H	1.093319	0.934159	0.654173
H537	H	0.414999	0.138777	-0.103648
H538	H	0.664999	0.388777	0.146352
H539	H	0.914999	0.638777	0.396352
H540	H	1.164999	0.888777	0.646352
N541	N	0.673489	0.195185	0.434101
N542	N	0.923489	0.445185	0.684101
N543	N	1.173489	0.695185	0.934101
N544	N	1.423489	0.945185	1.184101
H545	H	0.643348	0.219738	0.463910
H546	H	0.893348	0.469738	0.713910
H547	H	1.143348	0.719738	0.963910
H548	H	1.393348	0.969738	1.213910
H549	H	0.642993	0.173395	0.407702
H550	H	0.892993	0.423395	0.657702
H551	H	1.142993	0.673395	0.907702
H552	H	1.392993	0.923395	1.157702
N553	N	0.918905	-0.004759	0.858850
N554	N	1.168905	0.245241	1.108850
N555	N	1.418905	0.495241	1.358850
N556	N	1.668905	0.745241	1.608850
H557	H	0.911682	0.001124	0.903971
H558	H	1.161682	0.251124	1.153971
H559	H	1.411682	0.501124	1.403971
H560	H	1.661682	0.751124	1.653971
H561	H	0.968104	0.001795	0.847741
H562	H	1.218104	0.251795	1.097741
H563	H	1.468104	0.501795	1.347741
H564	H	1.718104	0.751795	1.597741
N565	N	0.636669	-0.028462	0.000124
N566	N	0.886669	0.221538	0.250124
N567	N	1.136669	0.471538	0.500124
N568	N	1.386669	0.721538	0.750124
H569	H	0.686744	-0.019968	0.000119
H570	H	0.936744	0.230032	0.250119
H571	H	1.186744	0.480032	0.500119
H572	H	1.436744	0.730032	0.750119
H573	H	0.627775	-0.051287	-0.037337
H574	H	0.877775	0.198713	0.212663
H575	H	1.127775	0.448713	0.462663
H576	H	1.377775	0.698713	0.712663
H577	H	0.733648	0.146135	0.850479
H578	H	0.983648	0.396135	1.100479
H579	H	1.233648	0.646135	1.350479
H580	H	1.483648	0.896135	1.600479
H581	H	0.819170	-0.478074	-0.154838
H582	H	1.069170	-0.228074	0.095162
H583	H	1.319170	0.021926	0.345162
H584	H	1.569170	0.271926	0.595162
N585	N	0.721036	0.156424	0.141507
N586	N	0.971036	0.406424	0.391507
N587	N	1.221036	0.656424	0.641507
N588	N	1.471036	0.906424	0.891507
H589	H	0.728655	0.196850	0.152589
H590	H	0.978655	0.446850	0.402589
H591	H	1.228655	0.696850	0.652589
H592	H	1.478655	0.946850	0.902589
H593	H	0.671834	0.149847	0.152577
H594	H	0.921834	0.399847	0.402577
H595	H	1.171834	0.649847	0.652577
H596	H	1.421834	0.899847	0.902577
H597	H	0.146545	0.168111	0.000222
H598	H	0.396545	0.418111	0.250222
H599	H	0.646545	0.668111	0.500222
H600	H	0.896545	0.918111	0.750222
N601	N	0.003280	0.180142	0.000209
N602	N	0.253280	0.430142	0.250209
N603	N	0.503280	0.680142	0.500209
N604	N	0.753280	0.930142	0.750209
H605	H	0.012110	0.203005	0.037662
H606	H	0.262110	0.453005	0.287662
H607	H	0.512110	0.703005	0.537662
H608	H	0.762110	0.953005	0.787662
H609	H	-0.046782	0.171621	0.000179
H610	H	0.203218	0.421621	0.250179
H611	H	0.453218	0.671621	0.500179
H612	H	0.703218	0.921621	0.750179
N613	N	0.039227	-0.035647	0.000211
N614	N	0.289227	0.214353	0.250211
N615	N	0.539227	0.464353	0.500211
N616	N	0.789227	0.714353	0.750211
H617	H	-0.013473	-0.028391	0.000220
H618	H	0.236527	0.221609	0.250220
H619	H	0.486527	0.471609	0.500220
H620	H	0.736527	0.721609	0.750220
H621	H	0.055678	-0.058157	0.037667
H622	H	0.305678	0.191843	0.287667
H623	H	0.555678	0.441843	0.537667
H624	H	0.805678	0.691843	0.787667
H625	H	0.823161	-0.204760	0.100119
H626	H	1.073161	0.045240	0.350119
H627	H	1.323161	0.295240	0.600119
H628	H	1.573161	0.545240	0.850119
H629	H	0.820725	-0.370233	0.155211
H630	H	1.070725	-0.120233	0.405211
H631	H	1.320725	0.129767	0.655211
H632	H	1.570725	0.379767	0.905211
N633	N	0.820866	-0.362469	-0.169395
N634	N	1.070866	-0.112469	0.080605
N635	N	1.320866	0.137531	0.330605
N636	N	1.570866	0.387531	0.580605
H637	H	0.777653	-0.368084	-0.193483
H638	H	1.027653	-0.118084	0.056517
H639	H	1.277653	0.131916	0.306517
H640	H	1.527653	0.381916	0.556517
H641	H	0.863809	-0.377563	-0.193421
H642	H	1.113809	-0.127563	0.056579
H643	H	1.363809	0.122437	0.306579
H644	H	1.613809	0.372437	0.556579
N645	N	0.189798	-0.033832	0.000189
N646	N	0.439798	0.216168	0.250189
N647	N	0.689798	0.466168	0.500189
N648	N	0.939798	0.716168	0.750189
H649	H	0.161340	-0.067121	0.000191
H650	H	0.411340	0.182879	0.250191
H651	H	0.661340	0.432879	0.500191
H652	H	0.911340	0.682879	0.750191
H653	H	0.220246	-0.035728	0.037643
H654	H	0.470246	0.214272	0.287643
H655	H	0.720246	0.464272	0.537643
H656	H	0.970246	0.714272	0.787643
H657	H	0.823205	-0.204841	-0.099770
H658	H	1.073205	0.045159	0.150230
H659	H	1.323205	0.295159	0.400230
H660	H	1.573205	0.545159	0.650230
H661	H	0.493376	-0.016435	0.000156
H662	H	0.743376	0.233565	0.250156
H663	H	0.993376	0.483565	0.500156
H664	H	1.243376	0.733565	0.750156
