data_functionalizedCrystal
_audit_creation_method	'MofGen! by Chris Wilmer'
_symmetry_space_group_name_H-M	'P1'
_symmetry_Int_Tables_number	1
_symmetry_cell_setting	triclinic
loop_
_symmetry_equiv_pos_as_xyz
  x,y,z
_cell_length_a	23.532407
_cell_length_b	23.532407
_cell_length_c	22.010155
_cell_angle_alpha	90.000423
_cell_angle_beta	89.996931
_cell_angle_gamma	97.151322
loop_
_atom_site_label
_atom_site_type_symbol
_atom_site_fract_x
_atom_site_fract_y
_atom_site_fract_z
O1	O	0.755264	-0.069127	-0.050455
O2	O	0.589400	-0.079130	-0.050474
O3	O	0.677334	0.008803	-0.050453
O4	O	0.667330	-0.157060	-0.050476
O5	O	0.677318	0.008790	0.050597
O6	O	0.589384	-0.079143	0.050576
O7	O	0.755248	-0.069140	0.050595
Cu8	Cu	0.672315	-0.074143	0.059812
Cu9	Cu	0.672333	-0.074127	-0.059691
O10	O	0.667314	-0.157073	0.050574
C11	C	0.568176	-0.078882	0.000049
C12	C	0.504959	-0.078116	0.000042
C13	C	0.105856	-0.125350	0.000063
C14	C	0.046456	-0.124638	0.000067
O15	O	0.009711	-0.168424	0.000083
N16	N	0.023830	-0.072362	0.000073
C17	C	0.060607	-0.020794	0.000082
O18	O	0.035908	0.023737	0.000088
C19	C	0.120006	-0.021506	0.000082
C20	C	0.142629	-0.073785	0.000070
C21	C	0.128479	-0.177625	0.000051
C22	C	0.187876	-0.178336	0.000046
C23	C	0.224649	-0.126772	0.000053
C24	C	0.202025	-0.074497	0.000065
C25	C	0.156783	0.030062	0.000096
C26	C	0.216185	0.029345	0.000097
C27	C	0.238808	-0.022934	0.000084
C28	C	0.298194	-0.023643	0.000067
N29	N	0.320820	-0.075920	0.000061
C30	C	0.284048	-0.127484	0.000054
C31	C	-0.064135	-0.019302	0.000082
C32	C	-0.123533	-0.018589	0.000077
C33	C	-0.137680	-0.122434	0.000063
C34	C	-0.078281	-0.123146	0.000064
C35	C	-0.041509	-0.071578	0.000076
C36	C	0.408784	-0.128974	0.000043
C37	C	0.468186	-0.129680	0.000035
C38	C	0.482329	-0.025836	0.000052
C39	C	0.422932	-0.025129	0.000057
C40	C	0.386160	-0.076702	0.000054
O41	O	0.334974	0.020119	0.000054
O42	O	0.308755	-0.172007	0.000055
C43	C	0.677071	0.030013	0.000074
C44	C	0.676305	0.093230	0.000078
C45	C	0.776472	-0.069388	0.000071
C46	C	0.839689	-0.070154	0.000073
C47	C	0.667577	-0.178283	0.000046
C48	C	0.668343	-0.241500	0.000037
N49	N	0.672305	-0.074153	0.143865
C50	C	0.723539	0.492333	0.000050
C51	C	0.722827	0.551733	0.000046
O52	O	0.766613	0.588478	0.000028
N53	N	0.670551	0.574359	0.000040
C54	C	0.618983	0.537582	0.000033
O55	O	0.574452	0.562281	0.000027
C56	C	0.619695	0.478182	0.000033
C57	C	0.671974	0.455560	0.000045
C58	C	0.775814	0.469710	0.000061
C59	C	0.776525	0.410313	0.000067
C60	C	0.724961	0.373540	0.000062
C61	C	0.672685	0.396164	0.000051
C62	C	0.568127	0.441406	0.000022
C63	C	0.568844	0.382004	0.000022
C64	C	0.621123	0.359381	0.000034
C65	C	0.621832	0.299995	0.000052
N66	N	0.674109	0.277368	0.000057
C67	C	0.725673	0.314141	0.000062
C68	C	0.617491	0.662324	0.000031
C69	C	0.616778	0.721722	0.000035
C70	C	0.720623	0.735869	0.000047
C71	C	0.721335	0.676470	0.000047
C72	C	0.669767	0.639698	0.000037
C73	C	0.727163	0.189405	0.000075
C74	C	0.727869	0.130003	0.000083
C75	C	0.624025	0.115860	0.000069
C76	C	0.623318	0.175257	0.000064
C77	C	0.674891	0.212029	0.000065
O78	O	0.578070	0.263215	0.000067
O79	O	0.770196	0.289433	0.000060
N80	N	0.672347	-0.074112	-0.143744
C81	C	0.711273	-0.035196	0.563653
C82	C	0.711275	-0.035192	0.627261
O83	O	0.744384	-0.002076	0.660160
N84	N	0.672333	-0.074115	0.659072
C85	C	0.633382	-0.113041	0.627272
O86	O	0.600259	-0.146148	0.660170
C87	C	0.633377	-0.113042	0.563665
C88	C	0.672326	-0.074120	0.531858
C89	C	0.750217	0.003723	0.531846
C90	C	0.750215	0.003719	0.468243
C91	C	0.711268	-0.035205	0.436447
C92	C	0.672324	-0.074125	0.468255
C93	C	0.594424	-0.151965	0.531866
C94	C	0.594422	-0.151962	0.468256
C95	C	0.633370	-0.113040	0.436448
C96	C	0.633374	-0.113054	0.372856
N97	N	0.672317	-0.074130	0.341045
C98	C	0.711263	-0.035206	0.372841
C99	C	0.633395	-0.113036	0.760850
C100	C	0.633402	-0.113039	0.824455
C101	C	0.711294	-0.035188	0.824440
C102	C	0.711290	-0.035189	0.760833
C103	C	0.672337	-0.074113	0.729039
C104	C	0.711256	-0.035220	0.239269
C105	C	0.711252	-0.035229	0.175660
C106	C	0.633358	-0.113077	0.175681
C107	C	0.633364	-0.113070	0.239284
C108	C	0.672315	-0.074136	0.271077
O109	O	0.600282	-0.146151	0.339916
O110	O	0.744376	-0.002100	0.339935
H111	H	0.770443	0.111587	0.000094
O112	O	0.556664	-0.189826	0.562783
C113	C	0.586951	-0.224806	0.599587
H114	H	0.631858	-0.225548	0.580422
H115	H	0.563449	-0.270189	0.600306
H116	H	0.590035	-0.206969	0.647794
O117	O	0.517974	0.024304	0.000031
C118	C	0.485275	0.070602	0.000058
H119	H	0.440858	0.055898	-0.019074
H120	H	0.507392	0.106713	-0.029272
H121	H	0.481134	0.086634	0.048541
H122	H	0.525555	0.459814	0.000009
O123	O	0.134886	0.080884	0.000032
C124	C	0.153702	0.112302	-0.052302
H125	H	0.194812	0.097015	-0.069759
H126	H	0.162219	0.159772	-0.040516
H127	H	0.119290	0.105524	-0.088948
O128	O	0.400887	0.025619	0.000145
C129	C	0.366968	0.029139	0.052494
H130	H	0.351924	-0.015836	0.069936
H131	H	0.328194	0.051619	0.040736
H132	H	0.393357	0.054479	0.089142
O133	O	0.749103	0.002705	0.855265
C134	C	0.740155	0.059037	0.839736
H135	H	0.718205	0.058855	0.793554
H136	H	0.783121	0.087304	0.837561
H137	H	0.711905	0.076502	0.875536
O138	O	0.373151	-0.179124	0.000009
C139	C	0.405867	-0.225410	0.000011
H140	H	0.450283	-0.210684	-0.019117
H141	H	0.383764	-0.261514	-0.029335
H142	H	0.410009	-0.241460	0.048486
H143	H	0.819097	0.391900	0.000074
H144	H	0.526850	0.352066	0.000013
O145	O	0.825960	0.505345	0.000095
C146	C	0.872245	0.472627	0.000089
H147	H	0.857517	0.428212	0.019214
H148	H	0.908349	0.494728	0.029435
H149	H	0.888296	0.468485	-0.048387
H150	H	0.206289	-0.220908	0.000036
O151	O	0.092844	-0.227771	0.000015
C152	C	0.125562	-0.274056	0.000021
H153	H	0.169979	-0.259328	-0.019103
H154	H	0.103463	-0.310161	-0.029327
H155	H	0.129701	-0.290106	0.048497
O156	O	0.566030	0.743761	-0.000051
C157	C	0.562509	0.777680	-0.052398
H158	H	0.607484	0.792726	-0.069840
H159	H	0.540026	0.816452	-0.040635
H160	H	0.537170	0.751291	-0.089046
O161	O	0.556562	-0.189831	0.437466
C162	C	0.522180	-0.224170	0.479185
H163	H	0.545529	-0.224690	0.524523
H164	H	0.513229	-0.269699	0.460814
H165	H	0.479982	-0.205889	0.485953
H166	H	0.781933	0.035423	0.557728
O167	O	0.777298	0.225061	-0.000002
C168	C	0.809061	0.214853	-0.052337
H169	H	0.794811	0.169715	-0.069786
H170	H	0.856581	0.219286	-0.040557
H171	H	0.801478	0.247304	-0.088988
O172	O	0.490231	-0.180430	0.000101
C173	C	0.524157	-0.183967	0.052438
H174	H	0.539200	-0.138998	0.069896
H175	H	0.562932	-0.206439	0.040656
H176	H	0.497776	-0.209324	0.089082
O177	O	0.595537	-0.150910	0.730061
C178	C	0.561162	-0.185252	0.771783
H179	H	0.584515	-0.185769	0.817119
H180	H	0.552215	-0.230782	0.753414
H181	H	0.518962	-0.166976	0.778555
O182	O	0.595603	-0.150908	0.144721
C183	C	0.625897	-0.185900	0.107934
H184	H	0.670592	-0.162996	0.098407
H185	H	0.602076	-0.195022	0.063206
H186	H	0.629518	-0.227977	0.132443
H187	H	-0.141947	0.023982	0.000078
H188	H	-0.059867	-0.165717	0.000057
O189	O	0.749028	0.002675	0.729889
C190	C	0.718702	0.037667	0.693141
H191	H	0.674024	0.014731	0.683596
H192	H	0.742521	0.046849	0.648419
H193	H	0.715038	0.079714	0.717691
O194	O	0.595548	-0.150773	0.855416
C195	C	0.560577	-0.120451	0.892197
H196	H	0.583513	-0.075770	0.901727
H197	H	0.551429	-0.144269	0.936925
H198	H	0.518512	-0.116794	0.867683
H199	H	0.763906	0.658056	0.000056
O200	O	0.572571	0.197306	-0.000023
C201	C	0.569056	0.231222	-0.052372
H202	H	0.614033	0.246260	-0.069816
H203	H	0.546580	0.269999	-0.040613
H204	H	0.543714	0.204833	-0.089018
O205	O	0.770662	0.771678	0.000017
C206	C	0.758817	0.828954	0.000026
H207	H	0.714098	0.830978	-0.019106
H208	H	0.791705	0.856049	-0.029314
H209	H	0.761072	0.846150	0.048503
H210	H	-0.167632	-0.164421	0.000060
H211	H	0.582043	0.085909	0.000067
H212	H	0.246123	0.071339	0.000107
O213	O	0.567342	0.626686	0.000057
C214	C	0.521054	0.659400	0.000037
H215	H	0.535773	0.703815	0.019168
H216	H	0.484941	0.637295	0.029373
H217	H	0.505020	0.663543	-0.048443
H218	H	-0.034198	0.022693	0.000086
H219	H	0.742971	-0.003534	0.149765
H220	H	0.742973	-0.003516	0.265148
O221	O	0.788067	0.041588	0.437444
C222	C	0.822447	0.075931	0.479157
H223	H	0.799100	0.076448	0.524499
H224	H	0.831391	0.121460	0.460786
H225	H	0.864648	0.057656	0.485918
H226	H	0.601654	-0.144769	0.265183
