data_functionalizedCrystal
_audit_creation_method	'MofGen! by Chris Wilmer'
_symmetry_space_group_name_H-M	'P1'
_symmetry_Int_Tables_number	1
_symmetry_cell_setting	triclinic
loop_
_symmetry_equiv_pos_as_xyz
  x,y,z
_cell_length_a	13.897448
_cell_length_b	19.805407
_cell_length_c	19.805399
_cell_angle_alpha	90.019573
_cell_angle_beta	89.974981
_cell_angle_gamma	89.982308
loop_
_atom_site_label
_atom_site_type_symbol
_atom_site_fract_x
_atom_site_fract_y
_atom_site_fract_z
Zn1	Zn	-0.384037	-1.034777	-0.382732
Zn2	Zn	0.115963	-0.534777	0.117268
Zn3	Zn	-0.545343	-1.034709	-0.269549
Zn4	Zn	-0.045343	-0.534709	0.230451
Zn5	Zn	-0.384064	-0.921591	-0.269556
Zn6	Zn	0.115936	-0.421591	0.230444
Zn7	Zn	-0.545292	-0.921572	-0.382695
Zn8	Zn	-0.045292	-0.421572	0.117305
O9	O	-0.464684	-0.978162	-0.326133
O10	O	0.035316	-0.478162	0.173867
O11	O	-0.405445	-1.129484	-0.367730
O12	O	0.094555	-0.629484	0.132270
O13	O	-0.523982	-1.019683	-0.174833
O14	O	-0.023982	-0.519683	0.325167
O15	O	-0.249079	-0.936642	-0.284588
O16	O	0.250921	-0.436642	0.215412
O17	O	-0.523956	-1.129434	-0.284575
O18	O	-0.023956	-0.629434	0.215425
O19	O	-0.249059	-1.019799	-0.367737
O20	O	0.250941	-0.519799	0.132263
O21	O	-0.405490	-0.936576	-0.174839
O22	O	0.094510	-0.436576	0.325161
O23	O	-0.405441	-0.826872	-0.284552
O24	O	0.094559	-0.326872	0.215448
O25	O	-0.523869	-0.936609	-0.477417
O26	O	-0.023869	-0.436609	0.022583
O27	O	-0.523894	-0.826858	-0.367675
O28	O	-0.023894	-0.326858	0.132325
O29	O	-0.405395	-1.019780	-0.477443
O30	O	0.094605	-0.519780	0.022557
O31	O	-0.680318	-1.019664	-0.284539
O32	O	-0.180318	-0.519664	0.215461
O33	O	-0.680280	-0.936543	-0.367668
O34	O	-0.180280	-0.436543	0.132332
C35	C	-0.464666	-0.802306	-0.326111
C36	C	0.035334	-0.302306	0.173889
C37	C	-0.464681	-0.727074	-0.326118
C38	C	0.035319	-0.227074	0.173882
C39	C	-0.715298	-0.978113	-0.326113
C40	C	-0.215298	-0.478113	0.173887
C41	C	-0.822512	-0.978154	-0.326128
C42	C	-0.322512	-0.478154	0.173872
C43	C	-0.464623	-0.978200	-0.502676
C44	C	0.035377	-0.478200	-0.002676
C45	C	-0.464597	-0.978216	-0.577908
C46	C	0.035403	-0.478216	-0.077908
C47	C	-1.018807	-0.978225	-0.326170
C48	C	-0.518807	-0.478225	0.173830
C49	C	-0.909575	-0.978183	-0.326149
C50	C	-0.409575	-0.478183	0.173851
C51	C	-0.213091	-0.978230	-0.326167
C52	C	0.286909	-0.478230	0.173833
C53	C	-0.105877	-0.978259	-0.326182
C54	C	0.394123	-0.478259	0.173818
C55	C	-0.464703	-1.154705	-0.326155
C56	C	0.035297	-0.654705	0.173845
C57	C	-0.464711	-1.229937	-0.326165
C58	C	0.035289	-0.729937	0.173835
C59	C	-0.526453	-0.691740	-0.369330
C60	C	-0.026453	-0.191740	0.130670
C61	C	-0.526454	-0.621052	-0.369339
C62	C	-0.026454	-0.121052	0.130661
C63	C	-0.464688	-0.585699	-0.326133
C64	C	0.035312	-0.085699	0.173867
C65	C	-0.402910	-0.621037	-0.282919
C66	C	0.097090	-0.121037	0.217081
C67	C	-0.402904	-0.691725	-0.282913
C68	C	0.097096	-0.191725	0.217087
C69	C	-0.402931	-0.335964	-0.282941
C70	C	0.097069	0.164036	0.217059
C71	C	-0.402944	-0.265272	-0.282949
C72	C	0.097056	0.234728	0.217051
C73	C	-0.526481	-0.265292	-0.369367
C74	C	-0.026481	0.234708	0.130633
C75	C	-0.526476	-0.335979	-0.369362
C76	C	-0.026476	0.164021	0.130638
C77	C	-0.464694	-0.371311	-0.326151
C78	C	0.035306	0.128689	0.173849
C79	C	-0.464692	-0.447960	-0.326142
C80	C	0.035308	0.052040	0.173858
C81	C	-0.464695	-0.509051	-0.326138
C82	C	0.035305	-0.009051	0.173862
C83	C	-0.402905	-1.021524	-0.613267
C84	C	0.097095	-0.521524	-0.113267
C85	C	-0.402877	-1.021531	-0.683955
C86	C	0.097123	-0.521531	-0.183955
C87	C	-0.464547	-0.978233	-0.719283
C88	C	0.035453	-0.478233	-0.219283
C89	C	-0.526242	-0.934920	-0.683919
C90	C	-0.026242	-0.434920	-0.183919
C91	C	-0.526264	-0.934910	-0.613232
C92	C	-0.026264	-0.434910	-0.113232
C93	C	-0.526152	-0.934958	-0.968993
C94	C	-0.026152	-0.434958	-0.468993
C95	C	-0.526127	-0.934973	-1.039685
C96	C	-0.026127	-0.434973	-0.539685
C97	C	-0.402765	-1.021579	-1.039716
C98	C	0.097235	-0.521579	-0.539716
C99	C	-0.402787	-1.021570	-0.969029
C100	C	0.097213	-0.521570	-0.469029
C101	C	-0.464478	-0.978255	-0.933671
C102	C	0.035522	-0.478255	-0.433671
C103	C	-0.464507	-0.978247	-0.857022
C104	C	0.035493	-0.478247	-0.357022
C105	C	-0.464524	-0.978244	-0.795931
C106	C	0.035476	-0.478244	-0.295931
C107	C	-0.464675	-0.978163	-0.150277
C108	C	0.035325	-0.478163	0.349723
C109	C	-0.464429	-0.978278	-0.075045
C110	C	0.035571	-0.478278	0.424955
H111	H	-0.576753	-0.720520	-0.404511
H112	H	-0.076753	-0.220520	0.095489
H113	H	-0.352573	-1.056830	-0.940268
H114	H	0.147427	-0.556830	-0.440268
O115	O	-0.342694	-1.063618	-1.073989
O116	O	0.157306	-0.563618	-0.573989
C117	C	-0.246561	-1.048841	-1.056736
C118	C	0.253439	-0.548841	-0.556736
H119	H	-0.244579	-1.022814	-1.005407
H120	H	0.255421	-0.522814	-0.505407
H121	H	-0.203318	-1.097702	-1.054330
H122	H	0.296682	-0.597702	-0.554330
H123	H	-0.214049	-1.014058	-1.096516
H124	H	0.285951	-0.514058	-0.596516
H125	H	-0.576398	-0.899699	-0.940213
H126	H	-0.076398	-0.399699	-0.440213
O127	O	-0.586062	-0.892843	-1.073899
O128	O	-0.086062	-0.392843	-0.573899
C129	C	-0.640533	-0.854620	-1.027534
C130	C	-0.140533	-0.354620	-0.527534
H131	H	-0.601042	-0.852279	-0.977151
H132	H	-0.101042	-0.352279	-0.477151
H133	H	-0.650802	-0.801293	-1.047951
H134	H	-0.150802	-0.301293	-0.547951
H135	H	-0.713801	-0.879380	-1.020010
H136	H	-0.213801	-0.379380	-0.520010
O137	O	-0.586046	-0.892763	-0.718204
O138	O	-0.086046	-0.392763	-0.218204
C139	C	-0.564979	-0.825307	-0.700909
C140	C	-0.064979	-0.325307	-0.200909
H141	H	-0.487925	-0.821907	-0.681490
H142	H	0.012075	-0.321907	-0.181490
H143	H	-0.573273	-0.791873	-0.747387
H144	H	-0.073273	-0.291873	-0.247387
H145	H	-0.616702	-0.807595	-0.659865
H146	H	-0.116702	-0.307595	-0.159865
H147	H	-0.576490	-0.899638	-0.584444
H148	H	-0.076490	-0.399638	-0.084444
H149	H	-0.352615	-0.592247	-0.247743
H150	H	0.147385	-0.092247	0.252257
H151	H	-0.352632	-0.364723	-0.247751
H152	H	0.147368	0.135277	0.252249
O153	O	-0.586562	-0.586834	-0.411329
O154	O	-0.086562	-0.086834	0.088671
C155	C	-0.641068	-0.633195	-0.449467
C156	C	-0.141068	-0.133195	0.050533
H157	H	-0.644338	-0.683572	-0.421736
H158	H	-0.144338	-0.183572	0.078264
H159	H	-0.717087	-0.612764	-0.456583
H160	H	-0.217087	-0.112764	0.043417
H161	H	-0.605858	-0.640738	-0.500922
H162	H	-0.105858	-0.140738	-0.000922
H163	H	-0.576775	-0.364760	-0.404542
H164	H	-0.076775	0.135240	0.095458
H165	H	-0.576783	-0.236515	-0.404554
H166	H	-0.076783	0.263485	0.095446
H167	H	-0.352641	-0.236489	-0.247765
H168	H	0.147359	0.263511	0.252235
O169	O	-0.342874	-0.725945	-0.240869
O170	O	0.157126	-0.225945	0.259131
C171	C	-0.288344	-0.679586	-0.202745
C172	C	0.211656	-0.179586	0.297255
H173	H	-0.327852	-0.629189	-0.200359
H174	H	0.172148	-0.129189	0.299641
H175	H	-0.277957	-0.699989	-0.149427
H176	H	0.222043	-0.199989	0.350573
H177	H	-0.215131	-0.672092	-0.227620
H178	H	0.284869	-0.172092	0.272380
H179	H	-0.352690	-1.056785	-0.584508
H180	H	0.147310	-0.556785	-0.084508
H181	H	-0.352644	-1.056799	-0.712742
H182	H	0.147356	-0.556799	-0.212742
