data_functionalizedCrystal
_audit_creation_method	'MofGen! by Chris Wilmer'
_symmetry_space_group_name_H-M	'P1'
_symmetry_Int_Tables_number	1
_symmetry_cell_setting	triclinic
loop_
_symmetry_equiv_pos_as_xyz
  x,y,z
_cell_length_a	17.699083
_cell_length_b	17.699083
_cell_length_c	16.776229
_cell_angle_alpha	90.007545
_cell_angle_beta	90.000683
_cell_angle_gamma	83.283015
loop_
_atom_site_label
_atom_site_type_symbol
_atom_site_fract_x
_atom_site_fract_y
_atom_site_fract_z
O1	O	-1.004078	-0.095713	-0.066170
O2	O	-0.783700	-0.108165	-0.066198
O3	O	-0.900116	0.008250	-0.066176
O4	O	-0.887663	-0.212128	-0.066192
O5	O	-0.900100	0.008257	0.066400
O6	O	-0.783685	-0.108158	0.066378
O7	O	-1.004063	-0.095706	0.066406
Zn8	Zn	-0.893871	-0.101931	0.087442
Zn9	Zn	-0.893892	-0.101940	-0.087233
O10	O	-0.887648	-0.212121	0.066385
C11	C	-0.755495	-0.107716	0.000087
C12	C	-0.671477	-0.106377	0.000076
C13	C	-0.622856	-0.174710	0.000071
C14	C	-0.543913	-0.173448	0.000081
C15	C	-0.513592	-0.103852	0.000090
C16	C	-0.562219	-0.035513	0.000097
C17	C	-0.641161	-0.036776	0.000093
C18	C	-0.243856	-0.030418	0.000115
C19	C	-0.164908	-0.029160	0.000117
C20	C	-0.146608	-0.167090	0.000103
C21	C	-0.225550	-0.168353	0.000098
C22	C	-0.274170	-0.100015	0.000110
C23	C	-0.359769	-0.101384	0.000101
C24	C	-0.427995	-0.102481	0.000093
N25	N	-0.893863	-0.101924	0.206653
C26	C	-0.899662	0.036451	0.000112
C27	C	-0.898323	0.120469	0.000112
C28	C	-0.032268	-0.096156	0.000118
C29	C	-0.116286	-0.097494	0.000117
C30	C	-0.888102	-0.240322	0.000095
C31	C	-0.889440	-0.324340	0.000089
C32	C	-0.966656	0.169090	0.000122
C33	C	-0.965394	0.248033	0.000115
C34	C	-0.895798	0.278354	0.000103
C35	C	-0.827459	0.229727	0.000091
C36	C	-0.828722	0.150785	0.000093
C37	C	-0.822364	0.548090	0.000084
C38	C	-0.821106	0.627038	0.000085
C39	C	-0.959036	0.645338	0.000106
C40	C	-0.960299	0.566396	0.000108
C41	C	-0.891961	0.517776	0.000091
C42	C	-0.893330	0.432177	0.000098
C43	C	-0.894427	0.363951	0.000103
N44	N	-0.893906	-0.101941	-0.206445
C45	C	-0.945428	-0.050396	0.248380
C46	C	-0.945432	-0.050396	0.331832
C47	C	-0.893875	-0.101927	0.373556
C48	C	-0.842305	-0.153457	0.331823
C49	C	-0.842297	-0.153454	0.248373
C50	C	-0.842332	-0.153472	0.668370
C51	C	-0.842345	-0.153473	0.751827
C52	C	-0.945466	-0.050414	0.751830
C53	C	-0.945459	-0.050411	0.668379
C54	C	-0.893887	-0.101938	0.626654
C55	C	-0.893882	-0.101937	0.536165
C56	C	-0.893882	-0.101932	0.464043
H57	H	-0.140225	0.027517	0.000125
Cl58	Cl	-0.777503	-0.218250	0.615921
H59	H	-0.770792	0.254420	0.000077
Cl60	Cl	-0.482792	-0.259357	0.000070
Cl61	Cl	-1.010250	0.014386	0.195936
H62	H	-0.283434	0.025228	0.000125
Cl63	Cl	-0.742813	0.089661	0.000077
H64	H	-0.680748	0.018868	0.000097
H65	H	-1.016971	0.541714	0.000121
Cl66	Cl	-1.044948	0.706465	0.000124
H67	H	-0.987444	-0.008452	0.634410
H68	H	-0.766718	0.508512	0.000071
H69	H	-0.647537	-0.231384	0.000063
Cl70	Cl	-0.263663	-0.255849	0.000083
H71	H	-0.764429	0.651721	0.000077
Cl72	Cl	-1.010256	0.014384	0.384290
Cl73	Cl	-1.010299	0.014367	0.804289
H74	H	-0.107012	-0.222734	0.000097
Cl75	Cl	-0.777524	-0.218259	0.804279
H76	H	-0.800322	-0.195412	0.365800
H77	H	-0.800308	-0.195412	0.214399
Cl78	Cl	-0.524102	0.051980	0.000114
H79	H	-1.021038	0.287618	0.000125
Cl80	Cl	-1.054154	0.130980	0.000144
