data_functionalizedCrystal
_audit_creation_method	'MofGen! by Chris Wilmer'
_symmetry_space_group_name_H-M	'P1'
_symmetry_Int_Tables_number	1
_symmetry_cell_setting	triclinic
loop_
_symmetry_equiv_pos_as_xyz
  x,y,z
_cell_length_a	16.109301
_cell_length_b	9.130307
_cell_length_c	16.109301
_cell_angle_alpha	90.004715
_cell_angle_beta	83.461481
_cell_angle_gamma	89.998800
loop_
_atom_site_label
_atom_site_type_symbol
_atom_site_fract_x
_atom_site_fract_y
_atom_site_fract_z
O1	O	1.103128	0.121711	0.106866
O2	O	1.603128	0.621711	0.606866
O3	O	0.861066	0.121735	0.120165
O4	O	1.361066	0.621735	0.620165
O5	O	0.988747	0.121708	-0.007516
O6	O	1.488747	0.621708	0.492484
O7	O	0.975448	0.121739	0.234546
O8	O	1.475448	0.621739	0.734546
O9	O	0.988743	-0.121891	-0.007517
O10	O	1.488743	0.378109	0.492483
O11	O	0.861062	-0.121864	0.120164
O12	O	1.361062	0.378136	0.620164
O13	O	1.103124	-0.121888	0.106865
O14	O	1.603124	0.378112	0.606865
Cu15	Cu	0.982093	-0.144118	0.113514
Cu16	Cu	1.482093	0.355882	0.613514
Cu17	Cu	0.982098	0.143966	0.113516
Cu18	Cu	1.482098	0.643966	0.613516
O19	O	0.975444	-0.121860	0.234545
O20	O	1.475444	0.378140	0.734545
C21	C	0.830090	-0.000061	0.119626
C22	C	1.330090	0.499939	0.619626
C23	C	0.737794	-0.000053	0.118011
C24	C	1.237794	0.499947	0.618011
N25	N	0.982096	-0.346741	0.113513
N26	N	1.482096	0.153259	0.613513
C27	C	0.515522	-0.000060	0.190018
C28	C	1.015522	0.499940	0.690018
C29	C	0.428801	-0.000070	0.188494
C30	C	0.928801	0.499930	0.688494
C31	C	0.448676	-0.000083	0.037006
C32	C	0.948676	0.499917	0.537006
C33	C	0.535394	-0.000084	0.038530
C34	C	1.035394	0.499916	0.538530
C35	C	0.568815	-0.000065	0.115039
C36	C	1.068815	0.499935	0.615039
C37	C	0.395376	-0.000074	0.111990
C38	C	0.895376	0.499926	0.611990
C39	C	0.301350	-0.000084	0.110337
C40	C	0.801350	0.499916	0.610337
C41	C	0.662847	-0.000058	0.116693
C42	C	1.162847	0.499942	0.616693
C43	C	1.095203	-0.346755	0.000484
C44	C	1.595203	0.153245	0.500484
C45	C	1.151762	-0.423429	-0.056028
C46	C	1.651762	0.076571	0.443972
C47	C	1.151770	-0.576763	-0.056029
C48	C	1.651770	-0.076763	0.443971
C49	C	1.095211	-0.653426	0.000487
C50	C	1.595211	-0.153426	0.500487
C51	C	1.038652	-0.576752	0.056999
C52	C	1.538652	-0.076752	0.556999
C53	C	1.038652	-0.423415	0.056995
C54	C	1.538652	0.076585	0.556995
C55	C	0.925543	-0.576737	0.170022
C56	C	1.425543	-0.076737	0.670022
C57	C	0.925537	-0.423404	0.170028
C58	C	1.425537	0.076596	0.670028
C59	C	0.868984	-0.653400	0.226538
C60	C	1.368984	-0.153400	0.726538
C61	C	0.812428	-0.576727	0.283056
C62	C	1.312428	-0.076727	0.783056
C63	C	0.812423	-0.423384	0.283055
C64	C	1.312423	0.076616	0.783055
C65	C	0.868978	-0.346730	0.226540
C66	C	1.368978	0.153270	0.726540
C67	C	1.134101	-0.000088	0.107404
C68	C	1.634101	0.499912	0.607404
C69	C	1.226397	-0.000087	0.109019
C70	C	1.726397	0.499913	0.609019
C71	C	0.988206	-0.000092	-0.038491
C72	C	1.488206	0.499908	0.461509
C73	C	0.986591	-0.000094	-0.130786
C74	C	1.486591	0.499906	0.369214
N75	N	0.982102	0.346589	0.113510
N76	N	1.482102	0.846589	0.613510
C77	C	1.058599	-0.000078	-0.353059
C78	C	1.558599	0.499922	0.146941
C79	C	1.057075	-0.000066	-0.439779
C80	C	1.557075	0.499934	0.060221
C81	C	0.905586	-0.000057	-0.419905
C82	C	1.405586	0.499943	0.080095
C83	C	0.907111	-0.000058	-0.333186
C84	C	1.407111	0.499942	0.166814
C85	C	0.983620	-0.000077	-0.299766
C86	C	1.483620	0.499923	0.200234
C87	C	0.980571	-0.000063	-0.473205
C88	C	1.480571	0.499937	0.026795
C89	C	0.978918	-0.000050	-0.567231
C90	C	1.478918	0.499950	-0.067231
C91	C	0.985273	-0.000087	-0.205734
C92	C	1.485273	0.499913	0.294266
C93	C	0.975984	-0.000057	0.265521
C94	C	1.475984	0.499943	0.765521
C95	C	0.977600	-0.000045	0.357816
C96	C	1.477600	0.499955	0.857816
H97	H	0.542730	-0.000056	0.252317
H98	H	1.042730	0.499944	0.752317
H99	H	0.868990	-0.778253	0.226532
H100	H	1.368990	-0.278253	0.726532
F101	F	1.140026	-0.000096	-0.317493
F102	F	1.640026	0.499904	0.182507
H103	H	0.766362	-0.360964	0.329070
H104	H	1.266362	0.139036	0.829070
F105	F	1.136878	-0.000065	-0.496495
F106	F	1.636878	0.499935	0.003505
F107	F	1.095209	-0.183564	0.000488
F108	F	1.595209	0.316436	0.500488
H109	H	0.868982	-0.221878	0.226537
H110	H	1.368982	0.278122	0.726537
H111	H	0.843295	-0.000045	-0.447127
H112	H	1.343295	0.499955	0.052873
F113	F	0.827304	-0.000046	-0.276464
F114	F	1.327304	0.499954	0.223536
H115	H	0.385413	-0.000069	0.249550
H116	H	0.885413	0.499931	0.749550
F117	F	1.211951	-0.341832	-0.116177
F118	F	1.711951	0.158168	0.383823
F119	F	0.413100	-0.000097	-0.044416
F120	F	0.913100	0.499903	0.455584
H121	H	0.578788	-0.000092	-0.022530
H122	H	1.078788	0.499908	0.477470
H123	H	1.197822	-0.639191	-0.102049
H124	H	1.697822	-0.139191	0.397951
H125	H	1.095215	-0.778278	0.000476
H126	H	1.595215	-0.278278	0.500476
F127	F	0.752236	-0.658322	0.343193
F128	F	1.252236	-0.158322	0.843193
