data_functionalizedCrystal
_audit_creation_method	'MofGen! by Chris Wilmer'
_symmetry_space_group_name_H-M	'P1'
_symmetry_Int_Tables_number	1
_symmetry_cell_setting	triclinic
loop_
_symmetry_equiv_pos_as_xyz
  x,y,z
_cell_length_a	29.839131
_cell_length_b	29.839134
_cell_length_c	19.805399
_cell_angle_alpha	90.028355
_cell_angle_beta	90.029565
_cell_angle_gamma	90.036281
loop_
_atom_site_label
_atom_site_type_symbol
_atom_site_fract_x
_atom_site_fract_y
_atom_site_fract_z
Zn1	Zn	-0.178925	0.686748	0.382869
Zn2	Zn	-0.254053	0.686672	0.269677
Zn3	Zn	-0.178931	0.611622	0.269676
Zn4	Zn	-0.254022	0.611578	0.382806
O5	O	-0.216483	0.649155	0.326257
O6	O	-0.188902	0.749605	0.367880
O7	O	-0.244103	0.676703	0.174960
O8	O	-0.116063	0.621638	0.284717
O9	O	-0.244097	0.749549	0.284718
O10	O	-0.116059	0.676833	0.367880
O11	O	-0.188911	0.621564	0.174960
O12	O	-0.188882	0.548749	0.284657
O13	O	-0.244045	0.621563	0.477531
O14	O	-0.244051	0.548717	0.367773
O15	O	-0.188872	0.676790	0.477577
O16	O	-0.316916	0.676660	0.284657
O17	O	-0.316893	0.621489	0.367773
C18	C	-0.216464	0.532433	0.326208
C19	C	-0.216466	0.482498	0.326203
C20	C	-0.245252	0.172847	0.369482
C21	C	-0.245265	-0.014826	0.369512
O22	O	-0.269718	-0.039097	0.406281
N23	N	-0.216499	-0.038287	0.326308
C24	C	-0.187727	-0.014827	0.283096
O25	O	-0.163257	-0.039089	0.246353
C26	C	-0.187712	0.172845	0.283070
C27	C	-0.216483	0.196304	0.326272
C28	C	-0.274020	0.196306	0.412682
C29	C	-0.274018	0.243222	0.412671
C30	C	-0.245249	0.266678	0.369461
C31	C	-0.216481	0.243219	0.326262
C32	C	-0.158938	0.196304	0.239861
C33	C	-0.158936	0.243225	0.239860
C34	C	-0.187706	0.266684	0.283063
C35	C	-0.187710	0.313591	0.283041
N36	N	-0.216475	0.337053	0.326246
C37	C	-0.245244	0.313596	0.369456
C38	C	-0.187737	-0.113358	0.283112
C39	C	-0.187741	-0.160276	0.283117
C40	C	-0.245279	-0.160271	0.369535
C41	C	-0.245276	-0.113352	0.369526
C42	C	-0.216502	-0.089896	0.326316
C43	C	-0.245239	0.412122	0.369430
C44	C	-0.245236	0.459042	0.369413
C45	C	-0.187697	0.459033	0.282998
C46	C	-0.187701	0.412117	0.283012
C47	C	-0.216474	0.388663	0.326233
O48	O	-0.163266	0.337891	0.246297
O49	O	-0.269703	0.337866	0.406203
C50	C	-0.245254	0.125932	0.369493
C51	C	-0.216486	0.102473	0.326293
C52	C	-0.187717	0.125930	0.283083
C53	C	-0.216490	0.055555	0.326299
C54	C	-0.245260	0.032099	0.369509
C55	C	-0.274025	0.055560	0.412714
C56	C	-0.274023	0.102475	0.412703
C57	C	-0.158951	0.102468	0.239879
C58	C	-0.158956	0.055553	0.239892
C59	C	-0.187725	0.032096	0.283102
C60	C	-0.333205	0.649074	0.326223
C61	C	-0.383140	0.649080	0.326232
C62	C	-0.692782	0.677935	0.283042
C63	C	-0.880455	0.677990	0.283068
O64	O	-0.904719	0.702459	0.246321
N65	N	-0.903925	0.649248	0.326308
C66	C	-0.880473	0.620492	0.369547
O67	O	-0.904742	0.596050	0.406331
C68	C	-0.692801	0.620440	0.369524
C69	C	-0.669334	0.649180	0.326277
C70	C	-0.669315	0.706673	0.239798
C71	C	-0.622400	0.706657	0.239790
C72	C	-0.598951	0.677903	0.283024
C73	C	-0.622419	0.649164	0.326268
C74	C	-0.669350	0.591687	0.412767
C75	C	-0.622429	0.591677	0.412758
C76	C	-0.598962	0.620417	0.369511
C77	C	-0.552055	0.620394	0.369494
N78	N	-0.528585	0.649136	0.326254
C79	C	-0.552034	0.677890	0.283019
C80	C	-0.979004	0.620522	0.369556
C81	C	-1.025922	0.620534	0.369561
C82	C	-1.025901	0.678033	0.283082
C83	C	-0.978982	0.678017	0.283074
C84	C	-0.955534	0.649264	0.326316
C85	C	-0.453508	0.677855	0.283004
C86	C	-0.406588	0.677835	0.282997
C87	C	-0.406613	0.620338	0.369478
C88	C	-0.453529	0.620356	0.369482
C89	C	-0.476975	0.649118	0.326243
O90	O	-0.527762	0.595942	0.406227
O91	O	-0.527757	0.702336	0.246252
C92	C	-0.739698	0.677951	0.283051
C93	C	-0.763165	0.649212	0.326294
C94	C	-0.739717	0.620458	0.369529
C95	C	-0.810083	0.649225	0.326299
C96	C	-0.833531	0.677979	0.283064
C97	C	-0.810061	0.706721	0.239825
C98	C	-0.763146	0.706705	0.239816
C99	C	-0.763186	0.591716	0.412769
C100	C	-0.810102	0.591733	0.412773
C101	C	-0.833550	0.620488	0.369539
C102	C	-0.099304	0.649249	0.326305
C103	C	-0.049370	0.649289	0.326326
C104	C	-0.216455	0.649180	0.502800
C105	C	-0.216443	0.649191	0.578032
C106	C	-0.216502	0.766333	0.326306
C107	C	-0.216511	0.816268	0.326327
C108	C	-0.216479	0.649156	0.150401
C109	C	-0.216364	0.649232	0.075169
C110	C	-0.187712	0.677948	0.613401
C111	C	-0.187699	0.677953	0.684089
C112	C	-0.216419	0.649202	0.719407
C113	C	-0.245151	0.620442	0.684033
C114	C	-0.245161	0.620435	0.613346
C115	C	-0.245109	0.620467	0.969107
C116	C	-0.245097	0.620477	1.039799
C117	C	-0.187647	0.677985	1.039850
C118	C	-0.187657	0.677978	0.969163
C119	C	-0.216387	0.649216	0.933795
C120	C	-0.216400	0.649211	0.857146
C121	C	-0.216408	0.649209	0.796055
H122	H	-0.164275	0.478140	0.247816
F123	F	-0.304642	0.171349	0.458677
H124	H	-0.297445	0.262318	0.447853
H125	H	-0.268667	0.393031	0.404626
F126	F	-0.275666	0.589875	1.077385
F127	F	-0.835072	0.561140	0.458805
H128	H	-0.268703	-0.094255	0.404706
F129	F	-0.275895	-0.185243	0.415526
H130	H	-0.164318	-0.179372	0.247930
H131	H	-0.164305	-0.094264	0.247922
H132	H	-0.135523	0.121562	0.204691
H133	H	-0.297451	0.121571	0.447884
F134	F	-0.304645	0.030588	0.458698
F135	F	-0.128313	0.171347	0.193882
F136	F	-0.128334	0.030591	0.193904
H137	H	-0.268552	0.597014	0.584549
F138	F	-0.128309	0.268186	0.193870
H139	H	-0.164275	0.393016	0.247832
F140	F	-0.275715	0.589841	0.721623
F141	F	-0.954011	0.708607	0.237045
H142	H	-0.829161	0.730133	0.204619
F143	F	-0.275860	0.484006	0.415396
F144	F	-0.157146	0.708551	0.575819
H145	H	-0.387483	0.701239	0.247777
F146	F	-0.478454	0.708466	0.236984
H147	H	-0.688449	0.568281	0.447980
H148	H	-0.603295	0.730062	0.204576
H149	H	-0.387515	0.596925	0.404677
H150	H	-1.045000	0.701446	0.247879
F151	F	-0.157068	0.708595	1.077497
H152	H	-0.688402	0.730091	0.204591
H153	H	-0.959916	0.597106	0.404769
F154	F	-1.050892	0.589940	0.415583
H155	H	-0.603341	0.568262	0.447973
F156	F	-0.478505	0.589759	0.415498
H157	H	-0.744042	0.730108	0.204600
F158	F	-0.738237	0.561110	0.458788
H159	H	-0.164305	0.701371	0.712884
H160	H	-0.164272	0.701391	0.940411
H161	H	-0.268509	0.597054	0.940318
