data_functionalizedCrystal
_audit_creation_method	'MofGen! by Chris Wilmer'
_symmetry_space_group_name_H-M	'P1'
_symmetry_Int_Tables_number	1
_symmetry_cell_setting	triclinic
loop_
_symmetry_equiv_pos_as_xyz
  x,y,z
_cell_length_a	14.472311
_cell_length_b	15.538191
_cell_length_c	15.995292
_cell_angle_alpha	65.370355
_cell_angle_beta	89.994907
_cell_angle_gamma	89.992311
loop_
_atom_site_label
_atom_site_type_symbol
_atom_site_fract_x
_atom_site_fract_y
_atom_site_fract_z
O1	O	0.076868	-1.249976	0.271968
O2	O	0.576868	-0.749976	0.771968
O3	O	0.076861	-0.975694	0.175278
O4	O	0.576861	-0.475694	0.675278
O5	O	0.076866	-1.120361	0.347801
O6	O	0.576866	-0.620361	0.847801
O7	O	0.076863	-1.105309	0.099445
O8	O	0.576863	-0.605309	0.599445
O9	O	-0.076816	-1.120348	0.347810
O10	O	0.423184	-0.620348	0.847810
O11	O	-0.076821	-0.975681	0.175287
O12	O	0.423179	-0.475681	0.675287
O13	O	-0.076814	-1.249963	0.271976
O14	O	0.423186	-0.749963	0.771976
Cu15	Cu	-0.090850	-1.112821	0.223632
Cu16	Cu	0.409150	-0.612821	0.723632
Cu17	Cu	0.090897	-1.112836	0.223622
Cu18	Cu	0.590897	-0.612836	0.723622
O19	O	-0.076819	-1.105296	0.099453
O20	O	0.423181	-0.605296	0.599453
C21	C	0.000020	-0.940590	0.165166
C22	C	0.500020	-0.440590	0.665166
C23	C	0.000017	-0.836009	0.135033
C24	C	0.500017	-0.336009	0.635033
N25	N	-0.218681	-1.112817	0.223642
N26	N	0.281319	-0.612817	0.723642
C27	C	0.000029	-1.285067	0.282088
C28	C	0.500029	-0.785067	0.782088
C29	C	0.000037	-1.389648	0.312221
C30	C	0.500037	-0.889648	0.812221
C31	C	-0.407181	-1.112827	0.223635
C32	C	0.092819	-0.612827	0.723635
C33	C	-0.446380	-1.190254	0.315930
C34	C	0.053620	-0.690254	0.815930
C35	C	-0.553468	-1.190534	0.315833
C36	C	-0.053468	-0.690534	0.815833
C37	C	-0.592772	-1.112838	0.223629
C38	C	-0.092772	-0.612838	0.723629
C39	C	-0.553879	-1.133880	0.142549
C40	C	-0.053879	-0.633880	0.642549
C41	C	-0.446758	-1.134429	0.143125
C42	C	0.053242	-0.634429	0.643125
C43	C	-0.446674	-1.014127	0.211561
C44	C	0.053326	-0.514127	0.711561
C45	C	-0.553802	-1.014795	0.213743
C46	C	-0.053802	-0.514795	0.713743
C47	C	-0.697660	-1.112841	0.223619
C48	C	-0.197660	-0.612841	0.723619
C49	C	-0.302293	-1.112825	0.223639
C50	C	0.197707	-0.612825	0.723639
N51	N	0.218728	-1.112848	0.223621
N52	N	0.718728	-0.612848	0.723621
C53	C	0.000027	-1.119742	0.378815
C54	C	0.500027	-0.619742	0.878815
C55	C	0.000034	-1.117906	0.471210
C56	C	0.500034	-0.617906	0.971210
C57	C	0.000036	-0.548289	0.434397
C58	C	0.500036	-0.048289	0.934397
C59	C	0.000036	-0.450016	0.406061
C60	C	0.500036	0.049984	0.906061
C61	C	0.000034	-0.427536	0.246680
C62	C	0.500034	0.072464	0.746680
C63	C	0.000029	-0.525809	0.275002
C64	C	0.500029	-0.025809	0.775002
C65	C	0.000031	-0.586178	0.368862
C66	C	0.500031	-0.086178	0.868862
C67	C	0.000024	-0.563698	0.209467
C68	C	0.500024	-0.063698	0.709467
C69	C	0.000024	-0.661962	0.237787
C70	C	0.500024	-0.161962	0.737787
C71	C	0.000029	-0.722337	0.331643
C72	C	0.500029	-0.222337	0.831643
C73	C	0.000031	-0.684442	0.397182
C74	C	0.500031	-0.184442	0.897182
C75	C	0.000029	-0.503327	0.115608
C76	C	0.500029	-0.003327	0.615608
C77	C	0.000024	-0.541216	0.050072
C78	C	0.500024	-0.041216	0.550072
C79	C	0.000017	-0.639481	0.078392
C80	C	0.500017	-0.139481	0.578392
C81	C	0.000022	-0.699856	0.172248
C82	C	0.500022	-0.199856	0.672248
C83	C	0.000015	-0.677376	0.012853
C84	C	0.500015	-0.177376	0.512853
C85	C	0.000015	-0.775640	0.041174
C86	C	0.500015	-0.275640	0.541174
C87	C	0.000022	-0.798120	0.200568
C88	C	0.500022	-0.298120	0.700568
C89	C	0.000022	-1.105915	0.068439
C90	C	0.500022	-0.605915	0.568439
C91	C	0.000021	-1.107752	-0.023955
C92	C	0.500021	-0.607752	0.476045
C93	C	0.000026	-1.111154	0.806896
C94	C	0.500026	-0.611154	1.306896
C95	C	-0.000315	-1.215570	0.815319
C96	C	0.499685	-0.715570	1.315319
C97	C	0.000034	-1.217555	0.719246
C98	C	0.500034	-0.717555	1.219246
C99	C	0.000029	-1.114504	0.640358
C100	C	0.500029	-0.614504	1.140358
C101	C	0.087785	-1.062308	0.653589
C102	C	0.587785	-0.562308	1.153589
C103	C	0.087855	-1.061051	0.749997
C104	C	0.587855	-0.561051	1.249997
C105	C	-0.086910	-1.058904	0.749216
C106	C	0.413090	-0.558904	1.249216
C107	C	-0.088066	-1.062773	0.653899
C108	C	0.411934	-0.562773	1.153899
C109	C	0.000035	-1.116392	0.546236
C110	C	0.500035	-0.616392	1.046236
C111	C	0.000027	-1.109262	0.901017
C112	C	0.500027	-0.609262	1.401017
H113	H	-0.579765	-1.178068	0.377057
H114	H	-0.079765	-0.678068	0.877057
F115	F	0.000035	-0.826919	0.361784
F116	F	0.500035	-0.326919	0.861784
F117	F	-0.586958	-1.286281	0.329909
F118	F	-0.086958	-0.786281	0.829909
H119	H	-0.420609	-1.178008	0.377437
H120	H	0.079391	-0.678008	0.877437
F121	F	0.173600	-1.108319	0.799410
F122	F	0.673600	-0.608319	1.299410
H123	H	0.000032	-0.597446	0.510827
H124	H	0.500032	-0.097446	1.010827
H125	H	0.063053	-1.258686	0.713337
H126	H	0.563053	-0.758686	1.213337
H127	H	-0.580554	-0.954511	0.148606
H128	H	-0.080554	-0.454511	0.648606
F129	F	-0.587150	-1.062107	0.052218
F130	F	-0.087150	-0.562107	0.552218
H131	H	0.000032	-0.423315	0.092552
H132	H	0.500032	0.076685	0.592552
F133	F	-0.414087	-1.228497	0.151136
F134	F	0.085913	-0.728497	0.651136
H135	H	-0.420826	-1.080004	0.073982
H136	H	0.079174	-0.580004	0.573982
H137	H	-0.087505	-0.982045	0.739847
H138	H	0.412495	-0.482045	1.239847
H139	H	0.091828	-0.984492	0.741279
H140	H	0.591828	-0.484492	1.241279
F141	F	0.000029	-0.409697	0.475820
F142	F	0.500029	0.090303	0.975820
H143	H	-0.421324	-0.956513	0.143908
H144	H	0.078676	-0.456513	0.643908
H145	H	-0.153429	-1.091781	0.787302
H146	H	0.346571	-0.591781	1.287302
F147	F	-0.588933	-1.226871	0.149737
F148	F	-0.088933	-0.726871	0.649737
F149	F	0.173153	-1.109699	0.641769
F150	F	0.673153	-0.609699	1.141769
H151	H	0.091044	-0.986476	0.598673
H152	H	0.591044	-0.486476	1.098673
H153	H	-0.152987	-1.100780	0.646890
H154	H	0.347013	-0.600780	1.146890
H155	H	-0.419666	-0.993801	0.267826
H156	H	0.080334	-0.493801	0.767826
H157	H	0.062267	-1.255599	0.856497
H158	H	0.562267	-0.755599	1.356497
H159	H	-0.093370	-0.987556	0.598070
H160	H	0.406630	-0.487556	1.098070
H161	H	-0.419441	-1.263092	0.326752
H162	H	0.080559	-0.763092	0.826752
F163	F	0.000037	-0.363278	0.146790
F164	F	0.500037	0.136722	0.646790
F165	F	-0.587046	-0.993898	0.291496
F166	F	-0.087046	-0.493898	0.791496
H167	H	0.000018	-0.847277	0.276998
H168	H	0.500018	-0.347277	0.776998
H169	H	0.000026	-0.492050	-0.026348
H170	H	0.500026	0.007950	0.473652
F171	F	0.000023	-0.748697	0.497079
F172	F	0.500023	-0.248697	0.997079
H173	H	0.000023	-0.628209	-0.063567
H174	H	0.500023	-0.128209	0.436433
F175	F	0.000012	-0.815967	-0.028576
F176	F	0.500012	-0.315967	0.471424
H177	H	-0.062871	-1.258434	0.712650
H178	H	0.437129	-0.758434	1.212650
F179	F	-0.082575	-1.268173	0.867906
F180	F	0.417425	-0.768173	1.367906
