data_functionalizedCrystal
_audit_creation_method	'MofGen! by Chris Wilmer'
_symmetry_space_group_name_H-M	'P1'
_symmetry_Int_Tables_number	1
_symmetry_cell_setting	triclinic
loop_
_symmetry_equiv_pos_as_xyz
  x,y,z
_cell_length_a	6.817900
_cell_length_b	11.168121
_cell_length_c	12.257928
_cell_angle_alpha	87.766217
_cell_angle_beta	72.012007
_cell_angle_gamma	108.508496
loop_
_atom_site_label
_atom_site_type_symbol
_atom_site_fract_x
_atom_site_fract_y
_atom_site_fract_z
V1	V	-4.103874	-0.174982	0.357669
V2	V	-3.603874	0.325018	0.857669
O3	O	-4.063573	0.008123	0.350851
O4	O	-3.563573	0.508123	0.850851
O5	O	-4.080202	-0.346685	0.355232
O6	O	-3.580202	0.153315	0.855232
O7	O	-4.077544	-0.172415	0.513657
O8	O	-3.577544	0.327585	1.013657
O9	O	-4.066249	-0.167353	0.191330
O10	O	-3.566249	0.332647	0.691330
V11	V	-4.581438	-0.153065	0.337772
V12	V	-4.081438	0.346935	0.837772
O13	O	-4.378204	-0.223057	0.401314
O14	O	-3.878204	0.276943	0.901314
O15	O	-4.757305	-0.104990	0.294128
O16	O	-4.257305	0.395010	0.794128
O17	O	-4.381903	0.018638	0.340209
O18	O	-3.881903	0.518638	0.840209
O19	O	-4.739135	-0.336171	0.344591
O20	O	-4.239135	0.163829	0.844591
O21	O	-4.736459	-0.160694	0.504112
O22	O	-4.236459	0.339306	1.004112
O23	O	-4.384561	-0.155632	0.181785
O24	O	-3.884561	0.344368	0.681785
C25	C	-3.930505	-0.388539	0.349592
C26	C	-3.430505	0.111461	0.849592
C27	C	-3.992584	-0.528909	0.348640
C28	C	-3.492584	-0.028909	0.848640
C29	C	-4.195009	-0.597606	0.353656
C30	C	-3.695009	-0.097606	0.853656
C31	C	-4.259176	-0.742686	0.352671
C32	C	-3.759176	-0.242686	0.852671
C33	C	-3.927112	-0.166239	0.551677
C34	C	-3.427112	0.333761	1.051677
C35	C	-3.987032	-0.165276	0.679198
C36	C	-3.487032	0.334724	1.179198
C37	C	-4.096697	-0.163516	0.912671
C38	C	-3.596697	0.336484	1.412671
C39	C	-4.035663	-0.164495	0.782750
C40	C	-3.535663	0.335505	1.282750
C41	C	-4.194943	0.060485	0.345846
C42	C	-3.694943	0.560485	0.845846
C43	C	-4.112102	0.200854	0.346806
C44	C	-3.612102	0.700854	0.846806
C45	C	-4.205297	-0.161806	1.143758
C46	C	-3.705297	0.338194	1.643758
C47	C	-4.145363	-0.162741	1.016233
C48	C	-3.645363	0.337259	1.516233
H49	H	-4.432579	-0.801738	0.356952
H50	H	-3.932579	-0.301738	0.856952
H51	H	-3.938686	-0.740099	0.342508
H52	H	-3.438686	-0.240099	0.842508
H53	H	-4.320811	-0.549013	0.358685
H54	H	-3.820811	-0.049013	0.858685
H55	H	-3.866789	-0.577504	0.343623
H56	H	-3.366789	-0.077504	0.843623
