data_functionalizedCrystal
_audit_creation_method	'MofGen! by Chris Wilmer'
_symmetry_space_group_name_H-M	'P1'
_symmetry_Int_Tables_number	1
_symmetry_cell_setting	triclinic
loop_
_symmetry_equiv_pos_as_xyz
  x,y,z
_cell_length_a	13.897449
_cell_length_b	19.120786
_cell_length_c	13.897441
_cell_angle_alpha	92.474365
_cell_angle_beta	90.020733
_cell_angle_gamma	92.466448
loop_
_atom_site_label
_atom_site_type_symbol
_atom_site_fract_x
_atom_site_fract_y
_atom_site_fract_z
Zn1	Zn	1.458270	-0.279585	0.528973
Zn2	Zn	1.451260	-0.397056	0.360781
Zn3	Zn	1.296957	-0.279618	0.367690
Zn4	Zn	1.290039	-0.397010	0.522036
O5	O	1.374131	-0.338317	0.444870
O6	O	1.592321	-0.295173	0.506674
O7	O	1.430752	-0.381511	0.226714
O8	O	1.324185	-0.181323	0.394879
O9	O	1.587171	-0.381479	0.383104
O10	O	1.442701	-0.181299	0.513373
O11	O	1.317387	-0.295230	0.231790
O12	O	1.161058	-0.295185	0.388152
O13	O	1.312394	-0.381400	0.657940
O14	O	1.155975	-0.381432	0.501550
O15	O	1.435992	-0.295128	0.663037
O16	O	1.424044	-0.495341	0.376377
O17	O	1.305596	-0.495307	0.494850
C18	C	1.123518	-0.338308	0.444848
C19	C	1.016303	-0.338321	0.444861
C20	C	0.820008	-0.338323	0.444886
C21	C	0.929240	-0.338320	0.444870
C22	C	1.363335	-0.520809	0.434132
C23	C	1.358805	-0.598880	0.429571
C24	C	1.418335	-0.635485	0.489172
C25	C	1.414074	-0.708841	0.484887
C26	C	1.350287	-0.745591	0.420997
C27	C	1.290750	-0.708981	0.361394
C28	C	1.295007	-0.635626	0.365683
C29	C	1.334346	-0.967078	0.404960
C30	C	1.330096	-1.040437	0.400673
C31	C	1.453419	-1.040292	0.524168
C32	C	1.457674	-0.966936	0.528448
C33	C	1.398134	-0.930333	0.468849
C34	C	1.345933	-0.820572	0.416614
C35	C	1.402484	-0.855353	0.473237
C36	C	1.625724	-0.338327	0.444892
C37	C	1.732937	-0.338332	0.444901
C38	C	1.374203	-0.338255	0.696467
C39	C	1.374234	-0.338229	0.803682
C40	C	1.384996	-0.155113	0.455671
C41	C	1.389626	-0.077042	0.460273
C42	C	1.374118	-0.338329	0.194255
C43	C	1.374286	-0.338157	0.087052
C44	C	1.374263	-0.338181	0.999980
C45	C	1.374244	-0.338210	0.890746
H46	H	1.470281	-0.605568	0.541194
H47	H	1.238809	-0.738908	0.309376
C48	C	1.536435	-0.701329	0.607351
C49	C	1.479533	-0.749076	0.550382
H50	H	1.576856	-0.726170	0.647776
H51	H	1.496057	-0.672734	0.645897
H52	H	1.574993	-0.672709	0.567010
H53	H	1.440969	-0.777693	0.590722
H54	H	1.519916	-0.777684	0.511831
H55	H	1.246530	-0.605823	0.317151
C56	C	1.592203	-0.884351	0.546791
C57	C	1.527787	-0.926539	0.598680
H58	H	1.635491	-0.859415	0.590149
H59	H	1.557354	-0.852059	0.511914
H60	H	1.627460	-0.912974	0.503131
H61	H	1.492524	-0.897916	0.642335
H62	H	1.562639	-0.958836	0.633573
C63	C	1.211414	-0.903166	0.398260
C64	C	1.275829	-0.860974	0.346378
H65	H	1.168141	-0.928113	0.354898
H66	H	1.176147	-0.874552	0.441907
H67	H	1.246271	-0.935457	0.433149
H68	H	1.240972	-0.828680	0.311494
H69	H	1.311100	-0.889591	0.302713
C70	C	1.501648	-1.152675	0.572436
C71	C	1.518854	-1.080528	0.589687
H72	H	1.542042	-1.177513	0.612894
H73	H	1.515108	-1.164717	0.506944
H74	H	1.436128	-1.164723	0.585789
H75	H	1.584373	-1.068479	0.576327
H76	H	1.505401	-1.068481	0.655194
C77	C	1.208601	-1.033217	0.279043
C78	C	1.259968	-1.080834	0.330446
H79	H	1.165308	-1.058158	0.235695
H80	H	1.252301	-1.004598	0.243853
H81	H	1.173346	-1.004608	0.322723
H82	H	1.295229	-1.109440	0.286766
H83	H	1.216263	-1.109465	0.365638
H84	H	1.285867	-0.937281	0.356430
H85	H	1.454416	-0.825429	0.525260
