data_functionalizedCrystal
_audit_creation_method	'MofGen! by Chris Wilmer'
_symmetry_space_group_name_H-M	'P1'
_symmetry_Int_Tables_number	1
_symmetry_cell_setting	triclinic
loop_
_symmetry_equiv_pos_as_xyz
  x,y,z
_cell_length_a	27.731993
_cell_length_b	26.210047
_cell_length_c	12.837942
_cell_angle_alpha	89.997217
_cell_angle_beta	91.275334
_cell_angle_gamma	90.004884
loop_
_atom_site_label
_atom_site_type_symbol
_atom_site_fract_x
_atom_site_fract_y
_atom_site_fract_z
O1	O	0.647046	0.042290	-0.122979
O2	O	1.147046	0.542290	0.377021
O3	O	0.507180	0.042321	-0.141778
O4	O	1.007180	0.542321	0.358222
O5	O	0.574012	0.042303	0.018473
O6	O	1.074012	0.542303	0.518473
O7	O	0.580215	0.042308	-0.283231
O8	O	1.080215	0.542308	0.216769
O9	O	0.573989	-0.042555	0.018473
O10	O	1.073989	0.457445	0.518473
O11	O	0.507157	-0.042537	-0.141779
O12	O	1.007157	0.457463	0.358221
O13	O	0.647023	-0.042568	-0.122979
O14	O	1.147023	0.457432	0.377021
Cu15	Cu	0.577088	-0.050300	-0.132379
Cu16	Cu	1.077088	0.449700	0.367621
Cu17	Cu	0.577115	0.050054	-0.132379
Cu18	Cu	1.077115	0.550054	0.367621
O19	O	0.580191	-0.042550	-0.283231
O20	O	1.080191	0.457450	0.216769
C21	C	0.489142	-0.000104	-0.141393
C22	C	0.989142	0.499896	0.358607
C23	C	0.435428	-0.000092	-0.140231
C24	C	0.935428	0.499908	0.359769
N25	N	0.577072	-0.120884	-0.132378
N26	N	1.077072	0.379116	0.367622
C27	C	0.051864	0.046139	-0.131808
C28	C	0.551864	0.546139	0.368192
C29	C	0.253740	0.046153	-0.136237
C30	C	0.753740	0.546153	0.363763
O31	O	0.279851	0.085493	-0.136768
O32	O	0.779851	0.585493	0.363232
N33	N	0.278975	-0.000102	-0.136791
N34	N	0.778975	0.499898	0.363209
C35	C	0.253738	-0.046364	-0.136231
C36	C	0.753738	0.453636	0.363769
O37	O	0.279834	-0.085706	-0.136794
O38	O	0.779834	0.414294	0.363206
C39	C	0.051862	-0.046377	-0.131795
C40	C	0.551862	0.453623	0.368205
C41	C	0.026630	-0.000119	-0.131251
C42	C	0.526630	0.499881	0.368749
C43	C	0.026631	0.092394	-0.131263
C44	C	0.526631	0.592394	0.368737
C45	C	-0.023835	0.092390	-0.130161
C46	C	0.476165	0.592390	0.369839
C47	C	-0.049069	0.046131	-0.129605
C48	C	0.450931	0.546131	0.370395
C49	C	-0.023836	-0.000123	-0.130149
C50	C	0.476164	0.499877	0.369851
C51	C	0.026626	-0.092638	-0.131227
C52	C	0.526626	0.407362	0.368773
C53	C	-0.023846	-0.092638	-0.130115
C54	C	0.476154	0.407362	0.369885
C55	C	-0.049078	-0.046380	-0.129572
C56	C	0.450922	0.453620	0.370428
C57	C	-0.099536	-0.046385	-0.128491
C58	C	0.400464	0.453615	0.371509
N59	N	-0.124771	-0.000130	-0.127937
N60	N	0.375229	0.499870	0.372063
C61	C	-0.099538	0.046128	-0.128494
C62	C	0.400462	0.546128	0.371506
C63	C	0.359726	-0.046353	-0.138563
C64	C	0.859726	0.453647	0.361437
C65	C	0.410195	-0.046350	-0.139674
C66	C	0.910195	0.453650	0.360326
C67	C	0.410193	0.046167	-0.139678
C68	C	0.910193	0.546167	0.360322
C69	C	0.359724	0.046163	-0.138574
C70	C	0.859724	0.546163	0.361426
C71	C	0.334491	-0.000098	-0.138009
C72	C	0.834491	0.499902	0.361991
C73	C	-0.205521	0.046116	-0.126181
C74	C	0.294479	0.546116	0.373819
C75	C	-0.255991	0.046108	-0.125084
C76	C	0.244009	0.546108	0.374916
C77	C	-0.255986	-0.046408	-0.125075
C78	C	0.244014	0.453592	0.374925
C79	C	-0.205519	-0.046401	-0.126177
C80	C	0.294481	0.453599	0.373823
C81	C	-0.180288	-0.000134	-0.126727
C82	C	0.319712	0.499866	0.373273
O83	O	-0.125678	-0.085705	-0.127948
O84	O	0.374322	0.414295	0.372052
O85	O	-0.125642	0.085465	-0.127908
O86	O	0.374358	0.585465	0.372092
C87	C	0.102330	0.046143	-0.132909
C88	C	0.602330	0.546143	0.367091
C89	C	0.127562	-0.000111	-0.133454
C90	C	0.627562	0.499889	0.366546
C91	C	0.102329	-0.046369	-0.132897
C92	C	0.602329	0.453631	0.367103
C93	C	0.178031	-0.000108	-0.134565
C94	C	0.678031	0.499892	0.365435
C95	C	0.203265	0.046150	-0.135122
C96	C	0.703265	0.546150	0.364878
C97	C	0.178030	0.092405	-0.134568
C98	C	0.678030	0.592405	0.365432
C99	C	0.127563	0.092402	-0.133466
C100	C	0.627563	0.592402	0.366534
C101	C	0.127564	-0.092624	-0.133452
C102	C	0.627564	0.407376	0.366548
C103	C	0.178030	-0.092617	-0.134554
C104	C	0.678030	0.407383	0.365446
C105	C	0.203264	-0.046358	-0.135111
C106	C	0.703264	0.453642	0.364889
C107	C	0.609298	-0.473404	-0.194747
C108	C	1.109298	0.026596	0.305253
C109	C	0.609313	-0.687063	-0.194746
C110	C	1.109313	-0.187063	0.305254
O111	O	0.636701	-0.714690	-0.247762
O112	O	1.136701	-0.214690	0.252238
N113	N	0.577126	-0.713778	-0.132368
N114	N	1.077126	-0.213778	0.367632
C115	C	0.544936	-0.687076	-0.069981
C116	C	1.044936	-0.187076	0.430019
O117	O	0.517564	-0.714701	-0.016917
O118	O	1.017564	-0.214701	0.483083
C119	C	0.544925	-0.473418	-0.069977
C120	C	1.044925	0.026582	0.430023
C121	C	0.577110	-0.446705	-0.132367
C122	C	1.077110	0.053295	0.367633
C123	C	0.641481	-0.446691	-0.257130
C124	C	1.141481	0.053309	0.242870
C125	C	0.641475	-0.393280	-0.257134
C126	C	1.141475	0.106720	0.242866
C127	C	0.609287	-0.366581	-0.194754
C128	C	1.109287	0.133419	0.305246
C129	C	0.577104	-0.393294	-0.132371
C130	C	1.077104	0.106706	0.367629
C131	C	0.512738	-0.446717	-0.007585
C132	C	1.012738	0.053283	0.492415
C133	C	0.512739	-0.393299	-0.007588
C134	C	1.012739	0.106701	0.492412
C135	C	0.544924	-0.366586	-0.069978
C136	C	1.044924	0.133414	0.430022
C137	C	0.544910	-0.313184	-0.069995
C138	C	1.044910	0.186816	0.430005
N139	N	0.577096	-0.286468	-0.132372
N140	N	1.077096	0.213532	0.367628
C141	C	0.609285	-0.313167	-0.194752
C142	C	1.109285	0.186833	0.305248
C143	C	0.544944	-0.799249	-0.069989
C144	C	1.044944	-0.299249	0.430011
C145	C	0.544946	-0.852663	-0.069991
C146	C	1.044946	-0.352663	0.430009
C147	C	0.609323	-0.852647	-0.194755
C148	C	1.109323	-0.352647	0.305245
C149	C	0.609318	-0.799231	-0.194757
C150	C	1.109318	-0.299231	0.305243
C151	C	0.577130	-0.772534	-0.132367
C152	C	1.077130	-0.272534	0.367633
C153	C	0.609270	-0.200999	-0.194756
C154	C	1.109270	0.299001	0.305244
C155	C	0.609260	-0.147583	-0.194758
C156	C	1.109260	0.352417	0.305242
C157	C	0.544885	-0.147604	-0.069991
C158	C	1.044885	0.352396	0.430009
C159	C	0.544893	-0.201016	-0.069993
C160	C	1.044893	0.298984	0.430007
C161	C	0.577090	-0.227712	-0.132379
C162	C	1.077090	0.272288	0.367621
O163	O	0.517540	-0.285524	-0.016997
O164	O	1.017540	0.214476	0.483003
O165	O	0.636660	-0.285532	-0.247791
O166	O	1.136660	0.214468	0.252209
C167	C	0.609304	-0.526816	-0.194743
C168	C	1.109304	-0.026816	0.305257
C169	C	0.577121	-0.553528	-0.132359
C170	C	1.077121	-0.053528	0.367641
C171	C	0.544933	-0.526830	-0.069979
C172	C	1.044933	-0.026830	0.430021
C173	C	0.577123	-0.606943	-0.132361
C174	C	1.077123	-0.106943	0.367639
C175	C	0.609312	-0.633641	-0.194741
C176	C	1.109312	-0.133641	0.305259
C177	C	0.641498	-0.606926	-0.257119
C178	C	1.141498	-0.106926	0.242881
C179	C	0.641492	-0.553514	-0.257123
C180	C	1.141492	-0.053514	0.242877
C181	C	0.512747	-0.553545	-0.007602
C182	C	1.012747	-0.053545	0.492398
C183	C	0.512755	-0.606957	-0.007604
C184	C	1.012755	-0.106957	0.492396
C185	C	0.544943	-0.633655	-0.069984
C186	C	1.044943	-0.133655	0.430016
C187	C	0.665061	-0.000141	-0.123365
C188	C	1.165061	0.499859	0.376635
C189	C	0.718775	-0.000150	-0.124527
C190	C	1.218775	0.499850	0.375473
C191	C	0.571905	-0.000125	0.057059
C192	C	1.071905	0.499875	0.557059
C193	C	0.565655	-0.000123	0.172034
C194	C	1.065655	0.499877	0.672034
N195	N	0.577135	0.120638	-0.132371
N196	N	1.077135	0.620638	0.367629
C197	C	0.582298	-0.000120	-0.321817
C198	C	1.082298	0.499880	0.178183
C199	C	0.588548	-0.000119	-0.436791
C200	C	1.088548	0.499881	0.063209
C201	C	0.640785	-0.000129	0.414227
C202	C	1.140785	0.499871	0.914227
C203	C	0.634915	-0.000126	0.522256
C204	C	1.134915	0.499874	1.022256
C205	C	0.548047	-0.000113	0.496124
C206	C	1.048047	0.499887	0.996124
C207	C	0.553917	-0.000115	0.388094
C208	C	1.053917	0.499885	0.888094
C209	C	0.600287	-0.000123	0.347150
C210	C	1.100287	0.499877	0.847150
C211	C	0.606156	-0.000129	0.239119
C212	C	1.106156	0.499871	0.739119
C213	C	0.519288	-0.000112	0.212988
C214	C	1.019288	0.499888	0.712988
C215	C	0.513419	-0.000110	0.321018
C216	C	1.013419	0.499890	0.821018
H217	H	-0.276534	0.083779	-0.124644
H218	H	0.223466	0.583779	0.375356
H219	H	0.486541	-0.628702	0.043199
H220	H	0.986541	-0.128702	0.543199
F221	F	0.678019	-0.000130	0.593641
F222	F	1.178019	0.499870	1.093641
H223	H	0.486312	-0.000112	0.158362
H224	H	0.986312	0.499888	0.658362
F225	F	-0.178675	0.095358	-0.126766
F226	F	0.321325	0.595358	0.373234
F227	F	0.655507	-0.000142	0.195545
F228	F	1.155507	0.499858	0.695545
H229	H	0.635469	-0.125836	-0.245568
H230	H	1.135469	0.374164	0.254432
F231	F	0.510634	-0.229446	-0.003602
F232	F	1.010634	0.270554	0.496398
F233	F	0.100715	0.141636	-0.132887
F234	F	0.600715	0.641636	0.367113
H235	H	0.635526	-0.777485	-0.245561
H236	H	1.135526	-0.277485	0.254439
H237	H	0.047171	0.130065	-0.131713
H238	H	0.547171	0.630065	0.368287
F239	F	0.478482	-0.364888	0.058826
F240	F	0.978482	0.135112	0.558826
F241	F	0.690135	-0.000149	0.370649
F242	F	1.190135	0.499851	0.870649
F243	F	0.204894	0.141637	-0.135165
F244	F	0.704894	0.641637	0.364835
F245	F	0.204879	-0.141855	-0.135141
F246	F	0.704879	0.358145	0.364859
F247	F	0.510685	-0.881087	-0.003603
F248	F	1.010685	-0.381087	0.496397
H249	H	0.510294	-0.000100	0.529480
H250	H	1.010294	0.499900	1.029480
H251	H	0.475665	-0.000100	0.354370
H252	H	0.975665	0.499900	0.854370
F253	F	0.643581	-0.881070	-0.261143
F254	F	1.143581	-0.381070	0.238857
F255	F	0.332874	0.095397	-0.137994
F256	F	0.832874	0.595397	0.362006
F257	F	0.643537	-0.229404	-0.261154
F258	F	1.143537	0.270596	0.238846
F259	F	-0.050683	0.141624	-0.129575
F260	F	0.449317	0.641624	0.370425
H261	H	0.667685	-0.371535	-0.307934
H262	H	1.167685	0.128465	0.192066
H263	H	0.430747	0.083832	-0.140134
H264	H	0.930747	0.583832	0.359866
F265	F	0.510677	-0.770842	-0.003596
F266	F	1.010677	-0.270842	0.496404
H267	H	0.486535	-0.531812	0.043198
H268	H	0.986535	-0.031812	0.543198
H269	H	0.430734	-0.084018	-0.140133
H270	H	0.930734	0.415982	0.359867
H271	H	0.486530	-0.468457	0.043220
H272	H	0.986530	0.031543	0.543220
H273	H	0.667695	-0.468424	-0.307928
H274	H	1.167695	0.031576	0.192072
H275	H	0.339186	-0.084027	-0.138099
H276	H	0.839186	0.415973	0.361901
F277	F	0.053470	-0.141874	-0.131806
F278	F	0.553470	0.358126	0.368194
H279	H	-0.184974	-0.084068	-0.126641
H280	H	0.315026	0.415932	0.373359
F281	F	-0.050697	-0.141877	-0.129507
F282	F	0.449303	0.358123	0.370493
H283	H	0.518677	-0.125857	-0.019206
H284	H	1.018677	0.374143	0.480794
F285	F	0.100715	-0.141862	-0.132866
F286	F	0.600715	0.358138	0.367134
F287	F	0.675746	-0.525091	-0.323532
F288	F	1.175746	-0.025091	0.176468
H289	H	-0.276540	-0.084071	-0.124625
H290	H	0.223460	0.415929	0.375375
H291	H	0.667705	-0.628673	-0.307916
H292	H	1.167705	-0.128673	0.192084
