data_functionalizedCrystal
_audit_creation_method	'MofGen! by Chris Wilmer'
_symmetry_space_group_name_H-M	'P1'
_symmetry_Int_Tables_number	1
_symmetry_cell_setting	triclinic
loop_
_symmetry_equiv_pos_as_xyz
  x,y,z
_cell_length_a	6.817900
_cell_length_b	14.858329
_cell_length_c	16.255661
_cell_angle_alpha	95.053856
_cell_angle_beta	103.488922
_cell_angle_gamma	104.519616
loop_
_atom_site_label
_atom_site_type_symbol
_atom_site_fract_x
_atom_site_fract_y
_atom_site_fract_z
V1	V	-4.031897	-0.129422	-0.264114
V2	V	-3.698564	0.203911	0.069220
V3	V	-3.365231	0.537244	0.402553
O4	O	-4.013972	0.005446	-0.258838
O5	O	-3.680639	0.338780	0.074496
O6	O	-3.347306	0.672113	0.407829
O7	O	-3.988515	-0.255879	-0.262546
O8	O	-3.655182	0.077454	0.070787
O9	O	-3.321849	0.410787	0.404121
O10	O	-3.983393	-0.127771	-0.379194
O11	O	-3.650060	0.205563	-0.045861
O12	O	-3.316726	0.538896	0.287473
O13	O	-4.019130	-0.123549	-0.141383
O14	O	-3.685797	0.209784	0.191951
O15	O	-3.352463	0.543118	0.525284
V16	V	-4.514888	-0.113250	-0.249405
V17	V	-4.181555	0.220083	0.083928
V18	V	-3.848222	0.553416	0.417262
O19	O	-4.294322	-0.164897	-0.296378
O20	O	-3.960989	0.168437	0.036955
O21	O	-3.627655	0.501770	0.370288
O22	O	-4.702661	-0.077776	-0.217140
O23	O	-4.369327	0.255557	0.116193
O24	O	-4.035994	0.588891	0.449526
O25	O	-4.335064	0.013206	-0.250973
O26	O	-4.001730	0.346540	0.082361
O27	O	-3.668397	0.679873	0.415694
O28	O	-4.650210	-0.248119	-0.254681
O29	O	-4.316877	0.085214	0.078652
O30	O	-3.983544	0.418548	0.411986
O31	O	-4.645052	-0.119124	-0.372136
O32	O	-4.311719	0.214210	-0.038803
O33	O	-3.978386	0.547543	0.294530
O34	O	-4.340186	-0.114902	-0.134325
O35	O	-4.006853	0.218431	0.199008
O36	O	-3.673519	0.551765	0.532342
C37	C	-3.834740	-0.286696	-0.258441
C38	C	-3.501407	0.046637	0.074892
C39	C	-3.168074	0.379971	0.408226
C40	C	-3.880557	-0.390078	-0.257927
C41	C	-3.547223	-0.056745	0.075407
C42	C	-3.213890	0.276588	0.408740
C43	C	-3.917759	-0.474035	-0.257501
C44	C	-3.584425	-0.140702	0.075833
C45	C	-3.251092	0.192632	0.409166
C46	C	-3.964450	-0.579363	-0.256971
C47	C	-3.631116	-0.246030	0.076363
C48	C	-3.297783	0.087303	0.409696
C49	C	-4.001679	-0.663314	-0.256549
C50	C	-3.668346	-0.329981	0.076785
C51	C	-3.335013	0.003352	0.410118
C52	C	-4.048373	-0.768649	-0.256017
C53	C	-3.715040	-0.435316	0.077316
C54	C	-3.381706	-0.101982	0.410649
C55	C	-3.828205	-0.123280	-0.407236
C56	C	-3.494872	0.210054	-0.073903
C57	C	-3.161538	0.543387	0.259431
C58	C	-3.869864	-0.122766	-0.501316
C59	C	-3.536531	0.210567	-0.167983
C60	C	-3.203198	0.543900	0.165350
C61	C	-3.780175	-0.116631	-0.724123
C62	C	-3.446842	0.216702	-0.390790
C63	C	-3.113508	0.550036	-0.057457
C64	C	-3.939764	-0.195814	-0.793748
C65	C	-3.606430	0.137519	-0.460415
C66	C	-3.273097	0.470852	-0.127081
C67	C	-3.946210	-0.121803	-0.673563
C68	C	-3.612877	0.211530	-0.340230
C69	C	-3.279544	0.544863	-0.006896
C70	C	-3.860876	-0.041714	-0.771574
C71	C	-3.527543	0.291620	-0.438241
C72	C	-3.194209	0.624953	-0.104907
C73	C	-4.019941	-0.120869	-0.839945
C74	C	-3.686607	0.212465	-0.506611
C75	C	-3.353274	0.545798	-0.173278
C76	C	-4.105283	-0.201057	-0.741958
C77	C	-3.771950	0.132276	-0.408624
C78	C	-3.438617	0.465610	-0.075291
C79	C	-4.026331	-0.046887	-0.719768
C80	C	-3.692998	0.286447	-0.386435
C81	C	-3.359664	0.619780	-0.053102
C82	C	-4.186057	-0.126092	-0.789373
C83	C	-3.852724	0.207241	-0.456040
C84	C	-3.519390	0.540574	-0.122707
C85	C	-3.903731	-0.122342	-0.577715
C86	C	-3.570398	0.210991	-0.244381
C87	C	-3.237064	0.544324	0.088952
C88	C	-4.062438	-0.120337	-0.935792
C89	C	-3.729104	0.212997	-0.602459
C90	C	-3.395771	0.546330	-0.269126
C91	C	-4.152181	0.044018	-0.255075
C92	C	-3.818848	0.377352	0.078258
C93	C	-3.485514	0.710685	0.411591
C94	C	-4.085603	0.147400	-0.255595
C95	C	-3.752269	0.480733	0.077738
C96	C	-3.418936	0.814067	0.411071
C97	C	-4.158716	-0.119396	-0.106278
C98	C	-3.825383	0.213937	0.227055
C99	C	-3.492049	0.547271	0.560388
C100	C	-4.096295	-0.119905	-0.012197
C101	C	-3.762962	0.213428	0.321136
C102	C	-3.429629	0.546762	0.654469
H103	H	-3.608265	-0.112734	-0.695636
H104	H	-3.274932	0.220600	-0.362302
H105	H	-2.941598	0.553933	-0.028969
F106	F	-4.073478	0.035416	-0.677642
F107	F	-3.740145	0.368749	-0.344309
F108	F	-3.406812	0.702082	-0.010976
F109	F	-3.892517	-0.278112	-0.835843
F110	F	-3.559183	0.055221	-0.502509
F111	F	-3.225850	0.388555	-0.169176
H112	H	-4.208201	-0.268471	-0.728617
H113	H	-3.874867	0.064862	-0.395284
H114	H	-3.541534	0.398195	-0.061951
H115	H	-3.757944	0.025610	-0.785058
H116	H	-3.424610	0.358943	-0.451724
H117	H	-3.091277	0.692277	-0.118391
H118	H	-4.358090	-0.130114	-0.817728
H119	H	-4.024757	0.203220	-0.484394
H120	H	-3.691424	0.536553	-0.151061
