data_functionalizedCrystal
_audit_creation_method	'MofGen! by Chris Wilmer'
_symmetry_space_group_name_H-M	'P1'
_symmetry_Int_Tables_number	1
_symmetry_cell_setting	triclinic
loop_
_symmetry_equiv_pos_as_xyz
  x,y,z
_cell_length_a	21.395362
_cell_length_b	21.395361
_cell_length_c	21.395355
_cell_angle_alpha	90.021511
_cell_angle_beta	90.043940
_cell_angle_gamma	90.046585
loop_
_atom_site_label
_atom_site_type_symbol
_atom_site_fract_x
_atom_site_fract_y
_atom_site_fract_z
Zn1	Zn	0.957859	-0.249246	0.354573
Zn2	Zn	1.457859	0.250754	0.854573
Zn3	Zn	0.957762	-0.354005	0.249790
Zn4	Zn	1.457762	0.145995	0.749790
Zn5	Zn	0.853074	-0.249275	0.249774
Zn6	Zn	1.353074	0.250725	0.749774
Zn7	Zn	0.853044	-0.354018	0.354494
Zn8	Zn	1.353044	0.145982	0.854494
O9	O	0.905435	-0.301636	0.302158
O10	O	1.405435	0.198364	0.802158
O11	O	1.045524	-0.263125	0.340712
O12	O	1.545524	0.236875	0.840712
O13	O	0.943847	-0.340119	0.162110
O14	O	1.443847	0.159881	0.662110
O15	O	0.867028	-0.161593	0.263702
O16	O	1.367028	0.338407	0.763702
O17	O	1.045453	-0.340091	0.263729
O18	O	1.545453	0.159909	0.763729
O19	O	0.944013	-0.161572	0.340697
O20	O	1.444013	0.338428	0.840697
O21	O	0.866934	-0.263174	0.162098
O22	O	1.366934	0.236826	0.662098
O23	O	0.765392	-0.263187	0.263626
O24	O	1.265392	0.236813	0.763626
O25	O	0.866976	-0.340113	0.442183
O26	O	1.366976	0.159887	0.942183
O27	O	0.765370	-0.340141	0.340564
O28	O	1.265370	0.159859	0.840564
O29	O	0.943983	-0.263137	0.442240
O30	O	1.443983	0.236863	0.942240
O31	O	0.943817	-0.441685	0.263653
O32	O	1.443817	0.058315	0.763653
O33	O	0.866881	-0.441695	0.340579
O34	O	1.366881	0.058305	0.840579
C35	C	0.742647	-0.301669	0.302085
C36	C	1.242647	0.198331	0.802085
C37	C	0.673006	-0.301698	0.302069
C38	C	1.173006	0.198302	0.802069
C39	C	0.640297	-0.341822	0.342070
C40	C	1.140297	0.158178	0.842070
C41	C	0.574862	-0.341806	0.342098
C42	C	1.074862	0.158194	0.842098
C43	C	0.542138	-0.301674	0.302113
C44	C	1.042138	0.198326	0.802113
C45	C	0.574854	-0.261543	0.262109
C46	C	1.074854	0.238457	0.762109
C47	C	0.640288	-0.261555	0.262087
C48	C	1.140288	0.238445	0.762087
C49	C	0.438413	-0.296627	0.245708
C50	C	0.938413	0.203373	0.745708
C51	C	0.372980	-0.296619	0.245730
C52	C	0.872980	0.203381	0.745730
C53	C	0.340317	-0.301633	0.302182
C54	C	0.840317	0.198367	0.802182
C55	C	0.373095	-0.306668	0.358616
C56	C	0.873095	0.193332	0.858616
C57	C	0.438529	-0.306681	0.358594
C58	C	0.938529	0.193319	0.858594
C59	C	0.471185	-0.301656	0.302133
C60	C	0.971185	0.198344	0.802133
C61	C	0.236656	-0.341742	0.342218
C62	C	0.736656	0.158258	0.842218
C63	C	0.171219	-0.341723	0.342247
C64	C	0.671219	0.158277	0.842247
C65	C	0.171213	-0.261462	0.262252
C66	C	0.671213	0.238538	0.762252
C67	C	0.236648	-0.261479	0.262229
C68	C	0.736648	0.238521	0.762229
C69	C	0.269366	-0.301622	0.302211
C70	C	0.769366	0.198378	0.802211
C71	C	0.905352	-0.464424	0.302123
C72	C	1.405352	0.035576	0.802123
C73	C	0.905374	-0.534065	0.302129
C74	C	1.405374	-0.034065	0.802129
C75	C	0.945470	-0.566752	0.262114
C76	C	1.445470	-0.066752	0.762114
C77	C	0.945499	-0.632188	0.262128
C78	C	1.445499	-0.132188	0.762128
C79	C	0.905421	-0.664933	0.302150
C80	C	1.405421	-0.164933	0.802150
C81	C	0.865322	-0.632238	0.342172
C82	C	1.365322	-0.132238	0.842172
C83	C	0.865299	-0.566804	0.342162
C84	C	1.365299	-0.066804	0.842162
C85	C	0.849006	-0.768664	0.307041
C86	C	1.349006	-0.268664	0.807041
C87	C	0.849029	-0.834097	0.307047
C88	C	1.349029	-0.334097	0.807047
C89	C	0.905494	-0.866754	0.302187
C90	C	1.405494	-0.366754	0.802187
C91	C	0.961939	-0.833970	0.297307
C92	C	1.461939	-0.333970	0.797307
C93	C	0.961915	-0.768536	0.297296
C94	C	1.461915	-0.268536	0.797296
C95	C	0.905443	-0.735886	0.302167
C96	C	1.405443	-0.235886	0.802167
C97	C	0.945625	-0.970394	0.262186
C98	C	1.445625	-0.470394	0.762186
C99	C	0.945655	-1.035830	0.262204
C100	C	1.445655	-0.535830	0.762204
C101	C	0.865473	-1.035879	0.342245
C102	C	1.365473	-0.535879	0.842245
C103	C	0.865448	-0.970444	0.342230
C104	C	1.365448	-0.470444	0.842230
C105	C	0.905524	-0.937705	0.302197
C106	C	1.405524	-0.437705	0.802197
C107	C	1.068858	-0.301603	0.302231
C108	C	1.568858	0.198397	0.802231
C109	C	1.138499	-0.301589	0.302262
C110	C	1.638499	0.198411	0.802262
C111	C	0.905487	-0.301623	0.465581
C112	C	1.405487	0.198377	0.965581
C113	C	0.905509	-0.301618	0.535222
C114	C	1.405509	0.198382	1.035222
C115	C	0.905535	-0.138213	0.302206
C116	C	1.405535	0.361787	0.802206
C117	C	0.905578	-0.068571	0.302227
C118	C	1.405578	0.431429	0.802227
C119	C	0.905419	-0.301603	0.139370
C120	C	1.405419	0.198397	0.639370
C121	C	0.905518	-0.301432	0.069729
C122	C	1.405518	0.198568	0.569729
C123	C	0.945605	-0.261535	0.567966
C124	C	1.445605	0.238465	1.067966
C125	C	0.945604	-0.261508	0.633402
C126	C	1.445604	0.238492	1.133402
C127	C	0.905514	-0.301575	0.666091
C128	C	1.405514	0.198425	1.166091
C129	C	0.865410	-0.341661	0.633339
C130	C	1.365410	0.158339	1.133339
C131	C	0.865407	-0.341682	0.567904
C132	C	1.365407	0.158318	1.067904
C133	C	0.900538	-0.357992	0.769752
C134	C	1.400538	0.142008	1.269752
C135	C	0.900545	-0.357972	0.835185
C136	C	1.400545	0.142028	1.335185
C137	C	0.905518	-0.301509	0.867911
C138	C	1.405518	0.198491	1.367911
C139	C	0.910497	-0.245065	0.835197
C140	C	1.410497	0.254935	1.335197
C141	C	0.910495	-0.245086	0.769763
C142	C	1.410495	0.254914	1.269763
C143	C	0.905512	-0.301556	0.737043
C144	C	1.405512	0.198444	1.237043
C145	C	0.945615	-0.261393	0.971608
C146	C	1.445615	0.238607	1.471608
C147	C	0.945610	-0.261365	1.037045
C148	C	1.445610	0.238635	1.537045
C149	C	0.865419	-0.341524	1.036980
C150	C	1.365419	0.158476	1.536980
C151	C	0.865421	-0.341547	0.971545
C152	C	1.365421	0.158453	1.471545
C153	C	0.905522	-0.301482	0.938863
C154	C	1.405522	0.198518	1.438863
H155	H	0.465002	-0.292541	0.199734
H156	H	0.965002	0.207459	0.699734
H157	H	0.803068	-0.860785	0.311015
H158	H	1.303068	-0.360785	0.811015
H159	H	0.832766	-0.374282	0.659958
H160	H	1.332766	0.125718	1.159958
H161	H	0.346502	-0.310751	0.404585
H162	H	0.846502	0.189249	0.904585
H163	H	0.346297	-0.292523	0.199778
H164	H	0.846297	0.207477	0.699778
H165	H	0.978258	-0.228910	0.541360
H166	H	1.478258	0.271090	1.041360
H167	H	0.263296	-0.374426	0.374776
H168	H	0.763296	0.125574	0.874776
H169	H	0.896494	-0.403932	0.861815
H170	H	1.396494	0.096068	1.361815
H171	H	1.007918	-0.860558	0.293349
H172	H	1.507918	-0.360558	0.793349
H173	H	0.832753	-0.374322	0.541245
H174	H	1.332753	0.125678	1.041245
H175	H	0.978310	-1.062443	0.229621
H176	H	1.478310	-0.562443	0.729621
H177	H	0.978254	-0.228864	0.660067
H178	H	1.478254	0.271136	1.160067
H179	H	0.548206	-0.228866	0.229554
H180	H	1.048206	0.271134	0.729554
H181	H	0.978259	-0.943737	0.229590
H182	H	1.478259	-0.443737	0.729590
H183	H	0.666932	-0.374509	0.374627
H184	H	1.166932	0.125491	0.874627
H185	H	0.144569	-0.228783	0.229699
H186	H	0.644569	0.271217	0.729699
H187	H	0.832770	-0.374141	1.063595
H188	H	1.332770	0.125859	1.563595
H189	H	0.914547	-0.199128	0.743130
H190	H	1.414547	0.300872	1.243130
H191	H	0.832843	-1.062540	0.374834
H192	H	1.332843	-0.562540	0.874834
H193	H	0.978260	-0.228721	1.063704
H194	H	1.478260	0.271279	1.563704
H195	H	0.832691	-0.658904	0.374760
H196	H	1.332691	-0.158904	0.874760
H197	H	0.896321	-0.403959	0.743111
H198	H	1.396321	0.096041	1.243111
H199	H	0.978103	-0.540098	0.229519
H200	H	1.478103	-0.040098	0.729519
H201	H	1.007873	-0.741844	0.293325
H202	H	1.507873	-0.241844	0.793325
H203	H	0.978153	-0.658807	0.229544
H204	H	1.478153	-0.158807	0.729544
H205	H	0.548226	-0.374479	0.374674
H206	H	1.048226	0.125521	0.874674
H207	H	0.263280	-0.228809	0.229652
H208	H	0.763280	0.271191	0.729652
H209	H	0.465214	-0.310778	0.404543
H210	H	0.965214	0.189222	0.904543
H211	H	0.914548	-0.199088	0.861842
H212	H	1.414548	0.300912	1.361842
H213	H	0.832774	-0.374190	0.944885
H214	H	1.332774	0.125810	1.444885
H215	H	0.832795	-0.943828	0.374811
H216	H	1.332795	-0.443828	0.874811
H217	H	0.832647	-0.540189	0.374747
H218	H	1.332647	-0.040189	0.874747
H219	H	0.144589	-0.374395	0.374824
H220	H	0.644589	0.125605	0.874824
H221	H	0.666919	-0.228880	0.229513
H222	H	1.166919	0.271120	0.729513
H223	H	0.978265	-0.228767	0.944997
H224	H	1.478265	0.271233	1.444997
H225	H	0.803022	-0.742081	0.311001
H226	H	1.303022	-0.242081	0.811001
