data_functionalizedCrystal
_audit_creation_method	'MofGen! by Chris Wilmer'
_symmetry_space_group_name_H-M	'P1'
_symmetry_Int_Tables_number	1
_symmetry_cell_setting	triclinic
loop_
_symmetry_equiv_pos_as_xyz
  x,y,z
_cell_length_a	15.944564
_cell_length_b	14.421503
_cell_length_c	16.992695
_cell_angle_alpha	89.995710
_cell_angle_beta	92.913921
_cell_angle_gamma	89.996857
loop_
_atom_site_label
_atom_site_type_symbol
_atom_site_fract_x
_atom_site_fract_y
_atom_site_fract_z
O1	O	-1.121307	0.077015	0.101164
O2	O	-0.877595	0.077039	0.113622
O3	O	-0.998474	0.077020	-0.006750
O4	O	-1.000428	0.077034	0.221536
O5	O	-0.998454	-0.077204	-0.006732
O6	O	-0.877574	-0.077185	0.113640
O7	O	-1.121287	-0.077208	0.101182
Cu8	Cu	-0.999429	-0.091278	0.107413
Cu9	Cu	-0.999453	0.091109	0.107391
O10	O	-1.000408	-0.077189	0.221554
C11	C	-0.846256	-0.000070	0.113112
C12	C	-0.752906	-0.000062	0.111556
C13	C	-0.532797	-0.000085	0.033223
C14	C	-0.474226	0.075958	0.069582
C15	C	-0.581992	-0.000073	0.108742
C16	C	-0.474230	-0.076094	0.069618
C17	C	-0.416898	-0.000088	0.106017
C18	C	-0.524651	0.076033	0.145122
C19	C	-0.524661	-0.076088	0.145147
C20	C	-0.466111	-0.000027	0.181562
C21	C	-0.677099	-0.000063	0.110309
C22	C	-0.321793	-0.000090	0.104456
N23	N	-0.999418	-0.219559	0.107427
C24	C	-0.943511	-0.469204	0.163062
C25	C	-1.020432	-0.531013	0.178288
C26	C	-0.999437	-0.408721	0.107408
C27	C	-0.922537	-0.531006	0.092200
C28	C	-0.999449	-0.591442	0.107392
C29	C	-1.076399	-0.469169	0.122670
C30	C	-0.978452	-0.469156	0.036552
C31	C	-1.055426	-0.530937	0.051747
C32	C	-0.999430	-0.303460	0.107420
C33	C	-0.999466	-0.696701	0.107380
C34	C	-0.152627	-0.000097	0.101681
C35	C	-0.245979	-0.000100	0.103205
C36	C	-0.995950	-0.000092	-0.035954
C37	C	-0.988450	-0.000091	-0.122998
N38	N	-0.999470	0.219390	0.107371
C39	C	-1.060815	-0.000098	-0.173232
C40	C	-1.053763	-0.000089	-0.255019
C41	C	-0.974345	-0.000078	-0.286571
C42	C	-0.901975	-0.000068	-0.236331
C43	C	-0.909028	-0.000071	-0.154546
C44	C	-0.945114	-0.000063	-0.530172
C45	C	-0.938067	-0.000063	-0.611964
C46	C	-1.089855	-0.000082	-0.630646
C47	C	-1.096901	-0.000091	-0.548858
C48	C	-1.024531	-0.000075	-0.498625
N49	N	-0.967135	-0.000072	-0.370171
N50	N	-1.031742	-0.000075	-0.415028
C51	C	-1.002932	-0.000076	0.250757
C52	C	-1.010432	-0.000071	0.337802
H53	H	-0.896271	-0.442099	0.210164
H54	H	-1.141456	-0.442121	0.135597
Cl55	Cl	-0.950996	-0.427170	-0.055923
H56	H	-0.561927	0.000006	-0.029449
Cl57	Cl	-0.822125	-0.572945	0.072350
H58	H	-0.850101	-0.000064	-0.113646
Cl59	Cl	-0.439885	0.175211	0.020259
H60	H	-0.451992	-0.140380	0.037670
Cl61	Cl	-1.128534	-0.572531	-0.020930
Cl62	Cl	-1.160659	-0.000121	-0.133575
Cl63	Cl	-0.854133	-0.000041	-0.467033
Cl64	Cl	-0.421408	0.000042	0.278419
Cl65	Cl	-0.558823	0.175399	0.194388
Cl66	Cl	-1.047855	-0.572964	0.270790
Cl67	Cl	-1.144741	-0.000102	-0.318167
Cl68	Cl	-1.196744	-0.000074	-0.509199
H69	H	-1.148775	-0.000093	-0.671554
Cl70	Cl	-0.838220	-0.000055	-0.651628
Cl71	Cl	-0.559038	-0.175344	0.194433
H72	H	-0.837312	-0.000053	-0.262027
