data_functionalizedCrystal
_audit_creation_method	'MofGen! by Chris Wilmer'
_symmetry_space_group_name_H-M	'P1'
_symmetry_Int_Tables_number	1
_symmetry_cell_setting	triclinic
loop_
_symmetry_equiv_pos_as_xyz
  x,y,z
_cell_length_a	31.640172
_cell_length_b	16.704494
_cell_length_c	16.704494
_cell_angle_alpha	89.699037
_cell_angle_beta	56.638814
_cell_angle_gamma	56.630222
loop_
_atom_site_label
_atom_site_type_symbol
_atom_site_fract_x
_atom_site_fract_y
_atom_site_fract_z
Zr1	Zr	0.422224	-0.066988	0.811679
O2	O	0.525876	-0.209856	0.668836
O3	O	0.329311	-0.023193	0.855451
O4	O	0.427593	-0.200250	0.845869
O5	O	0.419613	0.106868	0.685996
O6	O	0.419613	-0.192670	0.985534
O7	O	0.427593	-0.032799	0.678418
O8	O	0.243803	0.124051	1.002676
O9	O	0.595422	-0.209853	0.668855
O10	O	0.357593	0.001144	0.978371
O11	O	0.357593	0.099719	0.879795
O12	O	0.473309	-0.108742	0.868513
O13	O	0.473309	-0.010166	0.769937
Zr14	Zr	0.396767	0.167855	1.046516
Zr15	Zr	0.409495	-0.054899	1.034430
Zr16	Zr	0.409495	0.155766	0.823765
Zr17	Zr	0.533142	-0.066984	0.811710
Zr18	Zr	0.285848	0.167851	1.046485
O19	O	0.489680	0.124061	1.002744
O20	O	0.507778	-0.192667	0.985559
O21	O	0.507778	0.106872	0.686021
O22	O	0.293114	0.310723	1.189359
O23	O	0.311212	-0.006005	1.172174
O24	O	0.311212	0.293534	0.872636
O25	O	0.399378	-0.006001	1.172198
O26	O	0.391397	0.301117	1.012326
O27	O	0.399378	0.293537	0.872660
O28	O	0.391397	0.133666	1.179777
O29	O	0.585305	-0.200244	0.845912
O30	O	0.233685	0.301111	1.012282
O31	O	0.223568	0.310720	1.189340
O32	O	0.233685	0.133661	1.179733
O33	O	0.585305	-0.032793	0.678462
O34	O	0.575187	-0.023184	0.855519
O35	O	0.345682	0.209609	0.989682
O36	O	0.345682	0.111033	1.088257
O37	O	0.461397	0.001148	0.978400
O38	O	0.461397	0.099723	0.879824
C39	C	0.270753	0.050428	0.929059
C40	C	0.223665	0.050427	0.929046
C41	C	0.425416	0.035312	0.650470
C42	C	0.430820	0.030180	0.555906
C43	C	0.393574	0.329065	0.944215
C44	C	0.388170	0.423630	0.949346
C45	C	-0.068381	-0.001011	0.980574
C46	C	-0.245378	-0.001009	0.980596
O47	O	-0.268287	-0.044731	1.024397
N48	N	-0.267507	0.050444	0.929139
C49	C	-0.245388	0.101906	0.877679
O50	O	-0.268276	0.145680	0.833921
C51	C	-0.068395	0.101910	0.877664
C52	C	-0.046263	0.050445	0.929116
C53	C	-0.046250	-0.052472	1.032022
C54	C	-0.002001	-0.052477	1.032011
C55	C	0.020117	-0.001021	0.980553
C56	C	-0.002014	0.050440	0.929105
C57	C	-0.046280	0.153379	0.826211
C58	C	-0.002030	0.153377	0.826215
C59	C	0.020101	0.101912	0.877666
C60	C	0.064354	0.101891	0.877635
N61	N	0.086483	0.050438	0.929092
C62	C	0.064364	-0.001018	0.980551
C63	C	-0.338310	0.101899	0.877688
C64	C	-0.382557	0.101896	0.877690
C65	C	-0.382546	-0.001018	0.980609
C66	C	-0.338294	-0.001021	0.980600
C67	C	-0.316181	0.050445	0.929145
C68	C	0.157292	-0.001025	0.980524
C69	C	0.201547	-0.001029	0.980505
C70	C	0.201529	0.101889	0.877591
C71	C	0.157281	0.101889	0.877605
C72	C	0.135161	0.050430	0.929079
O73	O	0.087284	0.145600	0.833867
O74	O	0.087249	-0.044765	1.024322
C75	C	-0.112631	-0.001006	0.980585
C76	C	-0.134762	0.050454	0.929137
C77	C	-0.112644	0.101910	0.877678
C78	C	-0.179009	0.050452	0.929139
C79	C	-0.201127	-0.001004	0.980598
C80	C	-0.178998	-0.052457	1.032054
C81	C	-0.134749	-0.052462	1.032044
C82	C	-0.134773	0.153363	0.826222
C83	C	-0.179022	0.153363	0.826235
C84	C	-0.201140	0.101907	0.877694
C85	C	0.548237	0.050439	0.929136
C86	C	0.595325	0.050441	0.929149
C87	C	0.425416	-0.228198	0.913979
C88	C	0.430820	-0.322762	0.908849
C89	C	0.498835	0.486597	0.844270
C90	C	0.493761	0.575446	0.849088
C91	C	0.372949	0.690178	0.963793
C92	C	0.378023	0.601329	0.958975
C93	C	0.440968	0.499539	0.899213
C94	C	0.446041	0.410690	0.894402
C95	C	0.325230	0.525421	1.009100
C96	C	0.320156	0.614271	1.013918
C97	C	0.320156	0.135282	0.492912
C98	C	0.325230	0.130463	0.404064
C99	C	0.446041	0.015729	0.289362
C100	C	0.440967	0.020548	0.378210
C101	C	0.378022	0.080326	0.479984
C102	C	0.372949	0.085138	0.568833
C103	C	0.493760	-0.029589	0.454130
C104	C	0.498834	-0.034408	0.365282
C105	C	0.393574	0.065555	1.207725
C106	C	0.388170	0.070687	1.302288
C107	C	0.254832	0.065550	1.207686
C108	C	0.202341	0.070680	1.302237
C109	C	0.254832	0.329060	0.944177
C110	C	0.202341	0.423623	0.949295
C111	C	0.238910	0.344181	1.222804
C112	C	0.181016	0.443876	1.322486
C113	C	0.580080	-0.243314	0.635391
C114	C	0.637975	-0.343009	0.535709
C115	C	0.564158	0.035317	0.650508
C116	C	0.616650	0.030187	0.555958
C117	C	0.564158	-0.228192	0.914018
C118	C	0.616650	-0.322755	0.908900
C119	C	0.183909	0.015719	1.289279
C120	C	0.134595	0.020518	1.378109
C121	C	0.103711	0.080285	1.479897
C122	C	0.122148	0.135248	1.492854
C123	C	0.171464	0.130442	1.404024
C124	C	0.171472	0.525401	1.009058
C125	C	0.122156	0.614261	1.013863
C126	C	0.103708	0.601341	0.958911
C127	C	0.134582	0.499552	0.899140
C128	C	0.183900	0.410694	0.894329
C129	C	0.153827	0.439239	1.420762
C130	C	0.099435	0.532905	1.514431
C131	C	0.072229	0.631207	1.509822
C132	C	0.099423	0.635842	1.411535
C133	C	0.153817	0.542177	1.317868
C134	C	0.665168	-0.338372	0.437433
C135	C	0.719574	-0.432038	0.343764
C136	C	0.746782	-0.530340	0.348373
C137	C	0.719586	-0.534975	0.446660
C138	C	0.665184	-0.441310	0.540327
C139	C	0.635087	0.085139	0.568916
C140	C	0.684414	0.080315	0.480084
C141	C	0.715299	0.020545	0.378295
C142	C	0.696861	-0.034413	0.365339
C143	C	0.647538	-0.029595	0.454170
C144	C	0.635082	-0.309802	0.963865
C145	C	0.684395	-0.398644	0.959077
C146	C	0.715279	-0.500440	0.899317
C147	C	0.696843	-0.513392	0.844351
C148	C	0.647527	-0.424550	0.849145
H149	H	0.219567	-0.042942	1.022401
C150	C	0.730831	-0.100144	0.253368
C151	C	0.785074	-0.105419	0.155668
C152	C	0.819040	-0.171139	0.043695
C153	C	0.798763	-0.231583	0.029422
C154	C	0.744516	-0.226310	0.127125
C155	C	0.710550	-0.160590	0.239098
H156	H	0.800088	-0.060672	0.166231
H157	H	0.859197	-0.175042	-0.028631
H158	H	0.823906	-0.280233	-0.053467
H159	H	0.729503	-0.271056	0.116562
H160	H	0.670393	-0.156687	0.311424
C161	C	0.191763	0.539631	1.069503
C162	C	0.246011	0.441906	1.064223
C163	C	0.266302	0.456145	1.124665
C164	C	0.232346	0.568110	1.190386
C165	C	0.178094	0.665843	1.195668
C166	C	0.157803	0.651603	1.135227
H167	H	0.271151	0.359016	1.015570
H168	H	0.306463	0.383797	1.120754
H169	H	0.247366	0.578651	1.235128
H170	H	0.152954	0.748733	1.244322
H171	H	0.117642	0.723952	1.139138
C172	C	0.069526	0.527791	1.622537
C173	C	0.099449	0.419657	1.627596
C174	C	0.069542	0.414540	1.735698
C175	C	0.009714	0.517556	1.838739
C176	C	-0.020212	0.625697	1.833683
C177	C	0.009694	0.630815	1.725582
H178	H	0.143740	0.343391	1.551315
H179	H	0.091695	0.334485	1.739440
H180	H	-0.012425	0.513768	1.918762
H181	H	-0.064504	0.701963	1.909964
H182	H	-0.012459	0.710869	1.721840
H183	H	0.119591	-0.024240	1.367539
C184	C	0.704673	-0.384380	1.019536
C185	C	0.652067	-0.320833	1.140804
C186	C	0.672343	-0.306566	1.201262
C187	C	0.745226	-0.355846	1.140450
C188	C	0.797837	-0.419398	1.019175
C189	C	0.777560	-0.433665	0.958718
H190	H	0.598111	-0.284349	1.185827
H191	H	0.633397	-0.259521	1.291038
H192	H	0.760236	-0.345285	1.185204
H193	H	0.851793	-0.455882	0.974153
H194	H	0.816507	-0.480710	0.868941
C195	C	0.749517	-0.643113	0.451719
C196	C	0.809353	-0.746132	0.348680
C197	C	0.839283	-0.854272	0.353737
C198	C	0.809377	-0.859393	0.461831
C199	C	0.749538	-0.756370	0.564878
C200	C	0.719608	-0.648230	0.559822
H201	H	0.831494	-0.742344	0.268655
H202	H	0.883580	-0.930536	0.277454
H203	H	0.831533	-0.939445	0.465574
H204	H	0.727396	-0.760158	0.644903
H205	H	0.675310	-0.571966	0.636104
H206	H	0.497294	0.327811	0.845743
H207	H	0.755435	-0.572772	0.895422
H208	H	0.321703	0.773065	1.012442
C209	C	0.601113	-0.197833	1.029612
C210	C	0.546864	-0.100094	1.034904
C211	C	0.512895	0.011871	1.100659
C212	C	0.533175	0.026098	1.161123
C213	C	0.587426	-0.071644	1.155834
C214	C	0.621395	-0.183609	1.090078
H215	H	0.531850	-0.110623	0.990142
H216	H	0.472735	0.084226	1.104574
H217	H	0.508029	0.108982	1.209800
H218	H	0.602441	-0.061115	1.200595
H219	H	0.661555	-0.255964	1.086163
H220	H	0.139286	-0.042926	1.022440
H221	H	0.497287	-0.032924	0.206487
C222	C	0.217848	0.298739	0.828594
C223	C	0.197546	0.284541	0.768158
C224	C	0.231492	0.172588	0.702418
C225	C	0.285740	0.074833	0.697114
C226	C	0.306044	0.089027	0.757553
C227	C	0.272098	0.200981	0.823293
H228	H	0.157386	0.356908	0.772082
H229	H	0.216462	0.162080	0.657677
H230	H	0.310869	-0.008042	0.648450
H231	H	0.346204	0.016660	0.753629
H232	H	0.287129	0.211488	0.868033
C233	C	0.217878	-0.050037	1.177318
C234	C	0.197599	-0.110497	1.163086
C235	C	0.231569	-0.176262	1.051128
C236	C	0.285818	-0.181567	0.953403
C237	C	0.306099	-0.121104	0.967631
C238	C	0.272130	-0.055339	1.079589
H239	H	0.157439	-0.106572	1.235431
H240	H	0.216555	-0.221021	1.040596
H241	H	0.310964	-0.230250	0.870525
H242	H	0.346260	-0.125029	0.895286
H243	H	0.287144	-0.010581	1.090122
H244	H	0.063556	0.084190	1.552220
C245	C	0.069481	0.743982	1.406482
C246	C	0.068569	0.822546	1.456747
C247	C	0.038619	0.930691	1.451700
C248	C	0.009582	0.960271	1.396387
C249	C	0.010493	0.881706	1.346118
C250	C	0.040443	0.773561	1.351165
H251	H	0.090065	0.800651	1.497696
H252	H	0.037944	0.988850	1.488913
H253	H	-0.012589	1.040326	1.392651
H254	H	-0.011003	0.903601	1.305169
H255	H	0.041118	0.715402	1.313952
C256	C	-0.110450	0.209971	0.769612
C257	C	-0.124904	0.301409	0.832709
C258	C	-0.100582	0.358019	0.776092
C259	C	-0.061806	0.323192	0.656378
C260	C	-0.047350	0.231750	0.593274
C261	C	-0.071672	0.175140	0.649891
H262	H	-0.153610	0.327194	0.921335
H263	H	-0.111283	0.425710	0.822807
H264	H	-0.043801	0.365098	0.614467
H265	H	-0.018644	0.205965	0.504648
H266	H	-0.060970	0.107448	0.603176
H267	H	0.721996	-0.596285	0.795695
H268	H	0.063549	0.673705	0.962836
H269	H	0.016014	-0.094381	1.073911
C270	C	0.601123	0.150884	0.680876
C271	C	0.621419	0.211313	0.695106
C272	C	0.587462	0.277056	0.807062
C273	C	0.533209	0.282369	0.904789
C274	C	0.512909	0.221938	0.890561
C275	C	0.546866	0.156196	0.778605
H276	H	0.661583	0.207382	0.622760
H277	H	0.602489	0.321791	0.817594
H278	H	0.508072	0.331036	0.987665
H279	H	0.472745	0.225870	0.962907
H280	H	0.531839	0.111461	0.768074
C281	C	0.088197	0.726220	1.079624
C282	C	0.011893	0.807062	1.171995
C283	C	-0.022066	0.919017	1.237756
C284	C	0.020279	0.950130	1.211147
C285	C	0.096588	0.869286	1.118771
C286	C	0.130546	0.757332	1.053010
H287	H	-0.019458	0.784032	1.191697
H288	H	-0.078554	0.978862	1.306139
H289	H	-0.004859	1.033006	1.259827
H290	H	0.127938	0.892317	1.099069
H291	H	0.187035	0.697486	0.984627
H292	H	0.643044	-0.445098	0.620344
C293	C	0.088165	0.200997	1.604827
C294	C	0.130483	0.174382	1.636006
C295	C	0.096494	0.240138	1.747983
C296	C	0.020187	0.332509	1.828782
C297	C	-0.022135	0.359128	1.797605
C298	C	0.011854	0.293372	1.685628
H299	H	0.186974	0.106000	1.576193
H300	H	0.127824	0.220433	1.771062
H301	H	-0.004973	0.381185	1.911674
H302	H	-0.078626	0.427510	1.857418
H303	H	-0.019476	0.313078	1.662549
H304	H	-0.064257	-0.094372	1.073931
H305	H	0.632526	-0.435112	0.804381
H306	H	-0.320278	-0.042928	1.022497
H307	H	0.632529	-0.074341	0.443605
H308	H	0.278111	0.535954	1.053838
H309	H	-0.400561	-0.042917	1.022507
H310	H	-0.400565	0.143791	0.835779
H311	H	-0.320310	0.143813	0.835786
H312	H	-0.064293	0.195289	0.784316
H313	H	0.015973	0.195287	0.784311
H314	H	0.139268	0.143782	0.835695
H315	H	0.219548	0.143780	0.835691
H316	H	-0.116732	-0.094370	1.073940
H317	H	-0.197011	-0.094360	1.073950
H318	H	0.550086	0.403718	0.795617
C319	C	-0.203364	0.209981	0.769634
C320	C	-0.278657	0.301419	0.832760
C321	C	-0.303003	0.358045	0.776171
C322	C	-0.252055	0.323234	0.656455
C323	C	-0.176757	0.231792	0.593322
C324	C	-0.152411	0.175165	0.649912
H325	H	-0.316376	0.327192	0.921387
H326	H	-0.358744	0.425737	0.822907
H327	H	-0.270077	0.365152	0.614564
H328	H	-0.139038	0.206018	0.504695
H329	H	-0.096670	0.107474	0.603176
H330	H	0.268909	0.697157	1.062571
H331	H	0.540882	0.564900	0.804345
H332	H	0.119553	0.489048	0.854399
H333	H	0.321696	0.133818	0.651700
H334	H	0.268903	0.183961	0.575780
H335	H	0.540879	-0.074342	0.443608
H336	H	0.278108	0.175215	0.414600
H337	H	0.550081	-0.083073	0.282408
H338	H	0.643019	-0.258338	0.433660
H339	H	0.186464	0.175205	1.414590
H340	H	0.027938	0.707467	1.586100
H341	H	0.175948	0.545967	1.237851
H342	H	0.741709	-0.428244	0.263744
H343	H	0.175970	0.359205	1.424535
H344	H	0.699417	0.125074	0.490653
H345	H	0.791080	-0.606600	0.272095
H346	H	0.755460	0.016631	0.305973
