data_functionalizedCrystal
_audit_creation_method	'MofGen! by Chris Wilmer'
_symmetry_space_group_name_H-M	'P1'
_symmetry_Int_Tables_number	1
_symmetry_cell_setting	triclinic
loop_
_symmetry_equiv_pos_as_xyz
  x,y,z
_cell_length_a	12.376457
_cell_length_b	9.065218
_cell_length_c	9.065218
_cell_angle_alpha	94.984115
_cell_angle_beta	78.552305
_cell_angle_gamma	78.537389
loop_
_atom_site_label
_atom_site_type_symbol
_atom_site_fract_x
_atom_site_fract_y
_atom_site_fract_z
O1	O	0.094003	-1.988321	0.188453
O2	O	0.094005	-1.559036	0.206199
O3	O	0.094002	-1.782551	-0.017316
O4	O	0.094006	-1.764806	0.411968
O5	O	-0.094010	-1.726692	0.038486
O6	O	-0.094007	-1.503177	0.262001
O7	O	-0.094008	-1.932461	0.244255
Zn8	Zn	-0.123858	-1.708950	0.261988
Zn9	Zn	0.123855	-1.782548	0.188466
O10	O	-0.094005	-1.708946	0.467770
C11	C	-0.000001	-1.476120	0.232394
C12	C	-0.000000	-1.312277	0.227295
N13	N	-0.292916	-1.658733	0.312163
C14	C	-0.000002	-1.752916	-0.044402
C15	C	0.000003	-1.747818	-0.208246
C16	C	-0.647905	-1.949347	0.021777
C17	C	-0.529565	-1.984486	-0.013342
C18	C	-0.470397	-1.903050	0.068031
C19	C	-0.529580	-1.786470	0.184529
C20	C	-0.647931	-1.751336	0.219659
C21	C	-0.470423	-1.705039	0.265913
C22	C	-0.529606	-1.588459	0.382411
C23	C	-0.647945	-1.553329	0.417534
C24	C	-0.707114	-1.634765	0.336161
C25	C	-0.352072	-1.740174	0.230784
C26	C	-0.352099	-1.542162	0.428666
C27	C	-0.470438	-1.507023	0.463784
N28	N	0.292913	-1.832777	0.138279
C29	C	0.000000	-2.015378	0.218059
C30	C	0.000007	-2.179223	0.223156
C31	C	0.000001	-1.738582	0.494855
C32	C	0.000003	-1.743682	0.658697
H33	H	-0.374040	-1.931666	0.039432
O34	O	-0.472312	-2.097492	-0.126847
C35	C	-0.501521	-2.062646	-0.264424
H36	H	-0.533952	-1.934792	-0.256886
H37	H	-0.570371	-2.123220	-0.286055
C38	C	-0.356778	-2.272498	-0.404930
C39	C	-0.396602	-2.115463	-0.395675
H40	H	-0.292062	-2.305083	-0.485894
H41	H	-0.337102	-2.295979	-0.312242
H42	H	-0.414164	-2.322957	-0.422949
H43	H	-0.339222	-2.065007	-0.377637
H44	H	-0.416266	-2.091975	-0.488364
H45	H	-0.696087	-2.015649	-0.044459
O46	O	-0.822072	-1.600388	0.370426
C47	C	-0.861625	-1.480065	0.490731
H48	H	-0.793435	-1.412760	0.495012
H49	H	-0.882623	-1.527892	0.602555
C50	C	-1.052332	-1.457606	0.460047
C51	C	-0.968583	-1.374934	0.465297
H52	H	-1.118312	-1.392759	0.444364
H53	H	-1.025686	-1.538674	0.378999
H54	H	-1.069817	-1.497457	0.553237
H55	H	-0.951090	-1.335101	0.372102
H56	H	-0.995229	-1.293856	0.546329
H57	H	-0.696132	-1.458415	0.512405
H58	H	-0.303896	-1.835094	0.135931
O59	O	-0.294688	-1.463177	0.507942
C60	C	-0.323618	-1.480492	0.662933
H61	H	-0.356134	-1.588981	0.674955
H62	H	-0.392322	-1.378891	0.725526
C63	C	-0.178552	-1.356857	0.716680
C64	C	-0.218479	-1.490111	0.731445
H65	H	-0.113700	-1.362783	0.758945
H66	H	-0.159063	-1.345185	0.612261
H67	H	-0.235815	-1.272202	0.768840
H68	H	-0.161222	-1.574760	0.679270
H69	H	-0.237955	-1.501797	0.835858
H70	H	-0.518639	-1.412101	0.558640
