data_functionalizedCrystal
_audit_creation_method	'MofGen! by Chris Wilmer'
_symmetry_space_group_name_H-M	'P1'
_symmetry_Int_Tables_number	1
_symmetry_cell_setting	triclinic
loop_
_symmetry_equiv_pos_as_xyz
  x,y,z
_cell_length_a	8.559649
_cell_length_b	27.732064
_cell_length_c	7.088929
_cell_angle_alpha	83.831830
_cell_angle_beta	95.324505
_cell_angle_gamma	76.214044
loop_
_atom_site_label
_atom_site_type_symbol
_atom_site_fract_x
_atom_site_fract_y
_atom_site_fract_z
O1	O	2.103991	-0.010830	-0.158983
O2	O	1.638175	0.014155	-0.158981
O3	O	1.885536	-0.069237	-0.158989
O4	O	1.856630	0.072562	-0.158974
O5	O	1.918594	-0.080404	0.158985
O6	O	1.671233	0.002988	0.158993
O7	O	2.137049	-0.021997	0.158991
Cu8	Cu	1.907159	-0.010524	0.188026
Cu9	Cu	1.868065	0.002682	-0.188015
O10	O	1.889688	0.061395	0.159000
C11	C	1.595128	0.010465	0.000006
C12	C	1.417610	0.016101	0.000005
C13	C	1.901453	-0.092806	-0.000008
C14	C	1.899612	-0.146396	-0.000026
C15	C	1.740911	-0.517935	-0.000033
C16	C	1.747681	-0.316511	-0.000036
O17	O	1.624526	-0.280962	-0.000112
N18	N	1.894361	-0.302497	-0.000036
C19	C	2.039359	-0.338843	-0.000049
O20	O	2.164273	-0.322301	-0.000069
C21	C	2.032586	-0.540266	-0.000060
C22	C	1.885898	-0.554277	-0.000040
C23	C	1.594234	-0.531947	-0.000015
C24	C	1.592545	-0.582301	-0.000004
C25	C	1.737531	-0.618642	-0.000011
C26	C	1.884208	-0.604630	-0.000029
C27	C	2.177580	-0.576610	-0.000086
C28	C	2.175873	-0.626968	-0.000094
C29	C	2.029185	-0.640979	-0.000074
C30	C	2.027505	-0.691326	-0.000025
N31	N	1.880824	-0.705339	-0.000024
C32	C	1.735837	-0.668998	-0.000017
C33	C	2.042905	-0.233093	-0.000039
C34	C	2.044599	-0.182737	-0.000033
C35	C	1.752919	-0.160408	-0.000023
C36	C	1.751229	-0.210765	-0.000016
C37	C	1.896224	-0.247106	-0.000039
C38	C	1.732300	-0.774745	0.000007
C39	C	1.730624	-0.825104	0.000026
C40	C	2.022301	-0.847428	0.000007
C41	C	2.023979	-0.797074	-0.000002
C42	C	1.878965	-0.760732	-0.000008
O43	O	2.150591	-0.726900	0.000030
O44	O	1.610937	-0.685548	-0.000040
C45	C	1.742601	-0.467582	-0.000044
C46	C	1.889277	-0.453570	-0.000062
C47	C	2.034264	-0.489911	-0.000069
C48	C	1.890971	-0.403215	-0.000056
C49	C	1.745984	-0.366873	-0.000049
C50	C	1.599304	-0.380887	-0.000049
C51	C	1.597614	-0.431240	-0.000037
C52	C	2.180945	-0.475898	-0.000070
C53	C	2.182623	-0.425543	-0.000078
C54	C	2.037636	-0.389202	-0.000072
C55	C	2.180096	-0.018307	0.000000
C56	C	2.357613	-0.023943	-0.000012
C57	C	1.873770	0.084964	0.000014
C58	C	1.875610	0.138554	0.000020
N59	N	1.934668	-0.019813	0.452513
N60	N	1.840569	0.011967	-0.452503
H61	H	1.611169	-0.836508	0.000052
H62	H	2.143427	-0.785667	0.000009
H63	H	1.442063	-0.062541	-0.000017
H64	H	2.160984	-0.262679	-0.000055
H65	H	1.333166	0.054698	-0.000010
H66	H	1.614215	-0.745160	0.000002
O67	O	1.724413	0.051277	0.449901
C68	C	1.797517	0.081957	0.334138
H69	H	1.919983	0.059057	0.304318
H70	H	1.815625	0.114611	0.411168
C71	C	1.537065	0.130423	0.180533
C72	C	1.687474	0.102294	0.143895
H73	H	1.469184	0.142970	0.063186
H74	H	1.487812	0.109754	0.258530
H75	H	1.552178	0.157630	0.244730
H76	H	1.672362	0.075084	0.079721
H77	H	1.736723	0.122959	0.065883
O78	O	2.050938	-0.059162	0.549701
C79	C	2.020827	-0.104368	0.500967
H80	H	1.944154	-0.096936	0.355595
H81	H	1.953142	-0.120273	0.613600
C82	C	2.277112	-0.151428	0.670505
C83	C	2.182952	-0.142301	0.491949
H84	H	2.377117	-0.174828	0.664951
H85	H	2.297397	-0.120973	0.703345
H86	H	2.220689	-0.164680	0.764347
H87	H	2.239366	-0.129044	0.398117
H88	H	2.162680	-0.172755	0.459093
O89	O	1.608660	-0.224337	-0.000353
C90	C	1.503220	-0.199441	-0.165004
H91	H	1.577053	-0.188091	-0.280105
H92	H	1.417153	-0.164556	-0.127759
C93	C	1.313887	-0.248643	-0.098320
C94	C	1.404571	-0.234706	-0.239695
H95	H	1.253030	-0.270395	-0.144390
H96	H	1.384920	-0.265415	0.012613
H97	H	1.242178	-0.219569	-0.067295
H98	H	1.476292	-0.263780	-0.270699
H99	H	1.333548	-0.217940	-0.350635
H100	H	1.473094	-0.593702	-0.000005
H101	H	1.476161	-0.502361	-0.000016
H102	H	2.164050	-0.171336	-0.000019
H103	H	1.634867	-0.130810	-0.000009
H104	H	2.297029	-0.565212	-0.000104
H105	H	2.293948	-0.656555	-0.000123
H106	H	2.140346	-0.877026	0.000010
H107	H	1.481252	-0.351288	-0.000031
H108	H	1.478166	-0.442642	-0.000020
H109	H	2.302084	-0.414142	-0.000080
H110	H	2.299013	-0.505484	-0.000077
