data_functionalizedCrystal
_audit_creation_method	'MofGen! by Chris Wilmer'
_symmetry_space_group_name_H-M	'P1'
_symmetry_Int_Tables_number	1
_symmetry_cell_setting	triclinic
loop_
_symmetry_equiv_pos_as_xyz
  x,y,z
_cell_length_a	16.625548
_cell_length_b	16.625546
_cell_length_c	10.685880
_cell_angle_alpha	94.335175
_cell_angle_beta	85.603426
_cell_angle_gamma	90.023536
loop_
_atom_site_label
_atom_site_type_symbol
_atom_site_fract_x
_atom_site_fract_y
_atom_site_fract_z
Zn1	Zn	1.267656	-0.355868	-0.713450
Zn2	Zn	1.517656	-0.105868	-0.463450
Zn3	Zn	1.767656	0.144132	-0.213450
Zn4	Zn	2.017656	0.394132	0.036550
Zn5	Zn	1.257214	-0.480392	-0.502437
Zn6	Zn	1.507214	-0.230392	-0.252437
Zn7	Zn	1.757214	0.019608	-0.002437
Zn8	Zn	2.007214	0.269608	0.247563
Zn9	Zn	1.122474	-0.345581	-0.502466
Zn10	Zn	1.372474	-0.095581	-0.252466
Zn11	Zn	1.622474	0.154419	-0.002466
Zn12	Zn	1.872474	0.404419	0.247534
Zn13	Zn	1.132784	-0.490661	-0.713375
Zn14	Zn	1.382784	-0.240661	-0.463375
Zn15	Zn	1.632784	0.009339	-0.213375
Zn16	Zn	1.882784	0.259339	0.036625
O17	O	1.195032	-0.418125	-0.607932
O18	O	1.445032	-0.168125	-0.357932
O19	O	1.695032	0.081875	-0.107932
O20	O	1.945032	0.331875	0.142068
O21	O	1.379104	-0.372394	-0.685478
O22	O	1.629104	-0.122394	-0.435478
O23	O	1.879104	0.127606	-0.185478
O24	O	2.129104	0.377606	0.064522
O25	O	1.230657	-0.453906	-0.325866
O26	O	1.480657	-0.203906	-0.075866
O27	O	1.730657	0.046094	0.174134
O28	O	1.980657	0.296094	0.424134
O29	O	1.141788	-0.234115	-0.530497
O30	O	1.391788	0.015885	-0.280497
O31	O	1.641788	0.265885	-0.030497
O32	O	1.891788	0.515885	0.219503
O33	O	1.371433	-0.463881	-0.530448
O34	O	1.621433	-0.213881	-0.280448
O35	O	1.871433	0.036119	-0.030448
O36	O	2.121433	0.286119	0.219552
O37	O	1.248452	-0.241673	-0.685505
O38	O	1.498452	0.008327	-0.435505
O39	O	1.748452	0.258327	-0.185505
O40	O	1.998452	0.508327	0.064495
O41	O	1.131664	-0.354860	-0.325887
O42	O	1.381664	-0.104860	-0.075887
O43	O	1.631664	0.145140	0.174113
O44	O	1.881664	0.395140	0.424113
O45	O	1.011009	-0.364818	-0.530424
O46	O	1.261009	-0.114818	-0.280424
O47	O	1.511009	0.135182	-0.030424
O48	O	1.761009	0.385182	0.219576
O49	O	1.159359	-0.481383	-0.889960
O50	O	1.409359	-0.231383	-0.639960
O51	O	1.659359	0.018617	-0.389960
O52	O	1.909359	0.268617	-0.139960
O53	O	1.018583	-0.471408	-0.685378
O54	O	1.268583	-0.221408	-0.435378
O55	O	1.518583	0.028592	-0.185378
O56	O	1.768583	0.278592	0.064622
O57	O	1.258449	-0.382351	-0.890015
O58	O	1.508449	-0.132351	-0.640015
O59	O	1.758449	0.117649	-0.390015
O60	O	2.008449	0.367649	-0.140015
O61	O	1.240653	-0.594584	-0.530375
O62	O	1.490653	-0.344584	-0.280375
O63	O	1.740653	-0.094584	-0.030375
O64	O	1.990653	0.155416	0.219625
O65	O	1.149235	-0.602129	-0.685350
O66	O	1.399235	-0.352129	-0.435350
O67	O	1.649235	-0.102129	-0.185350
O68	O	1.899235	0.147871	0.064650
C69	C	0.985540	-0.418112	-0.607897
C70	C	1.235540	-0.168112	-0.357897
C71	C	1.485540	0.081888	-0.107897
C72	C	1.735540	0.331888	0.142103
C73	C	0.895919	-0.418127	-0.607911
C74	C	1.145919	-0.168127	-0.357911
C75	C	1.395919	0.081873	-0.107911
C76	C	1.645919	0.331873	0.142089
C77	C	1.194953	-0.627614	-0.607879
C78	C	1.444953	-0.377614	-0.357879
C79	C	1.694953	-0.127614	-0.107879
C80	C	1.944953	0.122386	0.142121
C81	C	1.194995	-0.717236	-0.607899
C82	C	1.444995	-0.467236	-0.357899
C83	C	1.694995	-0.217236	-0.107899
C84	C	1.944995	0.032764	0.142101
C85	C	1.195142	-1.045418	-0.608030
C86	C	1.445142	-0.795418	-0.358030
C87	C	1.695142	-0.545418	-0.108030
C88	C	1.945142	-0.295418	0.141970
C89	C	1.195099	-0.954107	-0.607997
C90	C	1.445099	-0.704107	-0.357997
C91	C	1.695099	-0.454107	-0.107997
C92	C	1.945099	-0.204107	0.142003
C93	C	1.195068	-0.881329	-0.607964
C94	C	1.445068	-0.631329	-0.357964
C95	C	1.695068	-0.381329	-0.107964
C96	C	1.945068	-0.131329	0.142036
C97	C	1.195026	-0.790014	-0.607932
C98	C	1.445026	-0.540014	-0.357932
C99	C	1.695026	-0.290014	-0.107932
C100	C	1.945026	-0.040014	0.142068
C101	C	0.567746	-0.418135	-0.607965
C102	C	0.817746	-0.168135	-0.357965
C103	C	1.067746	0.081865	-0.107965
C104	C	1.317746	0.331865	0.142035
C105	C	0.659054	-0.418130	-0.607946
C106	C	0.909054	-0.168130	-0.357946
C107	C	1.159054	0.081870	-0.107946
C108	C	1.409054	0.331870	0.142054
C109	C	0.731830	-0.418132	-0.607937
C110	C	0.981830	-0.168132	-0.357937
C111	C	1.231830	0.081868	-0.107937
C112	C	1.481830	0.331868	0.142063
C113	C	0.823143	-0.418126	-0.607920
C114	C	1.073143	-0.168126	-0.357920
C115	C	1.323143	0.081874	-0.107920
C116	C	1.573143	0.331874	0.142080
C117	C	1.405343	-0.418139	-0.607968
C118	C	1.655343	-0.168139	-0.357968
C119	C	1.905343	0.081861	-0.107968
C120	C	2.155343	0.331861	0.142032
C121	C	1.494965	-0.418145	-0.607983
C122	C	1.744965	-0.168145	-0.357983
C123	C	1.994965	0.081855	-0.107983
C124	C	2.244965	0.331855	0.142017
C125	C	1.211219	-0.434160	-0.937052
C126	C	1.461219	-0.184160	-0.687052
C127	C	1.711219	0.065840	-0.437052
C128	C	1.961219	0.315840	-0.187052
C129	C	1.218117	-0.440994	-1.077303
C130	C	1.468117	-0.190994	-0.827303
C131	C	1.718117	0.059006	-0.577303
C132	C	1.968117	0.309006	-0.327303
C133	C	1.195135	-0.207820	-0.608013
C134	C	1.445135	0.042180	-0.358013
C135	C	1.695135	0.292180	-0.108013
C136	C	1.945135	0.542180	0.141987
C137	C	1.195178	-0.118201	-0.608047
C138	C	1.445178	0.131799	-0.358047
C139	C	1.695178	0.381799	-0.108047
C140	C	1.945178	0.631799	0.141953
C141	C	1.178955	-0.402094	-0.280093
C142	C	1.428955	-0.152094	-0.030093
C143	C	1.678955	0.097906	0.219907
C144	C	1.928955	0.347906	0.469907
C145	C	1.172213	-0.395034	-0.139842
C146	C	1.422213	-0.145034	0.110158
C147	C	1.672213	0.104966	0.360158
C148	C	1.922213	0.354966	0.610158
H149	H	1.127630	-0.350460	-1.086089
H150	H	1.377630	-0.100460	-0.836089
H151	H	1.627630	0.149540	-0.586089
H152	H	1.877630	0.399540	-0.336089
Cl153	Cl	1.286947	-0.509827	-1.160295
Cl154	Cl	1.536947	-0.259827	-0.910295
Cl155	Cl	1.786947	-0.009827	-0.660295
Cl156	Cl	2.036947	0.240173	-0.410295
