data_functionalizedCrystal
_audit_creation_method	'MofGen! by Chris Wilmer'
_symmetry_space_group_name_H-M	'P1'
_symmetry_Int_Tables_number	1
_symmetry_cell_setting	triclinic
loop_
_symmetry_equiv_pos_as_xyz
  x,y,z
_cell_length_a	14.519709
_cell_length_b	15.625110
_cell_length_c	13.596369
_cell_angle_alpha	108.078255
_cell_angle_beta	89.993066
_cell_angle_gamma	83.974355
loop_
_atom_site_label
_atom_site_type_symbol
_atom_site_fract_x
_atom_site_fract_y
_atom_site_fract_z
O1	O	0.120415	1.196396	0.344985
O2	O	0.134756	0.933946	0.251361
O3	O	-0.006656	1.072130	0.300664
O4	O	0.261827	1.058213	0.295682
O5	O	-0.006663	1.072116	0.464242
O6	O	0.134749	0.933932	0.414939
O7	O	0.120407	1.196383	0.508563
Zn8	Zn	0.127577	1.065155	0.487723
Zn9	Zn	0.127587	1.065173	0.272202
O10	O	0.261819	1.058199	0.459260
C11	C	0.134102	0.900351	0.321169
C12	C	0.132154	0.800268	0.285466
C13	C	-0.041019	1.071474	0.382222
C14	C	-0.143399	1.069531	0.381529
C15	C	0.129414	0.659211	0.145986
C16	C	0.131244	0.753254	0.179544
C17	C	0.131240	0.753247	0.357873
C18	C	0.129414	0.659202	0.324329
C19	C	0.128500	0.612191	0.218385
C20	C	0.128500	0.612182	0.396728
C21	C	0.126670	0.518145	0.363188
C22	C	0.125753	0.471128	0.257248
C23	C	0.126670	0.518154	0.184844
C24	C	0.129408	0.659195	0.502673
C25	C	0.128494	0.612175	0.575072
C26	C	0.126670	0.518135	0.541531
C27	C	0.125754	0.471118	0.435591
C28	C	0.125754	0.471109	0.613935
C29	C	0.123924	0.377072	0.580394
C30	C	0.123923	0.377081	0.402050
C31	C	-0.518292	1.062376	0.378951
C32	C	-0.413985	1.064362	0.379668
C33	C	-0.330849	1.065953	0.380241
C34	C	-0.226535	1.067940	0.380956
C35	C	0.296183	1.058854	0.377700
C36	C	0.398563	1.060798	0.378386
C37	C	0.121061	1.229978	0.438754
C38	C	0.123010	1.330061	0.474449
N39	N	0.127570	1.065149	0.634813
N40	N	0.127587	1.065186	0.125114
C41	C	0.127588	1.065172	1.036112
C42	C	0.127586	1.065163	0.924457
C43	C	0.127579	1.065161	0.835466
C44	C	0.127576	1.065151	0.723804
H45	H	0.124264	0.394556	0.229940
O46	O	0.123103	0.326099	0.658242
H47	H	0.060707	0.351851	0.710411
O48	O	0.126736	0.521822	0.728199
H49	H	0.189191	0.495837	0.761685
O50	O	0.129489	0.662878	0.689338
H51	H	0.130923	0.736167	0.700500
H52	H	0.125936	0.479874	0.098573
O53	O	0.122935	0.326370	0.287779
H54	H	0.186091	0.336489	0.248619
H55	H	0.128680	0.620931	0.059714
O56	O	0.132238	0.803973	0.101452
H57	H	0.131302	0.755480	0.022150
H58	H	0.131980	0.791537	0.444134
H59	H	0.130899	0.735766	0.529978
