data_functionalizedCrystal
_audit_creation_method	'MofGen! by Chris Wilmer'
_symmetry_space_group_name_H-M	'P1'
_symmetry_Int_Tables_number	1
_symmetry_cell_setting	triclinic
loop_
_symmetry_equiv_pos_as_xyz
  x,y,z
_cell_length_a	9.130313
_cell_length_b	10.654550
_cell_length_c	10.654550
_cell_angle_alpha	95.515069
_cell_angle_beta	89.995631
_cell_angle_gamma	90.000276
loop_
_atom_site_label
_atom_site_type_symbol
_atom_site_fract_x
_atom_site_fract_y
_atom_site_fract_z
O1	O	-0.121690	-1.667839	0.176399
O2	O	-0.121716	-1.302361	0.193205
O3	O	-0.121693	-1.493503	0.002063
O4	O	-0.121713	-1.476697	0.367541
O5	O	0.121906	-1.493490	0.002057
O6	O	0.121882	-1.302348	0.193199
O7	O	0.121909	-1.667826	0.176393
Cu8	Cu	0.144138	-1.485086	0.184796
Cu9	Cu	-0.143946	-1.485101	0.184802
O10	O	0.121886	-1.476684	0.367535
C11	C	0.000080	-1.255556	0.191968
C12	C	0.000070	-1.116113	0.188276
C13	C	0.000105	-1.492263	-0.044738
C14	C	0.000103	-1.488571	-0.184181
N15	N	0.346761	-1.485084	0.184790
N16	N	-0.346568	-1.485113	0.184798
C17	C	0.423423	-1.569751	0.100188
C18	C	0.576760	-1.569763	0.100189
C19	C	0.576759	-1.400437	0.269404
C20	C	0.423425	-1.400420	0.269396
C21	C	0.000110	-1.714631	0.177630
C22	C	0.000110	-1.854074	0.181322
C23	C	0.000068	-1.036628	0.300818
C24	C	0.000093	-0.905607	0.297341
C25	C	0.000117	-0.933570	0.068772
C26	C	0.000101	-1.064588	0.072250
C27	C	0.000111	-1.601112	-0.263667
C28	C	0.000092	-1.597636	-0.394688
C29	C	0.000065	-1.369066	-0.366725
C30	C	0.000073	-1.372544	-0.235706
C31	C	0.000084	-1.477925	0.414336
C32	C	0.000077	-1.481616	0.553779
H33	H	0.361007	-1.638687	0.031295
H34	H	0.361002	-1.331468	0.338290
H35	H	0.000095	-0.840894	0.388984
F36	F	0.000144	-0.878722	-0.054705
F37	F	0.000141	-1.724598	-0.208835
H38	H	0.639174	-1.638704	0.031297
H39	H	0.000053	-1.078574	0.395294
H40	H	0.000043	-1.274601	-0.408693
H41	H	0.000107	-1.129309	-0.019401
H42	H	0.000062	-1.280893	-0.170985
F43	F	0.658360	-1.310339	0.359447
F44	F	0.000098	-1.717418	-0.479278
