data_functionalizedCrystal
_audit_creation_method	'MofGen! by Chris Wilmer'
_symmetry_space_group_name_H-M	'P1'
_symmetry_Int_Tables_number	1
_symmetry_cell_setting	triclinic
loop_
_symmetry_equiv_pos_as_xyz
  x,y,z
_cell_length_a	12.827893
_cell_length_b	16.959453
_cell_length_c	12.827885
_cell_angle_alpha	89.966028
_cell_angle_beta	89.980538
_cell_angle_gamma	90.019958
loop_
_atom_site_label
_atom_site_type_symbol
_atom_site_fract_x
_atom_site_fract_y
_atom_site_fract_z
Zn1	Zn	1.597638	-0.314644	-0.590818
Zn2	Zn	1.597518	-0.446843	-0.416066
Zn3	Zn	1.422879	-0.314682	-0.416092
Zn4	Zn	1.422851	-0.446784	-0.590766
O5	O	1.510221	-0.380738	-0.503435
O6	O	1.743858	-0.332189	-0.567648
O7	O	1.574313	-0.429352	-0.269833
O8	O	1.446123	-0.204066	-0.439303
O9	O	1.743770	-0.429315	-0.439258
O10	O	1.574518	-0.204038	-0.567673
O11	O	1.446007	-0.332254	-0.269852
O12	O	1.276639	-0.332197	-0.439252
O13	O	1.446075	-0.429215	-0.737009
O14	O	1.276619	-0.429252	-0.567584
O15	O	1.574491	-0.332132	-0.737047
O16	O	1.574286	-0.557446	-0.439207
O17	O	1.445959	-0.557403	-0.567559
C18	C	1.238712	-0.380723	-0.503416
C19	C	1.122558	-0.380736	-0.503432
C20	C	1.070791	-0.428836	-0.566837
C21	C	0.950741	-0.428850	-0.566855
C22	C	1.510134	-0.586105	-0.503397
C23	C	1.510193	-0.673961	-0.503416
C24	C	1.577162	-1.045364	-0.570404
C25	C	1.443573	-1.045510	-0.436622
C26	C	1.443534	-0.962964	-0.436598
C27	C	1.510309	-0.921614	-0.503479
C28	C	1.577123	-0.962810	-0.570384
C29	C	1.376713	-0.921762	-0.369701
C30	C	1.376671	-0.839211	-0.369675
C31	C	1.443453	-0.797860	-0.436552
C32	C	1.510270	-0.839061	-0.503459
C33	C	1.577046	-0.797711	-0.570341
C34	C	1.643869	-0.838910	-0.637243
C35	C	1.643905	-0.921459	-0.637261
C36	C	1.443417	-0.715311	-0.436534
C37	C	1.577007	-0.715157	-0.570321
C38	C	1.782792	-0.380754	-0.503456
C39	C	1.898945	-0.380761	-0.503465
C40	C	1.510293	-0.380662	-0.776006
C41	C	1.510324	-0.380630	-0.892159
C42	C	1.510337	-0.174570	-0.503497
C43	C	1.510387	-0.086714	-0.503523
C44	C	1.446854	-0.332574	-0.943953
C45	C	1.446885	-0.332539	-1.064004
C46	C	1.510210	-0.380757	-0.231926
C47	C	1.510382	-0.380567	-0.115773
H48	H	0.943457	-0.339581	-0.449175
H49	H	1.078002	-0.339562	-0.449166
C50	C	1.583796	-0.436154	-1.055609
N51	N	1.639091	-0.478023	-1.010286
C52	C	1.650471	-0.669679	-0.643894
N53	N	1.705804	-0.635425	-0.699309
H54	H	1.115348	-0.470004	-0.621110
H55	H	0.906222	-0.470034	-0.621135
C56	C	1.373421	-0.277017	-0.883795
N57	N	1.318113	-0.235167	-0.838485
C58	C	1.717320	-0.793415	-0.710811
N59	N	1.772642	-0.759144	-0.766219
H60	H	1.392550	-0.291393	-1.108545
C61	C	1.303389	-0.967252	-0.296014
N62	N	1.248206	-1.001518	-0.240463
C63	C	1.717398	-0.966784	-0.710854
N64	N	1.772750	-1.000926	-0.766286
H65	H	1.631571	-1.078912	-0.624872
C66	C	1.369918	-0.669996	-0.362944
N67	N	1.314557	-0.635865	-0.307509
H68	H	1.564684	-0.421748	-0.936693
H69	H	1.389203	-1.079182	-0.382174
H70	H	1.322261	-0.805672	-0.315199
