data_functionalizedCrystal
_audit_creation_method	'MofGen! by Chris Wilmer'
_symmetry_space_group_name_H-M	'P1'
_symmetry_Int_Tables_number	1
_symmetry_cell_setting	triclinic
loop_
_symmetry_equiv_pos_as_xyz
  x,y,z
_cell_length_a	16.109302
_cell_length_b	12.811415
_cell_length_c	14.586319
_cell_angle_alpha	84.565349
_cell_angle_beta	89.994552
_cell_angle_gamma	83.753707
loop_
_atom_site_label
_atom_site_type_symbol
_atom_site_fract_x
_atom_site_fract_y
_atom_site_fract_z
O1	O	1.103626	0.134916	-0.087497
O2	O	0.861626	0.151705	-0.088885
O3	O	0.988714	-0.009484	-0.075484
O4	O	0.976538	0.296105	-0.100898
O5	O	0.988705	-0.009487	0.076997
O6	O	0.861617	0.151702	0.063596
O7	O	1.103617	0.134913	0.064984
Cu8	Cu	0.982617	0.143308	0.078213
Cu9	Cu	0.982627	0.143310	-0.102114
O10	O	0.976529	0.296102	0.051583
C11	C	0.830644	0.151023	-0.012587
C12	C	0.738342	0.148984	-0.012415
C13	C	0.525978	0.144267	0.071086
C14	C	0.439251	0.142340	0.071243
C15	C	0.439271	0.142348	-0.095001
C16	C	0.525998	0.144268	-0.095156
C17	C	0.569349	0.145233	-0.012111
C18	C	0.395895	0.141385	-0.011798
C19	C	0.301862	0.139296	-0.011629
C20	C	0.663388	0.147321	-0.012280
C21	C	0.988027	-0.048589	0.004007
C22	C	0.985984	-0.165107	0.013692
C23	C	0.982139	-0.384041	-0.134363
C24	C	0.980219	-0.493520	-0.125268
C25	C	0.980218	-0.493543	0.040977
C26	C	0.982138	-0.384065	0.031881
C27	C	0.983100	-0.329318	-0.055791
C28	C	0.985026	-0.219838	-0.064886
C29	C	0.985019	-0.219863	0.101358
C30	C	0.983099	-0.329341	0.110453
C31	C	1.134599	0.135595	-0.011316
C32	C	1.226902	0.137634	-0.011494
C33	C	0.977216	0.335208	-0.027910
C34	C	0.979260	0.451725	-0.037601
N35	N	0.982615	0.143305	0.205045
N36	N	0.982635	0.143305	-0.228945
C37	C	1.038909	0.071954	0.445983
C38	C	1.038911	0.071952	0.541965
C39	C	0.926335	0.214659	0.530109
C40	C	0.926330	0.214655	0.434130
C41	C	0.982621	0.143305	0.392069
C42	C	0.982629	0.143305	0.584030
C43	C	0.982631	0.143303	0.688097
C44	C	0.982618	0.143305	0.287996
H45	H	0.985811	-0.175265	-0.136274
H46	H	0.880490	0.272758	0.390230
O47	O	1.093556	0.002501	0.594247
C48	C	1.141616	-0.179989	0.638827
C49	C	1.079696	-0.101447	0.579554
H50	H	1.130420	-0.264048	0.626983
H51	H	1.208267	-0.166372	0.618794
H52	H	1.131964	-0.167684	0.714642
H53	H	1.089272	-0.113706	0.503723
H54	H	1.013067	-0.115084	0.599665
H55	H	0.561272	0.145053	0.138707
O56	O	0.568189	0.145023	-0.175940
C57	C	0.675263	0.056352	-0.265013
C58	C	0.627533	0.055358	-0.173498
H59	H	0.723265	-0.016122	-0.263061
H60	H	0.629427	0.055274	-0.324373
H61	H	0.708471	0.130693	-0.275331
H62	H	0.594322	-0.018971	-0.163091
H63	H	0.673408	0.056492	-0.114186
O64	O	0.983038	-0.331011	-0.219592
C65	C	0.982901	-0.342548	-0.383524
C66	C	0.981860	-0.402729	-0.287058
H67	H	0.981967	-0.400509	-0.438096
H68	H	0.925672	-0.281694	-0.392799
H69	H	1.041902	-0.300886	-0.391088
H70	H	0.922897	-0.444454	-0.279427
H71	H	1.039128	-0.463524	-0.277827
O72	O	0.397245	0.141455	0.152138
C73	C	0.406389	0.141592	0.317016
C74	C	0.454061	0.142623	0.225463
H75	H	0.452306	0.142513	0.376326
H76	H	0.358449	0.214119	0.315203
H77	H	0.373121	0.067297	0.327300
H78	H	0.487379	0.216869	0.215122
H79	H	0.501954	0.070047	0.227319
O80	O	0.397025	0.141463	-0.175589
C81	C	0.263434	0.138453	-0.249024
C82	C	0.311169	0.139473	-0.157692
H83	H	0.194013	0.136821	-0.234583
H84	H	0.273072	0.212259	-0.296160
H85	H	0.287893	0.065440	-0.283943
H86	H	0.286740	0.212436	-0.122695
H87	H	0.301531	0.065618	-0.110621
O88	O	0.979137	-0.546707	-0.201564
C89	C	0.905049	-0.658442	-0.288719
C90	C	0.906162	-0.598233	-0.202287
H91	H	0.846063	-0.700135	-0.289323
H92	H	0.906010	-0.600547	-0.352977
H93	H	0.962291	-0.719280	-0.287812
H94	H	0.848931	-0.537395	-0.203105
H95	H	0.905244	-0.656192	-0.138068
H96	H	0.985804	-0.175296	0.165337
O97	O	1.093451	0.002556	0.405052
C98	C	1.110584	-0.140904	0.308735
C99	C	1.048735	-0.062321	0.355000
H100	H	1.074455	-0.193391	0.268273
H101	H	1.152288	-0.095697	0.259948
H102	H	1.150804	-0.191850	0.363797
H103	H	1.008460	-0.011355	0.300002
H104	H	1.007089	-0.107592	0.403806
O105	O	0.871628	0.283826	0.571084
C106	C	0.758142	0.306133	0.677575
C107	C	0.820063	0.227682	0.631257
H108	H	0.716424	0.260770	0.726220
H109	H	0.794177	0.358566	0.718201
H110	H	0.717946	0.357149	0.622535
H111	H	0.860275	0.176596	0.686236
H112	H	0.783977	0.175321	0.590611
H113	H	0.979428	-0.538136	0.112356
H114	H	0.982313	-0.373931	0.181834
