data_functionalizedCrystal
_audit_creation_method	'MofGen! by Chris Wilmer'
_symmetry_space_group_name_H-M	'P1'
_symmetry_Int_Tables_number	1
_symmetry_cell_setting	triclinic
loop_
_symmetry_equiv_pos_as_xyz
  x,y,z
_cell_length_a	14.044220
_cell_length_b	14.044190
_cell_length_c	12.376457
_cell_angle_alpha	102.316217
_cell_angle_beta	77.668079
_cell_angle_gamma	93.190328
loop_
_atom_site_label
_atom_site_type_symbol
_atom_site_fract_x
_atom_site_fract_y
_atom_site_fract_z
O1	O	1.293917	0.213435	-0.093904
O2	O	1.793917	0.713435	0.406096
O3	O	1.017250	0.205125	-0.093932
O4	O	1.517250	0.705125	0.406068
O5	O	1.151424	0.070947	-0.093896
O6	O	1.651424	0.570947	0.406104
O7	O	1.159744	0.347612	-0.093940
O8	O	1.659744	0.847612	0.406060
O9	O	1.117889	0.104443	0.094107
O10	O	1.617889	0.604443	0.594107
O11	O	0.983716	0.238620	0.094071
O12	O	1.483716	0.738620	0.594071
O13	O	1.260383	0.246931	0.094099
O14	O	1.760383	0.746931	0.594099
Zn15	Zn	1.116725	0.248093	0.123935
Zn16	Zn	1.616725	0.748093	0.623935
Zn17	Zn	1.160908	0.203962	-0.123768
Zn18	Zn	1.660908	0.703962	0.376232
O19	O	1.126210	0.381108	0.094063
O20	O	1.626210	0.881108	0.594063
C21	C	0.964862	0.218236	0.000066
C22	C	1.464862	0.718236	0.500066
C23	C	0.858721	0.207390	0.000057
C24	C	1.358721	0.707390	0.500057
C25	C	0.664378	0.187568	0.000082
C26	C	1.164378	0.687568	0.500082
C27	C	0.613251	0.264481	0.000075
C28	C	1.113251	0.764481	0.500075
C29	C	0.505112	0.253452	0.000089
C30	C	1.005112	0.753452	0.500089
C31	C	0.772527	0.198596	0.000068
C32	C	1.272527	0.698596	0.500068
C33	C	1.131019	0.052074	0.000108
C34	C	1.631019	0.552074	0.500108
C35	C	1.120170	-0.054068	0.000117
C36	C	1.620170	0.445932	0.500117
C37	C	1.177278	-0.299533	0.000078
C38	C	1.677278	0.200467	0.500078
C39	C	1.100361	-0.248408	0.000079
C40	C	1.600361	0.251592	0.500079
C41	C	1.111386	-0.140267	0.000100
C42	C	1.611386	0.359733	0.500100
C43	C	1.166255	-0.407684	0.000057
C44	C	1.666255	0.092316	0.500057
C45	C	1.312772	0.233819	0.000098
C46	C	1.812772	0.733819	0.500098
C47	C	1.418914	0.244664	0.000100
C48	C	1.918914	0.744664	0.500100
C49	C	1.146614	0.399981	0.000056
C50	C	1.646614	0.899981	0.500056
C51	C	1.157464	0.506121	0.000040
C52	C	1.657464	1.006121	0.500040
N53	N	1.086578	0.278212	0.292985
N54	N	1.586578	0.778212	0.792985
N55	N	1.191062	0.173836	-0.292818
N56	N	1.691062	0.673836	0.207182
C57	C	1.261041	0.103902	0.648016
C58	C	1.761041	0.603902	1.148016
C59	C	1.282135	0.082821	0.529682
C60	C	1.782135	0.582821	1.029682
C61	C	1.233248	0.131667	0.470502
C62	C	1.733248	0.631667	0.970502
C63	C	1.163262	0.201597	0.529668
C64	C	1.663262	0.701597	1.029668
C65	C	1.142171	0.222686	0.648014
C66	C	1.642171	0.722686	1.148014
C67	C	1.114378	0.250451	0.470499
C68	C	1.614378	0.750451	0.970499
C69	C	1.044392	0.320381	0.529665
C70	C	1.544392	0.820381	1.029665
C71	C	1.023304	0.341465	0.647999
C72	C	1.523304	0.841465	1.147999
C73	C	1.072192	0.292620	0.707179
C74	C	1.572192	0.792620	1.207179
C75	C	1.135469	0.229362	0.352153
C76	C	1.635469	0.729362	0.852153
C77	C	1.016599	0.348146	0.352151
C78	C	1.516599	0.848146	0.852151
C79	C	0.995505	0.369227	0.470485
C80	C	1.495505	0.869227	0.970485
H81	H	0.650695	0.338612	0.000058
H82	H	1.150695	0.838612	0.500058
H83	H	0.626936	0.113443	0.000100
H84	H	1.126936	0.613443	0.500100
Br85	Br	1.300825	-0.237123	0.000106
Br86	Br	1.800825	0.262877	0.500106
Br87	Br	0.976804	-0.310814	0.000061
Br88	Br	1.476804	0.189186	0.500061
H89	H	1.192451	0.172425	0.303991
H90	H	1.692451	0.672425	0.803991
H91	H	1.250426	0.114500	0.374149
H92	H	1.750426	0.614500	0.874149
Br93	Br	1.377113	-0.012076	0.449387
Br94	Br	1.877113	0.487924	0.949387
Br95	Br	1.327394	0.037630	0.728331
Br96	Br	1.827394	0.537630	1.228331
H97	H	1.055015	0.309780	0.803537
H98	H	1.555015	0.809780	1.303537
Br99	Br	0.928340	0.436385	0.728299
Br100	Br	1.428340	0.936385	1.228299
H101	H	0.938521	0.426166	0.518672
H102	H	1.438521	0.926166	1.018672
Br103	Br	0.950254	0.414448	0.271844
Br104	Br	1.450254	0.914448	0.771844
