data_functionalizedCrystal
_audit_creation_method	'MofGen! by Chris Wilmer'
_symmetry_space_group_name_H-M	'P1'
_symmetry_Int_Tables_number	1
_symmetry_cell_setting	triclinic
loop_
_symmetry_equiv_pos_as_xyz
  x,y,z
_cell_length_a	19.121275
_cell_length_b	19.121063
_cell_length_c	12.759393
_cell_angle_alpha	92.402864
_cell_angle_beta	92.419315
_cell_angle_gamma	89.926756
loop_
_atom_site_label
_atom_site_type_symbol
_atom_site_fract_x
_atom_site_fract_y
_atom_site_fract_z
Zn1	Zn	1.059827	-0.324771	-0.547055
Zn2	Zn	1.054729	-0.442022	-0.379162
Zn3	Zn	0.942589	-0.319807	-0.378556
Zn4	Zn	0.937557	-0.436971	-0.561955
O5	O	0.998676	-0.380893	-0.466682
O6	O	1.157252	-0.344516	-0.518802
O7	O	1.039825	-0.425847	-0.232065
O8	O	0.962381	-0.222363	-0.394419
O9	O	1.153507	-0.430660	-0.395451
O10	O	1.048515	-0.226009	-0.518215
O11	O	0.957437	-0.336056	-0.231619
O12	O	0.843820	-0.331158	-0.408866
O13	O	0.953805	-0.422050	-0.706995
O14	O	0.840123	-0.417237	-0.543608
O15	O	1.043636	-0.339618	-0.696049
O16	O	1.034946	-0.539455	-0.409899
O17	O	0.948861	-0.535744	-0.544196
C18	C	0.816535	-0.373111	-0.477789
C19	C	0.738614	-0.369799	-0.482567
C20	C	0.700056	-0.413021	-0.420484
C21	C	0.626841	-0.409909	-0.424987
C22	C	0.592185	-0.363572	-0.491568
C23	C	0.630748	-0.320348	-0.553657
C24	C	0.703962	-0.323464	-0.549159
C25	C	0.371224	-0.351927	-0.508372
C26	C	0.298005	-0.348813	-0.512863
C27	C	0.294104	-0.438375	-0.384195
C28	C	0.367319	-0.441484	-0.379698
C29	C	0.405875	-0.398263	-0.441791
C30	C	0.517347	-0.360388	-0.496169
C31	C	0.480712	-0.401450	-0.437194
C32	C	0.990823	-0.563038	-0.478752
C33	C	0.987528	-0.640963	-0.483946
C34	C	1.030835	-0.679483	-0.416519
C35	C	1.027740	-0.752702	-0.421410
C36	C	0.981334	-0.787399	-0.493725
C37	C	0.938025	-0.748874	-0.561159
C38	C	0.941124	-0.675657	-0.556272
C39	C	0.969736	-1.008373	-0.511981
C40	C	0.966639	-1.081596	-0.516860
C41	C	1.056354	-1.085418	-0.377112
C42	C	1.059446	-1.012199	-0.372227
C43	C	1.016140	-0.973680	-0.439665
C44	C	0.978168	-0.862240	-0.498724
C45	C	1.019311	-0.898841	-0.434671
C46	C	1.181527	-0.388705	-0.455532
C47	C	1.259448	-0.392034	-0.450781
C48	C	0.998728	-0.380824	-0.740708
C49	C	0.998750	-0.380795	-0.857481
C50	C	1.006578	-0.198037	-0.454587
C51	C	1.009946	-0.120115	-0.449433
C52	C	0.955867	-0.334033	-0.912109
C53	C	0.955884	-0.334012	-1.021831
C54	C	1.041674	-0.427517	-1.022287
C55	C	1.041652	-0.427540	-0.912567
C56	C	0.998666	-0.380912	-0.193716
C57	C	0.998789	-0.380750	-0.076922
H58	H	0.595451	-0.445105	-0.374433
H59	H	0.920933	-0.295970	-0.867262
H60	H	0.900244	-0.777131	-0.620044
H61	H	0.728268	-0.450751	-0.366263
H62	H	0.928858	-1.109844	-0.575765
H63	H	0.920963	-0.295935	-1.066305
H64	H	0.402608	-0.316734	-0.558934
F65	F	0.923645	-0.967388	-0.583754
H66	H	1.091613	-1.116788	-0.322209
H67	H	0.602525	-0.282622	-0.607873
F68	F	1.108846	-0.975277	-0.295271
H69	H	0.262703	-0.473564	-0.333644
F70	F	0.261124	-0.299488	-0.583726
H71	H	1.076604	-0.465575	-1.067151
H72	H	1.076574	-0.465622	-0.868088
F73	F	0.895033	-0.634661	-0.628040
H74	H	0.735355	-0.288268	-0.599712
F75	F	0.517596	-0.450767	-0.366341
F76	F	0.404198	-0.490785	-0.308807
H77	H	0.489122	-0.322659	-0.550378
F78	F	1.080222	-0.642561	-0.339545
H79	H	1.063004	-0.784061	-0.366503
F80	F	1.068701	-0.861912	-0.357715
H81	H	0.940382	-0.890499	-0.557601
