data_functionalizedCrystal
_audit_creation_method	'MofGen! by Chris Wilmer'
_symmetry_space_group_name_H-M	'P1'
_symmetry_Int_Tables_number	1
_symmetry_cell_setting	triclinic
loop_
_symmetry_equiv_pos_as_xyz
  x,y,z
_cell_length_a	16.109302
_cell_length_b	12.837942
_cell_length_c	11.892083
_cell_angle_alpha	85.700043
_cell_angle_beta	93.903332
_cell_angle_gamma	89.145360
loop_
_atom_site_label
_atom_site_type_symbol
_atom_site_fract_x
_atom_site_fract_y
_atom_site_fract_z
O1	O	1.118514	0.126617	0.094054
O2	O	0.877769	0.143198	0.094046
O3	O	0.992803	-0.015993	0.094043
O4	O	1.003480	0.285808	0.094057
O5	O	0.983202	-0.002748	-0.093965
O6	O	0.868168	0.156443	-0.093962
O7	O	1.108913	0.139862	-0.093953
Zn8	Zn	0.987016	0.150255	-0.123808
Zn9	Zn	0.999666	0.132805	0.123900
O10	O	0.993879	0.299053	-0.093950
C11	C	0.841940	0.149149	0.000041
C12	C	0.749485	0.147135	0.000037
C13	C	0.531541	0.149697	-0.102435
C14	C	0.444670	0.147793	-0.102431
C15	C	0.455148	0.133358	0.102545
C16	C	0.542018	0.135255	0.102540
C17	C	0.580212	0.143430	0.000047
C18	C	0.406471	0.139629	0.000056
C19	C	0.312282	0.137565	0.000061
C20	C	0.674407	0.145492	0.000041
C21	C	0.984396	-0.047990	0.000040
C22	C	0.973639	-0.163064	0.000041
C23	C	1.102957	-0.404067	0.000069
C24	C	1.092854	-0.512190	0.000071
C25	C	0.943331	-0.487434	0.000054
C26	C	0.953434	-0.379311	0.000052
C27	C	1.033250	-0.337632	0.000058
C28	C	1.043352	-0.229507	0.000049
C29	C	0.893829	-0.204754	0.000040
C30	C	0.883726	-0.312876	0.000041
C31	C	1.144742	0.133911	0.000054
C32	C	1.237198	0.135924	0.000065
C33	C	1.002286	0.331050	0.000055
C34	C	1.013044	0.446123	0.000061
N35	N	0.978389	0.162164	-0.292862
C36	C	0.918414	0.245140	-0.470399
C37	C	0.924428	0.236800	-0.352057
C38	C	1.026337	0.095862	-0.352018
C39	C	1.020323	0.104202	-0.470360
C40	C	0.966361	0.178845	-0.529546
C41	C	0.960351	0.187190	-0.647890
C42	C	1.062255	0.046247	-0.647849
C43	C	1.068269	0.037907	-0.529507
N44	N	1.008299	0.120887	0.292954
H45	H	1.108341	-0.195574	0.000050
H46	H	1.149618	-0.566279	0.000083
C47	C	0.413127	0.124375	0.215282
N48	N	0.381477	0.117612	0.300198
C49	C	1.114999	-0.026682	-0.712920
N50	N	1.154727	-0.081610	-0.761933
H51	H	0.581648	0.130148	0.185998
C52	C	0.900990	0.269295	-0.712993
N53	N	0.856275	0.331135	-0.762026
H54	H	0.562635	0.156354	-0.185892
H55	H	1.167946	-0.370131	0.000063
H56	H	0.878349	-0.521390	0.000061
H57	H	0.818743	-0.346827	0.000040
C58	C	0.391135	0.154700	-0.215169
N59	N	0.350813	0.159906	-0.300089
H60	H	0.837068	-0.150649	0.000022
C61	C	0.859060	0.327251	-0.535506
N62	N	0.814353	0.389098	-0.584544
C63	C	0.871710	0.309760	-0.286999
N64	N	0.832009	0.364728	-0.237998
C65	C	1.085656	0.013722	-0.286892
N66	N	1.130325	-0.048158	-0.237838
C67	C	1.127611	-0.044210	-0.464388
N68	N	1.172307	-0.106066	-0.415342
