data_functionalizedCrystal
_audit_creation_method	'MofGen! by Chris Wilmer'
_symmetry_space_group_name_H-M	'P1'
_symmetry_Int_Tables_number	1
_symmetry_cell_setting	triclinic
loop_
_symmetry_equiv_pos_as_xyz
  x,y,z
_cell_length_a	12.759401
_cell_length_b	12.759400
_cell_length_c	12.759393
_cell_angle_alpha	89.968436
_cell_angle_beta	90.018496
_cell_angle_gamma	89.985155
loop_
_atom_site_label
_atom_site_type_symbol
_atom_site_fract_x
_atom_site_fract_y
_atom_site_fract_z
Zn1	Zn	1.606255	0.418200	0.593981
Zn2	Zn	1.606150	0.593919	0.418301
Zn3	Zn	1.430557	0.418255	0.418321
Zn4	Zn	1.430546	0.593838	0.593943
O5	O	1.518377	0.506053	0.506137
O6	O	1.753262	0.441520	0.570685
O7	O	1.582818	0.570673	0.271283
O8	O	1.453913	0.271226	0.441647
O9	O	1.753185	0.570620	0.441614
O10	O	1.582998	0.271186	0.570704
O11	O	1.453811	0.441614	0.271297
O12	O	1.283535	0.441535	0.441609
O13	O	1.453894	0.570482	0.740969
O14	O	1.283527	0.570536	0.570638
O15	O	1.582987	0.441442	0.740997
O16	O	1.582807	0.740929	0.441577
O17	O	1.453791	0.740870	0.570620
C18	C	1.245410	0.506033	0.506122
C19	C	1.128633	0.506050	0.506141
C20	C	1.518315	0.779020	0.506115
C21	C	1.518384	0.895797	0.506140
C22	C	1.073794	0.573328	0.573215
C23	C	0.964070	0.573342	0.573227
C24	C	0.964034	0.438796	0.439081
C25	C	1.073756	0.438778	0.439075
C26	C	1.128672	0.640600	0.640281
C27	C	1.073833	0.707885	0.707360
C28	C	0.964109	0.707898	0.707371
C29	C	0.909224	0.640627	0.640304
C30	C	1.518451	0.505947	0.780170
C31	C	1.518482	0.505902	0.896947
C32	C	1.792410	0.506073	0.506152
C33	C	1.909187	0.506082	0.506158
C34	C	1.518468	0.232019	0.506182
C35	C	1.518507	0.115243	0.506201
C36	C	1.585637	0.950655	0.439022
C37	C	1.585702	1.060379	0.439054
C38	C	1.451252	1.060377	0.573327
C39	C	1.451193	0.950655	0.573299
C40	C	1.652828	0.895797	0.371864
C41	C	1.720086	0.950655	0.304739
C42	C	1.720150	1.060379	0.304771
C43	C	1.652957	1.115245	0.371929
C44	C	1.518364	0.506083	0.233169
C45	C	1.518537	0.505832	0.116393
C46	C	1.585710	0.438704	0.951825
C47	C	1.585735	0.438666	1.061549
C48	C	1.451301	0.573033	1.061507
C49	C	1.451272	0.573064	0.951785
C50	C	1.652920	0.371541	0.896987
C51	C	1.720155	0.304339	0.951866
C52	C	1.720180	0.304301	1.061590
C53	C	1.652970	0.371465	1.116436
H54	H	1.218015	0.640599	0.640277
H55	H	1.396582	0.627714	1.106171
O56	O	1.386102	0.638503	0.898505
C57	C	1.409034	0.743204	0.925309
H58	H	1.492965	0.748489	0.955497
H59	H	1.399978	0.795126	0.853131
H60	H	1.352703	0.770661	0.988971
O61	O	1.127305	0.773190	0.772410
C62	C	1.235909	0.758736	0.758039
H63	H	1.250867	0.724230	0.677017
H64	H	1.277601	0.837435	0.765025
H65	H	1.267079	0.702857	0.820450
O66	O	1.386013	1.113833	0.638454
C67	C	1.400504	1.222440	0.624103
H68	H	1.434965	1.237461	0.543056
H69	H	1.321826	1.264198	0.631169
H70	H	1.456435	1.253484	0.686476
H71	H	1.774867	0.249649	0.907203
H72	H	0.919462	0.762676	0.761998
H73	H	1.396431	0.905989	0.627954
H74	H	1.652984	0.371417	1.205780
O75	O	0.802637	0.640771	0.640447
C76	C	0.766000	0.714538	0.714071
H77	H	0.829207	0.775959	0.728645
H78	H	0.692544	0.754344	0.682339
H79	H	0.746622	0.672962	0.790761
O80	O	1.652996	0.371410	0.790403
C81	C	1.726751	0.297744	0.753766
H82	H	1.741505	0.236340	0.817009
H83	H	1.695048	0.257898	0.680365
H84	H	1.803336	0.339423	0.734297
H85	H	0.919337	0.384028	0.384477
O86	O	1.126871	0.373402	0.373812
C87	C	1.054909	0.314023	0.314627
H88	H	0.976686	0.357057	0.310923
H89	H	1.086582	0.302724	0.231866
H90	H	1.043269	0.234272	0.353231
O91	O	1.652933	0.789212	0.371733
C92	C	1.726637	0.752553	0.298048
H93	H	1.788065	0.815743	0.283400
H94	H	1.766445	0.679087	0.329759
H95	H	1.685000	0.733185	0.221402
O96	O	1.785302	0.897478	0.239362
C97	C	1.762392	0.924379	0.134638
H98	H	1.722053	1.004081	0.132451
H99	H	1.838242	0.928107	0.087591
H100	H	1.708357	0.862702	0.099189
O101	O	1.785582	0.238988	1.114738
C102	C	1.844873	0.179699	1.042803
H103	H	1.848473	0.222760	0.964581
H104	H	1.927663	0.168493	1.074514
H105	H	1.806428	0.099905	1.031148
H106	H	1.653024	1.204589	0.371958
O107	O	1.785657	1.113522	0.239628
C108	C	1.890324	1.086577	0.262717
H109	H	1.892386	1.006887	0.303108
H110	H	1.937486	1.082801	0.186943
H111	H	1.925737	1.148254	0.316769
