data_functionalizedCrystal
_audit_creation_method	'MofGen! by Chris Wilmer'
_symmetry_space_group_name_H-M	'P1'
_symmetry_Int_Tables_number	1
_symmetry_cell_setting	triclinic
loop_
_symmetry_equiv_pos_as_xyz
  x,y,z
_cell_length_a	14.446369
_cell_length_b	18.760492
_cell_length_c	18.760492
_cell_angle_alpha	89.998415
_cell_angle_beta	59.995843
_cell_angle_gamma	59.999833
loop_
_atom_site_label
_atom_site_type_symbol
_atom_site_fract_x
_atom_site_fract_y
_atom_site_fract_z
Zr1	Zr	1.013214	0.686702	-0.093571
O2	O	1.206343	0.572886	-0.207397
O3	O	0.820091	0.721592	-0.058673
O4	O	1.013216	0.721594	-0.207389
O5	O	1.013213	0.572883	0.058623
O6	O	1.013211	0.838899	-0.207387
O7	O	1.013217	0.572883	-0.058681
O8	O	0.667746	0.838895	0.058639
O9	O	1.358678	0.572887	-0.207403
O10	O	0.899519	0.824016	-0.043793
O11	O	0.899519	0.736473	0.043749
O12	O	1.126899	0.736475	-0.131346
O13	O	1.126900	0.648931	-0.043804
Zr14	Zr	1.013198	0.873789	0.093518
Zr15	Zr	1.013205	0.873790	-0.093569
Zr16	Zr	1.013206	0.686701	0.093516
Zr17	Zr	1.256172	0.686704	-0.093580
Zr18	Zr	0.770240	0.873787	0.093527
O19	O	1.206320	0.838899	0.058620
O20	O	1.206330	0.838900	-0.207394
O21	O	1.206332	0.572884	0.058617
O22	O	0.820069	0.987605	0.207345
O23	O	0.820079	0.987607	-0.058669
O24	O	0.820081	0.721590	0.207341
O25	O	1.013198	0.987608	-0.058676
O26	O	1.013195	0.838896	0.207336
O27	O	1.013200	0.721591	0.207335
O28	O	1.013194	0.987607	0.058628
O29	O	1.358671	0.721597	-0.207401
O30	O	0.667740	0.838894	0.207348
O31	O	0.667733	0.987604	0.207350
O32	O	0.667739	0.987605	0.058641
O33	O	1.358672	0.572886	-0.058693
O34	O	1.358665	0.721596	-0.058692
O35	O	0.899512	0.824015	0.131293
O36	O	0.899511	0.911559	0.043751
O37	O	1.126892	0.824018	-0.043801
O38	O	1.126892	0.736474	0.043741
C39	C	0.709302	0.780243	-0.000016
C40	C	0.606160	0.780242	-0.000012
C41	C	1.013216	0.546227	-0.000029
C42	C	1.013220	0.466803	-0.000030
C43	C	1.013215	0.780247	-0.234044
C44	C	1.013218	0.780247	-0.313467
C45	C	0.459151	0.725293	0.055454
C46	C	0.566771	0.724994	0.055229
C47	C	0.655162	0.739965	-0.095144
C48	C	0.547929	0.739552	-0.094856
C49	C	0.372696	0.875508	0.038835
C50	C	0.478847	0.875368	0.040776
C51	C	1.317109	0.780247	-0.000037
C52	C	1.420251	0.780248	-0.000041
C53	C	1.013222	0.429488	0.064595
C54	C	1.013211	0.429493	-0.064653
C55	C	1.013208	0.354873	-0.064653
C56	C	1.013209	0.317558	-0.000028
C57	C	1.013214	0.354863	0.064598
C58	C	1.013190	0.317568	-0.129273
C59	C	1.013185	0.242944	-0.129276
C60	C	1.013195	0.205624	-0.064653
C61	C	1.013202	0.242933	-0.000025
C62	C	1.013203	0.205618	0.064601
C63	C	1.013219	0.242922	0.129226
C64	C	1.013225	0.317543	0.129221
C65	C	1.013190	0.131002	-0.064648
C66	C	1.013196	0.130992	0.064604
C67	C	1.013195	1.014264	-0.000024
C68	C	1.013191	1.093687	-0.000023
C69	C	1.013192	0.844872	-0.649277
C70	C	1.013198	0.715617	-0.649267
C71	C	1.013205	0.715616	-0.574648
C72	C	1.013204	0.780244	-0.537340
C73	C	1.013195	0.844874	-0.574650
C74	C	1.013200	0.650992	-0.537327
C75	C	1.013206	0.650989	-0.462704
C76	C	1.013214	0.715615	-0.425398
C77	C	1.013207	0.780246	-0.462713
C78	C	1.013206	0.844875	-0.425405
C79	C	1.013208	0.909504	-0.462722
C80	C	1.013204	0.909499	-0.537344
C81	C	1.013219	0.715619	-0.350776
C82	C	1.013209	0.844877	-0.350778
C83	C	1.013196	0.780244	0.233991
C84	C	1.013193	0.780243	0.313415
C85	C	0.709291	1.014261	-0.000013
C86	C	0.606146	1.093684	-0.000008
C87	C	0.709293	0.780242	0.234002
C88	C	0.606148	0.780240	0.313429
C89	C	0.709282	1.014260	0.234005
C90	C	0.606133	1.093682	0.313433
C91	C	1.317129	0.546231	-0.234058
C92	C	1.420278	0.466808	-0.313486
C93	C	1.317120	0.546229	-0.000040
C94	C	1.420265	0.466806	-0.000045
C95	C	1.317118	0.780249	-0.234055
C96	C	1.420263	0.780250	-0.313482
C97	C	0.557711	1.085286	-0.045711
C98	C	0.460808	1.159905	-0.045724
C99	C	0.412335	1.242922	-0.000029
C100	C	0.460779	1.251319	0.045675
C101	C	0.557687	1.176700	0.045683
C102	C	0.557706	0.825936	0.396434
C103	C	0.460804	0.825932	0.471071
C104	C	0.412338	0.780236	0.462702
C105	C	0.460790	0.734535	0.379688
C106	C	0.557697	0.734534	0.305053
C107	C	0.557693	1.176685	0.305037
C108	C	0.460787	1.251318	0.379661
C109	C	0.412317	1.242946	0.462680
C110	C	0.460767	1.159935	0.471074
C111	C	0.557677	1.085304	0.396451
C112	C	1.468730	0.383806	-0.305090
C113	C	1.565666	0.309173	-0.379714
C114	C	1.614141	0.317544	-0.462733
C115	C	1.565685	0.400556	-0.471127
C116	C	1.468758	0.475187	-0.396504
C117	C	1.468710	0.475205	0.045650
C118	C	1.565640	0.400586	0.045643
C119	C	1.614116	0.317569	-0.000055
C120	C	1.565668	0.309172	-0.045756
C121	C	1.468747	0.383790	-0.045753
C122	C	1.468698	0.825955	-0.305084
C123	C	1.565601	0.825973	-0.379707
C124	C	1.614074	0.780281	-0.462727
C125	C	1.565630	0.734575	-0.471123
C126	C	1.468722	0.734562	-0.396500
H127	H	0.530057	0.752011	0.125281
H128	H	1.013240	0.459861	0.117211
H129	H	1.429306	0.376940	-0.082961
F130	F	1.013238	0.357249	0.197996
F131	F	0.601126	0.647930	-0.135533
H132	H	0.421287	1.153132	0.538678
H133	H	1.013206	0.598365	-0.432325
F134	F	1.013207	0.091281	0.133385
H135	H	1.013168	0.100636	-0.117262
F136	F	0.775819	0.649218	-0.136102
F137	F	1.013198	0.469210	-0.133424
F138	F	1.013176	0.357285	-0.198045
F139	F	0.609237	0.685900	0.216715
F140	F	1.617271	0.220812	-0.094385
H141	H	1.429246	0.863163	-0.237492
F142	F	0.342996	0.760431	0.147251
H143	H	0.655576	0.654728	0.028278
H144	H	1.013208	0.663003	-0.320392
F145	F	0.409237	1.339656	0.370709
F146	F	0.250194	0.919478	0.129006
H147	H	1.013199	0.897490	-0.679665
H148	H	0.421298	1.318921	0.082879
F149	F	1.617215	0.220835	-0.370762
F150	F	1.417194	0.685907	-0.405451
H151	H	0.597110	1.183551	0.082905
H152	H	0.421315	0.697330	0.372887
F153	F	0.519201	0.788499	-0.151827
H154	H	1.605034	0.863191	-0.372855
H155	H	1.692983	0.780298	-0.523482
H156	H	1.013174	0.212575	-0.181898
F157	F	0.309174	1.322384	0.542094
H158	H	0.597144	1.183517	0.237446
H159	H	1.429309	0.542769	-0.403350
H160	H	1.013212	0.212534	0.181848
H161	H	1.429247	0.542795	0.082869
H162	H	0.333425	1.303674	-0.000041
F163	F	1.013217	0.913662	-0.311081
H164	H	0.597155	0.863147	0.403265
H165	H	1.605070	0.407440	0.082861
F166	F	0.609215	0.996968	0.405400
H167	H	0.333431	0.780243	0.523482
H168	H	1.013192	0.598377	-0.567703
H169	H	0.421377	1.153051	-0.082942
F170	F	0.409252	0.874578	0.559412
H171	H	1.429266	0.376973	-0.237498
F172	F	1.013202	0.978278	-0.577061
F173	F	1.717300	0.238107	-0.542147
F174	F	0.692844	0.789744	-0.151538
F175	F	1.617241	0.685943	-0.559485
F176	F	1.617288	0.409452	-0.559489
H177	H	1.013199	0.962128	-0.432334
F178	F	1.717269	0.238160	-0.000049
F179	F	0.505826	0.634005	0.020556
F180	F	0.427076	0.914700	0.132383
H181	H	0.500348	0.919763	0.004562
H182	H	0.346721	0.916646	-0.001392
H183	H	0.597177	1.017696	-0.082932
F184	F	1.013187	0.646843	-0.688968
