data_functionalizedCrystal
_audit_creation_method	'MofGen! by Chris Wilmer'
_symmetry_space_group_name_H-M	'P1'
_symmetry_Int_Tables_number	1
_symmetry_cell_setting	triclinic
loop_
_symmetry_equiv_pos_as_xyz
  x,y,z
_cell_length_a	14.971486
_cell_length_b	16.098538
_cell_length_c	17.019250
_cell_angle_alpha	88.842345
_cell_angle_beta	96.501064
_cell_angle_gamma	92.737004
loop_
_atom_site_label
_atom_site_type_symbol
_atom_site_fract_x
_atom_site_fract_y
_atom_site_fract_z
O1	O	1.191093	0.076259	-0.098923
O2	O	1.691093	0.576259	0.401077
O3	O	0.930713	0.077162	-0.111188
O4	O	1.430713	0.577162	0.388812
O5	O	1.067705	0.068494	0.009355
O6	O	1.567705	0.568494	0.509355
O7	O	1.054102	0.084927	-0.219465
O8	O	1.554102	0.584927	0.280535
O9	O	1.059703	-0.069515	0.002341
O10	O	1.559703	0.430485	0.502341
O11	O	0.922711	-0.060846	-0.118202
O12	O	1.422711	0.439154	0.381798
O13	O	1.183091	-0.061749	-0.105937
O14	O	1.683091	0.438251	0.394063
Zn15	Zn	1.051630	-0.083210	-0.113183
Zn16	Zn	1.551630	0.416790	0.386817
Zn17	Zn	1.062174	0.098623	-0.103942
Zn18	Zn	1.562174	0.598623	0.396058
O19	O	1.046099	-0.053081	-0.226479
O20	O	1.546099	0.446919	0.273521
C21	C	0.893387	0.008121	-0.114146
C22	C	1.393387	0.508121	0.385854
C23	C	0.794088	0.008012	-0.112502
C24	C	1.294088	0.508012	0.387498
N25	N	1.044441	-0.207305	-0.119489
N26	N	1.544441	0.292695	0.380511
C27	C	0.736972	0.013097	-0.183318
C28	C	1.236972	0.513097	0.316682
C29	C	0.643670	0.012973	-0.181769
C30	C	1.143670	0.512973	0.318231
C31	C	0.607485	0.007770	-0.109403
C32	C	1.107485	0.507770	0.390597
C33	C	0.664607	0.002683	-0.038582
C34	C	1.164607	0.502683	0.461418
C35	C	0.757908	0.002801	-0.040132
C36	C	1.257908	0.502801	0.459868
C37	C	0.470139	0.002440	-0.035357
C38	C	0.970139	0.502440	0.464643
C39	C	0.376832	0.002324	-0.033807
C40	C	0.876832	0.502324	0.466193
C41	C	0.355901	0.012612	-0.176994
C42	C	0.855901	0.512612	0.323006
C43	C	0.449202	0.012730	-0.178544
C44	C	0.949202	0.512730	0.321456
C45	C	0.506318	0.007644	-0.107722
C46	C	1.006318	0.507644	0.392278
C47	C	1.102607	-0.254568	-0.068344
C48	C	1.602607	0.245432	0.431656
C49	C	1.097586	-0.341439	-0.072763
C50	C	1.597586	0.158561	0.427237
C51	C	1.034403	-0.381046	-0.128332
C52	C	1.534403	0.118954	0.371668
C53	C	0.976231	-0.333777	-0.179479
C54	C	1.476231	0.166223	0.320521
C55	C	0.981248	-0.246907	-0.175055
C56	C	1.481248	0.253093	0.324945
C57	C	1.016215	-0.643144	-0.144353
C58	C	1.516215	-0.143144	0.355647
C59	C	1.011204	-0.730019	-0.148774
C60	C	1.511204	-0.230019	0.351226
C61	C	1.132559	-0.737676	-0.042057
C62	C	1.632559	-0.237676	0.457943
C63	C	1.137574	-0.650805	-0.037642
C64	C	1.637574	-0.150805	0.462358
C65	C	1.079399	-0.603543	-0.088786
C66	C	1.579399	-0.103543	0.411214
C67	C	1.029271	-0.469842	-0.132851
C68	C	1.529271	0.030158	0.367149
C69	C	1.084527	-0.514749	-0.084262
C70	C	1.584527	-0.014749	0.415738
C71	C	1.220418	0.007293	-0.102978
C72	C	1.720418	0.507293	0.397022
C73	C	1.319717	0.007408	-0.104622
C74	C	1.819717	0.507408	0.395378
C75	C	1.063034	-0.002611	0.035131
C76	C	1.563034	0.497389	0.535131
C77	C	1.061028	-0.008872	0.122386
C78	C	1.561028	0.491128	0.622386
N79	N	1.069370	0.222718	-0.097629
N80	N	1.569370	0.722718	0.402371
C81	C	1.049385	-0.048018	0.615686
C82	C	1.549385	0.451982	1.115686
C83	C	1.051278	-0.042140	0.533701
C84	C	1.551278	0.457860	1.033701
C85	C	1.056594	0.036030	0.496524
C86	C	1.556594	0.536030	0.996524
C87	C	1.060007	0.108325	0.541335
C88	C	1.560007	0.608325	1.041335
C89	C	1.058108	0.102446	0.623318
C90	C	1.558108	0.602446	1.123318
C91	C	1.062542	0.057545	0.249180
C92	C	1.562542	0.557545	0.749180
C93	C	1.064444	0.063418	0.167192
C94	C	1.564444	0.563418	0.667192
C95	C	1.055713	-0.087048	0.159563
C96	C	1.555713	0.412952	0.659563
C97	C	1.053819	-0.092920	0.241548
C98	C	1.553819	0.407080	0.741548
C99	C	1.057228	-0.020624	0.286352
C100	C	1.557228	0.479376	0.786352
C101	C	1.058532	0.042040	0.412723
C102	C	1.558532	0.542040	0.912723
C103	C	1.055284	-0.026635	0.370150
C104	C	1.555284	0.473365	0.870150
C105	C	1.050776	0.018021	0.747745
C106	C	1.550776	0.518021	1.247745
C107	C	1.052801	0.024272	0.660491
C108	C	1.552801	0.524272	1.160491
H109	H	0.766426	0.017334	-0.242246
H110	H	1.266426	0.517334	0.257754
H111	H	1.064331	0.171973	0.511059
H112	H	1.564331	0.671973	1.011059
H113	H	0.959750	-0.762262	-0.194028
H114	H	1.459750	-0.262262	0.305972
C115	C	1.196540	-0.789671	0.014204
C116	C	1.696540	-0.289671	0.514204
N117	N	1.244730	-0.828834	0.056585
N118	N	1.744730	-0.328834	0.556585
C119	C	0.532965	-0.003152	0.042551
C120	C	1.032965	0.496848	0.542551
N121	N	0.580287	-0.007358	0.101231
N122	N	1.080287	0.492642	0.601231
C123	C	1.161553	-0.393426	-0.016480
C124	C	1.661553	0.106574	0.483520
N125	N	1.209727	-0.432583	0.025922
N126	N	1.709727	0.067417	0.525922
C127	C	1.064396	0.128025	0.371822
C128	C	1.564396	0.628025	0.871822
N129	N	1.068815	0.192789	0.341013
N130	N	1.568815	0.692789	0.841013
C131	C	1.061873	0.181972	0.672605
C132	C	1.561873	0.681972	1.172605
N133	N	1.064708	0.241873	0.709726
N134	N	1.564708	0.741873	1.209726
H135	H	1.065326	0.116413	0.285650
H136	H	1.565326	0.616413	0.785650
C137	C	1.047519	-0.121666	0.484418
C138	C	1.547519	0.378334	0.984418
N139	N	1.044686	-0.181568	0.447299
N140	N	1.544686	0.318432	0.947299
H141	H	0.977828	-0.502097	-0.178098
H142	H	1.477828	-0.002097	0.321902
C143	C	1.207076	-0.607245	0.023491
C144	C	1.707076	-0.107245	0.523491
N145	N	1.259427	-0.574435	0.069538
N146	N	1.759427	-0.074435	0.569538
C147	C	1.047962	-0.178912	0.282435
C148	C	1.547962	0.321088	0.782435
N149	N	1.043550	-0.243683	0.313231
N150	N	1.543550	0.256317	0.813231
C151	C	0.952336	-0.591160	-0.200716
C152	C	1.452336	-0.091160	0.299284
N153	N	0.904261	-0.552000	-0.243208
N154	N	1.404261	-0.052000	0.256792
C155	C	1.172114	-0.211010	-0.007214
C156	C	1.672114	0.288990	0.492786
N157	N	1.224465	-0.178204	0.038834
N158	N	1.724465	0.321796	0.538834
C159	C	1.051950	-0.166567	0.110271
C160	C	1.551950	0.333433	0.610271
N161	N	1.049110	-0.226465	0.073144
N162	N	1.549110	0.273535	0.573144
H163	H	1.050950	-0.090281	0.400423
H164	H	1.550950	0.409719	0.900423
H165	H	0.924781	-0.366029	-0.224721
H166	H	1.424781	0.133971	0.275279
C167	C	1.070285	0.149415	0.126299
C168	C	1.570285	0.649415	0.626299
N169	N	1.074683	0.214184	0.095498
N170	N	1.574683	0.714184	0.595498
C171	C	0.580845	0.018552	-0.259673
C172	C	1.080845	0.518552	0.240327
N173	N	0.533526	0.022748	-0.318354
N174	N	1.033526	0.522748	0.181646
H175	H	0.933882	-0.208426	-0.216702
H176	H	1.433882	0.291574	0.283298
H177	H	1.045060	-0.111673	0.645949
H178	H	1.545060	0.388327	1.145949
H179	H	0.478661	0.016974	-0.237470
H180	H	0.978661	0.516974	0.262530
H181	H	0.309392	0.016750	-0.234660
H182	H	0.809392	0.516750	0.265340
H183	H	0.347374	-0.001914	0.025120
H184	H	0.847374	0.498086	0.525120
H185	H	0.804411	-0.001339	0.017534
H186	H	1.304411	0.498661	0.517534
H187	H	0.635137	-0.001565	0.020339
H188	H	1.135137	0.498435	0.520339
H189	H	1.135968	-0.482499	-0.039015
H190	H	1.635968	0.017501	0.460985
