data_functionalizedCrystal
_audit_creation_method	'MofGen! by Chris Wilmer'
_symmetry_space_group_name_H-M	'P1'
_symmetry_Int_Tables_number	1
_symmetry_cell_setting	triclinic
loop_
_symmetry_equiv_pos_as_xyz
  x,y,z
_cell_length_a	19.288864
_cell_length_b	15.944551
_cell_length_c	17.766277
_cell_angle_alpha	89.992686
_cell_angle_beta	89.976791
_cell_angle_gamma	83.317492
loop_
_atom_site_label
_atom_site_type_symbol
_atom_site_fract_x
_atom_site_fract_y
_atom_site_fract_z
O1	O	0.921629	0.104784	-0.062837
O2	O	1.421629	0.604784	0.437163
O3	O	0.719406	0.118919	-0.062786
O4	O	1.219406	0.618919	0.437214
O5	O	0.826040	-0.010445	-0.062806
O6	O	1.326040	0.489555	0.437194
O7	O	0.814995	0.234147	-0.062817
O8	O	1.314995	0.734147	0.437183
O9	O	0.826021	-0.010451	0.062382
O10	O	1.326021	0.489549	0.562382
O11	O	0.719387	0.118912	0.062403
O12	O	1.219387	0.618912	0.562403
O13	O	0.921610	0.104777	0.062351
O14	O	1.421610	0.604777	0.562351
Cu15	Cu	0.820497	0.111844	0.073808
Cu16	Cu	1.320497	0.611844	0.573808
Cu17	Cu	0.820519	0.111852	-0.074242
Cu18	Cu	1.320519	0.611852	0.425758
O19	O	0.814976	0.234141	0.062372
O20	O	1.314976	0.734141	0.562372
C21	C	0.693519	0.118461	-0.000185
C22	C	1.193519	0.618461	0.499815
C23	C	0.616411	0.117095	-0.000165
C24	C	1.116411	0.617095	0.499835
C25	C	0.571915	0.193000	-0.000181
C26	C	1.071915	0.693000	0.499819
C27	C	0.499465	0.191717	-0.000189
C28	C	0.999465	0.691717	0.499811
C29	C	0.471514	0.114526	-0.000197
C30	C	0.971514	0.614526	0.499803
C31	C	0.516020	0.038611	-0.000178
C32	C	1.016020	0.538611	0.499822
C33	C	0.588469	0.039896	-0.000162
C34	C	1.088469	0.539896	0.499838
C35	C	0.363099	0.053847	-0.044079
C36	C	0.863099	0.553847	0.455921
C37	C	0.290651	0.052565	-0.044099
C38	C	0.790651	0.552565	0.455901
C39	C	0.248058	0.110560	-0.000242
C40	C	0.748058	0.610560	0.499758
C41	C	0.277920	0.169850	0.043625
C42	C	0.777920	0.669850	0.543625
C43	C	0.350369	0.171135	0.043641
C44	C	0.850369	0.671135	0.543641
C45	C	0.392956	0.113124	-0.000214
C46	C	0.892956	0.613124	0.499786
C47	C	0.125002	0.185079	-0.000265
C48	C	0.625002	0.685079	0.499735
C49	C	0.052550	0.183793	-0.000269
C50	C	0.552550	0.683793	0.499731
C51	C	0.069107	0.030684	-0.000265
C52	C	0.569107	0.530684	0.499735
C53	C	0.141557	0.031972	-0.000254
C54	C	0.641557	0.531972	0.499746
C55	C	0.169500	0.109172	-0.000258
C56	C	0.669500	0.609172	0.499742
C57	C	0.825572	-0.041740	-0.000212
C58	C	1.325572	0.458260	0.499788
C59	C	0.824197	-0.134981	-0.000211
C60	C	1.324197	0.365019	0.499789
C61	C	0.754815	-0.349571	-0.000204
C62	C	1.254815	0.150429	0.499796
C63	C	0.787024	-0.410715	0.061514
C64	C	1.287024	0.089285	0.561514
C65	C	0.821710	-0.305697	-0.000216
C66	C	1.321710	0.194303	0.499784
C67	C	0.787059	-0.410692	-0.061912
C68	C	1.287059	0.089308	0.438088
C69	C	0.819303	-0.470601	-0.000224
C70	C	1.319303	0.029399	0.499776
C71	C	0.853938	-0.365614	0.061552
C72	C	1.353938	0.134386	0.561552
C73	C	0.853963	-0.365585	-0.061929
C74	C	1.353963	0.134415	0.438071
C75	C	0.886222	-0.426712	-0.000197
C76	C	1.386222	0.073288	0.499803
C77	C	0.823095	-0.210700	-0.000211
C78	C	1.323095	0.289300	0.499789
C79	C	0.817924	-0.565597	-0.000224
C80	C	1.317924	-0.065597	0.499776
C81	C	0.947497	0.105235	-0.000251
C82	C	1.447497	0.605235	0.499749
C83	C	1.024605	0.106600	-0.000276
C84	C	1.524605	0.606600	0.499724
C85	C	0.815444	0.265436	-0.000225
C86	C	1.315444	0.765436	0.499775
C87	C	0.816819	0.358677	-0.000230
C88	C	1.316819	0.858677	0.499770
N89	N	0.820486	0.111838	0.177938
N90	N	1.320486	0.611838	0.677938
N91	N	0.820535	0.111851	-0.178373
N92	N	1.320535	0.611851	0.321627
C93	C	0.867719	0.054584	0.217316
C94	C	1.367719	0.554584	0.717316
C95	C	0.867723	0.054580	0.296118
C96	C	1.367723	0.554580	0.796118
C97	C	0.820501	0.111845	0.335539
C98	C	1.320501	0.611845	0.835539
C99	C	0.773259	0.169103	0.296151
C100	C	1.273259	0.669103	0.796151
C101	C	0.773252	0.169100	0.217351
C102	C	1.273252	0.669100	0.717351
C103	C	0.811404	0.188378	0.460375
C104	C	1.311404	0.688378	0.960375
C105	C	0.811416	0.188382	0.539173
C106	C	1.311416	0.688382	1.039173
C107	C	0.820520	0.111855	0.578585
C108	C	1.320520	0.611855	1.078585
C109	C	0.829626	0.035319	0.539188
C110	C	1.329626	0.535319	1.039188
C111	C	0.829618	0.035316	0.460387
C112	C	1.329618	0.535316	0.960387
C113	C	0.820503	0.111854	0.420984
C114	C	1.320503	0.611854	0.920984
C115	C	0.867759	0.054592	0.703409
C116	C	1.367759	0.554592	1.203409
C117	C	0.867759	0.054587	0.782212
C118	C	1.367759	0.554587	1.282212
C119	C	0.773298	0.169117	0.782244
C120	C	1.273298	0.669117	1.282244
C121	C	0.773295	0.169115	0.703442
C122	C	1.273295	0.669115	1.203442
C123	C	0.820530	0.111853	0.664029
C124	C	1.320530	0.611853	1.164029
H125	H	0.463229	0.253530	-0.000199
H126	H	0.963229	0.753530	0.499801
H127	H	0.177787	-0.029838	-0.000246
H128	H	0.677787	0.470162	0.499754
O129	O	0.409037	-0.008704	-0.091388
O130	O	0.909037	0.491296	0.408612
H131	H	0.376101	-0.050136	-0.121904
H132	H	0.876101	0.449864	0.378096
H133	H	0.624699	-0.021917	-0.000150
H134	H	1.124699	0.478083	0.499850
H135	H	0.594661	0.255862	-0.000185
H136	H	1.094661	0.755862	0.499815
O137	O	0.485877	-0.044647	-0.000180
O138	O	0.985877	0.455353	0.499820
H139	H	0.503785	-0.081113	-0.051195
H140	H	1.003785	0.418887	0.448805
H141	H	0.734809	0.215728	0.328251
H142	H	1.234809	0.715728	0.828251
O143	O	0.749580	-0.437164	-0.131022
O144	O	1.249580	0.062836	0.368978
H145	H	0.776859	-0.418208	-0.182215
H146	H	1.276859	0.081792	0.317785
H147	H	0.699288	-0.316049	-0.000128
H148	H	1.199288	0.183951	0.499872
H149	H	0.243242	0.217075	0.079338
H150	H	0.743242	0.717075	0.579338
O151	O	0.749544	-0.437212	0.130652
O152	O	1.249544	0.062788	0.630652
H153	H	0.695015	-0.406014	0.130541
H154	H	1.195015	0.093986	0.630541
O155	O	0.891380	-0.339288	0.130740
O156	O	1.391380	0.160712	0.630740
H157	H	0.908986	-0.395923	0.165095
H158	H	1.408986	0.104077	0.665095
O159	O	0.839253	-0.047234	0.417898
O160	O	1.339253	0.452766	0.917898
H161	H	0.837656	-0.034377	0.356484
H162	H	1.337656	0.465623	0.856484
H163	H	0.941797	-0.460084	-0.000176
H164	H	1.441797	0.039916	0.499824
O165	O	0.801609	0.270926	0.581665
O166	O	1.301609	0.770926	1.081665
H167	H	0.795268	0.324139	0.541023
H168	H	1.295268	0.824139	1.041023
H169	H	0.882241	-0.345560	-0.114123
H170	H	1.382241	0.154440	0.385877
H171	H	0.803978	0.250700	0.428292
H172	H	1.303978	0.750700	0.928292
H173	H	0.906179	0.007956	0.185228
H174	H	1.406179	0.507956	0.685228
H175	H	0.734788	0.215724	0.185289
H176	H	1.234788	0.715724	0.685289
O177	O	0.918676	-0.007166	0.338605
O178	O	1.418676	0.492834	0.838605
H179	H	0.951523	-0.046979	0.297960
H180	H	1.451523	0.453021	0.797960
O181	O	0.839440	-0.047231	0.581681
O182	O	1.339440	0.452769	1.081681
H183	H	0.837905	-0.034376	0.643094
H184	H	1.337905	0.465624	1.143094
O185	O	0.382585	0.235047	0.090983
O186	O	0.882585	0.735047	0.590983
H187	H	0.340803	0.275149	0.121492
H188	H	0.840803	0.775149	0.621492
H189	H	0.147754	0.247939	-0.000257
H190	H	0.647754	0.747939	0.499743
O191	O	0.722352	0.230869	0.660962
O192	O	1.222352	0.730869	1.160962
H193	H	0.751584	0.271598	0.625031
H194	H	1.251584	0.771598	1.125031
H195	H	0.046351	-0.032167	-0.000319
H196	H	0.546351	0.467833	0.499681
O197	O	0.004551	0.265665	-0.000283
O198	O	0.504551	0.765665	0.499717
H199	H	0.036157	0.319558	-0.000289
H200	H	0.536157	0.819558	0.499711
H201	H	0.906219	0.007963	0.671318
H202	H	1.406219	0.507963	1.171318
O203	O	0.258441	-0.011376	-0.091412
O204	O	0.758441	0.488624	0.408588
H205	H	0.229686	-0.051547	-0.054424
H206	H	0.729686	0.448453	0.445576
H207	H	0.906219	0.007959	0.814274
H208	H	1.406219	0.507959	1.314274
H209	H	0.734846	0.215740	0.814340
H210	H	1.234846	0.715740	1.314340
