data_functionalizedCrystal
_audit_creation_method	'MofGen! by Chris Wilmer'
_symmetry_space_group_name_H-M	'P1'
_symmetry_Int_Tables_number	1
_symmetry_cell_setting	triclinic
loop_
_symmetry_equiv_pos_as_xyz
  x,y,z
_cell_length_a	10.489746
_cell_length_b	11.026607
_cell_length_c	10.065875
_cell_angle_alpha	79.268236
_cell_angle_beta	81.165185
_cell_angle_gamma	83.436341
loop_
_atom_site_label
_atom_site_type_symbol
_atom_site_fract_x
_atom_site_fract_y
_atom_site_fract_z
O1	O	1.746376	-0.153889	-0.113395
O2	O	1.378725	-0.169982	-0.113417
O3	O	1.532080	0.014984	-0.113403
O4	O	1.593022	-0.338855	-0.113409
O5	O	1.502870	-0.020430	0.113583
O6	O	1.349515	-0.205395	0.113569
O7	O	1.717167	-0.189302	0.113591
Zn8	Zn	1.528703	-0.202972	0.149619
Zn9	Zn	1.567188	-0.156313	-0.149445
O10	O	1.563812	-0.374268	0.113577
C11	C	1.316321	-0.186471	0.000073
C12	C	1.173892	-0.182829	0.000064
C13	C	0.994669	-0.062987	0.000085
C14	C	1.070842	-0.140364	0.111996
C15	C	1.099602	-0.105478	-0.111794
C16	C	0.996286	-0.253799	0.112101
C17	C	1.025050	-0.218880	-0.111790
C18	C	1.101188	-0.296345	0.000148
C19	C	1.506232	0.042587	0.000088
C20	C	1.472718	0.177595	0.000081
C21	C	1.779571	-0.172813	0.000098
C22	C	1.922001	-0.176454	0.000098
C23	C	1.589660	-0.401871	0.000083
C24	C	1.623175	-0.536878	0.000081
N25	N	1.502447	-0.234814	0.353722
C26	C	1.565258	0.250590	0.000084
C27	C	1.530622	0.390129	0.000077
N28	N	1.593452	-0.124461	-0.353548
C29	C	1.558043	-0.167384	0.421506
C30	C	1.537848	-0.191901	0.578671
H31	H	0.948231	0.035658	0.000200
C32	C	1.642520	-0.064851	0.342723
N33	N	1.706142	0.012385	0.283385
H34	H	1.656000	-0.048572	0.588137
H35	H	1.091606	-0.107227	0.206614
C36	C	1.388938	0.445250	0.000071
N37	N	1.282224	0.486769	0.000070
H38	H	1.670125	0.209778	0.000099
C39	C	1.331042	0.232722	0.000074
N40	N	1.224327	0.274241	0.000073
C41	C	0.935577	-0.338423	0.240072
N42	N	0.889848	-0.402156	0.336462
C43	C	0.996942	-0.263583	-0.239620
N44	N	0.975767	-0.297241	-0.335912
H45	H	1.147376	-0.395091	0.000208
H46	H	1.144680	-0.042796	-0.206409
C47	C	1.417939	-0.337322	0.432505
N48	N	1.354285	-0.414533	0.491843
H49	H	1.728064	0.422335	-0.000015
H50	H	1.475289	-0.267781	0.636986
