data_functionalizedCrystal
_audit_creation_method	'MofGen! by Chris Wilmer'
_symmetry_space_group_name_H-M	'P1'
_symmetry_Int_Tables_number	1
_symmetry_cell_setting	triclinic
loop_
_symmetry_equiv_pos_as_xyz
  x,y,z
_cell_length_a	14.519731
_cell_length_b	14.519709
_cell_length_c	12.376457
_cell_angle_alpha	78.691279
_cell_angle_beta	78.696257
_cell_angle_gamma	96.315502
loop_
_atom_site_label
_atom_site_type_symbol
_atom_site_fract_x
_atom_site_fract_y
_atom_site_fract_z
O1	O	-0.103273	1.241502	-0.093844
O2	O	-0.117503	0.973032	-0.093876
O3	O	0.023850	1.114377	-0.093867
O4	O	-0.244627	1.100158	-0.093853
O5	O	-0.011440	1.079053	0.094143
O6	O	-0.152793	0.937709	0.094133
O7	O	-0.138563	1.206179	0.094166
Zn8	Zn	-0.151281	1.066335	0.124000
Zn9	Zn	-0.104785	1.112876	-0.123711
O10	O	-0.279917	1.064834	0.094157
C11	C	-0.134484	0.921012	0.000124
C12	C	-0.132493	0.818633	0.000111
C13	C	-0.125184	0.443727	0.000162
C14	C	-0.127213	0.548038	0.000147
C15	C	-0.128838	0.631177	0.000135
C16	C	-0.130869	0.735494	0.000123
C17	C	-0.296632	1.083162	0.000154
C18	C	-0.399013	1.085157	0.000160
C19	C	-0.482156	1.086779	0.000156
C20	C	-0.586463	1.088808	0.000146
C21	C	-0.669600	1.090418	0.000137
C22	C	-0.773914	1.092446	0.000128
C23	C	0.040566	1.096050	0.000133
C24	C	0.142948	1.094056	0.000119
C25	C	-0.121582	1.258200	0.000163
C26	C	-0.123571	1.360580	0.000169
N27	N	-0.183013	1.034580	0.293057
N28	N	-0.073046	1.144639	-0.292767
C29	C	0.000632	1.218354	0.648054
C30	C	0.022842	1.240575	0.529715
C31	C	-0.028620	1.189078	0.470545
C32	C	-0.102295	1.115356	0.529724
C33	C	-0.124512	1.093138	0.648074
C34	C	-0.153764	1.063862	0.470565
C35	C	-0.227439	0.990141	0.529745
C36	C	-0.249652	0.967926	0.648083
C37	C	-0.198190	1.019423	0.707254
C38	C	-0.131547	1.086080	0.352215
C39	C	-0.256692	0.960864	0.352236
C40	C	-0.278901	0.938644	0.470575
H41	H	-0.071561	1.146104	0.304042
H42	H	0.082827	1.300598	0.481536
C43	C	-0.312731	0.905040	0.288069
C44	C	-0.408790	0.914762	0.316832
C45	C	-0.460438	0.863368	0.257726
H46	H	-0.306336	0.839804	0.307421
H47	H	-0.289009	0.928833	0.209101
H48	H	-0.432505	0.890965	0.395782
H49	H	-0.415214	0.979987	0.297477
H50	H	-0.436715	0.887161	0.178759
H51	H	-0.454034	0.798135	0.277084
H52	H	-0.525617	0.869965	0.277226
C53	C	0.056590	1.274095	0.712362
C54	C	0.100414	1.212121	0.780288
C55	C	0.151982	1.263441	0.839537
H56	H	0.014748	1.303874	0.758616
H57	H	0.103702	1.321162	0.660213
H58	H	0.053307	1.165072	0.832431
H59	H	0.142270	1.182341	0.734062
H60	H	0.199094	1.310508	0.787388
H61	H	0.110134	1.293218	0.885785
H62	H	0.181730	1.221401	0.885623
H63	H	-0.309649	0.907905	0.696268
C64	C	-0.004328	1.213308	0.342062
C65	C	0.071224	1.288874	0.302899
C66	C	0.093642	1.311212	0.184543
H67	H	-0.058191	1.231111	0.315144
H68	H	0.013511	1.159398	0.315259
H69	H	0.053382	1.342773	0.329690
H70	H	0.125103	1.271092	0.329786
H71	H	0.111481	1.257302	0.157740
H72	H	0.039774	1.329011	0.157636
H73	H	0.144912	1.362479	0.157956
C74	C	-0.358892	0.858675	0.535038
C75	C	-0.367342	0.850260	0.651339
C76	C	-0.441027	0.776612	0.710758
H77	H	-0.345186	0.800684	0.515789
H78	H	-0.416858	0.872426	0.515713
H79	H	-0.309389	0.836502	0.670656
H80	H	-0.381062	0.908231	0.670622
H81	H	-0.498993	0.790364	0.691433
H82	H	-0.427314	0.718627	0.691500
H83	H	-0.446776	0.770899	0.789674
H84	H	-0.216270	1.001329	0.803615
