data_functionalizedCrystal
_audit_creation_method	'MofGen! by Chris Wilmer'
_symmetry_space_group_name_H-M	'P1'
_symmetry_Int_Tables_number	1
_symmetry_cell_setting	triclinic
loop_
_symmetry_equiv_pos_as_xyz
  x,y,z
_cell_length_a	19.805407
_cell_length_b	12.645330
_cell_length_c	19.805399
_cell_angle_alpha	89.978279
_cell_angle_beta	89.980427
_cell_angle_gamma	90.017692
loop_
_atom_site_label
_atom_site_type_symbol
_atom_site_fract_x
_atom_site_fract_y
_atom_site_fract_z
Zn1	Zn	1.034777	-0.422064	-0.382747
Zn2	Zn	1.534777	0.077936	0.117253
Zn3	Zn	1.034709	-0.599342	-0.269571
Zn4	Zn	1.534709	-0.099342	0.230429
Zn5	Zn	0.921591	-0.422093	-0.269572
Zn6	Zn	1.421591	0.077907	0.230428
Zn7	Zn	0.921572	-0.599286	-0.382717
Zn8	Zn	1.421572	-0.099286	0.117283
O9	O	0.978162	-0.510696	-0.326152
O10	O	1.478162	-0.010696	0.173848
O11	O	1.129484	-0.445592	-0.367746
O12	O	1.629484	0.054408	0.132254
O13	O	1.019683	-0.575865	-0.174854
O14	O	1.519683	-0.075865	0.325146
O15	O	0.936642	-0.273742	-0.284598
O16	O	1.436642	0.226258	0.215402
O17	O	1.129434	-0.575837	-0.284596
O18	O	1.629434	-0.075837	0.215404
O19	O	1.019799	-0.273721	-0.367747
O20	O	1.519799	0.226279	0.132253
O21	O	0.936576	-0.445641	-0.174855
O22	O	1.436576	0.054359	0.325145
O23	O	0.826872	-0.445587	-0.284569
O24	O	1.326872	0.054413	0.215431
O25	O	0.936609	-0.575741	-0.477438
O26	O	1.436609	-0.075741	0.022562
O27	O	0.826858	-0.575769	-0.367696
O28	O	1.326858	-0.075769	0.132304
O29	O	1.019780	-0.445537	-0.477460
O30	O	1.519780	0.054463	0.022540
O31	O	1.019664	-0.747682	-0.284567
O32	O	1.519664	-0.247682	0.215433
O33	O	0.936543	-0.747641	-0.367695
O34	O	1.436543	-0.247641	0.132305
C35	C	0.802306	-0.510676	-0.326130
C36	C	1.302306	-0.010676	0.173870
C37	C	0.727074	-0.510693	-0.326137
C38	C	1.227074	-0.010693	0.173863
C39	C	0.691740	-0.578581	-0.369351
C40	C	1.191740	-0.078581	0.130649
C41	C	0.621052	-0.578583	-0.369361
C42	C	1.121052	-0.078583	0.130639
C43	C	0.585699	-0.510701	-0.326152
C44	C	1.085699	-0.010701	0.173848
C45	C	0.621037	-0.442805	-0.282935
C46	C	1.121037	0.057195	0.217065
C47	C	0.691725	-0.442799	-0.282930
C48	C	1.191725	0.057201	0.217070
C49	C	0.335964	-0.442829	-0.282958
C50	C	0.835964	0.057171	0.217042
C51	C	0.265272	-0.442843	-0.282965
C52	C	0.765272	0.057157	0.217035
C53	C	0.265292	-0.578613	-0.369388
C54	C	0.765292	-0.078613	0.130612
C55	C	0.335979	-0.578606	-0.369383
C56	C	0.835979	-0.078606	0.130617
C57	C	0.371311	-0.510707	-0.326169
C58	C	0.871311	-0.010707	0.173831
C59	C	0.447960	-0.510705	-0.326160
C60	C	0.947960	-0.010705	0.173840
C61	C	0.509051	-0.510708	-0.326157
C62	C	1.009051	-0.010708	0.173843
C63	C	0.978113	-0.786126	-0.326142
C64	C	1.478113	-0.286126	0.173858
C65	C	0.978154	-0.903956	-0.326161
C66	C	1.478154	-0.403956	0.173839
C67	C	0.926078	-1.071538	-0.378618
C68	C	1.426078	-0.571538	0.121382
C69	C	0.925811	-0.948979	-0.378450
C70	C	1.425811	-0.448979	0.121550
C71	C	0.958847	-0.948544	-0.254828
C72	C	1.458847	-0.448544	0.245172
C73	C	0.958530	-1.071142	-0.255147
C74	C	1.458530	-0.571142	0.244853
C75	C	1.049854	-1.071047	-0.344457
C76	C	1.549854	-0.571047	0.155543
C77	C	1.049415	-0.948440	-0.346017
C78	C	1.549415	-0.448440	0.153983
C79	C	1.154705	-0.510717	-0.326174
C80	C	1.654705	-0.010717	0.173826
C81	C	1.229937	-0.510726	-0.326184
C82	C	1.729937	-0.010726	0.173816
C83	C	0.978200	-0.510629	-0.502695
C84	C	1.478200	-0.010629	-0.002695
C85	C	0.978216	-0.510601	-0.577927
C86	C	1.478216	-0.010601	-0.077927
C87	C	0.978230	-0.234191	-0.326176
C88	C	1.478230	0.265809	0.173824
C89	C	0.978259	-0.116361	-0.326186
C90	C	1.478259	0.383639	0.173814
C91	C	1.021524	-0.442800	-0.613283
C92	C	1.521524	0.057200	-0.113283
C93	C	1.021531	-0.442770	-0.683972
C94	C	1.521531	0.057230	-0.183972
C95	C	0.978233	-0.510546	-0.719302
C96	C	1.478233	-0.010546	-0.219302
C97	C	0.934920	-0.578349	-0.683941
C98	C	1.434920	-0.078349	-0.183941
C99	C	0.934910	-0.578374	-0.613253
C100	C	1.434910	-0.078374	-0.113253
C101	C	0.934958	-0.578250	-0.969014
C102	C	1.434958	-0.078250	-0.469014
C103	C	0.934973	-0.578223	-1.039706
C104	C	1.434973	-0.078223	-0.539706
C105	C	1.021579	-0.442646	-1.039732
C106	C	1.521579	0.057354	-0.539732
C107	C	1.021570	-0.442671	-0.969045
C108	C	1.521570	0.057329	-0.469045
C109	C	0.978255	-0.510470	-0.933690
C110	C	1.478255	-0.010470	-0.433690
C111	C	0.978247	-0.510501	-0.857041
C112	C	1.478247	-0.010501	-0.357041
C113	C	0.978244	-0.510521	-0.795949
C114	C	1.478244	-0.010521	-0.295949
C115	C	0.978163	-0.510686	-0.150296
C116	C	1.478163	-0.010686	0.349704
C117	C	0.978278	-0.510416	-0.075064
C118	C	1.478278	-0.010416	0.424936
H119	H	0.720492	-0.387512	-0.247744
H120	H	1.220492	0.112488	0.252256
H121	H	0.899664	-0.633530	-0.712712
H122	H	1.399664	-0.133530	-0.212712
O123	O	0.855508	-0.910233	-0.362413
O124	O	1.355508	-0.410233	0.137587
H125	H	0.856849	-0.861721	-0.315739
H126	H	1.356849	-0.361721	0.184261
O127	O	0.729874	-0.651784	-0.415961
O128	O	1.229874	-0.151784	0.084039
H129	H	0.716291	-0.734966	-0.404275
H130	H	1.216291	-0.234966	0.095725
H131	H	0.899712	-0.633416	-1.068470
H132	H	1.399712	-0.133416	-0.568470
O133	O	1.068710	-0.909815	-0.415549
O134	O	1.568710	-0.409815	0.084451
H135	H	1.030715	-0.937435	-0.452766
H136	H	1.530715	-0.437435	0.047234
O137	O	1.103626	-0.907886	-0.299099
O138	O	1.603626	-0.407886	0.200901
H139	H	1.080522	-0.855157	-0.260724
H140	H	1.580522	-0.355157	0.239276
H141	H	0.899638	-0.633574	-0.584467
H142	H	1.399638	-0.133574	-0.084467
H143	H	0.592247	-0.387530	-0.247757
H144	H	1.092247	0.112470	0.252243
O145	O	1.068286	-0.369508	-1.077877
O146	O	1.568286	0.130492	-0.577877
H147	H	1.121404	-0.387705	-1.064330
H148	H	1.621404	0.112295	-0.564330
H149	H	0.906193	-1.099832	-0.239669
H150	H	1.406193	-0.599832	0.260331
H151	H	1.056830	-0.387484	-0.940283
H152	H	1.556830	0.112516	-0.440283
H153	H	0.592286	-0.633865	-0.404549
H154	H	1.092286	-0.133865	0.095451
O155	O	0.888208	-0.651319	-0.930884
O156	O	1.388208	-0.151319	-0.430884
H157	H	0.858095	-0.698428	-0.967329
H158	H	1.358095	-0.198428	-0.467329
O159	O	0.890244	-0.908005	-0.233949
O160	O	1.390244	-0.408005	0.266051
H161	H	0.851920	-0.933898	-0.271334
H162	H	1.351920	-0.433898	0.228666
O163	O	1.101390	-1.109675	-0.293987
O164	O	1.601390	-0.609675	0.206013
H165	H	1.076174	-1.160869	-0.256058
H166	H	1.576174	-0.660869	0.243942
H167	H	1.067466	-1.101895	-0.395589
H168	H	1.567466	-0.601895	0.104411
O169	O	1.068231	-0.369701	-0.575183
O170	O	1.568231	0.130299	-0.075183
H171	H	1.060956	-0.381115	-0.520089
H172	H	1.560956	0.118885	-0.020089
H173	H	0.364760	-0.633886	-0.404566
H174	H	0.864760	-0.133886	0.095434
O175	O	0.227184	-0.651839	-0.416009
O176	O	0.727184	-0.151839	0.083991
H177	H	0.172091	-0.640434	-0.408763
H178	H	0.672091	-0.140434	0.091237
H179	H	1.056799	-0.387562	-0.712756
H180	H	1.556799	0.112438	-0.212756
O181	O	0.227136	-0.369615	-0.236366
O182	O	0.727136	0.130385	0.263634
H183	H	0.263580	-0.322390	-0.206321
H184	H	0.763580	0.177610	0.293679
H185	H	0.873332	-1.102438	-0.366668
H186	H	1.373332	-0.602438	0.133332
H187	H	0.937890	-0.918829	-0.431342
H188	H	1.437890	-0.418829	0.068658
O189	O	0.374070	-0.369632	-0.236330
O190	O	0.874070	0.130368	0.263670
H191	H	0.337608	-0.322452	-0.206275
H192	H	0.837608	0.177548	0.293725
O193	O	0.941679	-1.111012	-0.448851
O194	O	1.441679	-0.611012	0.051149
H195	H	0.986823	-1.162933	-0.447150
H196	H	1.486823	-0.662933	0.052850
H197	H	0.994887	-1.100796	-0.214749
H198	H	1.494887	-0.600796	0.285251
O199	O	1.007590	-0.909925	-0.201660
O200	O	1.507590	-0.409925	0.298340
H201	H	1.006293	-0.822227	-0.199720
H202	H	1.506293	-0.322227	0.300280
