data_functionalizedCrystal
_audit_creation_method	'MofGen! by Chris Wilmer'
_symmetry_space_group_name_H-M	'P1'
_symmetry_Int_Tables_number	1
_symmetry_cell_setting	triclinic
loop_
_symmetry_equiv_pos_as_xyz
  x,y,z
_cell_length_a	12.837932
_cell_length_b	17.019294
_cell_length_c	11.295483
_cell_angle_alpha	90.223525
_cell_angle_beta	85.460332
_cell_angle_gamma	89.098799
loop_
_atom_site_label
_atom_site_type_symbol
_atom_site_fract_x
_atom_site_fract_y
_atom_site_fract_z
O1	O	1.383584	0.199280	-0.119459
O2	O	1.883584	0.699280	0.380541
O3	O	1.081720	0.189199	-0.118427
O4	O	1.581720	0.689199	0.381573
O5	O	1.240248	0.080603	-0.107285
O6	O	1.740248	0.580603	0.392715
O7	O	1.225056	0.307876	-0.130601
O8	O	1.725056	0.807876	0.369399
O9	O	1.226324	0.090125	0.089789
O10	O	1.726324	0.590125	0.589789
O11	O	1.067796	0.198721	0.078647
O12	O	1.567796	0.698721	0.578647
O13	O	1.369660	0.208802	0.077615
O14	O	1.869660	0.708802	0.577615
Cu15	Cu	1.217456	0.204631	0.096126
Cu16	Cu	1.717456	0.704631	0.596126
Cu17	Cu	1.233923	0.193370	-0.136937
Cu18	Cu	1.733923	0.693370	0.363063
O19	O	1.211132	0.317398	0.066473
O20	O	1.711132	0.817398	0.566473
C21	C	1.036118	0.190555	-0.019541
C22	C	1.536118	0.690555	0.480459
C23	C	0.920982	0.180400	-0.018500
C24	C	1.420982	0.680400	0.481500
C25	C	0.770651	0.095519	-0.009790
C26	C	1.270651	0.595519	0.490210
C27	C	0.878832	0.105056	-0.010769
C28	C	1.378832	0.605056	0.489231
C29	C	0.854943	0.246211	-0.025250
C30	C	1.354943	0.746211	0.474750
C31	C	0.746762	0.236675	-0.024271
C32	C	1.246762	0.736675	0.475729
C33	C	0.704620	0.161326	-0.016543
C34	C	1.204620	0.661326	0.483457
C35	C	0.596438	0.151789	-0.015572
C36	C	1.096438	0.651789	0.484428
C37	C	0.572550	0.292944	-0.030044
C38	C	1.072550	0.792944	0.469956
C39	C	0.680731	0.302481	-0.031023
C40	C	1.180731	0.802481	0.468977
C41	C	1.232435	0.056072	-0.005745
C42	C	1.732435	0.556072	0.494255
C43	C	1.229888	-0.031210	0.003202
C44	C	1.729888	0.468790	0.503202
C45	C	1.236284	-0.077401	-0.100019
C46	C	1.736284	0.422599	0.399981
C47	C	1.233884	-0.159411	-0.091609
C48	C	1.733884	0.340589	0.408391
C49	C	1.225096	-0.195229	0.020023
C50	C	1.725096	0.304771	0.520023
C51	C	1.218697	-0.149032	0.123252
C52	C	1.718697	0.350968	0.623252
C53	C	1.221089	-0.067023	0.114840
C54	C	1.721089	0.432977	0.614840
C55	C	1.217485	-0.442583	0.050794
C56	C	1.717485	0.057417	0.550794
C57	C	1.215096	-0.524599	0.059197
C58	C	1.715096	-0.024599	0.559197
C59	C	1.230282	-0.534972	-0.155665
C60	C	1.730282	-0.034972	0.344335
C61	C	1.232680	-0.452961	-0.164066
C62	C	1.732680	0.047039	0.335934
C63	C	1.226275	-0.406771	-0.060837
C64	C	1.726275	0.093229	0.439163
C65	C	1.222646	-0.279057	0.028622
C66	C	1.722646	0.220943	0.528622
C67	C	1.228718	-0.322945	-0.069438
C68	C	1.728718	0.177055	0.430562
C69	C	1.415262	0.207446	-0.021273
C70	C	1.915262	0.707446	0.478727
C71	C	1.530398	0.217601	-0.022322
C72	C	2.030398	0.717601	0.477678
C73	C	1.218945	0.341929	-0.035069
C74	C	1.718945	0.841929	0.464931
C75	C	1.221492	0.429210	-0.044024
C76	C	1.721492	0.929210	0.455976
N77	N	1.205882	0.212551	0.260049
N78	N	1.705882	0.712551	0.760049
N79	N	1.245505	0.185444	-0.300860
N80	N	1.745505	0.685444	0.199140
C81	C	1.328823	0.128386	0.517974
C82	C	1.828823	0.628386	1.017974
C83	C	1.320084	0.134377	0.642023
C84	C	1.820084	0.634377	1.142023
C85	C	1.179660	0.230521	0.632199
C86	C	1.679660	0.730521	1.132199
C87	C	1.188399	0.224530	0.508150
C88	C	1.688399	0.724530	1.008150
C89	C	1.262984	0.173461	0.451042
C90	C	1.762984	0.673461	0.951042
C91	C	1.271728	0.167474	0.326990
C92	C	1.771728	0.667474	0.826990
C93	C	1.131300	0.263614	0.317169
C94	C	1.631300	0.763614	0.817169
C95	C	1.122561	0.269605	0.441217
C96	C	1.622561	0.769605	0.941217
H97	H	0.562128	0.090436	-0.009284
H98	H	1.062128	0.590436	0.490716
Br99	Br	1.430056	0.059092	0.440467
Br100	Br	1.930056	0.559092	0.940467
H101	H	0.889273	0.307558	-0.031531
H102	H	1.389273	0.807558	0.468469
H103	H	0.715058	0.363829	-0.037311
H104	H	1.215058	0.863829	0.462689
Br105	Br	0.713453	-0.006737	0.000687
Br106	Br	1.213453	0.493263	0.500687
Br107	Br	0.482931	0.382259	-0.039220
Br108	Br	0.982931	0.882259	0.460780
Br109	Br	1.242563	-0.222096	-0.231702
Br110	Br	1.742563	0.277904	0.268298
H111	H	0.932591	0.051469	-0.005270
H112	H	1.432591	0.551469	0.494730
Br113	Br	1.244615	-0.404357	-0.315572
Br114	Br	1.744615	0.095643	0.184428
Br115	Br	1.041953	0.324798	0.226320
Br116	Br	1.541953	0.824798	0.726320
Br117	Br	1.078429	0.299814	0.709715
Br118	Br	1.578429	0.799814	1.209715
Br119	Br	1.248223	-0.028799	-0.251528
Br120	Br	1.748223	0.471201	0.248472
Br121	Br	1.372953	0.098172	0.249488
Br122	Br	1.872953	0.598172	0.749488
Br123	Br	1.238975	-0.597662	-0.295753
Br124	Br	1.738975	-0.097662	0.204247
H125	H	1.212291	-0.404985	0.134850
H126	H	1.712291	0.095015	0.634850
H127	H	1.207934	-0.553758	0.150106
H128	H	1.707934	-0.053758	0.650106
Br129	Br	1.206752	-0.197640	0.274755
Br130	Br	1.706752	0.302360	0.774755
Br131	Br	1.212403	-0.004334	0.254932
Br132	Br	1.712403	0.495666	0.754932
Br133	Br	1.210709	-0.327673	0.180119
Br134	Br	1.710709	0.172327	0.680119
H135	H	1.373695	0.097671	0.696517
H136	H	1.873695	0.597671	1.196517
H137	H	1.235866	-0.293778	-0.160328
H138	H	1.735866	0.206222	0.339672
Br139	Br	1.021338	0.338906	0.518729
Br140	Br	1.521338	0.838906	1.018729
