data_functionalizedCrystal
_audit_creation_method	'MofGen! by Chris Wilmer'
_symmetry_space_group_name_H-M	'P1'
_symmetry_Int_Tables_number	1
_symmetry_cell_setting	triclinic
loop_
_symmetry_equiv_pos_as_xyz
  x,y,z
_cell_length_a	10.723022
_cell_length_b	19.188924
_cell_length_c	9.198806
_cell_angle_alpha	89.994752
_cell_angle_beta	89.996352
_cell_angle_gamma	83.804595
loop_
_atom_site_label
_atom_site_type_symbol
_atom_site_fract_x
_atom_site_fract_y
_atom_site_fract_z
O1	O	1.655152	0.097917	-0.120890
O2	O	1.291804	0.107291	-0.120896
O3	O	1.483968	0.001016	-0.120876
O4	O	1.462988	0.204192	-0.120911
O5	O	1.483953	0.001016	0.120909
O6	O	1.291789	0.107291	0.120889
O7	O	1.655137	0.097917	0.120895
Cu8	Cu	1.473462	0.102604	0.142969
Cu9	Cu	1.473480	0.102604	-0.142970
O10	O	1.462973	0.204192	0.120874
C11	C	1.245311	0.106609	-0.000004
C12	C	1.106799	0.104569	-0.000006
C13	C	0.887428	0.161924	-0.000018
C14	C	1.030587	0.164035	-0.000017
C15	C	1.483283	-0.024999	0.000018
C16	C	1.481247	-0.102517	0.000022
C17	C	1.480306	-0.138922	-0.131776
C18	C	1.478376	-0.211757	-0.131787
C19	C	1.477413	-0.248187	0.000007
C20	C	1.478347	-0.211773	0.131822
C21	C	1.480265	-0.138938	0.131829
N22	N	1.545403	-0.367408	0.098099
N23	N	1.543585	-0.436599	0.098083
C24	C	1.471633	-0.467633	-0.000007
N25	N	1.401584	-0.426865	-0.098103
N26	N	1.403409	-0.357669	-0.098091
C27	C	1.475333	-0.327164	0.000014
C28	C	1.468597	-0.583014	-0.131825
C29	C	1.466659	-0.655851	-0.131831
C30	C	1.466643	-0.655865	0.131781
C31	C	1.468568	-0.583030	0.131783
C32	C	1.469551	-0.546609	-0.000024
C33	C	1.701630	0.098599	-0.000001
C34	C	1.840142	0.100639	-0.000009
C35	C	1.463659	0.230207	-0.000023
C36	C	1.465694	0.307725	-0.000036
N37	N	1.473458	0.102603	0.344083
N38	N	1.473493	0.102599	-0.344084
C39	C	1.554146	0.057785	0.416288
C40	C	1.554166	0.057782	0.583700
H41	H	0.905643	0.049733	-0.000008
N42	N	1.481289	-0.101709	-0.266396
N43	N	1.482998	-0.036678	-0.266378
H44	H	1.483691	-0.010393	-0.361454
N45	N	1.469597	-0.545794	-0.266440
N46	N	1.558608	-0.511167	-0.295839
H47	H	1.559314	-0.484880	-0.390911
H48	H	1.465849	-0.685524	0.239090
N49	N	1.469557	-0.545830	0.266400
N50	N	1.471272	-0.480800	0.266389
H51	H	1.471968	-0.454526	0.361468
N52	N	1.640776	0.009647	0.338349
N53	N	1.640633	0.009715	0.202465
H54	H	1.701817	-0.024283	0.147420
N55	N	1.055739	0.038736	0.000038
N56	N	0.986470	0.023543	0.101967
H57	H	0.950401	-0.022952	0.102002
H58	H	1.623251	0.019414	0.645794
N59	N	1.386842	0.150751	0.578042
N60	N	1.426483	0.194181	0.493072
H61	H	1.365287	0.228190	0.438064
N62	N	0.805252	0.225783	-0.000053
N63	N	0.689075	0.223979	-0.000065
H64	H	0.631037	0.269081	-0.000093
N65	N	1.386792	0.150738	0.421977
N66	N	1.271413	0.149380	0.405112
H67	H	1.210199	0.183376	0.460121
N68	N	1.081679	0.229858	-0.000009
N69	N	1.197899	0.231479	0.000001
H70	H	1.233987	0.277969	0.000009
H71	H	1.477559	-0.241438	0.239129
N72	N	1.477410	-0.248943	-0.266433
N73	N	1.478282	-0.216416	-0.384104
H74	H	1.477600	-0.242677	-0.479200
H75	H	1.481026	-0.109297	0.239158
H76	H	1.465886	-0.685490	-0.239161
