data_functionalizedCrystal
_audit_creation_method	'MofGen! by Chris Wilmer'
_symmetry_space_group_name_H-M	'P1'
_symmetry_Int_Tables_number	1
_symmetry_cell_setting	triclinic
loop_
_symmetry_equiv_pos_as_xyz
  x,y,z
_cell_length_a	13.032831
_cell_length_b	12.645323
_cell_length_c	13.032721
_cell_angle_alpha	97.153264
_cell_angle_beta	90.902885
_cell_angle_gamma	82.806191
loop_
_atom_site_label
_atom_site_type_symbol
_atom_site_fract_x
_atom_site_fract_y
_atom_site_fract_z
Zn1	Zn	1.520297	-0.873412	-0.609399
Zn2	Zn	1.498329	-0.715465	-0.781373
Zn3	Zn	1.348302	-0.671226	-0.587562
Zn4	Zn	1.326445	-0.867753	-0.759446
O5	O	1.423343	-0.781964	-0.684445
O6	O	1.661297	-0.873343	-0.650528
O7	O	1.478382	-0.561248	-0.755701
O8	O	1.389459	-0.681901	-0.446553
O9	O	1.645158	-0.757300	-0.776876
O10	O	1.515822	-0.830447	-0.462597
O11	O	1.368158	-0.528746	-0.613309
O12	O	1.201488	-0.676413	-0.592047
O13	O	1.352206	-1.016852	-0.739505
O14	O	1.185430	-0.820800	-0.718330
O15	O	1.494628	-1.021010	-0.629266
O16	O	1.457187	-0.751812	-0.922371
O17	O	1.330904	-0.863697	-0.906261
C18	C	1.156143	-0.743193	-0.650440
C19	C	1.041831	-0.726634	-0.635917
C20	C	1.423429	-1.058472	-0.684375
C21	C	1.423466	-1.176303	-0.684346
C22	C	0.982936	-0.790606	-0.692025
C23	C	0.864788	-0.773494	-0.677016
C24	C	1.333670	-1.341173	-0.753291
C25	C	1.333829	-1.218687	-0.753709
C26	C	1.528091	-1.239838	-0.727541
C27	C	1.527591	-1.362429	-0.727981
C28	C	1.409716	-1.327256	-0.571893
C29	C	1.407216	-1.204373	-0.572238
C30	C	1.691586	-0.820888	-0.718584
C31	C	1.805895	-0.837475	-0.733132
C32	C	1.389318	-0.811968	-0.951633
C33	C	1.374856	-0.824853	-1.065948
C34	C	1.423326	-0.506533	-0.684448
C35	C	1.423526	-0.388699	-0.684214
C36	C	1.430946	-0.775295	-1.124857
C37	C	1.416000	-0.788611	-1.243009
C38	C	1.457529	-0.751870	-0.416218
C39	C	1.472097	-0.739046	-0.301916
H40	H	1.019983	-0.858047	-0.751169
Cl41	Cl	1.522179	-0.694574	-1.067685
H42	H	0.842936	-0.904923	-0.792278
Cl43	Cl	1.548149	-1.425651	-0.855382
H44	H	1.315775	-0.877144	-1.102986
Cl45	Cl	1.563334	-0.658318	-1.244751
Cl46	Cl	0.807606	-0.669371	-0.585684
H47	H	1.356914	-0.840906	-1.280042
H48	H	1.004785	-0.659200	-0.576766
H49	H	1.255393	-1.356914	-0.724812
Cl50	Cl	1.213379	-1.151027	-0.709509
H51	H	1.341550	-1.383620	-0.835747
H52	H	1.341823	-1.201084	-0.836692
H53	H	1.596070	-1.394815	-0.680599
H54	H	1.596234	-1.213273	-0.679425
H55	H	1.541916	-1.221449	-0.809276
H56	H	1.335480	-1.343891	-0.535208
H57	H	1.330288	-1.161219	-0.539915
H58	H	1.468981	-1.174577	-0.516942
H59	H	1.475331	-1.358062	-0.520258
