data_functionalizedCrystal
_audit_creation_method	'MofGen! by Chris Wilmer'
_symmetry_space_group_name_H-M	'P1'
_symmetry_Int_Tables_number	1
_symmetry_cell_setting	triclinic
loop_
_symmetry_equiv_pos_as_xyz
  x,y,z
_cell_length_a	12.759401
_cell_length_b	12.759399
_cell_length_c	12.759393
_cell_angle_alpha	89.967571
_cell_angle_beta	90.021162
_cell_angle_gamma	89.974630
loop_
_atom_site_label
_atom_site_type_symbol
_atom_site_fract_x
_atom_site_fract_y
_atom_site_fract_z
Zn1	Zn	1.606190	0.418156	0.594050
Zn2	Zn	1.606057	0.593875	0.418367
Zn3	Zn	1.430492	0.418216	0.418381
Zn4	Zn	1.430453	0.593799	0.594001
O5	O	1.518298	0.506011	0.506200
O6	O	1.753194	0.441472	0.570760
O7	O	1.582729	0.570630	0.271348
O8	O	1.453871	0.271187	0.441710
O9	O	1.753096	0.570572	0.441687
O10	O	1.582955	0.271143	0.570773
O11	O	1.453742	0.441574	0.271358
O12	O	1.283466	0.441500	0.441662
O13	O	1.453805	0.570442	0.741028
O14	O	1.283438	0.570500	0.570689
O15	O	1.582918	0.441398	0.741064
O16	O	1.582691	0.740886	0.441639
O17	O	1.453676	0.740830	0.570676
C18	C	1.245331	0.505999	0.506173
C19	C	1.128554	0.506020	0.506186
C20	C	0.963980	0.573291	0.573300
C21	C	1.073704	0.573290	0.573272
C22	C	1.073675	0.438754	0.439117
C23	C	0.963953	0.438762	0.439142
C24	C	0.963998	0.650961	0.650757
C25	C	1.073722	0.650959	0.650728
C26	C	1.518193	0.778979	0.506174
C27	C	1.518244	0.895755	0.506198
C28	C	1.585421	0.950504	0.573456
C29	C	1.585463	1.060228	0.573482
C30	C	1.451149	1.060444	0.438981
C31	C	1.451102	0.950722	0.438961
C32	C	1.622998	1.210054	0.697448
C33	C	1.690191	1.264807	0.764698
C34	C	1.792682	1.229095	0.780914
C35	C	1.828001	1.138633	0.729865
C36	C	1.760814	1.083886	0.662607
C37	C	1.658308	1.119595	0.646411
C38	C	1.413577	0.800895	0.314994
C39	C	1.346395	0.746145	0.247731
C40	C	1.243902	0.781855	0.231504
C41	C	1.208587	0.872321	0.282534
C42	C	1.275770	0.927070	0.349798
C43	C	1.378261	0.891353	0.366026
C44	C	1.792331	0.506024	0.506227
C45	C	1.909108	0.506029	0.506239
C46	C	1.518372	0.505905	0.780233
C47	C	1.518403	0.505860	0.897010
C48	C	1.518393	1.231978	0.506242
C49	C	1.518332	1.115201	0.506243
C50	C	1.518285	0.506041	0.233232
C51	C	1.518458	0.505790	0.116456
C52	C	1.585642	0.438660	0.951892
C53	C	1.585667	0.438622	1.061617
C54	C	1.451212	0.572993	1.061566
C55	C	1.451182	0.573025	0.951844
C56	C	1.663271	0.361086	0.951923
C57	C	1.663296	0.361048	1.061647
H58	H	0.934179	0.732309	0.628834
H59	H	1.103558	0.629253	0.732128
F60	F	1.383988	0.649869	0.193409
F61	F	1.118146	0.751986	0.612562
F62	F	0.919583	0.612985	0.751858
F63	F	1.769649	0.389517	1.100579
H64	H	1.396486	1.105212	0.384238
F65	F	1.656877	0.892008	0.645018
F66	F	1.798396	0.987616	0.608278
H67	H	1.125130	0.901398	0.269319
F68	F	0.905557	0.367183	0.367757
F69	F	1.864192	1.287372	0.852485
H70	H	1.641515	0.279722	0.922167
F71	F	1.764265	0.399204	0.907434
H72	H	1.911464	1.109571	0.743064
H73	H	1.661425	1.338462	0.806262
F74	F	1.625141	0.260048	1.106155
F75	F	1.513909	1.248058	0.680210
H76	H	1.118342	0.383989	0.384488
H77	H	1.189204	0.737269	0.176729
F78	F	1.238180	1.023351	0.404113
H79	H	1.497030	0.771801	0.328216
F80	F	1.379604	0.644533	0.893437
H81	H	1.396481	0.627673	1.106225
