data_functionalizedCrystal
_audit_creation_method	'MofGen! by Chris Wilmer'
_symmetry_space_group_name_H-M	'P1'
_symmetry_Int_Tables_number	1
_symmetry_cell_setting	triclinic
loop_
_symmetry_equiv_pos_as_xyz
  x,y,z
_cell_length_a	14.044191
_cell_length_b	23.532407
_cell_length_c	13.101039
_cell_angle_alpha	93.332685
_cell_angle_beta	86.337551
_cell_angle_gamma	88.020262
loop_
_atom_site_label
_atom_site_type_symbol
_atom_site_fract_x
_atom_site_fract_y
_atom_site_fract_z
O1	O	1.261657	0.134377	-0.085200
O2	O	1.511657	0.384377	0.164800
O3	O	1.761657	0.634377	0.414800
O4	O	2.011657	0.884377	0.664800
O5	O	0.985735	0.129420	-0.085212
O6	O	1.235735	0.379420	0.164788
O7	O	1.485735	0.629420	0.414788
O8	O	1.735735	0.879420	0.664788
O9	O	1.132014	0.049419	-0.085177
O10	O	1.382014	0.299419	0.164823
O11	O	1.632014	0.549419	0.414823
O12	O	1.882014	0.799419	0.664823
O13	O	1.115377	0.214378	-0.085235
O14	O	1.365377	0.464378	0.164765
O15	O	1.615377	0.714378	0.414765
O16	O	1.865377	0.964378	0.664765
O17	O	1.121519	0.055169	0.085250
O18	O	1.371519	0.305169	0.335250
O19	O	1.621519	0.555169	0.585250
O20	O	1.871519	0.805169	0.835250
O21	O	0.975239	0.135170	0.085215
O22	O	1.225239	0.385170	0.335215
O23	O	1.475239	0.635170	0.585215
O24	O	1.725239	0.885170	0.835215
O25	O	1.251161	0.140127	0.085227
O26	O	1.501161	0.390127	0.335227
O27	O	1.751161	0.640127	0.585227
O28	O	2.001161	0.890127	0.835227
Zn29	Zn	1.111534	0.138562	0.112280
Zn30	Zn	1.361534	0.388562	0.362280
Zn31	Zn	1.611534	0.638562	0.612280
Zn32	Zn	1.861534	0.888562	0.862280
Zn33	Zn	1.125362	0.130985	-0.112265
Zn34	Zn	1.375362	0.380985	0.137735
Zn35	Zn	1.625362	0.630985	0.387735
Zn36	Zn	1.875362	0.880985	0.637735
O37	O	1.104882	0.220128	0.085192
O38	O	1.354882	0.470128	0.335192
O39	O	1.604882	0.720128	0.585192
O40	O	1.854882	0.970128	0.835192
C41	C	0.945193	0.130127	0.000000
C42	C	1.195193	0.380127	0.250000
C43	C	1.445193	0.630127	0.500000
C44	C	1.695193	0.880127	0.750000
C45	C	0.840028	0.123659	-0.000003
C46	C	1.090028	0.373659	0.249997
C47	C	1.340028	0.623659	0.499997
C48	C	1.590028	0.873659	0.749997
C49	C	0.589421	0.157704	-0.000004
C50	C	0.839421	0.407704	0.249996
C51	C	1.089421	0.657704	0.499996
C52	C	1.339421	0.907704	0.749996
C53	C	0.647481	0.111845	0.000010
C54	C	0.897481	0.361845	0.250010
C55	C	1.147481	0.611845	0.500010
C56	C	1.397481	0.861845	0.750010
C57	C	0.754624	0.118420	0.000003
C58	C	1.004624	0.368420	0.250003
C59	C	1.254624	0.618420	0.500003
C60	C	1.504624	0.868420	0.750003
C61	C	0.482268	0.151130	0.000003
C62	C	0.732268	0.401130	0.250003
C63	C	0.982268	0.651130	0.500003
C64	C	1.232268	0.901130	0.750003
C65	C	1.126343	0.031055	0.000042
C66	C	1.376343	0.281055	0.250042
C67	C	1.626343	0.531055	0.500042
C68	C	1.876343	0.781055	0.750042
C69	C	1.125067	-0.032231	0.000057
C70	C	1.375067	0.217769	0.250057
C71	C	1.625067	0.467769	0.500057
C72	C	1.875067	0.717769	0.750057
C73	C	1.033251	-0.303378	-0.000011
C74	C	1.283251	-0.053378	0.249989
C75	C	1.533251	0.196622	0.499989
C76	C	1.783251	0.446622	0.749989
C77	C	1.034434	-0.243914	-0.000003
C78	C	1.284434	0.006086	0.249997
C79	C	1.534434	0.256086	0.499997
C80	C	1.784434	0.506086	0.749997
O81	O	0.961596	-0.211120	-0.000038
O82	O	1.211596	0.038880	0.249962
O83	O	1.461596	0.288880	0.499962
O84	O	1.711596	0.538880	0.749962
N85	N	1.121398	-0.216572	0.000013
N86	N	1.371398	0.033428	0.250013
N87	N	1.621398	0.283428	0.500013
N88	N	1.871398	0.533428	0.750013
C89	C	1.207184	-0.248699	0.000010
C90	C	1.457184	0.001301	0.250010
C91	C	1.707184	0.251301	0.500010
C92	C	1.957184	0.501301	0.750010
O93	O	1.281262	-0.219982	0.000023
O94	O	1.531262	0.030018	0.250023
O95	O	1.781262	0.280018	0.500023
O96	O	2.031262	0.530018	0.750023
C97	C	1.206001	-0.308163	-0.000005
C98	C	1.456001	-0.058163	0.249995
C99	C	1.706001	0.191837	0.499995
C100	C	1.956001	0.441837	0.749995
C101	C	1.119031	-0.335501	-0.000011
C102	C	1.369031	-0.085501	0.249989
C103	C	1.619031	0.164499	0.499989
C104	C	1.869031	0.414499	0.749989
C105	C	0.946288	-0.330717	-0.000017
C106	C	1.196288	-0.080717	0.249983
C107	C	1.446288	0.169283	0.499983
C108	C	1.696288	0.419283	0.749983
C109	C	0.945106	-0.390177	-0.000023
C110	C	1.195106	-0.140177	0.249977
C111	C	1.445106	0.109823	0.499977
C112	C	1.695106	0.359823	0.749977
C113	C	1.030886	-0.422299	-0.000023
C114	C	1.280886	-0.172299	0.249977
C115	C	1.530886	0.077701	0.499977
C116	C	1.780886	0.327701	0.749977
C117	C	1.117848	-0.394961	-0.000017
C118	C	1.367848	-0.144961	0.249983
C119	C	1.617848	0.105039	0.499983
C120	C	1.867848	0.355039	0.749983
C121	C	1.291787	-0.340288	-0.000016
C122	C	1.541787	-0.090288	0.249984
C123	C	1.791787	0.159712	0.499984
C124	C	2.041787	0.409712	0.749984
C125	C	1.290596	-0.399756	-0.000032
C126	C	1.540596	-0.149756	0.249968
C127	C	1.790596	0.100244	0.499968
C128	C	2.040596	0.350244	0.749968
C129	C	1.203626	-0.427094	-0.000037
C130	C	1.453626	-0.177094	0.249963
C131	C	1.703626	0.072906	0.499963
C132	C	1.953626	0.322906	0.749963
C133	C	1.202446	-0.486544	-0.000022
C134	C	1.452446	-0.236544	0.249978
C135	C	1.702446	0.013456	0.499978
C136	C	1.952446	0.263456	0.749978
N137	N	1.115482	-0.513885	-0.000038
N138	N	1.365482	-0.263885	0.249962
N139	N	1.615482	-0.013885	0.499962
N140	N	1.865482	0.236115	0.749962
C141	C	1.029702	-0.481763	-0.000038
C142	C	1.279702	-0.231763	0.249962
C143	C	1.529702	0.018237	0.499962
C144	C	1.779702	0.268237	0.749962
C145	C	1.209664	-0.123821	0.000040
C146	C	1.459664	0.126179	0.250040
C147	C	1.709664	0.376179	0.500040
C148	C	1.959664	0.626179	0.750040
C149	C	1.210848	-0.064358	0.000063
C150	C	1.460848	0.185642	0.250063
C151	C	1.710848	0.435642	0.500063
C152	C	1.960848	0.685642	0.750063
C153	C	1.038097	-0.059577	0.000048
C154	C	1.288097	0.190423	0.250048
C155	C	1.538097	0.440423	0.500048
C156	C	1.788097	0.690423	0.750048
C157	C	1.036913	-0.119041	0.000033
C158	C	1.286913	0.130959	0.250033
C159	C	1.536913	0.380959	0.500033
C160	C	1.786913	0.630959	0.750033
C161	C	1.122700	-0.151162	0.000025
C162	C	1.372700	0.098838	0.250025
C163	C	1.622700	0.348838	0.500025
C164	C	1.872700	0.598838	0.750025
C165	C	1.027225	-0.606635	-0.000050
C166	C	1.277225	-0.356635	0.249950
C167	C	1.527225	-0.106635	0.499950
C168	C	1.777225	0.143365	0.749950
C169	C	1.026049	-0.666101	-0.000052
C170	C	1.276049	-0.416101	0.249948
C171	C	1.526049	-0.166101	0.499948
C172	C	1.776049	0.083899	0.749948
C173	C	1.198800	-0.670876	-0.000042
C174	C	1.448800	-0.420876	0.249958
C175	C	1.698800	-0.170876	0.499958
C176	C	1.948800	0.079124	0.749958
C177	C	1.199975	-0.611416	-0.000035
C178	C	1.449975	-0.361416	0.249965
C179	C	1.699975	-0.111416	0.499965
C180	C	1.949975	0.138584	0.749965
C181	C	1.114180	-0.579296	-0.000042
C182	C	1.364180	-0.329296	0.249958
C183	C	1.614180	-0.079296	0.499958
C184	C	1.864180	0.170704	0.749958
O185	O	1.275246	-0.519375	0.000009
O186	O	1.525246	-0.269375	0.250009
O187	O	1.775246	-0.019375	0.500009
O188	O	2.025246	0.230625	0.750009
O189	O	0.955637	-0.510488	-0.000064
O190	O	1.205637	-0.260488	0.249936
O191	O	1.455637	-0.010488	0.499936
O192	O	1.705637	0.239512	0.749936
C193	C	1.291703	0.139420	0.000012
C194	C	1.541703	0.389420	0.250012
C195	C	1.791703	0.639420	0.500012
C196	C	2.041703	0.889420	0.750012
C197	C	1.396869	0.145887	0.000008
C198	C	1.646869	0.395887	0.250008
C199	C	1.896869	0.645887	0.500008
C200	C	2.146869	0.895887	0.750008
C201	C	1.110554	0.238492	-0.000029
C202	C	1.360554	0.488492	0.249971
C203	C	1.610554	0.738492	0.499971
C204	C	1.860554	0.988492	0.749971
C205	C	1.111829	0.301777	-0.000051
C206	C	1.361829	0.551777	0.249949
C207	C	1.611829	0.801777	0.499949
C208	C	1.861829	1.051777	0.749949
N209	N	1.102103	0.143732	0.265526
N210	N	1.352103	0.393732	0.515526
N211	N	1.602103	0.643732	0.765526
N212	N	1.852103	0.893732	1.015526
N213	N	1.134800	0.125811	-0.265512
N214	N	1.384800	0.375811	-0.015512
N215	N	1.634800	0.625811	0.234488
N216	N	1.884800	0.875811	0.484488
C217	C	1.089273	0.150772	0.474566
C218	C	1.339273	0.400772	0.724566
C219	C	1.589273	0.650772	0.974566
C220	C	1.839273	0.900772	1.224566
C221	C	1.147628	0.118772	0.525455
C222	C	1.397628	0.368772	0.775455
C223	C	1.647628	0.618772	1.025455
C224	C	1.897628	0.868772	1.275455
C225	C	1.140489	0.122689	0.641772
C226	C	1.390489	0.372689	0.891772
C227	C	1.640489	0.622689	1.141772
C228	C	1.890489	0.872689	1.391772
C229	C	1.096411	0.146856	0.358239
C230	C	1.346411	0.396856	0.608239
C231	C	1.596411	0.646856	0.858239
C232	C	1.846411	0.896856	1.108239
H233	H	0.620180	0.201901	-0.000023
H234	H	0.870180	0.451901	0.249977
H235	H	1.120180	0.701901	0.499977
H236	H	1.370180	0.951901	0.749977
H237	H	0.616725	0.067643	-0.000047
H238	H	0.866725	0.317643	0.249953
H239	H	1.116725	0.567643	0.499953
H240	H	1.366725	0.817643	0.749953
H241	H	0.955225	-0.688356	-0.000051
H242	H	1.205225	-0.438356	0.249949
H243	H	1.455225	-0.188356	0.499949
H244	H	1.705225	0.061644	0.749949
H245	H	1.033956	0.181109	0.518350
H246	H	1.283956	0.431109	0.768350
H247	H	1.533956	0.681109	1.018350
H248	H	1.783956	0.931109	1.268350
H249	H	1.279525	-0.149971	0.000040
H250	H	1.529525	0.100029	0.250040
H251	H	1.779525	0.350029	0.500040
H252	H	2.029525	0.600029	0.750040
Cl253	Cl	0.919366	-0.566265	-0.000055
Cl254	Cl	1.169366	-0.316265	0.249945
Cl255	Cl	1.419366	-0.066265	0.499945
Cl256	Cl	1.669366	0.183735	0.749945
Cl257	Cl	1.401129	-0.305936	-0.000034
Cl258	Cl	1.651129	-0.055936	0.249966
Cl259	Cl	1.901129	0.194064	0.499966
Cl260	Cl	2.151129	0.444064	0.749966
Cl261	Cl	1.233399	0.072168	0.457854
Cl262	Cl	1.483399	0.322168	0.707854
Cl263	Cl	1.733399	0.572168	0.957854
Cl264	Cl	1.983399	0.822168	1.207854
H265	H	0.874286	-0.412431	-0.000036
H266	H	1.124286	-0.162431	0.249964
H267	H	1.374286	0.087569	0.499964
H268	H	1.624286	0.337569	0.749964
H269	H	0.876432	-0.304569	-0.000020
H270	H	1.126432	-0.054569	0.249980
H271	H	1.376432	0.195431	0.499980
H272	H	1.626432	0.445431	0.749980
Cl273	Cl	1.309307	-0.577046	0.000008
Cl274	Cl	1.559307	-0.327046	0.250008
Cl275	Cl	1.809307	-0.077046	0.500008
Cl276	Cl	2.059307	0.172954	0.750008
Cl277	Cl	0.927576	-0.153402	0.000024
Cl278	Cl	1.177576	0.096598	0.250024
Cl279	Cl	1.427576	0.346598	0.500024
Cl280	Cl	1.677576	0.596598	0.750024
H281	H	1.268639	-0.697041	-0.000037
H282	H	1.518639	-0.447041	0.249963
H283	H	1.768639	-0.197041	0.499963
H284	H	2.018639	0.052959	0.749963
H285	H	1.281666	-0.042104	0.000083
H286	H	1.531666	0.207896	0.250083
H287	H	1.781666	0.457896	0.500083
H288	H	2.031666	0.707896	0.750083
Cl289	Cl	0.930258	-0.019184	0.000047
Cl290	Cl	1.180258	0.230816	0.250047
Cl291	Cl	1.430258	0.480816	0.500047
Cl292	Cl	1.680258	0.730816	0.750047
Cl293	Cl	1.398450	-0.440134	-0.000046
Cl294	Cl	1.648450	-0.190134	0.249954
Cl295	Cl	1.898450	0.059866	0.499954
Cl296	Cl	2.148450	0.309866	0.749954
