data_functionalizedCrystal
_audit_creation_method	'MofGen! by Chris Wilmer'
_symmetry_space_group_name_H-M	'P1'
_symmetry_Int_Tables_number	1
_symmetry_cell_setting	triclinic
loop_
_symmetry_equiv_pos_as_xyz
  x,y,z
_cell_length_a	12.759400
_cell_length_b	17.639504
_cell_length_c	12.759393
_cell_angle_alpha	78.757326
_cell_angle_beta	90.031564
_cell_angle_gamma	78.802025
loop_
_atom_site_label
_atom_site_type_symbol
_atom_site_fract_x
_atom_site_fract_y
_atom_site_fract_z
Zn1	Zn	-0.093968	-1.208559	0.919388
Zn2	Zn	-0.269709	-1.208479	0.743687
Zn3	Zn	-0.129489	-1.076362	0.708134
Zn4	Zn	-0.305074	-1.076353	0.883754
O5	O	-0.199560	-1.142438	0.813741
O6	O	-0.087615	-1.319168	0.925874
O7	O	-0.251173	-1.190924	0.591942
O8	O	0.022254	-1.093935	0.736191
O9	O	-0.216730	-1.319109	0.796787
O10	O	0.048351	-1.191059	0.891399
O11	O	-0.148154	-1.093858	0.565821
O12	O	-0.182447	-0.965741	0.701637
O13	O	-0.277006	-1.093920	1.035510
O14	O	-0.311449	-0.965735	0.830665
O15	O	-0.121907	-1.191051	1.061691
O16	O	-0.421431	-1.190915	0.762233
O17	O	-0.447414	-1.093843	0.865139
C18	C	-0.254641	-0.937056	0.758427
C19	C	-0.278230	-0.849192	0.734788
C20	C	-0.020258	-0.560343	0.993563
C21	C	-0.042450	-0.477782	0.971329
C22	C	-0.176675	-0.477743	0.836717
C23	C	-0.154498	-0.560306	0.858943
C24	C	-0.076288	-0.601599	0.937366
C25	C	-0.210528	-0.601562	0.802746
C26	C	-0.188348	-0.684118	0.824967
C27	C	-0.110139	-0.725417	0.903384
C28	C	-0.054108	-0.684155	0.959586
C29	C	-0.288732	-0.560267	0.724319
C30	C	-0.344762	-0.601523	0.668122
C31	C	-0.322588	-0.684081	0.690347
C32	C	-0.244379	-0.725380	0.768764
C33	C	-0.378619	-0.725343	0.634145
C34	C	-0.356440	-0.807898	0.656365
C35	C	-0.222200	-0.807936	0.790985
C36	C	-0.472540	-1.142391	0.813706
C37	C	-0.589303	-1.142444	0.813746
C38	C	-0.630585	-1.193045	0.760252
C39	C	-0.740296	-1.193094	0.760298
C40	C	-0.767434	-1.091932	0.867332
C41	C	-0.657724	-1.091888	0.867292
C42	C	-0.614919	-1.251447	0.698453
C43	C	-0.724630	-1.251496	0.698498
C44	C	0.074492	-1.142507	0.813804
C45	C	0.191276	-1.142536	0.813831
C46	C	-0.199439	-1.142494	1.087789
C47	C	-0.199388	-1.142517	1.204572
C48	C	-0.144250	-0.348623	0.869268
C49	C	-0.120641	-0.436487	0.892920
C50	C	-0.199592	-1.142429	0.540771
C51	C	-0.199307	-1.142558	0.424030
C52	C	-0.118620	-1.193100	1.273070
C53	C	-0.118577	-1.193119	1.382799
C54	C	-0.280079	-1.091970	1.355522
C55	C	-0.280117	-1.091948	1.245794
C56	C	-0.025380	-1.251500	1.288820
C57	C	-0.025337	-1.251519	1.398549
H58	H	-0.092079	-0.792639	0.921470
H59	H	0.051590	-1.235121	1.254654
C60	C	-0.043681	-1.330052	1.263984
N61	N	-0.057460	-1.389219	1.245277
C62	C	0.065772	-0.605771	1.079838
N63	N	0.130568	-0.639987	1.144817
H64	H	-0.742971	-1.309660	0.743371
H65	H	0.046096	-1.229613	1.426699
H66	H	-0.030704	-1.312743	1.444812
H67	H	-0.158517	-0.841559	0.854848
H68	H	-0.624111	-1.050692	0.910862
C69	C	-0.770907	-1.229396	0.582611
N70	N	-0.805762	-1.212748	0.495328
H71	H	-0.823155	-1.050773	0.910928
H72	H	-0.345805	-1.050796	1.389099
H73	H	0.003188	-0.444194	1.017092
C74	C	0.031921	-0.729583	1.045862
N75	N	0.096717	-0.763799	1.110841
C76	C	-0.262705	-0.432311	0.750455
N77	N	-0.327507	-0.398092	0.685484
C78	C	-0.552396	-1.334128	0.750237
N79	N	-0.505304	-1.396402	0.789241
H80	H	-0.306765	-0.493045	0.706206
H81	H	-0.408438	-0.567891	0.604267
H82	H	-0.586851	-1.229533	0.615226
C83	C	-0.464642	-0.679909	0.547876
N84	N	-0.529435	-0.645688	0.482898
C85	C	-0.418079	-0.853283	0.594550
N86	N	-0.464507	-0.887467	0.547988
H87	H	-0.345883	-1.050755	1.190025
