data_functionalizedCrystal
_audit_creation_method	'MofGen! by Chris Wilmer'
_symmetry_space_group_name_H-M	'P1'
_symmetry_Int_Tables_number	1
_symmetry_cell_setting	triclinic
loop_
_symmetry_equiv_pos_as_xyz
  x,y,z
_cell_length_a	16.959454
_cell_length_b	10.686220
_cell_length_c	10.686551
_cell_angle_alpha	89.691918
_cell_angle_beta	85.595422
_cell_angle_gamma	85.598365
loop_
_atom_site_label
_atom_site_type_symbol
_atom_site_fract_x
_atom_site_fract_y
_atom_site_fract_z
Zn1	Zn	-0.192706	-1.972261	-0.562392
Zn2	Zn	-0.335773	-1.956011	-0.352638
Zn3	Zn	-0.212926	-1.746376	-0.368710
Zn4	Zn	-0.334171	-1.762442	-0.578415
O5	O	-0.268894	-1.859272	-0.465539
O6	O	-0.203892	-2.145648	-0.521135
O7	O	-0.328610	-1.914679	-0.179225
O8	O	-0.099628	-1.776417	-0.394423
O9	O	-0.309003	-2.133710	-0.367030
O10	O	-0.084773	-1.942373	-0.536720
O11	O	-0.238355	-1.760661	-0.191033
O12	O	-0.236801	-1.572964	-0.409960
O13	O	-0.306273	-1.803798	-0.751835
O14	O	-0.325880	-1.584768	-0.564030
O15	O	-0.202339	-1.957951	-0.740063
O16	O	-0.446176	-1.930257	-0.382567
O17	O	-0.444999	-1.788042	-0.548445
C18	C	-0.283361	-1.533350	-0.490478
C19	C	-0.289568	-1.393921	-0.501177
C20	C	-0.474266	-1.859166	-0.465525
C21	C	-0.562118	-1.859238	-0.465553
C22	C	-0.251872	-1.884480	-0.792738
C23	C	-0.244618	-1.895221	-0.932171
C24	C	-0.933005	-1.785337	-0.551894
C25	C	-0.934158	-1.933567	-0.379285
C26	C	-0.851615	-1.933522	-0.379276
C27	C	-0.809763	-1.859382	-0.465577
C28	C	-0.850454	-1.785287	-0.551886
C29	C	-0.810918	-2.007607	-0.292961
C30	C	-0.728369	-2.007564	-0.292948
C31	C	-0.686515	-1.933430	-0.379256
C32	C	-0.727212	-1.859333	-0.465569
C33	C	-0.685360	-1.785193	-0.551870
C34	C	-0.726054	-1.711101	-0.638190
C35	C	-0.808600	-1.711153	-0.638193
C36	C	-0.603970	-1.933378	-0.379252
C37	C	-0.602809	-1.785143	-0.551862
C38	C	-0.062717	-1.859416	-0.465577
C39	C	0.025143	-1.859477	-0.465593
C40	C	-0.254371	-2.186468	-0.440502
C41	C	-0.248182	-2.325899	-0.429834
C42	C	-0.285790	-1.834236	-0.139606
C43	C	-0.292810	-1.823737	-0.000156
H44	H	-0.568738	-1.724774	-0.622143
H45	H	-0.197809	-1.964650	-0.980643
C46	C	-0.856959	-2.089150	-0.198036
C47	C	-0.921293	-2.027306	-0.103682
C48	C	-0.967341	-2.108851	-0.008756
C49	C	-0.949056	-2.252241	-0.008184
C50	C	-0.884719	-2.314093	-0.102541
C51	C	-0.838671	-2.232547	-0.197468
H52	H	-0.934831	-1.921153	-0.104103
H53	H	-1.014967	-2.063064	0.061093
H54	H	-0.983143	-2.312607	0.062086
H55	H	-0.871180	-2.420246	-0.102121
H56	H	-0.791045	-2.278335	-0.267317
C57	C	-0.343858	-1.328498	-0.594756
C58	C	-0.433464	-1.345562	-0.582922
C59	C	-0.487753	-1.280139	-0.676499
C60	C	-0.452436	-1.197653	-0.781909
C61	C	-0.362826	-1.180586	-0.793747
C62	C	-0.308537	-1.246009	-0.700171
H63	H	-0.459612	-1.406626	-0.504887
H64	H	-0.554089	-1.292774	-0.667735
H65	H	-0.492624	-1.149224	-0.851180
H66	H	-0.336678	-1.119522	-0.871782
H67	H	-0.242201	-1.233374	-0.708935
C68	C	-0.356048	-1.729950	-0.934691
C69	C	-0.330801	-1.624626	-0.852123
C70	C	-0.394040	-1.530838	-0.786649
C71	C	-0.482527	-1.542375	-0.803743
C72	C	-0.507779	-1.647703	-0.886314
C73	C	-0.444540	-1.741491	-0.951788
H74	H	-0.265293	-1.616083	-0.839465
H75	H	-0.375346	-1.452867	-0.725524
H76	H	-0.529340	-1.472947	-0.755275
H77	H	-0.573286	-1.656247	-0.898972
H78	H	-0.463233	-1.819462	-1.012913
C79	C	-0.559204	-2.014870	-0.284315
C80	C	-0.510029	-1.952967	-0.189937
C81	C	-0.465263	-2.034467	-0.094997
C82	C	-0.469672	-2.177869	-0.094435
C83	C	-0.518849	-2.239780	-0.188816
C84	C	-0.563615	-2.158280	-0.283756
H85	H	-0.506763	-1.846805	-0.190351
H86	H	-0.428858	-1.988636	-0.025130
H87	H	-0.436533	-2.238200	-0.024154
H88	H	-0.522115	-2.345942	-0.188402
H89	H	-0.600019	-2.204111	-0.353623
C90	C	-0.680012	-1.629547	-0.733117
C91	C	-0.630525	-1.526881	-0.686193
C92	C	-0.584478	-1.445329	-0.781116
C93	C	-0.587919	-1.466444	-0.922962
C94	C	-0.637408	-1.569115	-0.969892
C95	C	-0.683454	-1.650666	-0.874970
H96	H	-0.627976	-1.511246	-0.581184
H97	H	-0.547843	-1.369325	-0.746374
H98	H	-0.553832	-1.406074	-0.993229
H99	H	-0.639956	-1.584749	-1.074902
H100	H	-0.720089	-1.726670	-0.909712
C101	C	-0.853368	-1.629656	-0.733132
C102	C	-0.917374	-1.527056	-0.686225
C103	C	-0.962147	-1.445560	-0.781160
C104	C	-0.942912	-1.466663	-0.923003
C105	C	-0.878902	-1.569268	-0.969918
C106	C	-0.834130	-1.650764	-0.874982
H107	H	-0.931616	-1.511430	-0.581218
H108	H	-1.009531	-1.369605	-0.746430
H109	H	-0.976056	-1.406335	-0.993280
H110	H	-0.864661	-1.584894	-1.074925
H111	H	-0.786746	-1.726719	-0.909712
C112	C	-0.977764	-1.703841	-0.646843
C113	C	-1.041775	-1.601240	-0.599954
C114	C	-1.086536	-1.519745	-0.694904
C115	C	-1.067286	-1.540852	-0.836743
C116	C	-1.003272	-1.643458	-0.883639
C117	C	-0.958511	-1.724953	-0.788689
H118	H	-1.056028	-1.585611	-0.494949
H119	H	-1.133923	-1.443789	-0.660187
H120	H	-1.100420	-1.480525	-0.907031
H121	H	-0.989019	-1.659087	-0.988643
H122	H	-0.911124	-1.800909	-0.823405
H123	H	-0.208002	-1.374330	-0.360567
H124	H	-0.968239	-1.993921	-0.309016
H125	H	-0.695241	-2.067894	-0.222664
