data_functionalizedCrystal
_audit_creation_method	'MofGen! by Chris Wilmer'
_symmetry_space_group_name_H-M	'P1'
_symmetry_Int_Tables_number	1
_symmetry_cell_setting	triclinic
loop_
_symmetry_equiv_pos_as_xyz
  x,y,z
_cell_length_a	19.288864
_cell_length_b	10.540510
_cell_length_c	18.366186
_cell_angle_alpha	89.996284
_cell_angle_beta	89.977106
_cell_angle_gamma	83.824779
loop_
_atom_site_label
_atom_site_type_symbol
_atom_site_fract_x
_atom_site_fract_y
_atom_site_fract_z
O1	O	0.922400	0.158347	-0.060780
O2	O	0.720281	0.179708	-0.060729
O3	O	0.825962	-0.015784	-0.060755
O4	O	0.816718	0.353840	-0.060754
O5	O	0.825944	-0.015794	0.060344
O6	O	0.720263	0.179698	0.060370
O7	O	0.922382	0.158338	0.060320
Zn8	Zn	0.821319	0.169017	0.079572
Zn9	Zn	0.821343	0.169029	-0.079982
O10	O	0.816700	0.353830	0.060346
C11	C	0.694391	0.179016	-0.000173
C12	C	0.617273	0.176953	-0.000154
C13	C	0.825264	-0.063077	-0.000207
C14	C	0.823204	-0.203981	-0.000211
C15	C	0.573336	0.291659	-0.000165
C16	C	0.500876	0.289720	-0.000173
C17	C	0.472357	0.173069	-0.000185
C18	C	0.516304	0.058348	-0.000170
C19	C	0.588762	0.060290	-0.000154
C20	C	0.363495	0.081372	-0.042636
C21	C	0.291037	0.079435	-0.042656
C22	C	0.248872	0.167076	-0.000229
C23	C	0.279171	0.256675	0.042209
C24	C	0.351629	0.258617	0.042224
C25	C	0.393789	0.170951	-0.000201
C26	C	0.126364	0.279688	-0.000248
C27	C	0.053903	0.277745	-0.000251
C28	C	0.069333	0.046370	-0.000255
C29	C	0.141792	0.048316	-0.000244
C30	C	0.170303	0.164979	-0.000244
C31	C	0.896620	-0.423073	0.000048
C32	C	0.898819	-0.276526	-0.000229
C33	C	0.784506	-0.247872	-0.069353
C34	C	0.782843	-0.394596	-0.069407
C35	C	0.781248	-0.394380	0.068306
C36	C	0.784834	-0.248119	0.069215
C37	C	0.948272	0.159030	-0.000238
C38	C	1.025389	0.161093	-0.000262
C39	C	0.817398	0.401123	-0.000204
C40	C	0.819459	0.542027	-0.000205
N41	N	0.821308	0.169007	0.188463
N42	N	0.821360	0.169028	-0.188873
C43	C	0.868120	0.082486	0.226552
C44	C	0.868124	0.082480	0.302780
C45	C	0.821324	0.169018	0.340916
C46	C	0.774503	0.255546	0.302818
C47	C	0.774495	0.255541	0.226592
C48	C	0.812790	0.284674	0.461678
C49	C	0.812803	0.284681	0.537903
C50	C	0.821343	0.169033	0.576024
C51	C	0.829886	0.053374	0.537910
C52	C	0.829878	0.053369	0.461683
C53	C	0.821326	0.169032	0.423571
C54	C	0.868162	0.082499	0.696767
C55	C	0.868162	0.082491	0.772997
C56	C	0.774544	0.255568	0.773033
C57	C	0.774541	0.255565	0.696805
C58	C	0.821354	0.169031	0.658677
H59	H	0.596544	0.386654	-0.000166
Br60	Br	0.165062	0.438011	-0.000242
H61	H	0.397821	0.010002	-0.077190
Br62	Br	-0.005729	0.433432	-0.000259
H63	H	0.736375	0.325998	0.195579
H64	H	0.836832	-0.040804	0.430654
Br65	Br	0.030637	-0.111946	-0.000259
Br66	Br	0.201426	-0.107365	-0.000231
H67	H	0.906278	0.012034	0.665722
Br68	Br	0.691726	-0.166819	-0.073624
Br69	Br	0.841486	-0.103587	0.589634
H70	H	0.925917	-0.467228	-0.049271
H71	H	0.266374	0.006484	-0.077214
H72	H	0.493079	-0.036630	-0.000189
H73	H	0.736436	0.326024	0.804083
H74	H	0.624537	-0.033121	-0.000146
Br75	Br	0.949265	-0.228737	0.082392
Br76	Br	0.945713	-0.494096	0.082696
H77	H	0.929288	-0.248796	-0.049893
H78	H	0.809304	-0.435397	-0.121106
H79	H	0.376295	0.331567	0.076780
H80	H	0.244840	0.328040	0.076757
H81	H	0.726288	-0.416330	-0.072526
H82	H	0.811395	-0.217610	-0.120823
Br83	Br	0.821013	-0.466120	0.155658
H84	H	0.736426	0.326024	0.665791
H85	H	0.906279	0.012028	0.804009
Br86	Br	0.831759	-0.201474	0.154474
H87	H	0.729629	-0.197822	0.073405
H88	H	0.906236	0.012022	0.195510
Br89	Br	0.441234	0.445404	-0.000184
Br90	Br	0.686624	-0.429188	0.069108
Br91	Br	0.931658	-0.034954	0.354481
Br92	Br	0.801217	0.441644	0.589622
H93	H	0.805824	0.378854	0.430647
Br94	Br	0.710982	0.372983	0.354571
