data_functionalizedCrystal
_audit_creation_method	'MofGen! by Chris Wilmer'
_symmetry_space_group_name_H-M	'P1'
_symmetry_Int_Tables_number	1
_symmetry_cell_setting	triclinic
loop_
_symmetry_equiv_pos_as_xyz
  x,y,z
_cell_length_a	14.044220
_cell_length_b	10.723022
_cell_length_c	13.101018
_cell_angle_alpha	93.394040
_cell_angle_beta	93.666550
_cell_angle_gamma	91.171948
loop_
_atom_site_label
_atom_site_type_symbol
_atom_site_fract_x
_atom_site_fract_y
_atom_site_fract_z
O1	O	-0.127849	1.676794	0.085206
O2	O	0.122151	1.926794	0.335206
O3	O	0.372151	2.176794	0.585206
O4	O	0.622151	2.426794	0.835206
O5	O	-0.140585	1.314916	0.085209
O6	O	0.109415	1.564916	0.335209
O7	O	0.359415	1.814916	0.585209
O8	O	0.609415	2.064916	0.835209
O9	O	0.003803	1.490423	0.085203
O10	O	0.253803	1.740423	0.335203
O11	O	0.503803	1.990423	0.585203
O12	O	0.753803	2.240423	0.835203
O13	O	-0.272236	1.501287	0.085212
O14	O	-0.022236	1.751287	0.335212
O15	O	0.227764	2.001287	0.585212
O16	O	0.477764	2.251287	0.835212
O17	O	-0.006566	1.477815	-0.085227
O18	O	0.243434	1.727815	0.164773
O19	O	0.493434	1.977815	0.414773
O20	O	0.743434	2.227815	0.664773
O21	O	-0.150953	1.302308	-0.085221
O22	O	0.099047	1.552308	0.164779
O23	O	0.349047	1.802308	0.414779
O24	O	0.599047	2.052308	0.664779
O25	O	-0.138217	1.664187	-0.085224
O26	O	0.111783	1.914187	0.164776
O27	O	0.361783	2.164187	0.414776
O28	O	0.611783	2.414187	0.664776
Zn29	Zn	-0.146232	1.481246	-0.112282
Zn30	Zn	0.103768	1.731246	0.137718
Zn31	Zn	0.353768	1.981246	0.387718
Zn32	Zn	0.603768	2.231246	0.637718
Zn33	Zn	-0.132570	1.497856	0.112267
Zn34	Zn	0.117430	1.747856	0.362267
Zn35	Zn	0.367430	1.997856	0.612267
Zn36	Zn	0.617430	2.247856	0.862267
O37	O	-0.282605	1.488680	-0.085218
O38	O	-0.032605	1.738680	0.164782
O39	O	0.217395	1.988680	0.414782
O40	O	0.467395	2.238680	0.664782
C41	C	-0.144842	1.262020	-0.000005
C42	C	0.105158	1.512020	0.249995
C43	C	0.355158	1.762020	0.499995
C44	C	0.605158	2.012020	0.749995
C45	C	-0.142070	1.123188	-0.000004
C46	C	0.107930	1.373188	0.249996
C47	C	0.357930	1.623188	0.499996
C48	C	0.607930	1.873188	0.749996
C49	C	-0.058807	1.066297	-0.000006
C50	C	0.191193	1.316297	0.249994
C51	C	0.441193	1.566297	0.499994
C52	C	0.691193	1.816297	0.749994
C53	C	-0.055940	0.922807	-0.000005
C54	C	0.194060	1.172807	0.249995
C55	C	0.444060	1.422807	0.499995
C56	C	0.694060	1.672807	0.749995
C57	C	-0.312766	1.499739	-0.000002
C58	C	-0.062766	1.749739	0.249998
C59	C	0.187234	1.999739	0.499998
C60	C	0.437234	2.249739	0.749998
C61	C	-0.418084	1.513923	0.000002
C62	C	-0.168084	1.763923	0.250002
C63	C	0.081916	2.013923	0.500002
C64	C	0.331916	2.263923	0.750002
C65	C	-0.610914	1.539855	-0.000003
C66	C	-0.360914	1.789855	0.249997
C67	C	-0.110914	2.039855	0.499997
C68	C	0.139086	2.289855	0.749997
C69	C	-0.667893	1.439253	-0.000003
C70	C	-0.417893	1.689253	0.249997
C71	C	-0.167893	1.939253	0.499997
C72	C	0.082107	2.189253	0.749997
C73	C	-0.775191	1.453682	-0.000005
C74	C	-0.525191	1.703682	0.249995
C75	C	-0.275191	1.953682	0.499995
C76	C	-0.025191	2.203682	0.749995
C77	C	-0.503606	1.525428	-0.000000
C78	C	-0.253606	1.775428	0.250000
C79	C	-0.003606	2.025428	0.500000
C80	C	0.246394	2.275428	0.750000
C81	C	0.033964	1.479364	-0.000011
C82	C	0.283964	1.729364	0.249989
C83	C	0.533964	1.979364	0.499989
C84	C	0.783964	2.229364	0.749989
C85	C	0.139282	1.465180	-0.000008
C86	C	0.389282	1.715180	0.249992
C87	C	0.639282	1.965180	0.499992
C88	C	0.889282	2.215180	0.749992
C89	C	-0.133959	1.717083	-0.000007
C90	C	0.116041	1.967083	0.249993
C91	C	0.366041	2.217083	0.499993
C92	C	0.616041	2.467083	0.749993
C93	C	-0.136731	1.855915	-0.000002
C94	C	0.113269	2.105915	0.249998
C95	C	0.363269	2.355915	0.499998
C96	C	0.613269	2.605915	0.749998
N97	N	-0.155554	1.469919	-0.265530
N98	N	0.094446	1.719919	-0.015530
N99	N	0.344446	1.969919	0.234470
N100	N	0.594446	2.219919	0.484470
C101	C	-0.110552	1.524597	-0.525442
C102	C	0.139448	1.774597	-0.275442
C103	C	0.389448	2.024597	-0.025442
C104	C	0.639448	2.274597	0.224558
C105	C	-0.168239	1.454518	-0.474566
C106	C	0.081761	1.704518	-0.224566
C107	C	0.331761	1.954518	0.025434
C108	C	0.581761	2.204518	0.275434
C109	C	-0.161180	1.463089	-0.358248
C110	C	0.088820	1.713089	-0.108248
C111	C	0.338820	1.963089	0.141752
C112	C	0.588820	2.213089	0.391752
C113	C	-0.117611	1.516027	-0.641771
C114	C	0.132389	1.766027	-0.391771
C115	C	0.382389	2.016027	-0.141771
C116	C	0.632389	2.266027	0.108229
N117	N	-0.123240	1.509193	0.265516
N118	N	0.126760	1.759193	0.515516
N119	N	0.376760	2.009193	0.765516
N120	N	0.626760	2.259193	1.015516
H121	H	0.010356	1.123820	-0.000004
H122	H	0.260356	1.373820	0.249996
H123	H	0.510356	1.623820	0.499996
H124	H	0.760356	1.873820	0.749996
H125	H	-0.055867	1.591027	-0.481644
H126	H	0.194133	1.841027	-0.231644
H127	H	0.444133	2.091027	0.018356
H128	H	0.694133	2.341027	0.268356
Cl129	Cl	-0.246807	0.931465	-0.000007
Cl130	Cl	0.003193	1.181465	0.249993
Cl131	Cl	0.253193	1.431465	0.499993
Cl132	Cl	0.503193	1.681465	0.749993
H133	H	0.015351	0.873864	0.000019
H134	H	0.265351	1.123864	0.250019
H135	H	0.515351	1.373864	0.500019
H136	H	0.765351	1.623864	0.750019
Cl137	Cl	-0.252679	1.351954	-0.542192
Cl138	Cl	-0.002679	1.601954	-0.292192
Cl139	Cl	0.247321	1.851954	-0.042192
Cl140	Cl	0.497321	2.101954	0.207808
H141	H	-0.636092	1.342289	-0.000003
H142	H	-0.386092	1.592289	0.249997
H143	H	-0.136092	1.842289	0.499997
H144	H	0.113908	2.092289	0.749997
Cl145	Cl	-0.248857	1.034388	0.000008
Cl146	Cl	0.001143	1.284388	0.250008
Cl147	Cl	0.251143	1.534388	0.500008
Cl148	Cl	0.501143	1.784388	0.750008
H149	H	-0.642713	1.636811	-0.000008
H150	H	-0.392713	1.886811	0.249992
H151	H	-0.142713	2.136811	0.499992
H152	H	0.107287	2.386811	0.749992
