data_functionalizedCrystal
_audit_creation_method	'MofGen! by Chris Wilmer'
_symmetry_space_group_name_H-M	'P1'
_symmetry_Int_Tables_number	1
_symmetry_cell_setting	triclinic
loop_
_symmetry_equiv_pos_as_xyz
  x,y,z
_cell_length_a	19.288864
_cell_length_b	19.188930
_cell_length_c	18.366186
_cell_angle_alpha	89.988632
_cell_angle_beta	89.977106
_cell_angle_gamma	83.140512
loop_
_atom_site_label
_atom_site_type_symbol
_atom_site_fract_x
_atom_site_fract_y
_atom_site_fract_z
O1	O	0.921359	0.087099	-0.060791
O2	O	1.421359	0.587099	0.439209
O3	O	0.719099	0.098849	-0.060743
O4	O	1.219099	0.598849	0.439257
O5	O	0.826066	-0.008682	-0.060754
O6	O	1.326066	0.491318	0.439246
O7	O	0.814393	0.194630	-0.060780
O8	O	1.314393	0.694630	0.439220
O9	O	0.826048	-0.008687	0.060345
O10	O	1.326048	0.491313	0.560345
O11	O	0.719081	0.098843	0.060357
O12	O	1.219081	0.598843	0.560357
O13	O	0.921341	0.087094	0.060308
O14	O	1.421341	0.587094	0.560308
Zn15	Zn	0.820208	0.092968	0.079560
Zn16	Zn	1.320208	0.592968	0.579560
Zn17	Zn	0.820232	0.092975	-0.079994
Zn18	Zn	1.320232	0.592975	0.420006
O19	O	0.814374	0.194625	0.060320
O20	O	1.314374	0.694625	0.560320
C21	C	0.693214	0.098468	-0.000186
C22	C	1.193214	0.598468	0.499814
C23	C	0.616110	0.097333	-0.000167
C24	C	1.116110	0.597333	0.499833
C25	C	0.571419	0.160427	-0.000187
C26	C	1.071419	0.660427	0.499813
C27	C	0.498972	0.159361	-0.000195
C28	C	0.998972	0.659361	0.499805
C29	C	0.471219	0.095197	-0.000198
C30	C	0.971219	0.595197	0.499802
C31	C	0.515921	0.032095	-0.000174
C32	C	1.015921	0.532095	0.499826
C33	C	0.588366	0.033163	-0.000159
C34	C	1.088366	0.533163	0.499841
C35	C	0.362960	0.044759	-0.042642
C36	C	0.862960	0.544759	0.457358
C37	C	0.290515	0.043694	-0.042662
C38	C	0.790515	0.543694	0.457338
C39	C	0.247773	0.091900	-0.000241
C40	C	0.747773	0.591900	0.499759
C41	C	0.277483	0.141184	0.042190
C42	C	0.777483	0.641184	0.542190
C43	C	0.349929	0.142253	0.042205
C44	C	0.849929	0.642253	0.542205
C45	C	0.392665	0.094032	-0.000214
C46	C	0.892665	0.594032	0.499786
C47	C	0.124526	0.153843	-0.000268
C48	C	0.624526	0.653843	0.499732
C49	C	0.052078	0.152774	-0.000272
C50	C	0.552078	0.652774	0.499728
C51	C	0.069028	0.025506	-0.000259
C52	C	0.569028	0.525506	0.499741
C53	C	0.141475	0.026576	-0.000248
C54	C	0.641475	0.526576	0.499752
C55	C	0.169219	0.090747	-0.000256
C56	C	0.669219	0.590747	0.499744
C57	C	0.825679	-0.034696	-0.000202
C58	C	1.325679	0.465304	0.499798
C59	C	0.824544	-0.112200	-0.000196
C60	C	1.324544	0.387800	0.499804
C61	C	0.887309	-0.157129	-0.000207
C62	C	1.387309	0.342871	0.499793
C63	C	0.886243	-0.229953	-0.000219
C64	C	1.386243	0.270047	0.499781
C65	C	0.822408	-0.257844	-0.000204
C66	C	1.322408	0.242156	0.499796
C67	C	0.759636	-0.212906	-0.000196
C68	C	1.259636	0.287094	0.499804
C69	C	0.760704	-0.140084	-0.000192
C70	C	1.260704	0.359916	0.499808
N71	N	0.773609	-0.365847	0.041020
N72	N	1.273609	0.134153	0.541020
N73	N	0.772598	-0.435026	0.041018
N74	N	1.272598	0.064974	0.541018
C75	C	0.819187	-0.477253	-0.000218
C76	C	1.319187	0.022747	0.499782
N77	N	0.866835	-0.447689	-0.041442
N78	N	1.366835	0.052311	0.458558
N79	N	0.867847	-0.378504	-0.041436
N80	N	1.367847	0.121496	0.458564
C81	C	0.821243	-0.336807	-0.000209
C82	C	1.321243	0.163193	0.499791
C83	C	0.880800	-0.601146	-0.000243
C84	C	1.380800	-0.101146	0.499757
C85	C	0.879731	-0.673971	-0.000259
C86	C	1.379731	-0.173971	0.499741
C87	C	0.753122	-0.656922	-0.000229
C88	C	1.253122	-0.156922	0.499771
C89	C	0.754193	-0.584099	-0.000220
C90	C	1.254193	-0.084099	0.499780
C91	C	0.818034	-0.556216	-0.000224
C92	C	1.318034	-0.056216	0.499776
C93	C	0.947227	0.087475	-0.000250
C94	C	1.447227	0.587475	0.499750
C95	C	1.024330	0.088609	-0.000274
C96	C	1.524330	0.588609	0.499726
C97	C	0.814762	0.220638	-0.000234
C98	C	1.314762	0.720638	0.499766
C99	C	0.815896	0.298143	-0.000245
C100	C	1.315896	0.798143	0.499755
N101	N	0.820197	0.092963	0.188451
N102	N	1.320197	0.592963	0.688451
N103	N	0.820249	0.092974	-0.188885
N104	N	1.320249	0.592974	0.311115
C105	C	0.867577	0.045371	0.226546
C106	C	1.367577	0.545371	0.726546
C107	C	0.867582	0.045368	0.302774
C108	C	1.367582	0.545368	0.802774
C109	C	0.820213	0.092968	0.340903
C110	C	1.320213	0.592968	0.840903
C111	C	0.772823	0.140563	0.302799
C112	C	1.272823	0.640563	0.802799
C113	C	0.772816	0.140560	0.226573
C114	C	1.272816	0.640560	0.726573
C115	C	0.810919	0.156585	0.461657
C116	C	1.310919	0.656585	0.961657
C117	C	0.810932	0.156589	0.537882
C118	C	1.310932	0.656589	1.037882
C119	C	0.820232	0.092977	0.576011
C120	C	1.320232	0.592977	1.076011
C121	C	0.829535	0.029359	0.537906
C122	C	1.329535	0.529359	1.037906
C123	C	0.829527	0.029356	0.461679
C124	C	1.329527	0.529356	0.961679
C125	C	0.820215	0.092977	0.423558
C126	C	1.320215	0.592977	0.923558
C127	C	0.867620	0.045378	0.696761
C128	C	1.367620	0.545378	1.196761
C129	C	0.867620	0.045374	0.772990
C130	C	1.367620	0.545374	1.272990
C131	C	0.772864	0.140576	0.773014
C132	C	1.272864	0.640576	1.273014
C133	C	0.772862	0.140574	0.696786
C134	C	1.272862	0.640574	1.196786
C135	C	0.820243	0.092976	0.658664
C136	C	1.320243	0.592976	1.158664
H137	H	0.624755	-0.018218	-0.000144
H138	H	1.124755	0.481782	0.499856
H139	H	0.906157	0.006613	0.195509
H140	H	1.406157	0.506613	0.695509
H141	H	0.707661	-0.235620	-0.000186
H142	H	1.207661	0.264380	0.499814
H143	H	0.709591	-0.103502	-0.000183
H144	H	1.209591	0.396498	0.499817
H145	H	0.837108	-0.022440	0.568948
H146	H	1.337108	0.477560	1.068948
C147	C	0.919703	-0.006983	0.344688
C148	C	1.419703	0.493017	0.844688
H149	H	0.947922	-0.035328	0.311066
H150	H	1.447922	0.464672	0.811066
H151	H	0.894814	-0.035983	0.374446
H152	H	1.394814	0.464017	0.874446
H153	H	0.948540	0.018070	0.374399
H154	H	1.448540	0.518070	0.874399
C155	C	0.682906	-0.687594	-0.000215
C156	C	1.182906	-0.187594	0.499785
H157	H	0.691258	-0.737400	-0.000216
H158	H	1.191258	-0.237400	0.499784
H159	H	0.657078	-0.672147	-0.042438
H160	H	1.157078	-0.172147	0.457562
H161	H	0.657065	-0.672169	0.042027
H162	H	1.157065	-0.172169	0.542027
H163	H	0.803333	0.208389	0.430619
H164	H	1.303333	0.708389	0.930619
C165	C	0.951020	-0.570470	-0.000255
C166	C	1.451020	-0.070470	0.499745
H167	H	0.988249	-0.607661	-0.000274
H168	H	1.488249	-0.107661	0.499726
H169	H	0.954063	-0.542428	0.041977
H170	H	1.454063	-0.042428	0.541977
H171	H	0.954073	-0.542406	-0.042488
H172	H	1.454073	-0.042406	0.457512
C173	C	0.685153	-0.534672	-0.000203
C174	C	1.185153	-0.034672	0.499797
H175	H	0.694931	-0.487308	-0.000209
H176	H	1.194931	0.012692	0.499791
H177	H	0.658958	-0.543112	0.042030
H178	H	1.158958	-0.043112	0.542030
H179	H	0.658979	-0.543097	-0.042435
H180	H	1.158979	-0.043097	0.457565
H181	H	0.266331	0.003566	-0.077215
H182	H	0.766331	0.503566	0.422785
C183	C	0.948776	-0.723393	-0.000270
C184	C	1.448776	-0.223393	0.499730
H185	H	0.986947	-0.696353	-0.000265
H186	H	1.486947	-0.196353	0.499735
H187	H	0.951004	-0.752146	-0.042503
H188	H	1.451004	-0.252146	0.457497
H189	H	0.950978	-0.752164	0.041963
H190	H	1.450978	-0.252164	0.541963
H191	H	0.242684	0.180439	0.076733
H192	H	0.742684	0.680439	0.576733
C193	C	0.190638	-0.042828	-0.000238
C194	C	0.690638	0.457172	0.499762
H195	H	0.163736	-0.081196	-0.000247
H196	H	0.663736	0.418804	0.499753
H197	H	0.219229	-0.045061	0.041997
H198	H	0.719229	0.454939	0.541997
H199	H	0.219272	-0.045052	-0.042469
H200	H	0.719272	0.454948	0.457531
C201	C	0.720759	0.192935	0.814947
C202	C	1.220759	0.692935	1.314947
H203	H	0.727551	0.186124	0.865802
H204	H	1.227551	0.686124	1.365802
H205	H	0.674427	0.185472	0.802481
H206	H	1.174427	0.685472	1.302481
H207	H	0.728162	0.239516	0.802440
H208	H	1.228162	0.739516	1.302440
C209	C	0.919729	-0.006983	0.654824
C210	C	1.419729	0.493017	1.154824
H211	H	0.947941	-0.035336	0.688433
H212	H	1.447941	0.464664	1.188433
H213	H	0.948563	0.018057	0.625067
H214	H	1.448563	0.518057	1.125067
H215	H	0.894825	-0.035985	0.625109
H216	H	1.394825	0.464015	1.125109
C217	C	0.957531	-0.126460	-0.000224
C218	C	1.457531	0.373540	0.499776
H219	H	0.994758	-0.163653	-0.000240
H220	H	1.494758	0.336347	0.499760
H221	H	0.960576	-0.098413	0.042004
H222	H	1.460576	0.401587	0.542004
H223	H	0.960583	-0.098401	-0.042461
H224	H	1.460583	0.401599	0.457539
C225	C	0.955286	-0.279383	-0.000226
C226	C	1.455286	0.220617	0.499774
H227	H	0.993459	-0.252346	-0.000223
H228	H	1.493459	0.247654	0.499777
H229	H	0.957512	-0.308139	-0.042456
H230	H	1.457512	0.191861	0.457544
H231	H	0.957486	-0.308150	0.042009
H232	H	1.457486	0.191850	0.542009
C233	C	0.155048	0.224426	-0.000270
C234	C	0.655048	0.724426	0.499730
H235	H	0.118052	0.261851	-0.000272
H236	H	0.618052	0.761851	0.499728
H237	H	0.182978	0.227491	-0.042496
H238	H	0.682978	0.727491	0.457504
H239	H	0.182934	0.227485	0.041969
H240	H	0.682934	0.727485	0.541969
H241	H	0.837100	-0.022445	0.430657
H242	H	1.337100	0.477555	0.930657
C243	C	0.919742	-0.006978	0.814896
C244	C	1.419742	0.493022	1.314896
H245	H	0.947962	-0.035318	0.781271
H246	H	1.447962	0.464682	1.281271
H247	H	0.894855	-0.035982	0.844652
H248	H	1.394855	0.464018	1.344652
H249	H	0.948577	0.018075	0.844609
H250	H	1.448577	0.518075	1.344609
C251	C	0.720750	0.192932	0.654879
C252	C	1.220750	0.692932	1.154879
H253	H	0.692542	0.221286	0.688503
H254	H	1.192542	0.721286	1.188503
H255	H	0.691912	0.167891	0.625163
H256	H	1.191912	0.667891	1.125163
H257	H	0.745649	0.221934	0.625125
H258	H	1.245649	0.721934	1.125125
C259	C	0.800700	0.226563	0.579795
C260	C	1.300700	0.726563	1.079795
H261	H	0.802045	0.217456	0.630653
H262	H	1.302045	0.717456	1.130653
H263	H	0.756815	0.251569	0.567321
H264	H	1.256815	0.751569	1.067321
H265	H	0.836940	0.253832	0.567274
H266	H	1.336940	0.753832	1.067274
H267	H	0.734253	0.179319	0.333848
H268	H	1.234253	0.679319	0.833848
H269	H	0.734232	0.179316	0.195555
H270	H	1.234232	0.679316	0.695555
H271	H	0.594003	0.212680	-0.000195
H272	H	1.094003	0.712680	0.499805
H273	H	0.462577	0.210742	-0.000208
H274	H	0.962577	0.710742	0.499792
H275	H	0.374116	0.182379	0.076756
H276	H	0.874116	0.682379	0.576756
H277	H	0.015690	0.204155	-0.000283
H278	H	0.515690	0.704155	0.499717
H279	H	0.397755	0.005502	-0.077191
H280	H	0.897755	0.505502	0.422809
C281	C	0.038509	-0.045074	-0.000266
C282	C	0.538509	0.454926	0.499734
H283	H	-0.011038	-0.036674	-0.000283
H284	H	0.488962	0.463326	0.499717
H285	H	0.053840	-0.071050	0.041966
H286	H	0.553840	0.428950	0.541966
H287	H	0.053888	-0.071037	-0.042499
H288	H	0.553888	0.428963	0.457501
H289	H	0.493320	-0.020148	-0.000187
H290	H	0.993320	0.479852	0.499813
