data_functionalizedCrystal
_audit_creation_method	'MofGen! by Chris Wilmer'
_symmetry_space_group_name_H-M	'P1'
_symmetry_Int_Tables_number	1
_symmetry_cell_setting	triclinic
loop_
_symmetry_equiv_pos_as_xyz
  x,y,z
_cell_length_a	13.897449
_cell_length_b	12.594509
_cell_length_c	13.897448
_cell_angle_alpha	89.969579
_cell_angle_beta	90.018519
_cell_angle_gamma	89.977480
loop_
_atom_site_label
_atom_site_type_symbol
_atom_site_fract_x
_atom_site_fract_y
_atom_site_fract_z
Zn1	Zn	1.474694	-0.601878	-0.383965
Zn2	Zn	1.808028	-0.268544	-0.050631
Zn3	Zn	2.141361	0.064789	0.282702
Zn4	Zn	1.474591	-0.423892	-0.545286
Zn5	Zn	1.807924	-0.090559	-0.211952
Zn6	Zn	2.141257	0.242774	0.121381
Zn7	Zn	1.313386	-0.423903	-0.384009
Zn8	Zn	1.646719	-0.090570	-0.050675
Zn9	Zn	1.980053	0.242764	0.282658
Zn10	Zn	1.313365	-0.601819	-0.545222
Zn11	Zn	1.646698	-0.268485	-0.211888
Zn12	Zn	1.980032	0.064848	0.121445
O13	O	1.394009	-0.512873	-0.464620
O14	O	1.727342	-0.179540	-0.131287
O15	O	2.060676	0.153794	0.202047
O16	O	1.609662	-0.578288	-0.405372
O17	O	1.942996	-0.244955	-0.072039
O18	O	2.276329	0.088379	0.261294
O19	O	1.453172	-0.274948	-0.523937
O20	O	1.786505	0.058385	-0.190604
O21	O	2.119839	0.391719	0.142729
O22	O	1.334836	-0.447541	-0.249021
O23	O	1.668169	-0.114207	0.084312
O24	O	2.001502	0.219126	0.417645
O25	O	1.609586	-0.447523	-0.523894
O26	O	1.942919	-0.114190	-0.190561
O27	O	2.276253	0.219144	0.142772
O28	O	1.453348	-0.578298	-0.248989
O29	O	1.786682	-0.244965	0.084345
O30	O	2.120015	0.088369	0.417678
O31	O	1.334735	-0.274956	-0.405448
O32	O	1.668069	0.058378	-0.072114
O33	O	2.001402	0.391711	0.261219
O34	O	1.178402	-0.447483	-0.405386
O35	O	1.511735	-0.114150	-0.072052
O36	O	1.845068	0.219183	0.261281
O37	O	1.334800	-0.750772	-0.523785
O38	O	1.668134	-0.417439	-0.190452
O39	O	2.001467	-0.084106	0.142882
O40	O	1.178386	-0.578197	-0.523828
O41	O	1.511720	-0.244864	-0.190495
O42	O	1.845053	0.088469	0.142839
O43	O	1.453328	-0.750816	-0.405310
O44	O	1.786662	-0.417482	-0.071977
O45	O	2.119995	-0.084149	0.261356
O46	O	1.453152	-0.447466	-0.680259
O47	O	1.786485	-0.114132	-0.346926
O48	O	2.119819	0.219201	-0.013592
O49	O	1.334700	-0.578187	-0.680212
O50	O	1.668033	-0.244854	-0.346878
O51	O	2.001367	0.088479	-0.013545
C52	C	1.143395	-0.512836	-0.464605
C53	C	1.476728	-0.179502	-0.131272
C54	C	1.810061	0.153831	0.202061
C55	C	1.036181	-0.512845	-0.464622
C56	C	1.369514	-0.179512	-0.131289
C57	C	1.702847	0.153821	0.202045
C58	C	0.949111	-0.512863	-0.464625
C59	C	1.282444	-0.179530	-0.131292
C60	C	1.615778	0.153804	0.202041
C61	C	0.839879	-0.512895	-0.464632
C62	C	1.173212	-0.179562	-0.131299
C63	C	1.506545	0.153771	0.202035
C64	C	1.394074	-0.790494	-0.464536
C65	C	1.727407	-0.457161	-0.131202
C66	C	2.060740	-0.123827	0.202131
C67	C	1.394101	-0.908800	-0.464500
C68	C	1.727434	-0.575466	-0.131166
C69	C	2.060768	-0.242133	0.202167
C70	C	1.329654	-0.978029	-0.528901
C71	C	1.662987	-0.644696	-0.195568
C72	C	1.996321	-0.311362	0.137765
C73	C	1.417669	-1.048821	-0.552468
C74	C	1.751002	-0.715487	-0.219135
C75	C	2.084335	-0.382154	0.114199
C76	C	1.306155	-1.048807	-0.440875
C77	C	1.639489	-0.715474	-0.107541
C78	C	1.972822	-0.382141	0.225792
C79	C	1.482162	-0.978033	-0.488113
C80	C	1.815495	-0.644699	-0.154779
C81	C	2.148828	-0.311366	0.178554
C82	C	1.370589	-0.978013	-0.376478
C83	C	1.703922	-0.644680	-0.043145
C84	C	2.037256	-0.311346	0.290188
C85	C	1.458664	-1.048773	-0.400011
C86	C	1.791998	-0.715439	-0.066678
C87	C	2.125331	-0.382106	0.266655
C88	C	1.645602	-0.512911	-0.464636
C89	C	1.978935	-0.179577	-0.131302
C90	C	2.312269	0.153756	0.202031
C91	C	1.752816	-0.512927	-0.464642
C92	C	2.086149	-0.179594	-0.131309
C93	C	2.419483	0.153740	0.202024
C94	C	1.393939	-0.512842	-0.715234
C95	C	1.727272	-0.179509	-0.381901
C96	C	2.060605	0.153825	-0.048568
C97	C	1.393997	-0.512865	-0.822448
C98	C	1.727330	-0.179531	-0.489115
C99	C	2.060663	0.153802	-0.155782
C100	C	1.394000	-0.236332	-0.464635
C101	C	1.727334	0.097001	-0.131301
C102	C	2.060667	0.430335	0.202032
C103	C	1.394160	-0.118027	-0.464399
C104	C	1.727493	0.215306	-0.131066
C105	C	2.060826	0.548640	0.202268
C106	C	1.394098	-0.512931	-1.018743
C107	C	1.727431	-0.179598	-0.685410
C108	C	2.060765	0.153735	-0.352077
C109	C	1.394039	-0.512897	-0.909511
C110	C	1.727372	-0.179564	-0.576178
C111	C	2.060706	0.153769	-0.242844
C112	C	1.394106	-0.512927	-0.213027
C113	C	1.727439	-0.179594	0.120306
C114	C	2.060773	0.153740	0.453640
C115	C	1.394147	-0.512950	-0.105813
C116	C	1.727481	-0.179617	0.227520
C117	C	2.060814	0.153716	0.560853
H118	H	1.275196	-0.946968	-0.583449
H119	H	1.608529	-0.613635	-0.250115
H120	H	1.941863	-0.280301	0.083218
Br121	Br	1.549643	-1.100226	-0.309164
Br122	Br	1.882977	-0.766893	0.024169
Br123	Br	2.216310	-0.433559	0.357503
H124	H	1.556582	-0.947075	-0.508137
H125	H	1.889916	-0.613741	-0.174804
H126	H	2.223249	-0.280408	0.158530
H127	H	1.231756	-1.079896	-0.420935
H128	H	1.565090	-0.746563	-0.087601
H129	H	1.898423	-0.413230	0.245732
Br130	Br	1.450872	-1.100660	-0.676463
Br131	Br	1.784205	-0.767327	-0.343129
Br132	Br	2.117538	-0.433993	-0.009796
Br133	Br	1.337349	-0.926131	-0.252515
Br134	Br	1.670682	-0.592798	0.080819
Br135	Br	2.004016	-0.259465	0.414152
