data_functionalizedCrystal
_audit_creation_method	'MofGen! by Chris Wilmer'
_symmetry_space_group_name_H-M	'P1'
_symmetry_Int_Tables_number	1
_symmetry_cell_setting	triclinic
loop_
_symmetry_equiv_pos_as_xyz
  x,y,z
_cell_length_a	23.532407
_cell_length_b	23.532407
_cell_length_c	22.610064
_cell_angle_alpha	89.999397
_cell_angle_beta	89.997161
_cell_angle_gamma	82.848678
loop_
_atom_site_label
_atom_site_type_symbol
_atom_site_fract_x
_atom_site_fract_y
_atom_site_fract_z
O1	O	0.755263	0.069127	-0.049117
O2	O	1.255263	0.569127	0.450883
O3	O	0.589400	0.079130	-0.049135
O4	O	1.089400	0.579130	0.450865
O5	O	0.677333	-0.008803	-0.049114
O6	O	1.177333	0.491197	0.450886
O7	O	0.667330	0.157060	-0.049137
O8	O	1.167330	0.657060	0.450863
O9	O	0.677318	-0.008790	0.049255
O10	O	1.177318	0.491210	0.549255
O11	O	0.589385	0.079143	0.049234
O12	O	1.089385	0.579143	0.549234
O13	O	0.755248	0.069140	0.049252
O14	O	1.255248	0.569140	0.549252
Zn15	Zn	0.672314	0.074144	0.064862
Zn16	Zn	1.172314	0.574144	0.564862
Zn17	Zn	0.672334	0.074127	-0.064744
Zn18	Zn	1.172334	0.574127	0.435256
O19	O	0.667315	0.157073	0.049232
O20	O	1.167315	0.657073	0.549232
C21	C	0.568176	0.078882	0.000048
C22	C	1.068176	0.578882	0.500048
C23	C	0.504959	0.078116	0.000041
C24	C	1.004959	0.578116	0.500041
C25	C	0.105856	0.125350	0.000061
C26	C	0.605856	0.625350	0.500061
C27	C	0.046456	0.124638	0.000065
C28	C	0.546456	0.624638	0.500065
O29	O	0.009711	0.168424	0.000081
O30	O	0.509711	0.668424	0.500081
N31	N	0.023830	0.072362	0.000071
N32	N	0.523830	0.572362	0.500071
C33	C	0.060607	0.020794	0.000080
C34	C	0.560607	0.520794	0.500080
O35	O	0.035908	-0.023737	0.000086
O36	O	0.535908	0.476263	0.500086
C37	C	0.120006	0.021506	0.000080
C38	C	0.620006	0.521506	0.500080
C39	C	0.142629	0.073785	0.000068
C40	C	0.642629	0.573785	0.500068
C41	C	0.128479	0.177625	0.000050
C42	C	0.628479	0.677625	0.500050
C43	C	0.187876	0.178336	0.000045
C44	C	0.687876	0.678336	0.500045
C45	C	0.224649	0.126772	0.000052
C46	C	0.724649	0.626772	0.500052
C47	C	0.202025	0.074497	0.000063
C48	C	0.702025	0.574497	0.500063
C49	C	0.156783	-0.030062	0.000093
C50	C	0.656783	0.469938	0.500093
C51	C	0.216185	-0.029345	0.000094
C52	C	0.716185	0.470655	0.500094
C53	C	0.238808	0.022934	0.000082
C54	C	0.738808	0.522934	0.500082
C55	C	0.298194	0.023643	0.000065
C56	C	0.798194	0.523643	0.500065
N57	N	0.320820	0.075920	0.000059
N58	N	0.820820	0.575920	0.500059
C59	C	0.284048	0.127484	0.000052
C60	C	0.784048	0.627484	0.500052
C61	C	-0.064135	0.019302	0.000080
C62	C	0.435865	0.519302	0.500080
C63	C	-0.123533	0.018589	0.000075
C64	C	0.376467	0.518589	0.500075
C65	C	-0.137680	0.122434	0.000061
C66	C	0.362320	0.622434	0.500061
C67	C	-0.078281	0.123146	0.000062
C68	C	0.421719	0.623146	0.500062
C69	C	-0.041509	0.071578	0.000074
C70	C	0.458491	0.571578	0.500074
C71	C	0.408784	0.128974	0.000042
C72	C	0.908784	0.628974	0.500042
C73	C	0.468186	0.129680	0.000034
C74	C	0.968186	0.629680	0.500034
C75	C	0.482329	0.025836	0.000051
C76	C	0.982329	0.525836	0.500051
C77	C	0.422932	0.025129	0.000055
C78	C	0.922932	0.525129	0.500055
C79	C	0.386160	0.076702	0.000052
C80	C	0.886160	0.576702	0.500052
O81	O	0.334974	-0.020119	0.000052
O82	O	0.834974	0.479881	0.500052
O83	O	0.308755	0.172007	0.000054
O84	O	0.808755	0.672007	0.500054
C85	C	0.677071	-0.030013	0.000072
C86	C	1.177071	0.469987	0.500072
C87	C	0.676305	-0.093230	0.000076
C88	C	1.176305	0.406770	0.500076
C89	C	0.723539	-0.492333	0.000049
C90	C	1.223539	0.007667	0.500049
C91	C	0.722827	-0.551733	0.000044
C92	C	1.222827	-0.051733	0.500044
O93	O	0.766613	-0.588478	0.000027
O94	O	1.266613	-0.088478	0.500027
N95	N	0.670551	-0.574359	0.000039
N96	N	1.170551	-0.074359	0.500039
C97	C	0.618983	-0.537582	0.000032
C98	C	1.118983	-0.037582	0.500032
O99	O	0.574452	-0.562281	0.000027
O100	O	1.074452	-0.062281	0.500027
C101	C	0.619695	-0.478182	0.000033
C102	C	1.119695	0.021818	0.500033
C103	C	0.671974	-0.455560	0.000044
C104	C	1.171974	0.044440	0.500044
C105	C	0.775814	-0.469710	0.000060
C106	C	1.275814	0.030290	0.500060
C107	C	0.776525	-0.410313	0.000065
C108	C	1.276525	0.089687	0.500065
C109	C	0.724961	-0.373540	0.000060
C110	C	1.224961	0.126460	0.500060
C111	C	0.672685	-0.396164	0.000050
C112	C	1.172685	0.103836	0.500050
C113	C	0.568127	-0.441406	0.000022
C114	C	1.068127	0.058594	0.500022
C115	C	0.568844	-0.382004	0.000021
C116	C	1.068844	0.117996	0.500021
C117	C	0.621123	-0.359381	0.000033
C118	C	1.121123	0.140619	0.500033
C119	C	0.621832	-0.299995	0.000050
C120	C	1.121832	0.200005	0.500050
N121	N	0.674109	-0.277368	0.000056
N122	N	1.174109	0.222632	0.500056
C123	C	0.725673	-0.314141	0.000061
C124	C	1.225673	0.185859	0.500061
C125	C	0.617491	-0.662324	0.000031
C126	C	1.117491	-0.162324	0.500031
C127	C	0.616778	-0.721722	0.000034
C128	C	1.116778	-0.221722	0.500034
C129	C	0.720623	-0.735869	0.000045
C130	C	1.220623	-0.235869	0.500045
C131	C	0.721335	-0.676470	0.000046
C132	C	1.221335	-0.176470	0.500046
C133	C	0.669767	-0.639698	0.000036
C134	C	1.169767	-0.139698	0.500036
C135	C	0.727163	-0.189405	0.000073
C136	C	1.227163	0.310595	0.500073
C137	C	0.727869	-0.130003	0.000081
C138	C	1.227869	0.369997	0.500081
C139	C	0.624025	-0.115860	0.000067
C140	C	1.124025	0.384140	0.500067
C141	C	0.623318	-0.175257	0.000062
C142	C	1.123318	0.324743	0.500062
C143	C	0.674891	-0.212029	0.000063
C144	C	1.174891	0.287971	0.500063
O145	O	0.578070	-0.263215	0.000065
O146	O	1.078070	0.236785	0.500065
O147	O	0.770196	-0.289433	0.000058
O148	O	1.270196	0.210567	0.500058
C149	C	0.776472	0.069388	0.000069
C150	C	1.276472	0.569388	0.500069
C151	C	0.839689	0.070154	0.000071
C152	C	1.339689	0.570154	0.500071
C153	C	0.667577	0.178283	0.000045
C154	C	1.167577	0.678283	0.500045
C155	C	0.668343	0.241500	0.000036
C156	C	1.168343	0.741500	0.500036
N157	N	0.672304	0.074155	0.153314
N158	N	1.172304	0.574155	0.653314
N159	N	0.672349	0.074111	-0.153196
N160	N	1.172349	0.574111	0.346804
C161	C	0.711273	0.035196	0.561965
C162	C	1.211273	0.535196	1.061965
C163	C	0.711276	0.035192	0.623884
C164	C	1.211276	0.535192	1.123884
O165	O	0.744384	0.002076	0.655911
O166	O	1.244384	0.502076	1.155911
N167	N	0.672334	0.074115	0.654851
N168	N	1.172334	0.574115	1.154851
C169	C	0.633383	0.113041	0.623895
C170	C	1.133383	0.613041	1.123895
O171	O	0.600259	0.146147	0.655920
O172	O	1.100259	0.646147	1.155920
C173	C	0.633377	0.113042	0.561976
C174	C	1.133377	0.613042	1.061976
C175	C	0.672326	0.074120	0.531013
C176	C	1.172326	0.574120	1.031013
C177	C	0.750218	-0.003724	0.531001
C178	C	1.250218	0.496276	1.031001
C179	C	0.750215	-0.003719	0.469085
C180	C	1.250215	0.496281	0.969085
C181	C	0.711268	0.035206	0.438133
C182	C	1.211268	0.535206	0.938133
C183	C	0.672323	0.074125	0.469097
C184	C	1.172323	0.574125	0.969097
C185	C	0.594424	0.151965	0.531021
C186	C	1.094424	0.651965	1.031021
C187	C	0.594422	0.151962	0.469098
C188	C	1.094422	0.651962	0.969098
C189	C	0.633370	0.113040	0.438134
C190	C	1.133370	0.613040	0.938134
C191	C	0.633374	0.113054	0.376229
C192	C	1.133374	0.613054	0.876229
N193	N	0.672316	0.074131	0.345262
N194	N	1.172316	0.574131	0.845262
C195	C	0.711263	0.035207	0.376214
C196	C	1.211263	0.535207	0.876214
C197	C	0.633396	0.113035	0.753928
C198	C	1.133396	0.613035	1.253928
C199	C	0.633403	0.113037	0.815846
C200	C	1.133403	0.613037	1.315846
C201	C	0.711296	0.035187	0.815831
C202	C	1.211296	0.535187	1.315831
C203	C	0.711291	0.035188	0.753913
C204	C	1.211291	0.535188	1.253913
C205	C	0.672338	0.074112	0.722962
C206	C	1.172338	0.574112	1.222962
C207	C	0.711255	0.035220	0.246187
C208	C	1.211255	0.535220	0.746187
C209	C	0.711251	0.035230	0.184266
C210	C	1.211251	0.535230	0.684266
C211	C	0.633357	0.113078	0.184286
C212	C	1.133357	0.613078	0.684286
C213	C	0.633363	0.113071	0.246202
C214	C	1.133363	0.613071	0.746202
C215	C	0.672314	0.074137	0.277151
C216	C	1.172314	0.574137	0.777151
O217	O	0.600281	0.146152	0.344163
O218	O	1.100281	0.646152	0.844163
O219	O	0.744376	0.002101	0.344182
O220	O	1.244376	0.502101	0.844182
H221	H	-0.034198	-0.022693	0.000084
H222	H	0.465802	0.477307	0.500084
C223	C	0.754102	-0.007577	0.150207
C224	C	1.254102	0.492423	0.650207
H225	H	0.748531	-0.001996	0.108896
H226	H	1.248531	0.498004	0.608896
H227	H	0.748144	-0.045560	0.160349
H228	H	1.248144	0.454440	0.660349
H229	H	0.792072	-0.001572	0.160358
H230	H	1.292072	0.498428	0.660358
C231	C	0.088035	0.234349	0.000038
C232	C	0.588035	0.734349	0.500038
H233	H	0.049416	0.226448	0.000042
H234	H	0.549416	0.726448	0.500042
H235	H	0.094872	0.255790	-0.034270
H236	H	0.594872	0.755790	0.465730
H237	H	0.094863	0.255804	0.034342
H238	H	0.594863	0.755804	0.534342
H239	H	0.246123	-0.071339	0.000104
H240	H	0.746123	0.428661	0.500104
C241	C	0.754103	-0.007603	0.280222
C242	C	1.254103	0.492397	0.780222
H243	H	0.777297	-0.030775	0.252906
H244	H	1.277297	0.469225	0.752906
H245	H	0.733760	-0.031213	0.304378
H246	H	1.233760	0.468787	0.804378
H247	H	0.777697	0.012765	0.304374
H248	H	1.277697	0.512765	0.804374
C249	C	-0.148412	-0.038918	0.000083
C250	C	0.351588	0.461082	0.500083
H251	H	-0.117999	-0.069523	0.000090
H252	H	0.382001	0.430477	0.500090
H253	H	-0.171290	-0.041363	-0.034218
H254	H	0.328710	0.458637	0.465782
H255	H	-0.171287	-0.041351	0.034393
H256	H	0.328713	0.458649	0.534393
C257	C	0.522786	-0.030880	0.000063
C258	C	1.022786	0.469120	0.500063
H259	H	0.561400	-0.022964	0.000066
H260	H	1.061400	0.477036	0.500066
H261	H	0.515965	-0.052342	-0.034234
H262	H	1.015965	0.447658	0.465766
H263	H	0.515958	-0.052321	0.034378
H264	H	1.015958	0.447679	0.534378
C265	C	0.567307	-0.075406	0.000058
C266	C	1.067307	0.424594	0.500058
H267	H	0.536068	-0.097383	0.000054
H268	H	1.036068	0.402617	0.500054
H269	H	0.565439	-0.051940	-0.034246
H270	H	1.065439	0.448060	0.465754
H271	H	0.565420	-0.051941	0.034366
H272	H	1.065420	0.448059	0.534366
C273	C	0.551578	0.194776	0.565070
C274	C	1.051578	0.694776	1.065070
H275	H	0.557154	0.189209	0.606382
H276	H	1.057154	0.689209	1.106382
H277	H	0.513609	0.188777	0.554920
H278	H	1.013609	0.688777	1.054920
H279	H	0.557545	0.232757	0.554920
H280	H	1.057545	0.732757	1.054920
H281	H	0.486602	0.172255	0.000024
H282	H	0.986602	0.672255	0.500024
H283	H	0.138375	-0.072634	0.000103
H284	H	0.638375	0.427366	0.500103
H285	H	0.404512	-0.017441	0.000056
H286	H	0.904512	0.482559	0.500056
H287	H	0.743005	0.003494	0.728706
H288	H	1.243005	0.503494	1.228706
C289	C	0.832538	-0.510154	0.000064
C290	C	1.332538	-0.010154	0.500064
H291	H	0.824637	-0.548773	0.000058
H292	H	1.324637	-0.048773	0.500058
H293	H	0.853981	-0.503321	0.034369
H294	H	1.353981	-0.003321	0.534369
H295	H	0.853991	-0.503321	-0.034242
H296	H	1.353991	-0.003321	0.465758
C297	C	-0.053402	0.180653	0.000054
C298	C	0.446598	0.680653	0.500054
H299	H	-0.083814	0.211258	0.000052
H300	H	0.416186	0.711258	0.500052
H301	H	-0.030520	0.183088	-0.034248
H302	H	0.469480	0.683088	0.465752
H303	H	-0.030530	0.183096	0.034363
H304	H	0.469470	0.683096	0.534363
H305	H	0.525555	-0.459814	0.000009
H306	H	1.025555	0.040186	0.500009
C307	C	-0.178138	0.179155	0.000059
C308	C	0.321862	0.679155	0.500059
H309	H	-0.216753	0.171239	0.000067
H310	H	0.283247	0.671239	0.500067
H311	H	-0.171314	0.200604	-0.034246
H312	H	0.328686	0.700604	0.465754
H313	H	-0.171314	0.200607	0.034365
H314	H	0.328686	0.700607	0.534365
H315	H	0.574207	-0.740136	0.000035
H316	H	1.074207	-0.240136	0.500035
H317	H	0.770443	-0.111587	0.000092
H318	H	1.270443	0.388413	0.500092
H319	H	0.575496	-0.632386	0.000028
H320	H	1.075496	-0.132386	0.500028
C321	C	0.793052	-0.046540	0.435033
C322	C	1.293052	0.453460	0.935033
H323	H	0.816240	-0.069723	0.462342
H324	H	1.316240	0.430277	0.962342
H325	H	0.816644	-0.026180	0.410874
H326	H	1.316644	0.473820	0.910874
H327	H	0.772695	-0.070146	0.410884
H328	H	1.272695	0.429854	0.910884
C329	C	0.783892	-0.229845	0.000079
C330	C	1.283892	0.270155	0.500079
H331	H	0.815123	-0.207856	0.000092
H332	H	1.315123	0.292144	0.500092
H333	H	0.785787	-0.253311	-0.034224
H334	H	1.285787	0.246689	0.465776
H335	H	0.785768	-0.253310	0.034387
H336	H	1.285768	0.246690	0.534387
H337	H	0.819097	-0.391900	0.000072
H338	H	1.319097	0.108100	0.500072
C339	C	0.778842	-0.651591	0.000053
C340	C	1.278842	-0.151591	0.500053
H341	H	0.809447	-0.682003	0.000052
H342	H	1.309447	-0.182003	0.500052
H343	H	0.781276	-0.628711	0.034355
H344	H	1.281276	-0.128711	0.534355
H345	H	0.781286	-0.628717	-0.034257
H346	H	1.281286	-0.128717	0.465743
H347	H	0.562700	0.183658	0.443901
H348	H	1.062700	0.683658	0.943901
H349	H	0.762610	-0.765821	0.000047
H350	H	1.262610	-0.265821	0.500047
C351	C	0.793066	-0.046541	0.565039
C352	C	1.293066	0.453459	1.065039
H353	H	0.816258	-0.069713	0.537722
H354	H	1.316258	0.430287	1.037722
H355	H	0.772727	-0.070151	0.589199
H356	H	1.272727	0.429849	1.089199
H357	H	0.816661	-0.026170	0.589186
H358	H	1.316661	0.473830	1.089186
H359	H	0.378851	0.170970	0.000041
H360	H	0.878851	0.670970	0.500041
H361	H	0.526850	-0.352066	0.000013
H362	H	1.026850	0.147934	0.500013
C363	C	0.590500	0.155862	0.280263
C364	C	1.090500	0.655862	0.780263
H365	H	0.567296	0.179035	0.252959
H366	H	1.067296	0.679035	0.752959
H367	H	0.610822	0.179474	0.304436
H368	H	1.110822	0.679474	0.804436
H369	H	0.566918	0.135462	0.304399
H370	H	1.066918	0.635462	0.804399
H371	H	0.580748	-0.193677	0.000069
H372	H	1.080748	0.306323	0.500069
C373	C	0.754132	-0.007635	0.849887
C374	C	1.254132	0.492365	1.349887
H375	H	0.748549	-0.002063	0.891197
H376	H	1.248549	0.497937	1.391197
H377	H	0.792106	-0.001648	0.839740
H378	H	1.292106	0.498352	1.339740
H379	H	0.748156	-0.045614	0.839739
H380	H	1.248156	0.454386	1.339739
C381	C	0.590561	0.155852	0.849899
C382	C	1.090561	0.655852	1.349899
H383	H	0.567364	0.179029	0.822592
H384	H	1.067364	0.679029	1.322592
H385	H	0.610905	0.179458	0.874057
H386	H	1.110905	0.679458	1.374057
H387	H	0.566970	0.135477	0.874051
H388	H	1.066970	0.635477	1.374051
C389	C	0.590553	0.155862	0.719888
C390	C	1.090553	0.655862	1.219888
H391	H	0.567367	0.179044	0.747202
H392	H	1.067367	0.679044	1.247202
H393	H	0.566957	0.135502	0.695734
H394	H	1.066957	0.635502	1.195734
H395	H	0.610905	0.179470	0.695734
H396	H	1.110905	0.679470	1.195734
C397	C	0.590517	0.155892	0.150234
C398	C	1.090517	0.655892	0.650234
H399	H	0.567323	0.179077	0.177539
H400	H	1.067323	0.679077	0.677539
H401	H	0.566931	0.135522	0.126080
H402	H	1.066931	0.635522	0.626080
H403	H	0.610870	0.179499	0.126078
H404	H	1.110870	0.679499	0.626078
C405	C	0.212753	0.235844	0.000043
C406	C	0.712753	0.735844	0.500043
H407	H	0.182339	0.266448	0.000047
H408	H	0.682339	0.766448	0.500047
H409	H	0.235634	0.238286	-0.034258
H410	H	0.735634	0.738286	0.465742
H411	H	0.235625	0.238283	0.034353
H412	H	0.735625	0.738283	0.534353
