data_functionalizedCrystal
_audit_creation_method	'MofGen! by Chris Wilmer'
_symmetry_space_group_name_H-M	'P1'
_symmetry_Int_Tables_number	1
_symmetry_cell_setting	triclinic
loop_
_symmetry_equiv_pos_as_xyz
  x,y,z
_cell_length_a	18.760487
_cell_length_b	19.902436
_cell_length_c	18.760492
_cell_angle_alpha	59.993485
_cell_angle_beta	90.032780
_cell_angle_gamma	60.022938
loop_
_atom_site_label
_atom_site_type_symbol
_atom_site_fract_x
_atom_site_fract_y
_atom_site_fract_z
Zr1	Zr	0.686703	0.735484	-0.093195
O2	O	0.572895	0.875664	-0.207096
O3	O	0.721590	0.595304	-0.058269
O4	O	0.721599	0.735484	-0.206990
O5	O	0.572880	0.735485	0.058928
O6	O	0.838902	0.735484	-0.206918
O7	O	0.572885	0.735485	-0.058374
O8	O	0.838885	0.484728	0.059118
O9	O	0.572897	0.986241	-0.207107
O10	O	0.824013	0.652962	-0.043331
O11	O	0.736467	0.652962	0.044157
O12	O	0.736478	0.818006	-0.130943
O13	O	0.648933	0.818006	-0.043456
Zr14	Zr	0.873780	0.735484	0.094004
Zr15	Zr	0.873788	0.735484	-0.093080
Zr16	Zr	0.686695	0.735485	0.093889
Zr17	Zr	0.686707	0.911841	-0.093213
Zr18	Zr	0.873776	0.559128	0.094022
O19	O	0.838894	0.875664	0.059078
O20	O	0.838905	0.875664	-0.206932
O21	O	0.572883	0.875665	0.058914
O22	O	0.987588	0.595304	0.207905
O23	O	0.987600	0.595304	-0.058105
O24	O	0.721578	0.595305	0.207741
O25	O	0.987603	0.735484	-0.058119
O26	O	0.838884	0.735485	0.207799
O27	O	0.721581	0.735485	0.207727
O28	O	0.987598	0.735484	0.059183
O29	O	0.721605	0.986241	-0.207016
O30	O	0.838879	0.484728	0.207825
O31	O	0.987586	0.484728	0.207916
O32	O	0.987592	0.484728	0.059209
O33	O	0.572891	0.986241	-0.058400
O34	O	0.721598	0.986241	-0.058309
O35	O	0.824005	0.652962	0.131752
O36	O	0.911551	0.652962	0.044265
O37	O	0.824016	0.818006	-0.043348
O38	O	0.736471	0.818006	0.044140
C39	C	0.546227	0.735485	0.000261
C40	C	0.466805	0.735485	0.000212
C41	C	0.780237	0.514889	0.000427
C42	C	0.780235	0.440021	0.000435
C43	C	0.085296	0.821639	-0.045176
C44	C	0.176688	0.649330	0.046292
C45	C	0.251310	0.649329	0.046217
C46	C	0.242928	0.735484	0.000444
C47	C	0.159924	0.821640	-0.045255
C48	C	0.334319	0.563174	0.091908
C49	C	0.408947	0.563169	0.091834
C50	C	0.400566	0.649325	0.046065
C51	C	0.317555	0.735485	0.000365
C52	C	0.309173	0.821640	-0.045409
C53	C	0.226163	0.907801	-0.091104
C54	C	0.151542	0.907796	-0.091024
C55	C	0.475187	0.649330	0.045985
C56	C	0.383801	0.821641	-0.045487
C57	C	0.780244	0.168011	0.000394
C58	C	0.725286	0.196249	0.055850
C59	C	0.724988	0.274368	0.055622
C60	C	0.780240	0.302958	0.000415
C61	C	0.739969	0.338521	-0.094742
C62	C	0.739556	0.260684	-0.094449
C63	C	0.875500	0.133496	0.039331
C64	C	0.875360	0.210548	0.041268
C65	C	0.780238	0.379226	0.000422
C66	C	0.780242	0.091747	0.000381
C67	C	1.014256	0.735484	0.000548
C68	C	1.093678	0.735484	0.000597
C69	C	0.780252	0.735484	-0.233609
C70	C	0.780255	0.735484	-0.313032
C71	C	0.780247	0.956080	0.000382
C72	C	0.780248	1.030948	0.000374
C73	C	0.825924	0.649330	-0.603113
C74	C	0.734537	0.821639	-0.694577
C75	C	0.734543	0.821640	-0.619957
C76	C	0.780239	0.735485	-0.536910
C77	C	0.825930	0.649328	-0.528484
C78	C	0.688846	0.907795	-0.628376
C79	C	0.688849	0.907800	-0.553753
C80	C	0.734551	0.821644	-0.470704
C81	C	0.780244	0.735484	-0.462281
C82	C	0.825941	0.649329	-0.379234
C83	C	0.871639	0.563168	-0.370809
C84	C	0.871632	0.563172	-0.445435
C85	C	0.734559	0.821639	-0.396078
C86	C	0.825946	0.649327	-0.304605
C87	C	0.780232	0.735485	0.234418
C88	C	0.780228	0.735485	0.313841
C89	C	1.014251	0.514889	0.000571
C90	C	1.093672	0.440021	0.000628
C91	C	0.780227	0.514889	0.234441
C92	C	0.780222	0.440021	0.313871
C93	C	1.014241	0.514889	0.234585
C94	C	1.093658	0.440021	0.314064
C95	C	0.546242	0.956080	-0.233776
C96	C	0.466825	1.030948	-0.313255
C97	C	0.546232	0.956080	0.000238
C98	C	0.466812	1.030948	0.000181
C99	C	0.780257	0.956079	-0.233632
C100	C	0.780262	1.030947	-0.313062
C101	C	1.085274	0.404862	-0.045078
C102	C	1.159891	0.334525	-0.045042
C103	C	1.242905	0.299343	0.000705
C104	C	1.251300	0.334509	0.046411
C105	C	1.176684	0.404850	0.046370
C106	C	0.825913	0.404863	0.396904
C107	C	0.825905	0.334526	0.471544
C108	C	0.780210	0.299345	0.463149
C109	C	0.734513	0.334510	0.380107
C110	C	0.734516	0.404850	0.305469
C111	C	1.176659	0.404862	0.305720
C112	C	1.251287	0.334525	0.380392
C113	C	1.242912	0.299344	0.463406
C114	C	1.159903	0.334510	0.471748
C115	C	1.085277	0.404850	0.397077
C116	C	0.383824	1.066115	-0.304911
C117	C	0.309196	1.136474	-0.379583
C118	C	0.317571	1.171659	-0.462597
C119	C	0.400581	1.136488	-0.470939
C120	C	0.475207	1.066136	-0.396268
C121	C	0.475209	1.066114	0.045879
C122	C	0.400592	1.136471	0.045822
C123	C	0.317578	1.171655	0.000073
C124	C	0.309183	1.136485	-0.045630
C125	C	0.383799	1.066135	-0.045578
C126	C	0.825966	1.066106	-0.304639
C127	C	0.825988	1.136443	-0.379265
C128	C	0.780300	1.171625	-0.462312
C129	C	0.734594	1.136459	-0.470734
C130	C	0.734578	1.066118	-0.396109
H131	H	0.376965	0.891800	-0.082753
C132	C	0.684256	0.295795	0.370887
N133	N	0.646408	0.266628	0.363946
C134	C	0.217860	1.175185	-0.095936
N135	N	0.149073	1.204328	-0.133819
C136	C	0.684260	0.443507	0.214134
N137	N	0.646405	0.472619	0.145342
H138	H	0.542796	1.037473	0.083139
H139	H	1.183495	0.433496	0.238132
C140	C	0.684377	1.175135	-0.562094
N141	N	0.646564	1.204260	-0.630910
C142	C	0.791450	0.366746	-0.152985
N143	N	0.830227	0.388004	-0.196853
H144	H	0.863124	0.433499	0.403756
H145	H	0.376950	1.037505	-0.082788
C146	C	1.342589	0.295847	0.371196
N147	N	1.411356	0.266714	0.364267
C148	C	0.409778	1.175194	-0.562263
N149	N	0.416703	1.204342	-0.631051
H150	H	0.476531	0.493011	0.129041
H151	H	0.863170	1.037472	-0.237024
H152	H	0.863205	1.165068	-0.372391
C153	C	0.216954	1.002569	-0.141456
N154	N	0.210022	1.073945	-0.179379
H155	H	1.303685	0.242068	0.524201
H156	H	1.153097	0.305855	0.539348
C157	C	0.409846	1.175136	0.096109
N158	N	0.416820	1.204255	0.133988
C159	C	0.646185	0.429050	-0.137144
N160	N	0.575547	0.497239	-0.169079
H161	H	1.017696	0.433467	0.403883
H162	H	0.256828	1.228938	0.000038
H163	H	0.669461	0.290226	-0.125616
H164	H	0.083951	0.977944	-0.128226
H165	H	1.153039	0.305901	-0.082262
C166	C	0.684283	1.027464	-0.405389
N167	N	0.646396	0.998355	-0.412385
C168	C	0.374591	1.027431	-0.213602
N169	N	0.367628	0.998304	-0.144830
C170	C	0.217894	1.175147	-0.370387
N171	N	0.149127	1.204273	-0.363458
C172	C	0.931080	0.108016	-0.014973
N173	N	0.972936	0.088825	-0.055877
H174	H	0.017707	0.891789	-0.082377
H175	H	0.256798	1.228944	-0.523392
H176	H	0.780320	1.228901	-0.523070
H177	H	0.655436	0.222209	0.029079
H178	H	0.542770	0.579179	0.083197
H179	H	0.542788	1.037503	-0.403072
C180	C	0.343532	0.468410	0.142252
N181	N	0.350469	0.397030	0.180174
C182	C	0.185903	0.554565	0.096638
N183	N	0.192843	0.483184	0.134562
C184	C	0.916021	0.171740	0.135960
N185	N	0.946651	0.142525	0.207277
C186	C	0.761472	0.238376	0.150281
N187	N	0.788949	0.211262	0.221583
H188	H	0.752154	0.131743	0.126095
H189	H	0.654725	0.338827	0.028623
H190	H	0.909146	0.065448	0.108328
C191	C	0.790143	0.239134	-0.153305
N192	N	0.828243	0.222908	-0.197635
C193	C	1.342623	0.295792	0.096736
N194	N	1.411410	0.266623	0.134647
H195	H	0.863161	0.579169	-0.236988
H196	H	0.919758	0.226154	0.005081
H197	H	0.908840	0.493020	-0.303183
H198	H	0.863134	0.579180	-0.596257
C199	C	0.921886	0.468404	-0.436177
N200	N	0.959732	0.397025	-0.429208
H201	H	0.697329	0.891782	-0.762196
H202	H	0.863120	0.305902	0.539152
H203	H	0.651640	0.977938	-0.695996
H204	H	0.697345	0.891790	-0.402941
C205	C	0.638589	1.002578	-0.563028
N206	N	0.600736	1.073965	-0.570014
H207	H	1.303655	0.242067	0.000732
C208	C	0.993966	0.443553	-0.095412
N209	N	0.925195	0.472696	-0.133331
H210	H	0.780214	0.242069	0.523931
H211	H	1.183533	0.433467	0.083594
