data_functionalizedCrystal
_audit_creation_method	'MofGen! by Chris Wilmer'
_symmetry_space_group_name_H-M	'P1'
_symmetry_Int_Tables_number	1
_symmetry_cell_setting	triclinic
loop_
_symmetry_equiv_pos_as_xyz
  x,y,z
_cell_length_a	14.044220
_cell_length_b	17.699077
_cell_length_c	16.776229
_cell_angle_alpha	89.993415
_cell_angle_beta	90.005202
_cell_angle_gamma	91.765273
loop_
_atom_site_label
_atom_site_type_symbol
_atom_site_fract_x
_atom_site_fract_y
_atom_site_fract_z
O1	O	-0.119823	1.012347	-0.066276
O2	O	0.213510	1.345680	0.267057
O3	O	0.546844	1.679014	0.600391
O4	O	-0.135422	0.793044	-0.066280
O5	O	0.197912	1.126377	0.267054
O6	O	0.531245	1.459711	0.600387
O7	O	0.010355	0.899404	-0.066274
O8	O	0.343688	1.232737	0.267059
O9	O	0.677021	1.566070	0.600392
O10	O	-0.265599	0.905987	-0.066281
O11	O	0.067734	1.239321	0.267052
O12	O	0.401067	1.572654	0.600385
O13	O	0.010364	0.899388	0.066302
O14	O	0.343697	1.232721	0.399635
O15	O	0.677030	1.566054	0.732969
O16	O	-0.135413	0.793028	0.066297
O17	O	0.197921	1.126361	0.399630
O18	O	0.531254	1.459695	0.732963
O19	O	-0.119814	1.012331	0.066301
O20	O	0.213519	1.345664	0.399634
O21	O	0.546853	1.678998	0.732967
Zn22	Zn	-0.127612	0.902677	0.087348
Zn23	Zn	0.205721	1.236010	0.420681
Zn24	Zn	0.539055	1.569344	0.754015
Zn25	Zn	-0.127624	0.902698	-0.087327
Zn26	Zn	0.205710	1.236031	0.246006
Zn27	Zn	0.539043	1.569365	0.579339
O28	O	-0.265590	0.905971	0.066295
O29	O	0.067743	1.239305	0.399629
O30	O	0.401076	1.572638	0.732962
C31	C	-0.134859	0.764800	0.000008
C32	C	0.198474	1.098134	0.333341
C33	C	0.531807	1.431467	0.666675
C34	C	-0.133185	0.680667	0.000007
C35	C	0.200148	1.014000	0.333340
C36	C	0.533481	1.347333	0.666673
C37	C	-0.132392	0.641136	0.072275
C38	C	0.200942	0.974469	0.405608
C39	C	0.534275	1.307803	0.738942
C40	C	-0.130804	0.562084	0.072276
C41	C	0.202530	0.895417	0.405609
C42	C	0.535863	1.228751	0.738943
C43	C	-0.130016	0.522564	0.000008
C44	C	0.203317	0.855897	0.333341
C45	C	0.536650	1.189230	0.666674
C46	C	-0.130807	0.562100	-0.072266
C47	C	0.202526	0.895433	0.261067
C48	C	0.535860	1.228767	0.594400
C49	C	-0.132388	0.641151	-0.072266
C50	C	0.200945	0.974484	0.261067
C51	C	0.534278	1.307817	0.594400
C52	C	-0.124429	0.243297	-0.072268
C53	C	0.208904	0.576630	0.261066
C54	C	0.542237	0.909963	0.594399
C55	C	-0.122851	0.164240	-0.072262
C56	C	0.210482	0.497573	0.261071
C57	C	0.543816	0.830907	0.594405
C58	C	-0.122845	0.164230	0.072275
C59	C	0.210489	0.497563	0.405608
C60	C	0.543822	0.830897	0.738941
C61	C	-0.124426	0.243281	0.072275
C62	C	0.208907	0.576614	0.405608
C63	C	0.542241	0.909947	0.738941
C64	C	-0.125212	0.282810	0.000001
C65	C	0.208122	0.616144	0.333334
C66	C	0.541455	0.949477	0.666668
C67	C	-0.126932	0.368528	0.000001
C68	C	0.206402	0.701861	0.333334
C69	C	0.539735	1.035194	0.666668
C70	C	-0.128303	0.436848	0.000007
C71	C	0.205030	0.770181	0.333340
C72	C	0.538364	1.103514	0.666674
C73	C	-0.300903	0.908861	0.000006
C74	C	0.032431	1.242194	0.333339
C75	C	0.365764	1.575528	0.666673
C76	C	-0.406108	0.917457	0.000003
C77	C	-0.072775	1.250790	0.333337
C78	C	0.260558	1.584124	0.666670
C79	C	-0.598733	0.933172	0.000007
C80	C	-0.265400	1.266506	0.333340
C81	C	0.067934	1.599839	0.666674
C82	C	-0.656508	0.872206	0.000007
C83	C	-0.323175	1.205540	0.333340
C84	C	0.010158	1.538873	0.666673
C85	C	-0.763691	0.880950	0.000009
C86	C	-0.430358	1.214284	0.333342
C87	C	-0.097025	1.547617	0.666676
C88	C	-0.491540	0.924429	0.000005
C89	C	-0.158207	1.257763	0.333338
C90	C	0.175127	1.591096	0.666672
C91	C	0.045667	0.896514	0.000013
C92	C	0.379000	1.229847	0.333346
C93	C	0.712333	1.563181	0.666680
C94	C	0.150873	0.887918	0.000011
C95	C	0.484206	1.221251	0.333344
C96	C	0.817539	1.554585	0.666677
C97	C	-0.120376	1.040575	0.000011
C98	C	0.212957	1.373908	0.333344
C99	C	0.546290	1.707241	0.666678
C100	C	-0.122050	1.124708	0.000007
C101	C	0.211283	1.458042	0.333340
C102	C	0.544616	1.791375	0.666674
N103	N	-0.127603	0.902668	0.206559
N104	N	0.205730	1.236001	0.539893
N105	N	0.539063	1.569335	0.873226
N106	N	-0.127625	0.902712	-0.206538
N107	N	0.205709	1.236046	0.126795
N108	N	0.539042	1.569379	0.460128
C109	C	-0.063080	0.949782	0.248279
C110	C	0.270253	1.283115	0.581612
C111	C	0.603587	1.616448	0.914945
C112	C	-0.063079	0.949786	0.331731
C113	C	0.270254	1.283119	0.665064
C114	C	0.603587	1.616452	0.998398
C115	C	-0.127607	0.902680	0.373462
C116	C	0.205726	1.236013	0.706795
C117	C	0.539060	1.569346	1.040129
C118	C	-0.192133	0.855561	0.331737
C119	C	0.141200	1.188894	0.665070
C120	C	0.474533	1.522228	0.998404
C121	C	-0.192129	0.855553	0.248286
C122	C	0.141204	1.188887	0.581620
C123	C	0.474538	1.522220	0.914953
C124	C	-0.192152	0.855589	0.668284
C125	C	0.141181	1.188923	1.001617
C126	C	0.474515	1.522256	1.334951
C127	C	-0.192153	0.855602	0.751741
C128	C	0.141180	1.188936	1.085074
C129	C	0.474513	1.522269	1.418407
C130	C	-0.063102	0.949822	0.751729
C131	C	0.270231	1.283155	1.085062
C132	C	0.603564	1.616489	1.418395
C133	C	-0.063098	0.949814	0.668278
C134	C	0.270235	1.283148	1.001611
C135	C	0.603569	1.616481	1.334945
C136	C	-0.127620	0.902693	0.626560
C137	C	0.205713	1.236026	0.959893
C138	C	0.539046	1.569360	1.293227
C139	C	-0.127619	0.902688	0.536072
C140	C	0.205714	1.236021	0.869405
C141	C	0.539047	1.569355	1.202738
C142	C	-0.127613	0.902688	0.463949
C143	C	0.205720	1.236021	0.797282
C144	C	0.539053	1.569355	1.130616
H145	H	-0.122209	0.132065	-0.131115
H146	H	0.211125	0.465398	0.202218
H147	H	0.544458	0.798731	0.535552
Br148	Br	0.024468	1.013773	0.808350
Br149	Br	0.357801	1.347106	1.141683
Br150	Br	0.691134	1.680440	1.475016
Br151	Br	-0.604788	0.774265	0.000010
Br152	Br	-0.271455	1.107598	0.333343
Br153	Br	0.061878	1.440931	0.666677
Br154	Br	-0.650456	1.031107	0.000011
Br155	Br	-0.317122	1.364441	0.333345
Br156	Br	0.016211	1.697774	0.666678
Br157	Br	0.024492	1.013721	0.191652
Br158	Br	0.357825	1.347054	0.524986
Br159	Br	0.691159	1.680388	0.858319
Br160	Br	0.024493	1.013724	0.388353
Br161	Br	0.357826	1.347057	0.721686
Br162	Br	0.691159	1.680390	1.055020
H163	H	-0.122201	0.132036	0.131123
H164	H	0.211133	0.465369	0.464456
H165	H	0.544466	0.798702	0.797790
H166	H	-0.010557	0.988175	0.634303
H167	H	0.322777	1.321508	0.967636
H168	H	0.656110	1.654842	1.300970
H169	H	-0.244702	0.817240	0.785717
H170	H	0.088632	1.150573	1.119050
H171	H	0.421965	1.483907	1.452383
Br172	Br	-0.279717	0.791643	0.611671
Br173	Br	0.053616	1.124976	0.945005
Br174	Br	0.386949	1.458309	1.278338
H175	H	-0.244670	0.817202	0.365719
H176	H	0.088663	1.150536	0.699053
H177	H	0.421997	1.483869	1.032386
Br178	Br	-0.129742	0.508437	0.170359
Br179	Br	0.203591	0.841771	0.503692
Br180	Br	0.536924	1.175104	0.837025
H181	H	-0.125066	0.275472	-0.131117
H182	H	0.208267	0.608805	0.202216
H183	H	0.541601	0.942139	0.535550
Br184	Br	-0.279694	0.791605	0.191667
Br185	Br	0.053639	1.124939	0.525000
Br186	Br	0.386973	1.458272	0.858333
Br187	Br	-0.129696	0.508468	-0.170346
Br188	Br	0.203637	0.841801	0.162987
Br189	Br	0.536970	1.175134	0.496320
H190	H	-0.133041	0.673308	0.131124
H191	H	0.200293	1.006641	0.464458
H192	H	0.533626	1.339974	0.797791
Br193	Br	-0.133457	0.694801	-0.170349
Br194	Br	0.199877	1.028134	0.162985
Br195	Br	0.533210	1.361468	0.496318
Br196	Br	-0.125504	0.296911	0.170356
Br197	Br	0.207830	0.630245	0.503690
Br198	Br	0.541163	0.963578	0.837023
