data_functionalizedCrystal
_audit_creation_method	'MofGen! by Chris Wilmer'
_symmetry_space_group_name_H-M	'P1'
_symmetry_Int_Tables_number	1
_symmetry_cell_setting	triclinic
loop_
_symmetry_equiv_pos_as_xyz
  x,y,z
_cell_length_a	14.853567
_cell_length_b	18.366186
_cell_length_c	19.288865
_cell_angle_alpha	89.987206
_cell_angle_beta	96.614411
_cell_angle_gamma	89.996097
loop_
_atom_site_label
_atom_site_type_symbol
_atom_site_fract_x
_atom_site_fract_y
_atom_site_fract_z
O1	O	1.195841	0.060508	-0.090688
O2	O	0.933321	0.060522	-0.101490
O3	O	1.072167	0.060500	0.005016
O4	O	1.056995	0.060530	-0.197194
O5	O	1.072170	-0.060599	0.005026
O6	O	0.933324	-0.060578	-0.101480
O7	O	1.195845	-0.060591	-0.090677
Zn8	Zn	1.064585	-0.079812	-0.096077
Zn9	Zn	1.064580	0.079742	-0.096091
O10	O	1.056999	-0.060570	-0.197183
C11	C	0.899736	-0.000027	-0.100996
C12	C	0.799661	-0.000022	-0.099529
N13	N	1.064578	0.188633	-0.096095
C14	C	1.071680	-0.000052	0.030899
C15	C	1.070215	-0.000058	0.108008
C16	C	0.387522	-0.000048	-0.030061
C17	C	0.365522	-0.000029	-0.156593
C18	C	0.459548	-0.000027	-0.157972
C19	C	0.517565	-0.000034	-0.095395
C20	C	0.481557	-0.000044	-0.031439
C21	C	0.495563	-0.000009	-0.221927
C22	C	0.589594	-0.000006	-0.223309
C23	C	0.647614	-0.000019	-0.160731
C24	C	0.611600	-0.000029	-0.096772
C25	C	0.669618	-0.000037	-0.034195
C26	C	0.633606	-0.000052	0.029764
C27	C	0.539577	-0.000056	0.031139
C28	C	0.741643	-0.000015	-0.162106
C29	C	0.763653	-0.000032	-0.035572
C30	C	1.229429	-0.000041	-0.091172
C31	C	1.329504	-0.000041	-0.092639
N32	N	1.064594	-0.188703	-0.096067
C33	C	1.126168	0.226724	-0.049026
C34	C	1.126176	0.302952	-0.049025
C35	C	1.064578	0.341086	-0.096085
C36	C	1.002983	0.302986	-0.143163
C37	C	1.002983	0.226759	-0.143167
C38	C	0.982436	0.461858	-0.104953
C39	C	0.982435	0.538083	-0.104943
C40	C	1.064579	0.576193	-0.096075
C41	C	1.146728	0.538069	-0.087201
C42	C	1.146728	0.461843	-0.087206
C43	C	1.064572	0.423741	-0.096086
C44	C	1.126183	0.696939	-0.049002
C45	C	1.126192	0.773168	-0.049006
C46	C	1.002991	0.773201	-0.143140
C47	C	1.002990	0.696973	-0.143140
C48	C	1.064585	0.658847	-0.096067
C49	C	1.057485	-0.000016	-0.223067
C50	C	1.058951	-0.000005	-0.300175
C51	C	1.151683	-0.000066	0.152429
C52	C	1.150307	-0.000054	0.224881
C53	C	1.067457	-0.000050	0.252908
C54	C	0.985977	-0.000038	0.208477
C55	C	0.987356	-0.000042	0.136027
C56	C	1.002328	-0.042465	0.361419
C57	C	1.000953	-0.042465	0.433868
C58	C	1.063200	-0.000033	0.476368
C59	C	1.126838	0.042390	0.446411
C60	C	1.128217	0.042385	0.373961
C61	C	1.065952	-0.000044	0.331467
C62	C	1.143181	-0.000027	0.599350
C63	C	1.141801	-0.000011	0.671803
C64	C	0.977470	-0.000002	0.655397
C65	C	0.978852	-0.000011	0.582946
C66	C	1.061710	-0.000027	0.554927
H67	H	0.810886	-0.000041	0.015386
H68	H	1.208146	-0.000013	0.707971
N69	N	0.936541	0.344107	-0.193922
H70	H	0.970778	0.375743	-0.224779
H71	H	0.896823	0.375682	-0.167207
N72	N	1.238179	-0.000061	0.272804
H73	H	1.290877	-0.000071	0.244061
H74	H	1.241178	-0.044954	0.303232
H75	H	1.213616	0.430806	-0.079982
N76	N	1.196847	0.088138	0.341649
H77	H	1.236075	0.115021	0.379561
H78	H	1.164241	0.124375	0.308268
H79	H	1.177526	0.076942	0.481014
H80	H	0.952828	0.195745	-0.181497
H81	H	0.510247	-0.000086	0.083212
H82	H	0.915539	0.430835	-0.112178
N83	N	0.888108	0.000011	0.685616
H84	H	0.899595	0.000015	0.738254
H85	H	0.852468	-0.044880	0.669384
N86	N	0.936546	0.814323	-0.193892
H87	H	0.897523	0.778622	-0.223709
H88	H	0.970844	0.845958	-0.224705
N89	N	0.432980	0.000010	-0.289412
H90	H	0.393472	0.044901	-0.291647
H91	H	0.393542	-0.044912	-0.291616
H92	H	0.358197	-0.000064	0.022013
H93	H	0.952834	0.665958	-0.181465
N94	N	0.935193	-0.088232	0.315574
H95	H	0.871518	-0.072394	0.321841
H96	H	0.943434	-0.141158	0.329054
H97	H	1.219153	-0.000076	0.129621
H98	H	1.213618	0.569097	-0.079985
H99	H	0.915544	0.569118	-0.112161
H100	H	0.770960	-0.000003	-0.214181
N101	N	0.628433	0.000016	-0.292290
H102	H	0.577410	0.000022	-0.331722
H103	H	0.666974	-0.044875	-0.295617
H104	H	0.680856	-0.000053	0.080715
H105	H	0.918520	-0.000032	0.231301
H106	H	0.318279	-0.000017	-0.207540
H107	H	1.176324	0.195684	-0.010699
N108	N	0.890982	-0.000006	0.535029
H109	H	0.838286	-0.000002	0.563775
H110	H	0.887977	-0.044901	0.504624
H111	H	0.921013	-0.000036	0.099858
N112	N	1.192622	0.655806	0.001754
H113	H	1.158383	0.624175	0.032614
H114	H	1.231634	0.691549	0.031523
H115	H	1.176351	0.804183	-0.010679
N116	N	1.192609	0.344048	0.001742
H117	H	1.231629	0.308328	0.031560
H118	H	1.158299	0.375666	0.032553
N119	N	1.232544	-0.000041	0.569122
H120	H	1.283947	-0.000039	0.608260
H121	H	1.236693	0.044847	0.539404
H122	H	0.949131	-0.077004	0.458252
