data_functionalizedCrystal
_audit_creation_method	'MofGen! by Chris Wilmer'
_symmetry_space_group_name_H-M	'P1'
_symmetry_Int_Tables_number	1
_symmetry_cell_setting	triclinic
loop_
_symmetry_equiv_pos_as_xyz
  x,y,z
_cell_length_a	16.120566
_cell_length_b	12.759399
_cell_length_c	16.120256
_cell_angle_alpha	87.123291
_cell_angle_beta	89.874858
_cell_angle_gamma	87.111367
loop_
_atom_site_label
_atom_site_type_symbol
_atom_site_fract_x
_atom_site_fract_y
_atom_site_fract_z
Zn1	Zn	-1.247498	0.532288	-0.534652
Zn2	Zn	-1.254467	0.699536	-0.395599
Zn3	Zn	-1.115486	0.514530	-0.388561
Zn4	Zn	-1.108424	0.698575	-0.527561
O5	O	-1.181469	0.611232	-0.461593
O6	O	-1.364789	0.562308	-0.522119
O7	O	-1.241904	0.667965	-0.278300
O8	O	-1.133036	0.369869	-0.407963
O9	O	-1.369910	0.685184	-0.419958
O10	O	-1.230025	0.382915	-0.515295
O11	O	-1.139795	0.532042	-0.273129
O12	O	-0.998183	0.531110	-0.401087
O13	O	-1.121000	0.683546	-0.644868
O14	O	-0.992994	0.666327	-0.503210
O15	O	-1.223177	0.561376	-0.650077
O16	O	-1.235056	0.846426	-0.413082
O17	O	-1.127758	0.845720	-0.510034
C18	C	-0.965416	0.596688	-0.450616
C19	C	-0.872986	0.590492	-0.445939
C20	C	-1.181419	0.884195	-0.461572
C21	C	-1.181472	1.000977	-0.461594
C22	C	-1.170523	0.624335	-0.678488
C23	C	-1.165859	0.629918	-0.770916
C24	C	-0.703756	0.579157	-0.437408
C25	C	-0.660022	0.643399	-0.485785
C26	C	-0.565856	0.637092	-0.481038
C27	C	-0.797930	0.585463	-0.442154
C28	C	-0.398366	0.625837	-0.472601
C29	C	-0.490797	0.632066	-0.477257
C30	C	-1.181541	0.337206	-0.461634
C31	C	-1.181571	0.220433	-0.461652
C32	C	-1.237399	1.056179	-0.411175
C33	C	-1.237451	1.165908	-0.411206
C34	C	-1.125641	1.165223	-0.512077
C35	C	-1.125594	1.055496	-0.512050
C36	C	-1.205792	0.582088	-0.983901
C37	C	-1.157315	0.640067	-0.940136
C38	C	-1.162070	0.634419	-0.845973
C39	C	-1.201038	0.587735	-1.078072
C40	C	-1.192420	0.598108	-0.245545
C41	C	-1.197245	0.592240	-0.153126
H42	H	-0.670479	0.519426	-0.392430
H43	H	-1.282900	1.011792	-0.370092
N44	N	-0.704104	0.722535	-0.545359
H45	H	-0.689680	0.795796	-0.531589
H46	H	-0.686050	0.708857	-0.604032
N47	N	-1.297775	1.225450	-0.356827
H48	H	-1.333163	1.174258	-0.324862
H49	H	-1.265919	1.266437	-0.316612
H50	H	-1.250863	0.528213	-0.950652
N51	N	-1.097615	0.711453	-0.984168
H52	H	-1.038949	0.690259	-0.966080
H53	H	-1.102710	0.705399	-1.046157
H54	H	-1.080051	1.010547	-0.553112
N55	N	-1.065372	1.224025	-0.566491
H56	H	-1.073885	1.301914	-0.558856
H57	H	-1.006641	1.200135	-0.550477
