data_functionalizedCrystal
_audit_creation_method	'MofGen! by Chris Wilmer'
_symmetry_space_group_name_H-M	'P1'
_symmetry_Int_Tables_number	1
_symmetry_cell_setting	triclinic
loop_
_symmetry_equiv_pos_as_xyz
  x,y,z
_cell_length_a	13.032831
_cell_length_b	21.395361
_cell_length_c	21.395355
_cell_angle_alpha	90.021511
_cell_angle_beta	82.805728
_cell_angle_gamma	97.165429
loop_
_atom_site_label
_atom_site_type_symbol
_atom_site_fract_x
_atom_site_fract_y
_atom_site_fract_z
Zn1	Zn	1.597615	0.371368	-0.475667
Zn2	Zn	2.097615	0.871368	0.024333
Zn3	Zn	1.597453	0.476115	-0.370872
Zn4	Zn	2.097453	0.976115	0.129128
Zn5	Zn	1.422844	0.358037	-0.357621
Zn6	Zn	1.922844	0.858037	0.142379
Zn7	Zn	1.422793	0.462777	-0.462338
Zn8	Zn	1.922793	0.962777	0.037662
O9	O	1.510176	0.417074	-0.416624
O10	O	2.010176	0.917074	0.083376
O11	O	1.743832	0.396423	-0.472889
O12	O	2.243832	0.896423	0.027111
O13	O	1.574244	0.460455	-0.281432
O14	O	2.074244	0.960455	0.218568
O15	O	1.446117	0.272134	-0.373313
O16	O	1.946117	0.772134	0.126687
O17	O	1.743712	0.473381	-0.395897
O18	O	2.243712	0.973381	0.104103
O19	O	1.574521	0.281928	-0.460041
O20	O	2.074521	0.781928	0.039959
O21	O	1.445960	0.373704	-0.271697
O22	O	1.945960	0.873704	0.228303
O23	O	1.276599	0.360770	-0.360388
O24	O	1.776599	0.860770	0.139612
O25	O	1.446030	0.450648	-0.551787
O26	O	1.946030	0.950648	-0.051787
O27	O	1.276561	0.437722	-0.437323
O28	O	1.776561	0.937722	0.062677
O29	O	1.574471	0.383490	-0.561580
O30	O	2.074471	0.883490	-0.061580
O31	O	1.574194	0.562017	-0.382972
O32	O	2.074194	1.062017	0.117028
O33	O	1.445872	0.552217	-0.450172
O34	O	1.945872	1.052217	0.049828
C35	C	1.510038	0.579851	-0.416579
C36	C	2.010038	1.079851	0.083421
C37	C	1.510075	0.649495	-0.416588
C38	C	2.010075	1.149495	0.083412
C39	C	1.238662	0.396353	-0.395972
C40	C	1.738662	0.896353	0.104028
C41	C	1.122508	0.387503	-0.387151
C42	C	1.622508	0.887503	0.112849
C43	C	1.510263	0.417068	-0.580054
C44	C	2.010263	0.917068	-0.080054
C45	C	1.510300	0.417066	-0.649698
C46	C	2.010300	0.917066	-0.149698
C47	C	1.070731	0.421693	-0.421228
C48	C	1.570731	0.921693	0.078772
C49	C	0.950679	0.412547	-0.412112
C50	C	1.450679	0.912547	0.087888
C51	C	1.782750	0.437877	-0.437358
C52	C	2.282750	0.937877	0.062642
C53	C	1.898905	0.446742	-0.446193
C54	C	2.398905	0.946742	0.053807
C55	C	1.510343	0.253664	-0.416686
C56	C	2.010343	0.753664	0.083314
C57	C	1.510414	0.184028	-0.416712
C58	C	2.010414	0.684028	0.083288
C59	C	1.576951	0.687295	-0.381642
C60	C	2.076951	1.187295	0.118358
C61	C	1.577000	0.752734	-0.381660
C62	C	2.077000	1.252734	0.118340
C63	C	1.510153	0.780370	-0.416615
C64	C	2.010153	1.280370	0.083385
C65	C	1.443272	0.742562	-0.451568
C66	C	1.943272	1.242562	0.048432
C67	C	1.443233	0.677125	-0.451554
C68	C	1.943233	1.177125	0.048446
C69	C	1.416059	0.876908	-0.414374
C70	C	1.916059	1.376908	0.085626
C71	C	1.416097	0.942344	-0.414383
C72	C	1.916097	1.442344	0.085617
C73	C	1.510275	0.982200	-0.416661
C74	C	2.010275	1.482200	0.083339
C75	C	1.604419	0.956612	-0.418917
C76	C	2.104419	1.456612	0.081083
C77	C	1.604380	0.891175	-0.418903
C78	C	2.104380	1.391175	0.081097
C79	C	1.510189	0.851325	-0.416634
C80	C	2.010189	1.351325	0.083366
C81	C	1.577210	1.090956	-0.381733
C82	C	2.077210	1.590956	0.118267
C83	C	1.577260	1.156396	-0.381756
C84	C	2.077260	1.656396	0.118244
C85	C	1.443523	1.146223	-0.451660
C86	C	1.943523	1.646223	0.048340
C87	C	1.443482	1.080784	-0.451641
C88	C	1.943482	1.580784	0.048359
C89	C	1.510324	1.053155	-0.416675
C90	C	2.010324	1.553155	0.083325
C91	C	1.577176	0.382094	-0.687511
C92	C	2.077176	0.882094	-0.187511
C93	C	1.577175	0.382067	-0.752947
C94	C	2.077175	0.882067	-0.252947
C95	C	1.510308	0.417023	-0.780567
C96	C	2.010308	0.917023	-0.280567
C97	C	1.443419	0.451996	-0.742745
C98	C	1.943419	0.951996	-0.242745
C99	C	1.443414	0.452017	-0.677311
C100	C	1.943414	0.952017	-0.177311
C101	C	1.502009	0.472806	-0.883599
C102	C	2.002009	0.972806	-0.383599
C103	C	1.502020	0.472786	-0.949033
C104	C	2.002020	0.972786	-0.449033
C105	C	1.510315	0.416958	-0.982389
C106	C	2.010315	0.916958	-0.482389
C107	C	1.518620	0.361149	-0.950304
C108	C	2.018620	0.861149	-0.450304
C109	C	1.518615	0.361170	-0.884870
C110	C	2.018615	0.861170	-0.384870
C111	C	1.510305	0.417004	-0.851520
C112	C	2.010305	0.917004	-0.351520
C113	C	1.577193	0.381954	-1.091155
C114	C	2.077193	0.881954	-0.591155
C115	C	1.577184	0.381926	-1.156591
C116	C	2.077184	0.881926	-0.656591
C117	C	1.443433	0.451861	-1.146388
C118	C	1.943433	0.951861	-0.646388
C119	C	1.443437	0.451883	-1.080953
C120	C	1.943437	0.951883	-0.580953
C121	C	1.510322	0.416931	-1.053341
C122	C	2.010322	0.916931	-0.553341
C123	C	1.510150	0.417040	-0.253835
C124	C	2.010150	0.917040	0.246165
C125	C	1.510315	0.416881	-0.184206
C126	C	2.010315	0.916881	0.315794
H127	H	1.115281	0.457733	-0.457152
H128	H	1.615281	0.957733	0.042848
Cl129	Cl	1.661237	1.056219	-0.337776
Cl130	Cl	2.161237	1.556219	0.162224
Cl131	Cl	1.529048	0.291012	-0.844536
Cl132	Cl	2.029048	0.791012	-0.344536
Cl133	Cl	0.881910	0.356893	-0.356650
Cl134	Cl	1.381910	0.856893	0.143350
H135	H	0.943450	0.482783	-0.482122
H136	H	1.443450	0.982783	0.017878
H137	H	1.388978	0.480315	-1.168875
H138	H	1.888978	0.980315	-0.668875
Cl139	Cl	1.359362	0.495852	-1.033414
Cl140	Cl	1.859362	0.995852	-0.533414
Cl141	Cl	1.661282	0.337969	-1.204130
Cl142	Cl	2.161282	0.837969	-0.704130
Cl143	Cl	1.053734	0.331852	-0.331691
Cl144	Cl	1.553734	0.831852	0.168309
Cl145	Cl	1.491590	0.542947	-0.989362
Cl146	Cl	1.991590	1.042947	-0.489362
H147	H	1.631380	0.664801	-0.353172
H148	H	2.131380	1.164801	0.146828
H149	H	1.631462	0.783516	-0.353204
H150	H	2.131462	1.283516	0.146796
Cl151	Cl	1.297652	0.826809	-0.411510
Cl152	Cl	1.797652	1.326809	0.088490
H153	H	1.681034	0.870343	-0.420742
H154	H	2.181034	1.370343	0.079258
Cl155	Cl	1.359335	0.495985	-0.629772
Cl156	Cl	1.859335	0.995985	-0.129772
H157	H	1.388847	0.765067	-0.480030
H158	H	1.888847	1.265067	0.019970
Cl159	Cl	1.359494	1.180959	-0.495609
Cl160	Cl	1.859494	1.680959	0.004391
Cl161	Cl	1.359152	0.629603	-0.495489
Cl162	Cl	1.859152	1.129603	0.004511
H163	H	1.681108	0.989062	-0.420772
H164	H	2.181108	1.489062	0.079228
Cl165	Cl	1.491612	0.543001	-0.841676
Cl166	Cl	1.991612	1.043001	-0.341676
Cl167	Cl	1.661255	0.338151	-0.652802
Cl168	Cl	2.161255	0.838151	-0.152802
Cl169	Cl	1.661349	1.203918	-0.337825
Cl170	Cl	2.161349	1.703918	0.162175
H171	H	1.389021	1.050005	-0.480094
H172	H	1.889021	1.550005	0.019906
H173	H	1.339439	0.963172	-0.412540
H174	H	1.839439	1.463172	0.087460
H175	H	1.631632	0.353586	-0.783740
H176	H	2.131632	0.853586	-0.283740
Cl177	Cl	1.529052	0.290959	-0.992230
Cl178	Cl	2.029052	0.790959	-0.492230
Cl179	Cl	1.661270	0.338012	-1.056438
Cl180	Cl	2.161270	0.838012	-0.556438
H181	H	1.388972	0.480456	-0.765238
H182	H	1.888972	0.980456	-0.265238
