data_functionalizedCrystal
_audit_creation_method	'MofGen! by Chris Wilmer'
_symmetry_space_group_name_H-M	'P1'
_symmetry_Int_Tables_number	1
_symmetry_cell_setting	triclinic
loop_
_symmetry_equiv_pos_as_xyz
  x,y,z
_cell_length_a	6.817900
_cell_length_b	17.982968
_cell_length_c	9.582860
_cell_angle_alpha	93.503260
_cell_angle_beta	111.206767
_cell_angle_gamma	102.451960
loop_
_atom_site_label
_atom_site_type_symbol
_atom_site_fract_x
_atom_site_fract_y
_atom_site_fract_z
V1	V	-4.055304	-0.237408	-0.208457
O2	O	-4.001168	-0.233032	0.008575
O3	O	-4.046160	-0.235646	-0.411947
O4	O	-4.001315	-0.341013	-0.205883
O5	O	-4.046323	-0.126936	-0.198916
V6	V	-4.534569	-0.224211	-0.182422
O7	O	-4.325901	-0.266356	-0.265565
O8	O	-4.714169	-0.195264	-0.125314
O9	O	-4.320506	-0.225973	0.021068
O10	O	-4.706102	-0.228587	-0.399454
O11	O	-4.660946	-0.334683	-0.191963
O12	O	-4.365352	-0.120607	-0.184996
C13	C	-3.900891	-0.231865	-0.461534
C14	C	-3.974665	-0.231115	-0.627894
C15	C	-3.843685	-0.366270	-0.198677
C16	C	-3.881087	-0.450966	-0.197919
C17	C	-4.082025	-0.494633	-0.205062
C18	C	-4.117155	-0.574214	-0.204349
C19	C	-3.951349	-0.610128	-0.196504
C20	C	-3.750392	-0.566455	-0.189356
C21	C	-3.715260	-0.486874	-0.190058
C22	C	-3.892073	-0.887394	-0.186522
C23	C	-3.927224	-0.966981	-0.185825
C24	C	-4.293968	-0.974734	-0.200813
C25	C	-4.258835	-0.895153	-0.201515
C26	C	-4.057879	-0.851487	-0.194359
C27	C	-4.019788	-0.765196	-0.195129
C28	C	-3.989443	-0.696418	-0.195744
C29	C	-4.129118	-0.229752	0.070647
C30	C	-4.034583	-0.230507	0.237006
C31	C	-4.186324	-0.095345	-0.192207
C32	C	-4.128160	-0.010648	-0.192957
H33	H	-4.217052	-0.465399	-0.211461
H34	H	-4.393859	-0.865917	-0.207911
H35	H	-3.792192	-0.996218	-0.179432
O36	O	-3.696957	-0.845080	-0.179899
C37	C	-3.656958	-0.872489	-0.305459
H38	H	-3.817899	-0.903767	-0.400657
H39	H	-3.571692	-0.821873	-0.346301
H40	H	-3.548939	-0.913990	-0.270950
O41	O	-3.589591	-0.601466	-0.181807
C42	C	-3.663667	-0.681067	-0.182686
H43	H	-3.849024	-0.699015	-0.236651
H44	H	-3.595121	-0.714577	-0.250664
H45	H	-3.606754	-0.693977	-0.061460
H46	H	-4.457597	-1.010297	-0.206634
O47	O	-3.520160	-0.444511	-0.183392
C48	C	-3.479984	-0.471857	-0.308914
H49	H	-3.640845	-0.503163	-0.404159
H50	H	-3.394779	-0.421203	-0.349703
H51	H	-3.371842	-0.513317	-0.274383
H52	H	-4.280771	-0.609764	-0.210158
