data_functionalizedCrystal
_audit_creation_method	'MofGen! by Chris Wilmer'
_symmetry_space_group_name_H-M	'P1'
_symmetry_Int_Tables_number	1
_symmetry_cell_setting	triclinic
loop_
_symmetry_equiv_pos_as_xyz
  x,y,z
_cell_length_a	17.640112
_cell_length_b	12.594516
_cell_length_c	17.640968
_cell_angle_alpha	101.226052
_cell_angle_beta	92.139080
_cell_angle_gamma	78.749381
loop_
_atom_site_label
_atom_site_type_symbol
_atom_site_fract_x
_atom_site_fract_y
_atom_site_fract_z
Zn1	Zn	1.247777	0.030582	-0.195082
Zn2	Zn	1.221999	0.250176	-0.068115
Zn3	Zn	1.095106	0.099818	-0.093733
Zn4	Zn	1.120740	0.236166	-0.220696
O5	O	1.171406	0.154185	-0.144406
O6	O	1.350628	0.036599	-0.156799
O7	O	1.183650	0.265070	0.034758
O8	O	1.115419	-0.058329	-0.107179
O9	O	1.331689	0.197934	-0.063516
O10	O	1.227585	-0.109197	-0.181640
O11	O	1.090423	0.154602	0.015936
O12	O	0.992237	0.141017	-0.132015
O13	O	1.159108	0.174055	-0.323569
O14	O	1.011070	0.241191	-0.225294
O15	O	1.252441	0.023014	-0.304750
O16	O	1.208506	0.397280	-0.088353
O17	O	1.134112	0.386987	-0.200454
C18	C	0.974099	0.197097	-0.184215
C19	C	0.889693	0.215475	-0.201263
C20	C	1.171317	0.430748	-0.144415
C21	C	1.171354	0.549039	-0.144430
C22	C	0.563038	0.014552	-0.014899
C23	C	0.483729	0.031839	-0.030929
C24	C	0.503360	0.136392	-0.127893
C25	C	0.582674	0.119109	-0.111874
C26	C	0.612506	0.058190	-0.055376
C27	C	0.632141	0.162747	-0.152350
C28	C	0.711447	0.145471	-0.136330
C29	C	0.741285	0.084556	-0.079832
C30	C	0.691812	0.040913	-0.039355
C31	C	0.602306	0.223673	-0.208844
C32	C	0.651774	0.267311	-0.249321
C33	C	0.731082	0.250028	-0.233304
C34	C	0.760920	0.189114	-0.176807
C35	C	0.780555	0.293671	-0.273782
C36	C	0.859861	0.276395	-0.257761
C37	C	0.840226	0.171837	-0.160786
C38	C	1.130870	0.612747	-0.205369
C39	C	1.098345	0.710321	-0.139806
C40	C	1.203922	0.662252	-0.209996
C41	C	1.138786	0.645075	-0.078838
C42	C	1.244404	0.596977	-0.149068
C43	C	1.211896	0.694529	-0.083452
C44	C	1.369483	0.111107	-0.104443
C45	C	1.453892	0.092749	-0.087413
C46	C	1.211510	0.089249	-0.342485
C47	C	1.228600	0.061577	-0.426894
C48	C	1.171485	0.876541	-0.144416
C49	C	1.171432	0.758244	-0.144434
C50	C	1.041867	0.363765	-0.753488
C51	C	1.057941	0.337746	-0.832800
C52	C	1.155121	0.180480	-0.813196
C53	C	1.139052	0.206483	-0.733881
C54	C	1.082425	0.298128	-0.704033
C55	C	1.179610	0.140845	-0.684426
C56	C	1.163545	0.166850	-0.605118
C57	C	1.106922	0.258492	-0.575264
C58	C	1.066359	0.324132	-0.624725
C59	C	1.236241	0.049206	-0.714275
C60	C	1.276799	-0.016432	-0.664820
C61	C	1.260730	0.009567	-0.585511
C62	C	1.204107	0.101210	-0.555657
C63	C	1.301292	-0.056073	-0.536050
C64	C	1.285227	-0.030068	-0.456742
C65	C	1.188042	0.127214	-0.476348
C66	C	1.131501	0.218783	0.052910
C67	C	1.114559	0.246123	0.137349
H68	H	0.864519	0.122211	-0.114791
H69	H	1.141912	0.201819	-0.452049
H70	H	0.716105	-0.008713	0.006640
H71	H	1.231435	0.670686	-0.265442
H72	H	1.036607	0.759431	-0.135890
H73	H	0.756252	0.343281	-0.319777
H74	H	1.249321	0.028038	-0.778853
H75	H	0.995737	0.438370	-0.729188
H76	H	0.900139	0.311928	-0.290722
H77	H	1.322907	-0.091047	-0.689133
H78	H	1.201229	0.105865	-0.837508
H79	H	1.093845	0.279667	-0.510685
H80	H	1.306136	0.547863	-0.153020
H81	H	1.096556	0.577050	-0.256853
H82	H	1.024910	0.391203	-0.873064
H83	H	1.246156	0.730071	-0.031871
H84	H	1.111202	0.636789	-0.023390
H85	H	1.020230	0.398737	-0.600425
H86	H	1.318252	-0.083518	-0.416474
H87	H	0.805861	0.070494	-0.066788
H88	H	0.587332	-0.035075	0.031096
H89	H	0.443455	-0.003710	0.002031
H90	H	1.347403	-0.130683	-0.560363
H91	H	0.537730	0.237738	-0.221886
H92	H	0.479059	0.185997	-0.173891
H93	H	0.627473	0.316916	-0.295320
