data_functionalizedCrystal
_audit_creation_method	'MofGen! by Chris Wilmer'
_symmetry_space_group_name_H-M	'P1'
_symmetry_Int_Tables_number	1
_symmetry_cell_setting	triclinic
loop_
_symmetry_equiv_pos_as_xyz
  x,y,z
_cell_length_a	6.817900
_cell_length_b	11.102285
_cell_length_c	11.102228
_cell_angle_alpha	91.949783
_cell_angle_beta	108.604565
_cell_angle_gamma	108.605686
loop_
_atom_site_label
_atom_site_type_symbol
_atom_site_fract_x
_atom_site_fract_y
_atom_site_fract_z
V1	V	-4.111520	-0.175843	-0.396263
O2	O	-4.070549	0.008447	-0.388713
O3	O	-4.088301	-0.348664	-0.393559
O4	O	-4.088296	-0.173139	-0.569084
O5	O	-4.070555	-0.168293	-0.211973
V6	V	-4.588623	-0.153799	-0.374219
O7	O	-4.386862	-0.224197	-0.444616
O8	O	-4.763479	-0.105446	-0.325866
O9	O	-4.388636	0.019022	-0.376923
O10	O	-4.746991	-0.338089	-0.381769
O11	O	-4.746986	-0.161349	-0.558509
O12	O	-4.388642	-0.156503	-0.201398
C13	C	-3.938613	-0.390794	-0.387309
C14	C	-4.001083	-0.532078	-0.386250
C15	C	-4.090598	-0.616607	-0.502135
C16	C	-4.149268	-0.749355	-0.501128
C17	C	-4.028906	-0.713033	-0.268343
C18	C	-3.970224	-0.580286	-0.269350
C19	C	-4.183491	-0.948428	-0.635507
C20	C	-4.273046	-1.032963	-0.751398
C21	C	-4.425423	-1.010077	-0.858562
C22	C	-4.488298	-0.902659	-0.849841
C23	C	-4.398764	-0.818130	-0.733948
C24	C	-4.246341	-0.841014	-0.626787
C25	C	-3.936021	-0.381213	-0.134981
C26	C	-3.846499	-0.296683	-0.019087
C27	C	-3.694127	-0.319565	0.088088
C28	C	-3.631278	-0.426986	0.079378
C29	C	-3.720800	-0.511517	-0.036516
C30	C	-3.873164	-0.488625	-0.143690
C31	C	-3.938605	-0.166893	-0.611207
C32	C	-4.001066	-0.165826	-0.752489
C33	C	-4.090577	-0.281710	-0.837018
C34	C	-4.149278	-0.280705	-0.969767
C35	C	-4.028937	-0.047921	-0.933446
C36	C	-3.970252	-0.048928	-0.800700
C37	C	-4.420040	-0.423237	-1.177161
C38	C	-4.509522	-0.539127	-1.261694
C39	C	-4.425308	-0.638136	-1.230484
C40	C	-4.251567	-0.621259	-1.114741
C41	C	-4.162069	-0.505367	-1.030214
C42	C	-4.246332	-0.406364	-1.061425
C43	C	-3.699476	0.093597	-0.593304
C44	C	-3.609962	0.209491	-0.508774
C45	C	-3.694157	0.308511	-0.539980
C46	C	-3.867863	0.291648	-0.655723
C47	C	-3.957377	0.175754	-0.740253
C48	C	-3.873182	0.076733	-0.709038
C49	C	-4.201667	0.061145	-0.383169
C50	C	-4.118436	0.202428	-0.384236
C51	C	-4.201675	-0.162753	-0.159268
C52	C	-4.118451	-0.163814	-0.017985
H53	H	-4.498337	-1.078914	-0.952925
H54	H	-4.182987	-0.701881	-1.089348
H55	H	-4.098822	0.162029	-0.834498
H56	H	-3.621202	0.402894	-0.471162
O57	O	-3.617673	-0.002625	-0.563204
C58	C	-3.536267	-0.031481	-0.658235
H59	H	-3.619838	0.000357	-0.751544
H60	H	-3.572835	-0.139495	-0.675207
H61	H	-3.350305	0.021357	-0.624800
H62	H	-4.115672	-0.376897	-0.797770
H63	H	-4.020605	-0.491623	-0.935983
O64	O	-3.607400	-0.237615	0.200764
C65	C	-3.660840	-0.305098	0.297876
H66	H	-3.813881	-0.394577	0.252156
H67	H	-3.695124	-0.240612	0.364740
H68	H	-3.516733	-0.334672	0.355259
H69	H	-4.060089	-0.362568	-0.222249
H70	H	-4.650991	-0.552860	-1.355931
O71	O	-4.512563	-0.750773	-1.312531
C72	C	-4.738641	-0.807572	-1.330552
H73	H	-4.772451	-0.769907	-1.245214
H74	H	-4.785048	-0.916435	-1.338481
H75	H	-4.841233	-0.782305	-1.422533
O76	O	-4.212271	-1.137391	-0.760078
C77	C	-4.323953	-1.207078	-0.885354
H78	H	-4.480747	-1.184559	-0.931996
H79	H	-4.369074	-1.314429	-0.880364
H80	H	-4.212352	-1.178598	-0.945001
O81	O	-3.483560	-0.449402	0.183512
C82	C	-3.582392	-0.569675	0.216509
H83	H	-3.769522	-0.596703	0.177781
H84	H	-3.522517	-0.563766	0.325589
H85	H	-3.535056	-0.645809	0.172842
H86	H	-4.115740	-0.577361	-0.597323
O87	O	-3.999047	0.065519	-0.980492
C88	C	-4.070080	0.041560	-1.115785
H89	H	-4.065899	-0.056127	-1.147274
H90	H	-3.955941	0.119654	-1.151188
H91	H	-4.245833	0.041780	-1.158294
O92	O	-4.502248	-0.327221	-1.207541
C93	C	-4.727987	-0.371182	-1.222323
H94	H	-4.798096	-0.480547	-1.245952
H95	H	-4.820830	-0.328444	-1.303802
H96	H	-4.747577	-0.340102	-1.129172
H97	H	-3.897700	-0.209221	-0.011999
O98	O	-3.949474	0.387940	-0.685820
C99	C	-3.833191	0.493855	-0.586407
H100	H	-3.755990	0.459531	-0.493242
H101	H	-3.951843	0.541362	-0.572871
H102	H	-3.697716	0.566318	-0.612720
H103	H	-4.449961	-0.730675	-0.726847
O104	O	-3.659688	-0.615815	-0.045181
C105	C	-3.562539	-0.608627	-0.140630
H106	H	-3.621894	-0.544732	-0.211202
H107	H	-3.611979	-0.709132	-0.194228
H108	H	-3.375194	-0.566210	-0.093646
O109	O	-4.636295	-0.880595	-0.954080
C110	C	-4.701881	-0.978253	-1.058230
H111	H	-4.569547	-1.023862	-1.043231
H112	H	-4.724812	-0.935155	-1.151311
H113	H	-4.864316	-1.054709	-1.064368
H114	H	-4.059391	-0.967064	-0.548256
H115	H	-4.003795	-0.752301	-0.173167
H116	H	-3.468495	0.223222	-0.414538
