data_functionalizedCrystal
_audit_creation_method	'MofGen! by Chris Wilmer'
_symmetry_space_group_name_H-M	'P1'
_symmetry_Int_Tables_number	1
_symmetry_cell_setting	triclinic
loop_
_symmetry_equiv_pos_as_xyz
  x,y,z
_cell_length_a	11.792254
_cell_length_b	16.776229
_cell_length_c	11.792254
_cell_angle_alpha	89.993192
_cell_angle_beta	84.198598
_cell_angle_gamma	89.993139
loop_
_atom_site_label
_atom_site_type_symbol
_atom_site_fract_x
_atom_site_fract_y
_atom_site_fract_z
O1	O	1.506911	-0.066284	0.155638
O2	O	2.006911	0.433716	0.655638
O3	O	1.176573	-0.066287	0.171656
O4	O	1.676573	0.433713	0.671656
O5	O	1.349751	-0.066280	-0.001522
O6	O	1.849751	0.433720	0.498478
O7	O	1.333733	-0.066291	0.328816
O8	O	1.833733	0.433709	0.828816
O9	O	1.349728	0.066297	-0.001533
O10	O	1.849728	0.566297	0.498467
O11	O	1.176550	0.066290	0.171645
O12	O	1.676550	0.566290	0.671645
O13	O	1.506888	0.066293	0.155627
O14	O	2.006888	0.566293	0.655627
Zn15	Zn	1.341715	0.087341	0.163634
Zn16	Zn	1.841715	0.587341	0.663634
Zn17	Zn	1.341746	-0.087335	0.163649
Zn18	Zn	1.841746	0.412665	0.663649
O19	O	1.333710	0.066285	0.328805
O20	O	1.833710	0.566285	0.828805
C21	C	1.134271	0.000001	0.170642
C22	C	1.634271	0.500001	0.670642
C23	C	1.008257	0.000000	0.167621
C24	C	1.508257	0.500000	0.667621
C25	C	1.348730	0.000008	-0.043818
C26	C	1.848730	0.500008	0.456182
C27	C	1.345710	0.000008	-0.169832
C28	C	1.845710	0.500008	0.330168
C29	C	1.549190	0.000003	0.156642
C30	C	2.049190	0.500003	0.656642
C31	C	1.675204	-0.000002	0.159662
C32	C	2.175204	0.499998	0.659662
C33	C	1.777540	-0.000003	0.162116
C34	C	2.277540	0.499997	0.662116
C35	C	1.905927	-0.000001	0.165184
C36	C	2.405927	0.499999	0.665184
N37	N	1.341703	0.206552	0.163624
N38	N	1.841703	0.706552	0.663624
N39	N	1.341767	-0.206546	0.163650
N40	N	1.841767	0.293454	0.663650
C41	C	1.418410	0.248272	0.086973
C42	C	1.918410	0.748272	0.586973
C43	C	1.418416	0.331724	0.086972
C44	C	1.918416	0.831724	0.586972
C45	C	1.341720	0.373455	0.163629
C46	C	1.841720	0.873455	0.663629
C47	C	1.265005	0.331729	0.240284
C48	C	1.765005	0.831729	0.740284
C49	C	1.264994	0.248278	0.240278
C50	C	1.764994	0.748278	0.740278
C51	C	1.265046	0.668276	0.240306
C52	C	1.765046	1.168276	0.740306
C53	C	1.265065	0.751732	0.240308
C54	C	1.765065	1.251732	0.740308
C55	C	1.418468	0.751722	0.087000
C56	C	1.918468	1.251722	0.587000
C57	C	1.418457	0.668271	0.086994
C58	C	1.918457	1.168271	0.586994
C59	C	1.341738	0.626553	0.163645
C60	C	1.841738	1.126553	0.663645
C61	C	1.341731	0.536064	0.163643
C62	C	1.841731	1.036064	0.663643
C63	C	1.341732	0.463942	0.163636
C64	C	1.841732	0.963942	0.663636
C65	C	1.343256	0.000005	-0.272168
C66	C	1.843256	0.500005	0.227832
C67	C	1.340188	-0.000003	-0.400555
C68	C	1.840188	0.499997	0.099445
C69	C	1.334731	-0.000004	0.371102
C70	C	1.834731	0.499996	0.871102
C71	C	1.337751	-0.000009	0.497115
C72	C	1.837751	0.499991	0.997115
H73	H	1.480869	0.214301	0.024555
H74	H	1.980869	0.714301	0.524555
C75	C	1.110722	0.574456	0.263905
C76	C	1.610722	1.074456	0.763905
C77	C	1.180736	0.622421	0.324572
C78	C	1.680736	1.122421	0.824572
H79	H	1.058671	0.546148	0.315935
H80	H	1.558671	1.046148	0.815935
H81	H	1.156393	0.537665	0.218256
H82	H	1.656393	1.037665	0.718256
H83	H	1.069605	0.607030	0.216393
H84	H	1.569605	1.107030	0.716393
H85	H	1.221860	0.589847	0.372078
H86	H	1.721860	1.089847	0.872078
H87	H	1.135060	0.659216	0.370241
H88	H	1.635060	1.159216	0.870241
H89	H	1.480914	0.634297	0.024577
H90	H	1.980914	1.134297	0.524577
H91	H	1.202551	0.365710	0.302695
H92	H	1.702551	0.865710	0.802695
H93	H	1.202530	0.214310	0.302694
H94	H	1.702530	0.714310	0.802694
H95	H	1.480876	0.365692	0.024556
H96	H	1.980876	0.865692	0.524556
H97	H	1.480933	0.785698	0.024583
H98	H	1.980933	1.285698	0.524583
H99	H	1.202605	0.785708	0.302733
H100	H	1.702605	1.285708	0.802733
