data_functionalizedCrystal
_audit_creation_method	'MofGen! by Chris Wilmer'
_symmetry_space_group_name_H-M	'P1'
_symmetry_Int_Tables_number	1
_symmetry_cell_setting	triclinic
loop_
_symmetry_equiv_pos_as_xyz
  x,y,z
_cell_length_a	25.639233
_cell_length_b	13.032831
_cell_length_c	13.032721
_cell_angle_alpha	90.902885
_cell_angle_beta	82.834855
_cell_angle_gamma	97.183139
loop_
_atom_site_label
_atom_site_type_symbol
_atom_site_fract_x
_atom_site_fract_y
_atom_site_fract_z
Zn1	Zn	-0.430770	-1.520138	0.609577
Zn2	Zn	0.069230	-1.020138	1.109577
Zn3	Zn	-0.352870	-1.498199	0.781519
Zn4	Zn	0.147130	-0.998199	1.281519
Zn5	Zn	-0.331051	-1.348180	0.587698
Zn6	Zn	0.168949	-0.848180	1.087698
Zn7	Zn	-0.427978	-1.326286	0.759622
Zn8	Zn	0.072022	-0.826286	1.259622
O9	O	-0.385667	-1.423201	0.684604
O10	O	0.114333	-0.923201	1.184604
O11	O	-0.430736	-1.661138	0.650705
O12	O	0.069264	-1.161138	1.150705
O13	O	-0.276810	-1.478279	0.755815
O14	O	0.223190	-0.978279	1.255815
O15	O	-0.336316	-1.389335	0.446691
O16	O	0.163684	-0.889335	0.946691
O17	O	-0.373503	-1.645020	0.777030
O18	O	0.126497	-1.145020	1.277030
O19	O	-0.409579	-1.515671	0.462765
O20	O	0.090421	-1.015671	0.962765
O21	O	-0.260779	-1.368061	0.613416
O22	O	0.239221	-0.868061	1.113416
O23	O	-0.333609	-1.201365	0.592184
O24	O	0.166391	-0.701365	1.092184
O25	O	-0.501515	-1.352020	0.739711
O26	O	-0.001515	-0.852020	1.239711
O27	O	-0.404821	-1.185280	0.718496
O28	O	0.095179	-0.685280	1.218496
O29	O	-0.503566	-1.494442	0.629473
O30	O	-0.003566	-0.994442	1.129473
O31	O	-0.370796	-1.457050	0.922523
O32	O	0.129204	-0.957050	1.422523
O33	O	-0.425978	-1.330747	0.906436
O34	O	0.074022	-0.830747	1.406436
C35	C	-0.366545	-1.156008	0.650591
C36	C	0.133455	-0.656008	1.150591
C37	C	-0.358378	-1.041699	0.636065
C38	C	0.141622	-0.541699	1.136065
C39	C	-0.522042	-1.423236	0.684590
C40	C	-0.022042	-0.923236	1.184590
C41	C	-0.580156	-1.423251	0.684584
C42	C	-0.080156	-0.923251	1.184584
C43	C	-0.400465	-1.389170	0.951797
C44	C	0.099535	-0.889170	1.451797
C45	C	-0.406820	-1.374706	1.066116
C46	C	0.093180	-0.874706	1.566116
C47	C	-0.941588	-1.497518	0.626998
C48	C	-0.441588	-0.997518	1.126998
C49	C	-0.996192	-1.497535	0.626972
C50	C	-0.496192	-0.997535	1.126972
O51	O	-1.025338	-1.560581	0.578121
O52	O	-0.525338	-1.060581	1.078121
N53	N	-1.022434	-1.423395	0.684357
N54	N	-0.522434	-0.923395	1.184357
C55	C	-0.994068	-1.349228	0.741765
C56	C	-0.494068	-0.849228	1.241765
O57	O	-1.021403	-1.286168	0.790573
O58	O	-0.521403	-0.786168	1.290573
C59	C	-0.939465	-1.349208	0.741786
C60	C	-0.439465	-0.849208	1.241786
C61	C	-0.913227	-1.423359	0.684405
C62	C	-0.413227	-0.923359	1.184405
C63	C	-0.915350	-1.571662	0.569621
C64	C	-0.415350	-1.071662	1.069621
C65	C	-0.860750	-1.571647	0.569650
C66	C	-0.360750	-1.071647	1.069650
C67	C	-0.832389	-1.497488	0.627056
C68	C	-0.332389	-0.997488	1.127056
C69	C	-0.858627	-1.423344	0.684433
C70	C	-0.358627	-0.923344	1.184433
C71	C	-0.911100	-1.275037	0.799187
C72	C	-0.411100	-0.775037	1.299187
C73	C	-0.856493	-1.275023	0.799202
C74	C	-0.356493	-0.775023	1.299202
C75	C	-0.830255	-1.349174	0.741821
C76	C	-0.330255	-0.849174	1.241821
C77	C	-0.775666	-1.349169	0.741868
C78	C	-0.275666	-0.849169	1.241868
N79	N	-0.749424	-1.423308	0.684482
N80	N	-0.249424	-0.923308	1.184482
C81	C	-0.777785	-1.497468	0.627076
C82	C	-0.277785	-0.997468	1.127076
C83	C	-1.108739	-1.349275	0.741717
C84	C	-0.608739	-0.849275	1.241717
C85	C	-1.163342	-1.349298	0.741703
C86	C	-0.663342	-0.849298	1.241703
C87	C	-1.165461	-1.497604	0.626908
C88	C	-0.665461	-0.997604	1.126908
C89	C	-1.110858	-1.497584	0.626928
C90	C	-0.610858	-0.997584	1.126928
C91	C	-1.082497	-1.423414	0.684331
C92	C	-0.582497	-0.923414	1.184331
C93	C	-0.663122	-1.497430	0.627141
C94	C	-0.163122	-0.997430	1.127141
C95	C	-0.608518	-1.497411	0.627178
C96	C	-0.108518	-0.997411	1.127178
C97	C	-0.606402	-1.349102	0.741969
C98	C	-0.106402	-0.849102	1.241969
C99	C	-0.661002	-1.349124	0.741937
C100	C	-0.161002	-0.849124	1.241937
C101	C	-0.689361	-1.423293	0.684515
C102	C	-0.189361	-0.923293	1.184515
O103	O	-0.746485	-1.286152	0.790690
O104	O	-0.246485	-0.786152	1.290690
O105	O	-0.750443	-1.560509	0.578265
O106	O	-0.250443	-1.060509	1.078265
C107	C	-0.249824	-1.423234	0.684551
C108	C	0.250176	-0.923234	1.184551
C109	C	-0.191707	-1.423455	0.684292
C110	C	0.308293	-0.923455	1.184292
C111	C	-0.404865	-1.691437	0.718750
C112	C	0.095135	-1.191437	1.218750
C113	C	-0.413045	-1.805743	0.733302
C114	C	0.086955	-1.305743	1.233302
C115	C	-0.389930	-0.982792	0.692185
C116	C	0.110070	-0.482792	1.192185
C117	C	-0.381490	-0.864647	0.677173
C118	C	0.118510	-0.364647	1.177173
C119	C	-0.370825	-1.457392	0.416371
C120	C	0.129175	-0.957392	0.916371
C121	C	-0.364500	-1.471963	0.302066
C122	C	0.135500	-0.971963	0.802066
C123	C	-0.382378	-1.430804	1.125014
C124	C	0.117622	-0.930804	1.625014
C125	C	-0.388946	-1.415856	1.243169
C126	C	0.111054	-0.915856	1.743169
H127	H	-0.587158	-1.557797	0.580451
H128	H	-0.087158	-1.057797	1.080451
H129	H	-0.325120	-1.004665	0.576900
H130	H	0.174880	-0.504665	1.076900
C131	C	-0.329659	-1.551804	1.252028
C132	C	0.170341	-1.051804	1.752028
N133	N	-0.303416	-1.611939	1.214339
N134	N	0.196584	-1.111939	1.714339
H135	H	-0.423192	-1.019827	0.751343
H136	H	0.076808	-0.519827	1.251343
H137	H	-0.432610	-1.315615	1.103164
H138	H	0.067390	-0.815615	1.603164
H139	H	-0.686205	-1.557822	0.580379
H140	H	-0.186205	-1.057822	1.080379
H141	H	-0.839392	-1.632027	0.522922
H142	H	-0.339392	-1.132027	1.022922
H143	H	-0.414737	-1.356761	1.280212
H144	H	0.085263	-0.856761	1.780212
H145	H	-0.938436	-1.632053	0.522868
H146	H	-0.438436	-1.132053	1.022868
C147	C	-0.336553	-0.814626	0.597242
C148	C	0.163447	-0.314626	1.097242
N149	N	-0.302706	-0.776948	0.537040
N150	N	0.197294	-0.276948	1.037040
H151	H	-0.833402	-1.214614	0.845936
H152	H	-0.333402	-0.714614	1.345936
C153	C	-0.939948	-1.193457	0.862303
C154	C	-0.439948	-0.693457	1.362303
N155	N	-0.961675	-1.132002	0.909842
N156	N	-0.461675	-0.632002	1.409842
H157	H	-0.446311	-0.842772	0.792461
H158	H	0.053689	-0.342772	1.292461
H159	H	-0.356592	-1.489904	1.087970
H160	H	0.143408	-0.989904	1.587970
C161	C	-1.196669	-1.579176	0.563752
C162	C	-0.696669	-1.079176	1.063752
N163	N	-1.220175	-1.640611	0.516184
N164	N	-0.720175	-1.140611	1.016184
C165	C	-1.192198	-1.267733	0.804836
C166	C	-0.692198	-0.767733	1.304836
N167	N	-1.213930	-1.206291	0.852383
N168	N	-0.713930	-0.706291	1.352383
C169	C	-1.082001	-1.579148	0.563796
C170	C	-0.582001	-1.079148	1.063796
N171	N	-1.060267	-1.640583	0.516239
N172	N	-0.560267	-1.140583	1.016239
C173	C	-1.077547	-1.267685	0.804880
C174	C	-0.577547	-0.767685	1.304880
N175	N	-1.054056	-1.206231	0.852454
N176	N	-0.554056	-0.706231	1.352454
H177	H	-0.682368	-1.288753	0.788672
H178	H	-0.182368	-0.788753	1.288672
H179	H	-0.583301	-1.288726	0.788711
H180	H	-0.083301	-0.788726	1.288711
