data_functionalizedCrystal
_audit_creation_method	'MofGen! by Chris Wilmer'
_symmetry_space_group_name_H-M	'P1'
_symmetry_Int_Tables_number	1
_symmetry_cell_setting	triclinic
loop_
_symmetry_equiv_pos_as_xyz
  x,y,z
_cell_length_a	10.723024
_cell_length_b	10.723023
_cell_length_c	14.048226
_cell_angle_alpha	90.002592
_cell_angle_beta	89.994823
_cell_angle_gamma	95.532291
loop_
_atom_site_label
_atom_site_type_symbol
_atom_site_fract_x
_atom_site_fract_y
_atom_site_fract_z
O1	O	-1.657189	0.175025	0.079166
O2	O	-1.294036	0.191778	0.079166
O3	O	-1.483990	0.001826	0.079162
O4	O	-1.467235	0.364978	0.079170
O5	O	-1.483972	0.001824	-0.079159
O6	O	-1.294018	0.191777	-0.079155
O7	O	-1.657171	0.175023	-0.079155
Zn8	Zn	-1.475591	0.183400	-0.104292
Zn9	Zn	-1.475616	0.183402	0.104303
O10	O	-1.467217	0.364976	-0.079151
C11	C	-1.247528	0.190558	0.000005
C12	C	-1.108973	0.186911	0.000005
C13	C	-1.482762	-0.044675	0.000002
C14	C	-1.479114	-0.183229	0.000006
C15	C	-1.033991	0.293198	0.000008
C16	C	-0.890787	0.289431	0.000008
C17	C	-1.477498	-0.244994	0.082022
C18	C	-1.473728	-0.388197	0.082027
C19	C	-0.703679	0.176243	0.000005
C20	C	-0.842234	0.179891	0.000005
C21	C	-1.468445	0.411477	0.000010
C22	C	-1.472093	0.550031	0.000014
N23	N	-1.475584	0.183397	-0.246653
C24	C	-1.551912	0.259779	-0.296465
C25	C	-1.551928	0.259774	-0.396123
C26	C	-1.475609	0.183393	-0.445966
C27	C	-1.399277	0.107002	-0.396147
C28	C	-1.399269	0.107002	-0.296491
C29	C	-1.399298	0.107011	-0.603861
C30	C	-1.399305	0.107013	-0.703524
C31	C	-1.551957	0.259783	-0.703493
C32	C	-1.551949	0.259783	-0.603837
C33	C	-1.475616	0.183394	-0.554025
N34	N	-1.475633	0.183395	0.246664
H35	H	-1.075812	0.386984	0.000005
H36	H	-1.337115	0.044804	-0.255936
H37	H	-1.477700	-0.236367	-0.070208
H38	H	-1.337143	0.044805	-0.436738
H39	H	-1.614053	0.321985	-0.255890
H40	H	-0.826354	0.380421	0.000014
O41	O	-0.919211	0.071412	0.000131
C42	C	-0.995329	0.066681	0.082140
H43	H	-1.002637	0.165811	0.109480
H44	H	-1.092803	0.021149	0.063700
H45	H	-0.952100	0.009260	0.139555
O46	O	-1.059299	0.074911	-0.000037
C47	C	-1.156823	-0.023184	-0.000013
H48	H	-1.245602	0.012428	-0.029986
H49	H	-1.128818	-0.103551	-0.045978
H50	H	-1.174907	-0.057750	0.075942
H51	H	-1.614084	0.321969	-0.436675
H52	H	-1.472344	-0.441314	0.152244
O53	O	-1.473963	-0.386706	-0.083790
C54	C	-1.580989	-0.431664	-0.136340
H55	H	-1.655466	-0.476758	-0.085881
H56	H	-1.619447	-0.350423	-0.175413
H57	H	-1.554599	-0.504164	-0.190220
H58	H	-1.478899	-0.191855	0.152235
O59	O	-1.626199	0.334014	-0.555565
C60	C	-1.693553	0.401459	-0.620897
H61	H	-1.700408	0.349871	-0.691939
H62	H	-1.791739	0.410096	-0.592086
H63	H	-1.642980	0.498945	-0.631495
O64	O	-1.626085	0.333862	-0.752023
C65	C	-1.609716	0.317503	-0.850669
H66	H	-1.573340	0.222658	-0.864288
H67	H	-1.703278	0.321499	-0.888527
H68	H	-1.539297	0.395123	-0.878961
O69	O	-1.325141	0.032692	-0.751793
C70	C	-1.257754	-0.034713	-0.686456
H71	H	-1.309343	-0.041519	-0.615412
H72	H	-1.249195	-0.132916	-0.715257
H73	H	-1.160236	0.015789	-0.675866
O74	O	-1.325080	0.032984	-0.555366
C75	C	-1.240557	0.108303	-0.497746
H76	H	-1.280178	0.201253	-0.482810
H77	H	-1.226226	0.058011	-0.427670
H78	H	-1.146921	0.126549	-0.536161
