data_functionalizedCrystal
_audit_creation_method	'MofGen! by Chris Wilmer'
_symmetry_space_group_name_H-M	'P1'
_symmetry_Int_Tables_number	1
_symmetry_cell_setting	triclinic
loop_
_symmetry_equiv_pos_as_xyz
  x,y,z
_cell_length_a	14.519709
_cell_length_b	11.792241
_cell_length_c	10.268362
_cell_angle_alpha	89.999626
_cell_angle_beta	89.999088
_cell_angle_gamma	96.063220
loop_
_atom_site_label
_atom_site_type_symbol
_atom_site_fract_x
_atom_site_fract_y
_atom_site_fract_z
O1	O	-0.126405	1.506208	-0.108155
O2	O	0.206929	1.839541	0.225179
O3	O	0.540262	2.172875	0.558512
O4	O	-0.139432	1.175795	-0.108183
O5	O	0.193901	1.509128	0.225150
O6	O	0.527235	1.842461	0.558484
O7	O	0.001288	1.349762	-0.108180
O8	O	0.334622	1.683095	0.225154
O9	O	0.667955	2.016429	0.558487
O10	O	-0.267125	1.332241	-0.108158
O11	O	0.066209	1.665574	0.225176
O12	O	0.399542	1.998908	0.558509
O13	O	0.001294	1.349747	0.108421
O14	O	0.334627	1.683080	0.441754
O15	O	0.667961	2.016413	0.775087
O16	O	-0.139426	1.175780	0.108418
O17	O	0.193907	1.509113	0.441751
O18	O	0.527241	1.842446	0.775084
O19	O	-0.126399	1.506193	0.108446
O20	O	0.206935	1.839526	0.441779
O21	O	0.540268	2.172860	0.775113
Cu22	Cu	-0.132912	1.340985	0.128209
Cu23	Cu	0.200422	1.674318	0.461543
Cu24	Cu	0.533755	2.007652	0.794876
Cu25	Cu	-0.132919	1.341003	-0.127946
Cu26	Cu	0.200415	1.674336	0.205387
Cu27	Cu	0.533748	2.007669	0.538721
O28	O	-0.267119	1.332226	0.108443
O29	O	0.066215	1.665559	0.441776
O30	O	0.399548	1.998893	0.775110
C31	C	-0.138611	1.133501	0.000113
C32	C	0.194723	1.466834	0.333447
C33	C	0.528056	1.800167	0.666780
C34	C	-0.136161	1.007501	0.000102
C35	C	0.197172	1.340834	0.333435
C36	C	0.530505	1.674167	0.666768
C37	C	-0.131657	0.776813	0.000139
C38	C	0.201676	1.110147	0.333472
C39	C	0.535009	1.443480	0.666805
C40	C	-0.134160	0.905185	0.000118
C41	C	0.199173	1.238518	0.333452
C42	C	0.532507	1.571851	0.666785
C43	C	-0.301484	1.333050	0.000146
C44	C	0.031849	1.666383	0.333479
C45	C	0.365182	1.999717	0.666812
C46	C	-0.403875	1.335497	0.000155
C47	C	-0.070541	1.668830	0.333488
C48	C	0.262792	2.002164	0.666821
C49	C	-0.778803	1.344505	0.000104
C50	C	-0.445470	1.677838	0.333437
C51	C	-0.112137	2.011172	0.666770
C52	C	-0.674486	1.342003	0.000118
C53	C	-0.341153	1.675337	0.333452
C54	C	-0.007820	2.008670	0.666785
C55	C	-0.591342	1.340001	0.000130
C56	C	-0.258009	1.673334	0.333464
C57	C	0.075324	2.006668	0.666797
C58	C	-0.487019	1.337499	0.000143
C59	C	-0.153685	1.670832	0.333476
C60	C	0.179648	2.004166	0.666809
C61	C	0.035654	1.348938	0.000115
C62	C	0.368987	1.682271	0.333448
C63	C	0.702321	2.015604	0.666781
C64	C	0.138044	1.346491	0.000097
C65	C	0.471377	1.679824	0.333430
C66	C	0.804711	2.013158	0.666764
C67	C	-0.127220	1.548487	0.000147
C68	C	0.206113	1.881820	0.333480
C69	C	0.539447	2.215154	0.666814
C70	C	-0.129669	1.674487	0.000150
C71	C	0.203664	2.007820	0.333483
C72	C	0.536997	2.341154	0.666817
N73	N	-0.132906	1.340981	0.308375
N74	N	0.200427	1.674314	0.641708
N75	N	0.533760	2.007647	0.975042
N76	N	-0.132917	1.341016	-0.308112
N77	N	0.200416	1.674349	0.025221
N78	N	0.533750	2.007683	0.358555
C79	C	-0.132917	1.340997	0.574046
C80	C	0.200416	1.674330	0.907379
C81	C	0.533750	2.007664	1.240712
C82	C	-0.132914	1.340984	0.426208
C83	C	0.200420	1.674318	0.759541
C84	C	0.533753	2.007651	1.092874
