data_functionalizedCrystal
_audit_creation_method	'MofGen! by Chris Wilmer'
_symmetry_space_group_name_H-M	'P1'
_symmetry_Int_Tables_number	1
_symmetry_cell_setting	triclinic
loop_
_symmetry_equiv_pos_as_xyz
  x,y,z
_cell_length_a	12.759401
_cell_length_b	18.101395
_cell_length_c	12.759393
_cell_angle_alpha	89.966555
_cell_angle_beta	89.981433
_cell_angle_gamma	90.030148
loop_
_atom_site_label
_atom_site_type_symbol
_atom_site_fract_x
_atom_site_fract_y
_atom_site_fract_z
Zn1	Zn	1.606136	-0.294805	-0.593970
Zn2	Zn	1.605980	-0.418666	-0.418284
Zn3	Zn	1.430438	-0.294841	-0.418309
Zn4	Zn	1.430376	-0.418607	-0.593925
O5	O	1.518232	-0.356730	-0.506122
O6	O	1.753136	-0.311245	-0.570673
O7	O	1.582654	-0.402281	-0.271266
O8	O	1.453835	-0.191203	-0.441640
O9	O	1.753021	-0.402246	-0.441597
O10	O	1.582920	-0.191177	-0.570697
O11	O	1.453684	-0.311307	-0.271284
O12	O	1.283408	-0.311249	-0.441596
O13	O	1.453730	-0.402144	-0.740952
O14	O	1.283363	-0.402180	-0.570621
O15	O	1.582860	-0.311187	-0.740985
O16	O	1.582594	-0.522291	-0.441554
O17	O	1.453579	-0.522248	-0.570597
C18	C	1.245265	-0.356712	-0.506107
C19	C	1.128488	-0.356723	-0.506126
C20	C	1.073679	-0.309428	-0.573440
C21	C	0.963955	-0.309442	-0.573446
C22	C	0.963859	-0.404052	-0.438822
C23	C	1.073581	-0.404034	-0.438811
C24	C	1.128586	-0.262117	-0.640754
C25	C	1.073776	-0.214820	-0.708074
C26	C	0.964052	-0.214834	-0.708081
C27	C	0.909138	-0.262146	-0.640767
C28	C	1.518092	-0.549140	-0.506091
C29	C	1.518128	-0.631455	-0.506113
C30	C	1.518358	-0.930545	-0.506169
C31	C	1.437374	-0.899224	-0.587561
C32	C	1.436989	-0.813606	-0.587307
C33	C	1.518244	-0.782163	-0.506142
C34	C	1.488263	-0.813322	-0.395417
C35	C	1.487741	-0.898967	-0.395904
C36	C	1.629501	-0.898888	-0.534528
C37	C	1.628847	-0.813237	-0.536956
C38	C	1.518181	-0.698303	-0.506120
C39	C	1.518418	-1.014405	-0.506184
C40	C	1.792265	-0.356748	-0.506137
C41	C	1.909042	-0.356756	-0.506144
C42	C	1.518306	-0.356655	-0.780155
C43	C	1.518337	-0.356623	-0.896932
C44	C	1.518402	-0.163568	-0.506176
C45	C	1.518474	-0.081254	-0.506199
C46	C	1.585584	-0.309258	-0.951813
C47	C	1.585609	-0.309231	-1.061537
C48	C	1.451137	-0.403942	-1.061490
C49	C	1.451108	-0.403964	-0.951768
C50	C	1.652814	-0.261916	-0.896977
C51	C	1.720068	-0.214547	-0.951858
C52	C	1.720092	-0.214521	-1.061582
C53	C	1.652864	-0.261863	-1.116425
C54	C	1.518219	-0.356751	-0.233154
C55	C	1.518392	-0.356574	-0.116378
H56	H	1.118208	-0.442545	-0.383999
H57	H	0.819793	-0.262138	-0.640756
C58	C	1.377204	-0.456023	-1.121818
C59	C	1.385705	-0.540215	-1.106695
C60	C	1.311777	-0.592301	-1.167023
C61	C	1.229347	-0.560195	-1.242474
C62	C	1.220842	-0.475999	-1.257600
C63	C	1.294770	-0.423913	-1.197272
H64	H	1.446728	-0.563986	-1.050839
H65	H	1.318073	-0.654629	-1.155826
H66	H	1.174621	-0.598752	-1.287132
H67	H	1.159819	-0.452228	-1.313456
H68	H	1.288474	-0.361585	-1.208469
H69	H	1.354607	-0.793183	-0.568523
C70	C	1.711018	-0.926254	-0.454453
C71	C	1.826572	-0.902809	-0.465052
C72	C	1.908079	-0.930179	-0.384975
C73	C	1.874032	-0.980995	-0.294299
C74	C	1.758472	-1.004442	-0.283697
C75	C	1.676965	-0.977072	-0.363774
H76	H	1.851780	-0.865189	-0.532179
H77	H	1.993624	-0.912821	-0.392824
H78	H	1.934368	-1.001256	-0.235021
H79	H	1.733263	-1.042062	-0.216570
H80	H	1.591420	-0.994430	-0.355925
C81	C	1.377148	-0.456069	-0.891379
C82	C	1.257719	-0.450021	-0.906443
C83	C	1.183759	-0.502123	-0.846048
C84	C	1.229229	-0.560274	-0.770590
C85	C	1.348665	-0.566325	-0.755523
C86	C	1.422625	-0.514222	-0.815918
H87	H	1.224054	-0.406972	-0.962304
H88	H	1.095344	-0.497644	-0.857202
H89	H	1.174480	-0.598844	-0.725882
H90	H	1.382330	-0.609374	-0.699662
H91	H	1.511039	-0.518701	-0.804764
H92	H	1.355493	-0.920811	-0.569014
C93	C	1.134177	-0.162774	-0.782110
C94	C	1.254867	-0.162755	-0.782107
C95	C	1.315265	-0.110706	-0.856142
C96	C	1.254972	-0.058677	-0.930180
C97	C	1.134275	-0.058695	-0.930185
C98	C	1.073878	-0.110744	-0.856150
H99	H	1.299505	-0.201271	-0.727298
H100	H	1.404613	-0.110693	-0.856138
H101	H	1.299682	-0.020148	-0.984985
H102	H	1.089637	-0.020179	-0.984995
H103	H	0.984530	-0.110757	-0.856155
H104	H	1.217929	-0.262100	-0.640756
H105	H	1.774796	-0.175999	-0.907197
H106	H	1.406496	-0.919011	-0.371881
C107	C	1.714639	-0.784349	-0.462642
C108	C	1.734830	-0.700729	-0.453335
C109	C	1.820600	-0.671854	-0.378978
C110	C	1.886178	-0.726599	-0.313929
C111	C	1.865989	-0.810224	-0.323234
C112	C	1.780219	-0.839099	-0.397591
H113	H	1.686284	-0.660199	-0.501490
H114	H	1.835545	-0.609949	-0.372090
H115	H	1.949670	-0.705224	-0.258886
H116	H	1.914535	-0.850754	-0.275079
H117	H	1.765274	-0.901004	-0.404479
H118	H	1.652878	-0.261829	-1.205770
H119	H	1.651456	-0.792868	-0.618444
C120	C	0.903457	-0.456098	-0.364789
C121	C	0.918515	-0.540291	-0.373150
C122	C	0.858114	-0.592340	-0.299118
C123	C	0.782656	-0.560196	-0.216725
C124	C	0.767595	-0.475998	-0.208360
C125	C	0.827996	-0.423949	-0.282392
H126	H	0.974376	-0.564090	-0.434146
H127	H	0.869264	-0.654668	-0.305310
H128	H	0.737944	-0.598725	-0.161922
H129	H	0.711734	-0.452199	-0.147365
H130	H	0.816846	-0.361621	-0.276200
C131	C	0.903763	-0.162807	-0.782128
C132	C	0.918897	-0.168955	-0.901547
C133	C	0.858611	-0.116929	-0.975602
C134	C	0.783191	-0.058754	-0.930239
C135	C	0.768053	-0.052603	-0.810814
C136	C	0.828339	-0.104630	-0.736759
H137	H	0.974731	-0.212022	-0.935133
H138	H	0.869818	-0.121483	-1.064008
H139	H	0.738564	-0.020242	-0.985059
H140	H	0.712219	-0.009537	-0.777228
H141	H	0.817133	-0.100076	-0.648353
C142	C	1.462261	-0.785135	-0.698234
C143	C	1.482940	-0.840329	-0.787668
C144	C	1.508178	-0.811863	-0.898608
C145	C	1.512738	-0.728203	-0.920113
C146	C	1.492058	-0.673003	-0.830676
C147	C	1.466819	-0.701470	-0.719736
H148	H	1.479566	-0.902264	-0.771751
H149	H	1.523487	-0.852725	-0.964815
H150	H	1.531421	-0.707130	-1.002238
H151	H	1.495432	-0.611069	-0.846593
H152	H	1.451511	-0.660607	-0.653529
H153	H	1.455945	-0.919765	-0.669929
H154	H	1.774846	-0.175945	-1.106263
H155	H	1.544168	-0.919690	-0.333194
C156	C	1.565433	-0.785811	-0.311251
C157	C	1.577915	-0.702405	-0.291054
C158	C	1.655086	-0.674891	-0.206890
C159	C	1.719775	-0.730784	-0.142923
C160	C	1.707296	-0.814195	-0.163119
C161	C	1.630124	-0.841708	-0.247282
H162	H	1.530026	-0.661025	-0.338408
H163	H	1.664324	-0.613145	-0.191941
H164	H	1.776902	-0.710417	-0.080620
H165	H	1.755184	-0.855575	-0.115765
H166	H	1.620886	-0.903455	-0.262232
C167	C	1.379664	-0.784445	-0.362379
C168	C	1.318096	-0.732633	-0.435667
C169	C	1.209495	-0.703758	-0.402635
C170	C	1.162461	-0.726696	-0.296315
C171	C	1.224030	-0.778511	-0.223020
C172	C	1.332631	-0.807385	-0.256052
H173	H	1.352913	-0.715651	-0.514377
H174	H	1.163918	-0.665401	-0.456893
H175	H	1.082068	-0.705321	-0.271863
H176	H	1.189213	-0.795493	-0.144310
H177	H	1.378208	-0.845742	-0.201794
H178	H	1.652803	-0.261934	-0.807634
H179	H	1.656833	-0.920431	-0.613892
