data_functionalizedCrystal
_audit_creation_method	'MofGen! by Chris Wilmer'
_symmetry_space_group_name_H-M	'P1'
_symmetry_Int_Tables_number	1
_symmetry_cell_setting	triclinic
loop_
_symmetry_equiv_pos_as_xyz
  x,y,z
_cell_length_a	10.654550
_cell_length_b	17.699083
_cell_length_c	9.130313
_cell_angle_alpha	89.997869
_cell_angle_beta	89.996220
_cell_angle_gamma	83.883958
loop_
_atom_site_label
_atom_site_type_symbol
_atom_site_fract_x
_atom_site_fract_y
_atom_site_fract_z
O1	O	1.665973	0.106299	-0.121923
O2	O	1.300318	0.116427	-0.121900
O3	O	1.493476	0.001240	-0.121899
O4	O	1.472815	0.221487	-0.121924
O5	O	1.493474	0.001243	0.121700
O6	O	1.300315	0.116430	0.121699
O7	O	1.665971	0.106302	0.121676
Cu8	Cu	1.483143	0.111366	0.143930
Cu9	Cu	1.483146	0.111363	-0.144154
O10	O	1.472812	0.221490	0.121675
C11	C	1.253531	0.115685	-0.000097
C12	C	1.114127	0.113460	-0.000088
C13	C	1.033454	0.181281	-0.000117
C14	C	0.902470	0.179185	-0.000142
C15	C	0.932845	0.041443	-0.000115
C16	C	1.063826	0.043539	-0.000080
C17	C	1.015917	0.260805	-0.000139
C18	C	0.884933	0.258710	-0.000164
C19	C	1.492735	-0.026961	-0.000099
C20	C	1.490514	-0.110993	-0.000099
C21	C	1.603894	-0.158893	-0.000104
C22	C	1.601799	-0.237850	-0.000117
C23	C	1.486324	-0.268905	-0.000114
C24	C	1.372935	-0.220998	-0.000113
C25	C	1.375031	-0.142043	-0.000111
C26	C	1.364481	-0.539415	-0.000124
C27	C	1.362394	-0.618376	-0.000122
C28	C	1.591249	-0.635222	-0.000130
C29	C	1.593345	-0.556266	-0.000128
C30	C	1.479957	-0.508367	-0.000135
C31	C	1.482229	-0.422753	-0.000124
C32	C	1.484050	-0.354517	-0.000114
C33	C	1.712757	0.107044	-0.000130
C34	C	1.852161	0.109269	-0.000149
C35	C	1.473554	0.249690	-0.000128
C36	C	1.475775	0.333722	-0.000138
N37	N	1.483150	0.111369	0.346553
N38	N	1.483149	0.111355	-0.346777
C39	C	1.568702	0.060381	0.423205
C40	C	1.568699	0.060372	0.576542
C41	C	1.397587	0.162345	0.576561
C42	C	1.397585	0.162349	0.423226
C43	C	1.667496	0.001510	0.423195
C44	C	1.667493	0.001501	0.576532
H45	H	1.697927	-0.133615	-0.000097
C46	C	1.639895	-0.077073	0.366965
C47	C	1.728650	-0.148387	0.407699
C48	C	1.701048	-0.226967	0.351469
C49	C	1.584690	-0.234232	0.254504
C50	C	1.495928	-0.162915	0.213765
C51	C	1.523530	-0.084336	0.269995
H52	H	1.814792	-0.143011	0.479482
H53	H	1.766756	-0.279760	0.381627
H54	H	1.564257	-0.292402	0.212879
H55	H	1.409786	-0.168292	0.141981
H56	H	1.457821	-0.031542	0.239837
H57	H	0.842677	0.288672	-0.102121
H58	H	1.758357	0.019943	0.375629
H59	H	1.327912	0.203861	0.360818
H60	H	1.694125	-0.276847	-0.000118
C61	C	1.054819	0.302821	0.137581
C62	C	0.953843	0.334572	0.248577
C63	C	0.992746	0.376586	0.386293
C64	C	1.132625	0.386849	0.413012
C65	C	1.233610	0.355097	0.302012
C66	C	1.194707	0.313083	0.164296
H67	H	0.850288	0.326975	0.228801
H68	H	0.917989	0.400091	0.468462
H69	H	1.161423	0.417950	0.514957
H70	H	1.337165	0.362694	0.321788
H71	H	1.269464	0.289578	0.082127
C72	C	1.627605	-0.072772	0.640774
C73	C	1.718891	-0.122707	0.740400
C74	C	1.679013	-0.196982	0.804636
C75	C	1.547847	-0.221322	0.769245
C76	C	1.456552	-0.171386	0.669614
C77	C	1.496431	-0.097111	0.605378
H78	H	1.815996	-0.104690	0.766603
H79	H	1.746596	-0.233948	0.878389
H80	H	1.518326	-0.276305	0.816796
H81	H	1.359448	-0.189403	0.643411
H82	H	1.428847	-0.060146	0.531624
H83	H	1.763777	0.014469	0.618141
H84	H	1.129507	-0.011687	-0.000035
H85	H	1.278912	-0.246289	-0.000120
H86	H	1.272153	-0.500424	-0.000130
H87	H	1.268354	-0.643658	-0.000117
H88	H	1.051130	0.286125	-0.105313
H89	H	0.891873	-0.015484	-0.000131
H90	H	0.838840	0.282744	0.105002
H91	H	1.282705	-0.103043	-0.000107
H92	H	1.327922	0.203851	0.639005
C93	C	1.720371	-0.522108	-0.000138
C94	C	1.814494	-0.539917	0.126343
C95	C	1.941523	-0.505761	0.126325
C96	C	1.974429	-0.453795	-0.000174
C97	C	1.880304	-0.435983	-0.126664
C98	C	1.753275	-0.470140	-0.126646
H99	H	1.790137	-0.578388	0.219993
H100	H	2.011200	-0.518947	0.219962
H101	H	2.068463	-0.428511	-0.000187
H102	H	1.904660	-0.397513	-0.220314
H103	H	1.683597	-0.456954	-0.220282
H104	H	1.683575	-0.674231	-0.000132
