data_functionalizedCrystal
_audit_creation_method	'MofGen! by Chris Wilmer'
_symmetry_space_group_name_H-M	'P1'
_symmetry_Int_Tables_number	1
_symmetry_cell_setting	triclinic
loop_
_symmetry_equiv_pos_as_xyz
  x,y,z
_cell_length_a	16.120530
_cell_length_b	19.077068
_cell_length_c	19.076919
_cell_angle_alpha	94.470751
_cell_angle_beta	90.500157
_cell_angle_gamma	90.462149
loop_
_atom_site_label
_atom_site_type_symbol
_atom_site_fract_x
_atom_site_fract_y
_atom_site_fract_z
Zn1	Zn	1.235622	0.351862	0.464893
Zn2	Zn	1.485622	0.601862	0.714893
Zn3	Zn	1.735622	0.851862	0.964893
Zn4	Zn	1.985622	1.101862	1.214893
Zn5	Zn	1.235519	0.465010	0.351733
Zn6	Zn	1.485519	0.715010	0.601733
Zn7	Zn	1.735519	0.965010	0.851733
Zn8	Zn	1.985519	1.215010	1.101733
Zn9	Zn	1.102611	0.341206	0.341097
Zn10	Zn	1.352611	0.591206	0.591097
Zn11	Zn	1.602611	0.841206	0.841097
Zn12	Zn	1.852611	1.091206	1.091097
Zn13	Zn	1.090943	0.463251	0.463136
Zn14	Zn	1.340943	0.713251	0.713136
Zn15	Zn	1.590943	0.963251	0.963136
Zn16	Zn	1.840943	1.213251	1.213136
O17	O	1.166174	0.405332	0.405215
O18	O	1.416174	0.655332	0.655215
O19	O	1.666174	0.905332	0.905215
O20	O	1.916174	1.155332	1.155215
O21	O	1.351779	0.372067	0.455068
O22	O	1.601779	0.622067	0.705068
O23	O	1.851779	0.872067	0.955068
O24	O	2.101779	1.122067	1.205068
O25	O	1.222729	0.444865	0.251890
O26	O	1.472729	0.694865	0.501890
O27	O	1.722729	0.944865	0.751890
O28	O	1.972729	1.194865	1.001890
O29	O	1.125182	0.244190	0.353803
O30	O	1.375182	0.494190	0.603803
O31	O	1.625182	0.744190	0.853803
O32	O	1.875182	0.994190	1.103803
O33	O	1.351704	0.455197	0.371930
O34	O	1.601704	0.705197	0.621930
O35	O	1.851704	0.955197	0.871930
O36	O	2.101704	1.205197	1.121930
O37	O	1.222904	0.252019	0.444755
O38	O	1.472904	0.502019	0.694755
O39	O	1.722904	0.752019	0.944755
O40	O	1.972904	1.002019	1.194755
O41	O	1.125082	0.353906	0.244077
O42	O	1.375082	0.603906	0.494077
O43	O	1.625082	0.853906	0.744077
O44	O	1.875082	1.103906	0.994077
O45	O	0.984893	0.352200	0.352100
O46	O	1.234893	0.602200	0.602100
O47	O	1.484893	0.852200	0.852100
O48	O	1.734893	1.102200	1.102100
O49	O	1.105295	0.452198	0.561800
O50	O	1.355295	0.702198	0.811800
O51	O	1.605295	0.952198	1.061800
O52	O	1.855295	1.202198	1.311800
O53	O	0.976320	0.441866	0.441761
O54	O	1.226320	0.691866	0.691761
O55	O	1.476320	0.941866	0.941761
O56	O	1.726320	1.191866	1.191761
O57	O	1.211590	0.370361	0.563091
O58	O	1.461590	0.620361	0.813091
O59	O	1.711590	0.870361	1.063091
O60	O	1.961590	1.120361	1.313091
O61	O	1.211415	0.563206	0.370226
O62	O	1.461415	0.813206	0.620226
O63	O	1.711415	1.063206	0.870226
O64	O	1.961415	1.313206	1.120226
O65	O	1.105196	0.561914	0.452074
O66	O	1.355196	0.811914	0.702074
O67	O	1.605196	1.061914	0.952074
O68	O	1.855196	1.311914	1.202074
C69	C	1.157050	0.588083	0.412130
C70	C	1.407050	0.838083	0.662130
C71	C	1.657050	1.088083	0.912130
C72	C	1.907050	1.338083	1.162130
C73	C	1.153221	0.666269	0.415115
C74	C	1.403221	0.916269	0.665115
C75	C	1.653221	1.166269	0.915115
C76	C	1.903221	1.416269	1.165115
C77	C	0.950485	0.395686	0.395586
C78	C	1.200485	0.645686	0.645586
C79	C	1.450485	0.895686	0.895586
C80	C	1.700485	1.145686	1.145586
C81	C	0.858210	0.391577	0.391484
C82	C	1.108210	0.641577	0.641484
C83	C	1.358210	0.891577	0.891484
C84	C	1.608210	1.141577	1.141484
C85	C	1.157153	0.412272	0.588681
C86	C	1.407153	0.662272	0.838681
C87	C	1.657153	0.912272	1.088681
C88	C	1.907153	1.162272	1.338681
C89	C	1.153308	0.415229	0.666864
C90	C	1.403308	0.665229	0.916864
C91	C	1.653308	0.915229	1.166864
C92	C	1.903308	1.165229	1.416864
C93	C	0.689263	0.384058	0.384001
C94	C	0.939263	0.634058	0.634001
C95	C	1.189263	0.884058	0.884001
C96	C	1.439263	1.134058	1.134001
C97	C	0.643920	0.426660	0.426481
C98	C	0.893920	0.676660	0.676481
C99	C	1.143920	0.926660	0.926481
C100	C	1.393920	1.176660	1.176481
C101	C	0.549913	0.422477	0.422318
C102	C	0.799913	0.672477	0.672318
C103	C	1.049913	0.922477	0.922318
C104	C	1.299913	1.172477	1.172318
C105	C	0.783280	0.388241	0.388164
C106	C	1.033280	0.638241	0.638164
C107	C	1.283280	0.888241	0.888164
C108	C	1.533280	1.138241	1.138164
C109	C	1.382706	0.415017	0.414881
C110	C	1.632706	0.665017	0.664881
C111	C	1.882706	0.915017	0.914881
C112	C	2.132706	1.165017	1.164881
C113	C	1.474979	0.419144	0.419000
C114	C	1.724979	0.669144	0.669000
C115	C	1.974979	0.919144	0.919000
C116	C	2.224979	1.169144	1.169000
C117	C	1.175356	0.221869	0.398289
C118	C	1.425356	0.471869	0.648289
C119	C	1.675356	0.721869	0.898289
C120	C	1.925356	0.971869	1.148289
C121	C	1.179269	0.143688	0.395338
C122	C	1.429269	0.393688	0.645338
C123	C	1.679269	0.643688	0.895338
C124	C	1.929269	0.893688	1.145338
C125	C	1.206765	0.703654	0.373943
C126	C	1.456765	0.953654	0.623943
C127	C	1.706765	1.203654	0.873943
C128	C	1.956765	1.453654	1.123943
C129	C	1.203168	0.777118	0.376755
C130	C	1.453168	1.027118	0.626755
C131	C	1.703168	1.277118	0.876755
C132	C	1.953168	1.527118	1.126755
C133	C	1.146024	0.813196	0.420736
C134	C	1.396024	1.063196	0.670736
C135	C	1.646024	1.313196	0.920736
C136	C	1.896024	1.563196	1.170736
C137	C	1.092478	0.775806	0.461912
C138	C	1.342478	1.025806	0.711912
C139	C	1.592478	1.275806	0.961912
C140	C	1.842478	1.525806	1.211912
C141	C	1.096079	0.702343	0.459104
C142	C	1.346079	0.952343	0.709104
C143	C	1.596079	1.202343	0.959104
C144	C	1.846079	1.452343	1.209104
C145	C	1.129324	1.032836	0.433705
C146	C	1.379324	1.282836	0.683705
C147	C	1.629324	1.532836	0.933705
C148	C	1.879324	1.782836	1.183705
C149	C	1.125725	1.106304	0.436509
C150	C	1.375725	1.356304	0.686509
C151	C	1.625725	1.606304	0.936509
C152	C	1.875725	1.856304	1.186509
C153	C	1.236417	1.107611	0.351353
C154	C	1.486417	1.357611	0.601353
C155	C	1.736417	1.607611	0.851353
C156	C	1.986417	1.857611	1.101353
C157	C	1.240009	1.034146	0.348545
C158	C	1.490009	1.284146	0.598545
C159	C	1.740009	1.534146	0.848545
C160	C	1.990009	1.784146	1.098545
C161	C	1.186467	0.996763	0.389724
C162	C	1.436467	1.246763	0.639724
C163	C	1.686467	1.496763	0.889724
C164	C	1.936467	1.746763	1.139724
N165	N	1.142345	0.888288	0.423610
N166	N	1.392345	1.138288	0.673610
N167	N	1.642345	1.388288	0.923610
N168	N	1.892345	1.638288	1.173610
N169	N	1.190150	0.921673	0.386853
N170	N	1.440150	1.171673	0.636853
N171	N	1.690150	1.421673	0.886853
N172	N	1.940150	1.671673	1.136853
C173	C	1.175211	0.398371	0.222462
C174	C	1.425211	0.648371	0.472462
C175	C	1.675211	0.898371	0.722462
C176	C	1.925211	1.148371	0.972462
C177	C	1.179226	0.395223	0.144279
C178	C	1.429226	0.645223	0.394279
C179	C	1.679226	0.895223	0.644279
C180	C	1.929226	1.145223	0.894279
C181	C	1.206841	0.374012	0.704267
C182	C	1.456841	0.624012	0.954267
C183	C	1.706841	0.874012	1.204267
C184	C	1.956841	1.124012	1.454267
C185	C	1.203219	0.376787	0.777728
C186	C	1.453219	0.626787	1.027728
C187	C	1.703219	0.876787	1.277728
C188	C	1.953219	1.126787	1.527728
C189	C	1.146067	0.420784	0.813784
C190	C	1.396067	0.670784	1.063784
C191	C	1.646067	0.920784	1.313784
C192	C	1.896067	1.170784	1.563784
C193	C	1.092528	0.462002	0.776375
C194	C	1.342528	0.712002	1.026375
C195	C	1.592528	0.962002	1.276375
C196	C	1.842528	1.212002	1.526375
C197	C	1.096147	0.459223	0.702916
C198	C	1.346147	0.709223	0.952916
C199	C	1.596147	0.959223	1.202916
C200	C	1.846147	1.209223	1.452916
C201	C	1.129306	0.433662	1.033411
C202	C	1.379306	0.683662	1.283411
C203	C	1.629306	0.933662	1.533411
C204	C	1.879306	1.183662	1.783411
C205	C	1.125693	0.436440	1.106876
C206	C	1.375693	0.686440	1.356876
C207	C	1.625693	0.936440	1.606876
C208	C	1.875693	1.186440	1.856876
C209	C	1.236383	0.351224	1.108223
C210	C	1.486383	0.601224	1.358223
C211	C	1.736383	0.851224	1.608223
C212	C	1.986383	1.101224	1.858223
C213	C	1.240000	0.348451	1.034763
C214	C	1.490000	0.598451	1.284763
C215	C	1.740000	0.848451	1.534763
C216	C	1.990000	1.098451	1.784763
C217	C	1.186458	0.389667	0.997360
C218	C	1.436458	0.639667	1.247360
C219	C	1.686458	0.889667	1.497360
C220	C	1.936458	1.139667	1.747360
N221	N	1.142365	0.423623	0.888872
N222	N	1.392365	0.673623	1.138872
N223	N	1.642365	0.923623	1.388872
N224	N	1.892365	1.173623	1.638872
N225	N	1.190157	0.386823	0.922273
N226	N	1.440157	0.636823	1.172273
N227	N	1.690157	0.886823	1.422273
N228	N	1.940157	1.136823	1.672273
H229	H	0.675703	0.466273	0.465978
H230	H	0.925703	0.716273	0.715978
H231	H	1.175703	0.966273	0.965978
H232	H	1.425703	1.216273	1.215978
H233	H	0.657483	0.344448	0.344508
H234	H	0.907483	0.594448	0.594508
H235	H	1.157483	0.844448	0.844508
H236	H	1.407483	1.094448	1.094508
Br237	Br	1.309082	1.158349	0.295473
Br238	Br	1.559082	1.408349	0.545473
Br239	Br	1.809082	1.658349	0.795473
Br240	Br	2.059082	1.908349	1.045473
H241	H	1.085726	1.002404	0.467234
H242	H	1.335726	1.252404	0.717234
H243	H	1.585726	1.502404	0.967234
H244	H	1.835726	1.752404	1.217234
Br245	Br	1.275843	0.827853	0.320881
Br246	Br	1.525843	1.077853	0.570881
Br247	Br	1.775843	1.327853	0.820881
Br248	Br	2.025843	1.577853	1.070881
Br249	Br	1.284314	0.654698	0.314245
Br250	Br	1.534314	0.904698	0.564245
Br251	Br	1.784314	1.154698	0.814245
Br252	Br	2.034314	1.404698	1.064245
Br253	Br	1.048122	0.496151	1.155808
Br254	Br	1.298122	0.746151	1.405808
Br255	Br	1.548122	0.996151	1.655808
Br256	Br	1.798122	1.246151	1.905808
Br257	Br	1.014931	0.824768	0.521608
Br258	Br	1.264931	1.074768	0.771608
Br259	Br	1.514931	1.324768	1.021608
Br260	Br	1.764931	1.574768	1.271608
H261	H	1.286541	1.004773	0.312732
H262	H	1.536541	1.254773	0.562732
H263	H	1.786541	1.504773	0.812732
H264	H	2.036541	1.754773	1.062732
Br265	Br	1.023415	0.651606	0.514987
Br266	Br	1.273415	0.901606	0.764987
Br267	Br	1.523415	1.151606	1.014987
Br268	Br	1.773415	1.401606	1.264987
H269	H	1.079201	1.135677	0.472337
H270	H	1.329201	1.385677	0.722337
H271	H	1.579201	1.635677	0.972337
H272	H	1.829201	1.885677	1.222337
Br273	Br	1.284415	0.314305	0.655342
Br274	Br	1.534415	0.564305	0.905342
Br275	Br	1.784415	0.814305	1.155342
Br276	Br	2.034415	1.064305	1.405342
H277	H	1.246813	0.343226	0.808179
H278	H	1.496813	0.593226	1.058179
H279	H	1.746813	0.843226	1.308179
H280	H	1.996813	1.093226	1.558179
Br281	Br	1.317569	0.288742	0.985835
Br282	Br	1.567569	0.538742	1.235835
Br283	Br	1.817569	0.788742	1.485835
Br284	Br	2.067569	1.038742	1.735835
H285	H	1.279972	0.317667	1.138684
H286	H	1.529972	0.567667	1.388684
H287	H	1.779972	0.817667	1.638684
H288	H	2.029972	1.067667	1.888684
H289	H	1.085720	0.467234	1.002968
H290	H	1.335720	0.717234	1.252968
H291	H	1.585720	0.967234	1.502968
H292	H	1.835720	1.217234	1.752968
Br293	Br	1.014959	0.521708	0.825307
Br294	Br	1.264959	0.771708	1.075307
Br295	Br	1.514959	1.021708	1.325307
Br296	Br	1.764959	1.271708	1.575307
H297	H	1.052547	0.492779	0.672462
H298	H	1.302547	0.742779	0.922462
H299	H	1.552547	0.992779	1.172462
H300	H	1.802547	1.242779	1.422462
