data_functionalizedCrystal
_audit_creation_method	'MofGen! by Chris Wilmer'
_symmetry_space_group_name_H-M	'P1'
_symmetry_Int_Tables_number	1
_symmetry_cell_setting	triclinic
loop_
_symmetry_equiv_pos_as_xyz
  x,y,z
_cell_length_a	14.519709
_cell_length_b	13.596369
_cell_length_c	13.339070
_cell_angle_alpha	90.002959
_cell_angle_beta	99.654720
_cell_angle_gamma	89.999709
loop_
_atom_site_label
_atom_site_type_symbol
_atom_site_fract_x
_atom_site_fract_y
_atom_site_fract_z
O1	O	1.257617	0.081656	0.132672
O2	O	0.993115	0.081686	0.148296
O3	O	1.095010	0.081671	-0.006834
O4	O	1.155723	0.081671	0.287803
O5	O	1.094994	-0.081911	-0.006842
O6	O	0.993099	-0.081897	0.148288
O7	O	1.257601	-0.081927	0.132664
Zn8	Zn	1.125347	-0.107884	0.140475
Zn9	Zn	1.125369	0.107643	0.140486
O10	O	1.155706	-0.081912	0.287794
C11	C	0.958562	-0.000102	0.147564
C12	C	0.855625	-0.000091	0.145382
C13	C	0.478686	-0.000135	0.137349
C14	C	0.583562	-0.000123	0.139580
C15	C	0.667153	-0.000112	0.141365
C16	C	0.772035	-0.000101	0.143596
N17	N	1.125339	-0.254976	0.140467
C18	C	1.125368	-0.656267	0.140487
C19	C	1.125358	-0.544616	0.140484
C20	C	1.125354	-0.455625	0.140477
C21	C	1.125343	-0.343967	0.140474
C22	C	1.292154	-0.000137	0.133396
C23	C	1.395091	-0.000142	0.135578
C24	C	1.084746	-0.000118	-0.044546
C25	C	1.054177	-0.000110	-0.156903
N26	N	1.125382	0.254735	0.140486
C27	C	1.291868	-0.000137	-0.521266
C28	C	1.320592	-0.000149	-0.415701
C29	C	1.253991	-0.000139	-0.350997
C30	C	1.158660	-0.000117	-0.391867
C31	C	1.129933	-0.000113	-0.497442
C32	C	1.092056	-0.000115	-0.327173
C33	C	0.996725	-0.000093	-0.368043
C34	C	0.968003	-0.000088	-0.473608
C35	C	1.034604	-0.000098	-0.538312
C36	C	1.120783	-0.000120	-0.221598
C37	C	0.958848	-0.000095	-0.197774
C38	C	0.930124	-0.000083	-0.303338
C39	C	1.165970	-0.000121	0.325506
C40	C	1.196539	-0.000122	0.437863
H41	H	1.277384	-0.000150	-0.265042
C42	C	1.267652	0.083957	-0.209402
C43	C	1.225565	-0.000132	-0.176677
H44	H	1.332343	0.083953	-0.181664
H45	H	1.260074	0.083949	-0.281526
H46	H	1.239090	0.140998	-0.187194
H47	H	1.254122	-0.057173	-0.198892
H48	H	1.233149	-0.000133	-0.104538
H49	H	1.398210	-0.000169	-0.382433
H50	H	1.011221	-0.000084	-0.624273
H51	H	0.890378	-0.000077	-0.506880
C52	C	1.319719	-0.000145	-0.693679
C53	C	1.365068	-0.000151	-0.592389
H54	H	1.364916	-0.000150	-0.737586
H55	H	1.281743	-0.057180	-0.706078
H56	H	1.281755	0.056910	-0.706069
H57	H	1.403027	-0.057211	-0.579996
H58	H	1.403061	0.056890	-0.579985
C59	C	0.803896	0.084028	-0.408242
C60	C	0.825338	-0.000066	-0.348274
H61	H	0.739207	0.084033	-0.435988
H62	H	0.818467	0.141059	-0.367545
H63	H	0.839462	0.084013	-0.461874
H64	H	0.789776	-0.000048	-0.294638
H65	H	0.810757	-0.057112	-0.388973
H66	H	0.904615	-0.000092	-0.145091
