data_functionalizedCrystal
_audit_creation_method	'MofGen! by Chris Wilmer'
_symmetry_space_group_name_H-M	'P1'
_symmetry_Int_Tables_number	1
_symmetry_cell_setting	triclinic
loop_
_symmetry_equiv_pos_as_xyz
  x,y,z
_cell_length_a	15.297475
_cell_length_b	12.645330
_cell_length_c	15.296720
_cell_angle_alpha	80.350659
_cell_angle_beta	88.382886
_cell_angle_gamma	80.321044
loop_
_atom_site_label
_atom_site_type_symbol
_atom_site_fract_x
_atom_site_fract_y
_atom_site_fract_z
Zn1	Zn	1.253448	-0.825067	0.726648
Zn2	Zn	1.278720	-0.977718	0.580172
Zn3	Zn	1.132323	-0.765511	0.554885
Zn4	Zn	1.106946	-0.967297	0.701300
O5	O	1.192859	-0.883898	0.640751
O6	O	1.379380	-0.874601	0.728408
O7	O	1.280497	-0.929005	0.454242
O8	O	1.148435	-0.625078	0.577695
O9	O	1.397947	-0.986754	0.620794
O10	O	1.237425	-0.668833	0.703888
O11	O	1.172939	-0.773098	0.435663
O12	O	1.006377	-0.762993	0.553116
O13	O	1.105183	-0.968993	0.827238
O14	O	0.987732	-0.911244	0.660687
O15	O	1.212818	-0.864497	0.845861
O16	O	1.255889	-1.124669	0.596215
O17	O	1.129687	-1.117013	0.685207
C18	C	0.965271	-0.829526	0.601408
C19	C	0.867904	-0.806295	0.584597
C20	C	1.192797	-1.159311	0.640728
C21	C	1.192846	-1.277157	0.640761
C22	C	0.554772	-1.049945	0.760902
C23	C	0.646253	-1.071780	0.776693
C24	C	0.701670	-1.005410	0.728671
C25	C	0.665597	-0.917203	0.664853
C26	C	0.574108	-0.895371	0.649055
C27	C	0.721006	-0.850836	0.616824
C28	C	0.684933	-0.762629	0.553007
C29	C	0.593452	-0.740801	0.537212
C30	C	0.538035	-0.807170	0.585234
C31	C	0.812496	-0.872668	0.632623
C32	C	0.831831	-0.718094	0.520776
C33	C	0.740350	-0.696259	0.504984
C34	C	1.113695	-1.440051	0.697003
C35	C	1.113388	-1.317372	0.696725
C36	C	1.183843	-1.300270	0.544135
C37	C	1.183360	-1.422840	0.544476
C38	C	1.281541	-1.470384	0.680468
C39	C	1.280623	-1.347981	0.682388
C40	C	1.421336	-0.938483	0.680249
C41	C	1.518699	-0.961744	0.697081
C42	C	1.153351	-0.922226	0.869221
C43	C	1.136514	-0.938559	0.966581
C44	C	1.192942	-0.607419	0.640798
C45	C	1.192977	-0.489600	0.640818
C46	C	1.232264	-0.845655	0.413179
C47	C	1.249270	-0.829064	0.315849
C48	C	1.313223	-0.766986	1.279808
C49	C	1.329047	-0.751644	1.188334
C50	C	1.280915	-0.798371	1.132891
C51	C	1.216957	-0.860444	1.168931
C52	C	1.201136	-0.875795	1.260415
C53	C	1.168828	-0.907179	1.113499
C54	C	1.104870	-0.969252	1.149538
C55	C	1.089052	-0.984600	1.241013
C56	C	1.137183	-0.937873	1.296456
C57	C	1.184649	-0.891828	1.022015
C58	C	1.072562	-1.000637	1.002622
C59	C	1.056738	-1.015979	1.094096
H60	H	0.776158	-1.023193	0.741533
H61	H	1.341522	-1.322277	0.645717
C62	C	1.018715	-1.052897	1.280662
H63	H	1.016195	-1.055358	1.343084
H64	H	0.962453	-1.020817	1.255504
H65	H	1.034119	-1.124667	1.267870
C66	C	0.437405	-0.783148	0.567862
H67	H	0.423855	-0.721110	0.522979
H68	H	0.419325	-0.844028	0.549047
H69	H	0.406950	-0.769467	0.620849
H70	H	0.675618	-1.143600	0.828652
H71	H	0.509645	-1.103979	0.799989
H72	H	0.564086	-0.668986	0.485238
H73	H	1.340412	-1.503081	0.639741
C74	C	1.098063	-1.232681	0.500941
H75	H	1.093212	-1.247230	0.442479
H76	H	1.048413	-1.251614	0.534983
H77	H	1.099651	-1.157495	0.498702
H78	H	1.239467	-1.454946	0.500326
H79	H	1.236723	-0.841287	0.992680
H80	H	1.124303	-0.950362	1.370942
H81	H	1.287703	-1.334748	0.753579
C82	C	0.700663	-0.599242	0.434784
H83	H	0.638244	-0.595755	0.432253
H84	H	0.713434	-0.533786	0.450292
H85	H	0.725821	-0.608348	0.378490
H86	H	0.876953	-0.664052	0.481671
C87	C	1.118464	-1.297208	0.792838
H88	H	1.120730	-1.364091	0.832406
H89	H	1.170246	-1.267251	0.799947
H90	H	1.067520	-1.247853	0.805465
H91	H	1.117294	-1.484703	0.768350
C92	C	1.298313	-0.781484	1.032271
H93	H	1.343290	-0.737815	1.018746
H94	H	1.317012	-0.850029	1.014174
H95	H	1.245365	-0.746161	1.001814
H96	H	1.048109	-1.452052	0.669746
C97	C	1.024262	-1.252154	0.659522
H98	H	0.988105	-1.300619	0.644512
H99	H	0.995051	-1.213322	0.703015
H100	H	1.034646	-1.202294	0.608069
C101	C	1.096544	-1.435215	0.501621
H102	H	1.095485	-1.510083	0.501448
H103	H	1.047448	-1.405984	0.534565
H104	H	1.093145	-1.397220	0.442401
H105	H	1.240465	-1.273756	0.500427
C106	C	1.399388	-0.683363	1.148690
H107	H	1.401922	-0.680921	1.086270
H108	H	1.383999	-0.611596	1.161480
H109	H	1.455649	-0.715462	1.173855
H110	H	1.292878	-1.517792	0.750574
H111	H	1.352410	-0.728955	1.324958
C112	C	0.986395	-1.084266	1.133748
H113	H	0.983875	-1.086719	1.196169
H114	H	0.930136	-1.052180	1.108587
H115	H	1.001792	-1.156039	1.120962
C116	C	1.019612	-1.052036	0.941644
H117	H	1.038187	-1.033993	0.882001
H118	H	1.029814	-1.128834	0.958835
H119	H	0.958165	-1.024967	0.946464
H120	H	0.841857	-0.944487	0.684584
