data_functionalizedCrystal
_audit_creation_method	'MofGen! by Chris Wilmer'
_symmetry_space_group_name_H-M	'P1'
_symmetry_Int_Tables_number	1
_symmetry_cell_setting	triclinic
loop_
_symmetry_equiv_pos_as_xyz
  x,y,z
_cell_length_a	12.759401
_cell_length_b	16.625546
_cell_length_c	12.759401
_cell_angle_alpha	90.012072
_cell_angle_beta	90.002448
_cell_angle_gamma	90.022629
loop_
_atom_site_label
_atom_site_type_symbol
_atom_site_fract_x
_atom_site_fract_y
_atom_site_fract_z
Zn1	Zn	1.606032	-0.321143	0.593947
Zn2	Zn	1.605952	-0.455943	0.418253
Zn3	Zn	1.430383	-0.321128	0.418287
Zn4	Zn	1.430299	-0.455937	0.593894
O5	O	1.518167	-0.388538	0.506095
O6	O	1.753043	-0.339032	0.570649
O7	O	1.582664	-0.438055	0.271237
O8	O	1.453752	-0.208298	0.441624
O9	O	1.752984	-0.438069	0.441567
O10	O	1.582801	-0.208308	0.570681
O11	O	1.453675	-0.339008	0.271261
O12	O	1.283351	-0.339002	0.441573
O13	O	1.453609	-0.438060	0.740922
O14	O	1.283289	-0.438046	0.570592
O15	O	1.582719	-0.339027	0.740961
O16	O	1.582582	-0.568774	0.441516
O17	O	1.453531	-0.568770	0.570559
C18	C	1.245199	-0.388523	0.506081
C19	C	1.128423	-0.388536	0.506100
C20	C	1.518067	-0.598028	0.506051
C21	C	1.518121	-0.687650	0.506068
C22	C	1.073556	-0.440190	0.573169
C23	C	0.963832	-0.440201	0.573180
C24	C	0.963851	-0.336899	0.439045
C25	C	1.073573	-0.336886	0.439040
C26	C	1.128405	-0.491840	0.640229
C27	C	1.073539	-0.543500	0.707302
C28	C	0.963814	-0.543510	0.707314
C29	C	0.908957	-0.491861	0.640252
C30	C	1.518304	-1.015825	0.506177
C31	C	1.518250	-0.924517	0.506150
C32	C	1.518212	-0.851740	0.506122
C33	C	1.518159	-0.760426	0.506095
C34	C	1.792200	-0.388553	0.506110
C35	C	1.908977	-0.388560	0.506117
C36	C	1.518163	-0.388545	0.780129
C37	C	1.518162	-0.388548	0.896905
C38	C	1.518295	-0.178229	0.506162
C39	C	1.518350	-0.088608	0.506191
C40	C	1.450943	-0.440115	1.061474
C41	C	1.450941	-0.440110	0.951750
C42	C	1.585383	-0.336981	0.951791
C43	C	1.585379	-0.336983	1.061513
C44	C	1.383725	-0.491686	1.116312
C45	C	1.316503	-0.543252	1.061434
C46	C	1.316500	-0.543247	0.951710
C47	C	1.383720	-0.491677	0.896864
C48	C	1.518161	-0.388551	1.233128
C49	C	1.518161	-0.388554	1.116351
H50	H	1.217748	-0.491839	0.640225
H51	H	1.640108	-0.294994	1.106195
C52	C	1.133876	-0.600312	0.781060
H53	H	1.207081	-0.592915	0.771441
H54	H	1.115912	-0.588606	0.851683
H55	H	1.115869	-0.654470	0.765544
C56	C	0.903463	-0.600325	0.781098
H57	H	0.951848	-0.631084	0.821029
H58	H	0.860679	-0.569542	0.826951
H59	H	0.860643	-0.635415	0.740825
C60	C	1.242564	-0.599967	0.891347
H61	H	1.202540	-0.630684	0.939725
H62	H	1.196801	-0.569127	0.848549
H63	H	1.282746	-0.635100	0.848540
H64	H	0.819613	-0.491867	0.640275
H65	H	1.640110	-0.294996	0.907126
H66	H	0.919178	-0.294850	0.384446
H67	H	1.118247	-0.294818	0.384434
H68	H	1.261767	-0.585233	1.106097
C69	C	1.383705	-0.491663	0.776170
H70	H	1.334045	-0.529757	0.751339
H71	H	1.365569	-0.439627	0.751373
H72	H	1.451497	-0.505614	0.751339
H73	H	1.383721	-0.491698	1.205655
