data_functionalizedCrystal
_audit_creation_method	'MofGen! by Chris Wilmer'
_symmetry_space_group_name_H-M	'P1'
_symmetry_Int_Tables_number	1
_symmetry_cell_setting	triclinic
loop_
_symmetry_equiv_pos_as_xyz
  x,y,z
_cell_length_a	18.050591
_cell_length_b	21.295417
_cell_length_c	21.295420
_cell_angle_alpha	90.017552
_cell_angle_beta	90.021462
_cell_angle_gamma	90.026512
loop_
_atom_site_label
_atom_site_type_symbol
_atom_site_fract_x
_atom_site_fract_y
_atom_site_fract_z
Zn1	Zn	1.135285	-0.250773	0.356012
Zn2	Zn	1.385285	-0.000773	0.606012
Zn3	Zn	1.635285	0.249227	0.856012
Zn4	Zn	1.885285	0.499227	1.106012
Zn5	Zn	1.135189	-0.356018	0.250737
Zn6	Zn	1.385189	-0.106018	0.500737
Zn7	Zn	1.635189	0.143982	0.750737
Zn8	Zn	1.885189	0.393982	1.000737
Zn9	Zn	1.011103	-0.250759	0.250746
Zn10	Zn	1.261103	-0.000759	0.500746
Zn11	Zn	1.511103	0.249241	0.750746
Zn12	Zn	1.761103	0.499241	1.000746
Zn13	Zn	1.011047	-0.356001	0.355958
Zn14	Zn	1.261047	-0.106001	0.605958
Zn15	Zn	1.511047	0.143999	0.855958
Zn16	Zn	1.761047	0.393999	1.105958
O17	O	1.073156	-0.303388	0.303363
O18	O	1.323156	-0.053388	0.553363
O19	O	1.573156	0.196612	0.803363
O20	O	1.823156	0.446612	1.053363
O21	O	1.239197	-0.264747	0.342066
O22	O	1.489197	-0.014747	0.592066
O23	O	1.739197	0.235253	0.842066
O24	O	1.989197	0.485253	1.092066
O25	O	1.118712	-0.342056	0.162649
O26	O	1.368712	-0.092056	0.412649
O27	O	1.618712	0.157944	0.662649
O28	O	1.868712	0.407944	0.912649
O29	O	1.027639	-0.162672	0.264736
O30	O	1.277639	0.087328	0.514736
O31	O	1.527639	0.337328	0.764736
O32	O	1.777639	0.587328	1.014736
O33	O	1.239126	-0.342070	0.264721
O34	O	1.489126	-0.092070	0.514721
O35	O	1.739126	0.157930	0.764721
O36	O	1.989126	0.407930	1.014721
O37	O	1.118875	-0.162682	0.342074
O38	O	1.368875	0.087318	0.592074
O39	O	1.618875	0.337318	0.842074
O40	O	1.868875	0.587318	1.092074
O41	O	1.027546	-0.264723	0.162655
O42	O	1.277546	-0.014723	0.412655
O43	O	1.527546	0.235277	0.662655
O44	O	1.777546	0.485277	0.912655
O45	O	0.907171	-0.264707	0.264684
O46	O	1.157171	-0.014707	0.514684
O47	O	1.407171	0.235293	0.764684
O48	O	1.657171	0.485293	1.014684
O49	O	1.027544	-0.342042	0.444054
O50	O	1.277544	-0.092042	0.694054
O51	O	1.527544	0.157958	0.944054
O52	O	1.777544	0.407958	1.194054
O53	O	0.907130	-0.342028	0.341982
O54	O	1.157130	-0.092028	0.591982
O55	O	1.407130	0.157972	0.841982
O56	O	1.657130	0.407972	1.091982
O57	O	1.118821	-0.264731	0.444094
O58	O	1.368821	-0.014731	0.694094
O59	O	1.618821	0.235269	0.944094
O60	O	1.868821	0.485269	1.194094
O61	O	1.118658	-0.444105	0.264669
O62	O	1.368658	-0.194105	0.514669
O63	O	1.618658	0.055895	0.764669
O64	O	1.868658	0.305895	1.014669
O65	O	1.027451	-0.444093	0.341974
O66	O	1.277451	-0.194093	0.591974
O67	O	1.527451	0.055907	0.841974
O68	O	1.777451	0.305907	1.091974
C69	C	0.880204	-0.303364	0.303328
C70	C	1.130204	-0.053364	0.553328
C71	C	1.380204	0.196636	0.803328
C72	C	1.630204	0.446636	1.053328
C73	C	0.797658	-0.303370	0.303328
C74	C	1.047658	-0.053370	0.553328
C75	C	1.297658	0.196630	0.803328
C76	C	1.547658	0.446630	1.053328
C77	C	0.598208	-0.261274	0.261390
C78	C	0.848208	-0.011274	0.511390
C79	C	1.098208	0.238726	0.761390
C80	C	1.348208	0.488726	1.011390
C81	C	0.548785	-0.318686	0.245895
C82	C	0.798785	-0.068686	0.495895
C83	C	1.048785	0.181314	0.745895
C84	C	1.298785	0.431314	0.995895
C85	C	0.646528	-0.303389	0.303357
C86	C	0.896528	-0.053389	0.553357
C87	C	1.146528	0.196611	0.803357
C88	C	1.396528	0.446611	1.053357
C89	C	0.548868	-0.245996	0.318851
C90	C	0.798868	0.004004	0.568851
C91	C	1.048868	0.254004	0.818851
C92	C	1.298868	0.504004	1.068851
C93	C	0.500542	-0.303402	0.303383
C94	C	0.750542	-0.053402	0.553383
C95	C	1.000542	0.196598	0.803383
C96	C	1.250542	0.446598	1.053383
C97	C	0.598192	-0.360831	0.287831
C98	C	0.848192	-0.110831	0.537831
C99	C	1.098192	0.139169	0.787831
C100	C	1.348192	0.389169	1.037831
C101	C	0.598280	-0.288103	0.360814
C102	C	0.848280	-0.038103	0.610814
C103	C	1.098280	0.211897	0.860814
C104	C	1.348280	0.461897	1.110814
C105	C	0.548879	-0.345555	0.345341
C106	C	0.798879	-0.095555	0.595341
C107	C	1.048879	0.154445	0.845341
C108	C	1.298879	0.404445	1.095341
C109	C	0.730626	-0.303380	0.303340
C110	C	0.980626	-0.053380	0.553340
C111	C	1.230626	0.196620	0.803340
C112	C	1.480626	0.446620	1.053340
C113	C	0.416446	-0.303417	0.303400
C114	C	0.666446	-0.053417	0.553400
C115	C	0.916446	0.196583	0.803400
C116	C	1.166446	0.446583	1.053400
C117	C	1.073058	-0.466940	0.303328
C118	C	1.323058	-0.216940	0.553328
C119	C	1.573058	0.033060	0.803328
C120	C	1.823058	0.283060	1.053328
C121	C	1.073085	-0.536908	0.303335
C122	C	1.323085	-0.286908	0.553335
C123	C	1.573085	-0.036908	0.803335
C124	C	1.823085	0.213092	1.053335
C125	C	1.120618	-0.569760	0.263123
C126	C	1.370618	-0.319760	0.513123
C127	C	1.620618	-0.069760	0.763123
C128	C	1.870618	0.180240	1.013123
C129	C	1.120653	-0.635502	0.263137
C130	C	1.370653	-0.385502	0.513137
C131	C	1.620653	-0.135502	0.763137
C132	C	1.870653	0.114498	1.013137
C133	C	1.073141	-0.668390	0.303356
C134	C	1.323141	-0.418390	0.553356
C135	C	1.573141	-0.168390	0.803356
C136	C	1.823141	0.081610	1.053356
C137	C	1.025604	-0.635530	0.343576
C138	C	1.275604	-0.385530	0.593576
C139	C	1.525604	-0.135530	0.843576
C140	C	1.775604	0.114470	1.093576
C141	C	1.025576	-0.569789	0.343565
C142	C	1.275576	-0.319789	0.593565
C143	C	1.525576	-0.069789	0.843565
C144	C	1.775576	0.180211	1.093565
N145	N	1.008174	-0.771653	0.308143
N146	N	1.258174	-0.521653	0.558143
N147	N	1.508174	-0.271653	0.808143
N148	N	1.758174	-0.021653	1.058143
N149	N	1.008203	-0.834105	0.308150
N150	N	1.258203	-0.584105	0.558150
N151	N	1.508203	-0.334105	0.808150
N152	N	1.758203	-0.084105	1.058150
C153	C	1.073224	-0.866465	0.303392
C154	C	1.323224	-0.616465	0.553392
C155	C	1.573224	-0.366465	0.803392
C156	C	1.823224	-0.116465	1.053392
N157	N	1.138217	-0.834014	0.298615
N158	N	1.388217	-0.584014	0.548615
N159	N	1.638217	-0.334014	0.798615
N160	N	1.888217	-0.084014	1.048615
N161	N	1.138187	-0.771557	0.298605
N162	N	1.388187	-0.521557	0.548605
N163	N	1.638187	-0.271557	0.798605
N164	N	1.888187	-0.021557	1.048605
C165	C	1.073167	-0.739675	0.303373
C166	C	1.323167	-0.489675	0.553373
C167	C	1.573167	-0.239675	0.803373
C168	C	1.823167	0.010325	1.053373
C169	C	1.120800	-0.970602	0.263194
C170	C	1.370800	-0.720602	0.513194
C171	C	1.620800	-0.470602	0.763194
C172	C	1.870800	-0.220602	1.013194
C173	C	1.120836	-1.036346	0.263213
C174	C	1.370836	-0.786346	0.513213
C175	C	1.620836	-0.536346	0.763213
C176	C	1.870836	-0.286346	1.013213
C177	C	1.025780	-1.036373	0.343648
C178	C	1.275780	-0.786373	0.593648
C179	C	1.525780	-0.536373	0.843648
C180	C	1.775780	-0.286373	1.093648
C181	C	1.025751	-0.970630	0.343632
C182	C	1.275751	-0.720630	0.593632
C183	C	1.525751	-0.470630	0.843632
C184	C	1.775751	-0.220630	1.093632
C185	C	1.073259	-0.937749	0.303402
C186	C	1.323259	-0.687749	0.553402
C187	C	1.573259	-0.437749	0.803402
C188	C	1.823259	-0.187749	1.053402
C189	C	1.266861	-0.303412	0.303399
C190	C	1.516861	-0.053412	0.553399
C191	C	1.766861	0.196588	0.803399
C192	C	2.016861	0.446588	1.053399
C193	C	1.349407	-0.303422	0.303414
C194	C	1.599407	-0.053422	0.553414
C195	C	1.849407	0.196578	0.803414
C196	C	2.099407	0.446578	1.053414
C197	C	1.073187	-0.303386	0.467553
C198	C	1.323187	-0.053386	0.717553
C199	C	1.573187	0.196614	0.967553
C200	C	1.823187	0.446614	1.217553
C201	C	1.073200	-0.303386	0.537522
C202	C	1.323200	-0.053386	0.787522
C203	C	1.573200	0.196614	1.037522
C204	C	1.823200	0.446614	1.287522
C205	C	1.073274	-0.139198	0.303412
C206	C	1.323274	0.110802	0.553412
C207	C	1.573274	0.360802	0.803412
C208	C	1.823274	0.610802	1.053412
C209	C	1.073324	-0.069229	0.303433
C210	C	1.323324	0.180771	0.553433
C211	C	1.573324	0.430771	0.803433
C212	C	1.823324	0.680771	1.053433
C213	C	1.025737	-0.263121	0.570382
C214	C	1.275737	-0.013121	0.820382
C215	C	1.525737	0.236879	1.070382
C216	C	1.775737	0.486879	1.320382
C217	C	1.025724	-0.263125	0.636124
C218	C	1.275724	-0.013125	0.886124
C219	C	1.525724	0.236875	1.136124
C220	C	1.775724	0.486875	1.386124
C221	C	1.073186	-0.303386	0.669004
C222	C	1.323186	-0.053386	0.919004
C223	C	1.573186	0.196614	1.169004
C224	C	1.823186	0.446614	1.419004
C225	C	1.120652	-0.343658	0.636136
C226	C	1.370652	-0.093658	0.886136
C227	C	1.620652	0.156342	1.136136
C228	C	1.870652	0.406342	1.386136
C229	C	1.120659	-0.343658	0.570395
C230	C	1.370659	-0.093658	0.820395
C231	C	1.620659	0.156342	1.070395
C232	C	1.870659	0.406342	1.320395
N233	N	1.138179	-0.308221	0.772248
N234	N	1.388179	-0.058221	1.022248
N235	N	1.638179	0.191779	1.272248
N236	N	1.888179	0.441779	1.522248
N237	N	1.138171	-0.308217	0.834699
N238	N	1.388171	-0.058217	1.084699
N239	N	1.638171	0.191783	1.334699
N240	N	1.888171	0.441783	1.584699
C241	C	1.073167	-0.303389	0.867079
C242	C	1.323167	-0.053389	1.117079
C243	C	1.573167	0.196611	1.367079
C244	C	1.823167	0.446611	1.617079
N245	N	1.008171	-0.298553	0.834647
N246	N	1.258171	-0.048553	1.084647
N247	N	1.508171	0.201447	1.334647
N248	N	1.758171	0.451447	1.584647
N249	N	1.008181	-0.298553	0.772190
N250	N	1.258181	-0.048553	1.022190
N251	N	1.508181	0.201447	1.272190
N252	N	1.758181	0.451447	1.522190
C253	C	1.073184	-0.303391	0.740289
C254	C	1.323184	-0.053391	0.990289
C255	C	1.573184	0.196609	1.240289
C256	C	1.823184	0.446609	1.490289
C257	C	1.025685	-0.263126	0.971224
C258	C	1.275685	-0.013126	1.221224
C259	C	1.525685	0.236874	1.471224
C260	C	1.775685	0.486874	1.721224
C261	C	1.025671	-0.263134	1.036968
C262	C	1.275671	-0.013134	1.286968
C263	C	1.525671	0.236866	1.536968
C264	C	1.775671	0.486866	1.786968
C265	C	1.120606	-0.343664	1.036979
C266	C	1.370606	-0.093664	1.286979
C267	C	1.620606	0.156336	1.536979
C268	C	1.870606	0.406336	1.786979
C269	C	1.120614	-0.343660	0.971236
C270	C	1.370614	-0.093660	1.221236
C271	C	1.620614	0.156340	1.471236
C272	C	1.870614	0.406340	1.721236
C273	C	1.073155	-0.303387	0.938363
C274	C	1.323155	-0.053387	1.188363
C275	C	1.573155	0.196613	1.438363
C276	C	1.823155	0.446613	1.688363
C277	C	1.073126	-0.303402	1.139812
C278	C	1.323126	-0.053402	1.389812
C279	C	1.573126	0.196598	1.639812
C280	C	1.823126	0.446598	1.889812
C281	C	1.073133	-0.303396	1.069844
C282	C	1.323133	-0.053396	1.319844
C283	C	1.573133	0.196604	1.569844
C284	C	1.823133	0.446604	1.819844
H285	H	1.159305	-0.542990	0.230367
H286	H	1.409305	-0.292990	0.480367
H287	H	1.659305	-0.042990	0.730367
H288	H	1.909305	0.207010	0.980367
F289	F	0.974982	-0.534824	0.386365
F290	F	1.224982	-0.284824	0.636365
F291	F	1.474982	-0.034824	0.886365
F292	F	1.724982	0.215176	1.136365
F293	F	1.171162	-0.386509	0.671130
F294	F	1.421162	-0.136509	0.921130
F295	F	1.671162	0.113491	1.171130
F296	F	1.921162	0.363491	1.421130
H297	H	1.159312	-0.376445	0.543641
H298	H	1.409312	-0.126445	0.793641
H299	H	1.659312	0.123555	1.043641
H300	H	1.909312	0.373555	1.293641
H301	H	0.987041	-0.943880	0.376374
H302	H	1.237041	-0.693880	0.626374
H303	H	1.487041	-0.443880	0.876374
H304	H	1.737041	-0.193880	1.126374
H305	H	0.987098	-1.063150	0.376398
H306	H	1.237098	-0.813150	0.626398
H307	H	1.487098	-0.563150	0.876398
H308	H	1.737098	-0.313150	1.126398
F309	F	0.520369	-0.335599	0.182399
F310	F	0.770369	-0.085599	0.432399
F311	F	1.020369	0.164401	0.682399
F312	F	1.270369	0.414401	0.932399
F313	F	0.626391	-0.424297	0.270643
F314	F	0.876391	-0.174297	0.520643
F315	F	1.126391	0.075703	0.770643
F316	F	1.376391	0.325703	1.020643
F317	F	0.520745	-0.392166	0.391744
F318	F	0.770745	-0.142166	0.641744
F319	F	1.020745	0.107834	0.891744
F320	F	1.270745	0.357834	1.141744
H321	H	1.159487	-0.943829	0.230438
H322	H	1.409487	-0.693829	0.480438
H323	H	1.659487	-0.443829	0.730438
H324	H	1.909487	-0.193829	0.980438
H325	H	0.987015	-0.230348	1.063722
H326	H	1.237015	0.019652	1.313722
H327	H	1.487015	0.269652	1.563722
H328	H	1.737015	0.519652	1.813722
H329	H	1.159548	-1.063093	0.230469
H330	H	1.409548	-0.813093	0.480469
H331	H	1.659548	-0.563093	0.730469
H332	H	1.909548	-0.313093	0.980469
H333	H	0.987089	-0.230331	0.543620
H334	H	1.237089	0.019669	0.793620
H335	H	1.487089	0.269669	1.043620
H336	H	1.737089	0.519669	1.293620
F337	F	1.171116	-0.386517	1.071968
F338	F	1.421116	-0.136517	1.321968
F339	F	1.671116	0.113483	1.571968
F340	F	1.921116	0.363483	1.821968
H341	H	0.987075	-0.230333	0.662884
H342	H	1.237075	0.019667	0.912884
H343	H	1.487075	0.269667	1.162884
H344	H	1.737075	0.519667	1.412884
F345	F	0.975173	-0.220269	0.936236
F346	F	1.225173	0.029731	1.186236
F347	F	1.475173	0.279731	1.436236
F348	F	1.725173	0.529731	1.686236
H349	H	0.527163	-0.197461	0.331923
H350	H	0.777163	0.052539	0.581923
H351	H	1.027163	0.302539	0.831923
H352	H	1.277163	0.552539	1.081923
H353	H	1.159265	-0.376446	0.944481
H354	H	1.409265	-0.126446	1.194481
H355	H	1.659265	0.123554	1.444481
H356	H	1.909265	0.373554	1.694481
H357	H	0.620036	-0.275146	0.409379
H358	H	0.870036	-0.025146	0.659379
H359	H	1.120036	0.224854	0.909379
H360	H	1.370036	0.474854	1.159379
H361	H	1.159363	-0.662255	0.230392
H362	H	1.409363	-0.412255	0.480392
H363	H	1.659363	-0.162255	0.730392
H364	H	1.909363	0.087745	0.980392
F365	F	0.975041	-0.670533	0.386382
F366	F	1.225041	-0.420533	0.636382
F367	F	1.475041	-0.170533	0.886382
F368	F	1.725041	0.079467	1.136382
H369	H	0.619867	-0.225697	0.225862
H370	H	0.869867	0.024303	0.475862
H371	H	1.119867	0.274303	0.725862
H372	H	1.369867	0.524303	0.975862
