data_functionalizedCrystal
_audit_creation_method	'MofGen! by Chris Wilmer'
_symmetry_space_group_name_H-M	'P1'
_symmetry_Int_Tables_number	1
_symmetry_cell_setting	triclinic
loop_
_symmetry_equiv_pos_as_xyz
  x,y,z
_cell_length_a	12.759401
_cell_length_b	13.897448
_cell_length_c	12.759393
_cell_angle_alpha	90.033346
_cell_angle_beta	90.018496
_cell_angle_gamma	90.017853
loop_
_atom_site_label
_atom_site_type_symbol
_atom_site_fract_x
_atom_site_fract_y
_atom_site_fract_z
Zn1	Zn	1.606234	-0.383954	0.593968
Zn2	Zn	1.606119	-0.545283	0.418283
Zn3	Zn	1.430536	-0.384004	0.418308
Zn4	Zn	1.430515	-0.545209	0.593924
O5	O	1.518351	-0.464613	0.506121
O6	O	1.753239	-0.405365	0.570671
O7	O	1.582788	-0.523942	0.271265
O8	O	1.453899	-0.249016	0.441638
O9	O	1.753155	-0.523893	0.441596
O10	O	1.582983	-0.248979	0.570695
O11	O	1.453788	-0.405451	0.271283
O12	O	1.283512	-0.405379	0.441596
O13	O	1.453864	-0.523766	0.740951
O14	O	1.283497	-0.523815	0.570621
O15	O	1.582964	-0.405293	0.740984
O16	O	1.582768	-0.680255	0.441554
O17	O	1.453753	-0.680201	0.570597
C18	C	1.245383	-0.464595	0.506107
C19	C	1.128607	-0.464611	0.506125
C20	C	1.073764	-0.526379	0.573198
C21	C	0.964040	-0.526391	0.573209
C22	C	0.964011	-0.402864	0.439067
C23	C	1.073733	-0.402847	0.439062
C24	C	1.073780	-0.597700	0.650640
C25	C	0.964056	-0.597712	0.650652
C26	C	1.518274	-0.715227	0.506090
C27	C	1.518337	-0.822441	0.506113
C28	C	1.518448	-1.018736	0.506178
C29	C	1.518383	-0.909503	0.506145
C30	C	1.792384	-0.464631	0.506136
C31	C	1.909161	-0.464639	0.506142
C32	C	1.518424	-0.464515	0.780154
C33	C	1.518456	-0.464474	0.896931
C34	C	1.518456	-0.213020	0.506174
C35	C	1.518501	-0.105806	0.506197
C36	C	1.518338	-0.464640	0.233154
C37	C	1.518510	-0.464410	0.116377
C38	C	1.585687	-0.402779	0.951812
C39	C	1.585712	-0.402744	1.061536
C40	C	1.451271	-0.526107	1.061489
C41	C	1.451242	-0.526137	0.951767
C42	C	1.663309	-0.331559	0.951839
C43	C	1.663334	-0.331524	1.061564
H44	H	0.934257	-0.672400	0.628717
N45	N	1.116455	-0.686667	0.613887
N46	N	1.095854	-0.715548	0.523399
H47	H	1.125993	-0.778381	0.497438
H48	H	1.634224	-0.260546	1.095614
H49	H	1.396492	-0.576371	0.907087
H50	H	1.118381	-0.352543	0.384452
H51	H	0.919319	-0.352578	0.384467
H52	H	1.103590	-0.577777	0.732048
H53	H	1.641544	-0.256857	0.922086
N54	N	1.760256	-0.365118	0.909136
N55	N	1.813430	-0.311437	0.851282
H56	H	1.881901	-0.335136	0.821123
N57	N	1.382611	-0.589097	1.117489
N58	N	1.322582	-0.644173	1.068471
H59	H	1.274085	-0.688659	1.108018
N60	N	1.765415	-0.356610	1.098912
N61	N	1.837313	-0.374321	1.035246
H62	H	1.909407	-0.392034	1.061622
H63	H	0.930060	-0.571046	0.728004
