data_functionalizedCrystal
_audit_creation_method	'MofGen! by Chris Wilmer'
_symmetry_space_group_name_H-M	'P1'
_symmetry_Int_Tables_number	1
_symmetry_cell_setting	triclinic
loop_
_symmetry_equiv_pos_as_xyz
  x,y,z
_cell_length_a	21.395364
_cell_length_b	19.076808
_cell_length_c	21.395355
_cell_angle_alpha	87.682564
_cell_angle_beta	89.975448
_cell_angle_gamma	92.338361
loop_
_atom_site_label
_atom_site_type_symbol
_atom_site_fract_x
_atom_site_fract_y
_atom_site_fract_z
Zn1	Zn	0.947867	-0.280018	-0.344242
Zn2	Zn	0.943570	-0.397705	-0.235254
Zn3	Zn	0.843081	-0.280049	-0.239478
Zn4	Zn	0.838851	-0.397717	-0.339993
O5	O	0.893342	-0.338872	-0.289742
O6	O	1.034975	-0.295611	-0.329795
O7	O	0.930211	-0.382105	-0.148136
O8	O	0.860549	-0.181548	-0.256921
O9	O	1.031818	-0.382075	-0.249721
O10	O	0.937535	-0.181526	-0.333891
O11	O	0.856382	-0.295664	-0.151239
O12	O	0.754841	-0.295676	-0.252801
O13	O	0.853340	-0.382097	-0.428235
O14	O	0.751733	-0.382127	-0.326649
O15	O	0.933434	-0.295624	-0.431357
O16	O	0.926110	-0.496203	-0.245602
O17	O	0.849173	-0.496212	-0.322553
C18	C	0.730553	-0.338907	-0.289723
C19	C	0.660911	-0.338938	-0.289729
C20	C	0.629861	-0.293990	-0.331482
C21	C	0.564426	-0.293972	-0.331486
C22	C	0.530043	-0.338913	-0.289741
C23	C	0.561100	-0.383864	-0.247980
C24	C	0.626534	-0.383877	-0.247974
C25	C	0.424057	-0.402300	-0.282436
C26	C	0.358624	-0.402289	-0.282446
C27	C	0.328224	-0.338875	-0.289757
C28	C	0.363264	-0.275469	-0.297070
C29	C	0.428698	-0.275482	-0.297064
C30	C	0.459091	-0.338905	-0.289743
C31	C	0.226223	-0.293903	-0.331516
C32	C	0.160787	-0.293883	-0.331514
C33	C	0.157462	-0.383782	-0.248012
C34	C	0.222897	-0.383796	-0.248010
C35	C	0.257273	-0.338857	-0.289765
C36	C	0.886733	-0.521747	-0.283172
C37	C	0.883963	-0.599981	-0.280382
C38	C	0.922714	-0.636664	-0.319178
C39	C	0.920109	-0.710173	-0.316558
C40	C	0.878756	-0.746999	-0.275138
C41	C	0.840000	-0.710312	-0.236341
C42	C	0.842603	-0.636804	-0.238964
C43	C	0.866675	-0.966853	-0.262993
C44	C	0.864077	-1.040367	-0.260371
C45	C	0.944185	-1.040223	-0.340590
C46	C	0.946787	-0.966714	-0.343207
C47	C	0.908029	-0.930033	-0.304412
N48	N	0.876093	-0.822138	-0.272458
N49	N	0.910689	-0.854895	-0.307096
C50	C	1.056766	-0.338839	-0.289761
C51	C	1.126408	-0.338824	-0.289769
C52	C	0.893394	-0.338858	-0.453165
C53	C	0.893417	-0.338852	-0.522807
C54	C	0.899993	-0.155284	-0.296351
C55	C	0.902828	-0.077049	-0.299167
C56	C	0.935120	-0.293824	-0.557147
C57	C	0.935120	-0.293793	-0.622583
C58	C	0.893423	-0.338804	-0.653677
C59	C	0.851712	-0.383836	-0.619329
C60	C	0.851709	-0.383860	-0.553894
C61	C	0.886186	-0.402182	-0.755075
C62	C	0.886193	-0.402159	-0.820509
C63	C	0.893430	-0.338730	-0.855501
C64	C	0.900672	-0.275321	-0.825051
C65	C	0.900669	-0.275345	-0.759616
C66	C	0.893422	-0.338783	-0.724630
C67	C	0.935135	-0.293665	-0.960794
C68	C	0.935131	-0.293633	-1.026232
C69	C	0.851727	-0.383682	-1.022977
C70	C	0.851728	-0.383707	-0.957540
C71	C	0.893435	-0.338699	-0.926453
C72	C	0.893327	-0.338836	-0.126955
C73	C	0.893434	-0.338644	-0.057321
H74	H	0.254214	-0.257306	-0.365512
H75	H	0.817761	-0.420481	-0.644650
C76	C	0.962740	-0.750524	-0.359227
H77	H	0.955264	-0.799577	-0.351738
H78	H	1.005268	-0.738428	-0.350523
H79	H	0.953978	-0.738469	-0.401750
H80	H	0.835118	-0.936993	-0.231404
C81	C	0.992286	-0.926210	-0.388759
H82	H	1.014992	-0.958586	-0.411489
H83	H	1.020608	-0.897519	-0.365829
H84	H	0.969327	-0.897545	-0.417066
H85	H	0.657847	-0.257397	-0.365482
H86	H	0.539141	-0.257366	-0.365485
C87	C	0.660690	-0.433328	-0.202048
H88	H	0.630843	-0.460095	-0.177188
H89	H	0.687191	-0.406366	-0.175756
H90	H	0.685101	-0.464044	-0.224873
C91	C	0.986809	-1.080574	-0.383266
H92	H	0.979334	-1.129627	-0.375777
H93	H	1.029340	-1.068479	-0.374570
H94	H	0.978038	-1.068516	-0.425787
H95	H	0.880126	-0.453821	-0.726590
C96	C	0.805865	-0.433197	-1.057172
H97	H	0.811842	-0.426739	-1.101061
H98	H	0.764138	-0.422915	-1.046801
H99	H	0.813330	-0.480493	-1.044758
C100	C	0.805842	-0.433403	-0.516119
H101	H	0.781011	-0.460211	-0.544007
H102	H	0.779517	-0.406500	-0.491539
H103	H	0.828708	-0.464077	-0.489511
H104	H	0.457225	-0.223855	-0.303016
H105	H	0.338514	-0.223831	-0.303023
C106	C	0.805860	-0.433244	-0.919762
H107	H	0.811827	-0.426808	-0.876339
H108	H	0.813316	-0.480530	-0.928797
H109	H	0.764134	-0.422942	-0.930837
C110	C	0.523282	-0.433302	-0.202065
H111	H	0.479864	-0.426863	-0.208053
H112	H	0.534360	-0.422935	-0.160353
H113	H	0.532283	-0.480613	-0.209470
H114	H	0.806327	-0.740301	-0.202618
C115	C	0.878225	-0.471904	-0.853998
H116	H	0.873903	-0.509683	-0.823788
H117	H	0.913909	-0.478082	-0.879317
H118	H	0.841937	-0.470981	-0.879541
H119	H	0.135508	-0.257276	-0.365514
H120	H	0.129468	-0.420374	-0.214023
H121	H	0.956392	-0.606685	-0.352903
H122	H	0.248177	-0.420400	-0.214012
C123	C	0.818581	-1.080874	-0.214813
H124	H	0.795866	-1.048501	-0.192088
H125	H	0.841545	-1.109533	-0.186511
H126	H	0.790256	-1.109572	-0.237740
H127	H	0.330099	-0.453918	-0.276494
H128	H	0.448803	-0.453944	-0.276482
H129	H	0.811047	-0.606937	-0.207373
C130	C	0.981013	-0.244109	-1.064008
H131	H	0.975040	-0.250536	-1.107432
H132	H	1.022733	-0.254417	-1.052930
H133	H	0.973564	-0.196816	-1.054975
H134	H	0.969078	-0.257122	-0.650548
C135	C	0.980991	-0.244312	-0.522954
H136	H	1.005825	-0.217486	-0.552781
H137	H	1.007314	-0.271239	-0.496473
H138	H	0.958130	-0.213653	-0.498518
C139	C	0.908624	-0.205601	-0.726123
H140	H	0.912930	-0.167818	-0.756330
H141	H	0.944907	-0.206514	-0.700575
H142	H	0.872932	-0.199438	-0.700807
H143	H	0.906566	-0.223670	-0.853540
C144	C	0.981001	-0.244148	-0.926596
H145	H	1.005831	-0.217316	-0.956422
H146	H	1.007327	-0.271071	-0.900116
H147	H	0.958134	-0.213495	-0.902159
