data_functionalizedCrystal
_audit_creation_method	'MofGen! by Chris Wilmer'
_symmetry_space_group_name_H-M	'P1'
_symmetry_Int_Tables_number	1
_symmetry_cell_setting	triclinic
loop_
_symmetry_equiv_pos_as_xyz
  x,y,z
_cell_length_a	17.699083
_cell_length_b	10.540539
_cell_length_c	16.176319
_cell_angle_alpha	89.995366
_cell_angle_beta	89.998611
_cell_angle_gamma	83.904253
loop_
_atom_site_label
_atom_site_type_symbol
_atom_site_fract_x
_atom_site_fract_y
_atom_site_fract_z
O1	O	1.005122	0.160521	-0.068627
O2	O	1.505122	0.660521	0.431373
O3	O	0.784880	0.181405	-0.068653
O4	O	1.284880	0.681405	0.431347
O5	O	0.900026	-0.013836	-0.068638
O6	O	1.400026	0.486164	0.431362
O7	O	0.889976	0.355761	-0.068642
O8	O	1.389976	0.855761	0.431358
O9	O	0.900010	-0.013848	0.068855
O10	O	1.400010	0.486152	0.568855
O11	O	0.784864	0.181392	0.068840
O12	O	1.284864	0.681392	0.568840
O13	O	1.005106	0.160508	0.068866
O14	O	1.505106	0.660508	0.568866
Cu15	Cu	0.894984	0.170949	0.081407
Cu16	Cu	1.394984	0.670949	0.581407
Cu17	Cu	0.895003	0.170964	-0.081194
Cu18	Cu	1.395003	0.670964	0.418806
O19	O	0.889960	0.355749	0.068852
O20	O	1.389960	0.855749	0.568852
C21	C	0.756670	0.180650	0.000090
C22	C	1.256670	0.680650	0.500090
C23	C	0.672637	0.178405	0.000080
C24	C	1.172637	0.678405	0.500080
C25	C	0.899264	-0.061131	0.000107
C26	C	1.399264	0.438869	0.500107
C27	C	0.897009	-0.202038	0.000102
C28	C	1.397009	0.297962	0.500102
C29	C	0.624761	0.293007	0.000079
C30	C	1.124761	0.793007	0.500079
C31	C	0.545804	0.290890	0.000090
C32	C	1.045804	0.790890	0.500090
C33	C	0.514725	0.174170	0.000095
C34	C	1.014725	0.674170	0.500095
C35	C	0.562607	0.059559	0.000098
C36	C	1.062607	0.559559	0.500098
C37	C	0.641562	0.061677	0.000094
C38	C	1.141562	0.561677	0.500094
C39	C	0.244188	0.051014	0.000119
C40	C	0.744188	0.551014	0.500119
C41	C	0.165226	0.048904	0.000121
C42	C	0.665226	0.548904	0.500121
C43	C	0.148430	0.280227	0.000115
C44	C	0.648430	0.780227	0.500115
C45	C	0.227386	0.282345	0.000110
C46	C	0.727386	0.782345	0.500110
C47	C	0.275261	0.167735	0.000118
C48	C	0.775261	0.667735	0.500118
C49	C	0.360875	0.170032	0.000108
C50	C	0.860875	0.670032	0.500108
C51	C	0.429112	0.171872	0.000099
C52	C	0.929112	0.671872	0.500099
C53	C	0.810610	-0.383885	-0.000217
C54	C	1.310610	0.116115	0.499783
C55	C	0.812896	-0.237308	0.000093
C56	C	1.312896	0.262692	0.500093
C57	C	0.937479	-0.264443	0.078622
C58	C	1.437479	0.235557	0.578622
C59	C	0.934609	-0.410935	0.078688
C60	C	1.434609	0.089065	0.578688
C61	C	0.936338	-0.411471	-0.077667
C62	C	1.436338	0.088529	0.422333
C63	C	0.937113	-0.264503	-0.078705
C64	C	1.437113	0.235497	0.421295
C65	C	1.033316	0.161263	0.000122
C66	C	1.533316	0.661263	0.500122
C67	C	1.117349	0.163508	0.000126
C68	C	1.617349	0.663508	0.500126
C69	C	0.890722	0.403044	0.000105
C70	C	1.390722	0.903044	0.500105
C71	C	0.892977	0.543951	0.000104
C72	C	1.392977	1.043951	0.500104
N73	N	0.894976	0.170938	0.195773
N74	N	1.394976	0.670938	0.695773
N75	N	0.895016	0.170965	-0.195559
N76	N	1.395016	0.670965	0.304441
C77	C	0.945978	0.084521	0.239043
C78	C	1.445978	0.584521	0.739043
C79	C	0.945982	0.084519	0.325591
C80	C	1.445982	0.584519	0.825591
C81	C	0.894987	0.170942	0.368865
C82	C	1.394987	0.670942	0.868865
C83	C	0.843979	0.257364	0.325588
C84	C	1.343979	0.757364	0.825588
C85	C	0.843972	0.257358	0.239043
C86	C	1.343972	0.757358	0.739043
C87	C	0.844005	0.257387	0.674617
C88	C	1.344005	0.757387	1.174617
C89	C	0.844017	0.257389	0.761168
C90	C	1.344017	0.757389	1.261168
C91	C	0.946015	0.084549	0.761164
C92	C	1.446015	0.584549	1.261164
C93	C	0.946008	0.084543	0.674619
C94	C	1.446008	0.584543	1.174619
C95	C	0.894998	0.170959	0.631349
C96	C	1.394998	0.670959	1.131349
C97	C	0.894993	0.170958	0.537505
C98	C	1.394993	0.670958	1.037505
C99	C	0.894994	0.170951	0.462708
C100	C	1.394994	0.670951	0.962708
H101	H	0.650060	0.388054	0.000074
H102	H	1.150060	0.888054	0.500074
H103	H	0.802440	0.327726	0.203813
H104	H	1.302440	0.827726	0.703813
H105	H	0.283159	-0.042309	0.000126
H106	H	0.783159	0.457691	0.500126
H107	H	0.802453	0.327727	0.360828
H108	H	1.302453	0.827727	0.860828
H109	H	0.904686	-0.438593	0.137376
H110	H	1.404686	0.061407	0.637376
C111	C	0.694226	-0.064394	0.000092
C112	C	1.194226	0.435606	0.500092
N113	N	0.733891	-0.159355	0.000093
N114	N	1.233891	0.340645	0.500093
C115	C	0.899479	-0.206217	0.157554
C116	C	1.399479	0.293783	0.657554
N117	N	0.870852	-0.162363	0.217003
N118	N	1.370852	0.337637	0.717003
C119	C	0.493144	0.416962	0.000103
C120	C	0.993144	0.916962	0.500103
N121	N	0.453480	0.511925	0.000120
N122	N	0.953480	1.011925	0.500120
H123	H	0.139925	-0.046149	0.000127
H124	H	0.639925	0.453851	0.500127
H125	H	0.998438	-0.241403	-0.083439
H126	H	1.498438	0.258597	0.416561
C127	C	0.095760	0.406301	0.000117
C128	C	0.595760	0.906301	0.500117
N129	N	0.056091	0.501258	0.000119
N130	N	0.556091	1.001258	0.500119
H131	H	0.987548	0.014180	0.796403
H132	H	1.487548	0.514180	1.296403
H133	H	0.537295	-0.035477	0.000115
H134	H	1.037295	0.464523	0.500115
H135	H	0.252686	0.377390	0.000102
H136	H	0.752686	0.877390	0.500102
C137	C	0.897147	-0.208494	-0.157182
C138	C	1.397147	0.291506	0.342818
N139	N	0.867038	-0.166311	-0.216289
N140	N	1.367038	0.333689	0.283711
C141	C	0.769559	-0.180107	0.076252
C142	C	1.269559	0.319893	0.576252
N143	N	0.736916	-0.137024	0.133620
N144	N	1.236916	0.362976	0.633620
C145	C	1.002078	-0.010554	0.191449
C146	C	1.502078	0.489446	0.691449
N147	N	1.044331	-0.082171	0.155604
N148	N	1.544331	0.417829	0.655604
H149	H	0.781052	-0.194117	-0.056194
H150	H	1.281052	0.305883	0.443806
H151	H	0.987536	0.014174	0.639387
H152	H	1.487536	0.514174	1.139387
C153	C	0.765725	-0.421707	-0.076282
C154	C	1.265725	0.078293	0.423718
N155	N	0.731915	-0.450208	-0.133574
N156	N	1.231915	0.049792	0.366426
H157	H	0.997092	-0.459808	-0.078188
H158	H	1.497092	0.040192	0.421812
C159	C	0.899567	-0.453411	-0.158067
C160	C	1.399567	0.046589	0.341933
N161	N	0.871862	-0.484997	-0.218620
N162	N	1.371862	0.015003	0.281380
C163	C	0.765904	-0.423842	0.075434
C164	C	1.265904	0.076158	0.575434
N165	N	0.732236	-0.453928	0.132421
N166	N	1.232236	0.046072	0.632421
C167	C	1.020924	-0.235746	0.082590
C168	C	1.520924	0.264254	0.582590
N169	N	1.083772	-0.214120	0.085580
N170	N	1.583772	0.285880	0.585580
C171	C	1.016330	-0.477237	0.083523
C172	C	1.516330	0.022763	0.583523
N173	N	1.077881	-0.527169	0.087170
N174	N	1.577881	-0.027169	0.587170
C175	C	1.002070	-0.010577	0.373184
C176	C	1.502070	0.489423	0.873184
N177	N	1.044312	-0.082220	0.409032
N178	N	1.544312	0.417780	0.909032
H179	H	0.802488	0.327767	0.796401
H180	H	1.302488	0.827767	1.296401
C181	C	0.787991	0.352612	0.627032
C182	C	1.287991	0.852612	1.127032
N183	N	0.745834	0.424399	0.591188
N184	N	1.245834	0.924399	1.091188
