data_functionalizedCrystal
_audit_creation_method	'MofGen! by Chris Wilmer'
_symmetry_space_group_name_H-M	'P1'
_symmetry_Int_Tables_number	1
_symmetry_cell_setting	triclinic
loop_
_symmetry_equiv_pos_as_xyz
  x,y,z
_cell_length_a	19.288862
_cell_length_b	15.186229
_cell_length_c	19.288865
_cell_angle_alpha	89.991032
_cell_angle_beta	83.135763
_cell_angle_gamma	89.979995
loop_
_atom_site_label
_atom_site_type_symbol
_atom_site_fract_x
_atom_site_fract_y
_atom_site_fract_z
O1	O	-0.921348	0.073578	-0.086639
O2	O	-0.719087	0.073507	-0.098329
O3	O	-0.826062	0.073527	0.008646
O4	O	-0.814373	0.073558	-0.193615
O5	O	-0.826055	-0.072930	0.008648
O6	O	-0.719080	-0.072950	-0.098328
O7	O	-0.921341	-0.072879	-0.086637
Zn8	Zn	-0.820210	-0.096168	-0.092482
Zn9	Zn	-0.820219	0.096796	-0.092484
O10	O	-0.814366	-0.072899	-0.193613
C11	C	-0.693207	0.000269	-0.097953
C12	C	-0.616104	0.000241	-0.096824
N13	N	-0.820208	-0.227861	-0.092481
C14	C	-0.571407	0.000262	-0.159593
C15	C	-0.498960	0.000267	-0.158533
C16	C	-0.471213	0.000269	-0.094701
C17	C	-0.515919	0.000243	-0.031924
C18	C	-0.588364	0.000229	-0.032986
C19	C	-0.362953	0.051594	-0.044523
C20	C	-0.290508	0.051613	-0.043464
C21	C	-0.247767	0.000307	-0.091423
C22	C	-0.277477	-0.051006	-0.140453
C23	C	-0.349923	-0.051020	-0.141515
C24	C	-0.392659	0.000283	-0.093542
C25	C	-0.124514	0.000333	-0.153046
C26	C	-0.052066	0.000332	-0.151983
C27	C	-0.069026	0.000317	-0.025373
C28	C	-0.141473	0.000309	-0.026438
C29	C	-0.169212	0.000321	-0.090276
C30	C	-0.867593	-0.453574	-0.045128
C31	C	-0.867595	-0.545764	-0.045126
C32	C	-0.772836	-0.545791	-0.139836
C33	C	-0.772831	-0.453603	-0.139834
C34	C	-0.820213	-0.407497	-0.092480
C35	C	-0.820221	-0.591875	-0.092481
C36	C	-0.820223	-0.691831	-0.092480
C37	C	-0.820211	-0.307535	-0.092481
C38	C	0.052779	0.000345	-0.087016
C39	C	-0.024324	0.000333	-0.088151
C40	C	-0.825683	0.000296	0.034523
C41	C	-0.824554	0.000288	0.111627
N42	N	-0.820226	0.228488	-0.092481
C43	C	-0.814746	0.000334	-0.219490
C44	C	-0.815875	0.000348	-0.296594
C45	C	-0.887322	0.000306	0.156324
C46	C	-0.886261	0.000319	0.228771
C47	C	-0.822429	0.000297	0.256518
C48	C	-0.759652	0.000284	0.211811
C49	C	-0.760715	0.000279	0.139366
C50	C	-0.772247	-0.051021	0.364805
C51	C	-0.771187	-0.051022	0.437250
C52	C	-0.819149	0.000316	0.479963
C53	C	-0.868183	0.051643	0.450225
C54	C	-0.869245	0.051638	0.377780
C55	C	-0.821269	0.000303	0.335072
C56	C	-0.880771	0.000349	0.603216
C57	C	-0.879708	0.000368	0.675664
C58	C	-0.753098	0.000325	0.658703
C59	C	-0.754163	0.000315	0.586257
C60	C	-0.818001	0.000323	0.558518
H61	H	-0.593988	0.000273	-0.211575
N62	N	-0.409048	0.106939	0.007207
H63	H	-0.459450	0.099143	-0.000903
H64	H	-0.402919	0.087753	0.056240
N65	N	-0.690804	0.000265	0.241733
H66	H	-0.699655	0.000268	0.294410
H67	H	-0.663342	-0.054037	0.225374
N68	N	-0.919920	0.107015	0.496286
H69	H	-0.951143	0.139525	0.466455
H70	H	-0.949257	0.067665	0.530339
H71	H	-0.242678	-0.092785	-0.179506
N72	N	-0.721744	-0.595523	-0.190916
H73	H	-0.691728	-0.552342	-0.220913
H74	H	-0.691124	-0.633799	-0.164407
N75	N	-0.721730	-0.403901	-0.190915
H76	H	-0.728917	-0.338505	-0.183725
H77	H	-0.672484	-0.420042	-0.183019
N78	N	-0.003854	0.000284	-0.219687
H79	H	-0.032423	0.000271	-0.260286
H80	H	0.026580	0.054561	-0.222035
H81	H	-0.930823	0.000388	0.712056
H82	H	-0.939304	0.000315	0.133744
H83	H	-0.733188	-0.092832	0.330033
N84	N	-0.718298	-0.106372	0.469319
H85	H	-0.724903	-0.098584	0.521694
H86	H	-0.724966	-0.170373	0.457534
H87	H	-0.932752	0.000360	0.580630
N88	N	-0.686461	0.000275	0.538045
H89	H	-0.696820	0.000274	0.487941
H90	H	-0.658632	0.054559	0.546994
N91	N	-0.039105	0.000311	0.043473
H92	H	-0.009445	0.054606	0.046737
H93	H	-0.078454	0.000265	0.083038
N94	N	-0.684248	0.000311	0.688619
H95	H	-0.693098	0.000320	0.741296
H96	H	-0.656786	-0.053992	0.672263
H97	H	-0.937376	0.000337	0.265170
N98	N	-0.922122	0.106999	0.345702
H99	H	-0.952392	0.067702	0.319648
H100	H	-0.952300	0.139516	0.383787
N101	N	-0.693016	0.000254	0.091146
H102	H	-0.665157	0.054537	0.100033
H103	H	-0.665208	-0.054082	0.100078
N104	N	-0.450740	0.000291	-0.226235
H105	H	-0.479306	0.000296	-0.266836
H106	H	-0.420337	0.054593	-0.228544
H107	H	-0.374110	-0.092805	-0.181435
H108	H	-0.147101	0.000329	-0.205027
H109	H	-0.266324	0.093400	-0.003543
N110	N	-0.189687	0.000286	0.041263
H111	H	-0.161118	0.000287	0.081862
H112	H	-0.220138	0.054572	0.043581
N113	N	-0.918694	-0.403844	0.005944
H114	H	-0.948708	-0.447026	0.035943
H115	H	-0.892198	-0.365615	0.036584
H116	H	-0.624757	0.000212	0.018129
N117	N	-0.485996	0.000234	0.036924
H118	H	-0.433320	0.000247	0.028073
H119	H	-0.502384	0.054518	0.064386
H120	H	-0.906175	-0.583278	-0.006567
