data_functionalizedCrystal
_audit_creation_method	'MofGen! by Chris Wilmer'
_symmetry_space_group_name_H-M	'P1'
_symmetry_Int_Tables_number	1
_symmetry_cell_setting	triclinic
loop_
_symmetry_equiv_pos_as_xyz
  x,y,z
_cell_length_a	9.065218
_cell_length_b	9.798715
_cell_length_c	9.065218
_cell_angle_alpha	89.998697
_cell_angle_beta	94.984115
_cell_angle_gamma	90.003772
loop_
_atom_site_label
_atom_site_type_symbol
_atom_site_fract_x
_atom_site_fract_y
_atom_site_fract_z
O1	O	1.960400	0.113488	-0.216354
O2	O	2.293733	0.446822	0.116980
O3	O	2.627067	0.780155	0.450313
O4	O	1.531115	0.113490	-0.234100
O5	O	1.864449	0.446823	0.099233
O6	O	2.197782	0.780157	0.432567
O7	O	1.754631	0.113486	-0.010584
O8	O	2.087964	0.446820	0.322749
O9	O	2.421298	0.780153	0.656082
O10	O	1.736884	0.113492	-0.439869
O11	O	2.070218	0.446825	-0.106536
O12	O	2.403551	0.780159	0.226797
O13	O	1.754614	-0.113496	-0.010584
O14	O	2.087947	0.219837	0.322750
O15	O	2.421281	0.553171	0.656083
O16	O	1.531098	-0.113492	-0.234099
O17	O	1.864432	0.219841	0.099234
O18	O	2.197765	0.553174	0.432567
O19	O	1.960383	-0.113494	-0.216353
O20	O	2.293717	0.219840	0.116980
O21	O	2.627050	0.553173	0.450314
Zn22	Zn	1.745738	-0.149531	-0.225226
Zn23	Zn	2.079072	0.183802	0.108107
Zn24	Zn	2.412405	0.517135	0.441441
Zn25	Zn	1.745760	0.149527	-0.225227
Zn26	Zn	2.079094	0.482861	0.108106
Zn27	Zn	2.412427	0.816194	0.441440
O28	O	1.736868	-0.113490	-0.439869
O29	O	2.070201	0.219843	-0.106535
O30	O	2.403534	0.553176	0.226798
C31	C	1.476120	-0.000001	-0.232394
C32	C	1.809454	0.333332	0.100939
C33	C	2.142787	0.666666	0.434273
C34	C	1.312277	-0.000000	-0.227294
C35	C	1.645611	0.333333	0.106039
C36	C	1.978944	0.666666	0.439372
N37	N	1.745734	-0.353631	-0.225225
N38	N	2.079067	-0.020298	0.108109
N39	N	2.412400	0.313036	0.441442
C40	C	1.839580	-0.421409	-0.130961
C41	C	2.172913	-0.088076	0.202372
C42	C	2.506247	0.245257	0.535706
C43	C	1.839604	-0.578572	-0.130956
C44	C	2.172937	-0.245239	0.202377
C45	C	2.506270	0.088095	0.535711
C46	C	2.015378	0.000000	-0.218059
C47	C	2.348712	0.333333	0.115275
C48	C	2.682045	0.666667	0.448608
C49	C	2.179221	0.000008	-0.223158
C50	C	2.512555	0.333342	0.110175
C51	C	2.845888	0.666675	0.443508
C52	C	1.752917	-0.000003	0.044403
C53	C	2.086250	0.333331	0.377736
C54	C	2.419584	0.666664	0.711069
C55	C	1.747817	0.000004	0.208245
C56	C	2.081151	0.333337	0.541579
C57	C	2.414484	0.666671	0.874912
N58	N	1.745776	0.353627	-0.225217
N59	N	2.079110	0.686960	0.108117
N60	N	2.412443	1.020294	0.441450
C61	C	1.738582	0.000002	-0.494855
C62	C	2.071915	0.333335	-0.161522
C63	C	2.405248	0.666668	0.171811
C64	C	1.743681	0.000004	-0.658698
C65	C	2.077015	0.333337	-0.325365
C66	C	2.410348	0.666671	0.007968
H67	H	1.919903	-0.363088	-0.050255
H68	H	2.253237	-0.029755	0.283078
H69	H	2.586570	0.303579	0.616411
H70	H	1.919955	-0.636859	-0.050258
H71	H	2.253288	-0.303525	0.283075
H72	H	2.586621	0.029808	0.616408
H73	H	1.665432	-0.588095	-0.305929
H74	H	1.998765	-0.254762	0.027404
H75	H	2.332099	0.078571	0.360737
H76	H	1.665400	-0.411954	-0.305918
H77	H	1.998734	-0.078621	0.027415
H78	H	2.332067	0.254712	0.360748
