data_functionalizedCrystal
_audit_creation_method	'MofGen! by Chris Wilmer'
_symmetry_space_group_name_H-M	'P1'
_symmetry_Int_Tables_number	1
_symmetry_cell_setting	triclinic
loop_
_symmetry_equiv_pos_as_xyz
  x,y,z
_cell_length_a	14.971486
_cell_length_b	14.971486
_cell_length_c	13.448316
_cell_angle_alpha	90.006811
_cell_angle_beta	90.001801
_cell_angle_gamma	83.614129
loop_
_atom_site_label
_atom_site_type_symbol
_atom_site_fract_x
_atom_site_fract_y
_atom_site_fract_z
O1	O	-1.186947	-0.116565	-0.082578
O2	O	-0.686947	0.383435	0.417422
O3	O	-0.926547	-0.130524	-0.082605
O4	O	-0.426547	0.369476	0.417395
O5	O	-1.063727	0.006656	-0.082584
O6	O	-0.563727	0.506656	0.417416
O7	O	-1.049768	-0.253744	-0.082599
O8	O	-0.549768	0.246256	0.417401
O9	O	-1.063709	0.006664	0.082800
O10	O	-0.563709	0.506664	0.582800
O11	O	-0.926530	-0.130515	0.082779
O12	O	-0.426530	0.369485	0.582779
O13	O	-1.186930	-0.116556	0.082806
O14	O	-0.686930	0.383444	0.582806
Cu15	Cu	-1.056728	-0.123535	0.097893
Cu16	Cu	-0.556728	0.376465	0.597893
Cu17	Cu	-1.056749	-0.123545	-0.097692
Cu18	Cu	-0.556749	0.376455	0.402308
O19	O	-1.049751	-0.253736	0.082784
O20	O	-0.549751	0.246264	0.582784
C21	C	-0.893214	-0.129895	0.000083
C22	C	-0.393214	0.370105	0.500083
C23	C	-0.793917	-0.128024	0.000073
C24	C	-0.293917	0.371976	0.500073
C25	C	-1.063094	0.039985	0.000108
C26	C	-0.563094	0.539985	0.500108
C27	C	-1.061223	0.139282	0.000107
C28	C	-0.561223	0.639282	0.500107
C29	C	-1.220263	-0.117185	0.000115
C30	C	-0.720263	0.382815	0.500115
C31	C	-1.319561	-0.119056	0.000119
C32	C	-0.819561	0.380944	0.500119
C33	C	-0.736692	-0.208614	0.000070
C34	C	-0.236692	0.291386	0.500070
C35	C	-0.643392	-0.206850	0.000085
C36	C	-0.143392	0.293150	0.500085
C37	C	-0.607320	-0.124497	0.000096
C38	C	-0.107320	0.375503	0.500096
C39	C	-0.664552	-0.043902	0.000102
C40	C	-0.164552	0.456098	0.500102
C41	C	-0.757850	-0.045666	0.000095
C42	C	-0.257850	0.454334	0.500095
C43	C	-0.470090	-0.040231	0.000116
C44	C	0.029910	0.459769	0.500116
C45	C	-0.376786	-0.038466	0.000122
C46	C	0.123214	0.461534	0.500122
C47	C	-0.355632	-0.201415	0.000106
C48	C	0.144368	0.298585	0.500106
C49	C	-0.448930	-0.203179	0.000099
C50	C	0.051070	0.296821	0.500099
C51	C	-0.506156	-0.122584	0.000103
C52	C	-0.006156	0.377416	0.500103
C53	C	-1.050384	-0.287065	0.000091
C54	C	-0.550384	0.212935	0.500091
C55	C	-1.052254	-0.386362	0.000085
C56	C	-0.552254	0.113638	0.500085
N57	N	-1.056721	-0.123527	0.235457
N58	N	-0.556721	0.376473	0.735457
C59	C	-1.141812	0.196507	0.000116
C60	C	-0.641812	0.696507	0.500116
C61	C	-1.140049	0.289807	0.000106
C62	C	-0.640049	0.789807	0.500106
C63	C	-1.057696	0.325879	0.000093
C64	C	-0.557696	0.825879	0.500093
C65	C	-0.977101	0.268646	0.000081
C66	C	-0.477101	0.768646	0.500081
C67	C	-0.978865	0.175349	0.000084
C68	C	-0.478865	0.675349	0.500084
C69	C	-0.973430	0.463109	0.000077
C70	C	-0.473430	0.963109	0.500077
C71	C	-0.971665	0.556413	0.000076
C72	C	-0.471665	1.056413	0.500076
C73	C	-1.134614	0.577567	0.000099
C74	C	-0.634614	1.077567	0.500099
C75	C	-1.136378	0.484269	0.000102
C76	C	-0.636378	0.984269	0.500102
C77	C	-1.055782	0.427043	0.000091
C78	C	-0.555782	0.927043	0.500091
N79	N	-1.056764	-0.123545	-0.235257
N80	N	-0.556764	0.376455	0.264743
C81	C	-1.117483	-0.062809	0.287507
C82	C	-0.617483	0.437191	0.787507
C83	C	-1.117488	-0.062809	0.391610
C84	C	-0.617488	0.437191	0.891610
C85	C	-1.056735	-0.123531	0.443662
C86	C	-0.556735	0.376469	0.943662
C87	C	-0.995967	-0.184252	0.391605
C88	C	-0.495967	0.315748	0.891605
C89	C	-0.995958	-0.184248	0.287504
C90	C	-0.495958	0.315752	0.787504
C91	C	-0.995992	-0.184258	0.608585
C92	C	-0.495992	0.315742	1.108585
C93	C	-0.996002	-0.184264	0.712693
C94	C	-0.496002	0.315736	1.212693
C95	C	-1.117522	-0.062819	0.712692
C96	C	-0.617522	0.437181	1.212692
C97	C	-1.117513	-0.062815	0.608591
C98	C	-0.617513	0.437185	1.108591
C99	C	-1.056745	-0.123537	0.556541
C100	C	-0.556745	0.376463	1.056541
H101	H	-0.766054	-0.275675	0.000060
H102	H	-0.266054	0.224325	0.500060
Br103	Br	-0.913486	-0.266649	0.216864
Br104	Br	-0.413486	0.233351	0.716864
Br105	Br	-0.869489	0.097684	0.000064
Br106	Br	-0.369489	0.597684	0.500064
H107	H	-0.910047	0.298024	0.000065
H108	H	-0.410047	0.798024	0.500065
H109	H	-1.166964	-0.013367	0.433989
H110	H	-0.666964	0.486633	0.933989
Br111	Br	-0.864048	0.385445	0.000060
Br112	Br	-0.364048	0.885445	0.500060
Br113	Br	-1.199970	0.019586	0.537946
Br114	Br	-0.699970	0.519586	1.037946
H115	H	-1.205673	0.336396	0.000115
H116	H	-0.705673	0.836396	0.500115
Br117	Br	-1.248144	0.435314	0.000116
Br118	Br	-0.748144	0.935314	0.500116
H119	H	-0.309033	-0.267039	0.000107
H120	H	0.190967	0.232961	0.500107
H121	H	-1.166958	-0.013366	0.245134
H122	H	-0.666958	0.486634	0.745134
H123	H	-0.347419	0.028593	0.000133
H124	H	0.152581	0.528593	0.500133
H125	H	-1.208874	0.167145	0.000132
H126	H	-0.708874	0.667145	0.500132
Br127	Br	-0.565731	-0.316227	0.000077
Br128	Br	-0.065731	0.183773	0.500077
Br129	Br	-0.497885	-0.314946	0.000068
Br130	Br	0.002115	0.185054	0.500068
Br131	Br	-1.199995	0.019585	0.783334
Br132	Br	-0.699995	0.519585	1.283334
Br133	Br	-0.913548	-0.266676	0.783327
Br134	Br	-0.413548	0.233324	1.283327
Br135	Br	-0.913516	-0.266664	0.537949
Br136	Br	-0.413516	0.233336	1.037949
Br137	Br	-1.243995	0.655229	0.000111
Br138	Br	-0.743995	1.155229	0.500111
Br139	Br	-0.913508	-0.266657	0.462242
Br140	Br	-0.413508	0.233343	0.962242
H141	H	-0.635175	0.023152	0.000126
H142	H	-0.135175	0.523152	0.500126
Br143	Br	-0.547754	0.069150	0.000127
Br144	Br	-0.047754	0.569150	0.500127
H145	H	-0.804443	0.019958	0.000097
H146	H	-0.304443	0.519958	0.500097
H147	H	-0.904606	0.585780	0.000082
H148	H	-0.404606	1.085780	0.500082
