data_functionalizedCrystal
_audit_creation_method	'MofGen! by Chris Wilmer'
_symmetry_space_group_name_H-M	'P1'
_symmetry_Int_Tables_number	1
_symmetry_cell_setting	triclinic
loop_
_symmetry_equiv_pos_as_xyz
  x,y,z
_cell_length_a	16.974829
_cell_length_b	9.065218
_cell_length_c	7.540329
_cell_angle_alpha	90.001757
_cell_angle_beta	86.341727
_cell_angle_gamma	95.794520
loop_
_atom_site_label
_atom_site_type_symbol
_atom_site_fract_x
_atom_site_fract_y
_atom_site_fract_z
O1	O	1.050489	-0.188080	-0.298245
O2	O	0.820455	-0.212018	-0.265232
O3	O	0.940227	0.014722	-0.282417
O4	O	0.930717	-0.414819	-0.281060
O5	O	0.940220	0.014724	0.012549
O6	O	0.820448	-0.212015	0.029734
O7	O	1.050482	-0.188077	-0.003279
Cu8	Cu	0.935464	-0.200046	0.040160
Cu9	Cu	0.935473	-0.200049	-0.308671
O10	O	0.930710	-0.414817	0.013906
C11	C	0.790986	-0.211104	-0.113521
C12	C	0.703190	-0.208368	-0.100921
C13	C	0.208988	-0.193012	-0.012739
C14	C	0.291481	-0.195583	-0.024581
C15	C	0.332733	-0.196859	-0.191291
C16	C	0.291486	-0.195579	-0.346169
C17	C	0.208993	-0.193018	-0.334325
C18	C	0.579450	-0.204527	-0.243955
C19	C	0.661949	-0.207083	-0.255787
C20	C	0.661939	-0.207090	0.065802
C21	C	0.579445	-0.204520	0.077631
C22	C	0.538204	-0.203248	-0.077246
N23	N	0.417055	-0.199483	-0.203400
N24	N	0.453883	-0.200635	-0.065136
C25	C	0.939309	0.069685	-0.134806
C26	C	0.936577	0.233454	-0.134422
C27	C	1.079950	-0.188991	-0.154994
C28	C	1.167747	-0.191728	-0.167605
N29	N	0.935464	-0.200043	0.285509
C30	C	0.931628	-0.469780	-0.133709
C31	C	0.934360	-0.633549	-0.134104
N32	N	0.935479	-0.200041	-0.554021
H33	H	0.325079	-0.196627	-0.481908
H34	H	0.175406	-0.191980	0.123015
H35	H	0.545882	-0.203485	-0.370068
H36	H	0.695533	-0.208134	-0.391549
H37	H	0.325057	-0.196626	0.101528
H38	H	0.545865	-0.203449	0.213384
H39	H	0.175415	-0.191976	-0.460434
H40	H	0.695526	-0.208129	0.191894
