data_functionalizedCrystal
_audit_creation_method	'MofGen! by Chris Wilmer'
_symmetry_space_group_name_H-M	'P1'
_symmetry_Int_Tables_number	1
_symmetry_cell_setting	triclinic
loop_
_symmetry_equiv_pos_as_xyz
  x,y,z
_cell_length_a	21.295419
_cell_length_b	13.032318
_cell_length_c	13.032268
_cell_angle_alpha	90.931219
_cell_angle_beta	97.160450
_cell_angle_gamma	82.779696
loop_
_atom_site_label
_atom_site_type_symbol
_atom_site_fract_x
_atom_site_fract_y
_atom_site_fract_z
Zn1	Zn	0.884863	0.482956	-0.529496
Zn2	Zn	1.384863	0.982956	-0.029496
Zn3	Zn	0.888127	0.633143	-0.335673
Zn4	Zn	1.388127	1.133143	0.164327
Zn5	Zn	0.794422	0.461199	-0.357535
Zn6	Zn	1.294422	0.961199	0.142465
Zn7	Zn	0.768080	0.654957	-0.507588
Zn8	Zn	1.268080	1.154957	-0.007588
O9	O	0.833873	0.558064	-0.432573
O10	O	1.333873	1.058064	0.067427
O11	O	0.973386	0.502854	-0.503804
O12	O	1.473386	1.002854	-0.003804
O13	O	0.888087	0.592099	-0.194660
O14	O	1.388087	1.092099	0.305340
O15	O	0.816078	0.320143	-0.398664
O16	O	1.316078	0.820143	0.101336
O17	O	0.975784	0.613196	-0.361403
O18	O	1.475784	1.113196	0.138597
O19	O	0.882524	0.336127	-0.525003
O20	O	1.382524	0.836127	-0.025003
O21	O	0.819243	0.465773	-0.210722
O22	O	1.319243	0.965773	0.289278
O23	O	0.702838	0.486925	-0.377421
O24	O	1.202838	0.986925	0.122579
O25	O	0.771182	0.650376	-0.654407
O26	O	1.271182	1.150376	-0.154407
O27	O	0.683485	0.629279	-0.487664
O28	O	1.183485	1.129279	0.012336
O29	O	0.856981	0.524007	-0.670503
O30	O	1.356981	1.024007	-0.170503
O31	O	0.862545	0.779979	-0.340160
O32	O	1.362545	1.279979	0.159840
O33	O	0.774347	0.796006	-0.466465
O34	O	1.274347	1.296006	0.033535
C35	C	0.670321	0.558109	-0.432538
C36	C	1.170321	1.058109	0.067462
C37	C	0.600349	0.558157	-0.432544
C38	C	1.100349	1.058157	0.067456
C39	C	0.566240	0.500822	-0.506780
C40	C	1.066240	1.000822	-0.006780
C41	C	0.500499	0.500795	-0.506788
C42	C	1.000499	1.000795	-0.006788
C43	C	0.468867	0.558122	-0.432568
C44	C	0.968867	1.058122	0.067432
C45	C	0.502984	0.615460	-0.358318
C46	C	1.002984	1.115460	0.141682
C47	C	0.568725	0.615477	-0.358306
C48	C	1.068725	1.115477	0.141694
N49	N	0.360278	0.647105	-0.413104
N50	N	0.860278	1.147105	0.086896
N51	N	0.297826	0.647087	-0.413121
N52	N	0.797826	1.147087	0.086879
C53	C	0.270794	0.558072	-0.432597
C54	C	0.770794	1.058072	0.067403
N55	N	0.308570	0.469077	-0.452075
N56	N	0.808570	0.969077	0.047925
N57	N	0.371027	0.469097	-0.452063
N58	N	0.871027	0.969097	0.047937
C59	C	0.397582	0.558109	-0.432572
C60	C	0.897582	1.058109	0.067428
C61	C	0.165401	0.500703	-0.506846
C62	C	0.665401	1.000703	-0.006846
C63	C	0.099660	0.500673	-0.506846
C64	C	0.599660	1.000673	-0.006846
C65	C	0.102146	0.615347	-0.358381
C66	C	0.602146	1.115347	0.141619
C67	C	0.167887	0.615367	-0.358376
C68	C	0.667887	1.115367	0.141624
C69	C	0.199510	0.558047	-0.432614
C70	C	0.699510	1.058047	0.067386
C71	C	0.815957	0.825318	-0.398585
C72	C	1.315957	1.325318	0.101415
C73	C	0.808346	0.939654	-0.384079
C74	C	1.308346	1.439654	0.115921
C75	C	0.998064	0.558019	-0.432609
C76	C	1.498064	1.058019	0.067391
C77	C	1.068033	0.557999	-0.432624
C78	C	1.568033	1.057999	0.067376
C79	C	0.837800	0.998463	-0.440184
C80	C	1.337800	1.498463	0.059816
C81	C	0.829935	1.116636	-0.425193
C82	C	1.329935	1.616636	0.074807
C83	C	0.810779	0.592051	-0.700813
C84	C	1.310779	1.092051	-0.200813
C85	C	0.800938	0.606535	-0.815122
C86	C	1.300938	1.106535	-0.315122
C87	C	0.851836	1.289770	-0.466726
C88	C	1.351836	1.789770	0.033274
C89	C	0.859392	1.175443	-0.481305
C90	C	1.359392	1.675443	0.018695
C91	C	0.839002	0.550468	-0.874047
C92	C	1.339002	1.050468	-0.374047
C93	C	0.828832	0.565436	-0.992191
C94	C	1.328832	1.065436	-0.492191
C95	C	0.856919	0.524134	-0.165386
C96	C	1.356919	1.024134	0.334614
C97	C	0.866901	0.509360	-0.051115
C98	C	1.366901	1.009360	0.448885
H99	H	0.477226	0.662135	-0.297887
H100	H	0.977226	1.162135	0.202113
C101	C	0.963848	1.148320	-0.535785
C102	C	1.463848	1.648320	-0.035785
C103	C	0.901298	1.125326	-0.561138
C104	C	1.401298	1.625326	-0.061138
H105	H	0.989716	1.117384	-0.585075
H106	H	1.489716	1.617384	-0.085075
H107	H	0.980197	1.122011	-0.468922
H108	H	1.480197	1.622011	0.031078
H109	H	0.964052	1.221161	-0.536184
H110	H	1.464052	1.721161	-0.036184
H111	H	0.901094	1.052485	-0.560732
H112	H	1.401094	1.552485	-0.060732
H113	H	0.884945	1.151630	-0.628019
H114	H	1.384945	1.651630	-0.128019
H115	H	0.071890	0.453978	-0.567297
H116	H	0.571890	0.953978	-0.067297
H117	H	0.076392	0.662024	-0.297949
H118	H	0.576392	1.162024	0.202051
C119	C	0.942251	0.971338	-0.494674
C120	C	1.442251	1.471338	0.005326
C121	C	0.879700	0.948345	-0.520019
C122	C	1.379700	1.448345	-0.020019
H123	H	0.968116	0.940405	-0.543969
H124	H	1.468116	1.440405	-0.043969
H125	H	0.958603	0.945025	-0.427813
H126	H	1.458603	1.445025	0.072187
H127	H	0.942454	1.044179	-0.495069
H128	H	1.442454	1.544179	0.004931
H129	H	0.879496	0.875504	-0.519617
H130	H	1.379496	1.375504	-0.019617
H131	H	0.863343	0.974653	-0.586898
H132	H	1.363343	1.474653	-0.086898
H133	H	0.195658	0.662060	-0.297928
H134	H	0.695658	1.162060	0.202072
C135	C	0.738504	1.235934	-0.395522
C136	C	1.238504	1.735934	0.104478
C137	C	0.788029	1.166757	-0.345362
C138	C	1.288029	1.666757	0.154638
H139	H	0.712636	1.266881	-0.346237
H140	H	1.212636	1.766881	0.153763
H141	H	0.713319	1.199710	-0.445558
H142	H	1.213319	1.699710	0.054442
H143	H	0.755971	1.288138	-0.428775
H144	H	1.255971	1.788138	0.071225
H145	H	0.770562	1.114549	-0.312115
H146	H	1.270562	1.614549	0.187885
H147	H	0.813217	1.202983	-0.295308
H148	H	1.313217	1.702983	0.204692
C149	C	0.775082	0.644602	-1.149512
C150	C	1.275082	1.144602	-0.649512
C151	C	0.774672	0.645209	-1.042145
C152	C	1.274672	1.145209	-0.542145
H153	H	0.741650	0.693856	-1.180349
H154	H	1.241650	1.193856	-0.680349
H155	H	0.769001	0.577709	-1.175854
H156	H	1.269001	1.077709	-0.675854
H157	H	0.814872	0.661846	-1.165147
H158	H	1.314872	1.161846	-0.665147
H159	H	0.734884	0.627958	-1.026510
H160	H	1.234884	1.127958	-0.526510
H161	H	0.780749	0.712117	-1.015795
H162	H	1.280749	1.212117	-0.515795
H163	H	0.777304	0.976794	-0.324953
H164	H	1.277304	1.476794	0.175047
H165	H	0.472722	0.454101	-0.567239
H166	H	0.972722	0.954101	-0.067239
C167	C	0.867371	0.396899	-0.770708
C168	C	1.367371	0.896899	-0.270708
C169	C	0.893163	0.470709	-0.824083
C170	C	1.393163	0.970709	-0.324083
H171	H	0.900810	0.347664	-0.739859
H172	H	1.400810	0.847664	-0.239859
H173	H	0.839011	0.362828	-0.817619
H174	H	1.339011	0.862828	-0.317619
H175	H	0.844806	0.430147	-0.718436
H176	H	1.344806	0.930147	-0.218436
H177	H	0.915724	0.437462	-0.876361
H178	H	1.415724	0.937462	-0.376361
H179	H	0.921534	0.504783	-0.777168
H180	H	1.421534	1.004783	-0.277168
C181	C	0.895253	0.355765	-0.947816
C182	C	1.395253	0.855765	-0.447816
C183	C	0.921058	0.429574	-1.001175
C184	C	1.421058	0.929574	-0.501175
H185	H	0.928686	0.306509	-0.916985
H186	H	1.428686	0.806509	-0.416985
H187	H	0.866883	0.321721	-0.994733
H188	H	1.366883	0.821721	-0.494733
H189	H	0.872699	0.389010	-0.895531
H190	H	1.372699	0.889010	-0.395531
H191	H	0.943609	0.396330	-1.053465
H192	H	1.443609	0.896330	-0.553465
H193	H	0.949439	0.463621	-0.954254
H194	H	1.449439	0.963621	-0.454254
H195	H	0.760816	0.665611	-0.852139
H196	H	1.260816	1.165611	-0.352139
C197	C	0.557175	0.387463	-0.653526
C198	C	1.057175	0.887463	-0.153526
C199	C	0.601001	0.437800	-0.588369
C200	C	1.101001	0.937800	-0.088369
H201	H	0.578639	0.348548	-0.703888
H202	H	1.078639	0.848548	-0.203888
H203	H	0.525141	0.437310	-0.687091
H204	H	1.025141	0.937310	-0.187091
H205	H	0.538030	0.342379	-0.613786
H206	H	1.038030	0.842379	-0.113786
H207	H	0.620143	0.482890	-0.628107
H208	H	1.120143	0.982890	-0.128107
H209	H	0.633047	0.387947	-0.554802
H210	H	1.133047	0.887947	-0.054802
C211	C	0.564577	0.728827	-0.211560
C212	C	1.064577	1.228827	0.288440
C213	C	0.606221	0.678513	-0.276707
C214	C	1.106221	1.178513	0.223293
H215	H	0.587727	0.767750	-0.161190
H216	H	1.087727	1.267750	0.338810
H217	H	0.545338	0.678967	-0.178004
H218	H	1.045338	1.178967	0.321996
H219	H	0.532431	0.773902	-0.251304
H220	H	1.032431	1.273902	0.248696
H221	H	0.638364	0.633433	-0.236964
H222	H	1.138364	1.133433	0.263036
H223	H	0.625470	0.728380	-0.310265
H224	H	1.125470	1.228380	0.189735
H225	H	0.191151	0.454022	-0.567289
H226	H	0.691151	0.954022	-0.067289
