data_functionalizedCrystal
_audit_creation_method	'MofGen! by Chris Wilmer'
_symmetry_space_group_name_H-M	'P1'
_symmetry_Int_Tables_number	1
_symmetry_cell_setting	triclinic
loop_
_symmetry_equiv_pos_as_xyz
  x,y,z
_cell_length_a	10.654541
_cell_length_b	16.974800
_cell_length_c	9.130307
_cell_angle_alpha	93.652265
_cell_angle_beta	89.995157
_cell_angle_gamma	83.935819
loop_
_atom_site_label
_atom_site_type_symbol
_atom_site_fract_x
_atom_site_fract_y
_atom_site_fract_z
O1	O	0.159969	1.050025	0.002712
O2	O	0.180375	0.819930	-0.024576
O3	O	-0.012650	0.940269	-0.010296
O4	O	0.352994	0.929686	-0.011568
O5	O	-0.012658	0.940258	0.233302
O6	O	0.180368	0.819919	0.219022
O7	O	0.159961	1.050014	0.246309
Cu8	Cu	0.170164	0.934966	0.254908
Cu9	Cu	0.170173	0.934978	-0.033174
O10	O	0.352987	0.929675	0.232029
C11	C	0.179599	0.790462	0.093729
C12	C	0.177281	0.702672	0.083318
C13	C	0.176185	0.661428	0.211216
C14	C	0.173986	0.578942	0.201438
C15	C	0.172893	0.537701	0.063761
C16	C	0.173986	0.578952	-0.064146
C17	C	0.176175	0.661437	-0.054366
C18	C	0.166338	0.291008	0.020275
C19	C	0.164152	0.208516	0.010505
C20	C	0.164151	0.208512	0.276090
C21	C	0.166347	0.290998	0.285857
C22	C	0.167433	0.332242	0.157950
N23	N	0.170650	0.453387	0.053763
N24	N	0.169667	0.416556	0.167950
C25	C	-0.059440	0.939487	0.111410
C26	C	-0.198847	0.937163	0.111132
C27	C	-0.229070	1.081061	0.128216
C28	C	-0.309673	1.151915	0.136631
C29	C	-0.440657	1.149727	0.136367
C30	C	-0.491039	1.076677	0.127682
C31	C	-0.410436	1.005823	0.119268
C32	C	-0.279450	1.008019	0.119537
C33	C	-0.380213	0.861927	0.102174
C34	C	-0.249229	0.864113	0.102448
C35	C	-0.430595	0.788877	0.093489
C36	C	-0.349992	0.718021	0.085085
C37	C	-0.219001	0.720213	0.085351
C38	C	-0.168626	0.793259	0.094033
C39	C	0.399777	0.930457	0.110320
C40	C	0.539184	0.932781	0.110589
C41	C	0.160738	1.079482	0.128001
C42	C	0.163056	1.167272	0.138402
N43	N	0.170157	0.934963	0.457531
C44	C	0.017895	0.838233	0.446127
C45	C	-0.058239	0.789877	0.517093
C46	C	-0.058239	0.789887	0.670428
C47	C	0.017906	0.838258	0.752800
C48	C	0.094040	0.886615	0.681834
C49	C	0.094029	0.886601	0.528496
C50	C	0.246307	0.983339	0.693237
C51	C	0.246302	0.983333	0.539903
C52	C	0.322452	1.031709	0.775610
C53	C	0.398581	1.080071	0.704645
C54	C	0.398576	1.080060	0.551301
C55	C	0.322436	1.031690	0.468938
N56	N	0.170173	0.934982	0.764203
H57	H	0.173087	0.545368	-0.176245
C58	C	0.167563	0.336367	-0.120413
H59	H	0.169016	0.391400	-0.094881
H60	H	0.240409	0.317213	-0.177234
H61	H	0.094006	0.328484	-0.175915
H62	H	0.460581	1.119433	0.493530
H63	H	0.322422	1.031678	0.344084
C64	C	0.017891	0.838225	0.277464
H65	H	0.074133	0.873955	0.246998
H66	H	0.044421	0.786262	0.236628
H67	H	-0.064888	0.854469	0.244713
H68	H	-0.061974	0.795050	0.094260
H69	H	0.177085	0.694999	0.323327
C70	C	-0.142003	0.736680	0.426483
H71	H	-0.131114	0.743604	0.324999
H72	H	-0.118641	0.682709	0.445226
H73	H	-0.227942	0.750922	0.453315
C74	C	-0.529327	1.227661	0.145618
H75	H	-0.614550	1.215891	0.144205
H76	H	-0.514082	1.257578	0.234117
H77	H	-0.514066	1.257588	0.064211
C78	C	0.482327	1.133272	0.795253
H79	H	0.471422	1.126353	0.896737
H80	H	0.568264	1.119047	0.768427
H81	H	0.458940	1.187245	0.776516
C82	C	-0.635117	1.074271	0.127381
H83	H	-0.675905	1.126931	0.133640
H84	H	-0.659158	1.047208	0.039219
H85	H	-0.659177	1.047198	0.209125
H86	H	-0.537250	0.787100	0.093266
C87	C	-0.141969	0.736688	0.748492
H88	H	-0.187319	0.707879	0.677480
H89	H	-0.090466	0.700588	0.804031
H90	H	-0.199796	0.768782	0.812112
H91	H	0.167232	0.324571	0.397968
H92	H	-0.391025	0.658550	0.078005
C93	C	-0.084991	1.083467	0.128524
H94	H	-0.044203	1.030807	0.122280
H95	H	-0.060923	1.110546	0.046802
H96	H	-0.060958	1.110523	0.216706
H97	H	0.163266	0.174940	-0.101614
C98	C	0.172791	0.533575	0.342126
H99	H	0.173773	0.569949	0.425520
H100	H	0.098740	0.507029	0.344515
H101	H	0.245143	0.495765	0.343150
H102	H	0.163265	0.174922	0.380224
H103	H	-0.268637	1.211391	0.143714
C104	C	0.017922	0.838264	0.921463
H105	H	0.074177	0.873992	0.960356
H106	H	-0.064848	0.854499	0.958095
H107	H	0.044475	0.786300	0.949993
H108	H	0.177070	0.695017	-0.158514
H109	H	-0.153380	0.662514	0.078492
H110	H	0.322452	1.031711	0.900463
