data_functionalizedCrystal
_audit_creation_method	'MofGen! by Chris Wilmer'
_symmetry_space_group_name_H-M	'P1'
_symmetry_Int_Tables_number	1
_symmetry_cell_setting	triclinic
loop_
_symmetry_equiv_pos_as_xyz
  x,y,z
_cell_length_a	23.532409
_cell_length_b	9.065218
_cell_length_c	22.010155
_cell_angle_alpha	90.002111
_cell_angle_beta	90.014001
_cell_angle_gamma	96.067277
loop_
_atom_site_label
_atom_site_type_symbol
_atom_site_fract_x
_atom_site_fract_y
_atom_site_fract_z
O1	O	0.083485	-1.956287	-0.050522
O2	O	0.090334	-1.526665	-0.050522
O3	O	0.004073	-1.754429	-0.050523
O4	O	0.169746	-1.728522	-0.050521
O5	O	0.004096	-1.754413	0.050527
O6	O	0.090357	-1.526649	0.050528
O7	O	0.083508	-1.956271	0.050528
Cu8	Cu	0.086935	-1.741458	0.059755
Cu9	Cu	0.086908	-1.741477	-0.059749
O10	O	0.169769	-1.728506	0.050529
C11	C	0.089687	-1.471702	0.000003
C12	C	0.087719	-1.307956	0.000002
C13	C	-0.017136	-1.753761	0.000001
C14	C	-0.080368	-1.751776	-0.000004
N15	N	0.086953	-1.741456	0.143807
C16	C	-0.353687	-1.743343	-0.055089
C17	C	-0.294274	-1.745187	-0.055089
O18	O	-0.263552	-1.746199	-0.101933
N19	N	-0.264552	-1.746090	-0.000006
C20	C	-0.294248	-1.745166	0.055082
O21	O	-0.263513	-1.746105	0.101934
C22	C	-0.353662	-1.743333	0.055081
C23	C	-0.383379	-1.742414	-0.000006
C24	C	-0.383405	-1.742426	-0.110172
C25	C	-0.442814	-1.740580	-0.110171
C26	C	-0.472506	-1.739651	-0.055088
C27	C	-0.442789	-1.740568	-0.000006
C28	C	-0.383357	-1.742419	0.110168
C29	C	-0.442774	-1.740587	0.110162
C30	C	-0.472492	-1.739668	0.055075
C31	C	-0.531890	-1.737793	0.055078
N32	N	-0.561611	-1.736890	-0.000006
C33	C	-0.531919	-1.737819	-0.055089
C34	C	-0.169477	-1.749017	0.055078
C35	C	-0.110064	-1.750839	0.055080
C36	C	-0.110094	-1.750863	-0.055091
C37	C	-0.169507	-1.749030	-0.055092
C38	C	-0.199198	-1.748113	-0.000005
C39	C	-0.656684	-1.733941	-0.055084
C40	C	-0.716098	-1.732088	-0.055079
C41	C	-0.716064	-1.732073	0.055092
C42	C	-0.656654	-1.733917	0.055087
C43	C	-0.626966	-1.734856	-0.000006
O44	O	-0.562649	-1.736786	0.101898
O45	O	-0.562663	-1.736899	-0.101934
C46	C	0.190979	-1.729174	0.000004
C47	C	0.254210	-1.731159	0.000004
C48	C	0.084155	-2.011233	0.000002
C49	C	0.086123	-2.174979	-0.000002
N50	N	0.086884	-1.741492	-0.143801
C51	C	0.125104	-1.640567	0.436420
C52	C	0.125109	-1.640564	0.372812
O53	O	0.157570	-1.554741	0.339921
N54	N	0.086932	-1.741444	0.340992
C55	C	0.048743	-1.842325	0.372782
O56	O	0.016270	-1.928131	0.339876
C57	C	0.048735	-1.842321	0.436388
C58	C	0.086919	-1.741444	0.468206
C59	C	0.163285	-1.539697	0.468237
C60	C	0.163280	-1.539703	0.531840
C61	C	0.125095	-1.640580	0.563626
C62	C	0.086915	-1.741450	0.531809
C63	C	0.010544	-1.943194	0.468178
C64	C	0.010539	-1.943180	0.531789
C65	C	0.048723	-1.842303	0.563606
C66	C	0.048725	-1.842332	0.627198
N67	N	0.086903	-1.741451	0.659018
C68	C	0.125088	-1.640575	0.627232
C69	C	0.048760	-1.842325	0.239204
C70	C	0.048770	-1.842338	0.175599
C71	C	0.125136	-1.640574	0.175633
C72	C	0.125129	-1.640569	0.239240
C73	C	0.086938	-1.741445	0.271025
C74	C	0.125076	-1.640596	0.760804
C75	C	0.125069	-1.640615	0.824413
C76	C	0.048701	-1.842373	0.824373
C77	C	0.048710	-1.842360	0.760769
C78	C	0.086899	-1.741459	0.728987
O79	O	0.016280	-1.928106	0.660130
O80	O	0.157550	-1.554771	0.660147
H81	H	-0.632518	-1.734707	-0.099946
H82	H	-0.466946	-1.739842	0.155022
C83	C	0.166649	-1.531270	0.273812
C84	C	0.201941	-1.609313	0.310333
C85	C	0.240202	-1.508668	0.342180
H86	H	0.145898	-1.470120	0.298664
H87	H	0.189423	-1.471221	0.245785
H88	H	0.179170	-1.669336	0.338358
H89	H	0.222705	-1.670457	0.285496
H90	H	0.262976	-1.448619	0.314153
H91	H	0.219446	-1.447524	0.367029
H92	H	0.264155	-1.561606	0.366959
H93	H	0.017622	-1.924518	0.734863
H94	H	0.017613	-1.924510	0.850263
H95	H	0.156172	-1.558432	0.734933
C96	C	-0.474978	-1.739722	-0.170045
C97	C	-0.436251	-1.740992	-0.218277
C98	C	-0.465857	-1.740247	-0.273445
H99	H	-0.494273	-1.653010	-0.172440
H100	H	-0.502031	-1.825091	-0.172358
H101	H	-0.409209	-1.655632	-0.215966
H102	H	-0.416954	-1.827698	-0.215902
H103	H	-0.492910	-1.825616	-0.275757
H104	H	-0.485151	-1.653534	-0.275834
H105	H	-0.439586	-1.741123	-0.306177
H106	H	-0.632454	-1.734606	0.099943
H107	H	0.017683	-1.924496	0.149698
C108	C	-0.748263	-1.731164	-0.114954
C109	C	-0.709540	-1.732412	-0.163191
C110	C	-0.739148	-1.731579	-0.218355
H111	H	-0.767547	-1.644431	-0.117331
H112	H	-0.775325	-1.816511	-0.117281
H113	H	-0.682488	-1.647074	-0.160866
H114	H	-0.690255	-1.819139	-0.160835
H115	H	-0.766210	-1.816926	-0.220682
H116	H	-0.758431	-1.644845	-0.220725
H117	H	-0.712880	-1.732440	-0.251091
C118	C	-0.351038	-1.743668	0.169931
C119	C	-0.322664	-1.871640	0.173138
C120	C	-0.292880	-1.872838	0.228182
H121	H	-0.377174	-1.742941	0.202785
H122	H	-0.323934	-1.658401	0.172236
H123	H	-0.349765	-1.956884	0.170839
H124	H	-0.296519	-1.872394	0.140297
H125	H	-0.265776	-1.787571	0.230487
H126	H	-0.319020	-1.872107	0.261031
H127	H	-0.273621	-1.959658	0.230363
C128	C	-0.201767	-1.747744	0.114849
C129	C	-0.230139	-1.619770	0.118058
C130	C	-0.259891	-1.618550	0.173106
H131	H	-0.175612	-1.748458	0.147699
H132	H	-0.228870	-1.833010	0.117158
H133	H	-0.203039	-1.534527	0.115755
H134	H	-0.256303	-1.619029	0.085221
H135	H	-0.286993	-1.703816	0.175415
H136	H	-0.233732	-1.619269	0.205952
H137	H	-0.279149	-1.531729	0.175288
C138	C	-0.351106	-1.743097	-0.169949
C139	C	-0.311269	-1.617190	-0.173143
C140	C	-0.281510	-1.617709	-0.228207
H141	H	-0.377267	-1.742183	-0.202786
H142	H	-0.331770	-1.829770	-0.172292
H143	H	-0.330604	-1.530540	-0.170806
H144	H	-0.285096	-1.618078	-0.140319
H145	H	-0.262175	-1.704382	-0.230550
H146	H	-0.307676	-1.616799	-0.261039
H147	H	-0.254474	-1.532291	-0.230378
H148	H	0.194371	-1.457557	0.557742
C149	C	-0.201669	-1.748091	-0.114964
C150	C	-0.162943	-1.749314	-0.163199
C151	C	-0.192546	-1.748458	-0.218365
H152	H	-0.220954	-1.661358	-0.117335
H153	H	-0.228730	-1.833438	-0.117299
H154	H	-0.135891	-1.663975	-0.160866
H155	H	-0.143656	-1.836040	-0.160848
H156	H	-0.219608	-1.833805	-0.220699
H157	H	-0.211830	-1.661724	-0.220729
H158	H	-0.166276	-1.749302	-0.251098
H159	H	0.194380	-1.457545	0.442362
C160	C	-0.077783	-1.751548	-0.114866
C161	C	-0.037942	-1.625650	-0.118054
C162	C	-0.008168	-1.626192	-0.173107
H163	H	-0.103935	-1.750638	-0.147711
H164	H	-0.058450	-1.838227	-0.117197
H165	H	-0.057274	-1.538994	-0.115729
H166	H	-0.011778	-1.626534	-0.085221
H167	H	0.011166	-1.712870	-0.175439
H168	H	-0.034324	-1.625285	-0.205949
H169	H	0.018872	-1.540779	-0.175276
H170	H	-0.740249	-1.731310	0.099939
H171	H	0.156165	-1.558469	0.850316
H172	H	0.156228	-1.558433	0.149741
C173	C	-0.031034	-2.052189	0.433535
C174	C	-0.022938	-2.030440	0.371025
C175	C	-0.061308	-2.130629	0.339095
H176	H	-0.069075	-2.036329	0.443986
H177	H	-0.024504	-2.150775	0.443821
H178	H	-0.029473	-1.931877	0.360743
H179	H	0.015096	-2.046312	0.360556
H180	H	-0.054778	-2.229215	0.349381
H181	H	-0.099347	-2.114761	0.349551
H182	H	-0.055817	-2.115895	0.296679
H183	H	-0.085872	-1.751559	0.099937
H184	H	0.017662	-1.924482	0.265080
H185	H	-0.020562	-2.025323	0.557665
