data_functionalizedCrystal
_audit_creation_method	'MofGen! by Chris Wilmer'
_symmetry_space_group_name_H-M	'P1'
_symmetry_Int_Tables_number	1
_symmetry_cell_setting	triclinic
loop_
_symmetry_equiv_pos_as_xyz
  x,y,z
_cell_length_a	15.297327
_cell_length_b	14.908571
_cell_length_c	14.908308
_cell_angle_alpha	90.175053
_cell_angle_beta	77.691786
_cell_angle_gamma	83.008605
loop_
_atom_site_label
_atom_site_type_symbol
_atom_site_fract_x
_atom_site_fract_y
_atom_site_fract_z
Zn1	Zn	-0.470251	-1.259455	0.663960
Zn2	Zn	0.029749	-0.759455	1.163960
Zn3	Zn	-0.612780	-1.242018	0.536750
Zn4	Zn	-0.112780	-0.742018	1.036750
Zn5	Zn	-0.452943	-1.120930	0.502147
Zn6	Zn	0.047057	-0.620930	1.002147
Zn7	Zn	-0.611710	-1.083241	0.678228
Zn8	Zn	-0.111710	-0.583241	1.178228
O9	O	-0.536921	-1.176411	0.595271
O10	O	-0.036921	-0.676411	1.095271
O11	O	-0.496849	-1.381564	0.655596
O12	O	0.003151	-0.881564	1.155596
O13	O	-0.584782	-1.234431	0.405232
O14	O	-0.084782	-0.734431	0.905232
O15	O	-0.329146	-1.162376	0.503159
O16	O	0.170854	-0.662376	1.003159
O17	O	-0.601565	-1.368753	0.562136
O18	O	-0.101565	-0.868753	1.062136
O19	O	-0.341862	-1.264150	0.622043
O20	O	0.158138	-0.764150	1.122043
O21	O	-0.467350	-1.145468	0.379809
O22	O	0.032650	-0.645468	0.879809
O23	O	-0.466312	-0.991508	0.516994
O24	O	0.033688	-0.491508	1.016994
O25	O	-0.599740	-1.098141	0.803264
O26	O	-0.099740	-0.598141	1.303264
O27	O	-0.582958	-0.963819	0.646360
O28	O	-0.082958	-0.463819	1.146360
O29	O	-0.495811	-1.227605	0.792781
O30	O	0.004189	-0.727605	1.292781
O31	O	-0.738732	-1.197885	0.575970
O32	O	-0.238732	-0.697885	1.075970
O33	O	-0.737945	-1.081233	0.679913
O34	O	-0.237945	-0.581233	1.179913
C35	C	-0.522641	-0.945402	0.579471
C36	C	-0.022641	-0.445402	1.079471
C37	C	-0.516555	-0.846570	0.572737
C38	C	-0.016555	-0.346570	1.072737
C39	C	-0.771036	-1.133600	0.633267
C40	C	-0.271036	-0.633600	1.133267
C41	C	-0.871198	-1.115365	0.649557
C42	C	-0.371198	-0.615365	1.149557
C43	C	-0.549587	-1.160614	0.831854
C44	C	-0.049587	-0.660614	1.331854
C45	C	-0.554984	-1.153882	0.932671
C46	C	-0.054984	-0.653882	1.432671
C47	C	-1.155071	-1.307088	0.479176
C48	C	-0.655071	-0.807088	0.979176
C49	C	-1.060963	-1.324221	0.463866
C50	C	-0.560963	-0.824221	0.963866
C51	C	-1.013517	-1.272009	0.510288
C52	C	-0.513517	-0.772009	1.010288
C53	C	-1.060188	-1.202660	0.572022
C54	C	-0.560188	-0.702660	1.072022
C55	C	-1.154304	-1.185521	0.587328
C56	C	-0.654304	-0.685521	1.087328
C57	C	-1.012750	-1.150441	0.618439
C58	C	-0.512750	-0.650441	1.118439
C59	C	-1.059421	-1.081092	0.680173
C60	C	-0.559421	-0.581092	1.180173
C61	C	-1.153528	-1.063957	0.695477
C62	C	-0.653528	-0.563957	1.195477
C63	C	-1.200974	-1.116169	0.649056
C64	C	-0.700974	-0.616169	1.149056
C65	C	-0.918634	-1.167580	0.603133
C66	C	-0.418634	-0.667580	1.103133
C67	C	-0.917868	-1.046013	0.711285
C68	C	-0.417868	-0.546013	1.211285
C69	C	-1.011975	-1.028880	0.726595
C70	C	-0.511975	-0.528880	1.226595
C71	C	-0.301895	-1.219412	0.557150
C72	C	0.198105	-0.719412	1.057150
C73	C	-0.201741	-1.237736	0.540904
C74	C	0.298259	-0.737736	1.040904
C75	C	-0.551257	-1.408322	0.611134
C76	C	-0.051257	-0.908322	1.111134
C77	C	-0.557366	-1.507148	0.617894
C78	C	-0.057366	-1.007148	1.117894
C79	C	-0.626752	-0.632047	0.694664
C80	C	-0.126752	-0.132047	1.194664
C81	C	-0.621037	-0.539185	0.688340
C82	C	-0.121037	-0.039185	1.188340
C83	C	-0.499405	-0.567982	0.553769
C84	C	0.000595	-0.067982	1.053769
C85	C	-0.505121	-0.660844	0.560093
C86	C	-0.005121	-0.160844	1.060093
C87	C	-0.568797	-0.692873	0.630542
C88	C	-0.068797	-0.192873	1.130542
C89	C	-0.574516	-0.785736	0.636861
C90	C	-0.074516	-0.285736	1.136861
C91	C	-0.452881	-0.814532	0.502295
C92	C	0.047119	-0.314532	1.002295
C93	C	-0.447166	-0.721670	0.495971
C94	C	0.052834	-0.221670	0.995971
C95	C	-0.524243	-1.192210	0.359602
C96	C	-0.024243	-0.692210	0.859602
C97	C	-0.518602	-1.199160	0.258756
C98	C	-0.018602	-0.699160	0.758756
C99	C	-0.456884	-1.276044	1.111201
C100	C	0.043116	-0.776044	1.611201
C101	C	-0.461953	-1.269722	1.205927
C102	C	0.038047	-0.769722	1.705927
C103	C	-0.570184	-1.134914	1.216852
C104	C	-0.070184	-0.634914	1.716852
C105	C	-0.565116	-1.141235	1.122125
C106	C	-0.065116	-0.641235	1.622125
C107	C	-0.508465	-1.211804	1.069303
C108	C	-0.008465	-0.711804	1.569303
C109	C	-0.503402	-1.218128	0.974576
C110	C	-0.003402	-0.718128	1.474576
C111	C	-0.611628	-1.083317	0.985501
C112	C	-0.111628	-0.583317	1.485501
C113	C	-0.616697	-1.076995	1.080227
C114	C	-0.116697	-0.576995	1.580227
H115	H	-0.880644	-1.224045	0.552868
H116	H	-0.380644	-0.724045	1.052868
Br117	Br	-1.219464	-1.377935	0.416179
Br118	Br	-0.719464	-0.877935	0.916179
Br119	Br	-0.647052	-1.039143	1.288551
Br120	Br	-0.147052	-0.539143	1.788551
H121	H	-1.191523	-1.007479	0.745734
H122	H	-0.691523	-0.507479	1.245734
Br123	Br	-0.997632	-1.418340	0.380096
Br124	Br	-0.497632	-0.918340	0.880096
Br125	Br	-1.328649	-1.092548	0.669398
Br126	Br	-0.828649	-0.592548	1.169398
H127	H	-0.447558	-0.541888	0.496418
H128	H	0.052442	-0.041888	0.996418
H129	H	-0.662818	-1.019539	1.123247
H130	H	-0.162818	-0.519539	1.623247
Br131	Br	-1.075324	-0.934769	0.810376
Br132	Br	-0.575324	-0.434769	1.310376
Br133	Br	-0.681649	-0.996139	0.928638
Br134	Br	-0.181649	-0.496139	1.428638
H135	H	-0.879237	-1.003496	0.749083
H136	H	-0.379237	-0.503496	1.249083
Br137	Br	-0.713178	-0.675518	0.790259
Br138	Br	-0.213178	-0.175518	1.290259
Br139	Br	-0.660937	-0.829204	0.732465
Br140	Br	-0.160937	-0.329204	1.232465
Br141	Br	-0.885830	-1.295512	0.489802
Br142	Br	-0.385830	-0.795512	0.989802
Br143	Br	-0.699689	-0.456637	0.775369
Br144	Br	-0.199689	0.043363	1.275369
H145	H	-0.419948	-1.322031	1.240036
H146	H	0.080052	-0.822031	1.740036
H147	H	-0.395320	-0.695579	0.438616
H148	H	0.104680	-0.195579	0.938616
Br149	Br	-0.374234	-0.897086	0.415258
Br150	Br	0.125766	-0.397086	0.915258
H151	H	-0.410762	-1.333507	1.068193
H152	H	0.089238	-0.833507	1.568193
Br153	Br	-0.426524	-1.313901	0.902890
Br154	Br	0.073476	-0.813901	1.402890
