data_functionalizedCrystal
_audit_creation_method	'MofGen! by Chris Wilmer'
_symmetry_space_group_name_H-M	'P1'
_symmetry_Int_Tables_number	1
_symmetry_cell_setting	triclinic
loop_
_symmetry_equiv_pos_as_xyz
  x,y,z
_cell_length_a	11.026607
_cell_length_b	10.489741
_cell_length_c	9.482934
_cell_angle_alpha	99.430957
_cell_angle_beta	78.635486
_cell_angle_gamma	96.562595
loop_
_atom_site_label
_atom_site_type_symbol
_atom_site_fract_x
_atom_site_fract_y
_atom_site_fract_z
O1	O	1.633619	0.519525	-0.120902
O2	O	1.279781	0.458583	-0.120903
O3	O	1.464750	0.305228	-0.120894
O4	O	1.448650	0.672880	-0.120911
O5	O	1.427178	0.336540	0.120897
O6	O	1.242208	0.489895	0.120887
O7	O	1.596047	0.550836	0.120889
Cu8	Cu	1.415697	0.523225	0.142965
Cu9	Cu	1.460131	0.486195	-0.142980
O10	O	1.411078	0.704191	0.120879
C11	C	1.215686	0.462996	-0.000008
C12	C	1.080679	0.429482	-0.000008
C13	C	1.007683	0.522021	-0.000014
C14	C	0.868146	0.487384	-0.000014
C15	C	1.444748	0.273085	0.000000
C16	C	1.441110	0.130655	-0.000002
C17	C	1.323420	0.036624	-0.000013
C18	C	1.360491	-0.027830	0.119202
C19	C	1.397562	-0.058670	-0.119184
C20	C	1.478214	0.068089	0.119312
C21	C	1.515286	0.037242	-0.119182
C22	C	1.552438	-0.027163	0.000063
C23	C	1.660143	0.546423	-0.000010
C24	C	1.795151	0.579936	-0.000019
C25	C	1.431080	0.736334	-0.000018
C26	C	1.434720	0.878763	-0.000025
N27	N	1.384454	0.549271	0.344084
C28	C	1.450902	0.493873	0.416286
C29	C	1.424916	0.515555	0.583703
N30	N	1.491374	0.460149	0.655901
H31	H	1.226636	0.065005	0.000107
H32	H	0.835951	0.684814	-0.000014
H33	H	1.048490	0.626890	-0.000010
N34	N	1.029475	0.297930	0.000017
N35	N	0.916196	0.269981	0.000026
H36	H	0.880033	0.177070	0.000046
N37	N	0.816948	0.355825	0.000011
N38	N	0.703668	0.327876	0.000020
H39	H	0.667506	0.234965	0.000040
H40	H	1.295031	-0.056744	0.219990
N41	N	1.597348	0.073531	-0.245635
N42	N	1.576467	0.026629	-0.369332
H43	H	1.634417	0.052257	-0.458651
H44	H	1.348779	0.579034	0.645823
H45	H	1.512289	0.122932	0.220212
H46	H	1.649280	-0.055274	0.000129
N47	N	1.354698	-0.127657	-0.245606
N48	N	1.249071	-0.113233	-0.266813
H49	H	1.218787	-0.161953	-0.356091
N50	N	1.546335	0.414184	0.338272
N51	N	1.519847	0.315153	0.253328
H52	H	1.587227	0.258858	0.198198
H53	H	1.567502	0.396659	0.593781
H54	H	1.308322	0.612746	0.406210
