data_functionalizedCrystal
_audit_creation_method	'MofGen! by Chris Wilmer'
_symmetry_space_group_name_H-M	'P1'
_symmetry_Int_Tables_number	1
_symmetry_cell_setting	triclinic
loop_
_symmetry_equiv_pos_as_xyz
  x,y,z
_cell_length_a	16.120530
_cell_length_b	19.805405
_cell_length_c	19.805399
_cell_angle_alpha	90.028893
_cell_angle_beta	87.087090
_cell_angle_gamma	92.876828
loop_
_atom_site_label
_atom_site_type_symbol
_atom_site_fract_x
_atom_site_fract_y
_atom_site_fract_z
Zn1	Zn	1.274482	0.322008	-0.435105
Zn2	Zn	1.274380	0.435195	-0.321913
Zn3	Zn	1.135075	0.316282	-0.316200
Zn4	Zn	1.135020	0.429411	-0.429332
O5	O	1.204739	0.375724	-0.375637
O6	O	1.391133	0.341839	-0.424897
O7	O	1.255882	0.419445	-0.226438
O8	O	1.153633	0.222328	-0.331998
O9	O	1.391059	0.424997	-0.341735
O10	O	1.256055	0.226534	-0.419357
O11	O	1.153535	0.332081	-0.222240
O12	O	1.018403	0.326473	-0.326400
O13	O	1.153540	0.415140	-0.524815
O14	O	1.018363	0.409588	-0.409517
O15	O	1.256002	0.336231	-0.529057
O16	O	1.255829	0.529141	-0.336137
O17	O	1.153441	0.524892	-0.415057
C18	C	0.988133	0.366782	-0.366712
C19	C	0.895468	0.362973	-0.362910
C20	C	1.204641	0.551576	-0.375606
C21	C	1.204675	0.626809	-0.375619
C22	C	1.258038	0.664346	-0.334573
C23	C	1.258072	0.735036	-0.334592
C24	C	1.204737	0.768188	-0.375653
C25	C	1.151371	0.730646	-0.416702
C26	C	1.151342	0.659958	-0.416687
C27	C	1.151485	1.015724	-0.416766
C28	C	1.151516	1.086417	-0.416777
C29	C	1.258215	1.090802	-0.334671
C30	C	1.258187	1.020114	-0.334656
C31	C	1.204824	0.982578	-0.375708
C32	C	1.204790	0.905929	-0.375688
C33	C	1.204766	0.844836	-0.375669
C34	C	0.725807	0.356002	-0.355974
C35	C	0.684512	0.395496	-0.395350
C36	C	0.590107	0.391617	-0.391491
C37	C	0.820221	0.359880	-0.359833
C38	C	1.422192	0.384702	-0.384598
C39	C	1.514857	0.388527	-0.388416
C40	C	1.204854	1.199186	-0.375692
C41	C	1.204885	1.123955	-0.375735
C42	C	1.204776	0.375679	-0.552182
C43	C	1.204792	0.375659	-0.627414
C44	C	1.151515	0.330165	-0.660573
C45	C	1.151526	0.330152	-0.731262
C46	C	1.204819	0.375631	-0.768791
C47	C	1.258099	0.421130	-0.735628
C48	C	1.258082	0.421146	-0.664940
C49	C	1.258165	0.421070	-1.020704
C50	C	1.258179	0.421049	-1.091396
C51	C	1.151609	0.330076	-1.087026
C52	C	1.151592	0.330092	-1.016338
C53	C	1.204868	0.375593	-0.983181
C54	C	1.204854	0.375607	-0.906532
C55	C	1.204838	0.375614	-0.845439
C56	C	1.204751	0.375722	-0.199782
C57	C	1.204897	0.375558	-0.124556
H58	H	1.301466	0.637358	-0.301134
C59	C	1.316059	1.131523	-0.289994
C60	C	1.297941	1.113663	-0.222259
C61	C	1.351198	1.151168	-0.181085
H62	H	1.372092	1.122233	-0.302153
H63	H	1.308431	1.178376	-0.295843
H64	H	1.305576	1.066821	-0.216413
H65	H	1.241918	1.122955	-0.210079
H66	H	1.343569	1.198021	-0.186934
H67	H	1.407227	1.141875	-0.193250
H68	H	1.338907	1.139060	-0.135123
H69	H	1.108034	0.985168	-0.450191
C70	C	1.315947	0.775933	-0.290093
C71	C	1.268893	0.814724	-0.244759
C72	C	1.322216	0.852442	-0.203812
H73	H	1.347792	0.746196	-0.265570
H74	H	1.352184	0.804955	-0.317596
H75	H	1.232670	0.785705	-0.217259
H76	H	1.237050	0.844474	-0.269263
H77	H	1.358454	0.881464	-0.231314
H78	H	1.354059	0.822700	-0.179293
H79	H	1.290299	0.878771	-0.173052
C80	C	1.093567	0.766607	-0.461401
C81	C	1.111677	0.750115	-0.529126
C82	C	1.058451	0.783235	-0.570322
H83	H	1.037525	0.752785	-0.449239
H84	H	1.101233	0.814089	-0.455577
H85	H	1.104005	0.702643	-0.534947
H86	H	1.167710	0.763939	-0.541309
H87	H	1.066117	0.830718	-0.564497
H88	H	1.002412	0.769411	-0.558153
H89	H	1.070736	0.772055	-0.616277
H90	H	0.690263	0.319281	-0.319368
H91	H	0.720059	0.432219	-0.431959
H92	H	1.108140	0.293109	-0.758256
H93	H	1.108122	0.293127	-0.630022
H94	H	1.108226	0.293029	-1.114031
C95	C	1.315906	0.470463	-1.132227
C96	C	1.268678	0.511867	-1.170869
C97	C	1.321826	0.557384	-1.208499
H98	H	1.347653	0.497631	-1.102437
H99	H	1.352242	0.446080	-1.161343
H100	H	1.232356	0.536248	-1.141757
H101	H	1.236932	0.484718	-1.200673
H102	H	1.358162	0.533001	-1.237614
H103	H	1.353570	0.584547	-1.178703
H104	H	1.289790	0.585478	-1.234726
C105	C	1.316109	0.470489	-0.984836
C106	C	1.362804	0.510295	-1.032836
C107	C	1.416205	0.555820	-0.999818
H108	H	1.284293	0.498737	-0.955938
H109	H	1.352489	0.446116	-0.958784
H110	H	1.326429	0.534666	-1.058877
H111	H	1.394637	0.482065	-1.061737
H112	H	1.452585	0.531447	-0.973765
H113	H	1.384382	0.584064	-0.970921
H114	H	1.447899	0.582830	-1.032381
H115	H	1.108198	0.293056	-0.985785
C116	C	1.093580	1.122290	-0.461437
C117	C	1.046857	1.074290	-0.497401
C118	C	0.993489	1.107310	-0.538552
H119	H	1.057210	1.148409	-0.434106
H120	H	1.125447	1.151123	-0.492299
H121	H	1.014993	1.045468	-0.466543
H122	H	1.083205	1.048167	-0.524746
H123	H	1.025357	1.136144	-0.569414
H124	H	0.957125	1.133429	-0.511216
H125	H	0.961787	1.074748	-0.562963
C126	C	1.093543	0.619169	-0.461339
C127	C	1.140703	0.580486	-0.506698
C128	C	1.087491	0.542910	-0.547851
H129	H	1.057211	0.590081	-0.434001
H130	H	1.061795	0.649014	-0.485837
H131	H	1.172437	0.550644	-0.482202
H132	H	1.177033	0.609557	-0.534051
H133	H	1.055742	0.572755	-0.572349
H134	H	1.051161	0.513826	-0.520508
H135	H	1.119481	0.516664	-0.578636
C136	C	1.315928	0.470434	-0.776492
C137	C	1.304557	0.460672	-0.845496
C138	C	1.357825	0.506073	-0.883159
H139	H	1.303744	0.515439	-0.764475
H140	H	1.371966	0.462839	-0.767257
H141	H	1.248532	0.468272	-0.854727
H142	H	1.316747	0.415677	-0.857533
H143	H	1.413863	0.498478	-0.873924
H144	H	1.345637	0.551074	-0.871137
H145	H	1.350123	0.499451	-0.929982
H146	H	1.301472	0.458187	-0.637943
H147	H	1.301614	0.993123	-0.301218
