data_functionalizedCrystal
_audit_creation_method	'MofGen! by Chris Wilmer'
_symmetry_space_group_name_H-M	'P1'
_symmetry_Int_Tables_number	1
_symmetry_cell_setting	triclinic
loop_
_symmetry_equiv_pos_as_xyz
  x,y,z
_cell_length_a	14.519709
_cell_length_b	19.188930
_cell_length_c	13.596369
_cell_angle_alpha	89.988893
_cell_angle_beta	90.000291
_cell_angle_gamma	83.412464
loop_
_atom_site_label
_atom_site_type_symbol
_atom_site_fract_x
_atom_site_fract_y
_atom_site_fract_z
O1	O	1.223300	0.091524	-0.081675
O2	O	1.556633	0.424858	0.251658
O3	O	1.889967	0.758191	0.584992
O4	O	0.954756	0.102302	-0.081706
O5	O	1.288089	0.435636	0.251627
O6	O	1.621423	0.768969	0.584960
O7	O	1.096778	-0.004715	-0.081670
O8	O	1.430111	0.328619	0.251663
O9	O	1.763444	0.661952	0.584996
O10	O	1.081278	0.198542	-0.081711
O11	O	1.414612	0.531875	0.251623
O12	O	1.747945	0.865208	0.584956
O13	O	1.096763	-0.004720	0.081912
O14	O	1.430097	0.328613	0.415246
O15	O	1.763430	0.661946	0.748579
O16	O	0.954742	0.102297	0.081877
O17	O	1.288075	0.435630	0.415210
O18	O	1.621409	0.768963	0.748543
O19	O	1.223286	0.091519	0.081908
O20	O	1.556619	0.424852	0.415241
O21	O	1.889952	0.758185	0.748575
Zn22	Zn	1.089012	0.096907	0.107865
Zn23	Zn	1.422345	0.430240	0.441198
Zn24	Zn	1.755678	0.763574	0.774531
Zn25	Zn	1.089030	0.096914	-0.107663
Zn26	Zn	1.422364	0.430248	0.225670
Zn27	Zn	1.755697	0.763581	0.559004
O28	O	1.081264	0.198536	0.081872
O29	O	1.414598	0.531869	0.415206
O30	O	1.747931	0.865202	0.748539
C31	C	0.920392	0.101797	0.000081
C32	C	1.253726	0.435131	0.333415
C33	C	1.587059	0.768464	0.666748
C34	C	0.818020	0.100292	0.000070
C35	C	1.151354	0.433625	0.333404
C36	C	1.484687	0.766959	0.666737
C37	C	0.443159	0.094751	0.000116
C38	C	0.776492	0.428084	0.333449
C39	C	1.109826	0.761417	0.666783
C40	C	0.547457	0.096290	0.000103
C41	C	0.880791	0.429623	0.333436
C42	C	1.214124	0.762956	0.666770
C43	C	0.630586	0.097521	0.000092
C44	C	0.963920	0.430855	0.333426
C45	C	1.297253	0.764188	0.666759
C46	C	0.734891	0.099060	0.000081
C47	C	1.068225	0.432394	0.333414
C48	C	1.401558	0.765727	0.666748
C49	C	1.096269	-0.030730	0.000124
C50	C	1.429602	0.302603	0.333457
C51	C	1.762935	0.635936	0.666790
C52	C	1.094762	-0.108240	0.000132
C53	C	1.428095	0.225093	0.333465
C54	C	1.761429	0.558427	0.666799
C55	C	1.178095	-0.152867	0.000146
C56	C	1.511429	0.180466	0.333480
C57	C	1.844762	0.513799	0.666813
C58	C	1.176680	-0.225696	0.000131
C59	C	1.510013	0.107637	0.333464
C60	C	1.843347	0.440970	0.666797
C61	C	1.091926	-0.253895	0.000120
C62	C	1.425259	0.079439	0.333453
C63	C	1.758593	0.412772	0.666787
C64	C	1.008582	-0.209257	0.000100
C65	C	1.341915	0.124076	0.333433
C66	C	1.675248	0.457409	0.666767
C67	C	1.009999	-0.136430	0.000106
C68	C	1.343333	0.196903	0.333439
C69	C	1.676666	0.530236	0.666773
N70	N	1.027137	-0.362132	0.055783
N71	N	1.360470	-0.028799	0.389116
N72	N	1.693804	0.304535	0.722449
N73	N	1.025796	-0.431316	0.055779
N74	N	1.359129	-0.097982	0.389112
N75	N	1.692463	0.235351	0.722446
C76	C	1.087649	-0.473318	0.000100
C77	C	1.420982	-0.139985	0.333433
C78	C	1.754316	0.193348	0.666766
N79	N	1.150908	-0.443526	-0.055564
N80	N	1.484242	-0.110192	0.277769
N81	N	1.817575	0.223141	0.611103
N82	N	1.152252	-0.374336	-0.055556
N83	N	1.485586	-0.041003	0.277778
N84	N	1.818919	0.292330	0.611111
C85	C	1.090379	-0.332863	0.000113
C86	C	1.423713	0.000471	0.333446
C87	C	1.757046	0.333804	0.666779
C88	C	1.169454	-0.596916	0.000095
C89	C	1.502787	-0.263582	0.333429
C90	C	1.836120	0.069751	0.666762
C91	C	1.168035	-0.669745	0.000073
C92	C	1.501368	-0.336412	0.333407
C93	C	1.834701	-0.003079	0.666740
C94	C	0.999934	-0.653305	0.000053
C95	C	1.333267	-0.319972	0.333386
C96	C	1.666600	0.013362	0.666719
C97	C	1.001355	-0.580477	0.000065
C98	C	1.334689	-0.247144	0.333398
C99	C	1.668022	0.086190	0.666731
C100	C	1.086118	-0.552287	0.000091
C101	C	1.419451	-0.218953	0.333424
C102	C	1.752784	0.114380	0.666757
C103	C	1.257649	0.092024	0.000118
C104	C	1.590983	0.425357	0.333451
C105	C	1.924316	0.758691	0.666785
C106	C	1.360021	0.093529	0.000123
C107	C	1.693355	0.426862	0.333456
C108	C	2.026688	0.760196	0.666789
C109	C	1.081773	0.224551	0.000076
C110	C	1.415107	0.557885	0.333409
C111	C	1.748440	0.891218	0.666742
C112	C	1.083280	0.302061	0.000061
C113	C	1.416613	0.635395	0.333394
C114	C	1.749947	0.968728	0.666728
N115	N	1.089006	0.096901	0.254956
N116	N	1.422339	0.430235	0.588290
N117	N	1.755672	0.763568	0.921623
N118	N	1.089043	0.096914	-0.254755
N119	N	1.422377	0.430248	0.078579
N120	N	1.755710	0.763581	0.411912
C121	C	1.089029	0.096915	0.656247
C122	C	1.422362	0.430248	0.989581
C123	C	1.755696	0.763582	1.322914
C124	C	1.089020	0.096914	0.544596
C125	C	1.422353	0.430247	0.877929
C126	C	1.755686	0.763580	1.211263
C127	C	1.089018	0.096909	0.455605
C128	C	1.422351	0.430242	0.788939
C129	C	1.755684	0.763575	1.122272
C130	C	1.089008	0.096906	0.343947
C131	C	1.422341	0.430240	0.677280
C132	C	1.755674	0.763573	1.010614
H133	H	1.247116	-0.129920	0.000164
H134	H	1.580449	0.203413	0.333498
H135	H	1.913782	0.536747	0.666831
H136	H	0.930926	-0.676263	0.000039
H137	H	1.264259	-0.342930	0.333372
H138	H	1.597592	-0.009597	0.666706
O139	O	0.928960	-0.093175	0.000141
O140	O	1.262294	0.240158	0.333474
O141	O	1.595627	0.573491	0.666808
C142	C	0.853847	-0.133676	0.000097
C143	C	1.187180	0.199657	0.333431
C144	C	1.520514	0.532991	0.666764
H145	H	0.877470	-0.188006	0.031062
H146	H	1.210804	0.145327	0.364395
H147	H	1.544137	0.478660	0.697729
H148	H	0.827862	-0.138877	-0.078387
H149	H	1.161195	0.194456	0.254946
H150	H	1.494529	0.527789	0.588280
C151	C	0.745974	-0.030771	0.026210
C152	C	1.079307	0.302563	0.359543
C153	C	1.412640	0.635896	0.692877
C154	C	0.774986	-0.097498	0.064249
C155	C	1.108320	0.235835	0.397583
C156	C	1.441653	0.569168	0.730916
H157	H	0.697326	-0.008454	0.065778
H158	H	1.030660	0.324879	0.399111
H159	H	1.363993	0.658213	0.732444
H160	H	0.796578	-0.003484	0.026236
H161	H	1.129911	0.329850	0.359569
H162	H	1.463245	0.663183	0.692902
H163	H	0.724326	-0.035114	-0.039193
H164	H	1.057659	0.298219	0.294140
H165	H	1.390992	0.631552	0.627474
H166	H	0.796644	-0.093153	0.129646
H167	H	1.129978	0.240180	0.462979
H168	H	1.463311	0.573513	0.796312
H169	H	0.724383	-0.124784	0.064236
H170	H	1.057717	0.208550	0.397569
H171	H	1.391050	0.541883	0.730903
H172	H	1.238472	-0.573962	0.000112
H173	H	1.571805	-0.240629	0.333445
H174	H	1.905139	0.092705	0.666779
O175	O	1.257574	-0.269127	0.000282
O176	O	1.590907	0.064206	0.333616
O177	O	1.924241	0.397539	0.666949
C178	C	1.261773	-0.311743	0.085016
C179	C	1.595106	0.021590	0.418350
C180	C	1.928439	0.354923	0.751683
H181	H	1.188581	-0.315519	0.113241
H182	H	1.521914	0.017814	0.446574
H183	H	1.855247	0.351148	0.779908
H184	H	1.303784	-0.287741	0.144353
H185	H	1.637117	0.045592	0.477687
H186	H	1.970450	0.378926	0.811020
C187	C	1.398375	-0.380982	0.024628
C188	C	1.731709	-0.047649	0.357961
C189	C	2.065042	0.285685	0.691294
C190	C	1.308479	-0.385624	0.059289
C191	C	1.641812	-0.052290	0.392622
C192	C	1.975146	0.281043	0.725956
H193	H	1.427190	-0.426554	0.008760
H194	H	1.760523	-0.093221	0.342094
H195	H	2.093856	0.240113	0.675427
H196	H	1.395549	-0.352269	-0.032458
H197	H	1.728883	-0.018936	0.300875
H198	H	2.062216	0.314397	0.634209
H199	H	1.433373	-0.360977	0.074081
H200	H	1.766706	-0.027644	0.407414
H201	H	2.100039	0.305690	0.740748
H202	H	1.273480	-0.405620	0.009832
H203	H	1.606813	-0.072287	0.343165
H204	H	1.940147	0.261047	0.676498
H205	H	1.311300	-0.414342	0.116366
H206	H	1.644634	-0.081008	0.449699
H207	H	1.977967	0.252325	0.783033
O208	O	1.249075	-0.712999	0.000130
O209	O	1.582408	-0.379666	0.333463
O210	O	1.915741	-0.046333	0.666797
C211	C	1.324186	-0.672497	0.000131
C212	C	1.657519	-0.339163	0.333465
C213	C	1.990853	-0.005830	0.666798
H214	H	1.300552	-0.618180	0.031103
H215	H	1.633885	-0.284846	0.364437
H216	H	1.967218	0.048487	0.697770
H217	H	1.350194	-0.667263	-0.078340
H218	H	1.683528	-0.333930	0.254993
H219	H	2.016861	-0.000596	0.588326
C220	C	1.432055	-0.775411	0.026257
C221	C	1.765388	-0.442077	0.359590
C222	C	2.098722	-0.108744	0.692923
C223	C	1.403029	-0.708699	0.064305
C224	C	1.736362	-0.375366	0.397638
C225	C	2.069695	-0.042033	0.730972
H226	H	1.480691	-0.797743	0.065838
H227	H	1.814025	-0.464409	0.399171
H228	H	2.147358	-0.131076	0.732504
H229	H	1.381452	-0.802699	0.026252
H230	H	1.714785	-0.469366	0.359585
H231	H	2.048119	-0.136032	0.692919
H232	H	1.453723	-0.771040	-0.039136
H233	H	1.787056	-0.437707	0.294198
H234	H	2.120389	-0.104373	0.627531
H235	H	1.381351	-0.713071	0.129691
H236	H	1.714685	-0.379738	0.463024
H237	H	2.048018	-0.046405	0.796358
H238	H	1.453630	-0.681412	0.064322
H239	H	1.786964	-0.348079	0.397655
H240	H	2.120297	-0.014746	0.730989
H241	H	0.933496	-0.544140	0.000058
H242	H	1.266829	-0.210807	0.333392
H243	H	1.600162	0.122527	0.666725
H244	H	0.939574	-0.232221	0.000089
H245	H	1.272908	0.101112	0.333422
H246	H	1.606241	0.434445	0.666756
