data_functionalizedCrystal
_audit_creation_method	'MofGen! by Chris Wilmer'
_symmetry_space_group_name_H-M	'P1'
_symmetry_Int_Tables_number	1
_symmetry_cell_setting	triclinic
loop_
_symmetry_equiv_pos_as_xyz
  x,y,z
_cell_length_a	21.395364
_cell_length_b	21.395361
_cell_length_c	21.395355
_cell_angle_alpha	89.978489
_cell_angle_beta	89.975273
_cell_angle_gamma	90.029041
loop_
_atom_site_label
_atom_site_type_symbol
_atom_site_fract_x
_atom_site_fract_y
_atom_site_fract_z
Zn1	Zn	0.957859	-0.249539	-0.354251
Zn2	Zn	1.291192	0.083794	-0.020918
Zn3	Zn	1.624526	0.417128	0.312415
Zn4	Zn	0.957762	-0.354299	-0.249468
Zn5	Zn	1.291095	-0.020965	0.083865
Zn6	Zn	1.624428	0.312368	0.417198
Zn7	Zn	0.853074	-0.249536	-0.249488
Zn8	Zn	1.186407	0.083797	0.083846
Zn9	Zn	1.519741	0.417131	0.417179
Zn10	Zn	0.853043	-0.354280	-0.354208
Zn11	Zn	1.186377	-0.020946	-0.020875
Zn12	Zn	1.519710	0.312387	0.312458
O13	O	0.905434	-0.301913	-0.301854
O14	O	1.238768	0.031420	0.031479
O15	O	1.572101	0.364753	0.364813
O16	O	1.045524	-0.263445	-0.340362
O17	O	1.378857	0.069888	-0.007028
O18	O	1.712191	0.403222	0.326305
O19	O	0.943847	-0.340409	-0.161793
O20	O	1.277180	-0.007075	0.171540
O21	O	1.610513	0.326258	0.504874
O22	O	0.867028	-0.161859	-0.263411
O23	O	1.200361	0.171475	0.069922
O24	O	1.533694	0.504808	0.403256
O25	O	1.045452	-0.340411	-0.263378
O26	O	1.378786	-0.007078	0.069955
O27	O	1.712119	0.326255	0.403289
O28	O	0.944013	-0.161861	-0.340380
O29	O	1.277346	0.171473	-0.007047
O30	O	1.610679	0.504806	0.326286
O31	O	0.866933	-0.263440	-0.161807
O32	O	1.200266	0.069893	0.171526
O33	O	1.533600	0.403227	0.504859
O34	O	0.765392	-0.263421	-0.263369
O35	O	1.098725	0.069912	0.069964
O36	O	1.432059	0.403245	0.403298
O37	O	0.866975	-0.340379	-0.441892
O38	O	1.200308	-0.007045	-0.108558
O39	O	1.533642	0.326288	0.224775
O40	O	0.765369	-0.340376	-0.340307
O41	O	1.098703	-0.007043	-0.006974
O42	O	1.432036	0.326291	0.326360
O43	O	0.943983	-0.263426	-0.441923
O44	O	1.277316	0.069907	-0.108590
O45	O	1.610650	0.403240	0.224743
O46	O	0.943817	-0.441974	-0.263336
O47	O	1.277150	-0.108641	0.069997
O48	O	1.610483	0.224693	0.403331
O49	O	0.866881	-0.441960	-0.340288
O50	O	1.200214	-0.108627	-0.006955
O51	O	1.533547	0.224707	0.326379
C52	C	0.742647	-0.301897	-0.301836
C53	C	1.075980	0.031437	0.031498
C54	C	1.409313	0.364770	0.364831
C55	C	0.673006	-0.301905	-0.301843
C56	C	1.006339	0.031429	0.031490
C57	C	1.339672	0.364762	0.364824
C58	C	0.905352	-0.464701	-0.301819
C59	C	1.238685	-0.131368	0.031514
C60	C	1.572018	0.201966	0.364848
C61	C	0.905374	-0.534342	-0.301825
C62	C	1.238707	-0.201009	0.031508
C63	C	1.572040	0.132324	0.364842
C64	C	0.171214	-0.342057	-0.341877
C65	C	0.504547	-0.008724	-0.008543
C66	C	0.837881	0.324610	0.324790
C67	C	0.236649	-0.342057	-0.341870
C68	C	0.569983	-0.008724	-0.008537
C69	C	0.903316	0.324610	0.324797
C70	C	0.269367	-0.301927	-0.301874
C71	C	0.602701	0.031406	0.031460
C72	C	0.936034	0.364740	0.364793
C73	C	0.236644	-0.261805	-0.261870
C74	C	0.569978	0.071528	0.071464
C75	C	0.903311	0.404861	0.404797
C76	C	0.171210	-0.261811	-0.261873
C77	C	0.504543	0.071523	0.071460
C78	C	0.837877	0.404856	0.404794
C79	C	0.373056	-0.245462	-0.297025
C80	C	0.706389	0.087871	0.036308
C81	C	1.039723	0.421205	0.369641
C82	C	0.438489	-0.245455	-0.297027
C83	C	0.771822	0.087878	0.036307
C84	C	1.105156	0.421211	0.369640
C85	C	0.471188	-0.301911	-0.301860
C86	C	0.804521	0.031423	0.031473
C87	C	1.137855	0.364756	0.364807
C88	C	0.438446	-0.358374	-0.306705
C89	C	0.771779	-0.025041	0.026628
C90	C	1.105113	0.308293	0.359961
C91	C	0.373012	-0.358380	-0.306709
C92	C	0.706345	-0.025046	0.026625
C93	C	1.039678	0.308287	0.359958
C94	C	0.340320	-0.301917	-0.301865
C95	C	0.673653	0.031416	0.031468
C96	C	1.006986	0.364750	0.364801
C97	C	0.574856	-0.342033	-0.341851
C98	C	0.908189	-0.008700	-0.008518
C99	C	1.241522	0.324634	0.324815
C100	C	0.640292	-0.342034	-0.341840
C101	C	0.973626	-0.008701	-0.008507
C102	C	1.306959	0.324632	0.324826
C103	C	0.640286	-0.261777	-0.261843
C104	C	0.973619	0.071557	0.071490
C105	C	1.306953	0.404890	0.404823
C106	C	0.574850	-0.261781	-0.261851
C107	C	0.908184	0.071552	0.071482
C108	C	1.241517	0.404885	0.404816
C109	C	0.542139	-0.301909	-0.301858
C110	C	0.875473	0.031425	0.031475
C111	C	1.208806	0.364758	0.364808
C112	C	0.945470	-0.567042	-0.261797
C113	C	1.278803	-0.233709	0.071536
C114	C	1.612136	0.099625	0.404869
C115	C	0.945499	-0.632477	-0.261811
C116	C	1.278832	-0.299144	0.071522
C117	C	1.612166	0.034189	0.404855
C118	C	0.905421	-0.665211	-0.301847
C119	C	1.238754	-0.331877	0.031487
C120	C	1.572087	0.001456	0.364820
C121	C	0.865322	-0.632503	-0.341882
C122	C	1.198655	-0.299170	-0.008549
C123	C	1.531988	0.034164	0.324785
C124	C	0.865298	-0.567069	-0.341871
C125	C	1.198632	-0.233736	-0.008538
C126	C	1.531965	0.099598	0.324795
C127	C	0.849006	-0.768924	-0.306756
C128	C	1.182339	-0.435591	0.026577
C129	C	1.515673	-0.102257	0.359910
C130	C	0.849029	-0.834357	-0.306763
C131	C	1.182362	-0.501024	0.026571
C132	C	1.515695	-0.167690	0.359904
C133	C	0.905494	-0.867031	-0.301883
C134	C	1.238827	-0.533698	0.031450
C135	C	1.572160	-0.200365	0.364783
C136	C	0.961938	-0.834265	-0.296984
C137	C	1.295271	-0.500931	0.036349
C138	C	1.628605	-0.167598	0.369682
C139	C	0.961915	-0.768830	-0.296974
C140	C	1.295248	-0.435497	0.036360
C141	C	1.628581	-0.102164	0.369693
C142	C	0.905442	-0.736163	-0.301863
C143	C	1.238775	-0.402830	0.031470
C144	C	1.572109	-0.069496	0.364804
C145	C	0.945625	-0.970683	-0.261868
C146	C	1.278958	-0.637350	0.071465
C147	C	1.612291	-0.304017	0.404798
C148	C	0.945655	-1.036120	-0.261887
C149	C	1.278988	-0.702787	0.071446
C150	C	1.612322	-0.369453	0.404780
C151	C	0.865472	-1.036144	-0.341955
C152	C	1.198806	-0.702811	-0.008621
C153	C	1.532139	-0.369478	0.324712
C154	C	0.865448	-0.970709	-0.341939
C155	C	1.198781	-0.637376	-0.008606
C156	C	1.532114	-0.304042	0.324727
C157	C	0.905523	-0.937983	-0.301893
C158	C	1.238856	-0.604649	0.031440
C159	C	1.572190	-0.271316	0.364774
C160	C	1.068858	-0.301931	-0.301872
C161	C	1.402191	0.031403	0.031461
C162	C	1.735524	0.364736	0.364794
C163	C	1.138499	-0.301938	-0.301880
C164	C	1.471832	0.031395	0.031453
C165	C	1.805166	0.364729	0.364786
C166	C	0.905486	-0.301901	-0.465277
C167	C	1.238820	0.031433	-0.131944
C168	C	1.572153	0.364766	0.201389
C169	C	0.905509	-0.301895	-0.534918
C170	C	1.238842	0.031438	-0.201585
C171	C	1.572175	0.364771	0.131748
C172	C	0.905535	-0.138490	-0.301903
C173	C	1.238868	0.194843	0.031431
C174	C	1.572201	0.528177	0.364764
C175	C	0.905577	-0.068849	-0.301923
C176	C	1.238911	0.264485	0.031410
C177	C	1.572244	0.597818	0.364743
C178	C	0.945605	-0.261824	-0.567649
C179	C	1.278938	0.071509	-0.234316
C180	C	1.612271	0.404842	0.099018
C181	C	0.945604	-0.261797	-0.633085
C182	C	1.278937	0.071536	-0.299751
C183	C	1.612271	0.404869	0.033582
C184	C	0.905513	-0.301853	-0.665787
C185	C	1.238847	0.031481	-0.332454
C186	C	1.572180	0.364814	0.000880
C187	C	0.865409	-0.341926	-0.633048
C188	C	1.198743	-0.008593	-0.299715
C189	C	1.532076	0.324740	0.033618
C190	C	0.865407	-0.341948	-0.567614
C191	C	1.198740	-0.008614	-0.234281
C192	C	1.532074	0.324719	0.099052
C193	C	0.900538	-0.358268	-0.769449
C194	C	1.233871	-0.024934	-0.436116
C195	C	1.567204	0.308399	-0.102783
C196	C	0.900544	-0.358247	-0.834882
C197	C	1.233878	-0.024914	-0.501549
C198	C	1.567211	0.308419	-0.168216
C199	C	0.905517	-0.301786	-0.867608
C200	C	1.238851	0.031547	-0.534274
C201	C	1.572184	0.364880	-0.200941
C202	C	0.910497	-0.245344	-0.834892
C203	C	1.243830	0.087989	-0.501559
C204	C	1.577163	0.421323	-0.168225
C205	C	0.910494	-0.245365	-0.769458
C206	C	1.243828	0.087968	-0.436124
C207	C	1.577161	0.421301	-0.102791
C208	C	0.905511	-0.301834	-0.736739
C209	C	1.238845	0.031500	-0.403406
C210	C	1.572178	0.364833	-0.070073
C211	C	0.945615	-0.261683	-0.971291
C212	C	1.278948	0.071650	-0.637958
C213	C	1.612281	0.404984	-0.304624
C214	C	0.945610	-0.261655	-1.036728
C215	C	1.278943	0.071678	-0.703394
C216	C	1.612276	0.405012	-0.370061
C217	C	0.865418	-0.341789	-1.036690
C218	C	1.198752	-0.008456	-0.703357
C219	C	1.532085	0.324877	-0.370023
C220	C	0.865420	-0.341812	-0.971255
C221	C	1.198754	-0.008478	-0.637921
C222	C	1.532087	0.324855	-0.304588
C223	C	0.905522	-0.301759	-0.938559
C224	C	1.238855	0.031574	-0.605226
C225	C	1.572189	0.364907	-0.271892
C226	C	0.905419	-0.301881	-0.139066
C227	C	1.238752	0.031453	0.194267
C228	C	1.572085	0.364786	0.527600
C229	C	0.905518	-0.301710	-0.069425
C230	C	1.238851	0.031624	0.263908
C231	C	1.572185	0.364957	0.597241
H232	H	0.144585	-0.374734	-0.374452
H233	H	0.477918	-0.041401	-0.041118
H234	H	0.811251	0.291933	0.292215
H235	H	0.803022	-0.742327	-0.310732
H236	H	1.136355	-0.408994	0.022601
H237	H	1.469688	-0.075660	0.355935
Cl238	Cl	0.479546	-0.429352	-0.312780
Cl239	Cl	0.812879	-0.096018	0.020553
Cl240	Cl	1.146212	0.237315	0.353887
Cl241	Cl	0.996024	-0.211329	-0.930185
Cl242	Cl	1.329357	0.122004	-0.596851
Cl243	Cl	1.662690	0.455337	-0.263518
H244	H	0.896494	-0.404206	-0.861515
H245	H	1.229827	-0.070873	-0.528181
H246	H	1.563160	0.262460	-0.194848
Cl247	Cl	0.996071	-1.077229	-0.211566
Cl248	Cl	1.329404	-0.743896	0.121767
Cl249	Cl	1.662738	-0.410562	0.455101
H250	H	0.666928	-0.374708	-0.374408
H251	H	1.000261	-0.041375	-0.041075
H252	H	1.333594	0.291958	0.292258
H253	H	0.832773	-0.374446	-0.944605
H254	H	1.166107	-0.041112	-0.611272
H255	H	1.499440	0.292221	-0.277939
H256	H	0.978258	-0.229210	-0.541032
H257	H	1.311591	0.104123	-0.207699
H258	H	1.644925	0.437457	0.125634
Cl259	Cl	1.032928	-0.875333	-0.290843
Cl260	Cl	1.366261	-0.542000	0.042490
Cl261	Cl	1.699594	-0.208666	0.375823
H262	H	0.548221	-0.374708	-0.374427
H263	H	0.881554	-0.041375	-0.041094
H264	H	1.214887	0.291959	0.292240
H265	H	0.548214	-0.229110	-0.229284
H266	H	0.881547	0.104224	0.104050
H267	H	1.214880	0.437557	0.437383
Cl268	Cl	0.814887	-0.525958	-0.392196
Cl269	Cl	1.148220	-0.192625	-0.058863
Cl270	Cl	1.481554	0.140708	0.274471
H271	H	0.832766	-0.374537	-0.659679
H272	H	1.166099	-0.041204	-0.326345
H273	H	1.499432	0.292129	0.006988
Cl274	Cl	0.894304	-0.429256	-0.728316
Cl275	Cl	1.227637	-0.095923	-0.394983
Cl276	Cl	1.560971	0.237410	-0.061649
Cl277	Cl	0.814941	-0.673652	-0.392215
Cl278	Cl	1.148274	-0.340319	-0.058882
Cl279	Cl	1.481607	-0.006986	0.274452
Cl280	Cl	0.996002	-0.211406	-0.674240
Cl281	Cl	1.329335	0.121927	-0.340907
Cl282	Cl	1.662669	0.455261	-0.007574
Cl283	Cl	0.916751	-0.174359	-0.876025
Cl284	Cl	1.250085	0.158974	-0.542691
Cl285	Cl	1.583418	0.492307	-0.209358
Cl286	Cl	0.681411	-0.211333	-0.211556
Cl287	Cl	1.014744	0.122001	0.121778
Cl288	Cl	1.348077	0.455334	0.455111
Cl289	Cl	0.277786	-0.392496	-0.392156
Cl290	Cl	0.611119	-0.059162	-0.058823
Cl291	Cl	0.944452	0.274171	0.274511
Cl292	Cl	0.479644	-0.174473	-0.290944
Cl293	Cl	0.812977	0.158860	0.042389
Cl294	Cl	1.146310	0.492194	0.375722
H295	H	0.346356	-0.404354	-0.310653
H296	H	0.679689	-0.071021	0.022681
H297	H	1.013023	0.262313	0.356014
H298	H	0.914547	-0.199408	-0.742823
H299	H	1.247880	0.133926	-0.409490
H300	H	1.581214	0.467259	-0.076157
H301	H	0.978260	-0.229021	-1.063376
H302	H	1.311593	0.104313	-0.730042
H303	H	1.644926	0.437646	-0.396709
Cl304	Cl	0.815092	-1.077289	-0.392290
Cl305	Cl	1.148425	-0.743955	-0.058956
Cl306	Cl	1.481759	-0.410622	0.274377
H307	H	0.832770	-0.374397	-1.063316
H308	H	1.166103	-0.041063	-0.729982
H309	H	1.499436	0.292270	-0.396649
H310	H	0.144574	-0.229139	-0.229303
H311	H	0.477907	0.104194	0.104031
H312	H	0.811240	0.437528	0.437364
Cl313	Cl	0.331956	-0.174483	-0.290941
Cl314	Cl	0.665289	0.158850	0.042392
Cl315	Cl	0.998622	0.492184	0.375725
Cl316	Cl	0.814997	-0.392327	-0.526465
Cl317	Cl	1.148330	-0.058994	-0.193132
Cl318	Cl	1.481663	0.274340	0.140202
H319	H	0.978103	-0.540398	-0.229191
H320	H	1.311436	-0.207064	0.104143
H321	H	1.644770	0.126269	0.437476
Cl322	Cl	0.277774	-0.211358	-0.211586
Cl323	Cl	0.611108	0.121975	0.121747
Cl324	Cl	0.944441	0.455308	0.455080
Cl325	Cl	0.995908	-0.673594	-0.211485
Cl326	Cl	1.329242	-0.340261	0.121848
Cl327	Cl	1.662575	-0.006928	0.455181
H328	H	0.978259	-0.944036	-0.229262
H329	H	1.311592	-0.610703	0.104071
H330	H	1.644925	-0.277370	0.437404
Cl331	Cl	1.032870	-0.727640	-0.290821
Cl332	Cl	1.366203	-0.394307	0.042512
Cl333	Cl	1.699537	-0.060973	0.375845
Cl334	Cl	0.815035	-0.929599	-0.392260
Cl335	Cl	1.148369	-0.596265	-0.058927
Cl336	Cl	1.481702	-0.262932	0.274406
Cl337	Cl	0.778071	-0.875543	-0.312920
Cl338	Cl	1.111404	-0.542209	0.020414
Cl339	Cl	1.444738	-0.208876	0.353747
