data_functionalizedCrystal
_audit_creation_method	'MofGen! by Chris Wilmer'
_symmetry_space_group_name_H-M	'P1'
_symmetry_Int_Tables_number	1
_symmetry_cell_setting	triclinic
loop_
_symmetry_equiv_pos_as_xyz
  x,y,z
_cell_length_a	16.974800
_cell_length_b	16.956995
_cell_length_c	15.186229
_cell_angle_alpha	89.997115
_cell_angle_beta	93.653458
_cell_angle_gamma	79.729798
loop_
_atom_site_label
_atom_site_type_symbol
_atom_site_fract_x
_atom_site_fract_y
_atom_site_fract_z
O1	O	1.042510	0.101582	0.001096
O2	O	1.542510	0.601582	0.501096
O3	O	0.811456	0.114540	-0.015378
O4	O	1.311456	0.614540	0.484622
O5	O	0.940863	-0.008033	-0.006148
O6	O	1.440863	0.491967	0.493852
O7	O	0.913102	0.224156	-0.008134
O8	O	1.413102	0.724156	0.491866
O9	O	0.940855	-0.008035	0.140309
O10	O	1.440855	0.491965	0.640309
O11	O	0.811448	0.114539	0.131079
O12	O	1.311448	0.614539	0.631079
O13	O	1.042502	0.101580	0.147553
O14	O	1.542502	0.601580	0.647553
Zn15	Zn	0.926973	0.108059	0.162569
Zn16	Zn	1.426973	0.608059	0.662569
Zn17	Zn	0.926984	0.108062	-0.030394
Zn18	Zn	1.426984	0.608062	0.469606
O19	O	0.913094	0.224154	0.138323
O20	O	1.413094	0.724154	0.638323
C21	C	0.782025	0.114049	0.055753
C22	C	1.282025	0.614049	0.555753
C23	C	0.694344	0.112576	0.049501
C24	C	1.194344	0.612576	0.549501
C25	C	0.942280	-0.037744	0.067181
C26	C	1.442280	0.462256	0.567181
C27	C	0.946506	-0.126269	0.067479
C28	C	1.446506	0.373731	0.567479
C29	C	0.653152	0.111882	0.126400
C30	C	1.153152	0.611882	0.626400
C31	C	0.570770	0.110486	0.120528
C32	C	1.070770	0.610486	0.620528
C33	C	0.529579	0.109790	0.037758
C34	C	1.029579	0.609790	0.537758
C35	C	0.570777	0.110482	-0.039147
C36	C	1.070777	0.610482	0.460853
C37	C	0.653160	0.111873	-0.033275
C38	C	1.153160	0.611873	0.466725
C39	C	0.283193	0.105627	0.011634
C40	C	0.783193	0.605627	0.511634
C41	C	0.200805	0.104239	0.005768
C42	C	0.700805	0.604239	0.505768
C43	C	0.200803	0.104241	0.165444
C44	C	0.700803	0.604241	0.665444
C45	C	0.283186	0.105636	0.171309
C46	C	0.783186	0.605636	0.671309
C47	C	0.324378	0.106324	0.094404
C48	C	0.824378	0.606324	0.594404
N49	N	0.445370	0.108366	0.031754
N50	N	0.945370	0.608366	0.531754
N51	N	0.408586	0.107743	0.100409
N52	N	0.908586	0.607743	0.600409
C53	C	0.978119	-0.625606	0.069730
C54	C	1.478119	-0.125606	0.569730
C55	C	0.974143	-0.542426	0.069452
C56	C	1.474143	-0.042426	0.569452
C57	C	0.899497	-0.491252	0.064125
C58	C	1.399497	0.008748	0.564125
C59	C	0.828823	-0.523261	0.059086
C60	C	1.328823	-0.023261	0.559086
C61	C	0.832801	-0.606440	0.059371
C62	C	1.332801	-0.106440	0.559371
C63	C	0.879810	-0.241457	0.062724
C64	C	1.379810	0.258543	0.562724
C65	C	0.875838	-0.158273	0.062438
C66	C	1.375838	0.341727	0.562438
C67	C	1.021158	-0.177444	0.072805
C68	C	1.521158	0.322556	0.572805
C69	C	1.025129	-0.260623	0.073084
C70	C	1.525129	0.239377	0.573084
C71	C	0.954455	-0.292625	0.068049
C72	C	1.454455	0.207375	0.568049
N73	N	0.895430	-0.406229	0.063838
N74	N	1.395430	0.093771	0.563838
N75	N	0.958523	-0.377647	0.068343
N76	N	1.458523	0.122353	0.568343
C77	C	1.071932	0.102072	0.076421
C78	C	1.571932	0.602072	0.576421
C79	C	1.159613	0.103544	0.082666
C80	C	1.659613	0.603544	0.582666
C81	C	0.911677	0.253865	0.064992
C82	C	1.411677	0.753865	0.564992
C83	C	0.907451	0.342390	0.064688
C84	C	1.407451	0.842390	0.564688
N85	N	0.926972	0.108057	0.294262
N86	N	1.426972	0.608057	0.794262
N87	N	0.926992	0.108057	-0.162086
N88	N	1.426992	0.608057	0.337914
C89	C	0.984291	0.053800	0.524073
C90	C	1.484291	0.553800	1.024073
C91	C	0.984293	0.053798	0.616263
C92	C	1.484293	0.553798	1.116263
C93	C	0.869667	0.162317	0.608096
C94	C	1.369667	0.662317	1.108096
C95	C	0.869662	0.162315	0.515908
C96	C	1.369662	0.662315	1.015908
C97	C	0.926978	0.108057	0.473899
C98	C	1.426978	0.608057	0.973899
C99	C	0.926986	0.108058	0.658277
C100	C	1.426986	0.608058	1.158277
C101	C	0.926988	0.108056	0.758233
C102	C	1.426988	0.608056	1.258233
C103	C	0.926975	0.108057	0.373936
C104	C	1.426975	0.608057	0.873936
H105	H	0.537237	0.109907	0.183148
H106	H	1.037237	0.609907	0.683148
H107	H	0.822987	0.206498	0.475053
H108	H	1.322987	0.706498	0.975053
H109	H	0.823003	0.206494	0.642309
H110	H	1.323003	0.706494	1.142309
H111	H	0.537235	0.109910	-0.106541
H112	H	1.037235	0.609910	0.393459
O113	O	0.327612	0.106373	-0.071311
O114	O	0.827612	0.606373	0.428689
H115	H	0.354551	0.161329	-0.073212
H116	H	0.854551	0.661329	0.426788
O117	O	0.697570	0.112642	0.215678
O118	O	1.197570	0.612642	0.715678
H119	H	0.745712	0.058954	0.222936
H120	H	1.245712	0.558954	0.722936
O121	O	1.097378	-0.142921	0.078242
O122	O	1.597378	0.357079	0.578242
H123	H	1.132984	-0.163475	0.021086
H124	H	1.632984	0.336525	0.521086
H125	H	0.686697	0.112440	-0.095894
H126	H	1.186697	0.612440	0.404106
H127	H	0.167256	0.103679	0.228055
H128	H	0.667256	0.603679	0.728055
O129	O	0.327606	0.106424	0.260582
O130	O	0.827606	0.606424	0.760582
H131	H	0.285120	0.105715	0.313070
H132	H	0.785120	0.605715	0.813070
H133	H	1.038904	-0.667267	0.074060
H134	H	1.538904	-0.167267	0.574060
H135	H	0.167269	0.103675	-0.061638
H136	H	0.667269	0.603675	0.438362
H137	H	1.031688	-0.516373	0.073558
H138	H	1.531688	-0.016373	0.573558
O139	O	1.105644	-0.315811	0.078843
O140	O	1.605644	0.184189	0.578843
H141	H	1.139733	-0.304436	0.021588
H142	H	1.639733	0.195564	0.521588
O143	O	0.795323	-0.103073	0.056701
O144	O	1.295323	0.396927	0.556701
H145	H	0.746847	-0.139299	0.053257
H146	H	1.246847	0.360701	0.553257
H147	H	0.822262	-0.267502	0.058614
H148	H	1.322262	0.232498	0.558614
O149	O	0.748309	-0.468072	0.053343
O150	O	1.248309	0.031928	0.553343
H151	H	0.757414	-0.404855	0.053984
H152	H	1.257414	0.095145	0.553984
O153	O	1.046109	-0.004721	0.670383
O154	O	1.546109	0.495279	1.170383
H155	H	1.082337	0.028830	0.714965
H156	H	1.582337	0.528830	1.214965
O157	O	0.756581	-0.640965	0.053929
O158	O	1.256581	-0.140965	0.553929
H159	H	0.704006	-0.591408	0.050170
H160	H	1.204006	-0.091408	0.550170
H161	H	1.030960	0.009619	0.489871
H162	H	1.530960	0.509619	0.989871
