data_functionalizedCrystal
_audit_creation_method	'MofGen! by Chris Wilmer'
_symmetry_space_group_name_H-M	'P1'
_symmetry_Int_Tables_number	1
_symmetry_cell_setting	triclinic
loop_
_symmetry_equiv_pos_as_xyz
  x,y,z
_cell_length_a	12.837936
_cell_length_b	9.730223
_cell_length_c	10.654559
_cell_angle_alpha	90.001240
_cell_angle_beta	90.340656
_cell_angle_gamma	90.000608
loop_
_atom_site_label
_atom_site_type_symbol
_atom_site_fract_x
_atom_site_fract_y
_atom_site_fract_z
O1	O	-1.377807	-0.114291	0.326760
O2	O	-1.075884	-0.114291	0.310616
O3	O	-1.233782	-0.114290	0.136706
O4	O	-1.219909	-0.114291	0.500669
O5	O	-1.233780	0.114289	0.136711
O6	O	-1.075883	0.114289	0.310620
O7	O	-1.377805	0.114289	0.326764
Zn8	Zn	-1.226843	0.150581	0.318693
Zn9	Zn	-1.226846	-0.150583	0.318687
O10	O	-1.219907	0.114289	0.500674
C11	C	-1.037223	-0.000001	0.305165
C12	C	-0.922029	-0.000001	0.288901
C13	C	-0.771205	0.000003	0.152969
C14	C	-0.879442	0.000002	0.168243
C15	C	-0.856372	0.000002	0.394294
C16	C	-0.748135	0.000004	0.379021
C17	C	-0.705556	0.000002	0.258355
C18	C	-0.597318	-0.000006	0.243083
C19	C	-0.574250	0.000005	0.469133
C20	C	-0.682486	0.000003	0.484406
N21	N	-1.226849	0.356118	0.318697
C22	C	-1.232761	-0.000003	0.089799
C23	C	-1.229707	-0.000012	-0.049977
C24	C	-0.416466	-0.000001	0.332214
C25	C	-0.531660	-0.000003	0.348476
N26	N	-1.226848	-0.356119	0.318674
C27	C	-1.296785	0.428044	0.241721
C28	C	-1.296782	0.571927	0.241706
C29	C	-1.156905	0.571945	0.395653
C30	C	-1.156904	0.428065	0.395661
C31	C	-1.377544	0.428035	0.152845
C32	C	-1.377542	0.571917	0.152829
C33	C	-1.133869	-0.000016	-0.111976
C34	C	-1.131006	-0.000005	-0.243310
C35	C	-1.319828	0.000006	-0.250635
C36	C	-1.322689	0.000006	-0.119303
C37	C	-1.024854	-0.000028	-0.107748
C38	C	-1.021991	-0.000018	-0.239082
C39	C	-1.220928	-0.000001	0.547581
C40	C	-1.223982	-0.000001	0.687357
H41	H	-0.562652	-0.000013	0.144830
Br42	Br	-1.510426	0.637018	0.203180
Br43	Br	-1.446012	0.000038	-0.344729
H44	H	-0.520786	0.000003	0.554946
H45	H	-1.099948	0.369504	0.458329
H46	H	-1.352332	0.616533	0.058856
Br47	Br	-0.740282	0.000006	0.648159
Br48	Br	-1.452760	0.000019	-0.035164
H49	H	-0.932890	0.000003	0.082426
H50	H	-0.983771	0.095626	-0.070481
Br51	Br	-0.950939	-0.159446	-0.295802
H52	H	-0.987252	0.098668	-0.278498
H53	H	-0.736537	-0.000012	0.054718
Br54	Br	-0.914176	0.000010	0.558042
H55	H	-1.359828	0.388980	0.054379
Br56	Br	-1.061981	0.669594	0.500096
Br57	Br	-0.969971	-0.164529	-0.037656
H58	H	-1.452872	0.383408	0.191654
