data_functionalizedCrystal
_audit_creation_method	'MofGen! by Chris Wilmer'
_symmetry_space_group_name_H-M	'P1'
_symmetry_Int_Tables_number	1
_symmetry_cell_setting	triclinic
loop_
_symmetry_equiv_pos_as_xyz
  x,y,z
_cell_length_a	12.759401
_cell_length_b	12.759400
_cell_length_c	12.759393
_cell_angle_alpha	90.031564
_cell_angle_beta	90.018496
_cell_angle_gamma	90.014845
loop_
_atom_site_label
_atom_site_type_symbol
_atom_site_fract_x
_atom_site_fract_y
_atom_site_fract_z
Zn1	Zn	1.606255	-0.418200	0.593981
Zn2	Zn	1.606150	-0.593919	0.418301
Zn3	Zn	1.430557	-0.418255	0.418321
Zn4	Zn	1.430546	-0.593838	0.593943
O5	O	1.518377	-0.506053	0.506137
O6	O	1.753262	-0.441520	0.570685
O7	O	1.582818	-0.570673	0.271283
O8	O	1.453913	-0.271226	0.441647
O9	O	1.753185	-0.570620	0.441614
O10	O	1.582998	-0.271186	0.570704
O11	O	1.453811	-0.441614	0.271297
O12	O	1.283535	-0.441535	0.441609
O13	O	1.453894	-0.570482	0.740969
O14	O	1.283527	-0.570536	0.570638
O15	O	1.582987	-0.441442	0.740997
O16	O	1.582807	-0.740929	0.441577
O17	O	1.453791	-0.740870	0.570620
C18	C	1.245410	-0.506033	0.506122
C19	C	1.128633	-0.506050	0.506141
C20	C	1.073794	-0.573328	0.573215
C21	C	0.964070	-0.573342	0.573227
C22	C	0.964034	-0.438796	0.439081
C23	C	1.073756	-0.438778	0.439075
C24	C	1.073815	-0.651010	0.650660
C25	C	0.964091	-0.651024	0.650672
C26	C	1.518315	-0.779020	0.506115
C27	C	1.518384	-0.895797	0.506140
C28	C	1.585637	-0.950655	0.439022
C29	C	1.585702	-1.060379	0.439054
C30	C	1.451252	-1.060377	0.573327
C31	C	1.451193	-0.950655	0.573299
C32	C	1.652828	-0.895797	0.371864
C33	C	1.720086	-0.950655	0.304739
C34	C	1.720150	-1.060379	0.304771
C35	C	1.652957	-1.115245	0.371929
C36	C	1.792410	-0.506073	0.506152
C37	C	1.909187	-0.506082	0.506158
C38	C	1.518451	-0.505947	0.780170
C39	C	1.518482	-0.505902	0.896947
C40	C	1.518468	-0.232019	0.506182
C41	C	1.518507	-0.115243	0.506201
C42	C	1.518364	-0.506083	0.233169
C43	C	1.518537	-0.505832	0.116393
C44	C	1.585710	-0.438704	0.951825
C45	C	1.585735	-0.438666	1.061549
C46	C	1.451301	-0.573033	1.061507
C47	C	1.451272	-0.573064	0.951785
C48	C	1.663328	-0.361131	0.951851
C49	C	1.663353	-0.361093	1.061575
H50	H	0.919339	-0.384025	0.384479
C51	C	1.114095	-0.621691	0.760629
C52	C	1.084968	-0.690009	0.855720
C53	C	1.125248	-0.660689	0.965685
C54	C	1.194656	-0.563051	0.980558
C55	C	1.223787	-0.494726	0.885464
C56	C	1.183506	-0.524046	0.775499
H57	H	1.033585	-0.762292	0.844713
H58	H	1.103683	-0.711268	1.036080
H59	H	1.224474	-0.541346	1.061961
H60	H	1.275170	-0.422443	0.896471
H61	H	1.205071	-0.473468	0.705104
H62	H	1.634239	-0.283784	1.095623
H63	H	1.107829	-0.728262	0.621376
C64	C	0.918150	-0.611789	0.755164
C65	C	0.991829	-0.578155	0.844691
C66	C	0.945886	-0.538917	0.949177
C67	C	0.826264	-0.533313	0.964137
C68	C	0.752577	-0.566948	0.874607
C69	C	0.798520	-0.606186	0.770121
H70	H	1.080387	-0.582303	0.833619
H71	H	1.000434	-0.514018	1.015453
H72	H	0.792254	-0.504267	1.041484
H73	H	0.664019	-0.562801	0.885679
H74	H	0.743972	-0.631085	0.703845
H75	H	0.934295	-0.732373	0.628740
C76	C	1.794135	-1.120723	0.230942
C77	C	1.785610	-1.105743	0.111495
C78	C	1.859595	-1.166084	0.037660
C79	C	1.942104	-1.241405	0.083272
C80	C	1.950633	-1.256389	0.202725
C81	C	1.876648	-1.196047	0.276560
H82	H	1.724529	-1.049983	0.077725
H83	H	1.853281	-1.154992	-0.050768
H84	H	1.996872	-1.286073	0.028614
H85	H	2.011714	-1.312149	0.236495
H86	H	1.882962	-1.207139	0.364988
C87	C	1.773265	-0.390547	1.101826
C88	C	1.787929	-0.488171	1.171203
C89	C	1.897833	-0.517628	1.211459
C90	C	1.993074	-0.449461	1.182338
C91	C	1.978413	-0.351832	1.112958
C92	C	1.868509	-0.322375	1.072701
H93	H	1.717423	-0.538637	1.192763
H94	H	1.908685	-0.589900	1.262820
H95	H	2.074431	-0.471267	1.212139
H96	H	2.048919	-0.301365	1.091397
H97	H	1.857657	-0.250103	1.021341
H98	H	1.652780	-0.806454	0.371827
H99	H	1.774798	-0.905977	0.250068
H100	H	1.653024	-1.204589	0.371958
C101	C	1.377337	-1.120726	0.647189
C102	C	1.377397	-1.241416	0.647218
C103	C	1.303479	-1.301764	0.721080
C104	C	1.229501	-1.241422	0.794912
C105	C	1.229439	-1.120725	0.794886
C106	C	1.303357	-1.060377	0.721024
H107	H	1.432163	-1.286091	0.592560
H108	H	1.303526	-1.391112	0.721099
H109	H	1.174783	-1.286095	0.849589
H110	H	1.174673	-1.076050	0.849543
H111	H	1.303310	-0.971030	0.721005
H112	H	1.396525	-0.627780	0.907107
C113	C	1.377210	-0.890299	0.647120
C114	C	1.257786	-0.905478	0.638445
C115	C	1.183804	-0.845120	0.712269
C116	C	1.229247	-0.769583	0.794769
C117	C	1.348677	-0.754401	0.803449
C118	C	1.422659	-0.814759	0.729624
H119	H	1.224141	-0.961398	0.577370
H120	H	1.095394	-0.856359	0.705843
H121	H	1.174481	-0.724902	0.849418
H122	H	1.382322	-0.698481	0.864523
H123	H	1.511070	-0.803520	0.736050
C124	C	1.377377	-0.646913	1.121832
C125	C	1.377403	-0.646880	1.242522
C126	C	1.303478	-0.720764	1.302843
C127	C	1.229528	-0.794681	1.242475
C128	C	1.229500	-0.794717	1.121778
C129	C	1.303424	-0.720833	1.061457
H130	H	1.432148	-0.592160	1.287216
H131	H	1.303499	-0.720737	1.392191
H132	H	1.174804	-0.849374	1.287129
H133	H	1.174755	-0.849438	1.077084
H134	H	1.303403	-0.720861	0.972108
C135	C	1.633912	-0.251221	0.911641
C136	C	1.702154	-0.156010	0.940825
C137	C	1.672738	-0.046104	0.900616
C138	C	1.575080	-0.031408	0.831222
C139	C	1.506832	-0.126622	0.802034
C140	C	1.536248	-0.236528	0.842243
H141	H	1.774452	-0.166886	0.992198
H142	H	1.723260	0.024380	0.922223
H143	H	1.553304	0.049952	0.801456
H144	H	1.434534	-0.115746	0.750661
H145	H	1.485726	-0.307012	0.820636
C146	C	1.134072	-0.364771	0.365288
C147	C	1.118997	-0.245348	0.374066
C148	C	1.179310	-0.171339	0.300270
C149	C	1.254699	-0.216754	0.217696
C150	C	1.269778	-0.336183	0.208914
C151	C	1.209464	-0.410192	0.282710
H152	H	1.063187	-0.211724	0.435196
H153	H	1.168148	-0.082929	0.306772
H154	H	1.299346	-0.161968	0.163068
H155	H	1.325588	-0.369807	0.147785
H156	H	1.220627	-0.498601	0.276209
H157	H	1.740599	-0.390300	0.917815
