data_functionalizedCrystal
_audit_creation_method	'MofGen! by Chris Wilmer'
_symmetry_space_group_name_H-M	'P1'
_symmetry_Int_Tables_number	1
_symmetry_cell_setting	triclinic
loop_
_symmetry_equiv_pos_as_xyz
  x,y,z
_cell_length_a	12.759395
_cell_length_b	16.959453
_cell_length_c	12.759387
_cell_angle_alpha	90.034440
_cell_angle_beta	90.019431
_cell_angle_gamma	90.024666
loop_
_atom_site_label
_atom_site_type_symbol
_atom_site_fract_x
_atom_site_fract_y
_atom_site_fract_z
Zn1	Zn	1.606195	-0.314643	0.593948
Zn2	Zn	1.606054	-0.446843	0.418258
Zn3	Zn	1.430493	-0.314682	0.418288
Zn4	Zn	1.430454	-0.446783	0.593900
O5	O	1.518299	-0.380738	0.506099
O6	O	1.753197	-0.332189	0.570650
O7	O	1.582723	-0.429353	0.271240
O8	O	1.453875	-0.204066	0.441623
O9	O	1.753094	-0.429315	0.441571
O10	O	1.582963	-0.204037	0.570680
O11	O	1.453739	-0.332255	0.271263
O12	O	1.283467	-0.332197	0.441576
O13	O	1.453809	-0.429213	0.740928
O14	O	1.283438	-0.429251	0.570597
O15	O	1.582925	-0.332130	0.740963
O16	O	1.582686	-0.557446	0.441524
O17	O	1.453673	-0.557402	0.570567
C18	C	1.245332	-0.380722	0.506086
C19	C	1.128555	-0.380735	0.506105
C20	C	1.128643	-0.279760	0.640732
C21	C	1.073826	-0.229282	0.708054
C22	C	0.964105	-0.229296	0.708068
C23	C	0.909197	-0.279792	0.640749
C24	C	0.964014	-0.330269	0.573427
C25	C	1.073738	-0.330252	0.573423
C26	C	0.963926	-0.431239	0.438796
C27	C	1.073648	-0.431230	0.438786
C28	C	0.909019	-0.481735	0.371477
C29	C	0.963835	-0.532218	0.304159
C30	C	1.073564	-0.532202	0.304150
C31	C	1.128464	-0.481708	0.371464
C32	C	1.518188	-0.586104	0.506060
C33	C	1.518237	-0.673961	0.506078
C34	C	1.451033	-0.715241	0.573218
C35	C	1.585494	-0.715234	0.438962
C36	C	1.585546	-0.797780	0.438981
C37	C	1.518342	-0.839060	0.506121
C38	C	1.451086	-0.797794	0.573241
C39	C	1.652808	-0.839052	0.371870
C40	C	1.652864	-0.921603	0.371887
C41	C	1.585654	-0.962885	0.439022
C42	C	1.518394	-0.921614	0.506144
C43	C	1.451190	-0.962894	0.573284
C44	C	1.383924	-0.921624	0.640402
C45	C	1.383875	-0.839076	0.640377
C46	C	1.585702	-1.045433	0.439047
C47	C	1.451242	-1.045447	0.573307
C48	C	1.792332	-0.380754	0.506112
C49	C	1.909109	-0.380761	0.506118
C50	C	1.518378	-0.380661	0.780132
C51	C	1.518412	-0.380628	0.896909
C52	C	1.518439	-0.174570	0.506160
C53	C	1.518498	-0.086713	0.506187
C54	C	1.518281	-0.380758	0.233131
C55	C	1.518450	-0.380569	0.116355
C56	C	1.652870	-0.279542	0.896966
C57	C	1.720113	-0.228987	0.951855
C58	C	1.720139	-0.228958	1.061577
C59	C	1.652911	-0.279488	1.116412
C60	C	1.585668	-0.330043	1.061522
C61	C	1.585652	-0.330068	0.951798
C62	C	1.451207	-0.431123	1.061466
C63	C	1.451185	-0.431157	0.951744
C64	C	1.383980	-0.481653	1.116301
C65	C	1.316740	-0.532213	1.061411
C66	C	1.316718	-0.532240	0.951683
C67	C	1.383942	-0.481712	0.896855
H68	H	1.118544	-0.188168	0.762862
C69	C	1.726847	-0.966992	0.298047
N70	N	1.782568	-1.001180	0.242426
H71	H	1.383935	-0.481732	0.807514
C72	C	1.652944	-0.279454	1.237108
N73	N	1.652972	-0.279431	1.328019
C74	C	1.249340	-0.279745	0.640732
N75	N	1.340250	-0.279733	0.640732
H76	H	1.217805	-0.481687	0.371458
C77	C	1.377310	-1.090849	0.647167
N78	N	1.321625	-1.125045	0.702800
H79	H	0.919121	-0.573324	0.249349
H80	H	1.652865	-0.279568	0.807624
H81	H	1.640475	-1.079031	0.384407
H82	H	1.640215	-0.681622	0.384304
H83	H	1.329212	-0.955245	0.695072
C84	C	0.903805	-0.173769	0.782125
N85	N	0.858387	-0.131946	0.837907
C86	C	1.242790	-0.587782	1.121736
N87	N	1.187089	-0.629638	1.167178
H88	H	0.819856	-0.279792	0.640757
H89	H	1.384001	-0.481623	1.205642
C90	C	1.309898	-0.793674	0.714208
N91	N	1.254183	-0.759473	0.769821
C92	C	0.788322	-0.481748	0.371493
N93	N	0.697411	-0.481761	0.371505
H94	H	1.118189	-0.573305	0.249324
H95	H	1.774846	-0.187846	0.907196
C96	C	1.794109	-0.173347	1.121956
N97	N	1.849826	-0.131460	1.167434
C98	C	1.377046	-0.669845	0.647046
N99	N	1.321320	-0.635651	0.702656
H100	H	1.707529	-0.805439	0.317212
C101	C	1.242742	-0.587854	0.891314
N102	N	1.187022	-0.629744	0.845847
