data_functionalizedCrystal
_audit_creation_method	'MofGen! by Chris Wilmer'
_symmetry_space_group_name_H-M	'P1'
_symmetry_Int_Tables_number	1
_symmetry_cell_setting	triclinic
loop_
_symmetry_equiv_pos_as_xyz
  x,y,z
_cell_length_a	17.038272
_cell_length_b	22.010155
_cell_length_c	17.019234
_cell_angle_alpha	93.885805
_cell_angle_beta	87.240293
_cell_angle_gamma	90.010089
loop_
_atom_site_label
_atom_site_type_symbol
_atom_site_fract_x
_atom_site_fract_y
_atom_site_fract_z
O1	O	1.037223	0.059415	0.171287
O2	O	0.809595	0.059290	0.168567
O3	O	0.929766	0.053360	0.055520
O4	O	0.917053	0.065345	0.284335
O5	O	0.929730	-0.047691	0.055517
O6	O	0.809559	-0.041760	0.168565
O7	O	1.037187	-0.041636	0.171285
Cu8	Cu	0.923370	-0.050925	0.169925
Cu9	Cu	0.923413	0.068579	0.169928
O10	O	0.917016	-0.035705	0.284332
C11	C	0.780451	0.008638	0.166092
C12	C	0.693665	0.008258	0.158712
C13	C	0.643489	0.011807	0.226473
C14	C	0.561945	0.011435	0.219533
C15	C	0.530578	0.007519	0.144832
C16	C	0.580761	0.003968	0.077067
C17	C	0.662303	0.004335	0.084007
C18	C	0.284843	0.006218	0.120314
C19	C	0.203293	0.005853	0.113379
C20	C	0.184483	0.013319	0.255847
C21	C	0.266028	0.013690	0.262781
C22	C	0.316204	0.010136	0.195015
C23	C	0.447227	0.007140	0.137738
C24	C	0.399553	0.010510	0.202110
N25	N	0.923345	-0.134977	0.169922
C26	C	0.970772	-0.552087	0.220970
C27	C	0.970781	-0.615695	0.220968
O28	O	1.011076	-0.646317	0.264364
N29	N	0.923428	-0.650185	0.169920
C30	C	0.876069	-0.621064	0.118863
O31	O	0.835793	-0.656241	0.075442
C32	C	0.876064	-0.557458	0.118861
C33	C	0.923414	-0.522971	0.169919
C34	C	1.018118	-0.517600	0.272023
C35	C	1.018108	-0.453997	0.272025
C36	C	0.970751	-0.424880	0.220974
C37	C	0.923404	-0.459367	0.169921
C38	C	0.828710	-0.528339	0.067802
C39	C	0.828710	-0.464728	0.067804
C40	C	0.876060	-0.430241	0.118861
C41	C	0.876036	-0.366648	0.118872
N42	N	0.923389	-0.332158	0.169921
C43	C	0.970746	-0.361274	0.220972
C44	C	0.876083	-0.754642	0.118870
C45	C	0.876082	-0.818247	0.118876
C46	C	0.970796	-0.812873	0.220980
C47	C	0.970791	-0.749266	0.220978
C48	C	0.923436	-0.720152	0.169919
C49	C	0.970720	-0.227703	0.220973
C50	C	0.970703	-0.164094	0.220973
C51	C	0.875993	-0.169473	0.118866
C52	C	0.876006	-0.233076	0.118869
C53	C	0.923376	-0.262189	0.169925
O54	O	0.835763	-0.335984	0.075497
O55	O	1.011023	-0.326090	0.264379
C56	C	1.066331	0.009018	0.173760
C57	C	1.153117	0.009402	0.181140
C58	C	0.929268	0.001295	0.026097
C59	C	0.927828	-0.003293	-0.061572
N60	N	0.923443	0.152631	0.169924
C61	C	0.919614	-0.031977	-0.557401
C62	C	0.920974	-0.027669	-0.475028
C63	C	0.921680	0.029568	-0.433832
C64	C	0.921018	0.082502	-0.475013
C65	C	0.919652	0.078194	-0.557384
C66	C	0.925800	0.045332	-0.185123
C67	C	0.927168	0.049637	-0.102747
C68	C	0.927123	-0.060535	-0.102768
C69	C	0.925762	-0.064838	-0.185141
C70	C	0.925096	-0.011905	-0.226314
C71	C	0.923073	0.033973	-0.349634
C72	C	0.923697	-0.016310	-0.310510
C73	C	0.917515	0.016361	0.313756
C74	C	0.918954	0.020952	0.401424
H75	H	0.177759	0.002664	0.052546
N76	N	1.069194	-0.549007	0.327087
H77	H	1.107503	-0.577055	0.295338
H78	H	1.099136	-0.517469	0.359417
H79	H	0.927665	-0.103631	-0.069236
N80	N	0.921786	0.144237	-0.430582
H81	H	0.921160	0.177114	-0.469167
H82	H	0.873915	0.148597	-0.393251
N83	N	1.021863	-0.712072	0.276044
H84	H	1.051861	-0.740175	0.308383
H85	H	1.060123	-0.687344	0.244240
N86	N	0.925204	0.102422	-0.229534
H87	H	0.925903	0.139333	-0.190937
H88	H	0.973120	0.102801	-0.266815
N89	N	0.825009	-0.855438	0.063808
H90	H	0.859098	-0.883721	0.027504
H91	H	0.786711	-0.880137	0.095610
N92	N	1.021877	-0.844283	0.276044
H93	H	1.014693	-0.889810	0.268292
H94	H	1.078751	-0.833771	0.264307
N95	N	0.918953	0.135281	-0.601799
H96	H	0.919614	0.172196	-0.563204
H97	H	0.966833	0.135715	-0.639122
H98	H	0.837512	-0.730940	0.077295
N99	N	0.777658	-0.565526	0.012713
H100	H	0.747672	-0.537421	-0.019632
H101	H	0.811813	-0.593799	-0.023535
H102	H	0.790146	-0.441026	0.026224
N103	N	0.824925	-0.138061	0.063800
H104	H	0.794929	-0.169557	0.031452
H105	H	0.786663	-0.110009	0.095602
N106	N	0.546925	-0.000263	-0.003501
H107	H	0.513519	0.036877	-0.009558
H108	H	0.591127	-0.002479	-0.045329
N109	N	0.338960	0.002396	0.047232
H110	H	0.373206	-0.035077	0.046933
H111	H	0.306665	-0.000111	-0.001105
H112	H	0.923652	0.080576	-0.316083
N113	N	0.824922	-0.270277	0.063817
H114	H	0.794915	-0.242177	0.031482
H115	H	0.859054	-0.298559	0.027558
H116	H	0.923118	-0.062913	-0.344056
N117	N	0.716419	0.000509	0.010918
H118	H	0.750679	0.037953	0.010620
H119	H	0.750611	-0.036988	0.010665
H120	H	0.425095	0.013695	0.262931
N121	N	0.918860	-0.093713	-0.601832
H122	H	0.919484	-0.126589	-0.563245
H123	H	0.869852	-0.097730	-0.632859
H124	H	0.925191	-0.111448	-0.218678
H125	H	1.009261	-0.136017	0.262554
N126	N	0.921696	-0.084758	-0.430618
H127	H	0.873820	-0.085261	-0.393293
H128	H	0.921076	-0.121638	-0.469268
N129	N	0.927809	0.111351	-0.058243
H130	H	0.976782	0.115459	-0.027169
H131	H	0.927110	0.144231	-0.096817
N132	N	0.677317	0.016038	0.307044
H133	H	0.633154	0.018229	0.348916
H134	H	0.710736	-0.021106	0.313029
N135	N	0.507825	0.015194	0.292618
H136	H	0.540069	0.017712	0.340993
H137	H	0.473543	0.052644	0.292898
N138	N	0.299858	0.017925	0.343351
H139	H	0.255697	0.020120	0.385226
H140	H	0.333280	-0.019216	0.349343
N141	N	0.413386	0.002915	0.057173
H142	H	0.379974	0.040054	0.051123
H143	H	0.457581	0.000702	0.015339
H144	H	1.056669	-0.425923	0.313598
N145	N	0.130367	0.017151	0.328934
H146	H	0.073950	0.016324	0.313206
H147	H	0.140508	-0.018616	0.361252
N148	N	1.021818	-0.259098	0.276031
H149	H	1.051808	-0.227592	0.308368
H150	H	0.987698	-0.283599	0.312289
