data_functionalizedCrystal
_audit_creation_method	'MofGen! by Chris Wilmer'
_symmetry_space_group_name_H-M	'P1'
_symmetry_Int_Tables_number	1
_symmetry_cell_setting	triclinic
loop_
_symmetry_equiv_pos_as_xyz
  x,y,z
_cell_length_a	12.759387
_cell_length_b	17.077404
_cell_length_c	17.077402
_cell_angle_alpha	89.976892
_cell_angle_beta	89.963715
_cell_angle_gamma	90.021107
loop_
_atom_site_label
_atom_site_type_symbol
_atom_site_fract_x
_atom_site_fract_y
_atom_site_fract_z
Zn1	Zn	-0.594038	-1.200067	-0.312453
Zn2	Zn	-0.418345	-1.199971	-0.443743
Zn3	Zn	-0.418368	-1.068795	-0.312496
Zn4	Zn	-0.593977	-1.068767	-0.443681
O5	O	-0.506182	-1.134400	-0.378093
O6	O	-0.570748	-1.309901	-0.329877
O7	O	-0.271327	-1.182541	-0.426376
O8	O	-0.441705	-1.086261	-0.202643
O9	O	-0.441667	-1.309830	-0.426335
O10	O	-0.570770	-1.182706	-0.202612
O11	O	-0.271343	-1.086167	-0.329949
O12	O	-0.441647	-0.958945	-0.329890
O13	O	-0.741006	-1.086213	-0.426230
O14	O	-0.570666	-0.958924	-0.426271
O15	O	-0.741051	-1.182678	-0.329817
O16	O	-0.441608	-1.182514	-0.553582
O17	O	-0.570644	-1.086119	-0.553536
C18	C	-0.506140	-1.134324	-0.582041
C19	C	-0.506157	-1.134364	-0.669291
C20	C	-0.506153	-0.930452	-0.378079
C21	C	-0.506165	-0.843202	-0.378092
C22	C	-0.780215	-1.134453	-0.378012
C23	C	-0.896992	-1.134476	-0.377978
C24	C	-0.897028	-1.034128	-0.277562
C25	C	-0.951907	-0.983969	-0.227338
C26	C	-1.061629	-0.983992	-0.227310
C27	C	-1.116474	-1.034179	-0.277512
C28	C	-1.061595	-1.084339	-0.327735
C29	C	-0.951871	-1.084311	-0.327757
C30	C	-1.061559	-1.184681	-0.428154
C31	C	-0.951837	-1.184663	-0.428180
C32	C	-1.116404	-1.234868	-0.478357
C33	C	-1.061525	-1.285032	-0.528577
C34	C	-0.951797	-1.285007	-0.528603
C35	C	-0.896958	-1.234822	-0.478404
C36	C	-0.233214	-1.134392	-0.378117
C37	C	-0.116438	-1.134521	-0.377931
C38	C	-0.506211	-1.339144	-0.378108
C39	C	-0.506224	-1.426394	-0.378114
C40	C	-0.573238	-0.802222	-0.428353
C41	C	-0.573255	-0.720241	-0.428355
C42	C	-0.506193	-0.679243	-0.378099
C43	C	-0.439117	-0.720229	-0.327831
C44	C	-0.439106	-0.802208	-0.327826
C45	C	-0.439142	-0.549359	-0.327847
C46	C	-0.439151	-0.467374	-0.327853
C47	C	-0.573291	-0.467392	-0.428376
C48	C	-0.573280	-0.549371	-0.428371
C49	C	-0.506203	-0.590352	-0.378104
C50	C	-0.439040	-1.184608	-0.710278
C51	C	-0.439067	-1.184646	-0.792259
C52	C	-0.506206	-1.134436	-0.833250
C53	C	-0.573330	-1.084190	-0.792257
C54	C	-0.573308	-1.084156	-0.710278
C55	C	-0.573370	-1.084262	-0.963127
C56	C	-0.573392	-1.084295	-1.045111
C57	C	-0.439129	-1.184753	-1.045108
C58	C	-0.439107	-1.184719	-0.963129
C59	C	-0.506230	-1.134471	-0.922141
C60	C	-0.506247	-1.134497	-0.173349
C61	C	-0.506275	-1.134539	-0.086099
H62	H	-0.807687	-1.034110	-0.277573
C63	C	-0.365185	-1.239841	-0.665191
C64	C	-0.245744	-1.233493	-0.676545
C65	C	-0.171890	-1.288730	-0.631460
C66	C	-0.217476	-1.350314	-0.575021
C67	C	-0.336924	-1.356665	-0.563665
C68	C	-0.410778	-1.301428	-0.608750
H69	H	-0.211992	-1.187902	-0.718326
H70	H	-0.083467	-1.284028	-0.639866
H71	H	-0.162805	-1.391204	-0.541647
H72	H	-0.370675	-1.402256	-0.521884
H73	H	-0.499201	-1.306129	-0.600343
C74	C	-0.647084	-0.422318	-0.483665
C75	C	-0.720846	-0.467413	-0.538950
C76	C	-0.794633	-0.422335	-0.594240
C77	C	-0.794658	-0.332161	-0.594245
C78	C	-0.720894	-0.287061	-0.538958
C79	C	-0.647107	-0.332139	-0.483668
H80	H	-0.720829	-0.534170	-0.538949
H81	H	-0.849238	-0.455722	-0.635167
H82	H	-0.849280	-0.298792	-0.635174
H83	H	-0.720911	-0.220305	-0.538959
H84	H	-0.592502	-0.298752	-0.442741
C85	C	-0.365351	-0.675130	-0.272548
C86	C	-0.411035	-0.618804	-0.210968
C87	C	-0.337265	-0.573705	-0.155685
C88	C	-0.217812	-0.584932	-0.161982
C89	C	-0.172122	-0.641260	-0.223565
C90	C	-0.245891	-0.686359	-0.278848
H91	H	-0.499467	-0.610491	-0.206304
H92	H	-0.371089	-0.532008	-0.110097
H93	H	-0.163203	-0.551547	-0.121058
H94	H	-0.083689	-0.649573	-0.228229
H95	H	-0.212067	-0.728057	-0.324435
C96	C	-0.647187	-1.028956	-0.837343
C97	C	-0.766628	-1.035310	-0.825993
C98	C	-0.840485	-0.980073	-0.871075
C99	C	-0.794900	-0.918483	-0.927508
C100	C	-0.675453	-0.912126	-0.938861
C101	C	-0.601596	-0.967363	-0.893778
H102	H	-0.800378	-1.080905	-0.784215
H103	H	-0.928907	-0.984779	-0.862671
H104	H	-0.849573	-0.877593	-0.960881
H105	H	-0.641703	-0.866531	-0.980639
H106	H	-0.513173	-0.962658	-0.902183
C107	C	-0.365413	-0.422264	-0.272557
C108	C	-0.374243	-0.433561	-0.183328
C109	C	-0.300515	-0.388446	-0.128027
C110	C	-0.217958	-0.332035	-0.161955
C111	C	-0.209125	-0.320736	-0.251188
C112	C	-0.282853	-0.365851	-0.306489
H113	H	-0.435359	-0.475322	-0.158209
H114	H	-0.307054	-0.396811	-0.061971
H115	H	-0.163380	-0.298638	-0.121018
H116	H	-0.148009	-0.278975	-0.276308
H117	H	-0.276314	-0.357486	-0.372546
H118	H	-0.627882	-0.582750	-0.469298
C119	C	-0.365325	-0.847292	-0.272539
C120	C	-0.410997	-0.903684	-0.210947
C121	C	-0.337219	-0.948767	-0.155655
C122	C	-0.217768	-0.937458	-0.161955
C123	C	-0.172089	-0.881063	-0.223550
C124	C	-0.245868	-0.835980	-0.278842
H125	H	-0.499428	-0.912058	-0.206281
H126	H	-0.371034	-0.990515	-0.110059
H127	H	-0.163152	-0.970832	-0.121025
H128	H	-0.083658	-0.872689	-0.228216
H129	H	-0.212053	-0.794232	-0.324438
C130	C	-0.891577	-0.928764	-0.172118
C131	C	-0.770887	-0.928734	-0.172142
C132	C	-0.710562	-0.873527	-0.116925
C133	C	-0.770926	-0.818351	-0.061683
C134	C	-0.891623	-0.818380	-0.061657
C135	C	-0.951949	-0.873586	-0.116874
H136	H	-0.726195	-0.969580	-0.213037
H137	H	-0.621214	-0.873506	-0.116944
H138	H	-0.726270	-0.777484	-0.020808
H139	H	-0.936315	-0.777533	-0.020762
H140	H	-1.041297	-0.873607	-0.116855
C141	C	-0.365237	-1.239920	-0.837340
C142	C	-0.245790	-1.233559	-0.826150
C143	C	-0.171960	-1.288840	-0.871229
C144	C	-0.217578	-1.350481	-0.927498
C145	C	-0.337031	-1.356845	-0.938691
C146	C	-0.410861	-1.301564	-0.893612
H147	H	-0.212016	-1.187926	-0.784494
H148	H	-0.083533	-1.284129	-0.862942
H149	H	-0.162925	-1.391403	-0.960868
H150	H	-0.370806	-1.402478	-0.980347
H151	H	-0.499289	-1.306275	-0.901899
C152	C	-0.647008	-0.847317	-0.483637
C153	C	-0.638227	-0.836009	-0.572867
C154	C	-0.712002	-0.881102	-0.628151
C155	C	-0.794559	-0.937502	-0.594205
C156	C	-0.803344	-0.948812	-0.504970
C157	C	-0.729569	-0.903720	-0.449686
H158	H	-0.577111	-0.794256	-0.598001
H159	H	-0.705499	-0.872729	-0.694208
H160	H	-0.849172	-0.970882	-0.635129
H161	H	-0.864460	-0.990565	-0.479837
H162	H	-0.736072	-0.912092	-0.383629
H163	H	-1.106311	-0.943147	-0.186414
H164	H	-1.205815	-1.034187	-0.277491
C165	C	-0.647035	-0.675166	-0.483648
C166	C	-0.638236	-0.686405	-0.572876
C167	C	-0.712022	-0.641332	-0.628170
C168	C	-0.794607	-0.585020	-0.594237
C169	C	-0.803410	-0.573779	-0.505005
C170	C	-0.729624	-0.618852	-0.449710
H171	H	-0.577098	-0.728093	-0.597999
H172	H	-0.705505	-0.649655	-0.694226
H173	H	-0.849228	-0.551655	-0.635170
H174	H	-0.864548	-0.532091	-0.479881
H175	H	-0.736141	-0.610530	-0.383654
H176	H	-0.384432	-1.225599	-0.929754
H177	H	-0.384478	-1.225668	-1.078484
H178	H	-0.627963	-1.043243	-0.676907
H179	H	-0.628082	-1.043424	-1.078484
H180	H	-1.205746	-1.234879	-0.478334
H181	H	-1.106189	-1.325887	-0.569451
H182	H	-0.907121	-1.325856	-0.569499
H183	H	-0.807617	-1.234799	-0.478417
H184	H	-0.384530	-0.582723	-0.286908
H185	H	-0.628033	-1.043348	-0.929757
