data_functionalizedCrystal
_audit_creation_method	'MofGen! by Chris Wilmer'
_symmetry_space_group_name_H-M	'P1'
_symmetry_Int_Tables_number	1
_symmetry_cell_setting	triclinic
loop_
_symmetry_equiv_pos_as_xyz
  x,y,z
_cell_length_a	11.169417
_cell_length_b	12.827892
_cell_length_c	12.827885
_cell_angle_alpha	90.029786
_cell_angle_beta	90.018098
_cell_angle_gamma	90.016270
loop_
_atom_site_label
_atom_site_type_symbol
_atom_site_fract_x
_atom_site_fract_y
_atom_site_fract_z
Zn1	Zn	1.834900	-0.415958	0.590811
Zn2	Zn	1.834777	-0.590735	0.416071
Zn3	Zn	1.634192	-0.416012	0.416088
Zn4	Zn	1.634175	-0.590660	0.590775
O5	O	1.734511	-0.503341	0.503436
O6	O	2.002833	-0.439151	0.567639
O7	O	1.808125	-0.567612	0.269837
O8	O	1.660874	-0.269768	0.439288
O9	O	2.002743	-0.567560	0.439258
O10	O	1.808333	-0.269729	0.567656
O11	O	1.660755	-0.439243	0.269850
O12	O	1.466240	-0.439170	0.439253
O13	O	1.660846	-0.567432	0.737016
O14	O	1.466228	-0.567484	0.567595
O15	O	1.808318	-0.439079	0.737042
O16	O	1.808109	-0.736961	0.439224
O17	O	1.660728	-0.736906	0.567578
C18	C	1.422686	-0.503325	0.503423
C19	C	1.289286	-0.503344	0.503442
C20	C	1.734436	-0.774851	0.503418
C21	C	1.734514	-0.891004	0.503445
C22	C	1.807529	-0.942782	0.440002
C23	C	1.807611	-1.062832	0.440028
C24	C	2.047553	-0.503358	0.503450
C25	C	2.180953	-0.503365	0.503456
C26	C	1.734594	-0.503241	0.776007
C27	C	1.734629	-0.503198	0.892160
C28	C	1.734619	-0.230771	0.503478
C29	C	1.734665	-0.114618	0.503495
C30	C	1.734498	-0.503366	0.231926
C31	C	1.734695	-0.503114	0.115774
C32	C	1.661729	-0.439665	0.943951
C33	C	1.661764	-0.439619	1.064001
H34	H	1.869986	-0.898236	0.385669
C35	C	1.892062	-1.122983	0.366644
N36	N	1.955673	-1.168292	0.311369
H37	H	1.599357	-0.385221	1.108540
H38	H	1.672145	-1.070098	0.557811
C39	C	1.650141	-0.951182	0.576851
N40	N	1.586586	-0.996506	0.632142
C41	C	1.577385	-0.366216	0.883789
N42	N	1.513860	-0.310887	0.838477
H43	H	1.797066	-0.557559	0.936696
H44	H	1.797115	-0.557506	1.071241
