data_functionalizedCrystal
_audit_creation_method	'MofGen! by Chris Wilmer'
_symmetry_space_group_name_H-M	'P1'
_symmetry_Int_Tables_number	1
_symmetry_cell_setting	triclinic
loop_
_symmetry_equiv_pos_as_xyz
  x,y,z
_cell_length_a	16.992695
_cell_length_b	10.654550
_cell_length_c	9.730223
_cell_angle_alpha	90.000043
_cell_angle_beta	89.995280
_cell_angle_gamma	92.423423
loop_
_atom_site_label
_atom_site_type_symbol
_atom_site_fract_x
_atom_site_fract_y
_atom_site_fract_z
O1	O	0.110190	-1.677361	-0.114188
O2	O	0.120688	-1.312790	-0.114214
O3	O	0.001288	-1.493614	-0.114190
O4	O	0.229590	-1.496537	-0.114212
O5	O	0.001285	-1.493601	0.114390
O6	O	0.120685	-1.312777	0.114366
O7	O	0.110187	-1.677349	0.114391
Zn8	Zn	0.115435	-1.495061	0.150671
Zn9	Zn	0.115439	-1.495078	-0.150493
O10	O	0.229586	-1.496525	0.114368
C11	C	0.119916	-1.265919	0.000073
C12	C	0.117609	-1.126277	0.000064
C13	C	-0.027946	-1.489848	0.000099
C14	C	-0.115051	-1.478628	0.000098
C15	C	0.110959	-1.724220	0.000102
C16	C	0.113265	-1.863862	0.000102
C17	C	-0.164703	-1.586879	0.000107
C18	C	-0.246547	-1.576330	0.000093
C19	C	-0.278738	-1.457529	0.000080
C20	C	-0.229080	-1.349270	0.000067
C21	C	-0.147237	-1.359820	0.000071
C22	C	-0.522573	-1.413802	0.000058
C23	C	-0.604422	-1.403260	0.000059
C24	C	-0.621884	-1.630321	0.000082
C25	C	-0.540039	-1.640861	0.000094
C26	C	-0.490388	-1.532602	0.000074
N27	N	-0.362395	-1.446743	0.000071
N28	N	-0.406733	-1.543389	0.000074
C29	C	0.258821	-1.500291	0.000075
C30	C	0.345926	-1.511510	0.000068
N31	N	0.115432	-1.495059	0.356207
C32	C	0.187910	-1.052866	0.000061
C33	C	0.185738	-0.921658	0.000085
C34	C	0.042959	-0.937282	0.000109
C35	C	0.045132	-1.068488	0.000095
N36	N	0.115437	-1.495089	-0.356030
C37	C	0.062584	-1.575159	0.428144
C38	C	0.062584	-1.575171	0.572026
C39	C	0.168287	-1.414980	0.572024
C40	C	0.168282	-1.414962	0.428144
H41	H	-0.138501	-1.683620	0.000126
H42	H	0.019550	-1.640394	0.630593
H43	H	-0.286971	-1.664480	0.000104
O44	O	0.219698	-1.337110	0.358469
C45	C	0.324508	-1.178169	0.373638
C46	C	0.266342	-1.266292	0.452715
H47	H	0.362224	-1.120870	0.449801
H48	H	0.364067	-1.236277	0.306292
H49	H	0.290250	-1.112054	0.306259
H50	H	0.300536	-1.332423	0.520168
H51	H	0.226783	-1.208106	0.519974
H52	H	-0.513836	-1.737601	0.000105
O53	O	0.258379	-1.108801	0.000104
C54	C	0.399766	-1.079449	0.000010
C55	C	0.320013	-1.015946	-0.000011
H56	H	0.449619	-1.004405	-0.000112
H57	H	0.404406	-1.140454	0.095685
H58	H	0.404313	-1.140515	-0.095636
H59	H	0.315413	-0.954818	0.095569
H60	H	0.315408	-0.955016	-0.095750
H61	H	0.211318	-1.349770	0.630609
O62	O	-0.474433	-1.308549	-0.000129
C63	C	-0.434439	-1.117741	-0.118592
C64	C	-0.489019	-1.236881	-0.118540
H65	H	-0.446201	-1.059777	-0.214331
H66	H	-0.446244	-1.059596	-0.022998
H67	H	-0.370418	-1.145701	-0.118524
H68	H	-0.553059	-1.209033	-0.118656
H69	H	-0.477146	-1.294996	-0.214126
O70	O	0.011118	-1.652815	0.358356
C71	C	-0.124889	-1.712771	0.314526
C72	C	-0.066677	-1.624729	0.393595
H73	H	-0.187798	-1.690113	0.343010
H74	H	-0.115907	-1.699023	0.199308
H75	H	-0.114047	-1.814429	0.342797
H76	H	-0.077484	-1.523038	0.365440
H77	H	-0.075672	-1.638586	0.508794
H78	H	-0.662318	-1.718458	0.000096
H79	H	-0.012119	-1.128262	0.000101
H80	H	-0.255296	-1.252539	0.000048
H81	H	-0.630628	-1.306513	0.000070
H82	H	-0.106811	-1.271671	0.000064
H83	H	0.242984	-0.861892	0.000086
O84	O	-0.027489	-0.881286	-0.000060
C85	C	-0.150163	-0.854425	-0.118512
C86	C	-0.070414	-0.917941	-0.118469
H87	H	-0.184883	-0.884016	-0.214250
H88	H	-0.184996	-0.884109	-0.022916
H89	H	-0.139620	-0.748043	-0.118441
H90	H	-0.080885	-1.024332	-0.118588
H91	H	-0.035606	-0.888156	-0.214056
