data_functionalizedCrystal
_audit_creation_method	'MofGen! by Chris Wilmer'
_symmetry_space_group_name_H-M	'P1'
_symmetry_Int_Tables_number	1
_symmetry_cell_setting	triclinic
loop_
_symmetry_equiv_pos_as_xyz
  x,y,z
_cell_length_a	18.050589
_cell_length_b	18.050591
_cell_length_c	18.050582
_cell_angle_alpha	89.979078
_cell_angle_beta	89.981795
_cell_angle_gamma	90.024227
loop_
_atom_site_label
_atom_site_type_symbol
_atom_site_fract_x
_atom_site_fract_y
_atom_site_fract_z
Zn1	Zn	-0.295786	1.135293	-0.420054
Zn2	Zn	-0.045786	1.385293	-0.170054
Zn3	Zn	0.204214	1.635293	0.079946
Zn4	Zn	0.454214	1.885293	0.329946
Zn5	Zn	-0.419969	1.135203	-0.295873
Zn6	Zn	-0.169969	1.385203	-0.045873
Zn7	Zn	0.080031	1.635203	0.204127
Zn8	Zn	0.330031	1.885203	0.454127
Zn9	Zn	-0.295789	1.011112	-0.295865
Zn10	Zn	-0.045789	1.261112	-0.045865
Zn11	Zn	0.204211	1.511112	0.204135
Zn12	Zn	0.454211	1.761112	0.454135
Zn13	Zn	-0.419930	1.011060	-0.420009
Zn14	Zn	-0.169930	1.261060	-0.170009
Zn15	Zn	0.080070	1.511060	0.079991
Zn16	Zn	0.330070	1.761060	0.329991
O17	O	-0.357868	1.073167	-0.357950
O18	O	-0.107868	1.323167	-0.107950
O19	O	0.142132	1.573167	0.142050
O20	O	0.392132	1.823167	0.392050
O21	O	-0.312274	1.239205	-0.403603
O22	O	-0.062274	1.489205	-0.153603
O23	O	0.187726	1.739205	0.096397
O24	O	0.437726	1.989205	0.346397
O25	O	-0.403514	1.118727	-0.191948
O26	O	-0.153514	1.368727	0.058052
O27	O	0.096486	1.618727	0.308052
O28	O	0.346486	1.868727	0.558052
O29	O	-0.191864	1.027644	-0.312354
O30	O	0.058136	1.277644	-0.062354
O31	O	0.308136	1.527644	0.187646
O32	O	0.558136	1.777644	0.437646
O33	O	-0.403511	1.239140	-0.312369
O34	O	-0.153511	1.489140	-0.062369
O35	O	0.096489	1.739140	0.187631
O36	O	0.346489	1.989140	0.437631
O37	O	-0.191862	1.118879	-0.403595
O38	O	0.058138	1.368879	-0.153595
O39	O	0.308138	1.618879	0.096405
O40	O	0.558138	1.868879	0.346405
O41	O	-0.312279	1.027557	-0.191942
O42	O	-0.062279	1.277557	0.058058
O43	O	0.187721	1.527557	0.308058
O44	O	0.437721	1.777557	0.558058
O45	O	-0.312241	0.907180	-0.312311
O46	O	-0.062241	1.157180	-0.062311
O47	O	0.187759	1.407180	0.187689
O48	O	0.437759	1.657180	0.437689
O49	O	-0.403444	1.027555	-0.523940
O50	O	-0.153444	1.277555	-0.273940
O51	O	0.096556	1.527555	-0.023940
O52	O	0.346556	1.777555	0.226060
O53	O	-0.403447	0.907142	-0.403519
O54	O	-0.153447	1.157142	-0.153519
O55	O	0.096553	1.407142	0.096481
O56	O	0.346553	1.657142	0.346481
O57	O	-0.312236	1.118828	-0.523973
O58	O	-0.062236	1.368828	-0.273973
O59	O	0.187764	1.618828	-0.023973
O60	O	0.437764	1.868828	0.226027
O61	O	-0.523888	1.118676	-0.312325
O62	O	-0.273888	1.368676	-0.062325
O63	O	-0.023888	1.618676	0.187675
O64	O	0.226112	1.868676	0.437675
O65	O	-0.523860	1.027468	-0.403527
O66	O	-0.273860	1.277468	-0.153527
O67	O	-0.023860	1.527468	0.096473
O68	O	0.226140	1.777468	0.346473
C69	C	-0.357841	0.880215	-0.357909
C70	C	-0.107841	1.130215	-0.107909
C71	C	0.142159	1.380215	0.142091
C72	C	0.392159	1.630215	0.392091
C73	C	-0.357847	0.797669	-0.357909
C74	C	-0.107847	1.047669	-0.107909
C75	C	0.142153	1.297669	0.142091
C76	C	0.392153	1.547669	0.392091
C77	C	-0.550820	1.073077	-0.357938
C78	C	-0.300820	1.323077	-0.107938
C79	C	-0.050820	1.573077	0.142062
C80	C	0.199180	1.823077	0.392062
C81	C	-0.633366	1.073107	-0.357958
C82	C	-0.383366	1.323107	-0.107958
C83	C	-0.133366	1.573107	0.142042
C84	C	0.116634	1.823107	0.392042
C85	C	-0.308191	0.598217	-0.308425
C86	C	-0.058191	0.848217	-0.058425
C87	C	0.191809	1.098217	0.191575
C88	C	0.441809	1.348217	0.441575
C89	C	-0.375927	0.548798	-0.290154
C90	C	-0.125927	0.798798	-0.040154
C91	C	0.124073	1.048798	0.209846
C92	C	0.374073	1.298798	0.459846
C93	C	-0.357869	0.646539	-0.357943
C94	C	-0.107869	0.896539	-0.107943
C95	C	0.142131	1.146539	0.142057
C96	C	0.392131	1.396539	0.392057
C97	C	-0.290157	0.548877	-0.376212
C98	C	-0.040157	0.798877	-0.126212
C99	C	0.209843	1.048877	0.123788
C100	C	0.459843	1.298877	0.373788
C101	C	-0.357885	0.500553	-0.357974
C102	C	-0.107885	0.750553	-0.107974
C103	C	0.142115	1.000553	0.142026
C104	C	0.392115	1.250553	0.392026
C105	C	-0.425641	0.598206	-0.339637
C106	C	-0.175641	0.848206	-0.089637
C107	C	0.074359	1.098206	0.160363
C108	C	0.324359	1.348206	0.410363
C109	C	-0.339825	0.598289	-0.425726
C110	C	-0.089825	0.848289	-0.175726
C111	C	0.160175	1.098289	0.074274
C112	C	0.410175	1.348289	0.324274
C113	C	-0.407607	0.548892	-0.407481
C114	C	-0.157607	0.798892	-0.157481
C115	C	0.092393	1.048892	0.092519
C116	C	0.342393	1.298892	0.342519
C117	C	-0.357859	0.730637	-0.357923
C118	C	-0.107859	0.980637	-0.107923
C119	C	0.142141	1.230637	0.142077
C120	C	0.392141	1.480637	0.392077
C121	C	-0.357903	0.416457	-0.357994
C122	C	-0.107903	0.666457	-0.107994
C123	C	0.142097	0.916457	0.142006
C124	C	0.392097	1.166457	0.392006
C125	C	-0.832828	1.023557	-0.407536
C126	C	-0.582828	1.273557	-0.157536
C127	C	-0.332828	1.523557	0.092464
C128	C	-0.082828	1.773557	0.342464
C129	C	-0.882261	1.005459	-0.339767
C130	C	-0.632261	1.255459	-0.089767
C131	C	-0.382261	1.505459	0.160233
C132	C	-0.132261	1.755459	0.410233
C133	C	-0.784497	1.073180	-0.357967
C134	C	-0.534497	1.323180	-0.107967
C135	C	-0.284497	1.573180	0.142033
C136	C	-0.034497	1.823180	0.392033
C137	C	-0.882146	1.091314	-0.425744
C138	C	-0.632146	1.341314	-0.175744
C139	C	-0.382146	1.591314	0.074256
C140	C	-0.132146	1.841314	0.324256
C141	C	-0.930482	1.073249	-0.357983
C142	C	-0.680482	1.323249	-0.107983
C143	C	-0.430482	1.573249	0.142017
C144	C	-0.180482	1.823249	0.392017
C145	C	-0.832842	1.055046	-0.290162
C146	C	-0.582842	1.305046	-0.040162
C147	C	-0.332842	1.555046	0.209838
C148	C	-0.082842	1.805046	0.459838
C149	C	-0.832722	1.140933	-0.376186
C150	C	-0.582722	1.390933	-0.126186
C151	C	-0.332722	1.640933	0.123814
C152	C	-0.082722	1.890933	0.373814
C153	C	-0.882133	1.122861	-0.308370
C154	C	-0.632133	1.372861	-0.058370
C155	C	-0.382133	1.622861	0.191630
C156	C	-0.132133	1.872861	0.441630
C157	C	-0.700398	1.073138	-0.357959
C158	C	-0.450398	1.323138	-0.107959
C159	C	-0.200398	1.573138	0.142041
C160	C	0.049602	1.823138	0.392041
C161	C	-1.014578	1.073291	-0.357983
C162	C	-0.764578	1.323291	-0.107983
C163	C	-0.514578	1.573291	0.142017
C164	C	-0.264578	1.823291	0.392017
C165	C	-0.164163	1.073277	-0.357979
C166	C	0.085837	1.323277	-0.107979
C167	C	0.335837	1.573277	0.142021
C168	C	0.585837	1.823277	0.392021
C169	C	-0.081617	1.073324	-0.357991
C170	C	0.168383	1.323324	-0.107991
C171	C	0.418383	1.573324	0.142009
C172	C	0.668383	1.823324	0.392009
C173	C	-0.357835	1.073196	-0.551656
C174	C	-0.107835	1.323196	-0.301656
C175	C	0.142165	1.573196	-0.051656
C176	C	0.392165	1.823196	0.198344
C177	C	-0.357821	1.073208	-0.634202
C178	C	-0.107821	1.323208	-0.384202
C179	C	0.142179	1.573208	-0.134202
C180	C	0.392179	1.823208	0.115798
C181	C	-0.357897	1.266872	-0.357992
C182	C	-0.107897	1.516872	-0.107992
C183	C	0.142103	1.766872	0.142008
C184	C	0.392103	2.016872	0.392008
C185	C	-0.357909	1.349418	-0.358010
C186	C	-0.107909	1.599418	-0.108010
C187	C	0.142091	1.849418	0.141990
C188	C	0.392091	2.099418	0.391990
C189	C	-0.407353	1.023612	-0.833635
C190	C	-0.157353	1.273612	-0.583635
C191	C	0.092647	1.523612	-0.333635
C192	C	0.342647	1.773612	-0.083635
C193	C	-0.425511	1.091367	-0.883034
C194	C	-0.175511	1.341367	-0.633034
C195	C	0.074489	1.591367	-0.383034
C196	C	0.324489	1.841367	-0.133034
C197	C	-0.357765	1.073245	-0.785332
C198	C	-0.107765	1.323245	-0.535332
C199	C	0.142235	1.573245	-0.285332
C200	C	0.392235	1.823245	-0.035332
C201	C	-0.339586	1.005527	-0.883014
C202	C	-0.089586	1.255527	-0.633014
C203	C	0.160414	1.505527	-0.383014
C204	C	0.410414	1.755527	-0.133014
C205	C	-0.357711	1.073274	-0.931317
C206	C	-0.107711	1.323274	-0.681317
C207	C	0.142289	1.573274	-0.431317
C208	C	0.392289	1.823274	-0.181317
C209	C	-0.375958	1.141036	-0.833645
C210	C	-0.125958	1.391036	-0.583645
C211	C	0.124042	1.641036	-0.333645
C212	C	0.374042	1.891036	-0.083645
C213	C	-0.290002	1.055150	-0.833620
C214	C	-0.040002	1.305150	-0.583620
C215	C	0.209998	1.555150	-0.333620
C216	C	0.459998	1.805150	-0.083620
C217	C	-0.308134	1.122952	-0.882998
C218	C	-0.058134	1.372952	-0.632998
C219	C	0.191866	1.622952	-0.382998
C220	C	0.441866	1.872952	-0.132998
C221	C	-0.357797	1.073227	-0.701234
C222	C	-0.107797	1.323227	-0.451234
C223	C	0.142203	1.573227	-0.201234
C224	C	0.392203	1.823227	0.048766
C225	C	-0.357679	1.073300	-1.015414
C226	C	-0.107679	1.323300	-0.765414
C227	C	0.142321	1.573300	-0.515414
C228	C	0.392321	1.823300	-0.265414
C229	C	-0.357848	1.073181	-0.164998
C230	C	-0.107848	1.323181	0.085002
C231	C	0.142152	1.573181	0.335002
C232	C	0.392152	1.823181	0.585002
C233	C	-0.357652	1.073312	-0.082453
C234	C	-0.107652	1.323312	0.167547
C235	C	0.142348	1.573312	0.417547
C236	C	0.392348	1.823312	0.667547
H237	H	-0.266226	0.619875	-0.266503
H238	H	-0.016226	0.869875	-0.016503
H239	H	0.233774	1.119875	0.233497
H240	H	0.483774	1.369875	0.483497
F241	F	-0.804260	1.215765	-0.396350
F242	F	-0.554260	1.465765	-0.146350
F243	F	-0.304260	1.715765	0.103650
F244	F	-0.054260	1.965765	0.353650
F245	F	-0.910701	0.930607	-0.319626
F246	F	-0.660701	1.180607	-0.069626
F247	F	-0.410701	1.430607	0.180374
F248	F	-0.160701	1.680607	0.430374
H249	H	-0.391202	0.527060	-0.232844
H250	H	-0.141202	0.777060	0.017156
H251	H	0.108798	1.027060	0.267156
H252	H	0.358798	1.277060	0.517156
F253	F	-0.804529	0.968628	-0.462250
F254	F	-0.554529	1.218628	-0.212250
F255	F	-0.304529	1.468628	0.037750
F256	F	-0.054529	1.718628	0.287750
H257	H	-0.811275	1.039669	-0.232834
H258	H	-0.561275	1.289669	0.017166
H259	H	-0.311275	1.539669	0.267166
H260	H	-0.061275	1.789669	0.517166
H261	H	-0.482928	0.619785	-0.324134
H262	H	-0.232928	0.869785	-0.074134
H263	H	0.017072	1.119785	0.175866
H264	H	0.267072	1.369785	0.425866
H265	H	-0.324232	0.948246	-0.904701
H266	H	-0.074232	1.198246	-0.654701
H267	H	0.175768	1.448246	-0.404701
H268	H	0.425768	1.698246	-0.154701
H269	H	-0.903645	1.164855	-0.266409
H270	H	-0.653645	1.414855	-0.016409
H271	H	-0.403645	1.664855	0.233591
H272	H	-0.153645	1.914855	0.483591
F273	F	-0.462234	0.968801	-0.805303
F274	F	-0.212234	1.218801	-0.555303
F275	F	0.037766	1.468801	-0.305303
F276	F	0.287766	1.718801	-0.055303
H277	H	-0.903802	1.106625	-0.483056
H278	H	-0.653802	1.356625	-0.233056
H279	H	-0.403802	1.606625	0.016944
H280	H	-0.153802	1.856625	0.266944
H281	H	-0.482794	1.106690	-0.904739
H282	H	-0.232794	1.356690	-0.654739
H283	H	0.017206	1.606690	-0.404739
H284	H	0.267206	1.856690	-0.154739
F285	F	-0.215302	0.520549	-0.396391
F286	F	0.034698	0.770549	-0.146391
F287	F	0.284698	1.020549	0.103609
F288	F	0.534698	1.270549	0.353609
F289	F	-0.253293	1.177892	-0.911153
F290	F	-0.003293	1.427892	-0.661153
F291	F	0.246707	1.677892	-0.411153
F292	F	0.496707	1.927892	-0.161153
H293	H	-0.232736	1.039807	-0.811899
H294	H	0.017264	1.289807	-0.561899
H295	H	0.267264	1.539807	-0.311899
H296	H	0.517264	1.789807	-0.061899
F297	F	-0.319835	0.626724	-0.500614
F298	F	-0.069835	0.876724	-0.250614
F299	F	0.180165	1.126724	-0.000614
F300	F	0.430165	1.376724	0.249386
F301	F	-0.462588	0.520759	-0.462234
F302	F	-0.212588	0.770759	-0.212234
F303	F	0.037412	1.020759	0.037766
F304	F	0.287412	1.270759	0.287766
F305	F	-0.396118	1.215926	-0.805421
F306	F	-0.146118	1.465926	-0.555421
F307	F	0.103882	1.715926	-0.305421
F308	F	0.353882	1.965926	-0.055421
