data_functionalizedCrystal
_audit_creation_method	'MofGen! by Chris Wilmer'
_symmetry_space_group_name_H-M	'P1'
_symmetry_Int_Tables_number	1
_symmetry_cell_setting	triclinic
loop_
_symmetry_equiv_pos_as_xyz
  x,y,z
_cell_length_a	15.995350
_cell_length_b	14.971486
_cell_length_c	13.448316
_cell_angle_alpha	90.006811
_cell_angle_beta	89.996887
_cell_angle_gamma	96.446748
loop_
_atom_site_label
_atom_site_type_symbol
_atom_site_fract_x
_atom_site_fract_y
_atom_site_fract_z
O1	O	1.111103	-0.115296	-0.082608
O2	O	1.444437	0.218038	0.250725
O3	O	1.777770	0.551371	0.584059
O4	O	0.867342	-0.129533	-0.082629
O5	O	1.200676	0.203800	0.250705
O6	O	1.534009	0.537134	0.584038
O7	O	0.995756	0.007793	-0.082611
O8	O	1.329090	0.341127	0.250723
O9	O	1.662423	0.674460	0.584056
O10	O	0.982690	-0.252622	-0.082626
O11	O	1.316023	0.080712	0.250707
O12	O	1.649356	0.414045	0.584041
O13	O	0.995740	0.007802	0.082773
O14	O	1.329074	0.341135	0.416106
O15	O	1.662407	0.674468	0.749440
O16	O	0.867326	-0.129524	0.082755
O17	O	1.200660	0.203809	0.416089
O18	O	1.533993	0.537142	0.749422
O19	O	1.111087	-0.115287	0.082776
O20	O	1.444421	0.218046	0.416109
O21	O	1.777754	0.551379	0.749442
Cu22	Cu	0.989205	-0.122405	0.097866
Cu23	Cu	1.322539	0.210928	0.431200
Cu24	Cu	1.655872	0.544262	0.764533
Cu25	Cu	0.989224	-0.122415	-0.097719
Cu26	Cu	1.322558	0.210918	0.235614
Cu27	Cu	1.655891	0.544252	0.568947
O28	O	0.982673	-0.252613	0.082758
O29	O	1.316007	0.080720	0.416091
O30	O	1.649340	0.414053	0.749424
C31	C	0.836139	-0.128940	0.000061
C32	C	1.169472	0.204393	0.333394
C33	C	1.502806	0.537727	0.666727
C34	C	0.743187	-0.127175	0.000053
C35	C	1.076520	0.206158	0.333386
C36	C	1.409854	0.539491	0.666720
C37	C	0.995164	0.041122	0.000081
C38	C	1.328497	0.374455	0.333414
C39	C	1.661831	0.707788	0.666748
C40	C	0.993413	0.140417	0.000080
C41	C	1.326746	0.473750	0.333413
C42	C	1.660079	0.807083	0.666746
N43	N	0.989198	-0.122397	0.235431
N44	N	1.322531	0.210936	0.568764
N45	N	1.655865	0.544269	0.902097
C46	C	0.405433	-0.120838	0.000074
C47	C	0.738766	0.212495	0.333407
C48	C	1.072100	0.545828	0.666741
C49	C	0.452769	-0.023037	0.000449
C50	C	0.786103	0.310296	0.333782
C51	C	1.119436	0.643630	0.667115
C52	C	0.549461	-0.024802	0.000069
C53	C	0.882794	0.308531	0.333402
C54	C	1.216128	0.641865	0.666736
C55	C	0.572997	-0.123982	0.000064
C56	C	0.906330	0.209352	0.333398
C57	C	1.239663	0.542685	0.666731
C58	C	0.531967	-0.172225	-0.094377
C59	C	0.865300	0.161108	0.238956
C60	C	1.198634	0.494441	0.572290
C61	C	0.435329	-0.169768	-0.094449
C62	C	0.768662	0.163565	0.238884
C63	C	1.101996	0.496898	0.572218
C64	C	0.434974	-0.171780	0.093623
C65	C	0.768307	0.161554	0.426957
C66	C	1.101640	0.494887	0.760290
C67	C	0.531919	-0.171756	0.094865
C68	C	0.865252	0.161577	0.428198
C69	C	1.198586	0.494910	0.761531
C70	C	0.667696	-0.125763	0.000055
C71	C	1.001029	0.207570	0.333389
C72	C	1.334363	0.540903	0.666722
C73	C	0.310733	-0.119060	0.000076
C74	C	0.644067	0.214274	0.333410
C75	C	0.977400	0.547607	0.666743
C76	C	1.142291	-0.115880	0.000084
C77	C	1.475624	0.217453	0.333418
C78	C	1.808957	0.550787	0.666751
C79	C	1.235243	-0.117645	0.000085
C80	C	1.568576	0.215689	0.333419
C81	C	1.901910	0.549022	0.666752
C82	C	0.983266	-0.285942	0.000064
C83	C	1.316599	0.047392	0.333397
C84	C	1.649932	0.380725	0.666731
C85	C	0.985017	-0.385237	0.000059
C86	C	1.318350	-0.051903	0.333392
C87	C	1.651684	0.281430	0.666725
C88	C	1.068852	0.197728	0.000087
C89	C	1.402186	0.531061	0.333420
C90	C	1.735519	0.864395	0.666754
C91	C	1.067202	0.291026	0.000077
C92	C	1.400535	0.624359	0.333410
C93	C	1.733869	0.957692	0.666743
C94	C	0.990111	0.327010	0.000067
C95	C	1.323444	0.660343	0.333400
C96	C	1.656778	0.993677	0.666733
C97	C	0.914666	0.269691	0.000057
C98	C	1.247999	0.603024	0.333390
C99	C	1.581332	0.936358	0.666723
C100	C	0.916317	0.176395	0.000060
C101	C	1.249650	0.509729	0.333393
C102	C	1.582984	0.843062	0.666726
C103	C	0.911229	0.464150	0.000053
C104	C	1.244562	0.797483	0.333386
C105	C	1.577896	1.130816	0.666719
C106	C	0.909577	0.557452	0.000052
C107	C	1.242911	0.890785	0.333385
C108	C	1.576244	1.224119	0.666718
C109	C	1.062114	0.578780	0.000070
C110	C	1.395448	0.912113	0.333403
C111	C	1.728781	1.245447	0.666736
C112	C	1.063766	0.485484	0.000073
C113	C	1.397099	0.818818	0.333406
C114	C	1.730432	1.152151	0.666740
C115	C	0.988320	0.428172	0.000065
C116	C	1.321653	0.761505	0.333398
C117	C	1.654986	1.094838	0.666731
N118	N	0.989238	-0.122415	-0.235284
N119	N	1.322572	0.210918	0.098050
N120	N	1.655905	0.544251	0.431383
C121	C	1.046077	-0.061614	0.287479
C122	C	1.379411	0.271719	0.620812
C123	C	1.712744	0.605052	0.954146
C124	C	1.046083	-0.061614	0.391582
C125	C	1.379416	0.271720	0.724915
C126	C	1.712749	0.605053	1.058249
C127	C	0.989212	-0.122401	0.443635
C128	C	1.322545	0.210932	0.776969
C129	C	1.655878	0.544266	1.110302
C130	C	0.932326	-0.183187	0.391580
C131	C	1.265660	0.150146	0.724913
C132	C	1.598993	0.483480	1.058246
C133	C	0.932318	-0.183183	0.287478
C134	C	1.265651	0.150151	0.620812
C135	C	1.598984	0.483484	0.954145
C136	C	0.932350	-0.183193	0.608560
C137	C	1.265683	0.150140	0.941893
C138	C	1.599016	0.483474	1.275226
C139	C	0.932359	-0.183199	0.712668
C140	C	1.265692	0.150135	1.046002
C141	C	1.599026	0.483468	1.379335
C142	C	1.046114	-0.061624	0.712664
C143	C	1.379448	0.271709	1.045997
C144	C	1.712781	0.605043	1.379330
C145	C	1.046106	-0.061620	0.608562
C146	C	1.379439	0.271714	0.941896
C147	C	1.712773	0.605047	1.275229
C148	C	0.989221	-0.122407	0.556514
C149	C	1.322555	0.210926	0.889847
C150	C	1.655888	0.544260	1.223180
H151	H	0.577845	0.013120	0.067769
H152	H	0.911179	0.346453	0.401102
H153	H	1.244512	0.679786	0.734435
F154	F	0.871795	-0.247878	0.446979
F155	F	1.205129	0.085455	0.780312
F156	F	1.538462	0.418789	1.113646
F157	F	0.567485	-0.125652	0.186186
F158	F	0.900819	0.207681	0.519519
F159	F	1.234152	0.541014	0.852852
H160	H	1.128633	0.337686	0.000085
H161	H	1.461966	0.671019	0.333418
H162	H	1.795299	1.004352	0.666751
H163	H	0.886048	-0.232697	0.755045
H164	H	1.219381	0.100636	1.088378
H165	H	1.552715	0.433970	1.421711
H166	H	1.123545	0.625449	0.000073
H167	H	1.456878	0.958782	0.333407
H168	H	1.790212	1.292115	0.666740
H169	H	0.547356	-0.244081	0.100565
H170	H	0.880689	0.089252	0.433899
H171	H	1.214023	0.422586	0.767232
F172	F	1.106655	0.003069	0.768061
F173	F	1.439989	0.336402	1.101395
F174	F	1.773322	0.669735	1.434728
H175	H	1.126540	0.456189	0.000088
H176	H	1.459873	0.789523	0.333422
H177	H	1.793206	1.122856	0.666755
H178	H	0.403284	-0.243888	0.094259
H179	H	0.736618	0.089446	0.427592
H180	H	1.069951	0.422779	0.760925
F181	F	1.106638	0.003071	0.553163
F182	F	1.439971	0.336404	0.886496
F183	F	1.773305	0.669737	1.219830
H184	H	0.846803	0.586747	0.000059
H185	H	1.180136	0.920080	0.333393
H186	H	1.513470	1.253413	0.666726
H187	H	0.886000	-0.232677	0.245101
H188	H	1.219333	0.100656	0.578435
H189	H	1.552667	0.433989	0.911768
H190	H	1.092392	-0.012118	0.245104
H191	H	1.425725	0.321215	0.578437
H192	H	1.759058	0.654549	0.911771
F193	F	0.428496	0.028065	0.088975
F194	F	0.761829	0.361399	0.422308
F195	F	1.095163	0.694732	0.755641
F196	F	0.408086	-0.129981	0.187190
F197	F	0.741419	0.203352	0.520523
F198	F	1.074752	0.536686	0.853856
H199	H	1.131629	0.168438	0.000101
H200	H	1.464962	0.501771	0.333435
H201	H	1.798296	0.835104	0.666768
F202	F	0.830930	0.403155	0.000042
F203	F	1.164264	0.736489	0.333375
F204	F	1.497597	1.069822	0.666708
F205	F	0.871803	-0.247888	0.553170
F206	F	1.205136	0.085445	0.886504
F207	F	1.538470	0.418779	1.219837
H208	H	0.433143	0.015873	-0.066901
H209	H	0.766476	0.349206	0.266432
H210	H	1.099810	0.682540	0.599766
H211	H	0.854886	0.129732	0.000054
H212	H	1.188219	0.463066	0.333387
H213	H	1.521553	0.796399	0.666720
F214	F	0.585811	0.024888	-0.088708
F215	F	0.919144	0.358221	0.244625
F216	F	1.252478	0.691554	0.577958
F217	F	1.106619	0.003079	0.446976
F218	F	1.439952	0.336413	0.780309
F219	F	1.773285	0.669746	1.113643
F220	F	0.832619	0.307991	0.000035
F221	F	1.165952	0.641324	0.333368
F222	F	1.499286	0.974657	0.666701
H223	H	0.403153	-0.241573	-0.098738
H224	H	0.736486	0.091761	0.234595
H225	H	1.069819	0.425094	0.567928
F226	F	0.411359	-0.123793	-0.186719
F227	F	0.744692	0.209541	0.146614
F228	F	1.078026	0.542874	0.479948
F229	F	0.550544	-0.267458	-0.098991
F230	F	0.883877	0.065875	0.234343
F231	F	1.217211	0.399208	0.567676
H232	H	0.560315	-0.138724	-0.164658
H233	H	0.893648	0.194609	0.168675
H234	H	1.226981	0.527942	0.502008
