data_functionalizedCrystal
_audit_creation_method	'MofGen! by Chris Wilmer'
_symmetry_space_group_name_H-M	'P1'
_symmetry_Int_Tables_number	1
_symmetry_cell_setting	triclinic
loop_
_symmetry_equiv_pos_as_xyz
  x,y,z
_cell_length_a	16.625547
_cell_length_b	12.594516
_cell_length_c	16.625539
_cell_angle_alpha	89.976673
_cell_angle_beta	89.975178
_cell_angle_gamma	90.015990
loop_
_atom_site_label
_atom_site_type_symbol
_atom_site_fract_x
_atom_site_fract_y
_atom_site_fract_z
Zn1	Zn	1.232716	-0.423742	-0.456029
Zn2	Zn	1.232635	-0.601743	-0.321208
Zn3	Zn	1.097878	-0.423779	-0.321199
Zn4	Zn	1.097864	-0.601679	-0.455988
O5	O	1.165273	-0.512736	-0.388606
O6	O	1.345538	-0.447366	-0.438165
O7	O	1.214731	-0.578178	-0.208374
O8	O	1.115805	-0.274828	-0.339098
O9	O	1.345478	-0.578143	-0.339113
O10	O	1.214870	-0.274801	-0.438157
O11	O	1.115726	-0.447429	-0.208368
O12	O	0.985044	-0.447366	-0.339058
O13	O	1.115780	-0.578032	-0.568825
O14	O	0.985033	-0.578068	-0.438087
O15	O	1.214856	-0.447303	-0.568856
O16	O	1.214717	-0.750680	-0.339073
O17	O	1.115701	-0.750633	-0.438095
C18	C	0.955782	-0.512715	-0.388568
C19	C	0.866161	-0.512732	-0.388571
C20	C	0.793379	-0.512734	-0.388581
C21	C	0.702070	-0.512739	-0.388601
C22	C	0.629294	-0.512749	-0.388621
C23	C	0.537980	-0.512757	-0.388641
C24	C	1.165220	-0.789277	-0.388598
C25	C	1.165272	-0.907582	-0.388622
C26	C	1.111412	-0.976848	-0.442442
C27	C	1.091767	-1.047709	-0.368866
C28	C	1.184990	-1.047521	-0.462210
C29	C	1.145588	-0.976884	-0.315007
C30	C	1.238845	-0.976690	-0.408400
C31	C	1.219228	-1.047519	-0.334774
C32	C	1.375582	-0.512757	-0.388645
C33	C	1.465203	-0.512766	-0.388661
C34	C	1.165326	-0.512656	-0.598915
C35	C	1.165348	-0.512623	-0.688536
C36	C	1.165348	-0.235115	-0.388631
C37	C	1.165380	-0.116809	-0.388642
C38	C	1.165385	-0.512503	-1.016712
C39	C	1.165373	-0.512540	-0.925403
C40	C	1.165367	-0.512564	-0.852627
C41	C	1.165354	-0.512599	-0.761312
C42	C	1.165268	-0.512738	-0.179115
C43	C	1.165401	-0.512472	-0.089494
H44	H	1.029597	-1.078926	-0.352154
H45	H	1.201624	-1.078549	-0.524435
N46	N	1.124620	-0.938114	-0.236931
N47	N	1.121154	-0.840384	-0.224331
H48	H	1.106338	-0.812999	-0.169193
H49	H	1.264822	-1.078354	-0.289216
N50	N	1.054164	-0.937909	-0.499443
N51	N	0.997564	-0.879980	-0.476591
H52	H	0.957130	-0.852477	-0.516843
H53	H	1.301000	-0.945475	-0.425148
