data_functionalizedCrystal
_audit_creation_method	'MofGen! by Chris Wilmer'
_symmetry_space_group_name_H-M	'P1'
_symmetry_Int_Tables_number	1
_symmetry_cell_setting	triclinic
loop_
_symmetry_equiv_pos_as_xyz
  x,y,z
_cell_length_a	15.995350
_cell_length_b	15.072220
_cell_length_c	15.995350
_cell_angle_alpha	90.001101
_cell_angle_beta	96.507625
_cell_angle_gamma	90.008851
loop_
_atom_site_label
_atom_site_type_symbol
_atom_site_fract_x
_atom_site_fract_y
_atom_site_fract_z
O1	O	1.110996	0.073703	-0.107921
O2	O	1.610996	0.573703	0.392079
O3	O	0.867221	0.073721	-0.121249
O4	O	1.367221	0.573721	0.378751
O5	O	0.995772	0.073710	0.007303
O6	O	1.495772	0.573710	0.507303
O7	O	0.982444	0.073713	-0.236472
O8	O	1.482444	0.573713	0.263528
O9	O	0.995740	-0.073855	0.007296
O10	O	1.495740	0.426145	0.507296
O11	O	0.867189	-0.073844	-0.121256
O12	O	1.367189	0.426156	0.378744
O13	O	1.110964	-0.073862	-0.107928
O14	O	1.610964	0.426138	0.392072
Zn15	Zn	0.989071	-0.097283	-0.114593
Zn16	Zn	1.489071	0.402717	0.385407
Zn17	Zn	0.989113	0.097141	-0.114584
Zn18	Zn	1.489113	0.597141	0.385416
O19	O	0.982413	-0.073852	-0.236480
O20	O	1.482413	0.426148	0.263520
C21	C	0.836010	-0.000060	-0.120701
C22	C	1.336010	0.499940	0.379299
C23	C	0.743060	-0.000053	-0.119049
C24	C	1.243060	0.499947	0.380951
N25	N	0.989049	-0.229971	-0.114599
N26	N	1.489049	0.270029	0.385401
C27	C	0.405312	-0.000071	-0.113117
C28	C	0.905312	0.499929	0.386883
C29	C	0.452746	-0.000401	-0.021565
C30	C	0.952746	0.499599	0.478435
C31	C	0.549436	-0.000063	-0.023217
C32	C	1.049436	0.499937	0.476783
C33	C	0.572873	-0.000063	-0.116060
C34	C	1.072873	0.499937	0.383940
C35	C	0.531804	0.084201	-0.161212
C36	C	1.031804	0.584201	0.338788
C37	C	0.435168	0.084266	-0.158912
C38	C	0.935168	0.584266	0.341088
C39	C	0.434793	-0.083543	-0.160812
C40	C	0.934793	0.416457	0.339188
C41	C	0.531738	-0.084651	-0.160790
C42	C	1.031738	0.415349	0.339210
C43	C	0.667570	-0.000055	-0.117727
C44	C	1.167570	0.499945	0.382273
C45	C	0.310614	-0.000073	-0.111452
C46	C	0.810614	0.499927	0.388548
C47	C	0.989112	-0.589173	-0.114580
C48	C	1.489112	-0.089173	0.385420
C49	C	0.920095	-0.551560	-0.183135
C50	C	1.420095	-0.051560	0.316865
C51	C	0.920254	-0.448735	-0.183385
C52	C	1.420254	0.051265	0.316615
C53	C	0.989080	-0.410969	-0.114590
C54	C	1.489080	0.089031	0.385410
C55	C	1.076445	-0.448266	-0.133671
C56	C	1.576445	0.051734	0.366329
C57	C	1.076058	-0.551124	-0.134159
C58	C	1.576058	-0.051124	0.365841
C59	C	0.971542	-0.551272	-0.026741
C60	C	1.471542	-0.051272	0.473259
C61	C	0.969537	-0.448409	-0.027327
C62	C	1.469537	0.051591	0.472673
C63	C	0.989067	-0.310255	-0.114593
C64	C	1.489067	0.189745	0.385407
C65	C	0.989130	-0.689886	-0.114579
C66	C	1.489130	-0.189886	0.385421
C67	C	1.142175	-0.000080	-0.108476
C68	C	1.642175	0.499920	0.391524
C69	C	1.235125	-0.000081	-0.110127
C70	C	1.735125	0.499919	0.389873
C71	C	0.995205	-0.000070	0.038494
C72	C	1.495205	0.499930	0.538494
C73	C	0.993553	-0.000065	0.131444
C74	C	1.493553	0.499935	0.631444
N75	N	0.989142	0.229830	-0.114571
N76	N	1.489142	0.729830	0.385429
C77	C	0.982980	-0.000069	-0.267671
C78	C	1.482980	0.499931	0.232329
C79	C	0.984631	-0.000069	-0.360621
C80	C	1.484631	0.499931	0.139379
C81	C	0.987621	-0.000068	0.469192
C82	C	1.487621	0.499932	0.969192
C83	C	0.896069	0.000270	0.421758
C84	C	1.396069	0.500270	0.921758
C85	C	0.897721	-0.000063	0.325068
C86	C	1.397721	0.499937	0.825068
C87	C	0.990564	-0.000066	0.301631
C88	C	1.490564	0.499934	0.801631
C89	C	1.035702	-0.084335	0.342705
C90	C	1.535702	0.415665	0.842705
C91	C	1.033402	-0.084405	0.439341
C92	C	1.533402	0.415595	0.939341
C93	C	1.035330	0.083404	0.439707
C94	C	1.535330	0.583404	0.939707
C95	C	1.035308	0.084518	0.342761
C96	C	1.535308	0.584518	0.842761
C97	C	0.992231	-0.000068	0.206934
C98	C	1.492231	0.499932	0.706934
C99	C	0.985956	-0.000072	0.563890
C100	C	1.485956	0.499928	1.063890
H101	H	0.577852	-0.060467	0.012275
H102	H	1.077852	0.439533	0.512275
H103	H	1.016540	-0.422704	0.026078
H104	H	1.516540	0.077296	0.526078
H105	H	0.545929	0.087335	-0.229421
H106	H	1.045929	0.587335	0.270579
Br107	Br	0.835152	-0.099576	0.454809
Br108	Br	1.335152	0.400424	0.954809
H109	H	1.092297	-0.422498	-0.197002
H110	H	1.592297	0.077502	0.302998
Br111	Br	0.577128	-0.188553	-0.105759
Br112	Br	1.077128	0.311447	0.394241
Br113	Br	1.148156	0.093004	0.317153
Br114	Br	1.648156	0.593004	0.817153
H115	H	0.434211	-0.060830	0.015027
H116	H	0.934211	0.439170	0.515027
Br117	Br	0.420105	0.099753	0.039163
Br118	Br	0.920105	0.599753	0.539163
Br119	Br	1.055428	-0.591809	0.058290
Br120	Br	1.555428	-0.091809	0.558290
Br121	Br	0.557338	-0.093135	-0.273639
Br122	Br	1.057338	0.406865	0.226361
Br123	Br	1.147835	0.084346	0.492642
Br124	Br	1.647835	0.584346	0.992642
H125	H	0.861974	-0.060568	0.297200
H126	H	1.361974	0.439432	0.797200
Br127	Br	0.838581	0.100620	0.277696
Br128	Br	1.338581	0.600620	0.777696
H129	H	0.416873	0.147255	-0.125979
H130	H	0.916873	0.647255	0.374021
H131	H	0.414244	-0.147414	-0.130885
H132	H	0.914244	0.352586	0.369115
Br133	Br	0.835095	0.100995	0.452645
Br134	Br	1.335095	0.600995	0.952645
H135	H	0.931473	-0.424121	-0.248570
H136	H	1.431473	0.075879	0.251430
Br137	Br	0.595862	0.100965	0.036083
Br138	Br	1.095862	0.600965	0.536083
Br139	Br	0.811499	-0.592797	-0.164485
Br140	Br	1.311499	-0.092797	0.335515
Br141	Br	0.579114	0.188727	-0.108935
Br142	Br	1.079114	0.688727	0.391065
Br143	Br	0.381415	0.090639	-0.270939
Br144	Br	0.881415	0.590639	0.229061
H145	H	1.129029	-0.423801	-0.085068
H146	H	1.629029	0.076199	0.414932
Br147	Br	0.381858	-0.084494	-0.273317
Br148	Br	0.881858	0.415506	0.226683
H149	H	1.103910	-0.087471	0.328579
H150	H	1.603910	0.412529	0.828579
Br151	Br	0.811999	-0.406702	-0.164495
Br152	Br	1.311999	0.093298	0.335505
H153	H	1.000460	-0.147395	0.457639
H154	H	1.500460	0.352605	0.957639
H155	H	1.100617	-0.088231	0.471588
H156	H	1.600617	0.411769	0.971588
H157	H	1.091540	-0.575106	-0.198219
H158	H	1.591540	-0.075106	0.301781
H159	H	0.931160	-0.577399	-0.247952
H160	H	1.431160	-0.077399	0.252048
Br161	Br	1.164141	-0.592597	-0.054009
Br162	Br	1.664141	-0.092597	0.445991
H163	H	0.909219	-0.577258	-0.008392
H164	H	1.409219	-0.077258	0.491608
H165	H	1.004325	-0.147042	0.314320
H166	H	1.504325	0.352958	0.814320
Br167	Br	0.862421	-0.407783	-0.003187
Br168	Br	1.362421	0.092217	0.496813
Br169	Br	0.985455	0.189860	0.473933
Br170	Br	1.485455	0.689860	0.973933
Br171	Br	0.980764	0.188440	0.296811
Br172	Br	1.480764	0.688440	0.796811
