data_functionalizedCrystal
_audit_creation_method	'MofGen! by Chris Wilmer'
_symmetry_space_group_name_H-M	'P1'
_symmetry_Int_Tables_number	1
_symmetry_cell_setting	triclinic
loop_
_symmetry_equiv_pos_as_xyz
  x,y,z
_cell_length_a	14.971486
_cell_length_b	14.971486
_cell_length_c	7.540329
_cell_angle_alpha	89.996199
_cell_angle_beta	90.001997
_cell_angle_gamma	83.614129
loop_
_atom_site_label
_atom_site_type_symbol
_atom_site_fract_x
_atom_site_fract_y
_atom_site_fract_z
O1	O	-1.186943	-0.116561	0.147279
O2	O	-0.853610	0.216772	0.480613
O3	O	-0.520276	0.550105	0.813946
O4	O	-0.926543	-0.130520	0.147328
O5	O	-0.593209	0.202813	0.480661
O6	O	-0.259876	0.536146	0.813994
O7	O	-1.063722	0.006659	0.147290
O8	O	-0.730389	0.339993	0.480623
O9	O	-0.397055	0.673326	0.813956
O10	O	-1.049763	-0.253741	0.147317
O11	O	-0.716430	0.079592	0.480651
O12	O	-0.383097	0.412926	0.813984
O13	O	-1.063714	0.006661	-0.147675
O14	O	-0.730381	0.339994	0.185658
O15	O	-0.397047	0.673328	0.518991
O16	O	-0.926535	-0.130519	-0.147637
O17	O	-0.593201	0.202815	0.185696
O18	O	-0.259868	0.536148	0.519029
O19	O	-1.186935	-0.116560	-0.147686
O20	O	-0.853601	0.216774	0.185648
O21	O	-0.520268	0.550107	0.518981
Cu22	Cu	-1.056734	-0.123539	-0.174594
Cu23	Cu	-0.723401	0.209794	0.158739
Cu24	Cu	-0.390067	0.543128	0.492072
Cu25	Cu	-1.056744	-0.123541	0.174236
Cu26	Cu	-0.723410	0.209792	0.507570
Cu27	Cu	-0.390077	0.543126	0.840903
O28	O	-1.049755	-0.253739	-0.147648
O29	O	-0.716422	0.079594	0.185686
O30	O	-0.383089	0.412927	0.519019
C31	C	-0.893214	-0.129895	-0.000149
C32	C	-0.559881	0.203438	0.333185
C33	C	-0.226547	0.536772	0.666518
C34	C	-0.793917	-0.128024	-0.000131
C35	C	-0.460583	0.205309	0.333203
C36	C	-0.127250	0.538642	0.666536
C37	C	-1.063094	0.039985	-0.000192
C38	C	-0.729761	0.373318	0.333141
C39	C	-0.396427	0.706652	0.666474
C40	C	-1.061223	0.139282	-0.000190
C41	C	-0.727890	0.472615	0.333143
C42	C	-0.394556	0.805949	0.666476
C43	C	-1.220263	-0.117185	-0.000205
C44	C	-0.886930	0.216149	0.333128
C45	C	-0.553597	0.549482	0.666461
C46	C	-1.319561	-0.119056	-0.000212
C47	C	-0.986227	0.214278	0.333121
C48	C	-0.652894	0.547611	0.666455
N49	N	-1.056734	-0.123537	-0.419943
N50	N	-0.723400	0.209796	-0.086609
N51	N	-0.390067	0.543130	0.246724
C52	C	-0.736692	-0.208614	-0.000124
C53	C	-0.403358	0.124720	0.333209
C54	C	-0.070025	0.458053	0.666542
C55	C	-0.643392	-0.206850	-0.000151
C56	C	-0.310059	0.126483	0.333182
C57	C	0.023275	0.459816	0.666516
C58	C	-0.607320	-0.124497	-0.000171
C59	C	-0.273986	0.208836	0.333162
C60	C	0.059347	0.542169	0.666496
C61	C	-0.664552	-0.043902	-0.000183
C62	C	-0.331219	0.289431	0.333151
C63	C	0.002114	0.622765	0.666484
C64	C	-0.757850	-0.045666	-0.000169
C65	C	-0.424517	0.287667	0.333165
C66	C	-0.091183	0.621001	0.666498
C67	C	-0.470090	-0.040231	-0.000207
C68	C	-0.136757	0.293103	0.333126
C69	C	0.196577	0.626436	0.666459
C70	C	-0.376786	-0.038466	-0.000218
C71	C	-0.043453	0.294867	0.333115
C72	C	0.289881	0.628200	0.666449
C73	C	-0.355632	-0.201415	-0.000190
C74	C	-0.022299	0.131918	0.333144
C75	C	0.311035	0.465251	0.666477
C76	C	-0.448930	-0.203179	-0.000176
C77	C	-0.115596	0.130154	0.333157
C78	C	0.217737	0.463487	0.666491
C79	C	-0.506156	-0.122584	-0.000184
C80	C	-0.172822	0.210750	0.333149
C81	C	0.160511	0.544083	0.666483
C82	C	-1.050384	-0.287065	-0.000162
C83	C	-0.717050	0.046269	0.333172
C84	C	-0.383717	0.379602	0.666505
C85	C	-1.052254	-0.386362	-0.000152
C86	C	-0.718921	-0.053028	0.333181
C87	C	-0.385588	0.280305	0.666515
C88	C	-1.141812	0.196507	-0.000207
C89	C	-0.808479	0.529841	0.333127
C90	C	-0.475146	0.863174	0.666460
C91	C	-1.140049	0.289807	-0.000188
C92	C	-0.806716	0.623140	0.333145
C93	C	-0.473383	0.956473	0.666478
C94	C	-1.057696	0.325879	-0.000167
C95	C	-0.724363	0.659212	0.333167
C96	C	-0.391029	0.992546	0.666500
C97	C	-0.977101	0.268646	-0.000145
C98	C	-0.643767	0.601980	0.333188
C99	C	-0.310434	0.935313	0.666522
C100	C	-0.978865	0.175349	-0.000151
C101	C	-0.645531	0.508682	0.333183
C102	C	-0.312198	0.842015	0.666516
C103	C	-0.973430	0.463109	-0.000138
C104	C	-0.640096	0.796442	0.333195
C105	C	-0.306763	1.129776	0.666529
C106	C	-0.971665	0.556413	-0.000136
C107	C	-0.638332	0.889746	0.333198
C108	C	-0.304998	1.223080	0.666531
C109	C	-1.134614	0.577567	-0.000176
C110	C	-0.801281	0.910900	0.333158
C111	C	-0.467947	1.244233	0.666491
C112	C	-1.136378	0.484269	-0.000181
C113	C	-0.803045	0.817603	0.333152
C114	C	-0.469712	1.150936	0.666485
C115	C	-1.055782	0.427043	-0.000163
C116	C	-0.722449	0.760376	0.333170
C117	C	-0.389116	1.093710	0.666504
N118	N	-1.056751	-0.123536	0.419585
N119	N	-0.723418	0.209798	0.752918
N120	N	-0.390084	0.543131	1.086251
H121	H	-0.766054	-0.275675	-0.000107
H122	H	-0.432720	0.057658	0.333227
H123	H	-0.099387	0.390992	0.666560
H124	H	-1.208874	0.167145	-0.000235
H125	H	-0.875541	0.500478	0.333098
H126	H	-0.542207	0.833812	0.666431
H127	H	-0.596802	-0.272474	-0.000144
H128	H	-0.263469	0.060859	0.333189
H129	H	0.069864	0.394192	0.666523
H130	H	-1.205673	0.336396	-0.000206
H131	H	-0.872340	0.669730	0.333128
H132	H	-0.539007	1.003063	0.666461
H133	H	-0.913240	0.128756	-0.000137
H134	H	-0.579907	0.462089	0.333196
H135	H	-0.246574	0.795423	0.666530
H136	H	-0.904606	0.585780	-0.000147
H137	H	-0.571273	0.919113	0.333187
H138	H	-0.237939	1.252446	0.666520
O139	O	-0.886504	0.401381	-0.000135
O140	O	-0.553170	0.734714	0.333198
O141	O	-0.219837	1.068048	0.666532
H142	H	-0.828941	0.442136	-0.000144
H143	H	-0.495608	0.775470	0.333190
H144	H	-0.162274	1.108803	0.666523
H145	H	-0.910047	0.298024	-0.000116
H146	H	-0.576714	0.631357	0.333217
H147	H	-0.243380	0.964690	0.666550
O148	O	-0.293917	-0.288348	-0.000201
O149	O	0.039416	0.044985	0.333132
O150	O	0.372749	0.378318	0.666466
H151	H	-0.222981	-0.273290	-0.000240
H152	H	0.110352	0.060044	0.333093
H153	H	0.443686	0.393377	0.666427
H154	H	-0.804443	0.019958	-0.000173
H155	H	-0.471109	0.353292	0.333161
H156	H	-0.137776	0.686625	0.666494
H157	H	-0.478296	-0.270239	-0.000143
H158	H	-0.144963	0.063095	0.333191
H159	H	0.188370	0.396428	0.666524
O160	O	-0.337873	0.050354	-0.000273
O161	O	-0.004539	0.383688	0.333061
O162	O	0.328794	0.717021	0.666394
H163	H	-0.360848	0.089101	0.119926
H164	H	-0.027515	0.422434	0.453259
H165	H	0.305819	0.755767	0.786593
H166	H	-1.200238	0.624165	-0.000185
H167	H	-0.866905	0.957499	0.333148
H168	H	-0.533572	1.290832	0.666481
H169	H	-1.203437	0.454903	-0.000212
H170	H	-0.870104	0.788236	0.333122
H171	H	-0.536771	1.121569	0.666455
H172	H	-0.516682	0.025399	-0.000217
H173	H	-0.183348	0.358732	0.333117
H174	H	0.149985	0.692066	0.666450
H175	H	-0.635175	0.023152	-0.000224
H176	H	-0.301842	0.356485	0.333109
H177	H	0.031492	0.689818	0.666442
