data_functionalizedCrystal
_audit_creation_method	'MofGen! by Chris Wilmer'
_symmetry_space_group_name_H-M	'P1'
_symmetry_Int_Tables_number	1
_symmetry_cell_setting	triclinic
loop_
_symmetry_equiv_pos_as_xyz
  x,y,z
_cell_length_a	21.606444
_cell_length_b	12.970454
_cell_length_c	12.970454
_cell_angle_alpha	59.999776
_cell_angle_beta	89.998909
_cell_angle_gamma	60.001029
loop_
_atom_site_label
_atom_site_type_symbol
_atom_site_fract_x
_atom_site_fract_y
_atom_site_fract_z
Zr1	Zr	0.596222	1.128563	-0.135341
O2	O	0.497400	1.343646	-0.299960
O3	O	0.626516	0.913474	-0.084876
O4	O	0.626517	1.128564	-0.299967
O5	O	0.497398	1.128557	0.084797
O6	O	0.728367	1.128571	-0.299973
O7	O	0.497399	1.128556	-0.084869
O8	O	0.728365	0.743815	0.084786
O9	O	0.497400	1.513313	-0.299961
O10	O	0.715445	1.001951	-0.063358
O11	O	0.639436	1.001946	0.063266
O12	O	0.639437	1.255187	-0.189975
O13	O	0.563427	1.255182	-0.063351
Zr14	Zr	0.758659	1.128576	0.135248
Zr15	Zr	0.758660	1.128575	-0.135351
Zr16	Zr	0.596221	1.128564	0.135258
Zr17	Zr	0.596222	1.399163	-0.135342
Zr18	Zr	0.758659	0.857976	0.135249
O19	O	0.728365	1.343664	0.084782
O20	O	0.728367	1.343662	-0.299974
O21	O	0.497398	1.343648	0.084796
O22	O	0.857481	0.913493	0.299867
O23	O	0.857483	0.913491	-0.084890
O24	O	0.626514	0.913477	0.299881
O25	O	0.857483	1.128582	-0.084891
O26	O	0.728364	1.128575	0.299873
O27	O	0.626514	1.128567	0.299879
O28	O	0.857482	1.128583	0.084776
O29	O	0.626517	1.513322	-0.299969
O30	O	0.728364	0.743816	0.299875
O31	O	0.857481	0.743826	0.299867
O32	O	0.857482	0.743825	0.084778
O33	O	0.497399	1.513314	-0.084871
O34	O	0.626516	1.513324	-0.084879
O35	O	0.715444	1.001952	0.189882
O36	O	0.791454	1.001957	0.063257
O37	O	0.715445	1.255193	-0.063360
O38	O	0.639436	1.255188	0.063265
C39	C	0.677441	0.790090	-0.000045
C40	C	0.677440	0.675213	-0.000044
C41	C	0.474255	1.128555	-0.000034
C42	C	0.405295	1.128550	-0.000030
C43	C	0.412572	0.996365	0.066058
C44	C	0.347774	0.996369	0.066059
C45	C	0.275701	1.128560	-0.000036
C46	C	0.268426	1.260755	-0.066126
C47	C	0.333223	1.260750	-0.066119
C48	C	0.007108	1.260780	-0.066154
C49	C	-0.057690	1.260776	-0.066159
C50	C	0.021660	0.996400	0.066024
C51	C	0.086456	0.996394	0.066031
C52	C	0.079176	1.128589	-0.000053
C53	C	0.149437	1.128583	-0.000052
C54	C	0.205441	1.128567	-0.000046
C55	C	0.880626	1.128584	-0.000059
C56	C	0.949586	1.128589	-0.000063
C57	C	0.677442	1.128568	-0.338524
C58	C	0.677442	1.128567	-0.453400
C59	C	0.677441	1.467049	-0.000048
C60	C	0.677441	1.581925	-0.000049
C61	C	0.677439	1.128571	0.338431
C62	C	0.677439	1.128572	0.453307
C63	C	0.880626	0.790105	-0.000057
C64	C	0.949586	0.675233	-0.000061
C65	C	0.677439	0.790092	0.338433
C66	C	0.677439	0.675216	0.453309
C67	C	0.880625	0.790107	0.338420
C68	C	0.949584	0.675235	0.453293
C69	C	0.474256	1.467032	-0.338514
C70	C	0.405297	1.581904	-0.453386
C71	C	0.474255	1.467034	-0.000036
C72	C	0.405295	1.581906	-0.000033
C73	C	0.677442	1.467047	-0.338526
C74	C	0.677442	1.581923	-0.453403
C75	C	0.942294	0.621285	-0.066166
C76	C	1.007083	0.513365	-0.066194
C77	C	1.079162	0.459389	-0.000110
C78	C	1.086452	0.513348	0.065997
C79	C	1.021665	0.621273	0.066018
C80	C	1.021651	0.621293	0.441141
C81	C	1.086451	0.513374	0.549066
C82	C	1.079183	0.459393	0.669141
C83	C	1.007109	0.513345	0.681290
C84	C	0.942310	0.621270	0.573367
C85	C	0.333230	1.635859	-0.441235
C86	C	0.268430	1.743811	-0.549159
C87	C	0.275698	1.797799	-0.669234
C88	C	0.347773	1.743839	-0.681383
C89	C	0.412571	1.635896	-0.573460
C90	C	0.412587	1.635865	0.066061
C91	C	0.347799	1.743815	0.066060
C92	C	0.275719	1.797795	-0.000028
C93	C	0.268429	1.743831	-0.066130
C94	C	0.333217	1.635891	-0.066136
H95	H	0.353706	0.888730	0.119877
C96	C	1.165742	0.453952	0.138696
H97	H	1.203276	0.381938	0.129221
H98	H	1.171441	0.531418	0.106075
H99	H	1.171428	0.411819	0.225660
H100	H	0.222971	1.885686	-0.000013
C101	C	0.189156	1.803144	-0.535780
H102	H	0.151600	1.875177	-0.617246
H103	H	0.183477	1.725650	-0.490938
H104	H	0.183483	1.845236	-0.490915
H105	H	0.353681	1.787809	-0.779161
H106	H	0.327298	1.591908	-0.343473
H107	H	1.001202	0.469378	0.779069
C108	C	0.189139	1.803209	-0.138811
H109	H	0.151605	1.875207	-0.129321
H110	H	0.183441	1.845323	-0.225771
H111	H	0.183452	1.725718	-0.106152
C112	C	0.204417	1.916527	-0.787943
H113	H	0.219062	1.940965	-0.861201
H114	H	0.175106	1.881140	-0.787934
H115	H	0.175112	2.000737	-0.787933
C116	C	0.325190	1.576526	-0.138826
H117	H	0.374095	1.504513	-0.129377
H118	H	0.298262	1.534433	-0.106174
H119	H	0.298268	1.654019	-0.225786
C120	C	1.150466	0.340667	0.787845
H121	H	1.194425	0.316269	0.763400
H122	H	1.150481	0.376029	0.836686
H123	H	1.150476	0.256438	0.836671
C124	C	0.863015	0.680647	-0.138872
H125	H	0.867962	0.633061	-0.178253
H126	H	0.836085	0.662954	-0.081830
H127	H	0.836094	0.782556	-0.201419
C128	C	0.491868	1.576507	0.138757
H129	H	0.529416	1.504483	0.129305
H130	H	0.497550	1.653998	0.106108
H131	H	0.497550	1.534401	0.225718
H132	H	0.883632	0.665175	0.583278
C133	C	1.150422	0.340662	-0.000129
H134	H	1.135749	0.316258	-0.048956
H135	H	1.179741	0.376024	-0.035517
H136	H	1.179730	0.256435	0.084082
H137	H	0.471250	1.591966	-0.583369
H138	H	0.471254	0.888719	0.119886
C139	C	1.029661	0.680658	0.309073
H140	H	1.081866	0.633075	0.317312
H141	H	1.006040	0.662962	0.264216
H142	H	1.006032	0.782568	0.264224
C143	C	0.165735	0.850989	0.138736
H144	H	0.203283	0.869918	0.129267
H145	H	0.171414	0.796676	0.225690
H146	H	0.171421	0.796674	0.106088
H147	H	0.027582	0.888760	0.119836
C148	C	1.029691	0.680608	0.138737
H149	H	0.980787	0.752625	0.129284
H150	H	1.056619	0.603112	0.225687
H151	H	1.056613	0.722721	0.106079
C152	C	1.165723	0.454032	0.535680
H153	H	1.160765	0.501625	0.448709
H154	H	1.192656	0.471731	0.575016
H155	H	1.192649	0.352122	0.575039
H156	H	-0.116377	1.368428	-0.119984
H157	H	0.353749	1.787734	0.119893
H158	H	0.001170	1.368422	-0.119987
H159	H	0.209739	1.368387	-0.119935
H160	H	1.001132	0.469445	-0.120026
C161	C	0.325219	1.406153	-0.138821
H162	H	0.273015	1.484883	-0.178197
H163	H	0.348845	1.411647	-0.081770
H164	H	0.348849	1.411645	-0.201371
