data_functionalizedCrystal
_audit_creation_method	'MofGen! by Chris Wilmer'
_symmetry_space_group_name_H-M	'P1'
_symmetry_Int_Tables_number	1
_symmetry_cell_setting	triclinic
loop_
_symmetry_equiv_pos_as_xyz
  x,y,z
_cell_length_a	17.019282
_cell_length_b	17.038272
_cell_length_c	11.295483
_cell_angle_alpha	94.391706
_cell_angle_beta	89.768720
_cell_angle_gamma	87.241387
loop_
_atom_site_label
_atom_site_type_symbol
_atom_site_fract_x
_atom_site_fract_y
_atom_site_fract_z
O1	O	1.052911	0.100024	0.008983
O2	O	0.825269	0.111494	-0.014371
O3	O	0.937737	-0.008062	-0.002823
O4	O	0.940443	0.219580	-0.002565
O5	O	0.927857	0.002422	0.194213
O6	O	0.815389	0.121978	0.182665
O7	O	1.043032	0.110509	0.206020
Cu8	Cu	0.928309	0.117201	0.212333
Cu9	Cu	0.939992	0.104801	-0.020685
O10	O	0.930564	0.230064	0.194472
C11	C	0.791058	0.116096	0.081144
C12	C	0.703839	0.114180	0.072196
C13	C	0.930336	-0.031959	0.095442
C14	C	0.922993	-0.118786	0.094689
C15	C	0.657483	0.118993	0.175400
C16	C	0.575532	0.117181	0.166996
C17	C	0.539939	0.110560	0.055387
C18	C	0.586302	0.105744	-0.047824
C19	C	0.668251	0.107551	-0.039419
C20	C	0.292774	0.104813	0.024636
C21	C	0.210818	0.103008	0.016238
C22	C	0.200055	0.114443	0.231059
C23	C	0.282006	0.116255	0.239455
C24	C	0.328362	0.111434	0.136243
C25	C	0.456172	0.108710	0.046794
C26	C	0.412127	0.113279	0.144837
C27	C	0.990407	-0.168593	0.101606
C28	C	0.983504	-0.250176	0.100886
C29	C	0.909186	-0.281949	0.093258
C30	C	0.841767	-0.232135	0.086336
C31	C	0.848672	-0.150554	0.087048
C32	C	0.884794	-0.527818	0.090739
C33	C	0.877894	-0.609405	0.090032
C34	C	1.019632	-0.627441	0.104580
C35	C	1.026529	-0.545857	0.105298
C36	C	0.959111	-0.496051	0.098370
C37	C	0.902128	-0.365339	0.092526
C38	C	0.966170	-0.412663	0.099093
C39	C	1.077243	0.105906	0.110502
C40	C	1.164462	0.107822	0.119442
C41	C	0.937965	0.253961	0.096204
C42	C	0.945308	0.340787	0.096949
N43	N	0.920097	0.125921	0.376227
N44	N	0.948210	0.096075	-0.184578
C45	C	1.007320	0.033256	0.634472
C46	C	1.001121	0.039852	0.758499
C47	C	0.901494	0.145704	0.748310
C48	C	0.907694	0.139108	0.624283
C49	C	0.960609	0.082883	0.567368
C50	C	0.966813	0.076292	0.443339
C51	C	0.867182	0.182140	0.433152
C52	C	0.860983	0.188736	0.557179
H53	H	0.686456	0.124391	0.266284
F54	F	0.526199	0.122314	0.276840
H55	H	0.162303	0.118366	0.315088
F56	F	0.804666	0.248570	0.617762
F57	F	1.055255	-0.303182	0.108251
H58	H	0.310980	0.121642	0.330338
F59	F	0.172939	0.095964	-0.102557
F60	F	0.342099	0.099683	-0.085212
F61	F	1.091377	-0.680453	0.111951
H62	H	1.050412	-0.012520	0.588132
F63	F	0.717587	0.102426	-0.149263
F64	F	1.050835	-0.012970	0.829912
F65	F	0.817471	0.234963	0.361724
F66	F	0.418286	0.101637	-0.071985
F67	F	0.548420	0.098674	-0.166607
F68	F	0.450010	0.120322	0.263616
H69	H	0.858405	0.191476	0.794665
F70	F	1.069506	-0.134786	0.109737
F71	F	1.105630	-0.512050	0.113387
F72	F	0.798791	-0.643217	0.081918
H73	H	0.781256	-0.258011	0.080118
F74	F	0.813041	-0.474821	0.083363
H75	H	1.026681	-0.386791	0.105278
F76	F	0.776921	-0.097545	0.079681
F77	F	0.823035	-0.399161	0.084402
H78	H	1.009902	0.030513	0.397001
