data_functionalizedCrystal
_audit_creation_method	'MofGen! by Chris Wilmer'
_symmetry_space_group_name_H-M	'P1'
_symmetry_Int_Tables_number	1
_symmetry_cell_setting	triclinic
loop_
_symmetry_equiv_pos_as_xyz
  x,y,z
_cell_length_a	14.908571
_cell_length_b	12.594516
_cell_length_c	12.594510
_cell_angle_alpha	90.032321
_cell_angle_beta	93.313984
_cell_angle_gamma	86.712497
loop_
_atom_site_label
_atom_site_type_symbol
_atom_site_fract_x
_atom_site_fract_y
_atom_site_fract_z
Zn1	Zn	1.379264	-0.517677	0.695604
Zn2	Zn	1.379172	-0.695700	0.517625
Zn3	Zn	1.228396	-0.507457	0.507380
Zn4	Zn	1.228380	-0.685327	0.685308
O5	O	1.303803	-0.601540	0.601480
O6	O	1.505498	-0.549910	0.680591
O7	O	1.359139	-0.670793	0.367318
O8	O	1.248454	-0.359870	0.532370
O9	O	1.505430	-0.680703	0.549831
O10	O	1.359296	-0.367379	0.670657
O11	O	1.248365	-0.532491	0.359791
O12	O	1.102148	-0.522433	0.522387
O13	O	1.248427	-0.663025	0.835622
O14	O	1.102136	-0.653114	0.653109
O15	O	1.359281	-0.539852	0.843186
O16	O	1.359124	-0.843267	0.539848
O17	O	1.248338	-0.835646	0.663044
C18	C	1.069408	-0.585540	0.585520
C19	C	0.969132	-0.578721	0.578717
C20	C	0.780741	-0.702196	0.701874
C21	C	0.686523	-0.695792	0.695486
C22	C	0.686478	-0.559504	0.559560
C23	C	0.780696	-0.565908	0.565948
C24	C	0.827824	-0.637257	0.637106
C25	C	0.922043	-0.643666	0.643488
C26	C	0.921996	-0.507374	0.507568
C27	C	0.827778	-0.500970	0.501180
C28	C	1.303744	-0.878077	0.601465
C29	C	1.303801	-0.996387	0.601500
C30	C	1.243539	-1.061533	0.668456
C31	C	1.221558	-1.130910	0.569839
C32	C	1.325864	-1.137814	0.700139
C33	C	1.281777	-1.064203	0.502829
C34	C	1.386121	-1.071103	0.633197
C35	C	1.364172	-1.140450	0.534515
C36	C	1.539113	-0.617604	0.617502
C37	C	1.639389	-0.624449	0.624330
C38	C	1.303863	-0.601422	0.879105
C39	C	1.303888	-0.601371	0.997412
C40	C	1.303887	-0.323925	0.601519
C41	C	1.303923	-0.205622	0.601536
C42	C	1.303796	-0.601585	0.324938
C43	C	1.303945	-0.601348	0.206643
C44	C	1.364199	-0.534374	1.070780
C45	C	1.281918	-0.502711	1.135979
C46	C	1.386217	-0.632962	1.143016
C47	C	1.221563	-0.569656	1.061049
C48	C	1.325918	-0.699955	1.068084
C49	C	1.243580	-0.668326	1.133246
H50	H	0.960341	-0.454498	0.454827
C51	C	1.128722	-0.533706	1.013617
C52	C	1.105759	-0.430792	1.048868
C53	C	1.020241	-0.397643	1.005206
H54	H	1.129171	-0.533807	0.938229
H55	H	1.085833	-0.580924	1.035495
H56	H	1.148638	-0.383585	1.026985
H57	H	1.105291	-0.430663	1.124251
H58	H	0.977351	-0.444861	1.027083
H59	H	1.020697	-0.397750	0.929819
H60	H	1.004646	-0.327817	1.029125
C61	C	1.256820	-1.021120	0.391665
C62	C	1.256987	-0.909969	0.392959
C63	C	1.233985	-0.870241	0.290582
H64	H	1.299365	-1.048677	0.343964
H65	H	1.198544	-1.041999	0.369049
H66	H	1.315254	-0.889099	0.415561
H67	H	1.214440	-0.882383	0.440639
H68	H	1.175710	-0.891120	0.267966
H69	H	1.276534	-0.897806	0.242888
H70	H	1.234088	-0.794821	0.291447
C71	C	1.175327	-1.015541	0.743682
C72	C	1.089323	-1.045652	0.710019
C73	C	1.026463	-1.003291	0.779276
H74	H	1.190263	-1.041748	0.813559
H75	H	1.176081	-0.940163	0.743604
H76	H	1.088572	-1.121014	0.710108
H77	H	1.074360	-1.019445	0.640152
H78	H	1.027216	-0.927913	0.779198
H79	H	1.041406	-1.029501	0.849149
H80	H	0.968101	-1.023706	0.756440
C81	C	1.175388	-0.743705	1.169676
C82	C	1.089398	-0.710137	1.127797
C83	C	1.026555	-0.779535	1.161348
H84	H	1.190398	-0.813536	1.145375
H85	H	1.176070	-0.743704	1.245153
H86	H	1.088719	-0.710149	1.052337
H87	H	1.074360	-0.640316	1.152094
H88	H	1.027236	-0.779535	1.236824
H89	H	1.041573	-0.849363	1.137044
H90	H	0.968203	-0.756764	1.132946
H91	H	0.960413	-0.701764	0.701426
H92	H	1.455818	-0.659689	1.178839
C93	C	0.635138	-0.482106	0.482382
C94	C	0.542550	-0.490398	0.490659
C95	C	0.495228	-0.419107	0.419587
H96	H	0.650502	-0.411622	0.499086
H97	H	0.650470	-0.498621	0.411842
H98	H	0.527224	-0.473875	0.561183
H99	H	0.527159	-0.560865	0.473945
H100	H	0.510560	-0.435622	0.349047
H101	H	0.510599	-0.348628	0.436297
H102	H	0.432402	-0.424730	0.425186
C103	C	1.350646	-0.811190	1.028355
C104	C	1.288295	-0.881423	1.061500
C105	C	1.311064	-0.983905	1.024933
H106	H	1.349884	-0.810654	0.952889
H107	H	1.409148	-0.833610	1.056553
H108	H	1.229809	-0.859009	1.033297
H109	H	1.289048	-0.881992	1.136961
H110	H	1.369566	-1.006325	1.053131
H111	H	1.310302	-0.983358	0.949469
H112	H	1.268768	-1.031572	1.047425
C113	C	1.350563	-1.180708	0.811432
C114	C	1.287196	-1.140545	0.881167
C115	C	1.309919	-1.180019	0.983701
H116	H	1.350953	-1.256150	0.810670
H117	H	1.408572	-1.159266	0.834451
H118	H	1.229203	-1.161993	0.858154
H119	H	1.286797	-1.065107	0.881961
H120	H	1.367927	-1.158578	1.006721
H121	H	1.310308	-1.255460	0.982929
H122	H	1.266933	-1.152767	1.031031
C123	C	1.432075	-1.186160	0.458773
C124	C	1.408622	-1.148616	0.355698
C125	C	1.471142	-1.190715	0.285892
H126	H	1.490369	-1.164764	0.480536
H127	H	1.432086	-1.261591	0.459563
H128	H	1.408620	-1.073202	0.354912
H129	H	1.350339	-1.170010	0.333902
H130	H	1.471153	-1.266145	0.286682
H131	H	1.529432	-1.169315	0.307665
H132	H	1.455234	-1.165255	0.215947
C133	C	0.635241	-0.766172	0.765751
C134	C	0.542642	-0.745278	0.744949
C135	C	0.495373	-0.810083	0.809672
H136	H	0.650561	-0.838755	0.751166
H137	H	0.650662	-0.751706	0.838360
H138	H	0.527227	-0.759751	0.672358
H139	H	0.527295	-0.672707	0.759541
H140	H	0.510794	-0.795617	0.882280
H141	H	0.510700	-0.882663	0.795081
H142	H	0.432539	-0.795908	0.795574
H143	H	0.819114	-0.760297	0.759807
C144	C	1.257270	-0.391472	1.175771
C145	C	1.320607	-0.321673	1.144303
C146	C	1.297943	-0.219193	1.180949
H147	H	1.199248	-0.368418	1.146578
H148	H	1.256970	-0.392355	1.251178
H149	H	1.320897	-0.320786	1.068911
H150	H	1.378633	-0.344693	1.173494
H151	H	1.297644	-0.220076	1.256356
H152	H	1.239921	-0.196150	1.151753
H153	H	1.340918	-0.171824	1.159612
C154	C	0.776719	-0.423580	0.423762
C155	C	0.799603	-0.448187	0.319966
C156	C	0.752596	-0.376911	0.248619
H157	H	0.713849	-0.428997	0.429090
H158	H	0.792193	-0.353114	0.440436
H159	H	0.784123	-0.518635	0.303297
H160	H	0.862465	-0.442763	0.314604
H161	H	0.768069	-0.306446	0.265293
H162	H	0.689728	-0.382334	0.253957
H163	H	0.768122	-0.393592	0.178187
H164	H	1.151998	-1.157390	0.543057
C165	C	1.478818	-1.035842	0.669181
C166	C	1.501508	-1.073076	0.772536
C167	C	1.586888	-1.040600	0.805737
H168	H	1.521913	-1.064012	0.622455
H169	H	1.478244	-0.960377	0.668336
H170	H	1.502089	-1.148526	0.773373
H171	H	1.458437	-1.044910	0.819286
H172	H	1.586314	-0.965135	0.804892
H173	H	1.629975	-1.068772	0.759005
H174	H	1.602290	-1.065850	0.875870
H175	H	1.415113	-0.477675	1.043210
