data_functionalizedCrystal
_audit_creation_method	'MofGen! by Chris Wilmer'
_symmetry_space_group_name_H-M	'P1'
_symmetry_Int_Tables_number	1
_symmetry_cell_setting	triclinic
loop_
_symmetry_equiv_pos_as_xyz
  x,y,z
_cell_length_a	16.992694
_cell_length_b	16.974755
_cell_length_c	16.053810
_cell_angle_alpha	91.077588
_cell_angle_beta	92.738518
_cell_angle_gamma	87.020575
loop_
_atom_site_label
_atom_site_type_symbol
_atom_site_fract_x
_atom_site_fract_y
_atom_site_fract_z
O1	O	1.044018	0.164022	0.080411
O2	O	0.815731	0.162187	0.080312
O3	O	0.935879	0.048751	0.072626
O4	O	0.923870	0.277458	0.088097
O5	O	0.929293	0.054995	-0.065810
O6	O	0.809144	0.168430	-0.058124
O7	O	1.037432	0.170265	-0.058024
Zn8	Zn	0.922243	0.170339	-0.080054
Zn9	Zn	0.930920	0.162113	0.102341
O10	O	0.917284	0.283701	-0.050338
C11	C	0.783220	0.162950	0.010938
C12	C	0.696162	0.155911	0.010471
C13	C	0.932009	0.022473	0.001421
C14	C	0.930282	-0.065129	-0.004499
C15	C	0.920105	-0.557870	-0.045889
C16	C	0.921736	-0.475559	-0.040331
C17	C	0.926147	-0.437798	0.037912
C18	C	0.928920	-0.482353	0.110600
C19	C	0.927284	-0.564662	0.105041
C20	C	0.931420	-0.191993	0.062630
C21	C	0.933058	-0.109678	0.068184
C22	C	0.925871	-0.102889	-0.082748
C23	C	0.924241	-0.185201	-0.088300
C24	C	0.927010	-0.229748	-0.015611
N25	N	0.927816	-0.353663	0.043595
N26	N	0.925335	-0.313881	-0.021296
C27	C	0.646062	0.223820	0.015064
C28	C	0.564261	0.217203	0.014605
C29	C	0.532562	0.142676	0.009559
C30	C	0.582669	0.074762	0.004963
C31	C	0.664468	0.081380	0.005416
C32	C	0.288907	0.115245	0.007681
C33	C	0.207102	0.108632	0.007230
C34	C	0.188699	0.251074	0.016871
C35	C	0.270500	0.257686	0.017329
C36	C	0.320600	0.189772	0.012729
N37	N	0.448949	0.135910	0.009092
N38	N	0.404211	0.196539	0.013190
C39	C	1.069943	0.169503	0.011352
C40	C	1.157001	0.176541	0.011824
C41	C	0.921153	0.309979	0.020868
C42	C	0.922881	0.397581	0.026794
N43	N	0.916326	0.175953	-0.204534
C44	C	0.885707	0.204747	-0.726215
C45	C	0.889863	0.200836	-0.639073
C46	C	0.945159	0.148675	-0.598897
C47	C	0.996297	0.100416	-0.645869
C48	C	0.992137	0.104323	-0.733009
C49	C	0.963304	0.131601	-0.338645
C50	C	0.967462	0.127699	-0.251498
C51	C	0.861026	0.228119	-0.244709
C52	C	0.856874	0.232025	-0.331851
C53	C	0.908010	0.183763	-0.378815
N54	N	0.949410	0.144678	-0.509825
N55	N	0.903754	0.187757	-0.467886
N56	N	0.936843	0.156494	0.226821
H57	H	0.919487	-0.439291	-0.099517
O58	O	1.049923	0.049728	-0.606738
C59	C	1.010267	-0.003850	-0.559767
H60	H	0.949578	0.023030	-0.544857
H61	H	1.003256	-0.060962	-0.597267
C62	C	1.132941	-0.054552	-0.496252
C63	C	1.058404	-0.021534	-0.477934
H64	H	1.162634	-0.065464	-0.445775
H65	H	1.159658	-0.018457	-0.527899
H66	H	1.127088	-0.102141	-0.527504
H67	H	1.064257	0.026059	-0.446692
H68	H	1.031688	-0.057621	-0.446279
H69	H	0.181297	0.047940	0.003122
H70	H	0.556853	0.014080	0.000842
O71	O	0.840267	0.247831	-0.593485
C72	C	0.852144	0.327626	-0.609493
H73	H	0.913786	0.333074	-0.633166
H74	H	0.806318	0.350282	-0.658694
C75	C	0.768047	0.370136	-0.499462
C76	C	0.843758	0.376828	-0.528531
H77	H	0.762870	0.400488	-0.449523
H78	H	0.760042	0.316377	-0.488679
H79	H	0.729866	0.389015	-0.540471
H80	H	0.881936	0.357941	-0.487528
H81	H	0.851769	0.430586	-0.539306
O82	O	0.933172	-0.445797	0.186672
C83	C	0.935290	-0.502772	0.249632
H84	H	0.908263	-0.558744	0.223666
H85	H	0.999077	-0.516891	0.271941
C86	C	0.921141	-0.401581	0.355240
C87	C	0.887940	-0.470324	0.323349
H88	H	0.891937	-0.381566	0.400714
H89	H	0.919717	-0.363196	0.312823
H90	H	0.974296	-0.413356	0.373824
H91	H	0.834790	-0.458546	0.304756
H92	H	0.889354	-0.508707	0.365765
H93	H	1.012494	0.085221	-0.218792
H94	H	1.004942	0.092306	-0.376876
H95	H	0.916516	-0.588609	-0.109603
H96	H	0.329689	0.059945	0.003934
H97	H	0.811848	0.274499	-0.364560
O98	O	0.713028	0.015331	0.000990
C99	C	0.667511	-0.051868	-0.003580
H100	H	0.607747	-0.036889	0.023719
H101	H	0.658492	-0.071474	-0.071524
C102	C	0.784110	-0.137417	0.012805
C103	C	0.710709	-0.119022	0.046340
H104	H	0.810757	-0.178843	0.043595
H105	H	0.814777	-0.092145	0.015881
H106	H	0.776584	-0.153751	-0.043814
H107	H	0.718236	-0.102679	0.102955
H108	H	0.680045	-0.164294	0.043275
O109	O	0.811388	0.274913	-0.198964
C110	C	0.826927	0.260297	-0.113436
H111	H	0.856683	0.198959	-0.105635
H112	H	0.867520	0.306311	-0.085546
C113	C	0.712323	0.340367	-0.077802
C114	C	0.748864	0.265028	-0.068221
H115	H	0.664171	0.343289	-0.049909
H116	H	0.701855	0.350218	-0.135424
H117	H	0.746158	0.378704	-0.054560
H118	H	0.715032	0.226695	-0.091471
H119	H	0.759324	0.255172	-0.010602
H120	H	0.920652	-0.215940	-0.152013
H121	H	0.840683	0.247226	-0.758919
O122	O	1.041889	0.057416	-0.778506
C123	C	1.091572	0.010522	-0.724364
H124	H	1.095494	0.040115	-0.660069
H125	H	1.066433	-0.050067	-0.719135
C126	C	1.169688	-0.035175	-0.838104
C127	C	1.174510	0.001174	-0.759138
H128	H	1.220847	-0.040946	-0.859556
H129	H	1.136214	-0.003585	-0.874582
H130	H	1.148735	-0.085663	-0.833736
H131	H	1.195454	0.051665	-0.763509
H132	H	1.207990	-0.030408	-0.722662
H133	H	0.296303	0.318373	0.021448
O134	O	0.923057	-0.059688	-0.153408
C135	C	0.852601	-0.073061	-0.200327
H136	H	0.829822	-0.132239	-0.182796
H137	H	0.806503	-0.023948	-0.186497
C138	C	0.896657	-0.001392	-0.315475
C139	C	0.868683	-0.074078	-0.293948
H140	H	0.906576	-0.002015	-0.373225
H141	H	0.944124	0.007621	-0.283864
H142	H	0.858238	0.039528	-0.303943
H143	H	0.907106	-0.114995	-0.305470
H144	H	0.821223	-0.083097	-0.325563
O145	O	0.937306	-0.073119	0.144260
C146	C	0.939419	-0.130087	0.207226
H147	H	0.912392	-0.186061	0.181263
H148	H	1.003204	-0.144206	0.229540
C149	C	0.925264	-0.028886	0.312822
C150	C	0.892064	-0.097632	0.280936
H151	H	0.896057	-0.008866	0.358292
H152	H	0.923844	0.009495	0.270402
H153	H	0.978418	-0.040661	0.331411
H154	H	0.838915	-0.085854	0.262338
H155	H	0.893474	-0.136011	0.323355
O156	O	0.930079	-0.608023	0.175591
C157	C	0.997210	-0.660491	0.176591
H158	H	1.016473	-0.671440	0.110133
H159	H	1.047127	-0.633708	0.215746
C160	C	0.953430	-0.725747	0.296192
C161	C	0.977085	-0.739199	0.214566
H162	H	0.941018	-0.774297	0.319619
H163	H	0.908204	-0.690397	0.295520
H164	H	0.995032	-0.703426	0.328810
H165	H	0.935479	-0.761511	0.181946
H166	H	1.022303	-0.774555	0.215232
O167	O	0.676718	0.296279	0.019935
C168	C	0.614954	0.354796	0.023910
H169	H	0.558101	0.330381	-0.004035
H170	H	0.606573	0.372995	0.091758
C171	C	0.705434	0.457104	0.008672
C172	C	0.635607	0.427118	-0.025657
H173	H	0.718175	0.501717	-0.021900
H174	H	0.747046	0.417680	0.005997
H175	H	0.698441	0.472263	0.065211
H176	H	0.642605	0.411950	-0.082191
H177	H	0.593996	0.466541	-0.022993
O178	O	0.515552	0.283151	0.018926
C179	C	0.464270	0.286818	-0.052733
H180	H	0.491768	0.250667	-0.105449
H181	H	0.405519	0.261932	-0.038164
C182	C	0.416699	0.417675	-0.014731
C183	C	0.450475	0.373279	-0.079481
H184	H	0.408186	0.471008	-0.031229
H185	H	0.451246	0.415204	0.033549
H186	H	0.367744	0.396928	-0.002597
H187	H	0.499434	0.394020	-0.091607
H188	H	0.415936	0.375755	-0.127764
H189	H	0.933681	-0.228254	0.121819
H190	H	0.147900	0.306365	0.020615
