data_functionalizedCrystal
_audit_creation_method	'MofGen! by Chris Wilmer'
_symmetry_space_group_name_H-M	'P1'
_symmetry_Int_Tables_number	1
_symmetry_cell_setting	triclinic
loop_
_symmetry_equiv_pos_as_xyz
  x,y,z
_cell_length_a	23.532407
_cell_length_b	23.532407
_cell_length_c	14.586319
_cell_angle_alpha	90.001839
_cell_angle_beta	89.996242
_cell_angle_gamma	97.151323
loop_
_atom_site_label
_atom_site_type_symbol
_atom_site_fract_x
_atom_site_fract_y
_atom_site_fract_z
O1	O	-0.069134	0.755259	-0.076111
O2	O	-0.079137	0.589395	-0.076136
O3	O	0.008796	0.677329	-0.076135
O4	O	-0.157067	0.667325	-0.076113
O5	O	0.008797	0.677323	0.076346
O6	O	-0.079136	0.589389	0.076345
O7	O	-0.069133	0.755253	0.076369
Cu8	Cu	-0.074134	0.672320	0.090280
Cu9	Cu	-0.074136	0.672328	-0.090047
O10	O	-0.157066	0.667319	0.076368
C11	C	-0.078882	0.568176	0.000101
C12	C	-0.078116	0.504959	0.000090
C13	C	-0.125350	0.105856	0.000138
C14	C	-0.124638	0.046456	0.000144
O15	O	-0.168424	0.009711	0.000183
N16	N	-0.072362	0.023830	0.000135
C17	C	-0.020794	0.060607	0.000131
O18	O	0.023737	0.035908	0.000125
C19	C	-0.021506	0.120006	0.000132
C20	C	-0.073785	0.142629	0.000131
C21	C	-0.177625	0.128479	0.000138
C22	C	-0.178336	0.187876	0.000131
C23	C	-0.126772	0.224649	0.000124
C24	C	-0.074496	0.202025	0.000124
C25	C	0.030062	0.156783	0.000134
C26	C	0.029345	0.216185	0.000136
C27	C	-0.022934	0.238808	0.000135
C28	C	-0.023643	0.298194	0.000109
N29	N	-0.075920	0.320820	0.000117
C30	C	-0.127484	0.284048	0.000125
C31	C	-0.019302	-0.064135	0.000130
C32	C	-0.018589	-0.123533	0.000123
C33	C	-0.122434	-0.137680	0.000137
C34	C	-0.123146	-0.078281	0.000138
C35	C	-0.071578	-0.041509	0.000139
C36	C	-0.128974	0.408784	0.000109
C37	C	-0.129680	0.468186	0.000098
C38	C	-0.025836	0.482329	0.000088
C39	C	-0.025129	0.422932	0.000094
C40	C	-0.076702	0.386160	0.000108
O41	O	0.020119	0.334974	0.000074
O42	O	-0.172007	0.308755	0.000143
C43	C	-0.178283	0.667577	0.000130
C44	C	-0.241500	0.668343	0.000139
C45	C	-0.640603	0.621110	0.000085
C46	C	-0.700003	0.621821	0.000079
O47	O	-0.736748	0.578035	0.000039
N48	N	-0.722629	0.674097	0.000088
C49	C	-0.685852	0.725666	0.000094
O50	O	-0.710551	0.770196	0.000100
C51	C	-0.626453	0.724954	0.000094
C52	C	-0.603830	0.672674	0.000094
C53	C	-0.617980	0.568834	0.000084
C54	C	-0.558584	0.568123	0.000092
C55	C	-0.521811	0.619687	0.000101
C56	C	-0.544434	0.671963	0.000102
C57	C	-0.589676	0.776521	0.000093
C58	C	-0.530274	0.775805	0.000092
C59	C	-0.507651	0.723525	0.000092
C60	C	-0.448265	0.722816	0.000119
N61	N	-0.425639	0.670539	0.000110
C62	C	-0.462412	0.618975	0.000101
C63	C	-0.810594	0.727157	0.000093
C64	C	-0.869992	0.727870	0.000100
C65	C	-0.884140	0.624025	0.000083
C66	C	-0.824740	0.623313	0.000083
C67	C	-0.787968	0.674881	0.000084
C68	C	-0.337675	0.617485	0.000119
C69	C	-0.278273	0.616779	0.000130
C70	C	-0.264131	0.720623	0.000142
C71	C	-0.323527	0.721330	0.000135
C72	C	-0.360299	0.669757	0.000120
O73	O	-0.411486	0.766579	0.000155
O74	O	-0.437704	0.574452	0.000083
C75	C	0.030013	0.677071	0.000101
C76	C	0.093230	0.676305	0.000086
C77	C	-0.069388	0.776472	0.000130
C78	C	-0.070154	0.839689	0.000135
N79	N	-0.074133	0.672320	0.217111
N80	N	-0.074133	0.672333	-0.216878
C81	C	-0.035209	0.711269	0.452119
C82	C	-0.035208	0.711271	0.548100
C83	C	-0.113059	0.633379	0.548108
C84	C	-0.113057	0.633375	0.452128
C85	C	-0.074133	0.672324	0.404136
C86	C	-0.074133	0.672329	0.596097
C87	C	-0.074132	0.672331	0.700164
C88	C	-0.074133	0.672321	0.300062
H89	H	-0.170970	0.378851	0.000123
Br90	Br	0.017618	0.764126	0.386990
Br91	Br	0.017622	0.764125	0.613217
Br92	Br	-0.247575	0.545823	0.000136
Br93	Br	-0.527891	0.497168	0.000083
H94	H	0.071339	0.246123	0.000136
H95	H	-0.144751	0.601669	0.587193
H96	H	-0.144753	0.601658	0.413058
H97	H	-0.172255	0.486602	0.000096
H98	H	-0.220908	0.206289	0.000130
Br99	Br	-0.667876	0.498844	0.000068
H100	H	-0.367608	0.575489	0.000106
H101	H	-0.219617	0.098544	0.000147
H102	H	-0.164421	-0.167632	0.000147
Br103	Br	-0.194099	-0.047586	0.000137
Br104	Br	0.052364	-0.154227	0.000096
H105	H	-0.234180	0.762605	0.000154
Br106	Br	0.050690	-0.014235	0.000122
Br107	Br	0.045822	0.392228	0.000098
H108	H	-0.888406	0.770441	0.000114
Br109	Br	-0.760694	0.797149	0.000104
H110	H	0.016146	0.512280	0.000079
Br111	Br	-0.620363	0.847477	0.000071
Br112	Br	-0.480371	0.845794	0.000087
H113	H	-0.806326	0.580742	0.000087
Br114	Br	0.101018	0.126097	0.000115
H115	H	-0.914091	0.582038	0.000076
H116	H	-0.341947	0.763901	0.000148
