data_functionalizedCrystal
_audit_creation_method	'MofGen! by Chris Wilmer'
_symmetry_space_group_name_H-M	'P1'
_symmetry_Int_Tables_number	1
_symmetry_cell_setting	triclinic
loop_
_symmetry_equiv_pos_as_xyz
  x,y,z
_cell_length_a	19.121102
_cell_length_b	21.295417
_cell_length_c	19.120904
_cell_angle_alpha	87.591662
_cell_angle_beta	89.911827
_cell_angle_gamma	87.584620
loop_
_atom_site_label
_atom_site_type_symbol
_atom_site_fract_x
_atom_site_fract_y
_atom_site_fract_z
Zn1	Zn	1.054814	-0.307921	0.442032
Zn2	Zn	1.304814	-0.057921	0.692032
Zn3	Zn	1.554814	0.192079	0.942032
Zn4	Zn	1.804814	0.442079	1.192032
Zn5	Zn	1.059724	-0.408895	0.324785
Zn6	Zn	1.309724	-0.158895	0.574785
Zn7	Zn	1.559724	0.091105	0.824785
Zn8	Zn	1.809724	0.341105	1.074785
Zn9	Zn	0.942584	-0.298967	0.319816
Zn10	Zn	1.192584	-0.048967	0.569816
Zn11	Zn	1.442584	0.201033	0.819816
Zn12	Zn	1.692584	0.451033	1.069816
Zn13	Zn	0.937535	-0.408472	0.436987
Zn14	Zn	1.187535	-0.158472	0.686987
Zn15	Zn	1.437535	0.091528	0.936987
Zn16	Zn	1.687535	0.341528	1.186987
O17	O	0.998664	-0.356064	0.380905
O18	O	1.248664	-0.106064	0.630905
O19	O	1.498664	0.143936	0.880905
O20	O	1.748664	0.393936	1.130905
O21	O	1.153571	-0.325239	0.430669
O22	O	1.403571	-0.075239	0.680669
O23	O	1.653571	0.174761	0.930669
O24	O	1.903571	0.424761	1.180669
O25	O	1.048352	-0.390743	0.226021
O26	O	1.298352	-0.140743	0.476021
O27	O	1.548352	0.109257	0.726021
O28	O	1.798352	0.359257	0.976021
O29	O	0.957530	-0.212069	0.336060
O30	O	1.207530	0.037931	0.586060
O31	O	1.457530	0.287931	0.836060
O32	O	1.707530	0.537931	1.086060
O33	O	1.157177	-0.399425	0.344528
O34	O	1.407177	-0.149425	0.594528
O35	O	1.657177	0.100575	0.844528
O36	O	1.907177	0.350575	1.094528
O37	O	1.039985	-0.218647	0.425851
O38	O	1.289985	0.031353	0.675851
O39	O	1.539985	0.281353	0.925851
O40	O	1.789985	0.531353	1.175851
O41	O	0.962291	-0.309980	0.222371
O42	O	1.212291	-0.059980	0.472371
O43	O	1.462291	0.190020	0.722371
O44	O	1.712291	0.440020	0.972371
O45	O	0.843809	-0.309569	0.331169
O46	O	1.093809	-0.059569	0.581169
O47	O	1.343809	0.190431	0.831169
O48	O	1.593809	0.440431	1.081169
O49	O	0.948925	-0.398703	0.535761
O50	O	1.198925	-0.148703	0.785761
O51	O	1.448925	0.101297	1.035761
O52	O	1.698925	0.351297	1.285761
O53	O	0.840100	-0.390022	0.417254
O54	O	1.090100	-0.140022	0.667254
O55	O	1.340100	0.109978	0.917254
O56	O	1.590100	0.359978	1.167254
O57	O	1.035089	-0.324829	0.539467
O58	O	1.285089	-0.074829	0.789467
O59	O	1.535089	0.175171	1.039467
O60	O	1.785089	0.425171	1.289467
O61	O	1.043456	-0.496925	0.339637
O62	O	1.293456	-0.246925	0.589637
O63	O	1.543456	0.003075	0.839637
O64	O	1.793456	0.253075	1.089637
O65	O	0.953685	-0.496614	0.422072
O66	O	1.203685	-0.246614	0.672072
O67	O	1.453685	0.003386	0.922072
O68	O	1.703685	0.253386	1.172072
C69	C	0.816517	-0.348778	0.373125
C70	C	1.066517	-0.098778	0.623125
C71	C	1.316517	0.151222	0.873125
C72	C	1.566517	0.401222	1.123125
C73	C	0.738593	-0.345677	0.369814
C74	C	0.988593	-0.095677	0.619814
C75	C	1.238593	0.154323	0.869814
C76	C	1.488593	0.404323	1.119814
C77	C	0.700074	-0.386166	0.413007
C78	C	0.950074	-0.136166	0.663007
C79	C	1.200074	0.113834	0.913007
C80	C	1.450074	0.363834	1.163007
C81	C	0.626856	-0.383244	0.409899
C82	C	0.876856	-0.133244	0.659899
C83	C	1.126856	0.116756	0.909899
C84	C	1.376856	0.366756	1.159899
C85	C	0.592158	-0.339836	0.363593
C86	C	0.842158	-0.089836	0.613593
C87	C	1.092158	0.160164	0.863593
C88	C	1.342158	0.410164	1.113593
C89	C	0.630682	-0.299344	0.320398
C90	C	0.880682	-0.049344	0.570398
C91	C	1.130682	0.200656	0.820398
C92	C	1.380682	0.450656	1.070398
C93	C	0.703899	-0.302263	0.323510
C94	C	0.953899	-0.052263	0.573510
C95	C	1.203899	0.197737	0.823510
C96	C	1.453899	0.447737	1.073510
C97	C	0.371187	-0.328921	0.351961
C98	C	0.621187	-0.078921	0.601961
C99	C	0.871187	0.171079	0.851961
C100	C	1.121187	0.421079	1.101961
C101	C	0.297965	-0.326006	0.348850
C102	C	0.547965	-0.076006	0.598850
C103	C	0.797965	0.173994	0.848850
C104	C	1.047965	0.423994	1.098850
C105	C	0.294144	-0.409906	0.438353
C106	C	0.544144	-0.159906	0.688353
C107	C	0.794144	0.090094	0.938353
C108	C	1.044144	0.340094	1.188353
C109	C	0.367362	-0.412824	0.441458
C110	C	0.617362	-0.162824	0.691458
C111	C	0.867362	0.087176	0.941458
C112	C	1.117362	0.337176	1.191458
C113	C	0.405880	-0.372329	0.398265
C114	C	0.655880	-0.122329	0.648265
C115	C	0.905880	0.127671	0.898265
C116	C	1.155880	0.377671	1.148265
C117	C	0.517318	-0.336850	0.360413
C118	C	0.767318	-0.086850	0.610413
C119	C	1.017318	0.163150	0.860413
C120	C	1.267318	0.413150	1.110413
C121	C	0.480719	-0.375313	0.401449
C122	C	0.730719	-0.125313	0.651449
C123	C	0.980719	0.124687	0.901449
C124	C	1.230719	0.374687	1.151449
C125	C	0.998574	-0.519610	0.380862
C126	C	1.248574	-0.269610	0.630862
C127	C	1.498574	-0.019610	0.880862
C128	C	1.748574	0.230390	1.130862
C129	C	0.998599	-0.589580	0.380870
C130	C	1.248599	-0.339580	0.630870
C131	C	1.498599	-0.089580	0.880870
C132	C	1.748599	0.160420	1.130870
C133	C	1.045380	-0.622590	0.337994
C134	C	1.295380	-0.372590	0.587994
C135	C	1.545380	-0.122590	0.837994
C136	C	1.795380	0.127410	1.087994
C137	C	1.045413	-0.688335	0.338011
C138	C	1.295413	-0.438335	0.588011
C139	C	1.545413	-0.188335	0.838011
C140	C	1.795413	0.061665	1.088011
C141	C	0.998651	-0.721065	0.380897
C142	C	1.248651	-0.471065	0.630897
C143	C	1.498651	-0.221065	0.880897
C144	C	1.748651	0.028935	1.130897
C145	C	0.951865	-0.688046	0.423781
C146	C	1.201865	-0.438046	0.673781
C147	C	1.451865	-0.188046	0.923781
C148	C	1.701865	0.061954	1.173781
C149	C	0.951839	-0.622304	0.423768
C150	C	1.201839	-0.372304	0.673768
C151	C	1.451839	-0.122304	0.923768
C152	C	1.701839	0.127696	1.173768
N153	N	0.937094	-0.822078	0.383622
N154	N	1.187094	-0.572078	0.633622
N155	N	1.437094	-0.322078	0.883622
N156	N	1.687094	-0.072078	1.133622
N157	N	0.937121	-0.884530	0.383630
N158	N	1.187121	-0.634530	0.633630
N159	N	1.437121	-0.384530	0.883630
N160	N	1.687121	-0.134530	1.133630
C161	C	0.998728	-0.919144	0.380940
C162	C	1.248728	-0.669144	0.630940
C163	C	1.498728	-0.419144	0.880940
C164	C	1.748728	-0.169144	1.130940
N165	N	1.060308	-0.888946	0.378228
N166	N	1.310308	-0.638946	0.628228
N167	N	1.560308	-0.388946	0.878228
N168	N	1.810308	-0.138946	1.128228
N169	N	1.060281	-0.826487	0.378215
N170	N	1.310281	-0.576487	0.628215
N171	N	1.560281	-0.326487	0.878215
N172	N	1.810281	-0.076487	1.128215
C173	C	0.998674	-0.792352	0.380916
C174	C	1.248674	-0.542352	0.630916
C175	C	1.498674	-0.292352	0.880916
C176	C	1.748674	-0.042352	1.130916
C177	C	1.045548	-1.023443	0.338080
C178	C	1.295548	-0.773443	0.588080
C179	C	1.545548	-0.523443	0.838080
C180	C	1.795548	-0.273443	1.088080
C181	C	1.045581	-1.089189	0.338103
C182	C	1.295581	-0.839189	0.588103
C183	C	1.545581	-0.589189	0.838103
C184	C	1.795581	-0.339189	1.088103
C185	C	0.952028	-1.088899	0.423869
C186	C	1.202028	-0.838899	0.673869
C187	C	1.452028	-0.588899	0.923869
C188	C	1.702028	-0.338899	1.173869
C189	C	0.952001	-1.023154	0.423850
C190	C	1.202001	-0.773154	0.673850
C191	C	1.452001	-0.523154	0.923850
C192	C	1.702001	-0.273154	1.173850
C193	C	0.998760	-0.990430	0.380953
C194	C	1.248760	-0.740430	0.630953
C195	C	1.498760	-0.490430	0.880953
C196	C	1.748760	-0.240430	1.130953
C197	C	1.181523	-0.363378	0.388716
C198	C	1.431523	-0.113378	0.638716
C199	C	1.681523	0.136622	0.888716
C200	C	1.931523	0.386622	1.138716
C201	C	1.259446	-0.366495	0.392044
C202	C	1.509446	-0.116495	0.642044
C203	C	1.759446	0.133505	0.892044
C204	C	2.009446	0.383505	1.142044
C205	C	0.990896	-0.362718	0.563763
C206	C	1.240896	-0.112718	0.813763
C207	C	1.490896	0.137282	1.063763
C208	C	1.740896	0.387282	1.313763
C209	C	0.987586	-0.365553	0.641686
C210	C	1.237586	-0.115553	0.891686
C211	C	1.487586	0.134447	1.141686
C212	C	1.737586	0.384447	1.391686
C213	C	0.998773	-0.191880	0.380964
C214	C	1.248773	0.058120	0.630964
C215	C	1.498773	0.308120	0.880964
C216	C	1.748773	0.558120	1.130964
C217	C	0.998820	-0.121914	0.380989
C218	C	1.248820	0.128086	0.630989
C219	C	1.498820	0.378086	0.880989
C220	C	1.748820	0.628086	1.130989
C221	C	1.006442	-0.349392	0.198761
C222	C	1.256442	-0.099392	0.448761
C223	C	1.506442	0.150608	0.698761
C224	C	1.756442	0.400608	0.948761
C225	C	1.009889	-0.346384	0.120844
C226	C	1.259889	-0.096384	0.370844
C227	C	1.509889	0.153616	0.620844
C228	C	1.759889	0.403616	0.870844
C229	C	1.030890	-0.328425	0.680225
C230	C	1.280890	-0.078425	0.930225
C231	C	1.530890	0.171575	1.180225
C232	C	1.780890	0.421575	1.430225
C233	C	1.027771	-0.331086	0.753441
C234	C	1.277771	-0.081086	1.003441
C235	C	1.527771	0.168914	1.253441
C236	C	1.777771	0.418914	1.503441
C237	C	0.981351	-0.370880	0.788118
C238	C	1.231351	-0.120880	1.038118
C239	C	1.481351	0.129120	1.288118
C240	C	1.731351	0.379120	1.538118
C241	C	0.938043	-0.408010	0.749573
C242	C	1.188043	-0.158010	0.999573
C243	C	1.438043	0.091990	1.249573
C244	C	1.688043	0.341990	1.499573
C245	C	0.941159	-0.405345	0.676358
C246	C	1.191159	-0.155345	0.926358
C247	C	1.441159	0.094655	1.176358
C248	C	1.691159	0.344655	1.426358
C249	C	0.969696	-0.380849	1.009084
C250	C	1.219696	-0.130849	1.259084
C251	C	1.469696	0.119151	1.509084
C252	C	1.719696	0.369151	1.759084
C253	C	0.966585	-0.383513	1.082305
C254	C	1.216585	-0.133513	1.332305
C255	C	1.466585	0.116487	1.582305
C256	C	1.716585	0.366487	1.832305
C257	C	1.056312	-0.306588	1.086168
C258	C	1.306312	-0.056588	1.336168
C259	C	1.556312	0.193412	1.586168
C260	C	1.806312	0.443412	1.836168
C261	C	1.059427	-0.303929	1.012951
C262	C	1.309427	-0.053929	1.262951
C263	C	1.559427	0.196071	1.512951
C264	C	1.809427	0.446071	1.762951
C265	C	1.016116	-0.341056	0.974413
C266	C	1.266116	-0.091056	1.224413
C267	C	1.516116	0.158944	1.474413
C268	C	1.766116	0.408944	1.724413
C269	C	0.978164	-0.373603	0.862957
C270	C	1.228164	-0.123603	1.112957
C271	C	1.478164	0.126397	1.362957
C272	C	1.728164	0.376397	1.612957
C273	C	1.019300	-0.338330	0.899575
C274	C	1.269300	-0.088330	1.149575
C275	C	1.519300	0.161670	1.399575
C276	C	1.769300	0.411670	1.649575
H277	H	0.595497	-0.416215	0.445071
H278	H	0.845497	-0.166215	0.695071
H279	H	1.095497	0.083785	0.945071
H280	H	1.345497	0.333785	1.195071
H281	H	0.269716	-0.290651	0.311147
H282	H	0.519716	-0.040651	0.561147
H283	H	0.769716	0.209349	0.811147
H284	H	1.019716	0.459349	1.061147
F285	F	1.068696	-0.295973	0.862668
F286	F	1.318696	-0.045973	1.112668
F287	F	1.568696	0.204027	1.362668
F288	F	1.818696	0.454027	1.612668
H289	H	0.602426	-0.263997	0.282698
H290	H	0.852426	-0.013997	0.532698
H291	H	1.102426	0.236003	0.782698
H292	H	1.352426	0.486003	1.032698
F293	F	1.095153	-0.587767	0.292346
F294	F	1.345153	-0.337767	0.542346
F295	F	1.595153	-0.087767	0.792346
F296	F	1.845153	0.162233	1.042346
F297	F	0.412171	-0.285821	0.305993
F298	F	0.662171	-0.035821	0.555993
F299	F	0.912171	0.214179	0.805993
F300	F	1.162171	0.464179	1.055993
H301	H	0.928782	-0.415919	1.110536
H302	H	1.178782	-0.165919	1.360536
H303	H	1.428782	0.084081	1.610536
H304	H	1.678782	0.334081	1.860536
F305	F	0.253145	-0.453002	0.484317
F306	F	0.503145	-0.203002	0.734317
F307	F	0.753145	0.046998	0.984317
F308	F	1.003145	0.296998	1.234317
F309	F	0.928764	-0.415956	0.899868
F310	F	1.178764	-0.165956	1.149868
F311	F	1.428764	0.084044	1.399868
F312	F	1.678764	0.334044	1.649868
F313	F	0.404284	-0.459026	0.490742
F314	F	0.654284	-0.209026	0.740742
F315	F	0.904284	0.040974	0.990742
F316	F	1.154284	0.290974	1.240742
F317	F	0.480383	-0.290653	0.311133
F318	F	0.730383	-0.040653	0.561133
F319	F	0.980383	0.209347	0.811133
F320	F	1.230383	0.459347	1.061133
H321	H	0.913743	-0.595426	0.458684
H322	H	1.163743	-0.345426	0.708684
H323	H	1.413743	-0.095426	0.958684
H324	H	1.663743	0.154574	1.208684
H325	H	0.934439	-0.411090	0.977716
H326	H	1.184439	-0.161090	1.227716
H327	H	1.434439	0.088910	1.477716
H328	H	1.684439	0.338910	1.727716
F329	F	0.744893	-0.259168	0.277539
F330	F	0.994893	-0.009168	0.527539
F331	F	1.244893	0.240832	0.777539
F332	F	1.494893	0.490832	1.027539
F333	F	0.517648	-0.421508	0.450730
F334	F	0.767648	-0.171508	0.700730
F335	F	1.017648	0.078492	0.950730
F336	F	1.267648	0.328492	1.200730
H337	H	1.091573	-0.276360	1.117553
H338	H	1.341573	-0.026360	1.367553
H339	H	1.591573	0.223640	1.617553
H340	H	1.841573	0.473640	1.867553
H341	H	1.083625	-0.996798	0.303153
H342	H	1.333625	-0.746798	0.553153
H343	H	1.583625	-0.496798	0.803153
H344	H	1.833625	-0.246798	1.053153
H345	H	0.913904	-0.996275	0.458761
H346	H	1.163904	-0.746275	0.708761
H347	H	1.413904	-0.496275	0.958761
H348	H	1.663904	-0.246275	1.208761
F349	F	1.095206	-0.723475	0.292374
F350	F	1.345206	-0.473475	0.542374
F351	F	1.595206	-0.223475	0.792374
F352	F	1.845206	0.026525	1.042374
F353	F	1.095380	-1.124322	0.292470
F354	F	1.345380	-0.874322	0.542470
F355	F	1.595380	-0.624322	0.792470
F356	F	1.845380	-0.374322	1.042470
H357	H	0.905889	-0.435572	0.644980
H358	H	1.155889	-0.185572	0.894980
H359	H	1.405889	0.064428	1.144980
H360	H	1.655889	0.314428	1.394980
F361	F	1.073885	-0.291591	0.794455
F362	F	1.323885	-0.041591	1.044455
F363	F	1.573885	0.208409	1.294455
F364	F	1.823885	0.458409	1.544455
H365	H	0.728320	-0.421515	0.450712
H366	H	0.978320	-0.171515	0.700712
H367	H	1.228320	0.078485	0.950712
H368	H	1.478320	0.328485	1.200712
F369	F	0.902101	-0.722881	0.469426
F370	F	1.152101	-0.472881	0.719426
F371	F	1.402101	-0.222881	0.969426
F372	F	1.652101	0.027119	1.219426
F373	F	0.902264	-1.123728	0.469515
F374	F	1.152264	-0.873728	0.719515
F375	F	1.402264	-0.623728	0.969515
F376	F	1.652264	-0.373728	1.219515
F377	F	1.080300	-0.286074	0.643326
F378	F	1.330300	-0.036074	0.893326
F379	F	1.580300	0.213926	1.143326
F380	F	1.830300	0.463926	1.393326
F381	F	1.108834	-0.261575	0.976051
F382	F	1.358834	-0.011575	1.226051
F383	F	1.608834	0.238425	1.476051
F384	F	1.858834	0.488425	1.726051
H385	H	0.900244	-0.440409	0.777813
H386	H	1.150244	-0.190409	1.027813
H387	H	1.400244	0.059591	1.277813
H388	H	1.650244	0.309591	1.527813
