data_functionalizedCrystal
_audit_creation_method	'MofGen! by Chris Wilmer'
_symmetry_space_group_name_H-M	'P1'
_symmetry_Int_Tables_number	1
_symmetry_cell_setting	triclinic
loop_
_symmetry_equiv_pos_as_xyz
  x,y,z
_cell_length_a	13.635800
_cell_length_b	11.102183
_cell_length_c	11.102315
_cell_angle_alpha	88.052119
_cell_angle_beta	108.606275
_cell_angle_gamma	71.396124
loop_
_atom_site_label
_atom_site_type_symbol
_atom_site_fract_x
_atom_site_fract_y
_atom_site_fract_z
V1	V	2.055764	-0.175845	0.396256
O2	O	2.035286	0.008443	0.388715
O3	O	2.044147	-0.348665	0.393543
O4	O	2.044157	-0.173143	0.569077
O5	O	2.035277	-0.168293	0.211966
V6	V	2.294316	-0.153802	0.374213
O7	O	2.193434	-0.224199	0.444607
O8	O	2.381745	-0.105448	0.325862
O9	O	2.194330	0.019018	0.376926
O10	O	2.373493	-0.338090	0.381754
O11	O	2.373502	-0.161354	0.558503
O12	O	2.194320	-0.156504	0.201392
V13	V	2.555764	-0.175845	0.396256
O14	O	2.535286	0.008443	0.388715
O15	O	2.544147	-0.348665	0.393543
O16	O	2.544157	-0.173143	0.569077
O17	O	2.535277	-0.168293	0.211966
V18	V	2.794316	-0.153802	0.374213
O19	O	2.693434	-0.224199	0.444607
O20	O	2.881745	-0.105448	0.325862
O21	O	2.694330	0.019018	0.376926
O22	O	2.873493	-0.338090	0.381754
O23	O	2.873502	-0.161354	0.558503
O24	O	2.694320	-0.156504	0.201392
C25	C	1.969301	-0.390794	0.387292
C26	C	2.000531	-0.532077	0.386226
C27	C	1.940350	-0.495796	0.153446
C28	C	1.924930	-0.544029	0.036560
C29	C	1.954276	-0.676777	0.035566
C30	C	1.999050	-0.761297	0.151470
C31	C	2.014471	-0.713063	0.268356
C32	C	1.985117	-0.580310	0.269338
C33	C	2.074658	-0.749345	0.501134
C34	C	2.045305	-0.616597	0.502130
C35	C	2.119432	-0.833865	0.617038
C36	C	2.134845	-0.785631	0.733926
C37	C	2.105495	-0.652874	0.734916
C38	C	2.060725	-0.568363	0.619016
C39	C	1.969313	-0.166898	0.611201
C40	C	2.000547	-0.165832	0.752484
C41	C	2.100847	0.061141	0.383174
C42	C	2.059237	0.202422	0.384248
C43	C	2.100835	-0.162753	0.159261
C44	C	2.059219	-0.163813	0.017977
C45	C	2.469301	-0.390794	0.387292
C46	C	2.500531	-0.532077	0.386226
C47	C	2.469313	-0.166898	0.611201
C48	C	2.500547	-0.165832	0.752484
C49	C	2.184574	-0.178533	0.765454
C50	C	2.291258	-0.184387	0.838312
C51	C	2.320599	-0.183384	0.971059
C52	C	2.243246	-0.176523	1.030948
C53	C	2.136562	-0.170669	0.958089
C54	C	2.107231	-0.171677	0.825341
C55	C	1.952535	-0.157959	0.945119
C56	C	1.923194	-0.158971	0.812373
C57	C	1.875182	-0.151098	1.005008
C58	C	1.768498	-0.145253	0.932151
C59	C	1.739159	-0.146258	0.799397
C60	C	1.816510	-0.153117	0.739515
C61	C	2.600847	0.061141	0.383174
C62	C	2.559237	0.202422	0.384248
C63	C	2.600835	-0.162753	0.159261
C64	C	2.559219	-0.163813	0.017977
C65	C	2.684549	-0.545042	0.398895
C66	C	2.791225	-0.617897	0.404726
C67	C	2.820562	-0.750644	0.403726
C68	C	2.743215	-0.810538	0.396899
C69	C	2.636539	-0.737683	0.391069
C70	C	2.607211	-0.604934	0.392066
C71	C	2.452525	-0.724719	0.378409
C72	C	2.423184	-0.591971	0.379399
C73	C	2.375178	-0.784614	0.371582
C74	C	2.268498	-0.711757	0.365743
C75	C	2.239163	-0.579002	0.366741
C76	C	2.316508	-0.519116	0.373569
C77	C	2.560706	-0.398609	0.788808
C78	C	2.605455	-0.514492	0.873343
C79	C	2.634802	-0.513484	1.006089
C80	C	2.619401	-0.396580	1.054301
C81	C	2.574652	-0.280697	0.969767
C82	C	2.545304	-0.281718	0.837020
C83	C	2.514502	-0.047923	0.933444
C84	C	2.485146	-0.048928	0.800697
C85	C	2.499100	0.068980	0.981656
C86	C	2.454344	0.184866	0.897121
C87	C	2.424995	0.183853	0.764367
C88	C	2.440398	0.066954	0.716162
H89	H	1.916422	-0.387701	0.154242
N90	N	1.876646	-0.452872	-0.088446
H91	H	1.860391	-0.361456	-0.070087
H92	H	1.806065	-0.463757	-0.143750
H93	H	2.617994	-0.609673	0.834073
H94	H	2.671241	-0.607846	1.074918
N95	N	2.408667	0.065789	0.572993
H96	H	2.475940	0.015501	0.552492
H97	H	2.377918	0.156950	0.526781
N98	N	2.437726	0.310941	0.949123
H99	H	2.404917	0.384202	0.875431
H100	H	2.511166	0.312113	1.007805
H101	H	2.388563	0.278219	0.695545
N102	N	1.937657	-0.728811	-0.090498
H103	H	1.904844	-0.655131	-0.163772
H104	H	1.885955	-0.778702	-0.100282
H105	H	2.022956	-0.869386	0.150651
H106	H	2.143332	-0.941954	0.616220
H107	H	1.899077	-0.150273	1.113096
H108	H	2.171306	-0.854457	0.828286
H109	H	2.118067	-0.613614	0.830100
N110	N	1.784878	-0.154193	0.596339
H111	H	1.721237	-0.072787	0.549476
H112	H	1.762189	-0.231138	0.574260
N113	N	2.406807	-0.927789	0.370504
H114	H	2.470465	-0.974657	0.451895
H115	H	2.429469	-0.949854	0.293542
N116	N	1.624088	-0.139931	0.720814
H117	H	1.579545	-0.135430	0.778901
H118	H	1.628353	-0.219222	0.677800
H119	H	2.036808	-0.460269	0.619810
H120	H	2.160697	-0.179367	0.657368
N121	N	2.374675	-0.191775	0.773704
H122	H	2.387057	-0.271623	0.731260
H123	H	2.446658	-0.195274	0.840065
N124	N	2.435660	-0.189683	1.049649
H125	H	2.480211	-0.194176	0.991572
H126	H	2.472293	-0.268693	1.117354
H127	H	2.267141	-0.175691	1.139035
N128	N	2.935555	-0.829286	0.409848
H129	H	2.972337	-0.897057	0.488816
H130	H	2.980067	-0.771181	0.414226
N131	N	2.529054	-0.399702	0.645634
H132	H	2.498370	-0.308553	0.599398
H133	H	2.471254	-0.441375	0.616501
N134	N	2.774849	-0.953715	0.395833
H135	H	2.838503	-1.000573	0.477232
H136	H	2.797521	-0.975791	0.318879
N137	N	2.185079	-0.776352	0.358368
H138	H	2.219852	-0.871501	0.358622
H139	H	2.119317	-0.737976	0.276616
H140	H	2.643313	-0.395770	1.162393
H141	H	1.705524	-0.139659	0.980922
H142	H	2.660667	-0.436951	0.399692
N143	N	2.874649	-0.553301	0.412098
H144	H	2.839882	-0.458151	0.411846
H145	H	2.899490	-0.566993	0.335537
N146	N	2.124109	-0.500428	0.360468
H147	H	2.079570	-0.558519	0.355996
H148	H	2.087455	-0.432725	0.281454
N149	N	2.530755	0.070076	1.124830
H150	H	2.561436	-0.021072	1.171069
H151	H	2.463401	0.120400	1.145156
H152	H	2.292630	-0.411026	0.374375
