data_functionalizedCrystal
_audit_creation_method	'MofGen! by Chris Wilmer'
_symmetry_space_group_name_H-M	'P1'
_symmetry_Int_Tables_number	1
_symmetry_cell_setting	triclinic
loop_
_symmetry_equiv_pos_as_xyz
  x,y,z
_cell_length_a	11.169417
_cell_length_b	21.395361
_cell_length_c	21.395356
_cell_angle_alpha	90.028614
_cell_angle_beta	89.986969
_cell_angle_gamma	89.968413
loop_
_atom_site_label
_atom_site_type_symbol
_atom_site_fract_x
_atom_site_fract_y
_atom_site_fract_z
Zn1	Zn	1.834712	0.249453	-0.354192
Zn2	Zn	1.834554	0.354225	-0.249409
Zn3	Zn	1.634022	0.249467	-0.249435
Zn4	Zn	1.633934	0.354198	-0.354156
O5	O	1.734305	0.301836	-0.301798
O6	O	2.002641	0.263356	-0.340297
O7	O	1.807923	0.340347	-0.161735
O8	O	1.660746	0.161787	-0.263358
O9	O	2.002524	0.340332	-0.263314
O10	O	1.808193	0.161777	-0.340322
O11	O	1.660593	0.263381	-0.161754
O12	O	1.466060	0.263355	-0.263322
O13	O	1.660597	0.340285	-0.441838
O14	O	1.465996	0.340300	-0.340260
O15	O	1.808108	0.263330	-0.441865
O16	O	1.807838	0.441900	-0.263278
O17	O	1.660444	0.441879	-0.340235
C18	C	1.734147	0.464623	-0.301763
C19	C	1.734189	0.534265	-0.301769
C20	C	1.422481	0.301826	-0.301790
C21	C	1.289081	0.301837	-0.301801
C22	C	1.734360	0.301803	-0.465221
C23	C	1.734384	0.301789	-0.534863
C24	C	2.047348	0.301846	-0.301807
C25	C	2.180748	0.301850	-0.301810
C26	C	1.734497	0.138412	-0.301847
C27	C	1.734579	0.068771	-0.301868
C28	C	1.811005	0.566967	-0.261739
C29	C	1.811061	0.632403	-0.261753
C30	C	1.734279	0.665133	-0.301791
C31	C	1.657457	0.632422	-0.341829
C32	C	1.657412	0.566988	-0.341818
C33	C	1.626214	0.768848	-0.306704
C34	C	1.626257	0.834281	-0.306710
C35	C	1.734419	0.866954	-0.301828
C36	C	1.842541	0.834185	-0.296925
C37	C	1.842496	0.768751	-0.296914
C38	C	1.734320	0.736085	-0.301807
C39	C	1.811302	0.970609	-0.261810
C40	C	1.811360	1.036046	-0.261829
C41	C	1.657746	1.036064	-0.341901
C42	C	1.657699	0.970628	-0.341886
C43	C	1.734475	0.937905	-0.301837
C44	C	1.811233	0.341733	-1.036650
C45	C	1.811212	0.341753	-0.971214
C46	C	1.734498	0.301689	-0.938501
C47	C	1.657779	0.261614	-0.971229
C48	C	1.657794	0.261600	-1.036663
C49	C	1.725063	0.245262	-0.834849
C50	C	1.725056	0.245276	-0.769416
C51	C	1.734444	0.301734	-0.736680
C52	C	1.743864	0.358181	-0.769386
C53	C	1.743879	0.358166	-0.834820
C54	C	1.734473	0.301701	-0.867549
C55	C	1.811130	0.341831	-0.633008
C56	C	1.811100	0.341852	-0.567571
C57	C	1.657673	0.261708	-0.567587
C58	C	1.657696	0.261692	-0.633023
C59	C	1.734431	0.301753	-0.665729
C60	C	1.734320	0.301823	-0.139011
C61	C	1.734529	0.301661	-0.069370
H62	H	1.873524	0.540326	-0.229130
H63	H	1.595142	0.944000	-0.374480
H64	H	1.873921	1.062671	-0.229232
H65	H	1.751546	0.404127	-0.861446
H66	H	1.873692	0.374378	-0.944569
O67	O	1.885557	0.380868	-0.535855
C68	C	1.859259	0.443312	-0.551817
H69	H	1.813133	0.444601	-0.599324
H70	H	1.945853	0.471401	-0.554053
H71	H	1.797527	0.464429	-0.514982
O72	O	1.583120	1.067753	-0.380854
C73	C	1.515280	1.024852	-0.416170
H74	H	1.564403	0.978183	-0.418353
H75	H	1.502430	1.043730	-0.465533
H76	H	1.424152	1.017953	-0.393183
O77	O	1.885717	0.664083	-0.222804
C78	C	1.953495	0.621168	-0.187467
H79	H	1.904313	0.574547	-0.185270
H80	H	1.966355	0.640102	-0.138110
H81	H	2.044620	0.614154	-0.210445
O82	O	1.947455	0.736850	-0.292245
C83	C	1.962829	0.698970	-0.345592
H84	H	1.871903	0.689201	-0.367718
H85	H	2.006551	0.652942	-0.331453
H86	H	2.022465	0.724134	-0.380742
O87	O	1.716116	0.190454	-0.737620
C88	C	1.818271	0.182392	-0.699766
H89	H	1.895431	0.211134	-0.719483
H90	H	1.844425	0.130886	-0.699037
H91	H	1.797562	0.198634	-0.650170
O92	O	1.521130	0.866013	-0.311503
C93	C	1.425653	0.823146	-0.315804
H94	H	1.460590	0.776475	-0.333970
H95	H	1.355041	0.842065	-0.349298
H96	H	1.384122	0.816236	-0.267623
H97	H	1.751511	0.404154	-0.742733
H98	H	1.594858	0.540361	-0.374416
O99	O	1.885820	0.380718	-0.664716
C100	C	2.005452	0.367024	-0.648748
H101	H	2.007957	0.342952	-0.601244
H102	H	2.059214	0.412246	-0.646502
H103	H	2.045923	0.334803	-0.685584
H104	H	1.595208	0.229088	-0.540953
O105	O	1.583202	0.222783	-0.939385
C106	C	1.505622	0.258464	-0.901531
H107	H	1.547900	0.305948	-0.891718
H108	H	1.489557	0.232952	-0.855524
H109	H	1.416677	0.265343	-0.926740
H110	H	1.595240	0.229059	-0.659663
H111	H	1.717497	0.199280	-0.861497
O112	O	1.583246	0.222610	-1.068354
C113	C	1.515503	0.187265	-1.025452
H114	H	1.564647	0.185107	-0.978810
H115	H	1.502759	0.137895	-1.044371
H116	H	1.424324	0.210211	-1.018486
H117	H	1.538128	0.742253	-0.310683
H118	H	1.930617	0.860785	-0.292949
H119	H	1.873822	0.943965	-0.229202
H120	H	1.594943	0.659075	-0.374429
H121	H	1.873713	0.374356	-1.063275
