data_functionalizedCrystal
_audit_creation_method	'MofGen! by Chris Wilmer'
_symmetry_space_group_name_H-M	'P1'
_symmetry_Int_Tables_number	1
_symmetry_cell_setting	triclinic
loop_
_symmetry_equiv_pos_as_xyz
  x,y,z
_cell_length_a	10.908878
_cell_length_b	10.065875
_cell_length_c	16.109301
_cell_angle_alpha	98.785292
_cell_angle_beta	108.226864
_cell_angle_gamma	96.556520
loop_
_atom_site_label
_atom_site_type_symbol
_atom_site_fract_x
_atom_site_fract_y
_atom_site_fract_z
O1	O	1.722697	0.113460	0.143235
O2	O	2.222697	0.613460	0.643235
O3	O	1.348808	0.113471	0.078308
O4	O	1.848808	0.613471	0.578308
O5	O	1.546021	0.113451	0.233219
O6	O	2.046021	0.613451	0.733219
O7	O	1.525484	0.113480	-0.011676
O8	O	2.025484	0.613480	0.488324
O9	O	1.508415	-0.113534	0.203581
O10	O	2.008415	0.386466	0.703581
O11	O	1.311202	-0.113514	0.048670
O12	O	1.811202	0.386486	0.548670
O13	O	1.685091	-0.113525	0.113598
O14	O	2.185091	0.386475	0.613598
Zn15	Zn	1.492176	-0.149558	0.076428
Zn16	Zn	1.992176	0.350442	0.576428
Zn17	Zn	1.541723	0.149504	0.115477
Zn18	Zn	2.041723	0.649504	0.615477
O19	O	1.487878	-0.113505	-0.041313
O20	O	1.987878	0.386495	0.458687
C21	C	1.282161	-0.000020	0.057421
C22	C	1.782161	0.499980	0.557421
C23	C	1.139601	-0.000016	0.039351
C24	C	1.639601	0.499984	0.539351
C25	C	1.090619	-0.000023	0.105286
C26	C	1.590619	0.499977	0.605286
C27	C	0.943277	-0.000019	0.086611
C28	C	1.443277	0.499981	0.586611
N29	N	1.458370	-0.353661	0.049781
N30	N	1.958370	0.146339	0.549781
C31	C	1.529953	-0.421447	0.106209
C32	C	2.029953	0.078553	0.606209
C33	C	1.503945	-0.578611	0.085696
C34	C	2.003945	-0.078611	0.585696
C35	C	1.751738	-0.000031	0.134484
C36	C	2.251738	0.499969	0.634484
C37	C	1.894299	-0.000026	0.152555
C38	C	2.394299	0.499974	0.652555
C39	C	1.526386	-0.000042	0.249260
C40	C	2.026386	0.499958	0.749260
C41	C	1.523891	-0.000044	0.341210
C42	C	2.023891	0.499956	0.841210
N43	N	1.575539	0.353606	0.142132
N44	N	2.075539	0.853606	0.642132
C45	C	1.507513	-0.000009	-0.057354
C46	C	2.007513	0.499991	0.442646
C47	C	1.510010	0.000002	-0.149304
C48	C	2.010010	0.500002	0.350696
C49	C	1.635118	-0.000026	0.578844
C50	C	2.135118	0.499974	1.078844
C51	C	1.632765	-0.000014	0.665241
C52	C	2.132765	0.499986	1.165241
C53	C	1.398775	-0.000013	0.613055
C54	C	1.898775	0.499987	1.113055
C55	C	1.401130	-0.000014	0.526662
C56	C	1.901130	0.499986	1.026662
C57	C	1.519304	-0.000028	0.509558
C58	C	2.019304	0.499972	1.009558
C59	C	1.514597	-0.000015	0.682349
C60	C	2.014597	0.499985	1.182349
C61	C	1.512045	-0.000003	0.776024
C62	C	2.012045	0.499997	1.276024
C63	C	1.521856	-0.000037	0.415878
C64	C	2.021856	0.499963	0.915878
H65	H	0.961442	-0.000025	0.222837
H66	H	1.461442	0.499975	0.722837
C67	C	1.181324	-0.000044	0.200225
C68	C	1.681324	0.499956	0.700225
N69	N	1.249641	-0.000065	0.271735
N70	N	1.749641	0.499935	0.771735
C71	C	1.268786	-0.000024	0.631876
C72	C	1.768786	0.499976	1.131876
N73	N	1.170873	-0.000043	0.646048
N74	N	1.670873	0.499957	1.146048
H75	H	1.610488	-0.363130	0.169709
H76	H	2.110488	0.136870	0.669709
H77	H	1.377826	-0.411978	-0.013714
H78	H	1.877826	0.088022	0.486286
C79	C	1.395128	-0.657386	-0.000090
C80	C	1.895128	-0.157386	0.499910
N81	N	1.313169	-0.716722	-0.064703
N82	N	1.813169	-0.216722	0.435297
H83	H	1.656079	-0.588081	0.205636
H84	H	2.156079	-0.088081	0.705636
H85	H	1.731343	-0.000034	0.564923
H86	H	2.231343	0.499966	1.064923
C87	C	0.852574	-0.000008	-0.008334
C88	C	1.352574	0.499992	0.491666
N89	N	0.784255	-0.000003	-0.079846
N90	N	1.284255	0.499997	0.420154
H91	H	1.306815	-0.000012	0.470245
H92	H	1.806815	0.499988	0.970245
H93	H	1.072456	-0.000002	-0.030923
H94	H	1.572456	0.499998	0.469077
C95	C	1.760168	-0.000024	0.741451
C96	C	2.260168	0.499976	1.241451
N97	N	1.856133	-0.000035	0.798854
N98	N	2.356133	0.499965	1.298854
