data_functionalizedCrystal
_audit_creation_method	'MofGen! by Chris Wilmer'
_symmetry_space_group_name_H-M	'P1'
_symmetry_Int_Tables_number	1
_symmetry_cell_setting	triclinic
loop_
_symmetry_equiv_pos_as_xyz
  x,y,z
_cell_length_a	17.000383
_cell_length_b	17.038272
_cell_length_c	9.130313
_cell_angle_alpha	89.998262
_cell_angle_beta	89.996750
_cell_angle_gamma	83.355929
loop_
_atom_site_label
_atom_site_type_symbol
_atom_site_fract_x
_atom_site_fract_y
_atom_site_fract_z
O1	O	1.057995	0.028049	-0.121900
O2	O	0.828175	0.056292	-0.121882
O3	O	0.941719	-0.071551	-0.121879
O4	O	0.944451	0.155892	-0.121903
O5	O	0.941718	-0.071548	0.121719
O6	O	0.828174	0.056295	0.121717
O7	O	1.057994	0.028052	0.121698
Cu8	Cu	0.943084	0.042174	0.143950
Cu9	Cu	0.943085	0.042170	-0.144134
O10	O	0.944450	0.155896	0.121696
C11	C	0.798624	0.057810	-0.000080
C12	C	0.710571	0.062321	-0.000073
C13	C	0.212326	0.091445	-0.000130
C14	C	0.295061	0.087201	-0.000129
C15	C	0.341068	0.013535	-0.000110
C16	C	0.304335	-0.055892	-0.000108
C17	C	0.221601	-0.051647	-0.000120
C18	C	0.591103	-0.002861	-0.000083
C19	C	0.673843	-0.007101	-0.000066
C20	C	0.664564	0.135993	-0.000090
C21	C	0.581828	0.140231	-0.000093
C22	C	0.545103	0.070804	-0.000098
C23	C	0.425637	0.009195	-0.000104
C24	C	0.460535	0.075145	-0.000115
C25	C	0.939234	-0.100508	-0.000080
C26	C	0.931821	-0.186793	-0.000080
C27	C	0.999879	-0.241568	-0.000084
C28	C	0.992910	-0.322641	-0.000097
C29	C	0.917881	-0.348938	-0.000096
C30	C	0.849817	-0.294156	-0.000096
C31	C	0.856788	-0.213085	-0.000094
C32	C	0.893255	-0.593009	-0.000114
C33	C	0.886289	-0.674088	-0.000113
C34	C	1.029382	-0.702567	-0.000116
C35	C	1.036346	-0.621493	-0.000104
C36	C	0.968283	-0.566718	-0.000112
C37	C	0.910755	-0.431807	-0.000105
C38	C	0.975410	-0.483850	-0.000114
C39	C	1.087545	0.026534	-0.000107
C40	C	1.175598	0.022024	-0.000124
C41	C	0.946935	0.184852	-0.000107
C42	C	0.954348	0.271137	-0.000117
N43	N	0.943088	0.042176	0.346573
N44	N	0.943086	0.042162	-0.346756
C45	C	0.993380	-0.014416	0.423226
C46	C	0.993378	-0.014425	0.576563
C47	C	0.892789	0.098757	0.576580
C48	C	0.892788	0.098762	0.423246
C49	C	1.051457	-0.079759	0.423217
C50	C	1.051455	-0.079768	0.576554
H51	H	0.561212	-0.059393	-0.000083
N52	N	1.117277	-0.593146	-0.000138
H53	H	1.123355	-0.560146	-0.090445
H54	H	1.123321	-0.560182	0.090219
N55	N	0.838544	0.159801	0.340572
H56	H	0.846173	0.151219	0.231801
H57	H	0.781735	0.154634	0.367380
H58	H	0.711300	-0.067092	-0.000058
N59	N	1.080806	-0.213212	-0.000076
H60	H	1.086892	-0.180205	-0.090372
H61	H	1.086833	-0.180251	0.090292
H62	H	0.423073	0.135124	-0.000137
N63	N	1.129084	-0.060526	0.360193
H64	H	1.166592	-0.051238	0.442522
H65	H	1.153066	-0.106123	0.297895
N66	N	0.334676	0.162076	-0.000160
H67	H	0.292976	0.209387	-0.000172
H68	H	0.368800	0.163442	0.090140
N69	N	0.475262	-0.070257	-0.000058
H70	H	0.439444	-0.113596	-0.000047
H71	H	0.509797	-0.075139	-0.090358
H72	H	1.028890	-0.134845	0.624109
H73	H	0.174872	0.151432	-0.000134
H74	H	1.084795	-0.747173	-0.000112
H75	H	1.048330	-0.367237	-0.000097
H76	H	0.851835	0.144827	0.639024
H77	H	0.544375	0.200218	-0.000112
N78	N	0.805362	-0.702453	-0.000113
H79	H	0.763301	-0.655452	-0.000123
H80	H	0.799362	-0.735471	-0.090418
H81	H	0.837832	-0.548421	-0.000120
N82	N	0.783381	-0.154005	-0.000050
H83	H	0.799181	-0.098656	-0.000044
H84	H	0.750913	-0.161948	-0.090345
N85	N	0.768892	-0.322514	-0.000105
H86	H	0.774801	-0.382185	-0.000102
H87	H	0.738867	-0.302124	0.090202
H88	H	1.034417	-0.138571	0.381605
N89	N	0.704174	0.210870	-0.000089
H90	H	0.763567	0.197007	-0.000081
H91	H	0.687693	0.242848	-0.090405
N92	N	1.133093	-0.068328	0.631681
H93	H	1.148226	-0.016227	0.594851
H94	H	1.133067	-0.068370	0.742297
N95	N	1.056333	-0.455493	-0.000102
H96	H	1.062419	-0.422487	-0.090399
H97	H	1.062349	-0.422529	0.090265
H98	H	0.849666	-0.453227	-0.000101
N99	N	0.353955	-0.135346	-0.000074
H100	H	0.318131	-0.178680	-0.000073
H101	H	0.388493	-0.140230	-0.090370
N102	N	0.181983	-0.126522	-0.000121
H103	H	0.223681	-0.173834	-0.000105
H104	H	0.147850	-0.127875	0.090177
