data_functionalizedCrystal
_audit_creation_method	'MofGen! by Chris Wilmer'
_symmetry_space_group_name_H-M	'P1'
_symmetry_Int_Tables_number	1
_symmetry_cell_setting	triclinic
loop_
_symmetry_equiv_pos_as_xyz
  x,y,z
_cell_length_a	11.026607
_cell_length_b	11.026607
_cell_length_c	10.066281
_cell_angle_alpha	97.650714
_cell_angle_beta	97.701902
_cell_angle_gamma	108.586017
loop_
_atom_site_label
_atom_site_type_symbol
_atom_site_fract_x
_atom_site_fract_y
_atom_site_fract_z
O1	O	1.706377	0.513338	-0.113483
O2	O	1.339797	0.452574	-0.113485
O3	O	1.492706	0.299667	-0.113480
O4	O	1.553468	0.666245	-0.113489
O5	O	1.533402	0.340229	0.113494
O6	O	1.380492	0.493136	0.113488
O7	O	1.747073	0.553900	0.113490
Zn8	Zn	1.570244	0.529958	0.149526
Zn9	Zn	1.516625	0.476516	-0.149521
O10	O	1.594164	0.706807	0.113484
C11	C	1.312485	0.461646	0.000001
C12	C	1.170471	0.428228	0.000000
C13	C	1.501844	0.272288	0.000005
C14	C	1.468426	0.130273	0.000000
C15	C	1.116821	0.520497	-0.000003
C16	C	0.970042	0.485962	-0.000004
C17	C	1.560695	0.076624	-0.000001
C18	C	1.526159	-0.070156	-0.000006
C19	C	1.774384	0.544829	0.000001
C20	C	1.916397	0.578244	-0.000007
C21	C	1.585025	0.734186	-0.000004
C22	C	1.618441	0.876199	-0.000008
N23	N	1.606846	0.566433	0.353618
N24	N	1.480031	0.440034	-0.353613
C25	C	1.529342	0.489196	0.421426
C26	C	1.557546	0.517282	0.578582
H27	H	1.179555	0.625061	0.000002
H28	H	1.665260	0.139359	0.000008
C29	C	1.759711	-0.039070	-0.000008
C30	C	1.827347	-0.069959	-0.117872
C31	C	1.968613	0.014772	-0.117875
C32	C	2.042243	0.130393	-0.000014
C33	C	1.974608	0.161287	0.117859
C34	C	1.833342	0.076556	0.117862
H35	H	1.772842	-0.155553	-0.205128
H36	H	2.018681	-0.008099	-0.205133
H37	H	2.146817	0.193116	-0.000016
H38	H	2.029113	0.246881	0.205115
H39	H	1.783274	0.099427	0.205120
H40	H	1.694075	0.653357	0.411912
H41	H	1.442104	0.402281	0.363131
C42	C	1.327162	0.045538	-0.000003
C43	C	1.259521	0.076424	0.117858
C44	C	1.118254	-0.008309	0.117854
C45	C	1.044627	-0.123927	-0.000011
C46	C	1.112268	-0.154818	-0.117880
C47	C	1.253535	-0.070086	-0.117877
H48	H	1.314024	0.162016	0.205116
H49	H	1.068183	0.014560	0.205110
H50	H	0.940053	-0.186651	-0.000013
H51	H	1.057765	-0.240411	-0.205139
H52	H	1.303607	-0.092955	-0.205132
C53	C	1.362172	0.322601	0.567661
C54	C	1.382947	0.214552	0.469391
C55	C	1.265089	0.097120	0.390667
C56	C	1.126457	0.087737	0.410212
C57	C	1.105676	0.195790	0.508487
C58	C	1.223533	0.313221	0.587211
H59	H	1.485576	0.221494	0.454918
H60	H	1.280473	0.017133	0.317917
H61	H	1.039212	0.000807	0.351936
H62	H	1.003047	0.188847	0.522960
H63	H	1.208149	0.393209	0.659961
H64	H	0.907307	0.381386	-0.000036
H65	H	0.979125	0.682816	-0.000001
H66	H	1.644781	0.604212	0.636872
H67	H	1.421587	-0.132886	-0.000016
H68	H	1.107732	0.323660	-0.000032
