data_functionalizedCrystal
_audit_creation_method	'MofGen! by Chris Wilmer'
_symmetry_space_group_name_H-M	'P1'
_symmetry_Int_Tables_number	1
_symmetry_cell_setting	triclinic
loop_
_symmetry_equiv_pos_as_xyz
  x,y,z
_cell_length_a	10.654541
_cell_length_b	27.732048
_cell_length_c	9.730217
_cell_angle_alpha	89.991832
_cell_angle_beta	89.999932
_cell_angle_gamma	83.563292
loop_
_atom_site_label
_atom_site_type_symbol
_atom_site_fract_x
_atom_site_fract_y
_atom_site_fract_z
O1	O	1.664985	0.067880	-0.114265
O2	O	1.299234	0.074348	-0.114278
O3	O	1.493469	0.000788	-0.114245
O4	O	1.470750	0.141440	-0.114298
O5	O	1.493463	0.000787	0.114335
O6	O	1.299228	0.074348	0.114302
O7	O	1.664979	0.067879	0.114316
Zn8	Zn	1.482103	0.071113	0.150601
Zn9	Zn	1.482110	0.071114	-0.150563
O10	O	1.470744	0.141439	0.114282
C11	C	1.252453	0.073873	0.000011
C12	C	1.113069	0.072453	0.000007
C13	C	1.081401	0.160415	-0.000044
C14	C	1.000086	0.203726	-0.000074
C15	C	0.869124	0.202389	-0.000075
C16	C	0.819476	0.157735	-0.000041
C17	C	0.900791	0.114423	-0.000011
C18	C	1.031754	0.115766	-0.000014
C19	C	0.932459	0.026463	0.000049
C20	C	1.063421	0.027799	0.000040
C21	C	0.882811	-0.018191	0.000083
C22	C	0.964126	-0.061504	0.000104
C23	C	1.095095	-0.060164	0.000103
C24	C	1.144736	-0.015512	0.000071
C25	C	1.492989	-0.017222	0.000049
C26	C	1.491553	-0.070886	0.000060
C27	C	1.597293	-0.409043	-0.000006
C28	C	1.591965	-0.610736	-0.000026
O29	O	1.688656	-0.641390	-0.000082
N30	N	1.476791	-0.630576	-0.000029
C31	C	1.362942	-0.599990	-0.000036
O32	O	1.264858	-0.621494	-0.000053
C33	C	1.368271	-0.398299	-0.000026
C34	C	1.483452	-0.378461	-0.000009
C35	C	1.712464	-0.389205	0.000009
C36	C	1.713795	-0.338785	0.000021
C37	C	1.599954	-0.308203	0.000018
C38	C	1.484783	-0.328041	0.000003
C39	C	1.254423	-0.367713	-0.000043
C40	C	1.255766	-0.317288	-0.000044
C41	C	1.370947	-0.297450	-0.000027
C42	C	1.372273	-0.247038	0.000012
N43	N	1.487446	-0.227198	0.000015
C44	C	1.601287	-0.257780	0.000018
C45	C	1.360152	-0.705882	-0.000038
C46	C	1.358819	-0.756305	-0.000038
C47	C	1.587843	-0.767046	-0.000030
C48	C	1.589174	-0.716623	-0.000021
C49	C	1.475325	-0.686041	-0.000035
C50	C	1.604073	-0.151893	0.000045
C51	C	1.605394	-0.101468	0.000063
C52	C	1.376371	-0.090731	0.000049
C53	C	1.375050	-0.141151	0.000038
C54	C	1.488911	-0.171732	0.000032
O55	O	1.275633	-0.216356	0.000053
O56	O	1.699357	-0.236267	0.000005
C57	C	1.595962	-0.459463	-0.000019
C58	C	1.480790	-0.479301	-0.000034
C59	C	1.366950	-0.448719	-0.000037
C60	C	1.479458	-0.529724	-0.000034
C61	C	1.593298	-0.560306	-0.000031
C62	C	1.708472	-0.540466	-0.000028
C63	C	1.709803	-0.490045	-0.000016
C64	C	1.251777	-0.468560	-0.000040
C65	C	1.250455	-0.518981	-0.000051
C66	C	1.364296	-0.549563	-0.000048
C67	C	1.711760	0.068354	0.000024
C68	C	1.851144	0.069774	0.000019
C69	C	1.471224	0.159450	-0.000015
C70	C	1.472660	0.213113	-0.000035
N71	N	1.482107	0.071112	0.356137
N72	N	1.482117	0.071111	-0.356100
C73	C	1.654171	0.005994	0.356157
C74	C	1.740211	-0.026564	0.428107
C75	C	1.740224	-0.026565	0.571987
C76	C	1.654184	0.005996	0.643920
C77	C	1.568144	0.038554	0.571970
C78	C	1.568143	0.038551	0.428087
C79	C	1.396076	0.103669	0.571950
C80	C	1.396067	0.103673	0.428070
C81	C	1.310037	0.136229	0.643883
C82	C	1.224000	0.168790	0.571933
C83	C	1.223992	0.168790	0.428045
C84	C	1.310027	0.136230	0.356120
H85	H	1.040524	0.240082	-0.000098
Br86	Br	1.107234	0.212971	0.669559
H87	H	1.310046	0.136226	0.761038
H88	H	1.188035	0.161508	-0.000074
Br89	Br	0.758762	0.261168	-0.000098
H90	H	0.712838	0.156650	-0.000026
Br91	Br	1.107205	0.212974	0.330411
Br92	Br	1.310031	0.136230	0.160854
Br93	Br	1.218732	-0.168075	0.000047
Br94	Br	1.856983	-0.070754	0.669638
H95	H	1.654179	0.005995	0.239003
Br96	Br	1.862968	-0.581980	-0.000013
H97	H	0.776174	-0.019277	0.000090
Br98	Br	1.870120	-0.311870	0.000006
Br99	Br	1.202497	-0.783221	-0.000028
H100	H	1.251370	-0.014417	0.000054
Br101	Br	1.205442	-0.118948	0.000161
H102	H	0.923691	-0.097857	0.000130
Br103	Br	1.758600	-0.193388	0.000035
Br104	Br	1.761721	-0.074549	0.000088
H105	H	1.805172	-0.414100	0.000006
Br106	Br	1.205627	-0.664385	-0.000060
Br107	Br	1.866128	-0.463131	-0.000001
Br108	Br	1.098096	-0.394623	-0.000072
Br109	Br	1.221881	-0.049217	0.000045
Br110	Br	1.742340	-0.808560	-0.000030
Br111	Br	1.745495	-0.689706	0.000005
H112	H	1.654190	0.005989	0.761075
Br113	Br	1.101248	-0.275787	-0.000070
Br114	Br	1.094123	-0.545896	-0.000063
H115	H	1.810261	-0.053075	0.369527
H116	H	1.159072	-0.443664	-0.000046
