data_functionalizedCrystal
_audit_creation_method	'MofGen! by Chris Wilmer'
_symmetry_space_group_name_H-M	'P1'
_symmetry_Int_Tables_number	1
_symmetry_cell_setting	triclinic
loop_
_symmetry_equiv_pos_as_xyz
  x,y,z
_cell_length_a	23.532355
_cell_length_b	23.532407
_cell_length_c	15.021413
_cell_angle_alpha	89.986800
_cell_angle_beta	90.000788
_cell_angle_gamma	82.838088
loop_
_atom_site_label
_atom_site_type_symbol
_atom_site_fract_x
_atom_site_fract_y
_atom_site_fract_z
O1	O	0.755279	0.068997	-0.073920
O2	O	0.589411	0.079031	-0.073950
O3	O	0.677347	-0.008918	-0.073918
O4	O	0.667343	0.156947	-0.073952
O5	O	0.677339	-0.008927	0.074147
O6	O	0.589404	0.079022	0.074115
O7	O	0.755271	0.068988	0.074144
Zn8	Zn	0.672336	0.074004	0.097638
Zn9	Zn	0.672346	0.074016	-0.097443
O10	O	0.667336	0.156938	0.074112
C11	C	0.568191	0.078776	0.000079
C12	C	0.504972	0.078022	0.000068
C13	C	0.677088	-0.030139	0.000117
C14	C	0.676322	-0.093356	0.000124
C15	C	0.112954	0.073279	0.080817
C16	C	0.053555	0.072562	0.080820
O17	O	0.022833	0.072167	0.149460
N18	N	0.023850	0.072211	0.000111
C19	C	0.053549	0.072571	-0.080608
O20	O	0.022829	0.072207	-0.149257
C21	C	0.112948	0.073285	-0.080610
C22	C	0.142649	0.073641	0.000104
C23	C	0.142655	0.073635	0.161525
C24	C	0.202050	0.074353	0.161521
C25	C	0.231744	0.074716	0.080809
C26	C	0.202044	0.074360	0.000100
C27	C	0.142647	0.073642	-0.161328
C28	C	0.202050	0.074354	-0.161323
C29	C	0.231750	0.074711	-0.080609
C30	C	0.291134	0.075441	-0.080616
N31	N	0.320838	0.075792	0.000094
C32	C	0.291143	0.075429	0.080806
C33	C	-0.071192	0.071072	-0.080596
C34	C	-0.130591	0.070363	-0.080594
C35	C	-0.130581	0.070352	0.080834
C36	C	-0.071182	0.071066	0.080831
C37	C	-0.041488	0.071423	0.000114
C38	C	0.415877	0.076939	0.080792
C39	C	0.475278	0.077660	0.080781
C40	C	0.475263	0.077667	-0.080647
C41	C	0.415868	0.076950	-0.080636
C42	C	0.386177	0.076583	0.000090
O43	O	0.321894	0.075834	-0.149220
O44	O	0.321872	0.075787	0.149444
C45	C	0.723557	-0.492468	0.000083
C46	C	0.722845	-0.551868	0.000076
O47	O	0.766632	-0.588620	0.000051
N48	N	0.670568	-0.574484	0.000068
C49	C	0.618998	-0.537697	0.000057
O50	O	0.574467	-0.562388	0.000048
C51	C	0.619710	-0.478298	0.000057
C52	C	0.671991	-0.455685	0.000075
C53	C	0.775834	-0.469854	0.000100
C54	C	0.776545	-0.410458	0.000108
C55	C	0.724979	-0.373676	0.000100
C56	C	0.672703	-0.396289	0.000084
C57	C	0.568141	-0.441512	0.000040
C58	C	0.568858	-0.382110	0.000040
C59	C	0.621139	-0.359497	0.000058
C60	C	0.621848	-0.300110	0.000084
N61	N	0.674126	-0.277494	0.000093
C62	C	0.725691	-0.314277	0.000101
C63	C	0.617507	-0.662439	0.000054
C64	C	0.616794	-0.721837	0.000060
C65	C	0.720642	-0.736004	0.000078
C66	C	0.721354	-0.676605	0.000078
C67	C	0.669784	-0.639823	0.000063
C68	C	0.727181	-0.189540	0.000119
C69	C	0.727888	-0.130138	0.000132
C70	C	0.624041	-0.115977	0.000109
C71	C	0.623334	-0.175373	0.000102
C72	C	0.674909	-0.212154	0.000104
O73	O	0.578084	-0.263323	0.000105
O74	O	0.770216	-0.289577	0.000098
C75	C	0.776492	0.069244	0.000114
C76	C	0.839710	0.069998	0.000118
C77	C	0.667594	0.178158	0.000076
C78	C	0.668360	0.241375	0.000063
N79	N	0.672333	0.073996	0.230775
N80	N	0.672353	0.074020	-0.230581
C81	C	0.712694	0.033008	0.529782
C82	C	0.723919	0.084247	0.470406
C83	C	0.672347	0.074013	0.587812
C84	C	0.661142	0.022767	0.470446
C85	C	0.672342	0.074001	0.412388
C86	C	0.683597	0.125277	0.529744
C87	C	0.620798	0.063763	0.529788
C88	C	0.632001	0.115039	0.470440
C89	C	0.672351	0.074018	0.688870
C90	C	0.672337	0.074002	0.311333
H91	H	0.391709	0.076646	0.146527
H92	H	0.226224	0.074646	-0.227055
H93	H	0.226227	0.074640	0.227247
C94	C	0.110305	0.073278	-0.248871
C95	C	0.051926	0.072588	-0.231615
C96	C	0.022115	0.072260	-0.312243
H97	H	0.124509	0.040188	-0.282084
H98	H	0.115473	0.106624	-0.282053
H99	H	0.046761	0.039246	-0.198447
H100	H	0.037705	0.105676	-0.198415
H101	H	0.027283	0.105606	-0.345425
H102	H	0.036324	0.039169	-0.345450
H103	H	-0.017499	0.071797	-0.300546
C104	C	0.511359	-0.466018	-0.000170
C105	C	0.480229	-0.447285	-0.076368
C106	C	0.427918	-0.469852	-0.076600
H107	H	0.490068	-0.453392	0.051395
H108	H	0.518285	-0.506665	-0.000220
H109	H	0.473301	-0.406647	-0.076310
H110	H	0.501503	-0.459911	-0.127946
H111	H	0.434844	-0.510499	-0.076650
H112	H	0.406632	-0.457225	-0.025032
H113	H	0.406792	-0.457150	-0.128304
H114	H	0.391683	0.076668	-0.146361
H115	H	0.499451	0.077965	-0.146361
C116	C	-0.162894	0.069893	-0.168163
C117	C	-0.190315	0.020485	-0.172864
C118	C	-0.220083	0.020033	-0.253516
H119	H	-0.136759	0.070183	-0.216303
H120	H	-0.190632	0.102812	-0.171535
H121	H	-0.162581	-0.012425	-0.169501
H122	H	-0.216460	0.020185	-0.124743
H123	H	-0.247820	0.052952	-0.256888
H124	H	-0.193943	0.020324	-0.301650
H125	H	-0.238695	-0.013487	-0.256713
H126	H	0.577221	0.055078	0.555891
H127	H	0.767510	0.092916	0.444323
C128	C	-0.038853	0.071358	0.168399
C129	C	0.001944	0.022769	0.173119
C130	C	0.031738	0.023022	0.253771
H131	H	-0.064981	0.071013	0.216539
H132	H	-0.020178	0.104835	0.171758
H133	H	-0.016731	-0.010698	0.169768
H134	H	0.028084	0.023105	0.124997
H135	H	0.050413	0.056498	0.257130
H136	H	0.005606	0.022678	0.301905
H137	H	0.059425	-0.009942	0.256981
C138	C	0.648538	-0.034981	0.435538
C139	C	0.648207	-0.034059	0.342341
C140	C	0.636611	-0.087249	0.310156
H141	H	0.612194	-0.042594	0.456647
H142	H	0.677251	-0.064078	0.455806
H143	H	0.619496	-0.004971	0.322082
H144	H	0.684546	-0.026456	0.321208
H145	H	0.665324	-0.116346	0.330424
H146	H	0.600268	-0.094857	0.331271
H147	H	0.636390	-0.086632	0.246919
C148	C	0.783237	-0.229373	0.000172
C149	C	0.829165	-0.196845	0.000212
C150	C	0.880812	-0.233519	0.000278
H151	H	0.785209	-0.252844	-0.051449
H152	H	0.785148	-0.252840	0.051825
H153	H	0.827255	-0.173388	-0.051435
H154	H	0.827213	-0.173376	0.051829
H155	H	0.882723	-0.256986	0.051931
H156	H	0.882778	-0.256988	-0.051343
H157	H	0.911980	-0.211455	0.000314
C158	C	0.110520	0.073275	0.249257
C159	C	0.149253	0.073754	0.319925
C160	C	0.119674	0.073435	0.400763
H161	H	0.091876	0.039791	0.252761
H162	H	0.082828	0.106227	0.252657
H163	H	0.176935	0.040804	0.316527
H164	H	0.167898	0.107235	0.316450
H165	H	0.091982	0.106388	0.404163
H166	H	0.101032	0.039951	0.404258
H167	H	0.145950	0.073765	0.448721
C168	C	0.778099	-0.652025	0.000271
C169	C	0.781550	-0.618359	0.076456
C170	C	0.833821	-0.595717	0.076668
H171	H	0.780597	-0.629104	-0.051303
H172	H	0.808722	-0.682428	0.000326
H173	H	0.750936	-0.587960	0.076394
H174	H	0.779062	-0.641267	0.128043
H175	H	0.864444	-0.626121	0.076722
H176	H	0.836314	-0.572799	0.025090
H177	H	0.836172	-0.572877	0.128362
H178	H	-0.047020	0.071369	-0.146330
C179	C	-0.162838	0.069831	0.168442
C180	C	-0.190233	0.020405	0.173165
C181	C	-0.219948	0.019900	0.253857
H182	H	-0.190588	0.102725	0.171883
H183	H	-0.136657	0.070110	0.216539
H184	H	-0.216412	0.020131	0.125082
H185	H	-0.162496	-0.012498	0.169740
H186	H	-0.193766	0.020180	0.301954
H187	H	-0.247694	0.052797	0.257291
H188	H	-0.238534	-0.013637	0.257076
H189	H	0.770463	-0.111731	0.000148
H190	H	0.817827	-0.499797	0.000103
C191	C	0.512884	-0.342147	-0.000158
C192	C	0.510257	-0.307629	-0.076342
C193	C	0.458700	-0.270815	-0.076558
H194	H	0.510942	-0.318636	0.051417
H195	H	0.481633	-0.364106	-0.000217
H196	H	0.541499	-0.285672	-0.076274
H197	H	0.512189	-0.331124	-0.127929
H198	H	0.427448	-0.292774	-0.076617
H199	H	0.456762	-0.247308	-0.024980
H200	H	0.456908	-0.247394	-0.128251
H201	H	0.819117	-0.392053	0.000119
H202	H	0.762629	-0.765963	0.000081
C203	C	0.559973	-0.746273	0.000006
C204	C	0.514970	-0.701340	-0.000021
C205	C	0.462617	-0.723826	-0.000089
H206	H	0.557449	-0.769151	0.051621
H207	H	0.557506	-0.769123	-0.051652
H208	H	0.517436	-0.678500	0.051631
H209	H	0.517475	-0.678459	-0.051633
H210	H	0.460150	-0.746676	-0.051747
H211	H	0.460099	-0.746704	0.051527
H212	H	0.432076	-0.693343	-0.000116
H213	H	0.746839	-0.001625	0.555836
H214	H	0.575510	-0.632494	0.000049
H215	H	0.580762	-0.193785	0.000112
C216	C	0.568076	-0.076006	-0.000087
C217	C	0.565460	-0.041491	-0.076275
C218	C	0.513911	-0.004666	-0.076499
H219	H	0.566137	-0.052493	0.051485
H220	H	0.536818	-0.097956	-0.000147
H221	H	0.596709	-0.019543	-0.076207
H222	H	0.567389	-0.064988	-0.127859
H223	H	0.482653	-0.026616	-0.076559
H224	H	0.511976	0.018843	-0.024924
H225	H	0.512127	0.018753	-0.128195
H226	H	0.499457	0.077952	0.146511
C227	C	0.696427	0.183018	0.564363
C228	C	0.746254	0.175409	0.616181
C229	C	0.758102	0.228585	0.648074
H230	H	0.665283	0.199811	0.599659
H231	H	0.701819	0.207457	0.515544
H232	H	0.740859	0.150979	0.664992
H233	H	0.777408	0.158625	0.580904
H234	H	0.763493	0.253023	0.599255
H235	H	0.726955	0.245373	0.683366
H236	H	0.791912	0.223430	0.683229
C237	C	0.586571	0.161402	0.435957
C238	C	0.598570	0.214918	0.466148
C239	C	0.556740	0.257641	0.434388
H240	H	0.550023	0.154511	0.457169
H241	H	0.586612	0.160977	0.372713
H242	H	0.598524	0.215342	0.529378
H243	H	0.635111	0.221827	0.444938
H244	H	0.556780	0.257217	0.371145
H245	H	0.520194	0.250746	0.455602
H246	H	0.564878	0.293957	0.454861
