data_functionalizedCrystal
_audit_creation_method	'MofGen! by Chris Wilmer'
_symmetry_space_group_name_H-M	'P1'
_symmetry_Int_Tables_number	1
_symmetry_cell_setting	triclinic
loop_
_symmetry_equiv_pos_as_xyz
  x,y,z
_cell_length_a	14.971506
_cell_length_b	15.625429
_cell_length_c	13.448316
_cell_angle_alpha	71.916250
_cell_angle_beta	89.992937
_cell_angle_gamma	83.942511
loop_
_atom_site_label
_atom_site_type_symbol
_atom_site_fract_x
_atom_site_fract_y
_atom_site_fract_z
O1	O	1.186958	0.117574	-0.125088
O2	O	0.926563	0.131625	-0.130154
O3	O	1.063715	-0.006631	-0.080302
O4	O	1.049805	0.255830	-0.174940
O5	O	1.063698	-0.006639	0.085085
O6	O	0.926545	0.131616	0.035233
O7	O	1.186941	0.117566	0.040299
Cu8	Cu	1.056741	0.124590	0.052867
Cu9	Cu	1.056762	0.124600	-0.142722
O10	O	1.049788	0.255821	-0.009553
C11	C	0.893230	0.130989	-0.047233
C12	C	0.793933	0.129096	-0.046550
C13	C	0.355664	0.203095	-0.073243
C14	C	0.448965	0.204867	-0.073886
C15	C	0.506170	0.123636	-0.044592
C16	C	0.470070	0.040629	-0.014663
C17	C	0.376771	0.038859	-0.014027
C18	C	0.664534	0.044325	-0.015987
C19	C	0.757839	0.046095	-0.016620
C20	C	0.736727	0.210333	-0.075846
C21	C	0.643428	0.208563	-0.075211
C22	C	0.607335	0.125555	-0.045279
C23	C	1.063076	-0.040224	0.014501
C24	C	1.061187	-0.140307	0.050583
C25	C	1.054996	-0.469446	-0.281474
C26	C	1.053217	-0.563489	-0.247539
C27	C	1.053198	-0.563485	-0.067246
C28	C	1.054982	-0.469440	-0.101166
C29	C	1.055880	-0.422428	-0.208281
C30	C	1.055866	-0.422423	-0.027973
C31	C	1.057644	-0.328386	-0.061890
C32	C	1.058539	-0.281367	-0.169001
C33	C	1.057658	-0.328392	-0.242199
C34	C	1.054961	-0.469436	0.079142
C35	C	1.055845	-0.422418	0.152335
C36	C	1.057630	-0.328380	0.118418
C37	C	1.058525	-0.281361	0.011307
C38	C	1.058511	-0.281356	0.191616
C39	C	1.060290	-0.187319	0.157698
C40	C	1.060304	-0.187325	-0.022611
C41	C	1.220274	0.118202	-0.042624
C42	C	1.319570	0.120094	-0.043313
C43	C	1.050427	0.289414	-0.104358
C44	C	1.052316	0.389497	-0.140446
N45	N	1.056734	0.124582	0.190434
N46	N	1.056777	0.124601	-0.280287
C47	C	1.117484	0.063388	0.264540
C48	C	1.117489	0.063387	0.368643
C49	C	1.056748	0.124586	0.398637
C50	C	0.995992	0.185783	0.324523
C51	C	0.995983	0.185779	0.220423
C52	C	0.996017	0.185789	0.541501
C53	C	0.996027	0.185795	0.645608
C54	C	1.117523	0.063398	0.689721
C55	C	1.117514	0.063394	0.585621
C56	C	1.056758	0.124592	0.511514
H57	H	0.766118	0.277921	-0.100217
H58	H	1.052464	-0.601774	0.019968
F59	F	0.338358	-0.049482	0.017829
H60	H	1.057771	-0.319646	0.278829
H61	H	1.058397	-0.290113	-0.329422
F62	F	1.053066	-0.569519	0.115238
F63	F	1.052272	-0.613525	-0.325451
H64	H	1.055111	-0.460707	0.239549
F65	F	1.061234	-0.137277	0.235598
H66	H	0.946531	0.235609	0.348951
H67	H	1.166950	0.013557	0.240127
H68	H	1.166992	0.013568	0.750066
H69	H	1.166956	0.013558	0.428982
F70	F	1.182166	-0.001735	0.553697
H71	H	0.946564	0.235628	0.670022
F72	F	0.931321	0.250908	0.141555
F73	F	0.294790	0.289553	-0.104416
F74	F	0.487374	0.293207	-0.105747
H75	H	0.596854	0.274708	-0.099058
H76	H	0.635151	-0.023268	0.008381
H77	H	0.946540	0.235621	0.481165
H78	H	0.804414	-0.020050	0.007226
H79	H	0.516654	-0.025510	0.009184
H80	H	1.061043	-0.149046	-0.109834
H81	H	1.059978	-0.204795	-0.196616
H82	H	1.055735	-0.431167	-0.368698
