data_functionalizedCrystal
_audit_creation_method	'MofGen! by Chris Wilmer'
_symmetry_space_group_name_H-M	'P1'
_symmetry_Int_Tables_number	1
_symmetry_cell_setting	triclinic
loop_
_symmetry_equiv_pos_as_xyz
  x,y,z
_cell_length_a	15.995292
_cell_length_b	15.995350
_cell_length_c	12.503552
_cell_angle_alpha	86.478069
_cell_angle_beta	93.523602
_cell_angle_gamma	83.480495
loop_
_atom_site_label
_atom_site_type_symbol
_atom_site_fract_x
_atom_site_fract_y
_atom_site_fract_z
O1	O	1.115851	0.102852	0.089345
O2	O	0.872069	0.116231	0.089340
O3	O	1.000624	-0.012347	0.089342
O4	O	0.987296	0.231431	0.089343
O5	O	0.990945	-0.002669	-0.089301
O6	O	0.862390	0.125909	-0.089303
O7	O	1.106172	0.112531	-0.089298
Cu8	Cu	0.983397	0.120104	-0.105612
Cu9	Cu	0.994844	0.108658	0.105654
O10	O	0.977617	0.241109	-0.089299
C11	C	0.836034	0.120526	0.000018
C12	C	0.743081	0.118893	0.000016
C13	C	0.405343	0.112891	0.000029
C14	C	0.428677	0.205674	0.000428
C15	C	0.525330	0.207460	0.000021
C16	C	0.572899	0.115870	0.000023
C17	C	0.538270	0.074998	-0.101987
C18	C	0.441475	0.073886	-0.102068
C19	C	0.452626	0.060984	0.101082
C20	C	0.549192	0.064351	0.102426
C21	C	0.667594	0.117548	0.000017
C22	C	0.310647	0.111211	0.000028
C23	C	0.995234	-0.038703	0.000022
C24	C	0.993582	-0.131653	0.000028
C25	C	0.987649	-0.469399	0.000025
C26	C	0.896117	-0.421968	0.000423
C27	C	0.897747	-0.325256	0.000021
C28	C	0.990592	-0.301840	0.000027
C29	C	1.030223	-0.337400	-0.101984
C30	C	1.027918	-0.434030	-0.102069
C31	C	1.040817	-0.445395	0.101081
C32	C	1.040868	-0.348523	0.102429
C33	C	0.992260	-0.207142	0.000025
C34	C	0.985984	-0.564097	0.000020
C35	C	1.142207	0.108236	0.000027
C36	C	1.235161	0.109868	0.000035
C37	C	0.983008	0.267464	0.000022
C38	C	0.984660	0.360414	0.000023
N39	N	0.975352	0.128153	-0.254204
C40	C	1.014726	0.088757	-0.526637
C41	C	0.963525	0.139995	-0.473314
C42	C	0.970107	0.133405	-0.351390
C43	C	1.008144	0.095346	-0.648572
N44	N	1.002896	0.100601	0.254247
H45	H	0.582496	-0.002835	0.108589
H46	H	0.914747	0.188811	-0.519230
F47	F	0.397265	0.247252	0.096049
F48	F	0.385595	0.257325	-0.094652
F49	F	0.983852	-0.294921	-0.201215
H50	H	1.063501	0.039946	-0.480726
H51	H	0.539765	0.247985	-0.073228
H52	H	1.011941	-0.325356	0.177894
F53	F	0.555380	0.249774	0.095601
H54	H	1.108908	-0.333509	0.108593
H55	H	1.108357	-0.477207	0.101771
H56	H	0.410526	0.110150	-0.178325
H57	H	0.426673	0.006092	-0.106700
F58	F	0.434390	-0.028352	0.101984
H59	H	0.428489	0.085803	0.178400
H60	H	0.866212	-0.300788	0.073146
H61	H	0.855744	-0.437613	-0.072324
F62	F	1.119111	-0.318688	-0.106941
H63	H	0.569932	0.007806	-0.105779
F64	F	0.559109	0.122488	-0.201219
F65	F	1.115446	-0.475874	-0.108125
H66	H	0.571850	0.094045	0.177892
F67	F	0.845848	-0.283634	-0.095722
F68	F	0.853464	-0.451358	0.096042
H69	H	0.990857	-0.448194	-0.178328
H70	H	1.015072	-0.470117	0.178399
