data_functionalizedCrystal
_audit_creation_method	'MofGen! by Chris Wilmer'
_symmetry_space_group_name_H-M	'P1'
_symmetry_Int_Tables_number	1
_symmetry_cell_setting	triclinic
loop_
_symmetry_equiv_pos_as_xyz
  x,y,z
_cell_length_a	14.971490
_cell_length_b	13.448316
_cell_length_c	14.971506
_cell_angle_alpha	90.001105
_cell_angle_beta	96.380982
_cell_angle_gamma	89.992749
loop_
_atom_site_label
_atom_site_type_symbol
_atom_site_fract_x
_atom_site_fract_y
_atom_site_fract_z
O1	O	-1.186952	0.082742	0.116575
O2	O	-0.686952	0.582742	0.616575
O3	O	-0.926553	0.082732	0.130530
O4	O	-0.426553	0.582732	0.630530
O5	O	-1.063723	0.082735	-0.006647
O6	O	-0.563723	0.582735	0.493353
O7	O	-1.049783	0.082739	0.253751
O8	O	-0.549783	0.582739	0.753751
O9	O	-1.063709	-0.082649	-0.006645
O10	O	-0.563709	0.417351	0.493355
O11	O	-0.926540	-0.082652	0.130531
O12	O	-0.426540	0.417348	0.630531
O13	O	-1.186938	-0.082642	0.116576
O14	O	-0.686938	0.417358	0.616576
Cu15	Cu	-1.056738	-0.097748	0.123554
Cu16	Cu	-0.556738	0.402252	0.623554
Cu17	Cu	-1.056754	0.097838	0.123552
Cu18	Cu	-0.556754	0.597838	0.623552
O19	O	-1.049769	-0.082645	0.253752
O20	O	-0.549769	0.417355	0.753752
C21	C	-0.893222	0.000039	0.129906
C22	C	-0.393222	0.500039	0.629906
C23	C	-0.793925	0.000035	0.128034
C24	C	-0.293925	0.500035	0.628034
N25	N	-1.056733	-0.235312	0.123554
N26	N	-0.556733	0.264688	0.623554
C27	C	-0.366226	0.090204	0.119955
C28	C	0.133774	0.590204	0.619955
C29	C	-0.459526	0.090202	0.121711
C30	C	0.040474	0.590202	0.621711
C31	C	-0.506165	0.000048	0.122596
C32	C	-0.006165	0.500048	0.622596
C33	C	-0.459499	-0.090109	0.121715
C34	C	0.040501	0.409891	0.621715
C35	C	-0.366201	-0.090105	0.119953
C36	C	0.133799	0.409895	0.619953
C37	C	-0.653961	-0.090111	0.125391
C38	C	-0.153961	0.409889	0.625391
C39	C	-0.747265	-0.090115	0.127156
C40	C	-0.247265	0.409885	0.627156
C41	C	-0.747286	0.090196	0.127150
C42	C	-0.247286	0.590196	0.627150
C43	C	-0.653988	0.090200	0.125387
C44	C	-0.153988	0.590200	0.625387
C45	C	-0.607329	0.000043	0.124508
C46	C	-0.107329	0.500043	0.624508
C47	C	-1.063089	0.000044	-0.039970
C48	C	-0.563089	0.500044	0.460030
C49	C	-1.061211	0.000048	-0.139266
C50	C	-0.561211	0.500048	0.360734
C51	C	-0.220270	0.000051	0.117201
C52	C	0.279730	0.500051	0.617201
C53	C	-0.319566	0.000055	0.119077
C54	C	0.180434	0.500055	0.619077
C55	C	-1.002460	-0.712563	0.069204
C56	C	-0.502460	-0.212563	0.569204
C57	C	-1.002457	-0.608460	0.069201
C58	C	-0.502457	-0.108460	0.569201
C59	C	-1.056755	-0.556393	0.123544
C60	C	-0.556755	-0.056393	0.623544
C61	C	-1.111068	-0.608436	0.177887
C62	C	-0.611068	-0.108436	0.677887
C63	C	-1.111075	-0.712537	0.177885
C64	C	-0.611075	-0.212537	0.677885
C65	C	-1.111047	-0.391456	0.177891
C66	C	-0.611047	0.108544	0.677891
C67	C	-1.111039	-0.287347	0.177895
C68	C	-0.611039	0.212653	0.677895
C69	C	-1.002429	-0.287378	0.069207
C70	C	-0.502429	0.212622	0.569207
C71	C	-1.002436	-0.391480	0.069204
C72	C	-0.502436	0.108520	0.569204
C73	C	-1.056747	-0.443515	0.123549
C74	C	-0.556747	0.056485	0.623549
N75	N	-1.056766	0.235402	0.123545
N76	N	-0.556766	0.735402	0.623545
C77	C	-1.134629	0.000051	-0.577548
C78	C	-0.634629	0.500051	-0.077548
C79	C	-1.136387	0.000044	-0.484248
C80	C	-0.636387	0.500044	0.015752
C81	C	-1.055794	0.000045	-0.427029
C82	C	-0.555794	0.500045	0.072971
C83	C	-0.973439	0.000041	-0.463114
C84	C	-0.473439	0.500041	0.036886
C85	C	-0.971683	0.000041	-0.556413
C86	C	-0.471683	0.500041	-0.056413
C87	C	-0.977106	0.000045	-0.268651
C88	C	-0.477106	0.500045	0.231349
C89	C	-0.978862	0.000048	-0.175346
C90	C	-0.478862	0.500048	0.324654
C91	C	-1.141810	0.000049	-0.196486
C92	C	-0.641810	0.500049	0.303514
C93	C	-1.140053	0.000048	-0.289785
C94	C	-0.640053	0.500048	0.210215
C95	C	-1.057698	0.000047	-0.325864
C96	C	-0.557698	0.500047	0.174136
C97	C	-1.050403	0.000048	0.287076
C98	C	-0.550403	0.500048	0.787076
C99	C	-1.052280	0.000050	0.386372
C100	C	-0.552280	0.500050	0.886372
H101	H	-0.328259	0.163618	0.119241
H102	H	0.171741	0.663618	0.619241
H103	H	-1.155297	-0.754903	0.222134
H104	H	-0.655297	-0.254903	0.722134
H105	H	-0.497513	0.163611	0.122421
H106	H	0.002487	0.663611	0.622421
F107	F	-0.889454	0.000038	-0.307047
F108	F	-0.389454	0.500038	0.192953
F109	F	-0.893087	0.000040	-0.114451
F110	F	-0.393087	0.500040	0.385549
F111	F	-0.604353	0.186151	0.124453
F112	F	-0.104353	0.686151	0.624453
F113	F	-0.887667	0.000037	-0.402215
F114	F	-0.387667	0.500037	0.097785
H115	H	-0.904626	0.000032	-0.585787
H116	H	-0.404626	0.500032	-0.085787
H117	H	-0.785281	0.163605	0.127867
H118	H	-0.285281	0.663605	0.627867
H119	H	-1.155251	-0.244957	0.222149
H120	H	-0.655251	0.255043	0.722149
F121	F	-0.796900	-0.186066	0.128092
F122	F	-0.296900	0.313934	0.628092
F123	F	-0.509138	-0.186058	0.122654
F124	F	-0.009138	0.313942	0.622654
F125	F	-0.944626	-0.231998	0.011370
F126	F	-0.444626	0.268002	0.511370
H127	H	-1.155275	-0.433819	0.222141
H128	H	-0.655275	0.066181	0.722141
H129	H	-1.205679	0.000054	-0.336371
H130	H	-0.705679	0.500054	0.163629
F131	F	-1.220408	0.000058	-0.638437
F132	F	-0.720408	0.500058	-0.138437
H133	H	-0.328211	-0.163514	0.119247
H134	H	0.171789	0.336486	0.619247
F135	F	-0.604306	-0.186067	0.124446
F136	F	-0.104306	0.313933	0.624446
H137	H	-0.958238	-0.754948	0.024956
H138	H	-0.458238	-0.254948	0.524956
H139	H	-0.958238	-0.566097	0.024949
H140	H	-0.458238	-0.066097	0.524949
H141	H	-0.958217	-0.433869	0.024958
H142	H	-0.458217	0.066131	0.524958
F143	F	-1.168861	-0.553020	0.235719
F144	F	-0.668861	-0.053020	0.735719
H145	H	-1.203443	0.000044	-0.454877
H146	H	-0.703443	0.500044	0.045123
F147	F	-1.229459	0.000051	-0.158087
F148	F	-0.729459	0.500051	0.341913
