data_functionalizedCrystal
_audit_creation_method	'MofGen! by Chris Wilmer'
_symmetry_space_group_name_H-M	'P1'
_symmetry_Int_Tables_number	1
_symmetry_cell_setting	triclinic
loop_
_symmetry_equiv_pos_as_xyz
  x,y,z
_cell_length_a	19.805407
_cell_length_b	12.759394
_cell_length_c	12.759395
_cell_angle_alpha	90.007983
_cell_angle_beta	90.006999
_cell_angle_gamma	90.013856
loop_
_atom_site_label
_atom_site_type_symbol
_atom_site_fract_x
_atom_site_fract_y
_atom_site_fract_z
Zn1	Zn	1.034711	-0.418439	0.594104
Zn2	Zn	1.034675	-0.594089	0.418427
Zn3	Zn	0.921550	-0.418424	0.418431
Zn4	Zn	0.921514	-0.594077	0.594056
O5	O	0.978112	-0.506257	0.506255
O6	O	1.129423	-0.441751	0.570819
O7	O	1.019669	-0.570785	0.271407
O8	O	0.936591	-0.271405	0.441756
O9	O	1.129396	-0.570800	0.441750
O10	O	1.019730	-0.271416	0.570822
O11	O	0.936557	-0.441725	0.271409
O12	O	0.826829	-0.441714	0.441709
O13	O	0.936529	-0.570779	0.741083
O14	O	0.826802	-0.570765	0.570740
O15	O	1.019694	-0.441739	0.741119
O16	O	1.019634	-0.741108	0.441703
O17	O	0.936495	-0.741099	0.570737
C18	C	0.802256	-0.506237	0.506221
C19	C	0.727024	-0.506254	0.506231
C20	C	0.691684	-0.573552	0.573309
C21	C	0.620996	-0.573554	0.573323
C22	C	0.585649	-0.506262	0.506255
C23	C	0.620994	-0.438956	0.439174
C24	C	0.691681	-0.438950	0.439165
C25	C	0.335921	-0.438980	0.439209
C26	C	0.265229	-0.438993	0.439220
C27	C	0.265235	-0.573583	0.573367
C28	C	0.335922	-0.573577	0.573358
C29	C	0.371261	-0.506268	0.506282
C30	C	0.447910	-0.506265	0.506268
C31	C	0.509002	-0.506269	0.506262
C32	C	0.978075	-0.779225	0.506237
C33	C	0.978121	-0.896001	0.506265
C34	C	1.064628	-0.895854	0.640763
C35	C	1.107903	-0.950642	0.708019
C36	C	1.107943	-1.060363	0.708042
C37	C	1.064702	-1.115300	0.640803
C38	C	1.021427	-1.060513	0.573546
C39	C	1.021393	-0.950789	0.573529
C40	C	0.934918	-1.060660	0.439055
C41	C	0.934880	-0.950938	0.439026
C42	C	0.891677	-1.115596	0.371816
C43	C	0.848404	-1.060809	0.304553
C44	C	0.848366	-0.951081	0.304532
C45	C	0.891605	-0.896151	0.371769
C46	C	1.154655	-0.506278	0.506289
C47	C	1.229887	-0.506287	0.506304
C48	C	0.978112	-0.506259	0.780288
C49	C	0.978111	-0.506260	0.897065
C50	C	0.978169	-0.232224	0.506295
C51	C	0.978193	-0.115447	0.506312
C52	C	1.064716	-0.371900	1.116545
C53	C	1.108017	-0.304714	1.061701
C54	C	1.108017	-0.304708	0.951980
C55	C	1.064713	-0.371896	0.897099
C56	C	1.021412	-0.439081	0.951943
C57	C	1.021416	-0.439078	1.061667
C58	C	0.934811	-0.573446	0.951908
C59	C	0.934806	-0.573449	1.061630
C60	C	0.891506	-0.640634	0.897028
C61	C	0.848201	-0.707816	0.951871
C62	C	0.848203	-0.707819	1.061600
C63	C	0.891506	-0.640634	1.116473
C64	C	0.978109	-0.506274	1.233287
C65	C	0.978110	-0.506260	1.116510
H66	H	0.720458	-0.628352	0.627921
H67	H	0.891710	-1.204937	0.371844
Cl68	Cl	0.380338	-0.354360	0.354887
H69	H	0.236454	-0.628385	0.627988
Cl70	Cl	1.162456	-0.220257	1.130698
H71	H	1.143108	-0.905903	0.762767
Cl72	Cl	0.793767	-0.792291	1.130536
H73	H	0.891512	-0.640628	0.807687
H74	H	1.143174	-1.104971	0.762819
Cl75	Cl	0.891507	-0.640626	1.254410
Cl76	Cl	1.162456	-0.220251	0.883030
H77	H	1.064606	-0.806513	0.640741
Cl78	Cl	0.794044	-1.129876	0.220043
Cl79	Cl	0.576571	-0.658161	0.657654
Cl80	Cl	0.793957	-0.882214	0.219980
Cl81	Cl	0.220794	-0.354390	0.354900
Cl82	Cl	1.064851	-1.253237	0.640684
H83	H	0.891581	-0.806809	0.371754
Cl84	Cl	0.576558	-0.354354	0.354865
Cl85	Cl	1.064723	-0.371899	0.759162
H86	H	0.720455	-0.384144	0.384549
Cl87	Cl	0.793771	-0.792276	0.882875
H88	H	0.364698	-0.628376	0.627969
H89	H	1.064712	-0.371885	1.205886
