data_functionalizedCrystal
_audit_creation_method	'MofGen! by Chris Wilmer'
_symmetry_space_group_name_H-M	'P1'
_symmetry_Int_Tables_number	1
_symmetry_cell_setting	triclinic
loop_
_symmetry_equiv_pos_as_xyz
  x,y,z
_cell_length_a	6.817900
_cell_length_b	15.185311
_cell_length_c	14.125465
_cell_angle_alpha	95.683759
_cell_angle_beta	100.398878
_cell_angle_gamma	104.261569
loop_
_atom_site_label
_atom_site_type_symbol
_atom_site_fract_x
_atom_site_fract_y
_atom_site_fract_z
V1	V	-3.995154	-0.124974	-0.300257
O2	O	-3.979299	0.006809	-0.294251
O3	O	-3.950706	-0.248575	-0.298483
O4	O	-3.931226	-0.122699	-0.431082
O5	O	-3.998913	-0.119939	-0.160734
V6	V	-4.480282	-0.109253	-0.283535
O7	O	-4.252892	-0.159460	-0.336938
O8	O	-4.672742	-0.074767	-0.246854
O9	O	-4.301524	0.014348	-0.285309
O10	O	-4.613534	-0.241036	-0.289541
O11	O	-4.593920	-0.114288	-0.423058
O12	O	-4.321003	-0.111528	-0.152710
C13	C	-3.797170	-0.278717	-0.293818
C14	C	-3.842011	-0.379761	-0.293239
C15	C	-4.001494	-0.794256	-0.202685
C16	C	-4.061945	-0.819742	-0.378963
C17	C	-4.019787	-0.724805	-0.379501
C18	C	-3.968483	-0.664589	-0.291630
C19	C	-3.959338	-0.699310	-0.203221
C20	C	-4.028950	-0.690077	-0.467909
C21	C	-3.986792	-0.595135	-0.468451
C22	C	-3.935473	-0.534917	-0.380578
C23	C	-3.926326	-0.569643	-0.292165
C24	C	-3.875023	-0.509428	-0.204294
C25	C	-3.865860	-0.544152	-0.115880
C26	C	-3.908018	-0.639092	-0.115348
C27	C	-3.893315	-0.439976	-0.381110
C28	C	-3.832866	-0.414482	-0.204830
C29	C	-3.772322	-0.118149	-0.462960
C30	C	-3.801363	-0.117107	-0.569912
C31	C	-3.854595	-0.115196	-0.765731
C32	C	-4.040210	-0.119029	-0.818061
C33	C	-4.069831	-0.117966	-0.927021
C34	C	-3.824966	-0.116259	-0.656761
C35	C	-4.118402	0.044486	-0.289971
C36	C	-4.052798	0.145528	-0.290556
C37	C	-4.143251	-0.116081	-0.120826
C38	C	-4.093448	-0.117118	-0.013874
H39	H	-3.900569	-0.667374	-0.043366
O40	O	-4.203065	-0.123947	-0.773747
C41	C	-4.321516	-0.129428	-0.623149
C42	C	-4.136928	-0.123870	-0.673217
H43	H	-4.268102	-0.129348	-0.541860
H44	H	-4.448091	-0.195366	-0.655894
H45	H	-4.384990	-0.067613	-0.634624
H46	H	-4.073279	-0.185638	-0.661760
H47	H	-4.010482	-0.057893	-0.640464
O48	O	-3.783159	-0.356122	-0.119384
C49	C	-3.727532	-0.340860	0.055521
C50	C	-3.783892	-0.407056	-0.041175
H51	H	-3.728063	-0.382013	0.118780
H52	H	-3.845804	-0.299334	0.056049
H53	H	-3.566844	-0.292214	0.063318
H54	H	-3.944530	-0.455758	-0.049034
H55	H	-3.665488	-0.448516	-0.041659
O56	O	-3.816400	-0.485699	-0.030510
C57	C	-3.924475	-0.439266	0.115436
C58	C	-3.980763	-0.505513	0.018779
H59	H	-4.057311	-0.455275	0.155323
H60	H	-3.896046	-0.365434	0.099908
H61	H	-3.778307	-0.448088	0.162667
H62	H	-4.126958	-0.496773	-0.028500
H63	H	-4.009058	-0.579320	0.034378
H64	H	-3.717942	-0.111116	-0.802760
H65	H	-3.994029	-0.822533	-0.130700
O66	O	-4.111499	-0.878131	-0.464373
C67	C	-4.003358	-0.924628	-0.610277
C68	C	-3.946991	-0.858428	-0.513584
H69	H	-3.870368	-0.908734	-0.650082
H70	H	-4.149378	-0.915767	-0.657603
H71	H	-4.032015	-0.998445	-0.594690
H72	H	-3.918227	-0.784584	-0.529081
H73	H	-3.801026	-0.867369	-0.466288
O74	O	-4.079144	-0.748543	-0.553293
C75	C	-4.316352	-0.803739	-0.708380
C76	C	-4.259763	-0.737488	-0.611713
H77	H	-4.462361	-0.794809	-0.755647
H78	H	-4.345051	-0.877579	-0.692862
H79	H	-4.183425	-0.787828	-0.748223
H80	H	-4.392616	-0.753315	-0.571821
H81	H	-4.230989	-0.663667	-0.627297
O82	O	-3.902548	-0.406359	-0.467052
C83	C	-4.114046	-0.403425	-0.622424
C84	C	-4.103865	-0.441580	-0.525140
H85	H	-4.276809	-0.431870	-0.669407
H86	H	-3.997891	-0.424872	-0.662165
H87	H	-4.074994	-0.325224	-0.607687
H88	H	-4.142962	-0.519782	-0.539791
H89	H	-4.219984	-0.420062	-0.485429
H90	H	-3.994251	-0.566871	-0.540443
