data_functionalizedCrystal
_audit_creation_method	'MofGen! by Chris Wilmer'
_symmetry_space_group_name_H-M	'P1'
_symmetry_Int_Tables_number	1
_symmetry_cell_setting	triclinic
loop_
_symmetry_equiv_pos_as_xyz
  x,y,z
_cell_length_a	17.666332
_cell_length_b	10.654550
_cell_length_c	10.654550
_cell_angle_alpha	84.484931
_cell_angle_beta	89.993725
_cell_angle_gamma	89.993908
loop_
_atom_site_label
_atom_site_type_symbol
_atom_site_fract_x
_atom_site_fract_y
_atom_site_fract_z
O1	O	0.062892	-1.667850	-0.176401
O2	O	0.062905	-1.302371	-0.193207
O3	O	0.062893	-1.493514	-0.002065
O4	O	0.062904	-1.476708	-0.367544
O5	O	-0.063003	-1.493480	-0.002054
O6	O	-0.062991	-1.302337	-0.193197
O7	O	-0.063005	-1.667816	-0.176391
Cu8	Cu	-0.074494	-1.485074	-0.184793
Cu9	Cu	0.074394	-1.485114	-0.184805
O10	O	-0.062993	-1.476674	-0.367533
C11	C	-0.000054	-1.492263	0.044738
C12	C	-0.000053	-1.488571	0.184181
C13	C	-0.000041	-1.255556	-0.191968
C14	C	-0.000036	-1.116113	-0.188276
N15	N	-0.179213	-1.485055	-0.184783
C16	C	-0.218828	-1.569720	-0.100188
C17	C	-0.298076	-1.569728	-0.100181
C18	C	-0.337705	-1.485081	-0.184793
C19	C	-0.298081	-1.400399	-0.269395
C20	C	-0.218834	-1.400386	-0.269390
N21	N	-0.462120	-1.470062	-0.295783
N22	N	-0.537401	-1.470082	-0.295784
C23	C	-0.576469	-1.485114	-0.184811
N24	N	-0.537413	-1.500150	-0.073834
N25	N	-0.462126	-1.500136	-0.073834
C26	C	-0.423634	-1.485086	-0.184807
C27	C	-0.702014	-1.569793	-0.100202
C28	C	-0.781263	-1.569791	-0.100194
C29	C	-0.781266	-1.400469	-0.269419
C30	C	-0.702018	-1.400465	-0.269415
C31	C	-0.662397	-1.485133	-0.184808
N32	N	0.179113	-1.485143	-0.184805
C33	C	-0.000057	-1.714631	-0.177630
C34	C	-0.000057	-1.854074	-0.181322
C35	C	-0.000035	-1.036628	-0.300818
C36	C	-0.000048	-0.905607	-0.297341
C37	C	-0.000060	-0.933570	-0.068772
C38	C	-0.000052	-1.064588	-0.072250
C39	C	-0.000044	-1.477925	-0.414336
C40	C	-0.000040	-1.481616	-0.553779
C41	C	-0.000057	-1.601112	0.263667
C42	C	-0.000048	-1.597636	0.394688
C43	C	-0.000034	-1.369066	0.366725
C44	C	-0.000038	-1.372544	0.235706
H45	H	-0.186571	-1.638659	-0.031293
H46	H	-0.813518	-1.638733	-0.031299
C47	C	-0.000035	-1.248742	0.148266
H48	H	-0.000037	-1.179143	0.197715
H49	H	0.043866	-1.245364	0.096564
H50	H	-0.043946	-1.245339	0.096587
C51	C	-0.824849	-1.307359	-0.362490
H52	H	-0.877719	-1.319496	-0.350382
H53	H	-0.811872	-1.223424	-0.348073
H54	H	-0.811853	-1.321731	-0.446441
H55	H	-0.000027	-1.078574	-0.395294
H56	H	-0.000049	-1.689279	0.459401
H57	H	-0.669762	-1.331527	-0.338306
C58	C	-0.000068	-1.728732	0.206986
H59	H	-0.000078	-1.714689	0.117572
H60	H	0.043832	-1.775134	0.234192
H61	H	-0.043979	-1.775101	0.234216
C62	C	-0.000042	-0.818178	-0.421137
H63	H	-0.000025	-0.867634	-0.490731
H64	H	-0.043947	-0.766485	-0.424538
H65	H	0.043864	-0.766489	-0.424527
H66	H	-0.000078	-0.891602	0.025693
H67	H	-0.000022	-1.274601	0.408693
H68	H	-0.330336	-1.638675	-0.031291
H69	H	-0.000055	-1.129309	0.019401
H70	H	-0.330351	-1.331477	-0.338285
H71	H	-0.669752	-1.638731	-0.031306
C72	C	-0.175256	-1.307259	-0.362458
H73	H	-0.210205	-1.256849	-0.412856
H74	H	-0.144349	-1.254588	-0.316795
H75	H	-0.144337	-1.352896	-0.415164
