data_functionalizedCrystal
_audit_creation_method	'MofGen! by Chris Wilmer'
_symmetry_space_group_name_H-M	'P1'
_symmetry_Int_Tables_number	1
_symmetry_cell_setting	triclinic
loop_
_symmetry_equiv_pos_as_xyz
  x,y,z
_cell_length_a	18.101395
_cell_length_b	12.759395
_cell_length_c	12.759387
_cell_angle_alpha	90.022830
_cell_angle_beta	89.967189
_cell_angle_gamma	89.969542
loop_
_atom_site_label
_atom_site_type_symbol
_atom_site_fract_x
_atom_site_fract_y
_atom_site_fract_z
Zn1	Zn	-0.294803	-1.606149	-0.594055
Zn2	Zn	-0.418664	-1.605989	-0.418370
Zn3	Zn	-0.294839	-1.430447	-0.418385
Zn4	Zn	-0.418606	-1.430389	-0.594002
O5	O	-0.356728	-1.518244	-0.506203
O6	O	-0.311243	-1.753149	-0.570766
O7	O	-0.402277	-1.582661	-0.271351
O8	O	-0.191201	-1.453845	-0.441717
O9	O	-0.402242	-1.753032	-0.441691
O10	O	-0.191175	-1.582933	-0.570781
O11	O	-0.311304	-1.453691	-0.271362
O12	O	-0.311248	-1.283418	-0.441665
O13	O	-0.402144	-1.453747	-0.741030
O14	O	-0.402179	-1.283376	-0.570690
O15	O	-0.311187	-1.582877	-0.741069
O16	O	-0.522289	-1.582604	-0.441639
O17	O	-0.522247	-1.453592	-0.570675
C18	C	-0.356712	-1.245276	-0.506174
C19	C	-0.356722	-1.128499	-0.506186
C20	C	-0.451576	-0.909070	-0.640357
C21	C	-0.498990	-0.963939	-0.707421
C22	C	-0.498982	-1.073661	-0.707411
C23	C	-0.451558	-1.128516	-0.640326
C24	C	-0.404144	-1.073647	-0.573261
C25	C	-0.404155	-0.963923	-0.573282
C26	C	-0.309309	-1.073630	-0.439122
C27	C	-0.309311	-0.963909	-0.439136
C28	C	-0.261884	-1.128486	-0.372037
C29	C	-0.214465	-1.073617	-0.304976
C30	C	-0.214474	-0.963888	-0.304991
C31	C	-0.261897	-0.909040	-0.372072
C32	C	-0.549139	-1.518103	-0.506172
C33	C	-0.631453	-1.518139	-0.506194
C34	C	-0.930544	-1.518370	-0.506251
C35	C	-0.899223	-1.437387	-0.587638
C36	C	-0.813605	-1.437002	-0.587384
C37	C	-0.782161	-1.518255	-0.506223
C38	C	-0.813320	-1.488272	-0.395497
C39	C	-0.898965	-1.487750	-0.395984
C40	C	-0.898886	-1.629513	-0.534615
C41	C	-0.813235	-1.628859	-0.537043
C42	C	-0.698302	-1.518192	-0.506201
C43	C	-1.014403	-1.518430	-0.506265
C44	C	-0.163566	-1.518413	-0.506257
C45	C	-0.081252	-1.518486	-0.506280
C46	C	-0.356655	-1.518323	-0.780237
C47	C	-0.356624	-1.518357	-0.897013
C48	C	-0.356741	-0.792277	-0.506227
C49	C	-0.356736	-0.909054	-0.506221
C50	C	-0.261917	-1.652829	-0.897074
C51	C	-0.214552	-1.720080	-0.951966
C52	C	-0.214525	-1.720105	-1.061687
C53	C	-0.261866	-1.652871	-1.116520
C54	C	-0.309231	-1.585620	-1.061629
C55	C	-0.309255	-1.585604	-0.951905
C56	C	-0.403934	-1.451144	-1.061568
C57	C	-0.403966	-1.451122	-0.951846
C58	C	-0.451276	-1.383910	-1.116401
C59	C	-0.498645	-1.316662	-1.061510
C60	C	-0.498671	-1.316641	-0.951781
C61	C	-0.451331	-1.383872	-0.896955
C62	C	-0.356747	-1.518225	-0.233235
C63	C	-0.356569	-1.518395	-0.116459
H64	H	-0.537593	-1.118335	-0.762018
H65	H	-0.176006	-1.774819	-0.907308
H66	H	-0.175952	-1.774860	-1.106380
H67	H	-0.920810	-1.355506	-0.569086
H68	H	-0.792954	-1.545401	-0.333203
O69	O	-0.261739	-1.235068	-0.372027
C70	C	-0.190785	-1.271777	-0.399205
H71	H	-0.148121	-1.208559	-0.381369
H72	H	-0.177574	-1.345164	-0.351838
H73	H	-0.189285	-1.291293	-0.486380
H74	H	-0.919765	-1.455960	-0.670007
H75	H	-0.793182	-1.354620	-0.568595
O76	O	-0.261889	-0.802457	-0.372285
C77	C	-0.242933	-0.765879	-0.473025
H78	H	-0.255640	-0.829134	-0.533496
H79	H	-0.276345	-0.692454	-0.491632
H80	H	-0.181485	-0.746469	-0.475407
O81	O	-0.168451	-0.910711	-0.239693
C82	C	-0.184564	-0.937443	-0.134939
H83	H	-0.213030	-1.017087	-0.132688
H84	H	-0.131079	-0.941215	-0.087959
H85	H	-0.222610	-0.875646	-0.099464
H86	H	-0.175859	-1.118288	-0.250357
O87	O	-0.787904	-1.392286	-0.366442
C88	C	-0.810887	-1.316799	-0.440230
H89	H	-0.861845	-1.346633	-0.483373
H90	H	-0.824887	-1.240542	-0.398060
H91	H	-0.764517	-1.302180	-0.498921
O92	O	-0.788555	-1.459513	-0.685346
C93	C	-0.814320	-1.559228	-0.715822
H94	H	-0.866019	-1.579583	-0.669021
H95	H	-0.828087	-1.558437	-0.802992
H96	H	-0.769689	-1.620296	-0.700097
H97	H	-0.261834	-1.652889	-1.205861
H98	H	-0.537604	-0.919264	-0.762038
H99	H	-0.919009	-1.406505	-0.371956
H100	H	-0.537183	-1.261920	-1.106163
H101	H	-0.919687	-1.544176	-0.333276
O102	O	-0.924623	-1.661948	-0.629337
C103	C	-0.971715	-1.584646	-0.671427
H104	H	-0.958009	-1.505406	-0.635022
H105	H	-0.963617	-1.580411	-0.759935
H106	H	-1.031597	-1.605611	-0.653361
H107	H	-0.451562	-1.217857	-0.640314
H108	H	-0.451247	-1.383931	-1.205742
O109	O	-0.789058	-1.655963	-0.634284
C110	C	-0.817291	-1.755373	-0.661129
H111	H	-0.869290	-1.771583	-0.613381
H112	H	-0.831324	-1.756946	-0.748204
H113	H	-0.774091	-1.817973	-0.643512
O114	O	-0.787655	-1.704520	-0.471361
C115	C	-0.740846	-1.658896	-0.395777
H116	H	-0.754645	-1.572109	-0.387420
H117	H	-0.749171	-1.699742	-0.317209
H118	H	-0.680872	-1.667945	-0.421580
H119	H	-0.451579	-0.819729	-0.640383
O120	O	-0.923146	-1.701374	-0.463845
C121	C	-0.968477	-1.651519	-0.389003
H122	H	-0.991896	-1.576191	-0.423695
H123	H	-1.015770	-1.705979	-0.366368
H124	H	-0.934422	-1.632076	-0.316427
O125	O	-0.261831	-1.652912	-0.790491
C126	C	-0.209908	-1.726694	-0.753865
H127	H	-0.166625	-1.741463	-0.817110
H128	H	-0.181822	-1.695012	-0.680459
H129	H	-0.239291	-1.803268	-0.734410
O130	O	-0.544758	-1.251286	-0.898626
C131	C	-0.586521	-1.191940	-0.970555
H132	H	-0.589062	-1.234982	-1.048779
H133	H	-0.644879	-1.180677	-0.938841
H134	H	-0.559393	-1.112172	-0.982209
H135	H	-0.451350	-1.383865	-0.807614
