data_functionalizedCrystal
_audit_creation_method	'MofGen! by Chris Wilmer'
_symmetry_space_group_name_H-M	'P1'
_symmetry_Int_Tables_number	1
_symmetry_cell_setting	triclinic
loop_
_symmetry_equiv_pos_as_xyz
  x,y,z
_cell_length_a	10.723022
_cell_length_b	15.625429
_cell_length_c	9.198806
_cell_angle_alpha	71.919667
_cell_angle_beta	89.996352
_cell_angle_gamma	84.344036
loop_
_atom_site_label
_atom_site_type_symbol
_atom_site_fract_x
_atom_site_fract_y
_atom_site_fract_z
O1	O	1.655908	0.126436	-0.187525
O2	O	1.292633	0.138541	-0.193910
O3	O	1.483976	0.001312	-0.121568
O4	O	1.464564	0.263664	-0.259868
O5	O	1.483961	0.001312	0.120218
O6	O	1.292617	0.138540	0.047875
O7	O	1.655893	0.126436	0.054260
Cu8	Cu	1.474254	0.132488	0.073144
Cu9	Cu	1.474272	0.132488	-0.212795
O10	O	1.464549	0.263664	-0.018083
C11	C	1.246134	0.137660	-0.072554
C12	C	1.107607	0.135025	-0.071167
C13	C	0.888678	0.209086	-0.110212
C14	C	1.031853	0.211811	-0.111646
C15	C	1.483090	-0.032281	0.017030
C16	C	1.480456	-0.132376	0.069787
C17	C	1.471801	-0.461578	-0.415635
C18	C	1.469321	-0.555633	-0.366017
C19	C	1.469304	-0.555619	-0.102439
C20	C	1.471791	-0.461564	-0.152035
C21	C	1.473037	-0.414550	-0.308634
C22	C	1.473027	-0.414536	-0.045035
C23	C	1.475507	-0.320487	-0.094627
C24	C	1.476750	-0.273467	-0.251220
C25	C	1.475517	-0.320502	-0.358227
C26	C	1.471772	-0.461550	0.111564
C27	C	1.473008	-0.414522	0.218564
C28	C	1.475497	-0.320473	0.168972
C29	C	1.476740	-0.273452	0.012379
C30	C	1.476730	-0.273438	0.275979
C31	C	1.479210	-0.179389	0.226387
C32	C	1.479220	-0.179404	-0.037213
C33	C	1.702391	0.127316	-0.067099
C34	C	1.840919	0.129951	-0.068496
C35	C	1.465436	0.297257	-0.156684
C36	C	1.468069	0.397352	-0.209450
N37	N	1.474250	0.132487	0.274259
N38	N	1.474285	0.132482	-0.413905
C39	C	1.554592	0.074615	0.376964
C40	C	1.554612	0.074612	0.544378
H41	H	1.072979	0.279565	-0.147354
H42	H	1.475702	-0.311729	0.403482
C43	C	1.052070	0.043483	-0.022911
C44	C	0.966579	0.019300	0.115389
C45	C	0.911032	-0.072242	0.163644
C46	C	0.940976	-0.139600	0.073601
C47	C	1.026471	-0.115418	-0.064708
C48	C	1.082018	-0.023876	-0.112964
H49	H	0.944409	0.069163	0.182052
H50	H	0.847742	-0.090143	0.266030
H51	H	0.899857	-0.207365	0.109323
H52	H	1.048642	-0.165282	-0.131371
H53	H	1.145308	-0.005975	-0.215349
H54	H	1.468302	-0.593918	-0.453162
H55	H	1.480246	-0.141124	-0.164731
H56	H	1.476543	-0.282222	-0.485745
H57	H	1.623401	0.025068	0.632582
H58	H	0.906027	0.064218	-0.033853
H59	H	1.405476	0.182028	0.310270
H60	H	1.478755	-0.196886	-0.291596
H61	H	0.823570	0.274819	-0.144872
H62	H	1.405502	0.182035	0.497895
H63	H	1.472827	-0.423298	-0.543153
H64	H	1.468285	-0.593910	0.025064
H65	H	1.469739	-0.538129	0.151936
H66	H	1.623358	0.025066	0.340959
H67	H	1.471989	-0.452813	0.346068
C68	C	1.480569	-0.127648	0.344078
C69	C	1.371952	-0.131001	0.454583
C70	C	1.373302	-0.079257	0.572275
C71	C	1.483269	-0.024161	0.579461
C72	C	1.591893	-0.020807	0.468953
C73	C	1.590543	-0.072551	0.351261
H74	H	1.290541	-0.171788	0.449266
H75	H	1.292890	-0.081740	0.654081
H76	H	1.484268	0.014143	0.666584
H77	H	1.673304	0.019980	0.474269
H78	H	1.670955	-0.070067	0.269455
