data_functionalizedCrystal
_audit_creation_method	'MofGen! by Chris Wilmer'
_symmetry_space_group_name_H-M	'P1'
_symmetry_Int_Tables_number	1
_symmetry_cell_setting	triclinic
loop_
_symmetry_equiv_pos_as_xyz
  x,y,z
_cell_length_a	16.625548
_cell_length_b	21.395361
_cell_length_c	21.395355
_cell_angle_alpha	90.021511
_cell_angle_beta	90.024527
_cell_angle_gamma	90.031776
loop_
_atom_site_label
_atom_site_type_symbol
_atom_site_fract_x
_atom_site_fract_y
_atom_site_fract_z
Zn1	Zn	1.232666	-0.249493	0.354248
Zn2	Zn	1.565999	0.083840	0.687581
Zn3	Zn	1.899332	0.417173	1.020915
Zn4	Zn	1.232540	-0.354253	0.249465
Zn5	Zn	1.565874	-0.020920	0.582798
Zn6	Zn	1.899207	0.312414	0.916132
Zn7	Zn	1.097818	-0.249495	0.249485
Zn8	Zn	1.431152	0.083838	0.582818
Zn9	Zn	1.764485	0.417171	0.916151
Zn10	Zn	1.097779	-0.354239	0.354205
Zn11	Zn	1.431112	-0.020906	0.687539
Zn12	Zn	1.764445	0.312428	1.020872
O13	O	1.165201	-0.301870	0.301851
O14	O	1.498534	0.031463	0.635184
O15	O	1.831867	0.364797	0.968517
O16	O	1.345481	-0.263395	0.340358
O17	O	1.678815	0.069938	0.673691
O18	O	2.012148	0.403272	1.007025
O19	O	1.214633	-0.340364	0.161790
O20	O	1.547967	-0.007030	0.495123
O21	O	1.881300	0.326303	0.828456
O22	O	1.115775	-0.161817	0.263408
O23	O	1.449109	0.171516	0.596741
O24	O	1.782442	0.504850	0.930075
O25	O	1.345389	-0.340362	0.263374
O26	O	1.678723	-0.007028	0.596708
O27	O	2.012056	0.326305	0.930041
O28	O	1.214847	-0.161816	0.340377
O29	O	1.548180	0.171518	0.673710
O30	O	1.881514	0.504851	1.007044
O31	O	1.115653	-0.263398	0.161804
O32	O	1.448987	0.069935	0.495138
O33	O	1.782320	0.403268	0.828471
O34	O	0.984981	-0.263385	0.263366
O35	O	1.318314	0.069949	0.596700
O36	O	1.651647	0.403282	0.930033
O37	O	1.115708	-0.340337	0.441889
O38	O	1.449041	-0.007004	0.775222
O39	O	1.782374	0.326329	1.108555
O40	O	0.984951	-0.340339	0.340304
O41	O	1.318285	-0.007006	0.673638
O42	O	1.651618	0.326327	1.006971
O43	O	1.214809	-0.263381	0.441920
O44	O	1.548142	0.069952	0.775254
O45	O	1.881475	0.403285	1.108587
O46	O	1.214595	-0.441929	0.263333
O47	O	1.547928	-0.108596	0.596666
O48	O	1.881261	0.224738	0.930000
O49	O	1.115586	-0.441919	0.340285
O50	O	1.448919	-0.108585	0.673618
O51	O	1.782253	0.224748	1.006952
C52	C	1.165094	-0.464658	0.301816
C53	C	1.498428	-0.131324	0.635149
C54	C	1.831761	0.202009	0.968483
C55	C	1.165122	-0.534299	0.301822
C56	C	1.498456	-0.200966	0.635155
C57	C	1.831789	0.132368	0.968489
C58	C	0.955710	-0.301861	0.301833
C59	C	1.289043	0.031472	0.635167
C60	C	1.622377	0.364805	0.968500
C61	C	0.866089	-0.301872	0.301841
C62	C	1.199422	0.031461	0.635174
C63	C	1.532755	0.364794	0.968507
C64	C	1.216722	-0.566997	0.261794
C65	C	1.550055	-0.233663	0.595127
C66	C	1.883389	0.099670	0.928461
C67	C	1.216760	-0.632432	0.261808
C68	C	1.550093	-0.299099	0.595141
C69	C	1.883426	0.034234	0.928475
C70	C	1.165183	-0.665167	0.301843
C71	C	1.498516	-0.331834	0.635177
C72	C	1.831850	0.001499	0.968510
C73	C	1.113580	-0.632462	0.341879
C74	C	1.446913	-0.299128	0.675212
C75	C	1.780247	0.034205	1.008546
C76	C	1.113550	-0.567028	0.341868
C77	C	1.446883	-0.233694	0.675202
C78	C	1.780216	0.099639	1.008535
C79	C	1.092583	-0.768884	0.306753
C80	C	1.425917	-0.435550	0.640087
C81	C	1.759250	-0.102217	0.973420
C82	C	1.092612	-0.834316	0.306760
C83	C	1.425946	-0.500983	0.640093
C84	C	1.759279	-0.167650	0.973426
C85	C	1.165277	-0.866988	0.301880
C86	C	1.498610	-0.533655	0.635213
C87	C	1.831944	-0.200321	0.968547
C88	C	1.237915	-0.834219	0.296981
C89	C	1.571248	-0.500885	0.630314
C90	C	1.904582	-0.167552	0.963648
C91	C	1.237885	-0.768784	0.296970
C92	C	1.571218	-0.435451	0.630304
C93	C	1.904552	-0.102118	0.963637
C94	C	1.165211	-0.736120	0.301860
C95	C	1.498544	-0.402786	0.635193
C96	C	1.831877	-0.069453	0.968526
C97	C	1.216922	-0.970638	0.261865
C98	C	1.550255	-0.637305	0.595199
C99	C	1.883588	-0.303972	0.928532
C100	C	1.216960	-1.036075	0.261884
C101	C	1.550294	-0.702742	0.595217
C102	C	1.883627	-0.369408	0.928550
C103	C	1.113774	-1.036103	0.341952
C104	C	1.447107	-0.702770	0.675285
C105	C	1.780440	-0.369437	1.008618
C106	C	1.113742	-0.970668	0.341936
C107	C	1.447075	-0.637334	0.675270
C108	C	1.780409	-0.304001	1.008603
C109	C	1.165315	-0.937939	0.301890
C110	C	1.498648	-0.604606	0.635223
C111	C	1.831982	-0.271273	0.968557
C112	C	0.537913	-0.301877	0.301867
C113	C	0.871246	0.031457	0.635201
C114	C	1.204580	0.364790	0.968534
C115	C	0.629222	-0.301874	0.301858
C116	C	0.962555	0.031460	0.635191
C117	C	1.295888	0.364793	0.968525
C118	C	0.701998	-0.301875	0.301853
C119	C	1.035331	0.031459	0.635187
C120	C	1.368665	0.364792	0.968520
C121	C	0.793312	-0.301871	0.301845
C122	C	1.126646	0.031462	0.635178
C123	C	1.459979	0.364795	0.968512
C124	C	1.375510	-0.301880	0.301869
C125	C	1.708843	0.031454	0.635202
C126	C	2.042176	0.364787	0.968535
C127	C	1.465131	-0.301884	0.301876
C128	C	1.798464	0.031450	0.635210
C129	C	2.131797	0.364783	0.968543
C130	C	1.165268	-0.301857	0.465274
C131	C	1.498601	0.031476	0.798607
C132	C	1.831934	0.364809	1.131941
C133	C	1.165296	-0.301852	0.534915
C134	C	1.498630	0.031481	0.868249
C135	C	1.831963	0.364815	1.201582
C136	C	1.165330	-0.138447	0.301899
C137	C	1.498663	0.194887	0.635233
C138	C	1.831996	0.528220	0.968566
C139	C	1.165384	-0.068806	0.301920
C140	C	1.498718	0.264528	0.635254
C141	C	1.832051	0.597861	0.968587
C142	C	1.165180	-0.301838	0.139063
C143	C	1.498514	0.031496	0.472396
C144	C	1.831847	0.364829	0.805730
C145	C	1.165308	-0.301666	0.069422
C146	C	1.498642	0.031667	0.402756
C147	C	1.831975	0.365000	0.736089
C148	C	1.216896	-0.261779	0.567646
C149	C	1.550229	0.071554	0.900979
C150	C	1.883563	0.404887	1.234312
C151	C	1.216895	-0.261752	0.633081
C152	C	1.550228	0.071581	0.966415
C153	C	1.883561	0.404914	1.299748
C154	C	1.165302	-0.301809	0.665784
C155	C	1.498636	0.031524	0.999117
C156	C	1.831969	0.364857	1.332450
C157	C	1.113693	-0.341885	0.633045
C158	C	1.447026	-0.008552	0.966379
C159	C	1.780359	0.324782	1.299712
C160	C	1.113690	-0.341906	0.567611
C161	C	1.447023	-0.008573	0.900945
C162	C	1.780356	0.324760	1.234278
C163	C	1.158899	-0.358225	0.769446
C164	C	1.492232	-0.024891	1.102780
C165	C	1.825566	0.308442	1.436113
C166	C	1.158908	-0.358204	0.834879
C167	C	1.492241	-0.024871	1.168213
C168	C	1.825574	0.308462	1.501546
C169	C	1.165307	-0.301743	0.867605
C170	C	1.498641	0.031590	1.200938
C171	C	1.831974	0.364924	1.534271
C172	C	1.171715	-0.245300	0.834889
C173	C	1.505049	0.088033	1.168222
C174	C	1.838382	0.421366	1.501556
C175	C	1.171712	-0.245322	0.769455
C176	C	1.505045	0.088012	1.102788
C177	C	1.838379	0.421345	1.436121
C178	C	1.165300	-0.301790	0.736736
C179	C	1.498633	0.031543	1.070069
C180	C	1.831966	0.364876	1.403403
C181	C	1.216909	-0.261638	0.971288
C182	C	1.550242	0.071696	1.304621
C183	C	1.883575	0.405029	1.637954
C184	C	1.216902	-0.261610	1.036724
C185	C	1.550235	0.071724	1.370058
C186	C	1.883569	0.405057	1.703391
C187	C	1.113704	-0.341748	1.036687
C188	C	1.447038	-0.008415	1.370020
C189	C	1.780371	0.324919	1.703354
C190	C	1.113707	-0.341770	0.971252
C191	C	1.447040	-0.008437	1.304585
C192	C	1.780373	0.324896	1.637918
C193	C	1.165313	-0.301716	0.938556
C194	C	1.498647	0.031617	1.271889
C195	C	1.831980	0.364951	1.605223
H196	H	1.258718	-0.540351	0.229187
H197	H	1.592051	-0.207018	0.562521
H198	H	1.925384	0.126316	0.895854
F199	F	1.152095	-0.418275	0.869692
F200	F	1.485428	-0.084942	1.203025
F201	F	1.818762	0.248391	1.536358
H202	H	1.176928	-0.199324	0.861532
H203	H	1.510261	0.134009	1.194866
H204	H	1.843595	0.467342	1.528199
F205	F	1.271803	-0.219089	0.667923
F206	F	1.605136	0.114244	1.001256
F207	F	1.938470	0.447577	1.334589
H208	H	1.258918	-0.943990	0.229259
H209	H	1.592251	-0.610656	0.562592
H210	H	1.925585	-0.277323	0.895925
F211	F	1.271888	-1.070874	0.219282
F212	F	1.605222	-0.737541	0.552615
F213	F	1.938555	-0.404207	0.885949
H214	H	1.153472	-0.404191	0.742807
H215	H	1.486805	-0.070857	1.076140
H216	H	1.820138	0.262476	1.409474
H217	H	1.033406	-0.742289	0.310729
H218	H	1.366739	-0.408955	0.644063
H219	H	1.700073	-0.075622	0.977396
H220	H	1.033466	-0.860992	0.310743
H221	H	1.366799	-0.527659	0.644076
H222	H	1.700132	-0.194326	0.977409
H223	H	1.071587	-0.659119	0.374477
H224	H	1.404921	-0.325786	0.707811
H225	H	1.738254	0.007548	1.041144
F226	F	1.178528	-0.185253	0.734639
F227	F	1.511861	0.148080	1.067972
F228	F	1.845194	0.481414	1.401305
H229	H	1.071689	-0.374357	1.063313
H230	H	1.405022	-0.041023	1.396646
H231	H	1.738355	0.292310	1.729980
F232	F	1.315256	-0.868985	0.291782
F233	F	1.648589	-0.535651	0.625115
F234	F	1.981923	-0.202318	0.958449
F235	F	1.271829	-0.219007	0.936488
F236	F	1.605162	0.114327	1.269821
F237	F	1.938495	0.447660	1.603155
F238	F	1.315189	-0.733911	0.291761
F239	F	1.648523	-0.400578	0.625094
F240	F	1.981856	-0.067245	0.958427
H241	H	1.258919	-0.228974	1.063372
H242	H	1.592253	0.104359	1.396706
H243	H	1.925586	0.437693	1.730039
F244	F	1.058886	-1.070938	0.384564
F245	F	1.392220	-0.737605	0.717898
F246	F	1.725553	-0.404271	1.051231
F247	F	1.058782	-0.384514	0.667850
F248	F	1.392115	-0.051181	1.001184
F249	F	1.725449	0.282152	1.334517
H250	H	1.258917	-0.229163	0.541029
H251	H	1.592250	0.104170	0.874362
H252	H	1.925584	0.437503	1.207696
F253	F	1.058789	-0.384424	0.936416
F254	F	1.392123	-0.051091	1.269749
F255	F	1.725456	0.282243	1.603083
H256	H	1.071667	-0.374538	0.540962
H257	H	1.405001	-0.041204	0.874296
H258	H	1.738334	0.292129	1.207629
H259	H	1.258781	-0.659060	0.229213
H260	H	1.592114	-0.325727	0.562546
H261	H	1.925448	0.007607	0.895879
H262	H	1.071721	-0.944044	0.374528
H263	H	1.405055	-0.610710	0.707862
H264	H	1.738388	-0.277377	1.041195
F265	F	1.058628	-0.532227	0.384474
F266	F	1.391961	-0.198894	0.717807
F267	F	1.725294	0.134440	1.051140
