data_functionalizedCrystal
_audit_creation_method	'MofGen! by Chris Wilmer'
_symmetry_space_group_name_H-M	'P1'
_symmetry_Int_Tables_number	1
_symmetry_cell_setting	triclinic
loop_
_symmetry_equiv_pos_as_xyz
  x,y,z
_cell_length_a	12.759401
_cell_length_b	14.908520
_cell_length_c	12.759393
_cell_angle_alpha	93.263025
_cell_angle_beta	89.980789
_cell_angle_gamma	93.320968
loop_
_atom_site_label
_atom_site_type_symbol
_atom_site_fract_x
_atom_site_fract_y
_atom_site_fract_z
Zn1	Zn	1.582074	-0.359099	-0.618086
Zn2	Zn	1.571803	-0.509984	-0.452533
Zn3	Zn	1.406371	-0.359145	-0.442428
Zn4	Zn	1.396206	-0.509916	-0.628169
O5	O	1.489113	-0.434536	-0.535304
O6	O	1.727732	-0.379123	-0.596134
O7	O	1.549814	-0.490022	-0.304174
O8	O	1.438231	-0.232895	-0.457281
O9	O	1.720186	-0.489977	-0.474503
O10	O	1.567319	-0.232861	-0.586336
O11	O	1.428272	-0.379202	-0.296750
O12	O	1.258002	-0.379137	-0.467058
O13	O	1.420906	-0.489862	-0.773850
O14	O	1.250534	-0.489908	-0.603521
O15	O	1.557462	-0.379057	-0.766441
O16	O	1.539957	-0.636219	-0.484280
O17	O	1.410947	-0.636170	-0.613319
C18	C	1.216147	-0.434521	-0.535288
C19	C	1.099369	-0.434536	-0.535308
C20	C	1.048430	-0.376918	-0.598752
C21	C	0.938706	-0.376927	-0.598759
C22	C	0.930869	-0.492180	-0.471876
C23	C	1.040592	-0.492165	-0.471864
C24	C	1.473263	-0.668928	-0.551013
C25	C	1.466578	-0.769202	-0.557769
C26	C	1.588494	-0.957618	-0.436203
C27	C	1.582217	-1.051834	-0.442547
C28	C	1.447752	-1.051853	-0.576806
C29	C	1.454030	-0.957636	-0.570462
C30	C	1.524402	-0.910522	-0.500157
C31	C	1.530673	-0.816304	-0.493808
C32	C	1.396215	-0.816324	-0.628072
C33	C	1.389938	-0.910541	-0.634416
C34	C	1.763146	-0.434552	-0.535321
C35	C	1.879922	-0.434559	-0.535328
C36	C	1.489196	-0.434447	-0.809331
C37	C	1.489231	-0.434409	-0.926106
C38	C	1.505054	-0.199229	-0.519556
C39	C	1.511847	-0.098955	-0.512845
C40	C	1.560365	-0.376670	-1.086840
C41	C	1.560343	-0.376705	-0.977118
C42	C	1.418144	-0.492089	-0.984821
C43	C	1.418172	-0.492058	-1.094541
C44	C	1.489096	-0.434560	-0.262338
C45	C	1.489282	-0.434343	-0.145548
H46	H	1.096284	-0.329989	-0.650408
N47	N	1.637015	-0.314503	-0.913797
H48	H	1.682064	-0.277940	-0.962762
H49	H	1.597068	-0.272766	-0.865474
H50	H	1.344023	-0.777968	-0.680144
N51	N	1.637056	-0.314422	-1.141857
H52	H	1.682083	-0.277892	-1.088012
H53	H	1.683201	-0.351131	-1.189844
N54	N	0.867460	-0.554338	-0.403465
H55	H	0.882212	-0.618810	-0.423976
H56	H	0.887495	-0.540172	-0.327501
H57	H	1.360248	-0.539077	-0.943278
H58	H	1.082067	-0.539085	-0.420195
N59	N	1.606569	-0.765484	-0.417983
H60	H	1.646221	-0.809620	-0.378435
H61	H	1.657770	-0.726330	-0.458161
N62	N	1.341505	-0.554271	-1.157871
H63	H	1.296448	-0.590833	-1.108912
H64	H	1.295386	-0.517533	-1.200937
H65	H	1.645787	-0.919257	-0.378951
H66	H	0.897236	-0.330008	-0.650420
N67	N	1.651347	-1.102632	-0.373573
H68	H	1.696877	-1.058486	-0.328075
H69	H	1.606002	-1.141786	-0.327548
H70	H	1.332646	-0.948914	-0.691659
N71	N	1.371863	-1.102676	-0.652635
H72	H	1.377617	-1.169507	-0.646948
H73	H	1.297929	-1.086281	-0.635107
