data_functionalizedCrystal
_audit_creation_method	'MofGen! by Chris Wilmer'
_symmetry_space_group_name_H-M	'P1'
_symmetry_Int_Tables_number	1
_symmetry_cell_setting	triclinic
loop_
_symmetry_equiv_pos_as_xyz
  x,y,z
_cell_length_a	10.686685
_cell_length_b	10.685901
_cell_length_c	10.686551
_cell_angle_alpha	90.348291
_cell_angle_beta	90.361117
_cell_angle_gamma	80.963890
loop_
_atom_site_label
_atom_site_type_symbol
_atom_site_fract_x
_atom_site_fract_y
_atom_site_fract_z
Zn1	Zn	-0.610640	2.022398	0.604928
Zn2	Zn	-0.836712	2.024746	0.411112
Zn3	Zn	-0.608268	1.796329	0.411136
Zn4	Zn	-0.804437	1.828531	0.634665
O5	O	-0.715014	1.918001	0.515460
O6	O	-0.655129	2.199437	0.566762
O7	O	-0.818923	1.981952	0.236456
O8	O	-0.431873	1.811858	0.424408
O9	O	-0.821223	2.201162	0.424367
O10	O	-0.433615	1.977950	0.566786
O11	O	-0.651085	1.814135	0.236473
O12	O	-0.619790	1.623873	0.453243
O13	O	-0.766215	1.866741	0.805380
O14	O	-0.763915	1.647532	0.617468
O15	O	-0.623833	2.009175	0.783532
O16	O	-1.009140	2.013177	0.453202
O17	O	-0.985428	1.869018	0.617445
C18	C	-0.688094	1.589879	0.538586
C19	C	-0.676605	1.449512	0.548511
C20	C	-1.043104	1.944883	0.538572
C21	C	-1.183469	1.956502	0.548493
C22	C	-0.385644	1.891050	0.492283
C23	C	-0.245286	1.879565	0.482406
C24	C	-0.691689	1.941288	0.841009
C25	C	-0.681749	1.951212	0.979739
C26	C	-0.742041	2.247404	0.492245
C27	C	-0.753558	2.387776	0.482352
C28	C	-0.738164	1.894869	0.191166
C29	C	-0.747768	1.885161	0.052395
H30	H	-0.601936	1.394976	0.612752
C31	C	-1.042284	1.786269	0.402396
C32	C	-1.171771	1.778635	0.395781
H33	H	-0.996901	1.723953	0.348924
H34	H	-1.028931	1.868055	0.376701
H35	H	-1.013201	1.771952	0.486049
H36	H	-1.200857	1.792961	0.312129
H37	H	-1.185132	1.696829	0.421468
H38	H	-0.811902	1.821020	1.008460
H39	H	-1.237928	2.031261	0.612653
H40	H	-0.828232	1.442307	0.418127
C41	C	-0.601746	2.031196	1.169594
C42	C	-0.595171	2.037797	1.039032
H43	H	-0.548288	2.084645	1.206202
H44	H	-0.686589	2.058136	1.195560
H45	H	-0.574800	1.946330	1.195567
H46	H	-0.622126	2.122662	1.013058
H47	H	-0.510310	2.010864	1.013056
