data_functionalizedCrystal
_audit_creation_method	'MofGen! by Chris Wilmer'
_symmetry_space_group_name_H-M	'P1'
_symmetry_Int_Tables_number	1
_symmetry_cell_setting	triclinic
loop_
_symmetry_equiv_pos_as_xyz
  x,y,z
_cell_length_a	27.731993
_cell_length_b	27.732064
_cell_length_c	12.996460
_cell_angle_alpha	89.997944
_cell_angle_beta	90.005946
_cell_angle_gamma	82.634907
loop_
_atom_site_label
_atom_site_type_symbol
_atom_site_fract_x
_atom_site_fract_y
_atom_site_fract_z
O1	O	0.640949	0.057392	-0.085282
O2	O	1.140949	0.557392	0.414718
O3	O	0.500152	0.066165	-0.085343
O4	O	1.000152	0.566165	0.414657
O5	O	0.574919	-0.008619	-0.085314
O6	O	1.074919	0.491381	0.414686
O7	O	0.566182	0.132175	-0.085310
O8	O	1.066182	0.632175	0.414690
O9	O	0.574911	-0.008623	0.085819
O10	O	1.074911	0.491377	0.585819
O11	O	0.500144	0.066161	0.085791
O12	O	1.000144	0.566161	0.585791
O13	O	0.640941	0.057388	0.085852
O14	O	1.140941	0.557388	0.585852
Cu15	Cu	0.570542	0.061774	0.101447
Cu16	Cu	1.070542	0.561774	0.601447
Cu17	Cu	0.570551	0.061779	-0.100938
Cu18	Cu	1.070551	0.561779	0.399062
O19	O	0.566174	0.132171	0.085824
O20	O	1.066174	0.632171	0.585824
C21	C	0.482141	0.065983	0.000216
C22	C	0.982141	0.565983	0.500216
C23	C	0.428484	0.065441	0.000192
C24	C	0.928484	0.565441	0.500192
C25	C	0.045328	0.061512	-0.093043
C26	C	0.545328	0.561512	0.406957
C27	C	0.246986	0.063579	-0.093071
C28	C	0.746986	0.563579	0.406929
O29	O	0.273062	0.063829	-0.172408
O30	O	0.773062	0.563829	0.327592
N31	N	0.272202	0.063836	0.000212
N32	N	0.772202	0.563836	0.500212
C33	C	0.247001	0.063572	0.093508
C34	C	0.747001	0.563572	0.593508
O35	O	0.273076	0.063832	0.172851
O36	O	0.773076	0.563832	0.672851
C37	C	0.045345	0.061501	0.093535
C38	C	0.545345	0.561501	0.593535
C39	C	0.020130	0.061250	0.000246
C40	C	0.520130	0.561250	0.500246
C41	C	0.020114	0.061260	-0.186325
C42	C	0.520114	0.561260	0.313675
C43	C	-0.030298	0.060746	-0.186317
C44	C	0.469702	0.560746	0.313683
C45	C	-0.055495	0.060484	-0.093027
C46	C	0.444505	0.560484	0.406973
C47	C	-0.030281	0.060736	0.000254
C48	C	0.469719	0.560736	0.500254
C49	C	0.020145	0.061234	0.186831
C50	C	0.520145	0.561234	0.686831
C51	C	-0.030272	0.060716	0.186829
C52	C	0.469728	0.560716	0.686829
C53	C	-0.055486	0.060464	0.093540
C54	C	0.444514	0.560464	0.593540
C55	C	-0.105891	0.059960	0.093551
C56	C	0.394109	0.559960	0.593551
N57	N	-0.131107	0.059703	0.000268
N58	N	0.368893	0.559703	0.500268
C59	C	-0.105909	0.059965	-0.093021
C60	C	0.394091	0.559965	0.406979
C61	C	0.352873	0.064660	0.093488
C62	C	0.852873	0.564660	0.593488
C63	C	0.403287	0.065178	0.093481
C64	C	0.903287	0.565178	0.593481
C65	C	0.403268	0.065185	-0.093099
C66	C	0.903268	0.565185	0.406901
C67	C	0.352853	0.064670	-0.093091
C68	C	0.852853	0.564670	0.406909
C69	C	0.327657	0.064404	0.000205
C70	C	0.827657	0.564404	0.500205
C71	C	-0.211777	0.058886	-0.092997
C72	C	0.288223	0.558886	0.407003
C73	C	-0.262194	0.058374	-0.092981
C74	C	0.237806	0.558374	0.407019
C75	C	-0.262171	0.058365	0.093598
C76	C	0.237829	0.558365	0.593598
C77	C	-0.211759	0.058880	0.093582
C78	C	0.288241	0.558880	0.593582
C79	C	-0.186563	0.059139	0.000276
C80	C	0.313437	0.559139	0.500276
O81	O	-0.131998	0.059704	0.172847
O82	O	0.368002	0.559704	0.672847
O83	O	-0.131992	0.059694	-0.172351
O84	O	0.368008	0.559694	0.327649
C85	C	0.095740	0.062026	-0.093051
C86	C	0.595740	0.562026	0.406949
C87	C	0.120954	0.062278	0.000230
C88	C	0.620954	0.562278	0.500230
C89	C	0.095756	0.062016	0.093520
C90	C	0.595756	0.562016	0.593520
C91	C	0.171368	0.062797	0.000224
C92	C	0.671368	0.562797	0.500224
C93	C	0.196565	0.063059	-0.093066
C94	C	0.696565	0.563059	0.406934
C95	C	0.171349	0.062802	-0.186348
C96	C	0.671349	0.562802	0.313652
C97	C	0.120937	0.062288	-0.186341
C98	C	0.620937	0.562288	0.313659
C99	C	0.120972	0.062273	0.186803
C100	C	0.620972	0.562273	0.686803
C101	C	0.171384	0.062787	0.186787
C102	C	0.671384	0.562787	0.686787
C103	C	0.196582	0.063049	0.093498
C104	C	0.696582	0.563049	0.593498
C105	C	0.574730	-0.026627	0.000249
C106	C	1.074730	0.473373	0.500249
C107	C	0.574174	-0.080282	0.000239
C108	C	1.074174	0.419718	0.500239
C109	C	0.526206	-0.457345	0.000214
C110	C	1.026206	0.042655	0.500214
C111	C	0.528252	-0.255685	0.000214
C112	C	1.028252	0.244315	0.500214
O113	O	0.491030	-0.224425	0.000157
O114	O	0.991030	0.275575	0.500157
N115	N	0.572588	-0.236566	0.000233
N116	N	1.072588	0.263434	0.500233
C117	C	0.616415	-0.267866	0.000246
C118	C	1.116415	0.232134	0.500246
O119	O	0.654172	-0.246977	0.000251
O120	O	1.154172	0.253023	0.500251
C121	C	0.614368	-0.469525	0.000239
C122	C	1.114368	0.030475	0.500239
C123	C	0.570030	-0.488641	0.000230
C124	C	1.070030	0.011359	0.500230
C125	C	0.481871	-0.476461	0.000204
C126	C	0.981871	0.023539	0.500204
C127	C	0.481360	-0.526873	0.000210
C128	C	0.981360	-0.026873	0.500210
C129	C	0.525184	-0.558169	0.000226
C130	C	1.025184	-0.058169	0.500226
C131	C	0.569518	-0.539053	0.000236
C132	C	1.069518	-0.039053	0.500236
C133	C	0.658194	-0.500824	0.000244
C134	C	1.158194	-0.000824	0.500244
C135	C	0.657679	-0.551241	0.000240
C136	C	1.157679	-0.051241	0.500240
C137	C	0.613340	-0.570357	0.000231
C138	C	1.113340	-0.070357	0.500231
C139	C	0.612831	-0.620761	0.000257
C140	C	1.112831	-0.120761	0.500257
N141	N	0.568496	-0.639879	0.000238
N142	N	1.068496	-0.139879	0.500238
C143	C	0.524672	-0.608584	0.000222
C144	C	1.024672	-0.108584	0.500222
C145	C	0.617486	-0.161992	0.000251
C146	C	1.117486	0.338008	0.500251
C147	C	0.617998	-0.111577	0.000255
C148	C	1.117998	0.388423	0.500255
C149	C	0.529835	-0.099400	0.000221
C150	C	1.029835	0.400600	0.500221
C151	C	0.529324	-0.149815	0.000225
C152	C	1.029324	0.350185	0.500225
C153	C	0.573151	-0.181111	0.000232
C154	C	1.073151	0.318889	0.500232
C155	C	0.523602	-0.714453	0.000235
C156	C	1.023602	-0.214453	0.500235
C157	C	0.523095	-0.764870	0.000245
C158	C	1.023095	-0.264870	0.500245
C159	C	0.611257	-0.777043	0.000273
C160	C	1.111257	-0.277043	0.500273
C161	C	0.611765	-0.726630	0.000269
C162	C	1.111765	-0.226630	0.500269
C163	C	0.567933	-0.695336	0.000246
C164	C	1.067933	-0.195336	0.500246
O165	O	0.650033	-0.652049	0.000303
O166	O	1.150033	-0.152049	0.500303
O167	O	0.486920	-0.629482	0.000194
O168	O	0.986920	-0.129482	0.500194
C169	C	0.526717	-0.406933	0.000209
C170	C	1.026717	0.093067	0.500209
C171	C	0.571052	-0.387817	0.000219
C172	C	1.071052	0.112183	0.500219
C173	C	0.614875	-0.419112	0.000234
C174	C	1.114875	0.080888	0.500234
C175	C	0.571564	-0.337402	0.000222
C176	C	1.071564	0.162598	0.500222
C177	C	0.527740	-0.306107	0.000206
C178	C	1.027740	0.193893	0.500206
C179	C	0.483404	-0.325225	0.000187
C180	C	0.983404	0.174775	0.500187
C181	C	0.482893	-0.375637	0.000193
C182	C	0.982893	0.124363	0.500193
C183	C	0.659211	-0.399994	0.000253
C184	C	1.159211	0.100006	0.500253
C185	C	0.659718	-0.349581	0.000249
C186	C	1.159718	0.150419	0.500249
C187	C	0.615895	-0.318285	0.000233
C188	C	1.115895	0.181715	0.500233
C189	C	0.658952	0.057570	0.000291
C190	C	1.158952	0.557570	0.500291
C191	C	0.712608	0.058112	0.000308
C192	C	1.212608	0.558112	0.500308
C193	C	0.566362	0.150180	0.000258
C194	C	1.066362	0.650180	0.500258
C195	C	0.566918	0.203834	0.000261
C196	C	1.066918	0.703834	0.500261
N197	N	0.570539	0.061770	0.243794
N198	N	1.070539	0.561770	0.743794
N199	N	0.570558	0.061779	-0.243285
N200	N	1.070558	0.561779	0.256715
C201	C	0.570550	0.061779	0.663609
C202	C	1.070550	0.561779	1.163609
C203	C	0.570546	0.061778	0.546804
C204	C	1.070546	0.561778	1.046804
C205	C	0.570545	0.061775	0.453705
C206	C	1.070545	0.561775	0.953705
C207	C	0.570540	0.061773	0.336893
C208	C	1.070540	0.561773	0.836893
H209	H	-0.282696	0.058154	0.169552
H210	H	0.217304	0.558154	0.669552
N211	N	0.704949	-0.584997	0.000261
N212	N	1.204949	-0.084997	0.500261
H213	H	0.706705	-0.606187	-0.063175
H214	H	1.206705	-0.106187	0.436825
H215	H	0.733085	-0.565202	0.000308
H216	H	1.233085	-0.065202	0.500308
N217	N	0.476331	-0.680699	0.000219
N218	N	0.976331	-0.180699	0.500219
H219	H	0.456969	-0.686811	-0.063222
H220	H	0.956969	-0.186811	0.436778
H221	H	0.457012	-0.686829	0.063699
H222	H	0.957012	-0.186829	0.563699
H223	H	0.445255	-0.542432	0.000194
H224	H	0.945255	-0.042432	0.500194
H225	H	0.446183	-0.450985	0.000188
H226	H	0.946183	0.049015	0.500188
H227	H	-0.191269	0.059098	-0.168976
H228	H	0.308731	0.559098	0.331024
H229	H	0.494152	-0.073910	0.000213
H230	H	0.994152	0.426090	0.500213
H231	H	0.493220	-0.165376	0.000222
H232	H	0.993220	0.334624	0.500222
N233	N	0.093799	0.061989	0.287427
N234	N	0.593799	0.561989	0.787427
H235	H	0.117471	0.061904	0.346511
H236	H	0.617471	0.561904	0.846511
H237	H	0.068960	0.091917	0.291798
H238	H	0.568960	0.591917	0.791798
H239	H	0.694299	-0.485269	0.000250
H240	H	1.194299	0.014731	0.500250
N241	N	0.325700	0.064373	0.194120
N242	N	0.825700	0.564373	0.694120
H243	H	0.349372	0.064290	0.253203
H244	H	0.849372	0.564290	0.753203
H245	H	0.300859	0.094300	0.198493
H246	H	0.800859	0.594300	0.698493
N247	N	0.093750	0.062011	-0.286964
N248	N	0.593750	0.562011	0.213036
H249	H	0.076979	0.031820	-0.291126
H250	H	0.576979	0.531820	0.208874
H251	H	0.068714	0.091792	-0.291071
H252	H	0.568714	0.591792	0.208929
H253	H	0.654103	-0.096018	0.000278
H254	H	1.154103	0.403982	0.500278
N255	N	0.198531	0.063087	-0.286970
N256	N	0.698531	0.563087	0.213030
H257	H	0.234293	0.063451	-0.272808
H258	H	0.734293	0.563451	0.227192
H259	H	0.193862	0.033020	-0.327707
H260	H	0.693862	0.533020	0.172293
H261	H	0.332327	0.064465	-0.169055
H262	H	0.832327	0.564465	0.330945
H263	H	-0.050822	0.060539	-0.262282
H264	H	0.449178	0.560539	0.237718
H265	H	0.446789	-0.391196	0.000187
H266	H	0.946789	0.108804	0.500187
N267	N	0.707546	-0.328970	0.000267
N268	N	1.207546	0.171030	0.500267
H269	H	0.726726	-0.340410	-0.063168
H270	H	1.226726	0.159590	0.436832
H271	H	0.701186	-0.292287	0.000299
H272	H	1.201186	0.207713	0.500299
N273	N	-0.057446	0.060426	0.287459
N274	N	0.442554	0.560426	0.787459
H275	H	-0.033775	0.060342	0.346545
H276	H	0.466225	0.560342	0.846545
H277	H	-0.082289	0.090351	0.291834
H278	H	0.417711	0.590351	0.791834
H279	H	0.647868	-0.711066	0.000291
H280	H	1.147868	-0.211066	0.500291
N281	N	0.706480	-0.433745	0.000274
N282	N	1.206480	0.066255	0.500274
H283	H	0.734641	-0.413979	0.000287
H284	H	1.234641	0.086021	0.500287
H285	H	0.708186	-0.454924	0.063722
H286	H	1.208186	0.045076	0.563722
N287	N	0.430474	0.065460	0.194104
N288	N	0.930474	0.565460	0.694104
H289	H	0.425847	0.035391	0.234885
H290	H	0.925847	0.535391	0.734885
H291	H	0.466224	0.065847	0.179874
H292	H	0.966224	0.565847	0.679874
N293	N	0.664759	-0.195743	0.000266
N294	N	1.164759	0.304257	0.500266
H295	H	0.692919	-0.175977	0.000284
H296	H	1.192919	0.324023	0.500284
H297	H	0.666466	-0.216926	0.063710
H298	H	1.166466	0.283074	0.563710
N299	N	-0.184560	0.059155	0.194197
N300	N	0.315440	0.559155	0.694197
H301	H	-0.167785	0.089344	0.198356
H302	H	0.332215	0.589344	0.698356
H303	H	-0.208203	0.058895	0.253236
H304	H	0.291797	0.558895	0.753236
N305	N	0.658522	-0.810802	0.000300
N306	N	1.158522	-0.310802	0.500300
H307	H	0.651467	-0.845639	0.000299
H308	H	1.151467	-0.345639	0.500299
H309	H	0.677863	-0.804652	-0.063137
H310	H	1.177863	-0.304652	0.436863
N311	N	0.198576	0.063064	0.287413
N312	N	0.698576	0.563064	0.787413
H313	H	0.174959	0.062820	0.346507
H314	H	0.674959	0.562820	0.846507
H315	H	0.223636	0.033300	0.291474
H316	H	0.723636	0.533300	0.791474
N317	N	0.436137	-0.291466	0.000189
N318	N	0.936137	0.208534	0.500189
H319	H	0.443193	-0.256629	0.000192
H320	H	0.943193	0.243371	0.500192
H321	H	0.416795	-0.297613	-0.063256
H322	H	0.916795	0.202387	0.436744
H323	H	-0.282721	0.058171	-0.168952
H324	H	0.217279	0.558171	0.331048
N325	N	0.430450	0.065468	-0.193720
N326	N	0.930450	0.565468	0.306280
H327	H	0.466212	0.065834	-0.179560
H328	H	0.966212	0.565834	0.320440
H329	H	0.425782	0.035399	-0.234453
H330	H	0.925782	0.535399	0.265547
N331	N	0.047332	0.061508	0.287451
N332	N	0.547332	0.561508	0.787451
H333	H	0.023713	0.061261	0.346540
H334	H	0.523713	0.561261	0.846540
H335	H	0.072393	0.031745	0.291514
H336	H	0.572393	0.531745	0.791514
H337	H	0.486988	-0.780431	0.000243
H338	H	0.986988	-0.280431	0.500243
H339	H	0.040625	0.061472	-0.262296
H340	H	0.540625	0.561472	0.237704
