data_functionalizedCrystal
_audit_creation_method	'MofGen! by Chris Wilmer'
_symmetry_space_group_name_H-M	'P1'
_symmetry_Int_Tables_number	1
_symmetry_cell_setting	triclinic
loop_
_symmetry_equiv_pos_as_xyz
  x,y,z
_cell_length_a	14.971486
_cell_length_b	16.109301
_cell_length_c	13.448316
_cell_angle_alpha	89.991973
_cell_angle_beta	89.998199
_cell_angle_gamma	83.537805
loop_
_atom_site_label
_atom_site_type_symbol
_atom_site_fract_x
_atom_site_fract_y
_atom_site_fract_z
O1	O	1.186791	0.108348	-0.082581
O2	O	0.926372	0.121323	-0.082608
O3	O	1.063736	-0.006187	-0.082584
O4	O	1.049428	0.235857	-0.082605
O5	O	1.063718	-0.006195	0.082800
O6	O	0.926355	0.121315	0.082776
O7	O	1.186774	0.108340	0.082803
Cu8	Cu	1.056563	0.114827	0.097890
Cu9	Cu	1.056583	0.114836	-0.097695
O10	O	1.049410	0.235850	0.082778
C11	C	0.893040	0.120739	0.000080
C12	C	0.793745	0.119000	0.000070
C13	C	1.063147	-0.037166	0.000109
C14	C	1.061410	-0.129464	0.000110
C15	C	0.736412	0.193908	0.000065
C16	C	0.643115	0.192269	0.000080
C17	C	0.607153	0.115721	0.000093
C18	C	0.664494	0.040807	0.000101
C19	C	0.757789	0.042447	0.000093
C20	C	0.470036	0.037395	0.000115
C21	C	0.376734	0.035755	0.000121
C22	C	0.355362	0.187217	0.000102
C23	C	0.448657	0.188857	0.000094
C24	C	0.505991	0.113942	0.000100
C25	C	1.138878	-0.351640	0.000102
C26	C	1.137239	-0.438362	0.000094
C27	C	0.974262	-0.418691	0.000081
C28	C	0.975902	-0.331970	0.000082
C29	C	1.058213	-0.298447	0.000098
C30	C	1.054933	-0.471890	0.000088
C31	C	1.053155	-0.565918	0.000079
C32	C	1.059992	-0.204413	0.000105
C33	C	1.220106	0.108924	0.000112
C34	C	1.319401	0.110663	0.000116
C35	C	1.049999	0.266829	0.000084
C36	C	1.051736	0.359127	0.000076
N37	N	1.056555	0.114820	0.235454
N38	N	1.056598	0.114837	-0.235260
C39	C	1.117398	0.058382	0.287506
C40	C	1.117404	0.058381	0.391609
C41	C	1.056570	0.114823	0.443659
C42	C	0.995720	0.171264	0.391601
C43	C	0.995711	0.171260	0.287499
C44	C	0.995745	0.171269	0.608581
C45	C	0.995755	0.171275	0.712689
C46	C	1.117438	0.058391	0.712690
C47	C	1.117429	0.058387	0.608589
C48	C	1.056580	0.114829	0.556538
H49	H	0.596437	0.253267	0.000074
H50	H	1.205901	-0.324348	0.000113
N51	N	0.775187	0.276476	0.000051
H52	H	0.813422	0.280531	0.061355
H53	H	0.813369	0.280489	-0.061302
H54	H	0.308675	0.248215	0.000101
H55	H	0.477934	0.251189	0.000074
N56	N	0.337943	-0.046805	0.000133
H57	H	0.388419	-0.094015	0.000143
H58	H	0.299698	-0.050780	0.061444
N59	N	0.885487	-0.454848	0.000068
H60	H	0.896686	-0.517857	0.000071
H61	H	0.850187	-0.435400	0.061376
H62	H	1.166947	0.012425	0.433989
H63	H	1.202924	-0.481669	0.000096
N64	N	0.531878	-0.043404	0.000129
H65	H	0.494941	-0.092146	0.000135
H66	H	0.571050	-0.046019	-0.061184
H67	H	0.910211	-0.288658	0.000075
N68	N	0.625700	-0.041752	0.000114
H69	H	0.646607	-0.074573	-0.061190
H70	H	0.646617	-0.074511	0.061466
N71	N	1.183072	-0.002486	0.768824
H72	H	1.173846	0.006077	0.842669
H73	H	1.172765	-0.061485	0.750639
H74	H	0.946216	0.217235	0.755063
N75	N	0.930112	0.232141	0.552436
H76	H	0.891577	0.267900	0.601204
H77	H	0.964338	0.268947	0.509230
N78	N	0.930110	0.232139	0.447745
H79	H	0.940387	0.291163	0.429610
H80	H	0.866660	0.222393	0.429623
H81	H	0.946165	0.217216	0.245120
N82	N	1.183018	-0.002491	0.231369
H83	H	1.221562	-0.038245	0.280145
H84	H	1.148788	-0.039302	0.188190
N85	N	0.819632	-0.038347	0.000107
H86	H	0.782695	-0.087089	0.000116
H87	H	0.858807	-0.040966	-0.061203
H88	H	1.166969	0.012432	0.566210
