data_functionalizedCrystal
_audit_creation_method	'MofGen! by Chris Wilmer'
_symmetry_space_group_name_H-M	'P1'
_symmetry_Int_Tables_number	1
_symmetry_cell_setting	triclinic
loop_
_symmetry_equiv_pos_as_xyz
  x,y,z
_cell_length_a	12.594516
_cell_length_b	19.077267
_cell_length_c	19.077174
_cell_angle_alpha	89.926135
_cell_angle_beta	92.277804
_cell_angle_gamma	92.283164
loop_
_atom_site_label
_atom_site_type_symbol
_atom_site_fract_x
_atom_site_fract_y
_atom_site_fract_z
Zn1	Zn	-0.511552	-1.090200	-0.354200
Zn2	Zn	-0.682119	-1.085418	-0.236708
Zn3	Zn	-0.497302	-0.967982	-0.241426
Zn4	Zn	-0.682630	-0.972680	-0.358893
O5	O	-0.593401	-1.029070	-0.297807
O6	O	-0.539928	-1.187895	-0.334676
O7	O	-0.651425	-1.065873	-0.139003
O8	O	-0.350250	-0.984230	-0.256396
O9	O	-0.665242	-1.184382	-0.248355
O10	O	-0.360719	-1.074023	-0.339251
O11	O	-0.515641	-0.979593	-0.142469
O12	O	-0.516137	-0.870276	-0.260946
O13	O	-0.666113	-0.992236	-0.456601
O14	O	-0.652296	-0.873727	-0.347249
O15	O	-0.540423	-1.078578	-0.453154
O16	O	-0.831130	-1.070427	-0.252905
O17	O	-0.831505	-0.987599	-0.342674
C18	C	-0.582726	-0.846505	-0.305119
C19	C	-0.578186	-0.768404	-0.308264
C20	C	-0.641183	-0.729877	-0.264732
C21	C	-0.636919	-0.656493	-0.267696
C22	C	-0.569651	-0.621637	-0.314189
C23	C	-0.506651	-0.660170	-0.357726
C24	C	-0.510922	-0.733552	-0.354765
C25	C	-0.549898	-0.402363	-0.327875
C26	C	-0.545629	-0.328975	-0.330832
C27	C	-0.675899	-0.325303	-0.240802
C28	C	-0.680159	-0.398688	-0.237842
C29	C	-0.617164	-0.437214	-0.281382
N30	N	-0.565287	-0.546627	-0.317219
N31	N	-0.621533	-0.512223	-0.278355
C32	C	-0.869939	-1.029024	-0.297802
C33	C	-0.988248	-1.029069	-0.297820
C34	C	-1.057741	-0.984013	-0.346613
C35	C	-1.123548	-0.964322	-0.283181
C36	C	-1.133244	-1.048824	-0.361260
C37	C	-1.052492	-1.009343	-0.234356
C38	C	-1.062187	-1.093877	-0.312478
C39	C	-1.127960	-1.074209	-0.249001
C40	C	-0.315785	-1.029136	-0.297826
C41	C	-0.197482	-1.029164	-0.297835
C42	C	-0.604914	-1.036464	-0.481086
C43	C	-0.609821	-1.039615	-0.559189
C44	C	-0.604103	-0.212347	-0.290456
C45	C	-0.608626	-0.290448	-0.287300
C46	C	-0.541432	-0.996177	-0.597686
C47	C	-0.546051	-0.999135	-0.671072
C48	C	-0.619054	-1.045536	-0.705960
C49	C	-0.687450	-1.088976	-0.667458
C50	C	-0.682836	-1.086014	-0.594073
C51	C	-0.640441	-1.059208	-0.925243
C52	C	-0.645048	-1.062168	-0.998633
C53	C	-0.503649	-0.972326	-1.002243
C54	C	-0.499037	-0.969371	-0.928856
C55	C	-0.567436	-1.012809	-0.890361
N56	N	-0.623775	-1.048562	-0.780972
N57	N	-0.562720	-1.009778	-0.815350
C58	C	-0.581857	-1.021745	-0.115238
C59	C	-0.576659	-1.018730	-0.037130
H60	H	-0.734934	-0.427062	-0.199982
H61	H	-0.439592	-0.931585	-0.900456
H62	H	-0.695956	-0.758251	-0.226869
Br63	Br	-0.722394	-0.604208	-0.208598
Br64	Br	-0.993866	-0.981456	-0.144921
Br65	Br	-0.410828	-0.913377	-1.054490
H66	H	-0.498604	-0.433722	-0.363329
Br67	Br	-1.016961	-1.185134	-0.333170
H68	H	-0.459623	-0.764920	-0.390213
Br69	Br	-1.192094	-1.076608	-0.450669
H70	H	-0.704497	-1.099957	-1.027036
H71	H	-0.696148	-1.094571	-0.893909
H72	H	-0.746897	-1.126753	-0.695870
H73	H	-0.481979	-0.958396	-0.569286
Br74	Br	-1.006325	-0.920389	-0.415296
Br75	Br	-0.454321	-0.281670	-0.393928
H76	H	-1.158603	-1.112350	-0.207699
Br77	Br	-0.453289	-0.940141	-0.723318
H78	H	-0.738518	-1.121392	-0.562730
Br79	Br	-0.761389	-0.273015	-0.181718
Br80	Br	-0.415369	-0.612866	-0.420832
H81	H	-1.150684	-0.909560	-0.270796
