data_functionalizedCrystal
_audit_creation_method	'MofGen! by Chris Wilmer'
_symmetry_space_group_name_H-M	'P1'
_symmetry_Int_Tables_number	1
_symmetry_cell_setting	triclinic
loop_
_symmetry_equiv_pos_as_xyz
  x,y,z
_cell_length_a	29.839134
_cell_length_b	29.839131
_cell_length_c	18.215398
_cell_angle_alpha	89.971652
_cell_angle_beta	89.968619
_cell_angle_gamma	90.034165
loop_
_atom_site_label
_atom_site_type_symbol
_atom_site_fract_x
_atom_site_fract_y
_atom_site_fract_z
Zn1	Zn	0.686751	-0.178956	-0.416335
Zn2	Zn	1.020084	0.154377	-0.083001
Zn3	Zn	1.353418	0.487711	0.250332
Zn4	Zn	0.686674	-0.254082	-0.293262
Zn5	Zn	1.020007	0.079251	0.040071
Zn6	Zn	1.353341	0.412585	0.373404
Zn7	Zn	0.611624	-0.178957	-0.293257
Zn8	Zn	0.944958	0.154376	0.040077
Zn9	Zn	1.278291	0.487709	0.373410
Zn10	Zn	0.611582	-0.254050	-0.416262
Zn11	Zn	0.944915	0.079283	-0.082928
Zn12	Zn	1.278248	0.412616	0.250405
O13	O	0.649158	-0.216511	-0.354779
O14	O	0.982491	0.116822	-0.021445
O15	O	1.315824	0.450155	0.311888
O16	O	0.749608	-0.188934	-0.400042
O17	O	1.082941	0.144399	-0.066709
O18	O	1.416275	0.477732	0.266625
O19	O	0.676704	-0.244130	-0.190277
O20	O	1.010037	0.089203	0.143056
O21	O	1.343371	0.422536	0.476390
O22	O	0.621640	-0.116090	-0.309611
O23	O	0.954974	0.217243	0.023722
O24	O	1.288307	0.550577	0.357055
O25	O	0.749551	-0.244129	-0.309621
O26	O	1.082885	0.089204	0.023712
O27	O	1.416218	0.422538	0.357046
O28	O	0.676836	-0.116089	-0.400037
O29	O	1.010169	0.217244	-0.066703
O30	O	1.343502	0.550578	0.266630
O31	O	0.621566	-0.188937	-0.190273
O32	O	0.954899	0.144397	0.143060
O33	O	1.288232	0.477730	0.476394
O34	O	0.548752	-0.188906	-0.309540
O35	O	0.882085	0.144428	0.023793
O36	O	1.215418	0.477761	0.357126
O37	O	0.621567	-0.244075	-0.519256
O38	O	0.954901	0.089258	-0.185922
O39	O	1.288234	0.422592	0.147411
O40	O	0.548720	-0.244076	-0.399912
O41	O	0.882053	0.089257	-0.066578
O42	O	1.215387	0.422590	0.266755
O43	O	0.676794	-0.188904	-0.519309
O44	O	1.010127	0.144430	-0.185976
O45	O	1.343461	0.477763	0.147357
O46	O	0.676662	-0.316945	-0.309550
O47	O	1.009996	0.016388	0.023783
O48	O	1.343329	0.349722	0.357117
O49	O	0.621492	-0.316922	-0.399917
O50	O	0.954826	0.016412	-0.066584
O51	O	1.288159	0.349745	0.266750
C52	C	0.532435	-0.216488	-0.354718
C53	C	0.865768	0.116845	-0.021385
C54	C	1.199102	0.450179	0.311949
C55	C	0.482501	-0.216489	-0.354709
C56	C	0.815834	0.116844	-0.021376
C57	C	1.149167	0.450178	0.311957
C58	C	0.125918	-0.187742	-0.307819
C59	C	0.459251	0.145592	0.025515
C60	C	0.792584	0.478925	0.358848
C61	C	0.313591	-0.187729	-0.307774
C62	C	0.646924	0.145604	0.025559
C63	C	0.980257	0.478938	0.358893
O64	O	0.337858	-0.163249	-0.267837
O65	O	0.671192	0.170084	0.065496
O66	O	1.004525	0.503418	0.398829
N67	N	0.337056	-0.216496	-0.354746
N68	N	0.670389	0.116837	-0.021413
N69	N	1.003722	0.450171	0.311920
C70	C	0.313599	-0.245266	-0.401737
C71	C	0.646933	0.088067	-0.068403
C72	C	0.980266	0.421400	0.264930
O73	O	0.337864	-0.269731	-0.441694
O74	O	0.671197	0.063602	-0.108361
O75	O	1.004531	0.396936	0.224973
C76	C	0.125927	-0.245277	-0.401785
C77	C	0.459261	0.088057	-0.068451
C78	C	0.792594	0.421390	0.264882
C79	C	0.102465	-0.216511	-0.354804
C80	C	0.435798	0.116823	-0.021470
C81	C	0.769131	0.450156	0.311863
C82	C	0.102455	-0.158978	-0.260842
C83	C	0.435788	0.174355	0.072491
C84	C	0.769122	0.507689	0.405824
C85	C	0.055539	-0.158983	-0.260851
C86	C	0.388873	0.174350	0.072482
C87	C	0.722206	0.507684	0.405816
C88	C	0.032087	-0.187752	-0.307836
C89	C	0.365420	0.145581	0.025497
C90	C	0.698753	0.478915	0.358830
C91	C	0.055549	-0.216516	-0.354813
C92	C	0.388883	0.116817	-0.021479
C93	C	0.722216	0.450151	0.311854
C94	C	0.102472	-0.274044	-0.448778
C95	C	0.435805	0.059289	-0.115445
C96	C	0.769139	0.392622	0.217889
C97	C	0.055551	-0.274043	-0.448787
C98	C	0.388884	0.059290	-0.115454
C99	C	0.722218	0.392623	0.217879
C100	C	0.032088	-0.245278	-0.401806
C101	C	0.365422	0.088056	-0.068473
C102	C	0.698755	0.421389	0.264860
C103	C	-0.014819	-0.245290	-0.401807
C104	C	0.318514	0.088043	-0.068473
C105	C	0.651848	0.421377	0.264860
N106	N	-0.038284	-0.216523	-0.354834
N107	N	0.295049	0.116810	-0.021501
N108	N	0.628383	0.450144	0.311833
C109	C	-0.014831	-0.187754	-0.307849
C110	C	0.318502	0.145579	0.025484
C111	C	0.651835	0.478913	0.358818
C112	C	0.412130	-0.245260	-0.401707
C113	C	0.745463	0.088074	-0.068374
C114	C	1.078797	0.421407	0.264959
C115	C	0.459048	-0.245258	-0.401694
C116	C	0.792381	0.088075	-0.068361
C117	C	1.125715	0.421409	0.264972
C118	C	0.459036	-0.187720	-0.307732
C119	C	0.792369	0.145614	0.025601
C120	C	1.125702	0.478947	0.358934
C121	C	0.412117	-0.187724	-0.307742
C122	C	0.745450	0.145609	0.025591
C123	C	1.078784	0.478942	0.358925
C124	C	0.388665	-0.216493	-0.354735
C125	C	0.721998	0.116841	-0.021401
C126	C	1.055332	0.450174	0.311932
C127	C	-0.113357	-0.187767	-0.307871
C128	C	0.219976	0.145566	0.025463
C129	C	0.553310	0.478899	0.358796
C130	C	-0.160277	-0.187776	-0.307881
C131	C	0.173057	0.145557	0.025452
C132	C	0.506390	0.478890	0.358785
C133	C	-0.160260	-0.245313	-0.401846
C134	C	0.173073	0.088021	-0.068512
C135	C	0.506406	0.421354	0.264821
C136	C	-0.113345	-0.245305	-0.401833
C137	C	0.219988	0.088028	-0.068499
C138	C	0.553322	0.421361	0.264834
C139	C	-0.089894	-0.216529	-0.354842
C140	C	0.243439	0.116804	-0.021509
C141	C	0.576772	0.450138	0.311824
O142	O	-0.039116	-0.269754	-0.441728
O143	O	0.294217	0.063580	-0.108395
O144	O	0.627551	0.396913	0.224939
O145	O	-0.039104	-0.163286	-0.267909
O146	O	0.294229	0.170047	0.065424
O147	O	0.627563	0.503381	0.398757
C148	C	0.172833	-0.187737	-0.307810
C149	C	0.506166	0.145597	0.025524
C150	C	0.839500	0.478930	0.358857
C151	C	0.196296	-0.216500	-0.354786
C152	C	0.529629	0.116833	-0.021453
C153	C	0.862962	0.450166	0.311881
C154	C	0.172843	-0.245269	-0.401771
C155	C	0.506176	0.088064	-0.068438
C156	C	0.839509	0.421397	0.264895
C157	C	0.243213	-0.216498	-0.354773
C158	C	0.576547	0.116835	-0.021440
C159	C	0.909880	0.450168	0.311893
C160	C	0.266666	-0.187729	-0.307788
C161	C	0.600000	0.145604	0.025545
C162	C	0.933333	0.478937	0.358878
C163	C	0.243201	-0.158962	-0.260816
C164	C	0.576535	0.174371	0.072518
C165	C	0.909868	0.507704	0.405851
C166	C	0.196286	-0.158968	-0.260825
C167	C	0.529619	0.174366	0.072509
C168	C	0.862952	0.507699	0.405842
C169	C	0.196308	-0.274036	-0.448744
C170	C	0.529641	0.059297	-0.115410
C171	C	0.862974	0.392630	0.217923
C172	C	0.243223	-0.274029	-0.448731
C173	C	0.576557	0.059304	-0.115397
C174	C	0.909890	0.392637	0.217936
C175	C	0.266676	-0.245260	-0.401745
C176	C	0.600009	0.088073	-0.068412
C177	C	0.933343	0.421406	0.264921
C178	C	0.649077	-0.333234	-0.354742
C179	C	0.982410	0.000099	-0.021409
C180	C	1.315743	0.333433	0.311924
C181	C	0.649083	-0.383168	-0.354751
C182	C	0.982416	-0.049835	-0.021418
C183	C	1.315750	0.283498	0.311915
C184	C	0.677937	-0.692811	-0.307793
C185	C	1.011270	-0.359478	0.025540
C186	C	1.344604	-0.026145	0.358873
C187	C	0.677992	-0.880484	-0.307822
C188	C	1.011326	-0.547151	0.025511
C189	C	1.344659	-0.213818	0.358845
O190	O	0.702461	-0.904749	-0.267869
O191	O	1.035794	-0.571415	0.065465
O192	O	1.369127	-0.238082	0.398798
N193	N	0.649251	-0.903953	-0.354834
N194	N	0.982584	-0.570620	-0.021501
N195	N	1.315918	-0.237287	0.311832
C196	C	0.620495	-0.880501	-0.401846
C197	C	0.953829	-0.547168	-0.068513
C198	C	1.287162	-0.213835	0.264820
O199	O	0.596054	-0.904770	-0.441839
O200	O	0.929387	-0.571436	-0.108506
O201	O	1.262720	-0.238103	0.224828
C202	C	0.620443	-0.692829	-0.401821
C203	C	0.953776	-0.359496	-0.068487
C204	C	1.287109	-0.026163	0.264846
C205	C	0.649183	-0.669363	-0.354800
C206	C	0.982516	-0.336029	-0.021467
C207	C	1.315850	-0.002696	0.311867
C208	C	0.706675	-0.669345	-0.260777
C209	C	1.040009	-0.336011	0.072556
C210	C	1.373342	-0.002678	0.405889
C211	C	0.706659	-0.622429	-0.260768
C212	C	1.039993	-0.289096	0.072566
C213	C	1.373326	0.044238	0.405899
C214	C	0.677905	-0.598980	-0.307774
C215	C	1.011239	-0.265647	0.025559
C216	C	1.344572	0.067686	0.358892
C217	C	0.649167	-0.622447	-0.354791
C218	C	0.982500	-0.289114	-0.021457
C219	C	1.315834	0.044220	0.311876
C220	C	0.591690	-0.669378	-0.448836
C221	C	0.925023	-0.336045	-0.115503
C222	C	1.258356	-0.002711	0.217831
C223	C	0.591680	-0.622457	-0.448827
C224	C	0.925013	-0.289124	-0.115493
C225	C	1.258347	0.044210	0.217840
C226	C	0.620420	-0.598990	-0.401806
C227	C	0.953754	-0.265657	-0.068473
C228	C	1.287087	0.067676	0.264861
C229	C	0.620397	-0.552083	-0.401788
C230	C	0.953730	-0.218750	-0.068455
C231	C	1.287064	0.114584	0.264879
N232	N	0.649139	-0.528614	-0.354776
N233	N	0.982472	-0.195280	-0.021442
N234	N	1.315805	0.138053	0.311891
C235	C	0.677893	-0.552063	-0.307769
C236	C	1.011226	-0.218729	0.025564
C237	C	1.344559	0.114604	0.358898
C238	C	0.620525	-0.979032	-0.401855
C239	C	0.953858	-0.645699	-0.068522
C240	C	1.287191	-0.312365	0.264811
C241	C	0.620537	-1.025950	-0.401861
C242	C	0.953871	-0.692617	-0.068527
C243	C	1.287204	-0.359283	0.264806
C244	C	0.678035	-1.025930	-0.307837
C245	C	1.011368	-0.692596	0.025496
C246	C	1.344702	-0.359263	0.358829
C247	C	0.678020	-0.979011	-0.307829
C248	C	1.011353	-0.645678	0.025505
C249	C	1.344686	-0.312344	0.358838
C250	C	0.649266	-0.955563	-0.354843
C251	C	0.982600	-0.622230	-0.021510
C252	C	1.315933	-0.288896	0.311824
C253	C	0.677857	-0.453537	-0.307752
C254	C	1.011190	-0.120203	0.025581
C255	C	1.344524	0.213130	0.358915
C256	C	0.677837	-0.406617	-0.307745
C257	C	1.011170	-0.073284	0.025589
C258	C	1.344504	0.260050	0.358922
C259	C	0.620341	-0.406642	-0.401770
C260	C	0.953675	-0.073308	-0.068437
C261	C	1.287008	0.260025	0.264896
C262	C	0.620359	-0.453557	-0.401775
C263	C	0.953693	-0.120224	-0.068442
C264	C	1.287026	0.213110	0.264891
C265	C	0.649121	-0.477004	-0.354764
C266	C	0.982454	-0.143670	-0.021430
C267	C	1.315787	0.189663	0.311903
O268	O	0.595945	-0.527790	-0.441726
O269	O	0.929278	-0.194456	-0.108393
O270	O	1.262612	0.138877	0.224941
O271	O	0.702338	-0.527786	-0.267794
O272	O	1.035671	-0.194453	0.065540
O273	O	1.369005	0.138880	0.398873
C274	C	0.677953	-0.739727	-0.307803
C275	C	1.011286	-0.406393	0.025530
C276	C	1.344620	-0.073060	0.358864
C277	C	0.649215	-0.763193	-0.354819
C278	C	0.982548	-0.429860	-0.021486
C279	C	1.315881	-0.096527	0.311848
C280	C	0.620460	-0.739745	-0.401826
C281	C	0.953794	-0.406411	-0.068493
C282	C	1.287127	-0.073078	0.264841
C283	C	0.649227	-0.810111	-0.354825
C284	C	0.982561	-0.476778	-0.021491
C285	C	1.315894	-0.143445	0.311842
C286	C	0.677981	-0.833560	-0.307818
C287	C	1.011315	-0.500227	0.025515
C288	C	1.344648	-0.166893	0.358849
C289	C	0.706723	-0.810091	-0.260806
C290	C	1.040056	-0.476758	0.072528
C291	C	1.373390	-0.143424	0.405861
C292	C	0.706707	-0.763175	-0.260796
C293	C	1.040040	-0.429842	0.072537
C294	C	1.373374	-0.096509	0.405870
C295	C	0.591719	-0.763214	-0.448838
C296	C	0.925052	-0.429880	-0.115505
C297	C	1.258386	-0.096547	0.217828
C298	C	0.591737	-0.810129	-0.448843
C299	C	0.925070	-0.476796	-0.115510
C300	C	1.258403	-0.143463	0.217823
C301	C	0.620491	-0.833578	-0.401837
C302	C	0.953824	-0.500245	-0.068503
C303	C	1.287158	-0.166911	0.264830
C304	C	0.766336	-0.216535	-0.354840
C305	C	1.099669	0.116798	-0.021507
C306	C	1.433003	0.450131	0.311826
C307	C	0.816270	-0.216545	-0.354867
C308	C	1.149604	0.116788	-0.021533
C309	C	1.482937	0.450121	0.311800
C310	C	0.649184	-0.216486	-0.546732
C311	C	0.982518	0.116848	-0.213398
C312	C	1.315851	0.450181	0.119935
C313	C	0.649196	-0.216475	-0.628531
C314	C	0.982529	0.116859	-0.295197
C315	C	1.315862	0.450192	0.038136
C316	C	0.649251	-0.099333	-0.354832
C317	C	0.982585	0.234000	-0.021498
C318	C	1.315918	0.567334	0.311835
C319	C	0.649291	-0.049399	-0.354854
C320	C	0.982625	0.283935	-0.021521
C321	C	1.315958	0.617268	0.311813
C322	C	0.677927	-0.245159	-0.893595
C323	C	1.011260	0.088175	-0.560262
C324	C	1.344593	0.421508	-0.226928
C325	C	0.677920	-0.245174	-0.816736
C326	C	1.011253	0.088159	-0.483403
C327	C	1.344587	0.421493	-0.150070
C328	C	0.620499	-0.187704	-0.816715
C329	C	0.953832	0.145629	-0.483382
C330	C	1.287165	0.478963	-0.150049
C331	C	0.620503	-0.187691	-0.893573
C332	C	0.953837	0.145642	-0.560239
C333	C	1.287170	0.478976	-0.226906
C334	C	0.649220	-0.216418	-0.932010
C335	C	0.982553	0.116916	-0.598677
C336	C	1.315887	0.450249	-0.265344
C337	C	0.649208	-0.216446	-0.778294
C338	C	0.982542	0.116887	-0.444961
C339	C	1.315875	0.450220	-0.111628
C340	C	0.649201	-0.216463	-0.694961
C341	C	0.982534	0.116870	-0.361627
C342	C	1.315867	0.450204	-0.028294
C343	C	0.649227	-0.216402	-1.015350
C344	C	0.982561	0.116932	-0.682016
C345	C	1.315894	0.450265	-0.348683
C346	C	0.649157	-0.216505	-0.163573
C347	C	0.982490	0.116829	0.169761
C348	C	1.315824	0.450162	0.503094
C349	C	0.649233	-0.216389	-0.081774
C350	C	0.982566	0.116944	0.251559
C351	C	1.315899	0.450278	0.584893
H352	H	0.036459	-0.297469	-0.487058
H353	H	0.369792	0.035864	-0.153724
H354	H	0.703125	0.369198	0.179609
H355	H	0.568284	-0.688477	-0.487122
H356	H	0.901618	-0.355143	-0.153788
H357	H	1.234951	-0.021810	0.179545
F358	F	0.030575	-0.128363	-0.210853
F359	F	0.363908	0.204971	0.122480
F360	F	0.697241	0.538304	0.455813
H361	H	0.597119	-0.164315	-0.785410
H362	H	0.930452	0.169018	-0.452076
H363	H	1.263786	0.502351	-0.118743
F364	F	-0.185245	-0.157159	-0.257875
F365	F	0.148089	0.176174	0.075458
F366	F	0.481422	0.509508	0.408792
H367	H	0.568329	-0.829232	-0.487132
H368	H	0.901662	-0.495899	-0.153799
H369	H	1.234996	-0.162565	0.179534
F370	F	0.737298	-0.738206	-0.210752
F371	F	1.070631	-0.404873	0.122581
F372	F	1.403965	-0.071540	0.455915
F373	F	0.561076	-0.597505	-0.498869
F374	F	0.894410	-0.264171	-0.165535
F375	F	1.227743	0.069162	0.167798
H376	H	0.568304	-0.744126	-0.487118
H377	H	0.901638	-0.410792	-0.153784
H378	H	1.234971	-0.077459	0.179549
H379	H	0.597125	-0.164286	-0.924851
H380	H	0.930458	0.169047	-0.591518
H381	H	1.263791	0.502381	-0.258185
H382	H	-0.094269	-0.164333	-0.269610
H383	H	0.239064	0.169001	0.063723
H384	H	0.572397	0.502334	0.397056
H385	H	0.701309	-0.268550	-0.924889
H386	H	1.034643	0.064783	-0.591556
H387	H	1.367976	0.398117	-0.258222
F388	F	-0.185229	-0.275934	-0.451840
F389	F	0.148104	0.057399	-0.118507
F390	F	0.481438	0.390733	0.214827
H391	H	0.596958	-0.472665	-0.440066
H392	H	0.930291	-0.139331	-0.106732
H393	H	1.263625	0.194002	0.226601
F394	F	0.127433	-0.304661	-0.498783
F395	F	0.460766	0.028672	-0.165450
F396	F	0.794099	0.362006	0.167884
H397	H	0.701296	-0.268578	-0.785462
H398	H	1.034629	0.064755	-0.452128
H399	H	1.367962	0.398089	-0.118795
H400	H	0.121545	-0.135548	-0.222581
H401	H	0.454879	0.197785	0.110752
H402	H	0.788212	0.531119	0.444085
F403	F	0.589742	-0.381677	-0.451798
F404	F	0.923075	-0.048344	-0.118464
F405	F	1.256409	0.284989	0.214869
H406	H	0.597109	-0.959944	-0.440141
H407	H	0.930442	-0.626611	-0.106808
H408	H	1.263776	-0.293277	0.226526
F409	F	0.387151	-0.157108	-0.257740
F410	F	0.720484	0.176226	0.075593
F411	F	1.053817	0.509559	0.408927
F412	F	0.737324	-0.835055	-0.210776
F413	F	1.070657	-0.501722	0.122558
F414	F	1.403991	-0.168388	0.455891
H415	H	0.478147	-0.268687	-0.439943
H416	H	0.811480	0.064647	-0.106610
H417	H	1.144814	0.397980	0.226724
F418	F	0.484004	-0.157102	-0.257726
F419	F	0.817337	0.176232	0.075607
F420	F	1.150671	0.509565	0.408940
F421	F	0.171354	-0.304658	-0.498754
F422	F	0.504687	0.028675	-0.165421
F423	F	0.838020	0.362008	0.167912
H424	H	0.393040	-0.268688	-0.439976
H425	H	0.726373	0.064645	-0.106643
H426	H	1.059706	0.397978	0.226691
H427	H	-0.094241	-0.268732	-0.440082
H428	H	0.239093	0.064601	-0.106749
H429	H	0.572426	0.397934	0.226584
H430	H	0.177187	-0.135543	-0.222569
H431	H	0.510520	0.197790	0.110765
H432	H	0.843853	0.531124	0.444098
H433	H	0.262322	-0.297458	-0.486987
H434	H	0.595656	0.035875	-0.153653
H435	H	0.928989	0.369209	0.179680
F436	F	0.268170	-0.128346	-0.210808
F437	F	0.601503	0.204988	0.122525
F438	F	0.934836	0.538321	0.455858
F439	F	0.708427	-0.381645	-0.257696
F440	F	1.041761	-0.048311	0.075637
F441	F	1.375094	0.285022	0.408970
H442	H	0.730063	-0.603325	-0.222482
H443	H	1.063397	-0.269992	0.110852
H444	H	1.396730	0.063341	0.444185
F445	F	0.708468	-0.478484	-0.257717
F446	F	1.041801	-0.145150	0.075617
F447	F	1.375135	0.188183	0.408950
F448	F	0.737283	-0.694293	-0.210743
F449	F	1.070616	-0.360960	0.122590
F450	F	1.403949	-0.027627	0.455924
H451	H	0.701423	-0.959907	-0.269541
H452	H	1.034756	-0.626574	0.063792
H453	H	1.368089	-0.293240	0.397126
H454	H	0.701448	-1.045029	-0.269563
H455	H	1.034781	-0.711696	0.063771
H456	H	1.368114	-0.378363	0.397104
H457	H	0.597130	-1.045052	-0.440143
H458	H	0.930463	-0.711719	-0.106809
H459	H	1.263796	-0.378386	0.226524
