data_functionalizedCrystal
_audit_creation_method	'MofGen! by Chris Wilmer'
_symmetry_space_group_name_H-M	'P1'
_symmetry_Int_Tables_number	1
_symmetry_cell_setting	triclinic
loop_
_symmetry_equiv_pos_as_xyz
  x,y,z
_cell_length_a	13.033291
_cell_length_b	13.034570
_cell_length_c	11.169409
_cell_angle_alpha	82.847055
_cell_angle_beta	97.211342
_cell_angle_gamma	90.908316
loop_
_atom_site_label
_atom_site_type_symbol
_atom_site_fract_x
_atom_site_fract_y
_atom_site_fract_z
Zn1	Zn	1.624450	-0.209778	0.946605
Zn2	Zn	1.646176	-0.381772	0.774211
Zn3	Zn	1.452450	-0.231659	0.723995
Zn4	Zn	1.474259	-0.403494	0.952900
O5	O	1.549334	-0.306676	0.849428
O6	O	1.771262	-0.214345	0.942118
O7	O	1.620443	-0.361926	0.599605
O8	O	1.457046	-0.084863	0.729875
O9	O	1.787224	-0.340709	0.815461
O10	O	1.583413	-0.068787	0.893426
O11	O	1.478113	-0.251639	0.562711
O12	O	1.311412	-0.272702	0.735978
O13	O	1.494217	-0.377731	1.120010
O14	O	1.327436	-0.398948	0.904154
O15	O	1.604561	-0.235408	1.115386
O16	O	1.641591	-0.528547	0.821564
O17	O	1.515284	-0.544507	0.952846
C18	C	1.282105	-0.340557	0.815301
C19	C	1.167786	-0.355077	0.800733
C20	C	0.990781	-0.314121	0.841987
C21	C	1.108935	-0.299117	0.857043
C22	C	1.583190	-0.573833	0.893367
C23	C	1.597768	-0.688112	0.912216
C24	C	1.556864	-0.865202	0.859122
C25	C	1.541797	-0.747088	0.839647
C26	C	1.817606	-0.272663	0.883689
C27	C	1.931928	-0.258169	0.898289
C28	C	1.549398	-0.306552	1.162462
C29	C	1.549426	-0.306499	1.295858
C30	C	1.515373	-0.038472	0.805347
C31	C	1.500901	0.075821	0.786562
C32	C	1.549319	-0.306718	0.537607
C33	C	1.549454	-0.306456	0.404189
H34	H	0.953693	-0.373127	0.782634
C35	C	1.117695	-0.434806	0.720551
N36	N	1.079966	-0.494858	0.660161
C37	C	1.461994	-0.697181	0.736237
N38	N	1.401886	-0.659588	0.658353
C39	C	1.421103	-0.874267	0.683159
N40	N	1.360995	-0.836675	0.605274
H41	H	1.615935	-0.902151	0.935657
C42	C	0.982026	-0.178444	0.978466
N43	N	1.019758	-0.118394	1.038858
C44	C	1.159029	-0.219388	0.937224
N45	N	1.196761	-0.159338	0.997616
C46	C	1.677570	-0.738018	1.015627
N47	N	1.737675	-0.775608	1.093517
