data_functionalizedCrystal
_audit_creation_method	'MofGen! by Chris Wilmer'
_symmetry_space_group_name_H-M	'P1'
_symmetry_Int_Tables_number	1
_symmetry_cell_setting	triclinic
loop_
_symmetry_equiv_pos_as_xyz
  x,y,z
_cell_length_a	27.440280
_cell_length_b	27.440280
_cell_length_c	20.875625
_cell_angle_alpha	121.691957
_cell_angle_beta	92.968143
_cell_angle_gamma	59.999099
loop_
_atom_site_label
_atom_site_type_symbol
_atom_site_fract_x
_atom_site_fract_y
_atom_site_fract_z
Zr1	Zr	0.472804	0.533423	0.084211
O2	O	0.399023	0.635110	0.186666
O3	O	0.495423	0.431742	0.052788
O4	O	0.500700	0.533419	0.186628
O5	O	0.389582	0.533435	-0.052731
O6	O	0.580902	0.533409	0.186615
O7	O	0.393746	0.533433	0.052827
O8	O	0.571464	0.351529	-0.052800
O9	O	0.399020	0.715316	0.186683
O10	O	0.564922	0.473556	0.039395
O11	O	0.501960	0.473565	-0.039372
O12	O	0.508172	0.593276	0.118207
O13	O	0.445210	0.593284	0.039440
Zr14	Zr	0.594075	0.533411	-0.084163
Zr15	Zr	0.600717	0.533408	0.084190
Zr16	Zr	0.466162	0.533426	-0.084142
Zr17	Zr	0.472800	0.661343	0.084238
Zr18	Zr	0.594079	0.405492	-0.084190
O19	O	0.571455	0.635092	-0.052740
O20	O	0.580899	0.635088	0.186636
O21	O	0.389579	0.635114	-0.052710
O22	O	0.667856	0.431725	-0.186618
O23	O	0.677300	0.431721	0.052758
O24	O	0.485979	0.431747	-0.186588
O25	O	0.677297	0.533400	0.052780
O26	O	0.566179	0.533416	-0.186579
O27	O	0.485976	0.533425	-0.186566
O28	O	0.673132	0.533402	-0.052778
O29	O	0.500695	0.715304	0.186666
O30	O	0.566184	0.351531	-0.186618
O31	O	0.667858	0.351519	-0.186634
O32	O	0.673138	0.351517	-0.052816
O33	O	0.393741	0.715318	0.052865
O34	O	0.495415	0.715306	0.052848
O35	O	0.558706	0.473559	-0.118158
O36	O	0.621668	0.473551	-0.039392
O37	O	0.564919	0.593270	0.039420
O38	O	0.501957	0.593278	-0.039347
C39	C	0.533444	0.373410	-0.000009
C40	C	0.533446	0.319105	-0.000021
C41	C	0.373439	0.533436	0.000051
C42	C	0.319137	0.533443	0.000059
C43	C	0.491548	0.026611	0.058216
C44	C	0.491548	-0.024407	0.058224
O45	O	0.455934	-0.013211	0.107713
N46	N	0.533438	-0.094115	0.000055
C47	C	0.575335	-0.112806	-0.058122
O48	O	0.610967	-0.176783	-0.107598
C49	C	0.575337	-0.061789	-0.058126
C50	C	0.533441	0.007919	0.000043
C51	C	0.449655	0.096315	0.116381
C52	C	0.449655	0.147329	0.116371
C53	C	0.491547	0.128637	0.058198
C54	C	0.533440	0.058932	0.000033
C55	C	0.617236	-0.080481	-0.116299
C56	C	0.617235	-0.029457	-0.116298
C57	C	0.575338	0.040251	-0.058129
C58	C	0.575332	0.091254	-0.058150
N59	N	0.533442	0.160962	0.000020
C60	C	0.491549	0.179654	0.058193
C61	C	0.575328	-0.219941	-0.058108
C62	C	0.575324	-0.270957	-0.058107
C63	C	0.491537	-0.182554	0.058240
C64	C	0.491539	-0.131537	0.058236
C65	C	0.533438	-0.150233	0.000062
C66	C	0.491551	0.286782	0.058169
C67	C	0.491553	0.337796	0.058153
C68	C	0.575341	0.249389	-0.058192
C69	C	0.575338	0.198379	-0.058178
C70	C	0.533440	0.217081	0.000009
O71	O	0.610929	0.080110	-0.107612
O72	O	0.455929	0.243631	0.107667
C73	C	0.012059	0.470914	-0.041136
C74	C	-0.038959	0.470910	-0.041143
O75	O	-0.040155	0.417763	-0.076154
N76	N	-0.094099	0.533402	-0.000004
C77	C	-0.098219	0.595901	0.041139
O78	O	-0.149804	0.649055	0.076130
C79	C	-0.047201	0.595904	0.041141
C80	C	0.007938	0.533408	0.000005
C81	C	0.067196	0.408423	-0.082270
C82	C	0.118211	0.408427	-0.082261
C83	C	0.114090	0.470922	-0.041120
C84	C	0.058953	0.533412	0.000013
C85	C	-0.051322	0.658403	0.082279
C86	C	-0.000298	0.658400	0.082277
C87	C	0.054841	0.595905	0.041141
C88	C	0.105847	0.595911	0.041163
N89	N	0.160986	0.533420	0.000024
C90	C	0.165108	0.470925	-0.041118
C91	C	-0.205358	0.595890	0.041131
C92	C	-0.256375	0.595887	0.041134
C93	C	-0.197112	0.470896	-0.041150
C94	C	-0.146094	0.470899	-0.041148
C95	C	-0.150218	0.533398	-0.000009
C96	C	0.272241	0.470938	-0.041097
C97	C	0.323258	0.470948	-0.041082
C98	C	0.263991	0.595939	0.041198
C99	C	0.212978	0.595930	0.041187
C100	C	0.217107	0.533424	0.000034
O101	O	0.107088	0.649031	0.076154
O102	O	0.216694	0.417780	-0.076112
C103	C	0.693439	0.533399	-0.000002
C104	C	0.747742	0.533392	-0.000011
C105	C	0.541747	0.533414	0.210608
C106	C	0.544567	0.533412	0.282078
C107	C	0.533435	0.693425	0.000058
C108	C	0.533433	0.747730	0.000069
C109	C	0.565177	0.533415	0.684385
C110	C	0.562526	0.533418	0.617233
C111	C	0.517017	0.533420	0.583661
C112	C	0.474154	0.533425	0.617249
C113	C	0.476803	0.533427	0.684403
C114	C	0.504353	0.533419	0.382821
C115	C	0.501708	0.533416	0.315660
C116	C	0.590080	0.533410	0.315650
C117	C	0.592727	0.533408	0.382803
C118	C	0.549862	0.533417	0.416387
N119	N	0.514307	0.533421	0.515019
N120	N	0.552570	0.533420	0.485031
C121	C	0.525133	0.533420	0.789440
C122	C	0.522318	0.533418	0.717967
C123	C	0.693444	0.373391	-0.000036
C124	C	0.747748	0.319080	-0.000056
C125	C	0.525136	0.373414	-0.210593
C126	C	0.522318	0.319110	-0.282075
C127	C	0.685136	0.373395	-0.210620
C128	C	0.736621	0.319085	-0.282110
C129	C	0.381743	0.693440	0.210668
C130	C	0.330258	0.747750	0.282158
C131	C	0.373435	0.693444	0.000084
C132	C	0.319130	0.747755	0.000105
C133	C	0.541743	0.693421	0.210641
C134	C	0.544561	0.747725	0.282123
C135	C	0.743630	0.293577	0.041067
C136	C	0.794650	0.242553	0.041064
C137	C	0.849788	0.217028	-0.000068
C138	C	0.853906	0.242536	-0.041193
C139	C	0.802886	0.293563	-0.041184
C140	C	0.550615	0.293605	-0.356776
C141	C	0.547965	0.242588	-0.423947
C142	C	0.517020	0.217073	-0.416415
C143	C	0.488720	0.242583	-0.341706
C144	C	0.491367	0.293602	-0.274536
C145	C	0.793669	0.293576	-0.274567
C146	C	0.842049	0.242552	-0.341734
C147	C	0.833380	0.217036	-0.416442
C148	C	0.776325	0.242550	-0.423984
C149	C	0.727946	0.293576	-0.356818
C150	C	0.273210	0.773265	0.274616
C151	C	0.224829	0.824304	0.341782
C152	C	0.233499	0.849824	0.416491
C153	C	0.290553	0.824306	0.424032
C154	C	0.338932	0.773272	0.356866
C155	C	0.323249	0.773263	-0.041012
C156	C	0.272230	0.824301	-0.040990
C157	C	0.217092	0.849828	0.000144
C158	C	0.212974	0.824318	0.041266
C159	C	0.263993	0.773284	0.041248
C160	C	0.575510	0.773224	0.274566
C161	C	0.578170	0.824241	0.341724
C162	C	0.549875	0.849763	0.416438
C163	C	0.518925	0.824259	0.423994
C164	C	0.516270	0.773239	0.356837
H165	H	0.457432	0.394558	0.105520
H166	H	-0.301267	0.646778	0.074641
H167	H	0.872778	0.175487	-0.471127
Cl168	Cl	0.396983	0.234958	0.189504
H169	H	0.175553	0.891383	0.000152
H170	H	0.602237	0.533409	0.711713
Cl171	Cl	0.277420	0.856357	-0.092693
H172	H	0.468325	0.314361	-0.213714
Cl173	Cl	0.656230	0.325634	-0.366314
H174	H	0.609435	-0.327714	-0.105481
H175	H	0.651354	-0.137234	-0.163666
H176	H	0.571013	0.221824	-0.484772
Cl177	Cl	0.789460	0.210494	0.092763
H178	H	0.297605	0.845091	0.484868
Cl179	Cl	0.422919	0.533434	0.726623
H180	H	-0.003663	0.709296	0.115768
H181	H	0.168074	0.845109	0.074756
H182	H	0.769275	0.221767	-0.484820
H183	H	0.260631	0.752517	0.074727
Cl184	Cl	0.483352	0.856356	0.517927
Cl185	Cl	0.143660	0.674496	0.092917
H186	H	0.514869	0.175530	-0.471115
H187	H	0.491065	0.752483	0.363001
H188	H	0.463525	0.221801	-0.335585
Cl189	Cl	0.611086	0.741150	0.180647
H190	H	0.385383	0.752498	0.363017
H191	H	0.800739	0.314344	-0.213742
H192	H	0.194100	0.891379	0.471175
Cl193	Cl	0.153110	0.856370	0.332284
Cl194	Cl	0.617077	0.856297	0.332207
H195	H	0.260645	0.646820	0.074697
H196	H	0.888502	0.221784	-0.335580
Cl197	Cl	0.072391	0.329848	-0.134000
H198	H	0.266139	0.752490	0.213790
Cl199	Cl	0.392560	0.741187	-0.092725
H200	H	0.437097	0.533431	0.589913
H201	H	0.891327	0.175478	-0.000069
H202	H	0.163104	0.357537	-0.115755
H203	H	0.552042	0.891307	0.471116
Cl204	Cl	0.628005	0.110744	-0.131310
Cl205	Cl	0.438879	0.310302	0.131319
H206	H	0.415541	0.111547	0.163757
H207	H	0.457420	-0.074780	0.105598
H208	H	0.457428	-0.167342	0.105611
Cl209	Cl	0.589522	0.325669	-0.366266
H210	H	0.651355	-0.044688	-0.163671
Cl211	Cl	0.628001	-0.243455	-0.131254
Cl212	Cl	0.628002	0.225903	-0.131322
H213	H	0.629784	0.533406	0.410136
Cl214	Cl	0.923227	0.210437	-0.092902
H215	H	0.368154	0.420054	-0.074582
H216	H	0.275612	0.420040	-0.074608
H217	H	-0.101201	0.420010	-0.074651
Cl218	Cl	-0.191940	0.392331	-0.092873
H219	H	0.698738	0.314359	0.074571
Cl220	Cl	0.616406	0.533415	0.575015
H221	H	-0.208724	0.646787	0.074635
H222	H	0.464647	0.533416	0.288328
Cl223	Cl	0.643962	0.533403	0.273429
Cl224	Cl	-0.120630	0.736974	0.133988
H225	H	0.469452	0.533425	0.410159
H226	H	0.806248	0.314320	-0.074676
