data_functionalizedCrystal
_audit_creation_method	'MofGen! by Chris Wilmer'
_symmetry_space_group_name_H-M	'P1'
_symmetry_Int_Tables_number	1
_symmetry_cell_setting	triclinic
loop_
_symmetry_equiv_pos_as_xyz
  x,y,z
_cell_length_a	10.489741
_cell_length_b	23.532407
_cell_length_c	9.565339
_cell_angle_alpha	89.995586
_cell_angle_beta	89.999100
_cell_angle_gamma	83.693926
loop_
_atom_site_label
_atom_site_type_symbol
_atom_site_fract_x
_atom_site_fract_y
_atom_site_fract_z
O1	O	1.691382	0.080340	-0.116190
O2	O	1.319936	0.087882	-0.116213
O3	O	1.516860	0.001253	-0.116175
O4	O	1.494458	0.166968	-0.116228
O5	O	1.516844	0.001259	0.116345
O6	O	1.319920	0.087887	0.116307
O7	O	1.691366	0.080345	0.116330
Zn8	Zn	1.505641	0.084117	0.153236
Zn9	Zn	1.505661	0.084110	-0.153119
O10	O	1.494442	0.166974	0.116293
C11	C	1.272415	0.087315	0.000045
C12	C	1.130842	0.085611	0.000037
C13	C	1.064535	0.030491	0.000067
C14	C	0.971550	0.056527	-0.114582
C15	C	0.971568	0.056545	0.114664
C16	C	1.039722	0.111668	-0.114708
C17	C	1.039750	0.111679	0.114642
C18	C	0.946792	0.137754	-0.000036
C19	C	1.516282	-0.019964	0.000089
C20	C	1.514566	-0.083192	0.000099
C21	C	1.620344	-0.481594	0.000029
C22	C	1.618751	-0.541005	0.000019
O23	O	1.716808	-0.577100	-0.000027
N24	N	1.501680	-0.564407	0.000012
C25	C	1.386194	-0.528395	0.000002
O26	O	1.286470	-0.553755	-0.000005
C27	C	1.387789	-0.468985	0.000003
C28	C	1.504868	-0.445587	0.000024
C29	C	1.737414	-0.458195	0.000048
C30	C	1.739007	-0.398788	0.000062
C31	C	1.623530	-0.362781	0.000056
C32	C	1.506460	-0.386180	0.000037
C33	C	1.272305	-0.432974	-0.000017
C34	C	1.273909	-0.373561	-0.000017
C35	C	1.390988	-0.350162	0.000003
C36	C	1.392576	-0.290766	0.000045
N37	N	1.509648	-0.267364	0.000051
C38	C	1.625125	-0.303371	0.000057
C39	C	1.382854	-0.653160	-0.000002
C40	C	1.381258	-0.712568	0.000008
C41	C	1.613816	-0.725174	0.000021
C42	C	1.615410	-0.665765	0.000022
C43	C	1.499926	-0.629758	0.000005
C44	C	1.628461	-0.178612	0.000086
C45	C	1.630043	-0.119200	0.000105
C46	C	1.397486	-0.106599	0.000084
C47	C	1.395903	-0.166006	0.000072
C48	C	1.511401	-0.202012	0.000068
O49	O	1.294571	-0.254636	0.000084
O50	O	1.724833	-0.278003	0.000046
C51	C	1.738887	0.080912	0.000070
C52	C	1.880460	0.082616	0.000069
C53	C	1.495021	0.188191	0.000026
C54	C	1.496736	0.251419	0.000006
N55	N	1.505636	0.084122	0.362316
N56	N	1.505676	0.084101	-0.362198
C57	C	1.414538	0.124171	0.453501
C58	C	1.529652	0.135693	0.546683
C59	C	1.390572	0.072603	0.546689
C60	C	1.620808	0.095670	0.453446
C61	C	1.481652	0.032557	0.453444
C62	C	1.596850	0.044059	0.546584
H63	H	0.941317	0.033202	-0.211498
C64	C	1.260738	0.059581	0.601023
C65	C	1.179552	0.052005	0.487946
C66	C	1.059943	0.040005	0.537938
H67	H	1.224167	0.090495	0.657045
H68	H	1.271244	0.025658	0.655602
H69	H	1.169042	0.085924	0.433391
H70	H	1.216082	0.021089	0.431913
H71	H	1.070450	0.006081	0.592517
H72	H	1.023385	0.070921	0.593961
H73	H	1.004848	0.034857	0.461225
H74	H	1.834344	-0.379743	0.000072
H75	H	1.461303	-0.011026	0.412456
C76	C	1.757033	-0.093687	0.000189
C77	C	1.733725	-0.033951	0.000236
C78	C	1.850672	-0.010432	0.000329
H79	H	1.804647	-0.105947	-0.080874
H80	H	1.804555	-0.105988	0.081307
H81	H	1.686224	-0.021655	-0.080873
H82	H	1.686131	-0.021676	0.081293
H83	H	1.898194	-0.022733	0.081446
H84	H	1.898277	-0.022696	-0.080736
H85	H	1.834874	0.030101	0.000373
C86	C	1.753994	-0.217603	0.000160
C87	C	1.856846	-0.184385	0.000217
C88	C	1.972504	-0.220283	0.000314
H89	H	1.758408	-0.241050	-0.080905
H90	H	1.758274	-0.241036	0.081275
H91	H	1.852567	-0.160962	-0.080890
H92	H	1.852473	-0.160940	0.081276
H93	H	1.976784	-0.243716	0.081429
H94	H	1.976905	-0.243728	-0.080752
H95	H	2.042302	-0.197750	0.000366
H96	H	1.831454	-0.487507	0.000048
H97	H	1.069782	0.134970	-0.211745
C98	C	1.742656	-0.640473	-0.000044
C99	C	1.843435	-0.684730	-0.000072
C100	C	1.960676	-0.661457	-0.000157
H101	H	1.748299	-0.617568	0.081015
H102	H	1.748189	-0.617576	-0.081165
H103	H	1.837904	-0.707617	0.081042
H104	H	1.837835	-0.707638	-0.081125
H105	H	1.966210	-0.638560	-0.081278
H106	H	1.966306	-0.638552	0.080904
H107	H	2.029069	-0.691481	-0.000188
C108	C	1.254104	-0.737936	-0.000288
C109	C	1.184369	-0.719681	-0.119935
C110	C	1.067232	-0.743041	-0.120273
H111	H	1.206431	-0.725628	0.080700
H112	H	1.269625	-0.778478	-0.000370
H113	H	1.168843	-0.679147	-0.119840
H114	H	1.232002	-0.731989	-0.200942
H115	H	1.082753	-0.783584	-0.120355
H116	H	1.019571	-0.730732	-0.039280
H117	H	1.019907	-0.730663	-0.201458
H118	H	1.115731	-0.014820	-0.000062
H119	H	1.337568	0.158071	0.412632
H120	H	0.941359	0.033215	0.211592
H121	H	1.673989	0.010180	0.587197
C122	C	1.080084	0.142656	0.244037
C123	C	1.045998	0.113607	0.363770
C124	C	1.083154	0.142117	0.483005
H125	H	1.038180	0.180547	0.245049
H126	H	1.170329	0.143799	0.242700
H127	H	0.955770	0.112471	0.365107
H128	H	1.087898	0.075718	0.362805
H129	H	1.173398	0.143259	0.481668
H130	H	1.041247	0.180007	0.484002
H131	H	1.060042	0.122409	0.564257
H132	H	1.549965	0.179291	0.587638
H133	H	1.718153	0.105455	0.412660
H134	H	1.707843	-0.754503	0.000020
C135	C	1.257500	-0.614041	-0.000286
C136	C	1.251596	-0.579570	-0.119928
C137	C	1.136133	-0.543536	-0.120250
H138	H	1.253154	-0.590553	0.080705
H139	H	1.187520	-0.636471	-0.000364
H140	H	1.321557	-0.557141	-0.119838
H141	H	1.255920	-0.603043	-0.200939
H142	H	1.066153	-0.565967	-0.120328
H143	H	1.131798	-0.520052	-0.039253
H144	H	1.132107	-0.520147	-0.201431
H145	H	1.176967	-0.452014	-0.000042
H146	H	1.179865	-0.344246	-0.000033
H147	H	1.303468	-0.077271	0.000084
C148	C	1.268827	-0.191444	0.000350
C149	C	1.261086	-0.225182	0.119978
C150	C	1.144033	-0.248612	0.120277
H151	H	1.263247	-0.214389	-0.080651
H152	H	1.200247	-0.161503	0.000429
H153	H	1.329646	-0.255119	0.119886
H154	H	1.266643	-0.202250	0.200998
H155	H	1.075453	-0.218671	0.120356
H156	H	1.138464	-0.271555	0.039271
H157	H	1.138760	-0.271502	0.201449
H158	H	0.895860	0.183113	-0.000113
