data_functionalizedCrystal
_audit_creation_method	'MofGen! by Chris Wilmer'
_symmetry_space_group_name_H-M	'P1'
_symmetry_Int_Tables_number	1
_symmetry_cell_setting	triclinic
loop_
_symmetry_equiv_pos_as_xyz
  x,y,z
_cell_length_a	15.538191
_cell_length_b	19.288865
_cell_length_c	17.766277
_cell_angle_alpha	90.011603
_cell_angle_beta	89.989018
_cell_angle_gamma	114.795829
loop_
_atom_site_label
_atom_site_type_symbol
_atom_site_fract_x
_atom_site_fract_y
_atom_site_fract_z
O1	O	1.250877	0.225834	-0.062580
O2	O	0.976277	0.145548	-0.062588
O3	O	1.121512	0.288804	-0.062569
O4	O	1.105642	0.082579	-0.062599
O5	O	1.121486	0.288803	0.062620
O6	O	0.976252	0.145547	0.062601
O7	O	1.250851	0.225834	0.062609
Cu8	Cu	1.113549	0.185690	0.074035
Cu9	Cu	1.113579	0.185691	-0.074014
O10	O	1.105617	0.082578	0.062590
C11	C	0.941133	0.137147	0.000006
C12	C	0.836453	0.112126	0.000004
N13	N	1.113535	0.185691	0.178166
C14	C	1.120988	0.314552	0.000028
C15	C	1.119455	0.391273	0.000034
C16	C	0.549718	0.360705	0.000028
C17	C	0.451352	0.337176	0.000024
C18	C	0.428348	0.204832	0.000005
C19	C	0.526713	0.228350	0.000013
C20	C	0.587391	0.306287	0.000024
C21	C	0.564386	0.173932	0.000008
C22	C	0.662744	0.197448	0.000012
C23	C	0.723427	0.275382	0.000020
C24	C	0.685748	0.329803	0.000027
C25	C	0.503707	0.095996	-0.000008
C26	C	0.541380	0.041578	-0.000013
C27	C	0.639739	0.065094	-0.000004
C28	C	0.700423	0.143027	0.000005
C29	C	0.677418	0.010673	-0.000011
C30	C	0.775776	0.034189	-0.000007
C31	C	0.798780	0.166543	0.000008
C32	C	1.285995	0.234234	0.000013
C33	C	1.390675	0.259255	0.000011
C34	C	1.106140	0.056829	-0.000009
C35	C	1.107673	-0.019891	-0.000020
C36	C	1.204672	0.457257	0.000040
C37	C	1.203232	0.529344	0.000029
C38	C	1.116570	0.535443	0.000026
C39	C	1.031342	0.469446	0.000015
C40	C	1.032785	0.397361	0.000020
C41	C	1.048435	0.626711	0.043875
C42	C	1.046996	0.698796	0.043875
C43	C	1.112118	0.757776	0.000009
C44	C	1.178694	0.744668	-0.043848
C45	C	1.180137	0.672583	-0.043844
C46	C	1.114997	0.613604	0.000020
C47	C	1.195779	0.901928	0.000001
C48	C	1.194336	0.974015	-0.000016
C49	C	1.022443	0.914114	-0.000022
C50	C	1.023889	0.842029	-0.000013
C51	C	1.110560	0.835941	0.000002
N52	N	1.113601	0.185697	-0.178145
C53	C	1.177865	0.249107	0.217561
C54	C	1.177871	0.249112	0.296363
C55	C	1.113555	0.185691	0.335766
C56	C	1.049212	0.122268	0.296362
C57	C	1.049202	0.122269	0.217561
C58	C	1.100930	0.119249	0.460595
C59	C	1.100947	0.119250	0.539394
C60	C	1.113580	0.185689	0.578813
C61	C	1.126217	0.252135	0.539423
C62	C	1.126207	0.252135	0.460623
C63	C	1.113558	0.185684	0.421212
C64	C	1.177920	0.249114	0.703654
C65	C	1.177919	0.249118	0.782457
C66	C	1.049265	0.122270	0.782454
C67	C	1.049261	0.122271	0.703653
C68	C	1.113594	0.185694	0.664257
H69	H	0.848188	0.230008	0.000022
Cl70	Cl	0.916753	0.759073	-0.000017
H71	H	0.992782	0.709461	0.079581
Cl72	Cl	0.913495	0.921774	-0.000030
Cl73	Cl	0.823141	-0.034222	-0.000015
H74	H	1.136503	0.306236	0.571517
H75	H	1.230246	0.300751	0.185488
Cl76	Cl	0.968324	0.042539	0.168032
Cl77	Cl	0.968390	0.042542	0.654122
Cl78	Cl	0.403995	0.405596	0.000043
H79	H	0.995403	0.578692	0.079600
H80	H	1.230302	0.300762	0.814533
H81	H	1.275246	0.452307	0.000050
H82	H	0.491964	-0.021879	-0.000025
H83	H	1.090663	0.065147	0.571458
H84	H	0.960782	0.474415	0.000011
H85	H	1.230258	0.300754	0.328444
H86	H	0.423619	0.076851	-0.000014
H87	H	0.803516	0.294527	0.000013
Cl88	Cl	0.925646	0.314403	0.000013
H89	H	0.628000	-0.052784	-0.000027
H90	H	1.136493	0.306237	0.428555
H91	H	1.234344	0.661913	-0.079555
Cl92	Cl	1.310370	0.612309	0.000036
H93	H	1.090626	0.065139	0.428506
Cl94	Cl	0.968403	0.042544	0.831985
Cl95	Cl	0.762036	0.427783	0.000050
Cl96	Cl	1.260566	0.818807	-0.098999
Cl97	Cl	1.258790	0.328847	0.654127
H98	H	0.996844	0.070631	0.328448
H99	H	1.266352	0.896971	0.000009
Cl100	Cl	0.626006	0.458685	0.000051
H101	H	1.263733	1.027743	-0.000015
Cl102	Cl	0.352059	0.106858	-0.000013
