data_functionalizedCrystal
_audit_creation_method	'MofGen! by Chris Wilmer'
_symmetry_space_group_name_H-M	'P1'
_symmetry_Int_Tables_number	1
_symmetry_cell_setting	triclinic
loop_
_symmetry_equiv_pos_as_xyz
  x,y,z
_cell_length_a	13.339070
_cell_length_b	13.262508
_cell_length_c	7.681481
_cell_angle_alpha	100.048420
_cell_angle_beta	97.286298
_cell_angle_gamma	99.430496
loop_
_atom_site_label
_atom_site_type_symbol
_atom_site_fract_x
_atom_site_fract_y
_atom_site_fract_z
O1	O	1.351225	0.521765	0.103409
O2	O	1.054302	0.454199	0.071058
O3	O	1.205594	0.340801	0.016752
O4	O	1.199934	0.635163	0.157716
O5	O	1.224213	0.326800	0.302905
O6	O	1.072922	0.440197	0.357211
O7	O	1.369845	0.507764	0.389562
Zn8	Zn	1.224340	0.471758	0.418819
Zn9	Zn	1.199807	0.490205	0.041801
O10	O	1.218554	0.621162	0.443868
C11	C	1.025518	0.435785	0.208670
C12	C	0.912009	0.401764	0.192380
C13	C	1.212874	0.295356	0.141414
C14	C	1.206814	0.180800	0.086545
C15	C	1.230326	-0.172658	0.555823
C16	C	1.236012	-0.065028	0.607377
C17	C	1.228713	-0.003566	0.477173
C18	C	1.215727	-0.049743	0.295407
C19	C	1.210032	-0.157385	0.243848
C20	C	1.208419	0.011707	0.165198
C21	C	1.195433	-0.034471	-0.016568
C22	C	1.189740	-0.142102	-0.068119
C23	C	1.197039	-0.203564	0.062085
C24	C	1.214114	0.119348	0.216757
C25	C	1.193820	0.134621	-0.095218
C26	C	1.188134	0.026992	-0.146772
C27	C	0.556598	0.666289	0.319027
C28	C	0.663245	0.698257	0.334328
C29	C	0.725441	0.624136	0.298843
C30	C	0.680981	0.518043	0.248053
C31	C	0.574323	0.486073	0.232736
C32	C	0.743166	0.443920	0.212552
C33	C	0.698705	0.337827	0.161762
C34	C	0.592058	0.305863	0.146449
C35	C	0.529862	0.379983	0.181935
C36	C	0.849823	0.475890	0.227869
C37	C	0.867548	0.295674	0.141578
C38	C	0.760902	0.263707	0.126277
C39	C	1.398629	0.526178	0.251947
C40	C	1.512137	0.560199	0.268225
C41	C	1.211273	0.666607	0.319202
C42	C	1.217333	0.781163	0.374060
N43	N	1.241090	0.459170	0.676125
N44	N	1.183065	0.502787	-0.215508
H45	H	1.224678	0.156934	0.364752
H46	H	1.123832	0.547307	0.730616
Cl47	Cl	1.184623	0.211877	-0.258915
H48	H	0.699435	0.784638	0.375669
Cl49	Cl	1.332559	0.390444	0.759315
Cl50	Cl	0.704996	0.130337	0.062424
Cl51	Cl	1.235860	0.131742	0.541988
Cl52	Cl	1.252319	-0.006986	0.835870
H53	H	1.236260	-0.222710	0.661814
Cl54	Cl	0.859513	0.664326	0.318087
H55	H	1.192415	-0.291205	0.020119
H56	H	1.177560	-0.010622	-0.294769
Cl57	Cl	1.173399	-0.200154	-0.296626
Cl58	Cl	0.536164	0.172491	0.082540
H59	H	0.886012	0.562271	0.269229
H60	H	0.443021	0.353960	0.169479
Cl61	Cl	0.478404	0.759457	0.363603
Cl62	Cl	0.945729	0.202488	0.096951
