data_functionalizedCrystal
_audit_creation_method	'MofGen! by Chris Wilmer'
_symmetry_space_group_name_H-M	'P1'
_symmetry_Int_Tables_number	1
_symmetry_cell_setting	triclinic
loop_
_symmetry_equiv_pos_as_xyz
  x,y,z
_cell_length_a	19.288840
_cell_length_b	19.288865
_cell_length_c	18.366186
_cell_angle_alpha	90.011479
_cell_angle_beta	90.016271
_cell_angle_gamma	83.131131
loop_
_atom_site_label
_atom_site_type_symbol
_atom_site_fract_x
_atom_site_fract_y
_atom_site_fract_z
O1	O	-0.921364	-0.086566	-0.060680
O2	O	-0.588030	0.246768	0.272654
O3	O	-0.254697	0.580101	0.605987
O4	O	-0.719101	-0.098273	-0.060655
O5	O	-0.385767	0.235061	0.272678
O6	O	-0.052434	0.568394	0.606011
O7	O	-0.826077	0.008712	-0.060654
O8	O	-0.492743	0.342045	0.272680
O9	O	-0.159410	0.675378	0.606013
O10	O	-0.814388	-0.193550	-0.060681
O11	O	-0.481055	0.139783	0.272652
O12	O	-0.147721	0.473117	0.605985
O13	O	-0.826059	0.008717	0.060446
O14	O	-0.492725	0.342050	0.393779
O15	O	-0.159392	0.675383	0.727112
O16	O	-0.719083	-0.098268	0.060444
O17	O	-0.385749	0.235066	0.393777
O18	O	-0.052416	0.568399	0.727111
O19	O	-0.921346	-0.086561	0.060420
O20	O	-0.588012	0.246773	0.393753
O21	O	-0.254679	0.580106	0.727086
Zn22	Zn	-0.820211	-0.092413	0.079659
Zn23	Zn	-0.486878	0.240920	0.412992
Zn24	Zn	-0.153545	0.574253	0.746326
Zn25	Zn	-0.820235	-0.092420	-0.079895
Zn26	Zn	-0.486902	0.240913	0.253439
Zn27	Zn	-0.153568	0.574247	0.586772
O28	O	-0.814370	-0.193545	0.060418
O29	O	-0.481036	0.139788	0.393751
O30	O	-0.147703	0.473122	0.727085
C31	C	-0.693215	-0.097896	-0.000102
C32	C	-0.359882	0.235437	0.333231
C33	C	-0.026548	0.568770	0.666564
C34	C	-0.616110	-0.096774	-0.000093
C35	C	-0.282777	0.236559	0.333241
C36	C	0.050556	0.569892	0.666574
C37	C	-0.947232	-0.086937	-0.000135
C38	C	-0.613898	0.246396	0.333199
C39	C	-0.280565	0.579730	0.666532
C40	C	-1.024336	-0.088059	-0.000149
C41	C	-0.691003	0.245274	0.333184
C42	C	-0.357669	0.578608	0.666517
C43	C	-0.825692	0.034591	-0.000102
C44	C	-0.492358	0.367924	0.333231
C45	C	-0.159025	0.701257	0.666565
C46	C	-0.824563	0.111694	-0.000095
C47	C	-0.491229	0.445027	0.333238
C48	C	-0.157896	0.778361	0.666571
C49	C	-0.579917	-0.096238	-0.066106
C50	C	-0.246583	0.237095	0.267228
C51	C	0.086750	0.570429	0.600561
C52	C	-0.507470	-0.095176	-0.066114
C53	C	-0.174137	0.238157	0.267219
C54	C	0.159197	0.571491	0.600552
C55	C	-0.471221	-0.094636	-0.000106
C56	C	-0.137888	0.238697	0.333227
C57	C	0.195445	0.572030	0.666560
C58	C	-0.507423	-0.095176	0.065915
C59	C	-0.174090	0.238157	0.399249
C60	C	0.159244	0.571490	0.732582
C61	C	-0.579868	-0.096245	0.065922
C62	C	-0.246534	0.237088	0.399256
C63	C	0.086799	0.570421	0.732589
C64	C	-0.361886	-0.052256	0.050461
C65	C	-0.028553	0.281077	0.383794
C66	C	0.304781	0.614410	0.717127
C67	C	-0.289443	-0.051183	0.050451
C68	C	0.043890	0.282150	0.383784
C69	C	0.377223	0.615484	0.717118
C70	C	-0.247778	-0.091342	-0.000125
C71	C	0.085556	0.241991	0.333208
C72	C	0.418889	0.575325	0.666542
C73	C	-0.278565	-0.132566	-0.050703
C74	C	0.054769	0.200768	0.282630
C75	C	0.388102	0.534101	0.615963
C76	C	-0.351009	-0.133635	-0.050697
C77	C	-0.017676	0.199699	0.282637
C78	C	0.315657	0.533032	0.615970
C79	C	-0.392667	-0.093477	-0.000107
C80	C	-0.059334	0.239856	0.333227
C81	C	0.273999	0.573189	0.666560
C82	C	-0.133029	-0.089655	-0.066152
C83	C	0.200305	0.243678	0.267181
C84	C	0.533638	0.577011	0.600515
C85	C	-0.060580	-0.088598	-0.066158
C86	C	0.272754	0.244736	0.267175
C87	C	0.606087	0.578069	0.600509
C88	C	-0.060535	-0.088591	0.065874
C89	C	0.272798	0.244742	0.399207
C90	C	0.606131	0.578076	0.732540
C91	C	-0.132982	-0.089656	0.065878
C92	C	0.200351	0.243678	0.399211
C93	C	0.533685	0.577011	0.732544
C94	C	-0.169225	-0.090185	-0.000137
C95	C	0.164109	0.243149	0.333196
C96	C	0.497442	0.576482	0.666530
N97	N	-0.820200	-0.092408	0.188550
N98	N	-0.486867	0.240925	0.521883
N99	N	-0.153533	0.574259	0.855217
C100	C	-0.814755	-0.219424	-0.000135
C101	C	-0.481422	0.113909	0.333198
C102	C	-0.148088	0.447243	0.666531
C103	C	-0.815884	-0.296527	-0.000147
C104	C	-0.482551	0.036806	0.333187
C105	C	-0.149217	0.370139	0.666520
C106	C	-0.887331	0.156396	-0.000099
C107	C	-0.553998	0.489729	0.333234
C108	C	-0.220665	0.823063	0.666567
C109	C	-0.886270	0.228843	-0.000111
C110	C	-0.552937	0.562176	0.333223
C111	C	-0.219604	0.895510	0.666556
C112	C	-0.822438	0.256585	-0.000103
C113	C	-0.489104	0.589918	0.333230
C114	C	-0.155771	0.923251	0.666563
C115	C	-0.759661	0.211873	-0.000104
C116	C	-0.426327	0.545206	0.333230
C117	C	-0.092994	0.878540	0.666563
C118	C	-0.760723	0.139428	-0.000100
C119	C	-0.427390	0.472761	0.333234
C120	C	-0.094056	0.806094	0.666567
C121	C	-0.772251	0.364870	0.042321
C122	C	-0.438918	0.698203	0.375654
C123	C	-0.105584	1.031536	0.708988
C124	C	-0.771191	0.437314	0.042321
C125	C	-0.437858	0.770647	0.375655
C126	C	-0.104525	1.103981	0.708988
C127	C	-0.819158	0.480030	-0.000119
C128	C	-0.485825	0.813363	0.333214
C129	C	-0.152491	1.146697	0.666547
C130	C	-0.868196	0.450295	-0.042551
C131	C	-0.534863	0.783628	0.290782
C132	C	-0.201530	1.116961	0.624115
C133	C	-0.869259	0.377849	-0.042547
C134	C	-0.535925	0.711183	0.290786
C135	C	-0.202592	1.044516	0.624120
C136	C	-0.821278	0.335139	-0.000108
C137	C	-0.487945	0.668472	0.333225
C138	C	-0.154612	1.001805	0.666558
C139	C	-0.880781	0.603288	-0.000137
C140	C	-0.547447	0.936621	0.333197
C141	C	-0.214114	1.269955	0.666530
C142	C	-0.879717	0.675736	-0.000153
C143	C	-0.546384	1.009069	0.333181
C144	C	-0.213051	1.342403	0.666514
C145	C	-0.753106	0.658764	-0.000138
C146	C	-0.419772	0.992098	0.333195
C147	C	-0.086439	1.325431	0.666528
C148	C	-0.754171	0.586318	-0.000130
C149	C	-0.420838	0.919651	0.333204
C150	C	-0.087504	1.252985	0.666537
C151	C	-0.818010	0.558584	-0.000125
C152	C	-0.484677	0.891918	0.333208
C153	C	-0.151344	1.225251	0.666541
N154	N	-0.820252	-0.092420	-0.188786
N155	N	-0.486919	0.240914	0.144548
N156	N	-0.153585	0.574247	0.477881
C157	C	-0.867584	-0.045059	0.226651
C158	C	-0.534251	0.288275	0.559985
C159	C	-0.200918	0.621608	0.893318
C160	C	-0.867589	-0.045055	0.302879
C161	C	-0.534256	0.288278	0.636212
C162	C	-0.200922	0.621611	0.969546
C163	C	-0.820215	-0.092414	0.341003
C164	C	-0.486882	0.240920	0.674336
C165	C	-0.153549	0.574253	1.007670
C166	C	-0.772822	-0.139767	0.302893
C167	C	-0.439489	0.193566	0.636226
C168	C	-0.106156	0.526900	0.969559
C169	C	-0.772814	-0.139764	0.226666
C170	C	-0.439481	0.193569	0.560000
C171	C	-0.106148	0.526903	0.893333
C172	C	-0.810917	-0.155702	0.461755
C173	C	-0.477584	0.177631	0.795089
C174	C	-0.144251	0.510964	1.128422
C175	C	-0.810930	-0.155706	0.537980
C176	C	-0.477596	0.177627	0.871314
C177	C	-0.144263	0.510960	1.204647
C178	C	-0.820235	-0.092422	0.576110
C179	C	-0.486902	0.240911	0.909444
C180	C	-0.153569	0.574244	1.242777
C181	C	-0.829543	-0.029132	0.538006
C182	C	-0.496210	0.304201	0.871340
C183	C	-0.162876	0.637534	1.204673
C184	C	-0.829535	-0.029129	0.461780
C185	C	-0.496202	0.304204	0.795113
C186	C	-0.162869	0.637537	1.128447
C187	C	-0.820218	-0.092422	0.423658
C188	C	-0.486885	0.240911	0.756991
C189	C	-0.153552	0.574245	1.090324
C190	C	-0.867627	-0.045066	0.696866
C191	C	-0.534294	0.288268	1.030200
C192	C	-0.200960	0.621601	1.363533
C193	C	-0.867627	-0.045062	0.773096
C194	C	-0.534293	0.288272	1.106429
C195	C	-0.200960	0.621605	1.439762
C196	C	-0.772863	-0.139779	0.773108
C197	C	-0.439530	0.193554	1.106441
C198	C	-0.106197	0.526888	1.439774
C199	C	-0.772860	-0.139777	0.696880
C200	C	-0.439527	0.193556	1.030213
C201	C	-0.106194	0.526890	1.363547
C202	C	-0.820246	-0.092421	0.658764
C203	C	-0.486913	0.240912	0.992097
C204	C	-0.153579	0.574245	1.325431
H205	H	-0.609421	-0.096669	-0.119860
H206	H	-0.276088	0.236665	0.213473
H207	H	0.057246	0.569998	0.546806
H208	H	-0.734278	-0.178336	0.665856
H209	H	-0.400945	0.154997	0.999189
H210	H	-0.067612	0.488330	1.332523
Br211	Br	-0.931933	0.019205	0.645136
Br212	Br	-0.598599	0.352538	0.978469
Br213	Br	-0.265266	0.685871	1.311802
Br214	Br	-0.967417	0.565645	-0.000124
Br215	Br	-0.634084	0.898978	0.333210
Br216	Br	-0.300751	1.232312	0.666543
Br217	Br	-0.708524	-0.204035	0.354629
Br218	Br	-0.375191	0.129298	0.687962
Br219	Br	-0.041857	0.462632	1.021296
Br220	Br	-0.011457	-0.087879	-0.155756
Br221	Br	0.321877	0.245455	0.177578
Br222	Br	0.655210	0.578788	0.510911
H223	H	-0.837112	0.022404	0.430759
H224	H	-0.503779	0.355737	0.764092
H225	H	-0.170445	0.689070	1.097425
H226	H	-0.395805	-0.019552	0.091649
H227	H	-0.062472	0.313781	0.424982
H228	H	0.270862	0.647115	0.758316
H229	H	-0.930833	0.712132	-0.000160
H230	H	-0.597500	1.045466	0.333174
H231	H	-0.264167	1.378799	0.666507
Br232	Br	-0.392790	-0.189580	-0.119333
Br233	Br	-0.059457	0.143753	0.214000
Br234	Br	0.273876	0.477087	0.547334
H235	H	-0.031022	-0.088156	0.119619
H236	H	0.302311	0.245178	0.452952
H237	H	0.635645	0.578511	0.786285
H238	H	-0.906167	-0.006497	0.195619
H239	H	-0.572834	0.326836	0.528953
H240	H	-0.239500	0.660170	0.862286
Br241	Br	-0.973970	0.118760	-0.000114
Br242	Br	-0.640636	0.452094	0.333220
Br243	Br	-0.307303	0.785427	0.666553
H244	H	-0.609336	-0.096683	0.119680
H245	H	-0.276003	0.236651	0.453013
H246	H	0.057331	0.569984	0.786346
Br247	Br	-0.971462	0.289522	-0.000119
Br248	Br	-0.638129	0.622855	0.333214
Br249	Br	-0.304796	0.956189	0.666548
H250	H	-0.909186	0.353642	-0.077098
H251	H	-0.575853	0.686975	0.256235
H252	H	-0.242519	1.020308	0.589569
Br253	Br	-0.458230	-0.094452	0.155499
Br254	Br	-0.124896	0.238882	0.488832
Br255	Br	0.208437	0.572215	0.822165
Br256	Br	-0.933300	0.508258	-0.100153
Br257	Br	-0.599966	0.841591	0.233180
Br258	Br	-0.266633	1.174924	0.566514
H259	H	-0.837120	0.022400	0.569050
H260	H	-0.503787	0.355733	0.902383
H261	H	-0.170453	0.689066	1.235717
Br262	Br	-0.708563	-0.204044	0.824841
Br263	Br	-0.375229	0.129289	1.158174
Br264	Br	-0.041896	0.462622	1.491507
H265	H	-0.162538	-0.090093	-0.119905
H266	H	0.170795	0.243240	0.213428
H267	H	0.504129	0.576573	0.546761
H268	H	-0.244641	-0.165270	-0.091885
H269	H	0.088692	0.168063	0.241448
H270	H	0.422025	0.501397	0.574782
Br271	Br	-0.798306	-0.241599	0.589685
Br272	Br	-0.464973	0.091735	0.923019
Br273	Br	-0.131639	0.425068	1.256352
H274	H	-0.701132	0.681351	-0.000136
H275	H	-0.367798	1.014684	0.333197
H276	H	-0.034465	1.348017	0.666531
H277	H	-0.709608	0.103030	-0.000096
H278	H	-0.376274	0.436364	0.333237
H279	H	-0.042941	0.769697	0.666571
Br280	Br	-0.707148	0.306904	0.099925
Br281	Br	-0.373814	0.640238	0.433258
Br282	Br	-0.040481	0.973571	0.766592
H283	H	-0.731258	0.461518	0.076868
H284	H	-0.397925	0.794852	0.410201
H285	H	-0.064592	1.128185	0.743534
H286	H	-0.703058	0.549920	-0.000122
H287	H	-0.369724	0.883254	0.333211
H288	H	-0.036391	1.216587	0.666544
H289	H	-0.707687	0.234465	-0.000099
H290	H	-0.374354	0.567798	0.333234
H291	H	-0.041021	0.901132	0.666567
Br292	Br	-0.182106	-0.090382	0.155472
Br293	Br	0.151228	0.242952	0.488805
Br294	Br	0.484561	0.576285	0.822139
H295	H	-0.906176	-0.006496	0.333907
H296	H	-0.572843	0.326837	0.667240
H297	H	-0.239509	0.660170	1.000573
Br298	Br	-0.931933	0.019209	0.824809
Br299	Br	-0.598599	0.352543	1.158142
Br300	Br	-0.265266	0.685876	1.491475
H301	H	-0.803327	-0.207239	0.430716
H302	H	-0.469994	0.126094	0.764049
H303	H	-0.136661	0.459428	1.097383
H304	H	-0.734228	-0.178322	0.195644
H305	H	-0.400894	0.155011	0.528977
H306	H	-0.067561	0.488344	0.862310
H307	H	-0.477995	-0.094741	-0.119872
H308	H	-0.144662	0.238593	0.213461
H309	H	0.188672	0.571926	0.546795
Br310	Br	-0.247666	0.004745	0.119106
Br311	Br	0.085668	0.338079	0.452440
Br312	Br	0.419001	0.671412	0.785773
