data_functionalizedCrystal
_audit_creation_method	'MofGen! by Chris Wilmer'
_symmetry_space_group_name_H-M	'P1'
_symmetry_Int_Tables_number	1
_symmetry_cell_setting	triclinic
loop_
_symmetry_equiv_pos_as_xyz
  x,y,z
_cell_length_a	19.805407
_cell_length_b	18.050589
_cell_length_c	19.805399
_cell_angle_alpha	90.022294
_cell_angle_beta	90.017803
_cell_angle_gamma	90.025537
loop_
_atom_site_label
_atom_site_type_symbol
_atom_site_fract_x
_atom_site_fract_y
_atom_site_fract_z
Zn1	Zn	1.034727	-0.295730	0.382713
Zn2	Zn	1.534727	0.204270	0.882713
Zn3	Zn	1.034638	-0.419922	0.269535
Zn4	Zn	1.534638	0.080078	0.769535
Zn5	Zn	0.921542	-0.295745	0.269541
Zn6	Zn	1.421542	0.204255	0.769541
Zn7	Zn	0.921502	-0.419877	0.382685
Zn8	Zn	1.421502	0.080123	0.882685
O9	O	0.978102	-0.357818	0.326118
O10	O	1.478102	0.142182	0.826118
O11	O	1.129432	-0.312217	0.367708
O12	O	1.629432	0.187783	0.867708
O13	O	1.019616	-0.403475	0.174819
O14	O	1.519616	0.096525	0.674819
O15	O	0.936610	-0.191818	0.284567
O16	O	1.436610	0.308182	0.784567
O17	O	1.129367	-0.403460	0.284557
O18	O	1.629367	0.096540	0.784557
O19	O	1.019767	-0.191807	0.367714
O20	O	1.519767	0.308193	0.867714
O21	O	0.936524	-0.312242	0.174823
O22	O	1.436524	0.187758	0.674823
O23	O	0.826820	-0.312198	0.284540
O24	O	1.326820	0.187802	0.784540
O25	O	0.936542	-0.403383	0.477405
O26	O	1.436542	0.096617	0.977405
O27	O	0.826790	-0.403397	0.367667
O28	O	1.326790	0.096603	0.867667
O29	O	1.019728	-0.312173	0.477425
O30	O	1.519728	0.187827	0.977425
O31	O	1.019577	-0.523841	0.284530
O32	O	1.519577	-0.023841	0.784530
O33	O	0.936456	-0.523807	0.367661
O34	O	1.436456	-0.023807	0.867661
C35	C	0.802246	-0.357795	0.326102
C36	C	1.302246	0.142205	0.826102
C37	C	0.727014	-0.357803	0.326111
C38	C	1.227014	0.142197	0.826111
C39	C	0.691705	-0.310377	0.369473
C40	C	1.191705	0.189623	0.869473
C41	C	0.621016	-0.310380	0.369476
C42	C	1.121016	0.189620	0.869476
C43	C	0.585639	-0.357815	0.326119
C44	C	1.085639	0.142185	0.826119
C45	C	0.620953	-0.405244	0.282751
C46	C	1.120953	0.094756	0.782751
C47	C	0.691640	-0.405235	0.282746
C48	C	1.191640	0.094765	0.782746
C49	C	0.335880	-0.405277	0.282772
C50	C	0.835880	0.094723	0.782772
C51	C	0.265188	-0.405283	0.282783
C52	C	0.765188	0.094717	0.782783
C53	C	0.265256	-0.310422	0.369502
C54	C	0.765256	0.189578	0.869502
C55	C	0.335943	-0.310414	0.369497
C56	C	0.835943	0.189586	0.869497
C57	C	0.371251	-0.357839	0.326127
C58	C	0.871251	0.142161	0.826127
C59	C	0.447900	-0.357833	0.326124
C60	C	0.947900	0.142167	0.826124
C61	C	0.508992	-0.357825	0.326125
C62	C	1.008992	0.142175	0.826125
C63	C	0.978021	-0.550770	0.326107
C64	C	1.478021	-0.050770	0.826107
C65	C	0.978048	-0.633316	0.326125
C66	C	1.478048	-0.133316	0.826125
C67	C	0.932891	-0.832776	0.371316
C68	C	1.432891	-0.332776	0.871316
C69	C	0.916392	-0.882214	0.309553
C70	C	1.416392	-0.382214	0.809553
C71	C	0.978114	-0.784447	0.326134
C72	C	1.478114	-0.284447	0.826134
C73	C	0.994646	-0.882090	0.387903
C74	C	1.494646	-0.382090	0.887903
C75	C	0.978177	-0.930432	0.326148
C76	C	1.478177	-0.430432	0.826148
C77	C	0.961583	-0.832797	0.264338
C78	C	1.461583	-0.332797	0.764338
C79	C	1.039865	-0.832670	0.342730
C80	C	1.539865	-0.332670	0.842730
C81	C	1.023390	-0.882085	0.280925
C82	C	1.523390	-0.382085	0.780925
C83	C	0.978076	-0.700348	0.326126
C84	C	1.478076	-0.200348	0.826126
C85	C	0.978215	-1.014528	0.326148
C86	C	1.478215	-0.514528	0.826148
C87	C	1.154645	-0.357842	0.326135
C88	C	1.654645	0.142158	0.826135
C89	C	1.229877	-0.357852	0.326142
C90	C	1.729877	0.142148	0.826142
C91	C	0.978140	-0.357772	0.502661
C92	C	1.478140	0.142228	1.002661
C93	C	0.978156	-0.357752	0.577893
C94	C	1.478156	0.142248	1.077893
C95	C	0.978203	-0.164113	0.326144
C96	C	1.478203	0.335887	0.826144
C97	C	0.978246	-0.081567	0.326155
C98	C	1.478246	0.418433	0.826155
C99	C	0.978103	-0.357811	0.150262
C100	C	1.478103	0.142189	0.650262
C101	C	0.978218	-0.357622	0.075031
C102	C	1.478218	0.142378	0.575031
C103	C	1.021472	-0.310256	0.613249
C104	C	1.521472	0.189744	1.113249
C105	C	1.021479	-0.310235	0.683937
C106	C	1.521479	0.189765	1.183937
C107	C	0.978173	-0.357713	0.719269
C108	C	1.478173	0.142287	1.219269
C109	C	0.934852	-0.405210	0.683908
C110	C	1.434852	0.094790	1.183908
C111	C	0.934843	-0.405228	0.613221
C112	C	1.434843	0.094772	1.113221
C113	C	0.934891	-0.405141	0.968981
C114	C	1.434891	0.094859	1.468981
C115	C	0.934905	-0.405122	1.039674
C116	C	1.434905	0.094878	1.539674
C117	C	1.021527	-0.310148	1.039698
C118	C	1.521527	0.189852	1.539698
C119	C	1.021518	-0.310165	0.969011
C120	C	1.521518	0.189835	1.469011
C121	C	0.978195	-0.357660	0.933656
C122	C	1.478195	0.142340	1.433656
C123	C	0.978187	-0.357682	0.857008
C124	C	1.478187	0.142318	1.357008
C125	C	0.978184	-0.357695	0.795916
C126	C	1.478184	0.142305	1.295916
H127	H	0.592143	-0.443862	0.247446
H128	H	1.092143	0.056138	0.747446
H129	H	0.899563	-0.443896	0.584435
H130	H	1.399563	0.056104	1.084435
H131	H	0.720389	-0.443854	0.247435
H132	H	1.220389	0.056146	0.747435
C133	C	1.110353	-0.803244	0.361712
C134	C	1.610353	-0.303244	0.861712
H135	H	1.127683	-0.774296	0.325602
H136	H	1.627683	-0.274296	0.825602
H137	H	1.107089	-0.773521	0.401167
H138	H	1.607089	-0.273521	0.901167
H139	H	1.139781	-0.843765	0.370072
H140	H	1.639781	-0.343765	0.870072
C141	C	0.942644	-0.803677	0.193757
C142	C	1.442644	-0.303677	0.693757
H143	H	0.934785	-0.844331	0.164300
H144	H	1.434785	-0.344331	0.664300
H145	H	0.902908	-0.774420	0.196838
H146	H	1.402908	-0.274420	0.696838
H147	H	0.978565	-0.774324	0.176583
H148	H	1.478565	-0.274324	0.676583
H149	H	0.894591	-0.811124	0.409470
H150	H	1.394591	-0.311124	0.909470
C151	C	0.374855	-0.258234	0.417187
C152	C	0.874855	0.241766	0.917187
H153	H	0.343701	-0.229983	0.443009
H154	H	0.843701	0.270017	0.943009
H155	H	0.402435	-0.286679	0.446632
H156	H	0.902435	0.213321	0.946632
H157	H	0.402427	-0.225834	0.391336
H158	H	0.902427	0.274166	0.891336
H159	H	1.061661	-0.903600	0.242678
H160	H	1.561661	-0.403600	0.742678
H161	H	1.008603	-0.903743	0.440136
H162	H	1.508603	-0.403743	0.940136
C163	C	1.069107	-0.258026	0.574390
C164	C	1.569107	0.241974	1.074390
H165	H	1.094899	-0.229731	0.605574
H166	H	1.594899	0.270269	1.105574
H167	H	1.098581	-0.286440	0.546814
H168	H	1.598581	0.213560	1.046814
H169	H	1.043221	-0.225669	0.546819
H170	H	1.543221	0.274331	1.046819
C171	C	0.887267	-0.457348	1.078540
C172	C	1.387267	0.042652	1.578540
H173	H	0.893485	-0.450540	1.125702
H174	H	1.393485	0.049460	1.625702
H175	H	0.841793	-0.446476	1.066955
H176	H	1.341793	0.053524	1.566955
H177	H	0.897147	-0.507254	1.066949
H178	H	1.397147	-0.007254	1.566949
H179	H	1.056753	-0.271561	0.712721
H180	H	1.556753	0.228439	1.212721
H181	H	0.592270	-0.271763	0.404788
H182	H	1.092270	0.228237	0.904788
C183	C	0.730614	-0.258198	0.417167
C184	C	1.230614	0.241802	0.917167
H185	H	0.699458	-0.229948	0.442988
H186	H	1.199458	0.270052	0.942988
H187	H	0.758192	-0.286643	0.446613
H188	H	1.258192	0.213357	0.946613
H189	H	0.758188	-0.225796	0.391319
H190	H	1.258188	0.274204	0.891319
C191	C	0.845886	-0.911616	0.290591
C192	C	1.345886	-0.411616	0.790591
H193	H	0.813782	-0.894738	0.322732
H194	H	1.313782	-0.394738	0.822732
H195	H	0.833852	-0.894013	0.247026
H196	H	1.333852	-0.394013	0.747026
H197	H	0.846523	-0.964240	0.290334
H198	H	1.346523	-0.464240	0.790334
C199	C	0.226415	-0.258247	0.417203
C200	C	0.726415	0.241753	0.917203
H201	H	0.179249	-0.265037	0.410993
H202	H	0.679249	0.234963	0.910993
H203	H	0.238013	-0.269181	0.462661
H204	H	0.738013	0.230819	0.962661
H205	H	0.238014	-0.208331	0.407370
H206	H	0.738014	0.291669	0.907370
C207	C	1.069152	-0.257937	0.930150
C208	C	1.569152	0.242063	1.430150
H209	H	1.094946	-0.229641	0.961331
H210	H	1.594946	0.270359	1.461331
H211	H	1.098624	-0.286353	0.902573
H212	H	1.598624	0.213647	1.402573
H213	H	1.043265	-0.225581	0.902578
H214	H	1.543265	0.274419	1.402578
C215	C	1.069178	-0.257899	1.078590
C216	C	1.569178	0.242101	1.578590
H217	H	1.062979	-0.264681	1.125749
H218	H	1.562979	0.235319	1.625749
H219	H	1.114647	-0.268780	1.067011
H220	H	1.614647	0.231220	1.567011
H221	H	1.059295	-0.208000	1.067009
H222	H	1.559295	0.292000	1.567009
H223	H	0.899624	-0.443825	0.940204
H224	H	1.399624	0.056175	1.440204
C225	C	0.887215	-0.457437	0.722767
C226	C	1.387215	0.042563	1.222767
H227	H	0.861412	-0.485721	0.691585
H228	H	1.361412	0.014279	1.191585
H229	H	0.913093	-0.489792	0.750341
H230	H	1.413093	0.010208	1.250341
H231	H	0.857740	-0.429013	0.750342
H232	H	1.357740	0.070987	1.250342
C233	C	0.226273	-0.457458	0.235083
C234	C	0.726273	0.042542	0.735083
H235	H	0.257425	-0.485697	0.209247
H236	H	0.757425	0.014303	0.709247
H237	H	0.198698	-0.489859	0.260924
H238	H	0.698698	0.010141	0.760924
H239	H	0.198696	-0.429000	0.205640
H240	H	0.698696	0.071000	0.705640
H241	H	0.364619	-0.443894	0.247459
H242	H	0.864619	0.056106	0.747459
