data_functionalizedCrystal
_audit_creation_method	'MofGen! by Chris Wilmer'
_symmetry_space_group_name_H-M	'P1'
_symmetry_Int_Tables_number	1
_symmetry_cell_setting	triclinic
loop_
_symmetry_equiv_pos_as_xyz
  x,y,z
_cell_length_a	10.540539
_cell_length_b	9.016244
_cell_length_c	14.519709
_cell_angle_alpha	89.996820
_cell_angle_beta	95.897182
_cell_angle_gamma	90.005301
loop_
_atom_site_label
_atom_site_type_symbol
_atom_site_fract_x
_atom_site_fract_y
_atom_site_fract_z
O1	O	1.684566	0.123274	-0.129964
O2	O	1.315028	0.123293	-0.142209
O3	O	1.509595	0.123269	-0.001901
O4	O	1.490000	0.123297	-0.270272
O5	O	1.509567	-0.123411	-0.001904
O6	O	1.315000	-0.123388	-0.142212
O7	O	1.684538	-0.123407	-0.129967
Cu8	Cu	1.499766	-0.145921	-0.136090
Cu9	Cu	1.499800	0.145807	-0.136086
O10	O	1.489971	-0.123384	-0.270275
C11	C	1.267720	-0.000046	-0.141293
C12	C	1.126800	-0.000039	-0.138545
C13	C	0.944448	-0.000626	-0.033266
C14	C	1.091038	-0.000054	-0.036051
C15	C	1.064641	0.140828	-0.187868
C16	C	0.918132	0.140930	-0.184370
C17	C	0.917590	-0.139592	-0.186459
C18	C	1.064562	-0.141438	-0.187403
N19	N	1.499752	-0.351108	-0.136092
C20	C	1.395357	-0.586128	-0.210896
C21	C	1.395583	-0.414237	-0.211176
C22	C	1.632251	-0.413450	-0.157983
C23	C	1.631680	-0.585395	-0.158513
C24	C	1.472968	-0.585659	-0.039152
C25	C	1.469916	-0.413705	-0.039780
C26	C	1.731846	-0.000065	-0.130884
C27	C	1.872766	-0.000062	-0.133631
C28	C	1.508668	-0.000071	0.032462
C29	C	1.505931	-0.000072	0.134858
N30	N	1.499824	0.350993	-0.136077
C31	C	1.490899	-0.000040	-0.304639
C32	C	1.493635	-0.000029	-0.407035
C33	C	1.495856	-0.000033	0.509808
C34	C	1.498654	-0.000044	0.405485
C35	C	1.500893	-0.000054	0.322337
C36	C	1.503692	-0.000062	0.218007
H37	H	1.107591	0.245656	-0.153603
H38	H	0.886370	-0.246368	-0.153290
H39	H	1.378443	-0.629105	-0.018317
H40	H	0.869607	-0.140536	-0.260489
H41	H	1.134036	-0.101034	0.002758
H42	H	1.412294	-0.629315	-0.282399
H43	H	1.412749	-0.373084	-0.283086
H44	H	1.297101	-0.372089	-0.198004
H45	H	0.869411	0.147331	-0.258082
H46	H	1.372447	-0.372960	-0.023187
H47	H	1.088024	-0.149936	-0.262128
H48	H	1.541039	-0.370738	0.018572
H49	H	1.655313	-0.625478	-0.229227
H50	H	1.549148	-0.626321	0.016536
H51	H	0.916265	-0.101649	0.007224
H52	H	1.105880	-0.245651	-0.151371
H53	H	1.296564	-0.627518	-0.197926
H54	H	1.711856	-0.626986	-0.106214
H55	H	0.914664	0.099827	0.007055
H56	H	1.656436	-0.370366	-0.227898
H57	H	1.133194	0.101092	0.003035
H58	H	1.086226	0.146076	-0.263137
H59	H	0.890306	0.246221	-0.147913
H60	H	1.711848	-0.372555	-0.104977
