data_functionalizedCrystal
_audit_creation_method	'MofGen! by Chris Wilmer'
_symmetry_space_group_name_H-M	'P1'
_symmetry_Int_Tables_number	1
_symmetry_cell_setting	triclinic
loop_
_symmetry_equiv_pos_as_xyz
  x,y,z
_cell_length_a	18.215407
_cell_length_b	21.295417
_cell_length_c	18.215407
_cell_angle_alpha	90.015372
_cell_angle_beta	90.010236
_cell_angle_gamma	90.030150
loop_
_atom_site_label
_atom_site_type_symbol
_atom_site_fract_x
_atom_site_fract_y
_atom_site_fract_z
Zn1	Zn	1.124978	-0.250706	0.416099
Zn2	Zn	1.124896	-0.355948	0.293026
Zn3	Zn	1.001931	-0.250698	0.293047
Zn4	Zn	1.001866	-0.355942	0.416051
O5	O	1.063418	-0.303323	0.354556
O6	O	1.227951	-0.264673	0.399785
O7	O	1.108578	-0.341986	0.190045
O8	O	1.018314	-0.162609	0.309399
O9	O	1.227891	-0.341994	0.309364
O10	O	1.108716	-0.162615	0.399805
O11	O	1.018236	-0.264658	0.190060
O12	O	0.898938	-0.264652	0.309352
O13	O	1.018204	-0.341983	0.519042
O14	O	0.898890	-0.341975	0.399723
O15	O	1.108653	-0.264667	0.519077
O16	O	1.108515	-0.444037	0.309317
O17	O	1.018125	-0.444032	0.399703
C18	C	0.872211	-0.303313	0.354535
C19	C	0.790412	-0.303323	0.354543
C20	C	0.602213	-0.343648	0.401540
C21	C	0.525354	-0.343650	0.401550
C22	C	0.525374	-0.263010	0.307588
C23	C	0.602232	-0.263005	0.307583
C24	C	0.640649	-0.303328	0.354558
C25	C	0.486933	-0.303335	0.354572
C26	C	0.403599	-0.303336	0.354582
C27	C	0.723988	-0.303326	0.354550
C28	C	1.063324	-0.466875	0.354519
C29	C	1.063351	-0.536843	0.354527
C30	C	1.110396	-0.569656	0.401636
C31	C	1.110422	-0.635398	0.401654
C32	C	1.063411	-0.668326	0.354551
C33	C	1.016356	-0.635505	0.307439
C34	C	1.016326	-0.569764	0.307428
N35	N	1.057863	-0.771573	0.290144
N36	N	1.057895	-0.834024	0.290157
C37	C	1.063497	-0.866400	0.354584
N38	N	1.069078	-0.833966	0.418998
N39	N	1.069050	-0.771508	0.418984
C40	C	1.063437	-0.739611	0.354558
C41	C	1.110573	-0.970498	0.401716
C42	C	1.110593	-1.036242	0.401735
C43	C	1.016531	-1.036348	0.307514
C44	C	1.016506	-0.970605	0.307501
C45	C	1.063531	-0.937685	0.354601
C46	C	1.255370	-0.303335	0.354578
C47	C	1.337169	-0.303339	0.354587
C48	C	1.063430	-0.303325	0.546509
C49	C	1.063436	-0.303326	0.628308
C50	C	1.063532	-0.139133	0.354610
C51	C	1.063580	-0.069165	0.354632
C52	C	1.110518	-0.263074	0.816521
C53	C	1.110514	-0.263073	0.893380
C54	C	1.016329	-0.343587	0.893332
C55	C	1.016330	-0.343584	0.816475
C56	C	1.063429	-0.303328	0.778071
C57	C	1.063424	-0.303331	0.931787
C58	C	1.063419	-0.303331	1.015121
C59	C	1.063433	-0.303327	0.694732
C60	C	1.063405	-0.303335	1.163350
C61	C	1.063417	-0.303333	1.081551
H62	H	0.633527	-0.230168	0.269324
C63	C	0.965362	-1.072054	0.256464
C64	C	0.892530	-1.056121	0.272434
C65	C	0.845368	-1.089009	0.225429
H66	H	0.976066	-1.061316	0.206998
H67	H	0.972064	-1.115913	0.263223
H68	H	0.885832	-1.012271	0.265669
H69	H	0.881803	-1.066860	0.321891
H70	H	0.852070	-1.132869	0.232188
H71	H	0.856079	-1.078269	0.175967
H72	H	0.795946	-1.078208	0.236263
H73	H	0.494063	-0.376482	0.439808
C74	C	1.161414	-0.533801	0.452699
C75	C	1.151333	-0.469203	0.442597
C76	C	1.198322	-0.436153	0.489619
H77	H	1.150657	-0.544492	0.502167
H78	H	1.210891	-0.544502	0.441969
H79	H	1.101868	-0.458506	0.453332
H80	H	1.162095	-0.458493	0.393140
H81	H	1.247799	-0.446854	0.478889
H82	H	1.187561	-0.446849	0.539084
H83	H	1.191493	-0.392320	0.482767
H84	H	1.148726	-0.662120	0.440023
H85	H	0.978077	-0.662319	0.269089
C86	C	0.643791	-0.387444	0.452627
C87	C	0.593676	-0.422742	0.493789
C88	C	0.631948	-0.463087	0.540868
H89	H	0.673755	-0.414891	0.424501
H90	H	0.673777	-0.363416	0.484780
H91	H	0.563702	-0.446769	0.461640
H92	H	0.563710	-0.395312	0.521930
H93	H	0.661934	-0.439059	0.573021
H94	H	0.661911	-0.490529	0.512736
H95	H	0.597951	-0.487037	0.568807
H96	H	0.977985	-0.376363	0.924609
H97	H	0.978015	-0.543047	0.269066
H98	H	0.978201	-0.943887	0.269138
H99	H	1.148858	-0.230293	0.924683
C100	C	1.161674	-0.219295	0.774958
C101	C	1.202897	-0.184030	0.825086
C102	C	1.250022	-0.143686	0.786827
H103	H	1.193792	-0.243302	0.744970
H104	H	1.133556	-0.191832	0.744997
H105	H	1.231014	-0.211490	0.855034
H106	H	1.170799	-0.160010	0.855075
H107	H	1.221903	-0.116223	0.756866
H108	H	1.282135	-0.167699	0.756841
H109	H	1.277993	-0.119750	0.820833
H110	H	1.148861	-0.943693	0.440070
C111	C	1.161758	-1.071757	0.452910
C112	C	1.202946	-1.028852	0.494136
C113	C	1.250096	-1.061545	0.541278
H114	H	1.133681	-1.097415	0.485024
H115	H	1.193890	-1.097374	0.424803
H116	H	1.170818	-1.003245	0.522241
H117	H	1.231038	-1.003192	0.462041
H118	H	1.282228	-1.087162	0.513171
H119	H	1.222013	-1.087202	0.573387
H120	H	1.278052	-1.032439	0.569250
C121	C	0.965111	-0.387188	0.774685
C122	C	0.917954	-0.351539	0.730580
C123	C	0.870755	-0.391681	0.692081
H124	H	0.993160	-0.414626	0.744637
H125	H	0.937021	-0.411155	0.808540
H126	H	0.946040	-0.327582	0.696729
H127	H	0.889889	-0.324102	0.760610
H128	H	0.842665	-0.415648	0.725936
H129	H	0.898810	-0.419117	0.662037
H130	H	0.838749	-0.367499	0.662157
C131	C	0.483529	-0.219303	0.256615
C132	C	0.407994	-0.227947	0.266660
C133	C	0.369426	-0.187700	0.219708
H134	H	0.496062	-0.176996	0.267429
H135	H	0.496065	-0.228454	0.207131
H136	H	0.395463	-0.218791	0.316132
H137	H	0.395439	-0.270245	0.255840
H138	H	0.381962	-0.196851	0.170225
H139	H	0.381964	-0.145395	0.230527
H140	H	0.318171	-0.193563	0.226513
