data_functionalizedCrystal
_audit_creation_method	'MofGen! by Chris Wilmer'
_symmetry_space_group_name_H-M	'P1'
_symmetry_Int_Tables_number	1
_symmetry_cell_setting	triclinic
loop_
_symmetry_equiv_pos_as_xyz
  x,y,z
_cell_length_a	19.805407
_cell_length_b	16.625545
_cell_length_c	19.805399
_cell_angle_alpha	90.025578
_cell_angle_beta	90.019573
_cell_angle_gamma	90.025558
loop_
_atom_site_label
_atom_site_type_symbol
_atom_site_fract_x
_atom_site_fract_y
_atom_site_fract_z
Zn1	Zn	1.034740	-0.321020	0.382729
Zn2	Zn	1.034656	-0.455857	0.269545
Zn3	Zn	0.921554	-0.321043	0.269554
Zn4	Zn	0.921520	-0.455815	0.382692
O5	O	0.978117	-0.388434	0.326130
O6	O	1.129445	-0.338915	0.367727
O7	O	1.019633	-0.438001	0.174829
O8	O	0.936618	-0.208207	0.284586
O9	O	1.129384	-0.437980	0.284571
O10	O	1.019775	-0.208191	0.367736
O11	O	0.936537	-0.338953	0.174836
O12	O	0.826833	-0.338912	0.284550
O13	O	0.936559	-0.437907	0.477413
O14	O	0.826808	-0.437928	0.367672
O15	O	1.019741	-0.338874	0.477441
O16	O	1.019599	-0.568684	0.284535
O17	O	0.936478	-0.568653	0.367663
C18	C	0.802261	-0.388418	0.326108
C19	C	0.727029	-0.388431	0.326115
C20	C	0.978044	-0.597925	0.326108
C21	C	0.978074	-0.687546	0.326122
C22	C	0.691690	-0.440067	0.369326
C23	C	0.621001	-0.440068	0.369336
C24	C	0.585654	-0.388437	0.326130
C25	C	0.620999	-0.336796	0.282916
C26	C	0.691686	-0.336791	0.282911
C27	C	0.335925	-0.336814	0.282939
C28	C	0.265233	-0.336825	0.282946
C29	C	0.265241	-0.440091	0.369364
C30	C	0.335928	-0.440086	0.369358
C31	C	0.371266	-0.388442	0.326147
C32	C	0.447915	-0.388440	0.326138
C33	C	0.509007	-0.388443	0.326135
C34	C	0.978101	-0.760328	0.326135
C35	C	0.978140	-0.851637	0.326150
C36	C	0.978175	-0.924413	0.326159
C37	C	0.978214	-1.015727	0.326173
C38	C	1.154660	-0.388450	0.326152
C39	C	1.229892	-0.388457	0.326162
C40	C	0.978155	-0.388383	0.502673
C41	C	0.978172	-0.388361	0.577905
C42	C	0.978210	-0.178125	0.326166
C43	C	0.978249	-0.088504	0.326181
C44	C	0.978119	-0.388426	0.150274
C45	C	0.978234	-0.388221	0.075042
C46	C	1.021486	-0.336792	0.613264
C47	C	1.021493	-0.336769	0.683953
C48	C	0.978188	-0.388319	0.719280
C49	C	0.934870	-0.439890	0.683916
C50	C	0.934860	-0.439909	0.613228
C51	C	0.934908	-0.439815	0.968989
C52	C	0.934922	-0.439794	1.039681
C53	C	1.021541	-0.336675	1.039713
C54	C	1.021531	-0.336694	0.969026
C55	C	0.978210	-0.388262	0.933668
C56	C	0.978202	-0.388285	0.857019
C57	C	0.978199	-0.388300	0.795927
H58	H	0.720464	-0.482113	0.404507
Br59	Br	0.383876	-0.266722	0.224299
Br60	Br	0.876114	-0.509799	0.921012
Br61	Br	0.876095	-0.509848	0.731859
Br62	Br	1.080334	-0.266687	1.087703
Br63	Br	1.080264	-0.266834	0.565326
H64	H	0.236455	-0.294776	0.247763
H65	H	0.592231	-0.482116	0.404522
Br66	Br	1.080310	-0.266817	0.731938
Br67	Br	0.876070	-0.509893	0.565239
Br68	Br	0.573028	-0.266717	0.224285
Br69	Br	0.739648	-0.266707	0.224268
H70	H	0.364704	-0.482132	0.404538
Br71	Br	1.080306	-0.266735	0.921085
H72	H	0.236460	-0.482139	0.404550
Br73	Br	0.876149	-0.509761	1.087626
