data_functionalizedCrystal
_audit_creation_method	'MofGen! by Chris Wilmer'
_symmetry_space_group_name_H-M	'P1'
_symmetry_Int_Tables_number	1
_symmetry_cell_setting	triclinic
loop_
_symmetry_equiv_pos_as_xyz
  x,y,z
_cell_length_a	17.077403
_cell_length_b	16.120530
_cell_length_c	17.077396
_cell_angle_alpha	87.083390
_cell_angle_beta	89.982408
_cell_angle_gamma	87.096812
loop_
_atom_site_label
_atom_site_type_symbol
_atom_site_fract_x
_atom_site_fract_y
_atom_site_fract_z
Zn1	Zn	-0.373449	1.274703	-0.504701
Zn2	Zn	0.126551	1.774703	-0.004701
Zn3	Zn	-0.504721	1.274658	-0.373458
Zn4	Zn	-0.004721	1.774658	0.126542
Zn5	Zn	-0.366810	1.135284	-0.366799
Zn6	Zn	0.133190	1.635284	0.133201
Zn7	Zn	-0.498012	1.135304	-0.498034
Zn8	Zn	0.001988	1.635304	0.001966
O9	O	-0.435748	1.204987	-0.435748
O10	O	0.064252	1.704987	0.064252
O11	O	-0.396448	1.391365	-0.492868
O12	O	0.103552	1.891365	0.007132
O13	O	-0.486457	1.256143	-0.262726
O14	O	0.013543	1.756143	0.237274
O15	O	-0.257845	1.153788	-0.385095
O16	O	0.242155	1.653788	0.114905
O17	O	-0.492894	1.391333	-0.396444
O18	O	0.007106	1.891333	0.103556
O19	O	-0.262722	1.256219	-0.486411
O20	O	0.237278	1.756219	0.013589
O21	O	-0.385134	1.153745	-0.257834
O22	O	0.114866	1.653745	0.242166
O23	O	-0.378629	1.018618	-0.378631
O24	O	0.121371	1.518618	0.121369
O25	O	-0.481459	1.153822	-0.608767
O26	O	0.018541	1.653822	-0.108767
O27	O	-0.475022	1.018633	-0.475049
O28	O	0.024978	1.518633	0.024951
O29	O	-0.389943	1.256239	-0.613665
O30	O	0.110057	1.756239	-0.113665
O31	O	-0.613678	1.256162	-0.389980
O32	O	-0.113678	1.756162	0.110020
O33	O	-0.608748	1.153779	-0.481506
O34	O	-0.108748	1.653779	0.018494
C35	C	-0.425377	0.988375	-0.425395
C36	C	0.074623	1.488375	0.074605
C37	C	-0.420960	0.895707	-0.420984
C38	C	0.079040	1.395707	0.079016
C39	C	-0.231005	1.205007	-0.435754
C40	C	0.268995	1.705007	0.064246
C41	C	-0.143755	1.205015	-0.435756
C42	C	0.356245	1.705015	0.064244
C43	C	-0.435693	1.205038	-0.640495
C44	C	0.064307	1.705038	-0.140495
C45	C	-0.435669	1.205059	-0.727746
C46	C	0.064331	1.705059	-0.227746
C47	C	-0.639696	1.204991	-0.435760
C48	C	-0.139696	1.704991	0.064240
C49	C	-0.726950	1.205068	-0.435795
C50	C	-0.226950	1.705068	0.064205
C51	C	-0.100225	1.151692	-0.383010
C52	C	0.399775	1.651692	0.116990
C53	C	-0.018245	1.151698	-0.383020
C54	C	0.481755	1.651698	0.116980
C55	C	0.020203	1.205032	-0.435774
C56	C	0.520203	1.705032	0.064226
C57	C	-0.023333	1.258358	-0.488526
C58	C	0.476667	1.758358	0.011474
C59	C	-0.105311	1.258347	-0.488519
C60	C	0.394689	1.758347	0.011481
C61	C	0.147536	1.258379	-0.488536
C62	C	0.647536	1.758379	0.011464
C63	C	0.229520	1.258391	-0.488542
C64	C	0.729520	1.758391	0.011458
C65	C	0.234603	1.151730	-0.383037
C66	C	0.734603	1.651730	0.116963
C67	C	0.152624	1.151719	-0.383030
C68	C	0.652624	1.651719	0.116970
C69	C	0.109094	1.205046	-0.435781
C70	C	0.609094	1.705046	0.064219
C71	C	-0.412876	0.726042	-0.412938
C72	C	0.087124	1.226042	0.087062
C73	C	-0.458678	0.684773	-0.458615
C74	C	0.041322	1.184773	0.041385
C75	C	-0.454180	0.590366	-0.454138
C76	C	0.045820	1.090366	0.045862
C77	C	-0.417373	0.820458	-0.417414
C78	C	0.082627	1.320458	0.082586
C79	C	-0.446160	1.422446	-0.446142
C80	C	0.053840	1.922446	0.053858
C81	C	-0.450597	1.515113	-0.450572
C82	C	0.049403	2.015113	0.049428
C83	C	-0.388012	1.258389	-0.771287
C84	C	0.111988	1.758389	-0.271287
C85	C	-0.387987	1.258399	-0.853268
C86	C	0.112013	1.758399	-0.353268
C87	C	-0.435622	1.205083	-0.891706
C88	C	0.064378	1.705083	-0.391706
C89	C	-0.483281	1.151747	-0.848158
C90	C	0.016719	1.651747	-0.348158
C91	C	-0.483302	1.151733	-0.766179
C92	C	0.016698	1.651733	-0.266179
C93	C	-0.483235	1.151780	-1.019030
C94	C	0.016765	1.651780	-0.519030
C95	C	-0.483216	1.151795	-1.101016
C96	C	0.016784	1.651795	-0.601016
C97	C	-0.387920	1.258446	-1.106120
C98	C	0.112080	1.758446	-0.606120
C99	C	-0.387941	1.258433	-1.024140
C100	C	0.112059	1.758433	-0.524140
C101	C	-0.435601	1.205098	-0.980598
C102	C	0.064399	1.705098	-0.480598
C103	C	-0.435749	1.204985	-0.231800
C104	C	0.064251	1.704985	0.268200
C105	C	-0.435559	1.205125	-0.144557
C106	C	0.064441	1.705125	0.355443
H107	H	-0.131523	1.108263	-0.340049
H108	H	0.368477	1.608263	0.159951
H109	H	-0.522003	1.108378	-1.132309
H110	H	-0.022003	1.608378	-0.632309
Cl111	Cl	-0.328006	1.325497	-1.160858
Cl112	Cl	0.171994	1.825497	-0.660858
H113	H	0.007976	1.301781	-0.531483
H114	H	0.507976	1.801781	-0.031483
H115	H	-0.501268	0.720344	-0.501083
H116	H	-0.001268	1.220344	-0.001083
H117	H	0.260820	1.301821	-0.531501
H118	H	0.760820	1.801821	-0.031501
Cl119	Cl	-0.543163	1.084717	-0.896480
Cl120	Cl	-0.043163	1.584717	-0.396480
H121	H	-0.370288	0.690473	-0.370474
H122	H	0.129712	1.190473	0.129526
H123	H	-0.349225	1.301808	-0.739998
H124	H	0.150775	1.801808	-0.239998
Cl125	Cl	-0.160036	1.325383	-0.554833
Cl126	Cl	0.339964	1.825383	-0.054833
H127	H	0.112096	1.301793	-0.531501
H128	H	0.612096	1.801793	-0.031501
Cl129	Cl	-0.328109	1.325483	-0.908005
Cl130	Cl	0.171891	1.825483	-0.408005
Cl131	Cl	0.289326	1.084693	-0.316718
Cl132	Cl	0.789326	1.584693	0.183282
H133	H	-0.522032	1.108336	-0.983580
H134	H	-0.022032	1.608336	-0.483580
H135	H	0.017197	1.108278	-0.340070
H136	H	0.517197	1.608278	0.159930
Cl137	Cl	0.104290	1.084673	-0.316706
Cl138	Cl	0.604290	1.584673	0.183294
Cl139	Cl	-0.328061	1.325465	-0.975819
Cl140	Cl	0.171939	1.825465	-0.475819
Cl141	Cl	-0.543213	1.084684	-0.711440
Cl142	Cl	-0.043213	1.584684	-0.211440
