data_functionalizedCrystal
_audit_creation_method	'MofGen! by Chris Wilmer'
_symmetry_space_group_name_H-M	'P1'
_symmetry_Int_Tables_number	1
_symmetry_cell_setting	triclinic
loop_
_symmetry_equiv_pos_as_xyz
  x,y,z
_cell_length_a	19.188930
_cell_length_b	10.654541
_cell_length_c	9.730217
_cell_angle_alpha	90.003041
_cell_angle_beta	90.015285
_cell_angle_gamma	83.814354
loop_
_atom_site_label
_atom_site_type_symbol
_atom_site_fract_x
_atom_site_fract_y
_atom_site_fract_z
O1	O	-0.927166	-0.156778	-0.114732
O2	O	-0.723993	-0.177883	-0.114637
O3	O	-0.830252	0.015508	-0.114678
O4	O	-0.820908	-0.350169	-0.114691
O5	O	-0.830249	0.015509	0.113902
O6	O	-0.723990	-0.177882	0.113943
O7	O	-0.927163	-0.156776	0.113848
Zn8	Zn	-0.825576	-0.167329	0.150188
Zn9	Zn	-0.825580	-0.167331	-0.150977
O10	O	-0.820904	-0.350167	0.113889
C11	C	-0.697976	-0.177199	-0.000335
C12	C	-0.620458	-0.175147	-0.000299
C13	C	-0.953180	-0.157461	-0.000457
C14	C	-1.030698	-0.159512	-0.000502
C15	C	-0.829565	0.062292	-0.000389
C16	C	-0.827513	0.201692	-0.000390
C17	C	-0.576276	-0.288623	-0.000325
C18	C	-0.503439	-0.286695	-0.000340
C19	C	-0.474788	-0.171286	-0.000357
C20	C	-0.518981	-0.057795	-0.000324
C21	C	-0.591815	-0.059726	-0.000295
N22	N	-0.366233	-0.083070	-0.078205
N23	N	-0.297042	-0.081244	-0.078235
C24	C	-0.255342	-0.165462	-0.000441
N25	N	-0.285444	-0.251594	0.077368
N26	N	-0.354641	-0.253424	0.077392
C27	C	-0.395812	-0.169180	-0.000387
C28	C	-0.132181	-0.276855	-0.000480
C29	C	-0.059344	-0.274923	-0.000487
C30	C	-0.074887	-0.046020	-0.000485
C31	C	-0.147723	-0.047955	-0.000465
C32	C	-0.176365	-0.163376	-0.000469
C33	C	-0.821592	-0.396952	-0.000403
C34	C	-0.823643	-0.536352	-0.000411
N35	N	-0.825578	-0.167326	0.355724
C36	C	-0.954574	0.232352	-0.000432
C37	C	-1.017138	0.313170	-0.000449
C38	C	-1.015206	0.444147	-0.000453
C39	C	-0.950703	0.494307	-0.000443
C40	C	-0.888139	0.413489	-0.000425
C41	C	-0.890078	0.282511	-0.000418
C42	C	-0.761079	0.382830	-0.000393
C43	C	-0.763010	0.251852	-0.000380
C44	C	-0.696577	0.432990	-0.000383
C45	C	-0.634011	0.352172	-0.000356
C46	C	-0.635946	0.221187	-0.000351
C47	C	-0.700446	0.171034	-0.000363
N48	N	-0.825584	-0.167323	-0.356513
C49	C	-0.919709	0.003873	0.355678
C50	C	-0.966779	0.089468	0.427596
C51	C	-0.966786	0.089469	0.571475
C52	C	-0.919717	0.003867	0.643441
C53	C	-0.872647	-0.081728	0.571524
C54	C	-0.872646	-0.081722	0.427641
C55	C	-0.778513	-0.252919	0.571570
C56	C	-0.778508	-0.252928	0.427690
C57	C	-0.731444	-0.338521	0.643536
C58	C	-0.684376	-0.424125	0.571619
C59	C	-0.684371	-0.424123	0.427730
C60	C	-0.731438	-0.338524	0.355773
H61	H	-0.599591	-0.382608	-0.000331
H62	H	-0.627789	0.032682	-0.000275
H63	H	-0.919714	0.003870	0.238524
Cl64	Cl	-1.025948	0.197082	0.337122
Cl65	Cl	-0.168193	-0.421953	-0.000472
H66	H	-1.069655	0.272315	-0.000445
Cl67	Cl	-0.731440	-0.338518	0.174894
Cl68	Cl	-1.025957	0.197083	0.661887
H69	H	-0.646052	-0.493810	0.630222
Cl70	Cl	-0.731448	-0.338517	0.824415
Cl71	Cl	-0.625189	-0.531730	0.337333
Cl72	Cl	-0.948276	0.658966	-0.000540
H73	H	-0.467459	-0.379104	-0.000356
H74	H	-0.584998	0.155391	-0.000343
Cl75	Cl	-0.482963	0.087291	-0.000337
H76	H	-0.023371	-0.367332	-0.000500
H77	H	-0.919720	0.003884	0.760596
H78	H	-0.581498	0.393024	-0.000357
Cl79	Cl	-0.702884	0.006378	-0.000347
Cl80	Cl	-0.203269	0.094708	-0.000441
Cl81	Cl	-0.038876	0.099068	-0.000490
Cl82	Cl	-0.957008	0.067695	-0.000396
H83	H	-1.066151	0.509950	-0.000478
H84	H	-0.695008	0.539640	-0.000395
