data_functionalizedCrystal
_audit_creation_method	'MofGen! by Chris Wilmer'
_symmetry_space_group_name_H-M	'P1'
_symmetry_Int_Tables_number	1
_symmetry_cell_setting	triclinic
loop_
_symmetry_equiv_pos_as_xyz
  x,y,z
_cell_length_a	15.944551
_cell_length_b	17.038272
_cell_length_c	15.021413
_cell_angle_alpha	90.004029
_cell_angle_beta	89.997174
_cell_angle_gamma	87.305147
loop_
_atom_site_label
_atom_site_type_symbol
_atom_site_fract_x
_atom_site_fract_y
_atom_site_fract_z
O1	O	1.121728	0.100827	-0.073940
O2	O	1.621728	0.600827	0.426060
O3	O	0.878066	0.113259	-0.073962
O4	O	1.378066	0.613259	0.426038
O5	O	0.998449	-0.006773	-0.073944
O6	O	1.498449	0.493227	0.426056
O7	O	1.001345	0.220859	-0.073958
O8	O	1.501345	0.720859	0.426042
O9	O	0.998429	-0.006755	0.074120
O10	O	1.498429	0.493245	0.574120
O11	O	0.878046	0.113277	0.074102
O12	O	1.378046	0.613277	0.574102
O13	O	1.121708	0.100844	0.074125
O14	O	1.621708	0.600844	0.574125
Zn15	Zn	0.999874	0.107063	0.097622
Zn16	Zn	1.499874	0.607063	0.597622
Zn17	Zn	0.999900	0.107041	-0.097459
Zn18	Zn	1.499900	0.607041	0.402541
O19	O	1.001326	0.220876	0.074107
O20	O	1.501326	0.720876	0.574107
C21	C	0.846725	0.112752	0.000067
C22	C	1.346725	0.612752	0.500067
C23	C	0.753369	0.111205	0.000059
C24	C	1.253369	0.611205	0.500059
C25	C	0.532936	0.033105	0.000081
C26	C	1.032936	0.533105	0.500081
C27	C	0.474515	0.069363	-0.072924
C28	C	0.974515	0.569363	0.427076
C29	C	0.582443	0.108405	0.000070
C30	C	1.082443	0.608405	0.500070
C31	C	0.474519	0.069398	0.073055
C32	C	0.974519	0.569398	0.573055
C33	C	0.417337	0.105696	0.000084
C34	C	0.917337	0.605696	0.500084
C35	C	0.525252	0.144684	-0.072996
C36	C	1.025252	0.644684	0.427004
C37	C	0.525262	0.144709	0.073049
C38	C	1.025262	0.644709	0.573049
C39	C	0.466862	0.181022	0.000026
C40	C	0.966862	0.681022	0.500026
C41	C	0.677557	0.109964	0.000061
C42	C	1.177557	0.609964	0.500061
C43	C	0.322225	0.104143	0.000087
C44	C	0.822225	0.604143	0.500087
C45	C	0.995805	-0.035893	0.000088
C46	C	1.495805	0.464107	0.500088
C47	C	0.987945	-0.122688	0.000087
C48	C	1.487945	0.377312	0.500087
C49	C	1.060103	-0.172781	0.000094
C50	C	1.560103	0.327219	0.500094
C51	C	1.052713	-0.254334	0.000085
C52	C	1.552713	0.245666	0.500085
C53	C	0.973165	-0.285792	0.000075
C54	C	1.473165	0.214208	0.500075
C55	C	0.901002	-0.235693	0.000065
C56	C	1.401002	0.264307	0.500065
C57	C	0.908393	-0.154142	0.000068
C58	C	1.408393	0.345858	0.500068
C59	C	0.947056	-0.531558	0.000061
C60	C	1.447056	-0.031558	0.500061
C61	C	0.939671	-0.613115	0.000060
C62	C	1.439671	-0.113115	0.500060
C63	C	1.091383	-0.631751	0.000079
C64	C	1.591383	-0.131751	0.500079
C65	C	1.098766	-0.550197	0.000087
C66	C	1.598766	-0.050197	0.500087
C67	C	1.026603	-0.500105	0.000072
C68	C	1.526603	-0.000105	0.500072
C69	C	0.965610	-0.369152	0.000069
C70	C	1.465610	0.130848	0.500069
C71	C	1.034159	-0.416747	0.000073
C72	C	1.534159	0.083253	0.500073
C73	C	1.153049	0.101352	0.000093
C74	C	1.653049	0.601352	0.500093
C75	C	1.246405	0.102899	0.000096
C76	C	1.746405	0.602899	0.500096
C77	C	1.003969	0.249997	0.000073
C78	C	1.503969	0.749997	0.500073
C79	C	1.011829	0.336792	0.000068
C80	C	1.511829	0.836792	0.500068
N81	N	0.999863	0.107078	0.230759
N82	N	1.499863	0.607078	0.730759
N83	N	0.999917	0.107019	-0.230597
N84	N	1.499917	0.607019	0.269403
C85	C	0.944187	0.162555	0.470434
C86	C	1.444187	0.662555	0.970434
C87	C	1.021171	0.177734	0.529775
C88	C	1.521171	0.677734	1.029775
C89	C	0.999883	0.107059	0.412366
C90	C	1.499883	0.607059	0.912366
C91	C	0.922921	0.091897	0.529768
C92	C	1.422921	0.591897	1.029768
C93	C	0.999896	0.107041	0.587790
C94	C	1.499896	0.607041	1.087790
C95	C	1.076908	0.122273	0.470400
C96	C	1.576908	0.622273	0.970400
C97	C	0.978606	0.036405	0.470388
C98	C	1.478606	0.536405	0.970388
C99	C	1.055643	0.051554	0.529702
C100	C	1.555643	0.551554	1.029702
C101	C	0.999875	0.107070	0.311309
C102	C	1.499875	0.607070	0.811309
C103	C	0.999913	0.107029	0.688846
C104	C	1.499913	0.607029	1.188846
H105	H	0.547657	0.176539	0.134769
H106	H	1.047657	0.676539	0.634769
N107	N	0.444865	0.027176	-0.154677
N108	N	0.944865	0.527176	0.345323
H109	H	0.494952	0.008610	-0.191505
H110	H	0.994952	0.508610	0.308495
H111	H	0.412312	-0.019515	-0.135979
H112	H	0.912312	0.480485	0.364021
N113	N	0.954721	-0.042700	0.435794
N114	N	1.454721	0.457300	0.935794
H115	H	1.002232	-0.066637	0.398787
H116	H	1.502232	0.433363	0.898787
H117	H	0.943319	-0.078424	0.487619
H118	H	1.443319	0.421576	0.987619
H119	H	0.900842	-0.394774	0.000062
H120	H	1.400842	0.105226	0.500062
N121	N	1.118102	-0.010626	0.563970
N122	N	1.618102	0.489374	1.063970
H123	H	1.146689	-0.038424	0.512044
H124	H	1.646689	0.461576	1.012044
H125	H	1.161505	0.014892	0.601850
H126	H	1.661505	0.514892	1.101850
H127	H	0.547520	0.176503	-0.134784
H128	H	1.047520	0.676503	0.365216
N129	N	0.836702	0.074922	0.564313
N130	N	1.336702	0.574922	1.064313
H131	H	0.797420	0.067727	0.512511
H132	H	1.297420	0.567727	1.012511
H133	H	0.840288	0.025389	0.601316
H134	H	1.340288	0.525389	1.101316
N135	N	1.045020	0.256864	0.564344
N136	N	1.545020	0.756864	1.064344
H137	H	1.097781	0.250316	0.601333
H138	H	1.597781	0.750316	1.101333
H139	H	1.055264	0.292925	0.512506
H140	H	1.555264	0.792925	1.012506
N141	N	0.428846	0.263882	-0.000036
N142	N	0.928846	0.763882	0.499964
H143	H	0.365598	0.262388	0.000488
H144	H	0.865598	0.762388	0.500488
H145	H	0.448181	0.292518	0.054569
H146	H	0.948181	0.792518	0.554569
H147	H	1.124879	-0.147175	0.000108
H148	H	1.624879	0.352825	0.500108
H149	H	0.452150	0.037542	0.134774
H150	H	0.952150	0.537542	0.634774
H151	H	0.561807	-0.029389	-0.000005
H152	H	1.061807	0.470611	0.499995
N153	N	1.130540	-0.308363	0.000099
N154	N	1.630540	0.191637	0.500099
H155	H	1.182054	-0.276060	0.000114
H156	H	1.682054	0.223940	0.500114
H157	H	1.130763	-0.342601	0.054988
H158	H	1.630763	0.157399	0.554988
H159	H	1.163543	-0.524590	0.000096
H160	H	1.663543	-0.024590	0.500096
N161	N	1.163158	0.139340	0.436014
N162	N	1.663158	0.639340	0.936014
H163	H	1.162615	0.139264	0.368779
H164	H	1.662615	0.639264	0.868779
H165	H	1.179309	0.192509	0.458205
H166	H	1.679309	0.692509	0.958205
N167	N	0.881860	0.224762	0.435966
N168	N	1.381860	0.724762	0.935966
H169	H	0.898049	0.278107	0.457573
H170	H	1.398049	0.778107	0.957573
H171	H	0.881931	0.223932	0.368738
H172	H	1.381931	0.723932	0.868738
H173	H	1.098927	-0.391130	0.000061
H174	H	1.598927	0.108870	0.500061
H175	H	1.150134	-0.672544	0.000090
H176	H	1.650134	-0.172544	0.500090
N177	N	0.853869	-0.647048	0.000048
N178	N	1.353869	-0.147048	0.500048
H179	H	0.809275	-0.602941	0.000036
H180	H	1.309275	-0.102941	0.500036
H181	H	0.847515	-0.680484	-0.054841
H182	H	1.347515	-0.180484	0.445159
H183	H	0.888296	-0.490782	0.000049
H184	H	1.388296	0.009218	0.500049
N185	N	0.815203	-0.269618	0.000048
N186	N	1.315203	0.230382	0.500048
H187	H	0.821468	-0.328882	0.000051
H188	H	1.321468	0.171118	0.500051
H189	H	0.783363	-0.251289	0.054934
H190	H	1.283363	0.248711	0.554934
H191	H	0.849634	-0.113356	0.000061
H192	H	1.349634	0.386644	0.500061
