data_functionalizedCrystal
_audit_creation_method	'MofGen! by Chris Wilmer'
_symmetry_space_group_name_H-M	'P1'
_symmetry_Int_Tables_number	1
_symmetry_cell_setting	triclinic
loop_
_symmetry_equiv_pos_as_xyz
  x,y,z
_cell_length_a	13.330367
_cell_length_b	10.723024
_cell_length_c	10.723024
_cell_angle_alpha	84.467869
_cell_angle_beta	89.996558
_cell_angle_gamma	89.992751
loop_
_atom_site_label
_atom_site_type_symbol
_atom_site_fract_x
_atom_site_fract_y
_atom_site_fract_z
O1	O	0.083414	-1.657194	-0.175026
O2	O	0.083417	-1.294042	-0.191780
O3	O	0.083412	-1.483995	-0.001827
O4	O	0.083420	-1.467241	-0.364979
O5	O	-0.083435	-1.483967	-0.001822
O6	O	-0.083430	-1.294014	-0.191775
O7	O	-0.083433	-1.657166	-0.175022
Cu8	Cu	-0.098666	-1.475588	-0.183398
Cu9	Cu	0.098650	-1.475620	-0.183404
O10	O	-0.083428	-1.467213	-0.364975
C11	C	-0.000006	-1.247528	-0.190558
C12	C	-0.000005	-1.108974	-0.186911
N13	N	-0.237447	-1.475574	-0.183394
C14	C	-0.000010	-1.482762	0.044675
C15	C	-0.000007	-1.479114	0.183229
C16	C	-0.710068	-1.391505	-0.267481
C17	C	-0.710041	-1.559769	-0.099316
C18	C	-0.605022	-1.559755	-0.099312
C19	C	-0.552522	-1.475616	-0.183395
C20	C	-0.605040	-1.391491	-0.267482
C21	C	-0.552496	-1.643887	-0.015235
C22	C	-0.447472	-1.643877	-0.015229
C23	C	-0.394969	-1.559731	-0.099307
C24	C	-0.447494	-1.475602	-0.183397
C25	C	-0.394993	-1.391463	-0.267480
C26	C	-0.447516	-1.307327	-0.351564
C27	C	-0.552537	-1.307345	-0.351561
C28	C	-0.289948	-1.559712	-0.099311
C29	C	-0.289965	-1.391449	-0.267481
N30	N	0.237432	-1.475644	-0.183398
C31	C	-0.000008	-1.703680	-0.176243
C32	C	-0.000002	-1.842234	-0.179891
C33	C	-0.000002	-1.033991	-0.293198
C34	C	-0.000000	-0.890788	-0.289431
C35	C	-0.000003	-1.468447	-0.411477
C36	C	0.000000	-1.472094	-0.550031
C37	C	-0.000006	-1.585401	0.258212
C38	C	-0.000003	-1.581634	0.401415
H39	H	-0.247226	-1.322928	-0.335947
H40	H	-0.000007	-1.672624	0.465848
H41	H	-0.000007	-1.381099	0.385544
Br42	Br	0.000009	-1.322788	0.252921
H43	H	-0.000005	-1.075814	-0.386984
Br44	Br	-0.218673	-1.673899	0.014784
H45	H	0.000006	-0.826355	-0.380421
H46	H	-0.752790	-1.628279	-0.030864
Br47	Br	-0.623743	-1.758083	0.098863
H48	H	0.000019	-1.067152	-0.093125
Br49	Br	0.000003	-1.741727	0.188520
H50	H	-0.404714	-1.712383	0.053238
H51	H	-0.595308	-1.238846	-0.420020
Br52	Br	-0.376254	-1.193154	-0.465685
Br53	Br	-0.781341	-1.277317	-0.381584
Br54	Br	0.000006	-0.949611	-0.028219
