data_functionalizedCrystal
_audit_creation_method	'MofGen! by Chris Wilmer'
_symmetry_space_group_name_H-M	'P1'
_symmetry_Int_Tables_number	1
_symmetry_cell_setting	triclinic
loop_
_symmetry_equiv_pos_as_xyz
  x,y,z
_cell_length_a	14.519709
_cell_length_b	15.500361
_cell_length_c	14.519709
_cell_angle_alpha	87.156605
_cell_angle_beta	96.319855
_cell_angle_gamma	87.160830
loop_
_atom_site_label
_atom_site_type_symbol
_atom_site_fract_x
_atom_site_fract_y
_atom_site_fract_z
O1	O	1.219601	0.071833	-0.125157
O2	O	1.719601	0.571833	0.374843
O3	O	0.951123	0.071859	-0.139395
O4	O	1.451123	0.571859	0.360605
O5	O	1.092481	0.071838	0.001963
O6	O	1.592481	0.571838	0.501963
O7	O	1.078243	0.071855	-0.266515
O8	O	1.578243	0.571855	0.233485
O9	O	1.101014	-0.072049	0.010512
O10	O	1.601014	0.427951	0.510512
O11	O	0.959656	-0.072028	-0.130846
O12	O	1.459656	0.427972	0.369154
O13	O	1.228135	-0.072054	-0.116608
O14	O	1.728135	0.427946	0.383392
Cu15	Cu	1.094675	-0.085179	-0.122946
Cu16	Cu	1.594675	0.414821	0.377054
Cu17	Cu	1.084583	0.084984	-0.133057
Cu18	Cu	1.584583	0.584984	0.366943
O19	O	1.086777	-0.072032	-0.257966
O20	O	1.586777	0.427968	0.242034
C21	C	0.921029	-0.000081	-0.134457
C22	C	1.421029	0.499919	0.365543
C23	C	0.818648	-0.000071	-0.132470
C24	C	1.318648	0.499929	0.367530
N25	N	1.101780	-0.204863	-0.115834
N26	N	1.601780	0.295137	0.384166
C27	C	0.443754	-0.000111	-0.125148
C28	C	0.943754	0.499889	0.374852
C29	C	0.548061	-0.000099	-0.127181
C30	C	1.048061	0.499901	0.372819
C31	C	0.631198	-0.000090	-0.128809
C32	C	1.131198	0.499910	0.371191
C33	C	0.735512	-0.000080	-0.130842
C34	C	1.235512	0.499920	0.369158
C35	C	1.041871	-0.250151	-0.175709
C36	C	1.541871	0.249849	0.324291
C37	C	1.047270	-0.340723	-0.170327
C38	C	1.547270	0.159277	0.329673
C39	C	1.112576	-0.386004	-0.105064
C40	C	1.612576	0.113996	0.394936
C41	C	1.172491	-0.340709	-0.045186
C42	C	1.672491	0.159291	0.454814
C43	C	1.167095	-0.250139	-0.050574
C44	C	1.667095	0.249861	0.449426
C45	C	1.132004	-0.659467	-0.085671
C46	C	1.632004	-0.159467	0.414329
C47	C	1.137394	-0.750044	-0.080287
C48	C	1.637394	-0.250044	0.419713
C49	C	1.012174	-0.750051	-0.205429
C50	C	1.512174	-0.250051	0.294571
C51	C	1.006780	-0.659479	-0.210807
C52	C	1.506780	-0.159479	0.289193
C53	C	1.066699	-0.614192	-0.150932
C54	C	1.566699	-0.114192	0.349068
C55	C	1.118095	-0.478583	-0.099559
C56	C	1.618095	0.021417	0.400441
C57	C	1.061183	-0.521615	-0.156442
C58	C	1.561183	-0.021615	0.343558
C59	C	1.258228	-0.000112	-0.121546
C60	C	1.758228	0.499888	0.378454
C61	C	1.360609	-0.000116	-0.123534
C62	C	1.860609	0.499884	0.376466
C63	C	1.096084	-0.000106	0.040597
C64	C	1.596084	0.499894	0.540597
C65	C	1.094096	-0.000106	0.142979
C66	C	1.594096	0.499894	0.642979
N67	N	1.077485	0.204668	-0.140162
N68	N	1.577485	0.704668	0.359838
C69	C	1.083173	-0.000087	-0.296600
C70	C	1.583173	0.499913	0.203400
C71	C	1.085161	-0.000081	-0.398982
C72	C	1.585161	0.499919	0.101018
C73	C	1.086775	-0.000083	0.517873
C74	C	1.586775	0.499917	1.017873
C75	C	1.088808	-0.000090	0.413565
C76	C	1.588808	0.499910	0.913565
C77	C	1.090435	-0.000096	0.330429
C78	C	1.590435	0.499904	0.830429
C79	C	1.092469	-0.000101	0.226115
C80	C	1.592469	0.499899	0.726115
H81	H	0.988688	-0.213289	-0.228849
H82	H	1.488688	0.286711	0.271151
H83	H	1.225669	-0.377583	0.007949
H84	H	1.725669	0.122417	0.507949
H85	H	1.171266	-0.515459	-0.046419
H86	H	1.671266	-0.015459	0.453581
O87	O	0.989202	-0.384758	-0.228574
O88	O	1.489202	0.115242	0.271426
C89	C	0.975858	-0.487054	-0.348358
C90	C	1.475858	0.012946	0.151642
C91	C	1.041726	-0.437222	-0.282455
C92	C	1.541726	0.062778	0.217545
H93	H	1.018298	-0.529498	-0.391924
H94	H	1.518298	-0.029498	0.108076
H95	H	0.928264	-0.439176	-0.395990
H96	H	1.428264	0.060824	0.104010
H97	H	0.932241	-0.529428	-0.305892
H98	H	1.432241	-0.029428	0.194108
H99	H	1.085403	-0.394848	-0.324846
H100	H	1.585403	0.105152	0.175154
H101	H	1.089258	-0.485148	-0.234821
H102	H	1.589258	0.014852	0.265179
H103	H	1.215881	-0.213266	-0.001818
H104	H	1.715881	0.286734	0.498182
H105	H	0.953603	-0.622613	-0.263949
H106	H	1.453603	-0.122613	0.236051
H107	H	1.008015	-0.484744	-0.209583
H108	H	1.508015	0.015256	0.290417
H109	H	1.190576	-0.786908	-0.027138
H110	H	1.690576	-0.286908	0.472862
O111	O	0.953847	-0.794006	-0.263501
O112	O	1.453847	-0.294006	0.236499
C113	C	0.795234	-0.821696	-0.315572
C114	C	1.295234	-0.321696	0.184428
C115	C	0.861184	-0.771879	-0.249737
C116	C	1.361184	-0.271879	0.250263
H117	H	0.720302	-0.803811	-0.304481
H118	H	1.220302	-0.303811	0.195519
H119	H	0.810226	-0.894217	-0.300513
H120	H	1.310226	-0.394217	0.199487
H121	H	0.806356	-0.803895	-0.390517
H122	H	1.306356	-0.303895	0.109483
H123	H	0.850100	-0.789608	-0.174770
H124	H	1.350100	-0.289608	0.325230
H125	H	0.846176	-0.699370	-0.264877
H126	H	1.346176	-0.199370	0.235123
H127	H	1.180791	-0.622602	-0.036917
H128	H	1.680791	-0.122602	0.463083
