data_functionalizedCrystal
_audit_creation_method	'MofGen! by Chris Wilmer'
_symmetry_space_group_name_H-M	'P1'
_symmetry_Int_Tables_number	1
_symmetry_cell_setting	triclinic
loop_
_symmetry_equiv_pos_as_xyz
  x,y,z
_cell_length_a	23.096457
_cell_length_b	21.606444
_cell_length_c	21.606444
_cell_angle_alpha	59.991153
_cell_angle_beta	90.000061
_cell_angle_gamma	60.002667
loop_
_atom_site_label
_atom_site_type_symbol
_atom_site_fract_x
_atom_site_fract_y
_atom_site_fract_z
Zr1	Zr	0.557764	0.677523	-0.081358
O2	O	0.465312	0.806656	-0.180203
O3	O	0.586105	0.548392	-0.051042
O4	O	0.586100	0.677528	-0.180186
O5	O	0.465322	0.677516	0.050795
O6	O	0.681380	0.677530	-0.180190
O7	O	0.465317	0.677520	-0.051059
O8	O	0.681390	0.446529	0.050826
O9	O	0.465312	0.908516	-0.180220
O10	O	0.669300	0.601506	-0.038133
O11	O	0.598197	0.601502	0.037882
O12	O	0.598190	0.753543	-0.114168
O13	O	0.527087	0.753538	-0.038153
Zr14	Zr	0.709733	0.677519	0.081082
Zr15	Zr	0.709726	0.677526	-0.081364
Zr16	Zr	0.557772	0.677516	0.081088
Zr17	Zr	0.557765	0.839979	-0.081385
Zr18	Zr	0.709732	0.515064	0.081109
O19	O	0.681392	0.806650	0.050765
O20	O	0.681381	0.806660	-0.180211
O21	O	0.465323	0.806646	0.050774
O22	O	0.802186	0.548386	0.179926
O23	O	0.802175	0.548396	-0.051050
O24	O	0.586116	0.548382	0.179935
O25	O	0.802175	0.677526	-0.051072
O26	O	0.681397	0.677514	0.179910
O27	O	0.586117	0.677513	0.179913
O28	O	0.802180	0.677522	0.050782
O29	O	0.586101	0.908518	-0.180225
O30	O	0.681396	0.446524	0.179948
O31	O	0.802185	0.446526	0.179943
O32	O	0.802179	0.446532	0.050821
O33	O	0.465318	0.908511	-0.051097
O34	O	0.586107	0.908513	-0.051102
O35	O	0.669307	0.601500	0.113892
O36	O	0.740410	0.601504	0.037877
O37	O	0.669301	0.753541	-0.038159
O38	O	0.598198	0.753536	0.037857
C39	C	0.633748	0.474315	-0.000104
C40	C	0.633747	0.405348	-0.000093
C41	C	0.581252	0.429084	-0.056219
C42	C	0.581254	0.364295	-0.056234
C43	C	0.633749	0.275770	-0.000120
C44	C	0.686249	0.252034	0.056009
C45	C	0.686250	0.316823	0.056021
C46	C	0.686249	-0.009252	0.055961
C47	C	0.686243	-0.074041	0.055946
C48	C	0.581253	0.038220	-0.056294
C49	C	0.581253	0.103008	-0.056282
C50	C	0.633756	0.079267	-0.000156
C51	C	0.633754	0.149520	-0.000140
C52	C	0.633748	0.205518	-0.000132
C53	C	0.443668	0.677518	-0.000131
C54	C	0.379157	0.677517	-0.000128
C55	C	0.385970	0.598158	0.039554
C56	C	0.325354	0.598156	0.039557
C57	C	0.257926	0.677519	-0.000136
C58	C	0.251116	0.756888	-0.039821
C59	C	0.311731	0.756887	-0.039816
N60	N	0.135128	0.736594	-0.064724
N61	N	0.077548	0.736589	-0.064727
C62	C	0.075294	0.677526	-0.000150
N63	N	0.132800	0.618455	0.064429
N64	N	0.190386	0.618457	0.064430
C65	C	0.192195	0.677529	-0.000145
C66	C	0.016383	0.598161	0.039540
C67	C	-0.044235	0.598163	0.039545
C68	C	-0.118473	0.756897	-0.039840
C69	C	-0.057855	0.756892	-0.039838
C70	C	0.009570	0.677522	-0.000150
C71	C	0.823829	0.677525	-0.000146
C72	C	0.888341	0.677526	-0.000148
C73	C	0.633739	0.677530	-0.203333
C74	C	0.633736	0.677533	-0.272295
C75	C	0.633750	0.880728	-0.000172
C76	C	0.633750	0.949694	-0.000184
C77	C	0.596617	0.756894	-0.344383
C78	C	0.596623	0.756891	-0.409178
C79	C	0.633744	0.677527	-0.401883
C80	C	0.670868	0.598160	-0.329787
C81	C	0.670865	0.598164	-0.264994
C82	C	0.670879	0.598145	-0.591090
C83	C	0.670877	0.598148	-0.655891
C84	C	0.596637	0.756873	-0.735275
C85	C	0.596634	0.756876	-0.670481
C86	C	0.633761	0.677510	-0.598391
C87	C	0.633755	0.677513	-0.528134
C88	C	0.633747	0.677523	-0.472139
C89	C	0.633758	0.677512	0.203056
C90	C	0.633762	0.677510	0.272019
C91	C	0.823828	0.474318	-0.000112
C92	C	0.888339	0.405353	-0.000103
C93	C	0.633757	0.474306	0.203090
C94	C	0.633760	0.405336	0.272064
C95	C	0.823838	0.474309	0.203083
C96	C	0.888352	0.405341	0.272054
C97	C	0.443660	0.880733	-0.203359
C98	C	0.379145	0.949701	-0.272331
C99	C	0.443670	0.880724	-0.000165
C100	C	0.379158	0.949690	-0.000174
C101	C	0.633740	0.880737	-0.203367
C102	C	0.633737	0.949706	-0.272341
C103	C	0.881515	0.372967	-0.039781
C104	C	0.942125	0.308176	-0.039788
C105	C	1.009557	0.275767	-0.000111
C106	C	1.016379	0.308159	0.039569
C107	C	0.955771	0.372954	0.039571
C108	C	0.670880	0.372947	0.344138
C109	C	0.670880	0.308151	0.408953
C110	C	0.633764	0.275743	0.401692
C111	C	0.596639	0.308139	0.329610
C112	C	0.596636	0.372937	0.264797
C113	C	0.955770	0.372955	0.264765
C114	C	1.016394	0.308161	0.329565
C115	C	1.009598	0.275750	0.401653
C116	C	0.942173	0.308142	0.408941
C117	C	0.881551	0.372939	0.344142
C118	C	0.311727	0.982095	-0.265041
C119	C	0.251103	1.046909	-0.329841
C120	C	0.257899	1.079324	-0.401930
C121	C	0.325324	1.046928	-0.409218
C122	C	0.385947	0.982119	-0.344419
C123	C	0.385982	0.982082	0.039498
C124	C	0.325373	1.046892	0.039487
C125	C	0.257940	1.079303	-0.000192
C126	C	0.251118	1.046907	-0.039869
C127	C	0.311727	0.982104	-0.039862
C128	C	0.670861	0.982094	-0.265055
C129	C	0.670872	1.046890	-0.329857
C130	C	0.633755	1.079300	-0.401944
C131	C	0.596630	1.046906	-0.409228
C132	C	0.596624	0.982107	-0.344427
H133	H	0.538505	0.057545	-0.101997
O134	O	0.089110	0.512561	0.082353
H135	H	0.083662	0.457375	0.109960
O136	O	0.808791	0.407917	-0.082587
H137	H	0.779401	0.479403	-0.126445
H138	H	0.306161	0.955731	-0.072166
O139	O	-0.036885	0.512561	0.082343
H140	H	-0.007441	0.474489	0.143332
O141	O	0.710937	0.273202	0.486693
H142	H	0.736757	0.306613	0.480847
O143	O	1.074926	0.205883	-0.000118
H144	H	1.106941	0.146830	0.058973
H145	H	0.208595	1.132070	-0.000192
H146	H	-0.173373	0.821515	-0.072160
H147	H	0.936556	0.281810	-0.072100
H148	H	0.633773	0.222980	0.454473
H149	H	1.071289	0.281794	0.323617
H150	H	1.071291	0.281762	0.071872
O151	O	0.524633	0.389893	-0.116768
H152	H	0.488125	0.462334	-0.155779
H153	H	0.196207	1.073306	-0.072175
O154	O	0.710906	0.947133	-0.187308
H155	H	0.736727	0.980540	-0.193141
H156	H	0.728994	-0.146126	0.101643
O157	O	0.192511	1.149224	-0.471819
H158	H	0.192547	1.208275	-0.506038
O159	O	0.332650	1.081886	-0.486972
H160	H	0.279165	1.132384	-0.530799
O161	O	0.710913	1.081825	-0.321993
H162	H	0.736709	1.048408	-0.260979
O163	O	0.633754	1.149202	-0.471836
H164	H	0.665799	1.166282	-0.454651
H165	H	0.566410	1.073305	-0.467930
O166	O	0.963108	0.407917	0.187016
H167	H	1.020178	0.374512	0.192846
O168	O	-0.065197	0.842487	-0.082651
H169	H	-0.122266	0.897674	-0.110259
O170	O	0.710931	0.512535	-0.648008
H171	H	0.673466	0.508716	-0.675615
H172	H	0.826658	0.399299	0.350088
H173	H	0.701105	0.399326	0.350065
O174	O	0.524636	0.524565	-0.116746
H175	H	0.488139	0.530182	-0.155782
O176	O	0.524641	0.198490	-0.116811
H177	H	0.488142	0.204111	-0.155849
O178	O	0.556614	0.407786	0.187088
H179	H	0.515553	0.479267	0.155599
H180	H	0.566390	0.955744	-0.350369
H181	H	0.728994	0.179951	0.101695
O182	O	0.556631	0.273157	0.321782
H183	H	0.562889	0.222643	0.378964
H184	H	0.936651	0.281743	0.467644
O185	O	0.742869	-0.034859	0.116499
H186	H	0.779365	-0.107300	0.155520
O187	O	0.304388	0.842484	-0.082626
H188	H	0.247319	0.897672	-0.110232
O189	O	0.742869	0.291232	0.116553
H190	H	0.740289	0.251877	0.173134
O191	O	0.458691	0.512554	0.082361
H192	H	0.464858	0.474495	0.143350
O193	O	0.332691	0.512560	0.082350
H194	H	0.389760	0.457370	0.109943
H195	H	0.196212	0.821505	-0.072139
O196	O	0.458663	0.947170	-0.352284
H197	H	0.453196	0.980595	-0.413300
H198	H	0.566384	0.821521	-0.350332
O199	O	0.963134	0.407869	0.082383
H200	H	1.020208	0.374435	0.109977
H201	H	0.566399	0.821515	-0.467874
H202	H	0.566404	0.821502	-0.676428
H203	H	1.058967	0.222987	0.454411
O204	O	0.710911	0.512548	-0.513342
H205	H	0.736714	0.457363	-0.519158
H206	H	0.566409	0.821497	-0.793980
O207	O	0.304391	0.947140	-0.187292
H208	H	0.274970	1.001535	-0.180707
O209	O	0.710905	0.512556	-0.321912
H210	H	0.704665	0.525885	-0.379078
H211	H	0.701091	0.533540	-0.206297
H212	H	0.440883	0.955698	0.071815
O213	O	0.178385	1.081829	-0.321973
H214	H	0.183851	1.048381	-0.260957
H215	H	0.330942	1.073257	0.071800
