data_functionalizedCrystal
_audit_creation_method	'MofGen! by Chris Wilmer'
_symmetry_space_group_name_H-M	'P1'
_symmetry_Int_Tables_number	1
_symmetry_cell_setting	triclinic
loop_
_symmetry_equiv_pos_as_xyz
  x,y,z
_cell_length_a	16.704495
_cell_length_b	23.096457
_cell_length_c	23.096457
_cell_angle_alpha	119.997452
_cell_angle_beta	85.835430
_cell_angle_gamma	62.456666
loop_
_atom_site_label
_atom_site_type_symbol
_atom_site_fract_x
_atom_site_fract_y
_atom_site_fract_z
Zr1	Zr	-0.773210	-0.633750	-0.035365
O2	O	-0.645037	-0.754542	-0.134541
O3	O	-0.812506	-0.512960	-0.004964
O4	O	-0.812496	-0.633750	-0.125751
O5	O	-0.645050	-0.633751	0.081528
O6	O	-0.944585	-0.633750	-0.118816
O7	O	-0.645047	-0.633751	-0.013754
O8	O	-0.944603	-0.417677	0.097251
O9	O	-0.645032	-0.849823	-0.134539
O10	O	-0.927837	-0.562642	0.013180
O11	O	-0.829263	-0.562642	0.079112
O12	O	-0.829251	-0.704858	-0.063100
O13	O	-0.730676	-0.704858	0.002831
Zr14	Zr	-0.983883	-0.633749	0.127660
Zr15	Zr	-0.983878	-0.633749	-0.024303
Zr16	Zr	-0.773215	-0.633750	0.116598
Zr17	Zr	-0.773202	-0.785714	-0.035361
Zr18	Zr	-0.983890	-0.481786	0.127656
O19	O	-0.944587	-0.754540	0.097259
O20	O	-0.944579	-0.754540	-0.118813
O21	O	-0.645045	-0.754541	0.081530
O22	O	-1.112056	-0.512958	0.226836
O23	O	-1.112048	-0.512958	0.010765
O24	O	-0.812513	-0.512959	0.211108
O25	O	-1.112042	-0.633749	0.010767
O26	O	-0.944597	-0.633749	0.218046
O27	O	-0.812507	-0.633750	0.211111
O28	O	-1.112046	-0.633749	0.106049
O29	O	-0.812485	-0.849823	-0.125746
O30	O	-0.944608	-0.417677	0.218041
O31	O	-1.112060	-0.417676	0.226834
O32	O	-1.112056	-0.417676	0.106044
O33	O	-0.645037	-0.849823	-0.013749
O34	O	-0.812489	-0.849822	-0.004956
O35	O	-0.927842	-0.562642	0.155395
O36	O	-1.026417	-0.562641	0.089464
O37	O	-0.927830	-0.704857	0.013183
O38	O	-0.829256	-0.704857	0.079115
C39	C	-0.878556	-0.443667	0.046143
C40	C	-0.878559	-0.379155	0.046142
C41	C	-0.615033	-0.633751	0.032311
C42	C	-0.525599	-0.633751	0.027615
C43	C	-0.930017	0.081365	0.011740
C44	C	-0.930014	0.020745	0.011734
C45	C	-0.878560	-0.009568	0.046149
C46	C	-0.827085	0.020730	0.080558
C47	C	-0.827082	0.081343	0.080557
N48	N	-0.885704	-0.071961	0.106930
N49	N	-0.885712	-0.129540	0.106930
C50	C	-0.878563	-0.192194	0.046153
N51	N	-0.871426	-0.195086	-0.014622
N52	N	-0.871423	-0.137499	-0.014620
C53	C	-0.878556	-0.075293	0.046154
C54	C	-0.930025	-0.288220	0.011735
C55	C	-0.930015	-0.348845	0.011726
C56	C	-0.827092	-0.348853	0.080558
C57	C	-0.827097	-0.288235	0.080560
C58	C	-0.878568	-0.257919	0.046150
C59	C	-0.399544	-0.633753	-0.031493
C60	C	-0.483575	-0.633753	-0.027084
C61	C	-0.483585	-0.633753	0.077906
C62	C	-0.399553	-0.633753	0.073496
C63	C	-0.357537	-0.633752	0.018795
C64	C	-0.273508	-0.633747	0.014389
C65	C	-0.273515	-0.633753	0.119375
C66	C	-0.357546	-0.633752	0.123785
C67	C	-0.142060	-0.633749	0.059984
C68	C	-0.231494	-0.633748	0.064680
C69	C	-0.878540	-0.633750	-0.143935
C70	C	-0.878538	-0.633750	-0.208447
C71	C	-0.878542	0.176168	0.046150
C72	C	-0.878554	0.111659	0.046148
C73	C	-0.805779	-0.633759	-0.672783
C74	C	-0.805779	-0.633753	-0.612164
C75	C	-0.878547	-0.633754	-0.578031
C76	C	-0.951336	-0.633739	-0.604510
C77	C	-0.951340	-0.633737	-0.665123
N78	N	-0.900576	-0.680110	-0.504879
N79	N	-0.900567	-0.680114	-0.447300
C80	C	-0.878542	-0.633759	-0.395405
N81	N	-0.856507	-0.587410	-0.403270
N82	N	-0.856512	-0.587410	-0.460856
C83	C	-0.878552	-0.633756	-0.512305
C84	C	-0.805761	-0.633762	-0.303200
C85	C	-0.805767	-0.633751	-0.242577
C86	C	-0.951321	-0.633745	-0.234928
C87	C	-0.951319	-0.633748	-0.295546
C88	C	-0.878533	-0.633760	-0.329680
C89	C	-0.878553	-0.633749	0.236230
C90	C	-0.878555	-0.633749	0.300742
C91	C	-1.142069	-0.443666	0.059980
C92	C	-1.231506	-0.379153	0.064674
C93	C	-0.878562	-0.443666	0.236226
C94	C	-0.878568	-0.379154	0.300736
C95	C	-1.142075	-0.443665	0.250062
C96	C	-1.231515	-0.379152	0.319269
C97	C	-0.615017	-0.823834	-0.157767
C98	C	-0.525578	-0.888347	-0.226974
C99	C	-0.615024	-0.823834	0.032315
C100	C	-0.525587	-0.888346	0.027621
C101	C	-0.878531	-0.823833	-0.143931
C102	C	-0.878525	-0.888346	-0.208441
C103	C	-1.222049	-0.348857	0.027053
C104	C	-1.306077	-0.288249	0.031450
C105	C	-1.399560	-0.257934	0.073472
C106	C	-1.409015	-0.288235	0.111094
C107	C	-1.324988	-0.348846	0.106693
C108	C	-0.930028	-0.348858	0.370857
C109	C	-0.930029	-0.288250	0.431477
C110	C	-0.878575	-0.257935	0.421976
C111	C	-0.827109	-0.288237	0.351848
C112	C	-0.827103	-0.348848	0.291229
C113	C	-1.324980	-0.348856	0.317354
C114	C	-1.409026	-0.288248	0.382376
C115	C	-1.399604	-0.257933	0.449312
C116	C	-1.306129	-0.288235	0.451225
C117	C	-1.222085	-0.348846	0.386204
C118	C	-0.432113	-0.918651	-0.225059
C119	C	-0.348067	-0.979278	-0.290081
C120	C	-0.357489	-1.009596	-0.357017
C121	C	-0.450964	-0.979290	-0.358930
C122	C	-0.535007	-0.918668	-0.293909
C123	C	-0.535044	-0.918648	0.065235
C124	C	-0.451016	-0.979273	0.060822
C125	C	-0.357533	-1.009591	0.018798
C126	C	-0.348078	-0.979287	-0.018821
C127	C	-0.432104	-0.918667	-0.014412
C128	C	-0.929989	-0.918641	-0.198917
C129	C	-0.930003	-0.979250	-0.259524
C130	C	-0.878547	-1.009565	-0.329657
C131	C	-0.827082	-0.979264	-0.339180
C132	C	-0.827074	-0.918652	-0.278573
H133	H	-0.971926	0.106045	-0.016281
H134	H	-1.010587	-0.633738	-0.576714
O135	O	-1.121279	-0.381510	0.388279
H136	H	-1.064412	-0.428754	0.331825
O137	O	-1.029801	-0.633761	-0.324114
H138	H	-1.103178	-0.578260	-0.280873
H139	H	-0.785192	-0.373537	0.108576
O140	O	-0.228215	-0.633735	0.173627
H141	H	-0.271561	-0.633724	0.212408
H142	H	-0.971923	-0.003925	-0.016287
O143	O	-0.228186	-0.633752	-0.044612
H144	H	-0.151421	-0.689259	-0.078898
O145	O	-1.335163	-0.381546	0.245167
H146	H	-1.261027	-0.428781	0.200267
O147	O	-0.247247	-1.011989	-0.064147
H148	H	-0.190415	-1.059226	-0.060882
O149	O	-0.528906	-0.633766	0.136892
H150	H	-0.485574	-0.633774	0.171119
O151	O	-0.985524	-0.255532	-0.025390
H152	H	-0.933566	-0.267163	-0.069137
H153	H	-0.746506	-0.633754	-0.221019
H154	H	-1.468046	-0.208579	0.502251
O155	O	-1.029812	-0.633742	-0.198118
H156	H	-1.103182	-0.578227	-0.178141
O157	O	-0.771573	0.114025	0.117667
H158	H	-0.714702	0.102382	0.077196
O159	O	-1.121225	-0.381557	-0.018280
H160	H	-1.128782	-0.350309	-0.043706
H161	H	-0.424422	-0.893969	-0.170563
H162	H	-0.517774	-0.633755	-0.068034
O163	O	-1.029838	-0.633730	-0.693681
H164	H	-1.017617	-0.633725	-0.741562
O165	O	-0.878546	-1.074951	-0.395023
H166	H	-0.955176	-1.051686	-0.390952
H167	H	-1.298359	-0.263585	0.000813
O168	O	-0.771594	-0.255548	0.117669
H169	H	-0.714721	-0.267196	0.077194
H170	H	-0.271964	-1.003943	-0.288509
O171	O	-1.490187	-0.192553	0.078222
H172	H	-1.467896	-0.176578	0.045006
H173	H	-0.785162	-0.893992	-0.286338
H174	H	-0.391764	-0.633756	0.168319
H175	H	-1.298472	-0.263543	0.505733
H176	H	-0.971918	-0.373514	-0.016297
O177	O	-0.461231	-1.011941	0.101408
H178	H	-0.425400	-1.000316	0.140547
H179	H	-1.485130	-0.263582	0.380806
O180	O	-0.878610	-0.192548	0.487366
H181	H	-0.846427	-0.215811	0.517688
O182	O	-0.266905	-1.074951	0.014068
H183	H	-0.289197	-1.090911	0.047300
H184	H	-0.785217	-0.263546	0.344122
H185	H	-1.485141	-0.263543	0.145307
H186	H	-0.365339	-0.633744	-0.076028
O187	O	-1.335193	-0.381509	0.147284
H188	H	-1.414317	-0.350233	0.177249
H189	H	-0.971910	-1.003915	-0.251756
O190	O	-0.727251	-0.633814	-0.709623
H191	H	-0.676636	-0.633831	-0.681032
O192	O	-0.771755	-0.381409	0.215606
H193	H	-0.736044	-0.350097	0.219195
H194	H	-0.746514	-0.633761	-0.590604
O195	O	-0.266838	-1.074990	-0.427146
H196	H	-0.200266	-1.090963	-0.414562
O197	O	-0.461121	-1.011988	-0.431127
H198	H	-0.386972	-1.059224	-0.476012
O199	O	-0.985523	-0.381552	0.381114
H200	H	-1.021292	-0.350302	0.440061
H201	H	-0.746497	-0.633768	-0.330992
O202	O	-0.421900	-0.885978	-0.054976
H203	H	-0.342776	-0.917243	-0.084930
O204	O	-0.635817	-0.885974	-0.295977
H205	H	-0.628239	-0.917238	-0.353448
H206	H	-0.971890	-0.893967	-0.141817
H207	H	-0.611155	-0.893968	0.099460
O208	O	-0.771573	-1.011972	-0.414825
H209	H	-0.780220	-1.059216	-0.455363
O210	O	-0.985562	-0.255564	0.507109
H211	H	-0.955843	-0.306451	0.511708
O212	O	-0.771629	-0.011928	0.117713
H213	H	-0.780300	-0.059150	0.111952
