data_functionalizedCrystal
_audit_creation_method	'MofGen! by Chris Wilmer'
_symmetry_space_group_name_H-M	'P1'
_symmetry_Int_Tables_number	1
_symmetry_cell_setting	triclinic
loop_
_symmetry_equiv_pos_as_xyz
  x,y,z
_cell_length_a	19.288864
_cell_length_b	7.681481
_cell_length_c	8.634740
_cell_angle_alpha	96.632941
_cell_angle_beta	91.853277
_cell_angle_gamma	84.310256
loop_
_atom_site_label
_atom_site_type_symbol
_atom_site_fract_x
_atom_site_fract_y
_atom_site_fract_z
O1	O	0.928878	0.146991	0.206967
O2	O	0.728394	0.146870	0.232892
O3	O	0.819146	0.146922	-0.004481
O4	O	0.838126	0.146939	0.444341
O5	O	0.830312	-0.145930	-0.033764
O6	O	0.739560	-0.145981	0.203610
O7	O	0.940043	-0.145861	0.177684
Zn8	Zn	0.841574	-0.192417	0.185998
Zn9	Zn	0.826863	0.193427	0.224579
O10	O	0.849292	-0.145912	0.415058
C11	C	0.708044	0.000429	0.217415
C12	C	0.630771	0.000383	0.214905
N13	N	0.851619	-0.455746	0.159666
C14	C	0.595591	0.000416	0.354191
C15	C	0.522983	0.000436	0.351840
C16	C	0.485555	0.000457	0.210197
C17	C	0.520744	0.000414	0.070891
C18	C	0.593352	0.000377	0.073245
C19	C	0.365770	0.103111	0.109113
C20	C	0.293163	0.103159	0.106766
C21	C	0.261608	0.000563	0.202930
C22	C	0.302668	-0.102057	0.301470
C23	C	0.375276	-0.102094	0.303824
C24	C	0.406824	0.000496	0.207629
C25	C	0.147698	0.000615	0.339676
C26	C	0.075088	0.000624	0.337317
C27	C	0.072850	0.000620	0.056367
C28	C	0.145459	0.000594	0.058728
C29	C	0.182878	0.000600	0.200387
C30	C	0.960393	0.000584	0.193162
C31	C	1.037666	0.000642	0.195673
C32	C	0.820429	0.000497	-0.076543
C33	C	0.807608	0.000498	-0.247637
N34	N	0.816823	0.456756	0.250898
C35	C	0.848009	0.000517	0.487120
C36	C	0.860829	0.000528	0.658215
H37	H	0.494334	0.000458	0.465267
C38	C	0.031689	0.000654	-0.099436
H39	H	-0.016594	0.000693	-0.080891
H40	H	0.047003	-0.101471	-0.166988
H41	H	0.039252	0.102790	-0.146542
H42	H	0.046447	0.000640	0.450745
C43	C	0.636750	0.000390	0.510007
H44	H	0.605395	0.000395	0.592623
H45	H	0.661249	0.102492	0.526986
H46	H	0.668993	-0.101768	0.506546
C47	C	0.420440	-0.214983	0.412192
H48	H	0.391254	-0.276093	0.469124
H49	H	0.446456	-0.141034	0.482739
H50	H	0.451468	-0.297501	0.351554
C51	C	0.267968	-0.214907	0.407266
H52	H	0.218845	-0.200204	0.391745
H53	H	0.279311	-0.178827	0.513231
H54	H	0.284330	-0.335317	0.382067
C55	C	0.188863	0.000604	0.495490
H56	H	0.157510	0.000601	0.578108
H57	H	0.213355	0.102717	0.512462
H58	H	0.221112	-0.101543	0.492033
H59	H	0.174102	0.000576	-0.054694
C60	C	0.248004	0.216027	-0.001626
H61	H	0.277196	0.277096	-0.058584
H62	H	0.216972	0.298552	0.058977
H63	H	0.221994	0.142048	-0.072173
H64	H	0.916198	0.000626	0.708511
C65	C	0.732798	0.000459	0.684440
H66	H	0.701129	0.000456	0.766448
H67	H	0.729446	-0.101665	0.612276
H68	H	0.721664	0.102595	0.632712
C69	C	0.479580	0.000441	-0.084915
H70	H	0.510934	0.000404	-0.167537
H71	H	0.447334	0.102580	-0.081464
H72	H	0.455086	-0.101680	-0.101882
C73	C	0.400477	0.215966	0.003326
H74	H	0.449600	0.201234	0.018826
H75	H	0.384117	0.336367	0.028522
H76	H	0.389134	0.179885	-0.102648
H77	H	0.781302	-0.468068	0.344019
C78	C	0.632050	0.000362	-0.079974
H79	H	0.599363	0.000387	-0.164671
H80	H	0.664209	-0.101768	-0.095110
H81	H	0.656446	0.102492	-0.074674
H82	H	0.887148	-0.530931	0.066551
