data_functionalizedCrystal
_audit_creation_method	'MofGen! by Chris Wilmer'
_symmetry_space_group_name_H-M	'P1'
_symmetry_Int_Tables_number	1
_symmetry_cell_setting	triclinic
loop_
_symmetry_equiv_pos_as_xyz
  x,y,z
_cell_length_a	16.992694
_cell_length_b	13.930277
_cell_length_c	16.974755
_cell_angle_alpha	86.338556
_cell_angle_beta	92.979425
_cell_angle_gamma	90.001555
loop_
_atom_site_label
_atom_site_type_symbol
_atom_site_fract_x
_atom_site_fract_y
_atom_site_fract_z
O1	O	1.040203	0.092741	-0.167651
O2	O	0.811919	0.092626	-0.165811
O3	O	0.932433	0.083762	-0.052028
O4	O	0.919689	0.101605	-0.281433
O5	O	0.932416	-0.075901	-0.052025
O6	O	0.811903	-0.067036	-0.165808
O7	O	1.040186	-0.066921	-0.167647
Zn8	Zn	0.926042	-0.092328	-0.166727
Zn9	Zn	0.926064	0.118033	-0.166731
O10	O	0.919673	-0.058057	-0.281430
C11	C	0.782701	0.012615	-0.163443
C12	C	0.695665	0.012077	-0.156384
N13	N	0.926032	-0.235895	-0.166723
C14	C	0.645347	0.017374	-0.224500
C15	C	0.563568	0.016845	-0.217862
C16	C	0.532109	0.011024	-0.143107
C17	C	0.582434	0.005724	-0.074985
C18	C	0.664211	0.006246	-0.081624
C19	C	0.288542	0.008858	-0.115592
C20	C	0.206759	0.008339	-0.108958
C21	C	0.187898	0.019458	-0.251835
C22	C	0.269678	0.019986	-0.258468
C23	C	0.319996	0.014681	-0.190346
N24	N	0.448518	0.010486	-0.136320
N25	N	0.403585	0.015212	-0.197134
C26	C	0.872698	-0.684240	-0.217093
C27	C	0.979450	-0.692057	-0.116365
C28	C	0.979441	-0.591561	-0.116362
C29	C	0.926060	-0.537400	-0.166726
C30	C	0.872689	-0.583735	-0.217093
C31	C	1.032817	-0.545219	-0.066001
C32	C	1.032810	-0.444717	-0.065997
C33	C	0.979425	-0.390555	-0.116357
C34	C	0.926051	-0.436895	-0.166726
C35	C	0.872670	-0.382734	-0.217090
C36	C	0.819292	-0.429073	-0.267456
C37	C	0.819304	-0.529572	-0.267454
C38	C	0.979413	-0.290056	-0.116359
C39	C	0.872661	-0.282229	-0.217091
C40	C	1.069404	0.013092	-0.170015
C41	C	1.156440	0.013637	-0.177074
C42	C	0.931942	0.001639	-0.022537
C43	C	0.930496	-0.005189	0.065332
N44	N	0.926079	0.261599	-0.166729
C45	C	0.920163	0.024068	-0.310921
C46	C	0.921609	0.030902	-0.398790
C47	C	0.922283	-0.052926	0.559941
C48	C	0.923649	-0.046515	0.477379
C49	C	0.924348	0.043725	0.436087
C50	C	0.923672	0.127559	0.477362
C51	C	0.922300	0.121147	0.559922
C52	C	0.928448	0.072233	0.189167
C53	C	0.929822	0.078639	0.106601
C54	C	0.929798	-0.095435	0.106623
C55	C	0.928431	-0.101839	0.189186
C56	C	0.927751	-0.018005	0.230453
N57	N	0.925747	0.050280	0.351696
N58	N	0.926346	-0.024561	0.314842
H59	H	0.670954	0.022114	-0.285374
H60	H	0.924210	-0.114776	0.443782
H61	H	0.927866	-0.175322	0.222800
H62	H	0.930390	0.152126	0.072984
C63	C	0.125734	0.083376	-0.018603
C64	C	0.172175	0.001936	-0.026782
H65	H	0.104387	0.079425	0.032128
H66	H	0.084070	0.086455	-0.058220
H67	H	0.157255	0.139480	-0.024156
H68	H	0.140653	-0.054167	-0.021235
H69	H	0.213845	-0.001152	0.012847
H70	H	0.556813	0.000971	-0.014118
H71	H	0.921747	0.189408	0.593522
H72	H	1.022915	-0.736157	-0.075364
H73	H	0.146921	0.023776	-0.307296
C74	C	0.928682	0.244938	0.180845
C75	C	0.927752	0.164383	0.234524
H76	H	0.928271	0.301829	0.208852
H77	H	0.883507	0.244104	0.145512
H78	H	0.974906	0.243520	0.151776
H79	H	0.881525	0.165797	0.263590
H80	H	0.972931	0.165217	0.269872
C81	C	0.931883	-0.162903	-0.019926
C82	C	0.930535	-0.187581	0.061260
H83	H	0.932331	-0.219795	-0.047930
H84	H	0.977812	-0.126356	-0.030308
H85	H	0.886413	-0.125834	-0.036600
H86	H	0.976009	-0.224645	0.077936
H87	H	0.884602	-0.224144	0.071648
C88	C	0.765930	-0.168421	-0.227450
C89	C	0.813982	-0.222699	-0.272454
H90	H	0.729703	-0.131675	-0.261630
H91	H	0.797716	-0.126443	-0.197466
H92	H	0.737774	-0.210340	-0.192740
H93	H	0.842143	-0.180780	-0.307161
H94	H	0.782192	-0.264682	-0.302452
H95	H	0.329502	0.004537	-0.060122
C96	C	0.767166	-0.666403	-0.316651
C97	C	0.814022	-0.735169	-0.272450
H98	H	0.730938	-0.697847	-0.350821
H99	H	0.799763	-0.624832	-0.347177
H100	H	0.739011	-0.629904	-0.281930
H101	H	0.842182	-0.771664	-0.307171
H102	H	0.781421	-0.776757	-0.241921
H103	H	1.076273	-0.406994	-0.024986
C104	C	0.925819	0.214680	0.350797
C105	C	0.924459	0.226753	0.431977
H106	H	0.926316	0.275921	0.322782
H107	H	0.880337	0.180246	0.334117
H108	H	0.971735	0.179700	0.340435
H109	H	0.878539	0.261728	0.442340
H110	H	0.969945	0.261202	0.448663
H111	H	1.022877	-0.252331	-0.075356
C112	C	0.802147	-0.307761	-0.373972
C113	C	0.760618	-0.369531	-0.322816
H114	H	0.765924	-0.270997	-0.408144
H115	H	0.834736	-0.344593	-0.404494
H116	H	0.833935	-0.265792	-0.343967
H117	H	0.728834	-0.411505	-0.352820
H118	H	0.728014	-0.332696	-0.292290
H119	H	0.921718	-0.126409	0.593555
C120	C	1.080220	-0.702749	-0.021276
C121	C	1.091490	-0.604752	-0.010644
H122	H	1.116441	-0.739504	0.012906
H123	H	1.088672	-0.715064	-0.074582
H124	H	1.027905	-0.720140	-0.009349
H125	H	1.143804	-0.587359	-0.022577
H126	H	1.083045	-0.592431	0.042674
H127	H	0.522601	0.021160	-0.273330
H128	H	0.295285	0.024737	-0.319341
H129	H	0.705180	0.001933	-0.026156
H130	H	0.775845	-0.567308	-0.308461
