data_functionalizedCrystal
_audit_creation_method	'MofGen! by Chris Wilmer'
_symmetry_space_group_name_H-M	'P1'
_symmetry_Int_Tables_number	1
_symmetry_cell_setting	triclinic
loop_
_symmetry_equiv_pos_as_xyz
  x,y,z
_cell_length_a	10.654541
_cell_length_b	27.732048
_cell_length_c	9.730217
_cell_angle_alpha	89.991832
_cell_angle_beta	89.999932
_cell_angle_gamma	83.563292
loop_
_atom_site_label
_atom_site_type_symbol
_atom_site_fract_x
_atom_site_fract_y
_atom_site_fract_z
O1	O	1.664985	0.067880	-0.114265
O2	O	1.299234	0.074348	-0.114278
O3	O	1.493469	0.000788	-0.114245
O4	O	1.470750	0.141440	-0.114298
O5	O	1.493463	0.000787	0.114335
O6	O	1.299228	0.074348	0.114302
O7	O	1.664979	0.067879	0.114316
Zn8	Zn	1.482103	0.071113	0.150601
Zn9	Zn	1.482110	0.071114	-0.150563
O10	O	1.470744	0.141439	0.114282
C11	C	1.252453	0.073873	0.000011
C12	C	1.113069	0.072453	0.000007
C13	C	1.081401	0.160415	-0.000044
C14	C	1.000086	0.203726	-0.000074
C15	C	0.869124	0.202389	-0.000075
C16	C	0.819476	0.157735	-0.000041
C17	C	0.900791	0.114423	-0.000011
C18	C	1.031754	0.115766	-0.000014
C19	C	0.932459	0.026463	0.000049
C20	C	1.063421	0.027799	0.000040
C21	C	0.882811	-0.018191	0.000083
C22	C	0.964126	-0.061504	0.000104
C23	C	1.095095	-0.060164	0.000103
C24	C	1.144736	-0.015512	0.000071
C25	C	1.492989	-0.017222	0.000049
C26	C	1.491553	-0.070886	0.000060
C27	C	1.597293	-0.409043	-0.000006
C28	C	1.591965	-0.610736	-0.000026
O29	O	1.688656	-0.641390	-0.000082
N30	N	1.476791	-0.630576	-0.000029
C31	C	1.362942	-0.599990	-0.000036
O32	O	1.264858	-0.621494	-0.000053
C33	C	1.368271	-0.398299	-0.000026
C34	C	1.483452	-0.378461	-0.000009
C35	C	1.712464	-0.389205	0.000009
C36	C	1.713795	-0.338785	0.000021
C37	C	1.599954	-0.308203	0.000018
C38	C	1.484783	-0.328041	0.000003
C39	C	1.254423	-0.367713	-0.000043
C40	C	1.255766	-0.317288	-0.000044
C41	C	1.370947	-0.297450	-0.000027
C42	C	1.372273	-0.247038	0.000012
N43	N	1.487446	-0.227198	0.000015
C44	C	1.601287	-0.257780	0.000018
C45	C	1.360152	-0.705882	-0.000038
C46	C	1.358819	-0.756305	-0.000038
C47	C	1.587843	-0.767046	-0.000030
C48	C	1.589174	-0.716623	-0.000021
C49	C	1.475325	-0.686041	-0.000035
C50	C	1.604073	-0.151893	0.000045
C51	C	1.605394	-0.101468	0.000063
C52	C	1.376371	-0.090731	0.000049
C53	C	1.375050	-0.141151	0.000038
C54	C	1.488911	-0.171732	0.000032
O55	O	1.275633	-0.216356	0.000053
O56	O	1.699357	-0.236267	0.000005
C57	C	1.595962	-0.459463	-0.000019
C58	C	1.480790	-0.479301	-0.000034
C59	C	1.366950	-0.448719	-0.000037
C60	C	1.479458	-0.529724	-0.000034
C61	C	1.593298	-0.560306	-0.000031
C62	C	1.708472	-0.540466	-0.000028
C63	C	1.709803	-0.490045	-0.000016
C64	C	1.251777	-0.468560	-0.000040
C65	C	1.250455	-0.518981	-0.000051
C66	C	1.364296	-0.549563	-0.000048
C67	C	1.711760	0.068354	0.000024
C68	C	1.851144	0.069774	0.000019
C69	C	1.471224	0.159450	-0.000015
C70	C	1.472660	0.213113	-0.000035
N71	N	1.482107	0.071112	0.356137
N72	N	1.482117	0.071111	-0.356100
C73	C	1.654171	0.005994	0.356157
C74	C	1.740211	-0.026564	0.428107
C75	C	1.740224	-0.026565	0.571987
C76	C	1.654184	0.005996	0.643920
C77	C	1.568144	0.038554	0.571970
C78	C	1.568143	0.038551	0.428087
C79	C	1.396076	0.103669	0.571950
C80	C	1.396067	0.103673	0.428070
C81	C	1.310037	0.136229	0.643883
C82	C	1.224000	0.168790	0.571933
C83	C	1.223992	0.168790	0.428045
C84	C	1.310027	0.136230	0.356120
H85	H	1.040524	0.240082	-0.000098
C86	C	1.560480	0.041451	0.150041
C87	C	1.654166	0.005997	0.198003
H88	H	1.560487	0.041454	0.052402
H89	H	1.480371	0.034541	0.182588
H90	H	1.577060	0.072403	0.182590
H91	H	1.637581	-0.024956	0.165462
H92	H	1.734293	0.012904	0.165442
H93	H	1.801165	-0.565374	-0.000019
H94	H	1.163054	-0.292390	-0.000058
C95	C	1.816712	-0.055440	0.207554
C96	C	1.834852	-0.062326	0.349036
H97	H	1.875164	-0.077509	0.158746
H98	H	1.733053	-0.061021	0.183949
H99	H	1.829639	-0.023120	0.184014
H100	H	1.821916	-0.094645	0.372578
H101	H	1.918531	-0.056749	0.372651
C102	C	1.910305	-0.090935	0.557571
C103	C	1.834793	-0.062355	0.651083
H104	H	1.968689	-0.113029	0.606405
H105	H	1.858379	-0.108509	0.501465
H106	H	1.955077	-0.070650	0.501438
H107	H	1.790014	-0.082639	0.707209
H108	H	1.886726	-0.044780	0.707212
H109	H	1.699192	-0.085319	0.000081
C110	C	1.629765	-0.039641	0.850040
C111	C	1.654193	0.005991	0.802075
H112	H	1.629778	-0.039643	0.947679
H113	H	1.549646	-0.046539	0.817500
H114	H	1.693321	-0.063687	0.817485
H115	H	1.590632	0.030038	0.834622
H116	H	1.734323	0.012895	0.834629
C117	C	1.340965	-0.037541	-0.117419
C118	C	1.288690	-0.014038	0.000067
H119	H	1.429835	-0.036626	-0.117420
H120	H	1.323043	-0.070328	-0.117383
H121	H	1.305481	-0.021600	-0.197134
H122	H	1.324167	-0.029981	0.079782
H123	H	1.306623	0.018755	0.000044
C124	C	0.835214	-0.114040	-0.117359
C125	C	0.909553	-0.110583	0.000138
H126	H	0.801528	-0.144342	-0.117340
H127	H	0.768054	-0.088439	-0.117357
H128	H	0.885655	-0.111691	-0.197066
H129	H	0.859111	-0.112928	0.079846
H130	H	0.976723	-0.136191	0.000149
H131	H	0.776174	-0.019277	0.000090
H132	H	1.803594	-0.473898	-0.000002
H133	H	1.159072	-0.443664	-0.000046
H134	H	0.802916	0.237657	-0.000090
C135	C	1.403745	0.100782	0.850005
C136	C	1.310051	0.136232	0.802038
H137	H	1.403757	0.100788	0.947644
H138	H	1.387166	0.069831	0.817484
H139	H	1.483858	0.107691	0.817433
H140	H	1.229936	0.129320	0.834602
H141	H	1.326622	0.167190	0.834573
C142	C	1.191903	0.126051	0.150026
C143	C	1.310017	0.136231	0.197966
H144	H	1.191899	0.126053	0.052387
H145	H	1.175349	0.095099	0.182588
H146	H	1.128361	0.150104	0.182574
H147	H	1.373559	0.112176	0.165425
H148	H	1.326586	0.167187	0.165389
C149	C	1.147611	0.197699	0.792483
C150	C	1.129436	0.204578	0.651002
H151	H	1.089235	0.219796	0.841298
H152	H	1.134607	0.165395	0.816061
H153	H	1.231315	0.203250	0.816043
H154	H	1.045734	0.199023	0.627441
H155	H	1.142430	0.236889	0.627415
C156	C	1.053908	0.233156	0.442491
C157	C	1.129414	0.204580	0.348962
H158	H	0.995526	0.255254	0.393669
H159	H	1.009146	0.212872	0.498614
H160	H	1.105848	0.250729	0.498604
H161	H	1.077475	0.187005	0.292855
H162	H	1.174180	0.224867	0.292816
H163	H	1.696790	-0.176787	0.000035
H164	H	1.188035	0.161508	-0.000074
H165	H	0.712838	0.156650	-0.000026
H166	H	1.161296	-0.095434	0.000133
H167	H	1.807587	-0.322638	0.000030
H168	H	1.682964	-0.700475	-0.000008
C169	C	1.938967	-0.394744	0.000041
C170	C	1.837613	-0.422816	0.000024
H171	H	2.016233	-0.415493	0.000068
H172	H	1.934724	-0.374854	-0.079669
H173	H	1.934691	-0.374854	0.079753
H174	H	1.841884	-0.442703	-0.079693
H175	H	1.841859	-0.442715	0.079743
H176	H	1.265028	-0.772452	-0.000028
C177	C	1.228748	-0.642947	-0.117553
C178	C	1.234995	-0.672271	-0.000047
H179	H	1.151476	-0.622202	-0.117555
H180	H	1.297509	-0.623910	-0.117542
H181	H	1.233000	-0.662842	-0.197254
H182	H	1.230752	-0.652376	0.079655
H183	H	1.166214	-0.691310	-0.000045
C184	C	1.120059	-0.418164	-0.117591
C185	C	1.127811	-0.389510	-0.000078
H186	H	1.041890	-0.431621	-0.117609
H187	H	1.125362	-0.398711	-0.197279
H188	H	1.187660	-0.443599	-0.117565
H189	H	1.060215	-0.364072	-0.000109
H190	H	1.122495	-0.408964	0.079630
C191	C	1.240698	-0.191616	-0.117484
C192	C	1.248448	-0.162963	0.000032
H193	H	1.162542	-0.205082	-0.117489
H194	H	1.245973	-0.172160	-0.197170
H195	H	1.308316	-0.217045	-0.117475
H196	H	1.180836	-0.137533	0.000018
H197	H	1.243161	-0.182421	0.079738
H198	H	1.283685	-0.065822	0.000051
H199	H	1.680536	-0.791955	-0.000027
H200	H	1.156654	-0.535127	-0.000053
