data_functionalizedCrystal
_audit_creation_method	'MofGen! by Chris Wilmer'
_symmetry_space_group_name_H-M	'P1'
_symmetry_Int_Tables_number	1
_symmetry_cell_setting	triclinic
loop_
_symmetry_equiv_pos_as_xyz
  x,y,z
_cell_length_a	19.805407
_cell_length_b	19.805405
_cell_length_c	19.805399
_cell_angle_alpha	90.026615
_cell_angle_beta	90.020409
_cell_angle_gamma	90.028666
loop_
_atom_site_label
_atom_site_type_symbol
_atom_site_fract_x
_atom_site_fract_y
_atom_site_fract_z
Zn1	Zn	1.034734	-0.269444	0.382739
Zn2	Zn	1.368068	0.063890	0.716073
Zn3	Zn	1.701401	0.397223	1.049406
Zn4	Zn	1.034648	-0.382632	0.269553
Zn5	Zn	1.367982	-0.049299	0.602886
Zn6	Zn	1.701315	0.284034	0.936220
Zn7	Zn	0.921549	-0.269466	0.269562
Zn8	Zn	1.254882	0.063867	0.602896
Zn9	Zn	1.588216	0.397200	0.936229
Zn10	Zn	0.921512	-0.382600	0.382698
Zn11	Zn	1.254845	-0.049267	0.716031
Zn12	Zn	1.588178	0.284067	1.049365
O13	O	0.978111	-0.326036	0.326138
O14	O	1.311444	0.007298	0.659471
O15	O	1.644777	0.340631	0.992805
O16	O	1.129439	-0.284463	0.367738
O17	O	1.462773	0.048871	0.701072
O18	O	1.796106	0.382204	1.034405
O19	O	1.019625	-0.367643	0.174838
O20	O	1.352958	-0.034310	0.508171
O21	O	1.686292	0.299023	0.841504
O22	O	0.936615	-0.174747	0.284597
O23	O	1.269948	0.158587	0.617930
O24	O	1.603281	0.491920	0.951263
O25	O	1.129376	-0.367622	0.284581
O26	O	1.462710	-0.034288	0.617914
O27	O	1.796043	0.299045	0.951247
O28	O	1.019771	-0.174730	0.367747
O29	O	1.353105	0.158603	0.701081
O30	O	1.686438	0.491936	1.034414
O31	O	0.936531	-0.284501	0.174844
O32	O	1.269865	0.048832	0.508178
O33	O	1.603198	0.382166	0.841511
O34	O	0.826827	-0.284470	0.284557
O35	O	1.160161	0.048864	0.617890
O36	O	1.493494	0.382197	0.951223
O37	O	0.936551	-0.367567	0.477420
O38	O	1.269885	-0.034233	0.810753
O39	O	1.603218	0.299100	1.144087
O40	O	0.826800	-0.367589	0.367677
O41	O	1.160133	-0.034255	0.701010
O42	O	1.493467	0.299078	1.034344
O43	O	1.019735	-0.284431	0.477450
O44	O	1.353069	0.048902	0.810784
O45	O	1.686402	0.382235	1.144117
O46	O	1.019589	-0.477345	0.284541
O47	O	1.352923	-0.144011	0.617874
O48	O	1.686256	0.189322	0.951207
O49	O	0.936468	-0.477321	0.367668
O50	O	1.269801	-0.143988	0.701001
O51	O	1.603135	0.189346	1.034335
C52	C	0.802255	-0.326029	0.326114
C53	C	1.135588	0.007305	0.659447
C54	C	1.468921	0.340638	0.992780
C55	C	0.727023	-0.326042	0.326119
C56	C	1.060356	0.007291	0.659453
C57	C	1.393689	0.340625	0.992786
C58	C	0.978034	-0.501892	0.326114
C59	C	1.311367	-0.168558	0.659447
C60	C	1.644700	0.164775	0.992780
C61	C	0.978063	-0.577124	0.326126
C62	C	1.311396	-0.243790	0.659459
C63	C	1.644729	0.089543	0.992792
C64	C	0.265268	-0.282816	0.369531
C65	C	0.598601	0.050518	0.702864
C66	C	0.931935	0.383851	1.036197
C67	C	0.335957	-0.282817	0.369526
C68	C	0.669290	0.050516	0.702859
C69	C	1.002623	0.383850	1.036193
C70	C	0.371261	-0.326046	0.326160
C71	C	0.704594	0.007287	0.659493
C72	C	1.037928	0.340621	0.992827
C73	C	0.335874	-0.369281	0.282801
C74	C	0.669207	-0.035948	0.616134
C75	C	1.002540	0.297385	0.949468
C76	C	0.265186	-0.369283	0.282810
C77	C	0.598520	-0.035950	0.616143
C78	C	0.931853	0.297384	0.949477
C79	C	0.620947	-0.369276	0.282765
C80	C	0.954280	-0.035943	0.616099
C81	C	1.287613	0.297391	0.949432
C82	C	0.691639	-0.369270	0.282758
C83	C	1.024972	-0.035936	0.616092
C84	C	1.358306	0.297397	0.949425
C85	C	0.691717	-0.282810	0.369481
C86	C	1.025050	0.050523	0.702815
C87	C	1.358384	0.383857	1.036148
C88	C	0.621030	-0.282812	0.369490
C89	C	0.954363	0.050522	0.702823
C90	C	1.287696	0.383855	1.036157
C91	C	0.585648	-0.326049	0.326134
C92	C	0.918982	0.007284	0.659467
C93	C	1.252315	0.340617	0.992801
C94	C	0.509000	-0.326048	0.326141
C95	C	0.842333	0.007285	0.659474
C96	C	1.175667	0.340618	0.992807
C97	C	0.447908	-0.326044	0.326149
C98	C	0.781242	0.007289	0.659483
C99	C	1.114575	0.340623	0.992816
C100	C	1.021337	-0.612401	0.369456
C101	C	1.354670	-0.279068	0.702790
C102	C	1.688003	0.054266	1.036123
C103	C	1.021361	-0.683089	0.369469
C104	C	1.354695	-0.349756	0.702802
C105	C	1.688028	-0.016423	1.036136
C106	C	0.978114	-0.718499	0.326147
C107	C	1.311448	-0.385166	0.659480
C108	C	1.644781	-0.051832	0.992814
C109	C	0.934835	-0.683217	0.282815
C110	C	1.268169	-0.349884	0.616148
C111	C	1.601502	-0.016550	0.949481
C112	C	0.934808	-0.612530	0.282806
C113	C	1.268141	-0.279196	0.616139
C114	C	1.601475	0.054137	0.949473
C115	C	0.934944	-0.968290	0.282849
C116	C	1.268278	-0.634957	0.616183
C117	C	1.601611	-0.301623	0.949516
C118	C	0.934976	-1.038982	0.282860
C119	C	1.268310	-0.705649	0.616193
C120	C	1.601643	-0.372316	0.949527
C121	C	1.021497	-1.038850	0.369512
C122	C	1.354831	-0.705516	0.702846
C123	C	1.688164	-0.372183	1.036179
C124	C	1.021470	-0.968163	0.369504
C125	C	1.354803	-0.634829	0.702837
C126	C	1.688137	-0.301496	1.036170
C127	C	0.978189	-0.932887	0.326174
C128	C	1.311522	-0.599553	0.659507
C129	C	1.644855	-0.266220	0.992841
C130	C	0.978162	-0.856238	0.326162
C131	C	1.311495	-0.522905	0.659495
C132	C	1.644829	-0.189571	0.992828
C133	C	0.978144	-0.795146	0.326155
C134	C	1.311478	-0.461813	0.659489
C135	C	1.644811	-0.128480	0.992822
C136	C	1.154654	-0.326043	0.326163
C137	C	1.487987	0.007290	0.659496
C138	C	1.821320	0.340624	0.992830
C139	C	1.229885	-0.326046	0.326174
C140	C	1.563219	0.007287	0.659507
C141	C	1.896552	0.340620	0.992840
C142	C	0.978149	-0.325993	0.502681
C143	C	1.311482	0.007340	0.836014
C144	C	1.644815	0.340674	1.169348
C145	C	0.978165	-0.325975	0.577913
C146	C	1.311498	0.007359	0.911246
C147	C	1.644832	0.340692	1.244580
C148	C	0.978207	-0.149493	0.326178
C149	C	1.311540	0.183840	0.659511
C150	C	1.644873	0.517174	0.992844
C151	C	0.978248	-0.074261	0.326194
C152	C	1.311581	0.259073	0.659528
C153	C	1.644914	0.592406	0.992861
C154	C	0.978112	-0.326029	0.150282
C155	C	1.311445	0.007304	0.483615
C156	C	1.644779	0.340637	0.816949
C157	C	0.978227	-0.325857	0.075051
C158	C	1.311560	0.007477	0.408384
C159	C	1.644894	0.340810	0.741717
C160	C	1.021480	-0.282684	0.613274
C161	C	1.354813	0.050649	0.946607
C162	C	1.688147	0.383983	1.279941
C163	C	1.021487	-0.282664	0.683962
C164	C	1.354820	0.050669	1.017296
C165	C	1.688153	0.384002	1.350629
C166	C	0.978182	-0.325939	0.719289
C167	C	1.311515	0.007394	1.052622
C168	C	1.644848	0.340727	1.385955
C169	C	0.934862	-0.369232	0.683923
C170	C	1.268195	-0.035899	1.017256
C171	C	1.601529	0.297435	1.350589
C172	C	0.934852	-0.369248	0.613235
C173	C	1.268186	-0.035914	0.946569
C174	C	1.601519	0.297419	1.279902
C175	C	0.934900	-0.369169	0.968996
C176	C	1.268234	-0.035836	1.302329
C177	C	1.601567	0.297498	1.635663
C178	C	0.934915	-0.369151	1.039688
C179	C	1.268248	-0.035818	1.373022
C180	C	1.601582	0.297515	1.706355
C181	C	1.021535	-0.282586	1.039723
C182	C	1.354868	0.050748	1.373056
C183	C	1.688202	0.384081	1.706390
C184	C	1.021525	-0.282601	0.969036
C185	C	1.354858	0.050732	1.302369
C186	C	1.688192	0.384065	1.635703
C187	C	0.978203	-0.325891	0.933676
C188	C	1.311536	0.007442	1.267009
C189	C	1.644870	0.340776	1.600343
C190	C	0.978195	-0.325911	0.857028
C191	C	1.311529	0.007422	1.190361
C192	C	1.644862	0.340756	1.523694
C193	C	0.978193	-0.325923	0.795936
C194	C	1.311526	0.007410	1.129269
C195	C	1.644859	0.340743	1.462602
H196	H	0.236528	-0.247609	0.404840
H197	H	0.569862	0.085724	0.738174
H198	H	0.903195	0.419057	1.071507
H199	H	0.899600	-0.404465	0.712691
H200	H	1.232933	-0.071132	1.046024
H201	H	1.566267	0.262202	1.379357
N202	N	0.888140	-0.415941	0.575088
N203	N	1.221473	-0.082608	0.908421
N204	N	1.554806	0.250725	1.241755
H205	H	0.856786	-0.388436	0.545762
H206	H	1.190119	-0.055103	0.879095
H207	H	1.523452	0.278230	1.212428
H208	H	0.860752	-0.443348	0.608231
H209	H	1.194085	-0.110014	0.941564
H210	H	1.527418	0.223319	1.274898
H211	H	1.056605	-0.711809	0.404748
H212	H	1.389938	-0.378476	0.738081
H213	H	1.723271	-0.045142	1.071414
H214	H	1.056791	-0.247365	0.940277
H215	H	1.390124	0.085969	1.273610
H216	H	1.723457	0.419302	1.606944
H217	H	1.056807	-0.247334	1.068522
H218	H	1.390141	0.085999	1.401855
H219	H	1.723474	0.419332	1.735188
N220	N	0.227015	-0.415907	0.236048
N221	N	0.560349	-0.082574	0.569381
N222	N	0.893682	0.250760	0.902714
H223	H	0.239299	-0.464281	0.246472
H224	H	0.572632	-0.130948	0.579806
H225	H	0.905966	0.202386	0.913139
H226	H	0.239311	-0.405275	0.187721
H227	H	0.572644	-0.071942	0.521055
H228	H	0.905977	0.261392	0.854388
H229	H	0.899705	-0.939574	0.247568
H230	H	1.233038	-0.606241	0.580901
H231	H	1.566371	-0.272907	0.914234
H232	H	0.899569	-0.583808	0.247523
H233	H	1.232902	-0.250474	0.580856
H234	H	1.566236	0.082859	0.914189
N235	N	1.068116	-0.929970	0.416227
N236	N	1.401449	-0.596637	0.749560
N237	N	1.734782	-0.263304	1.082894
H238	H	1.095533	-0.963045	0.443681
H239	H	1.428866	-0.629712	0.777014
H240	H	1.762200	-0.296379	1.110348
H241	H	1.040531	-0.900649	0.447519
H242	H	1.373864	-0.567316	0.780852
H243	H	1.707198	-0.233982	1.114185
N244	N	1.068180	-1.076897	0.416250
N245	N	1.401513	-0.743564	0.749583
N246	N	1.734846	-0.410231	1.082917
H247	H	1.061636	-1.127050	0.409686
H248	H	1.394969	-0.793717	0.743020
H249	H	1.728302	-0.460384	1.076353
H250	H	1.057614	-1.064520	0.464578
H251	H	1.390948	-0.731186	0.797912
H252	H	1.724281	-0.397853	1.131245
H253	H	0.899620	-0.712053	0.247544
H254	H	1.232954	-0.378720	0.580877
H255	H	1.566287	-0.045387	0.914211
N256	N	0.888324	-1.077171	0.236133
N257	N	1.221657	-0.743838	0.569467
N258	N	1.554991	-0.410505	0.902800
H259	H	0.856958	-1.106514	0.263617
H260	H	1.190292	-0.773181	0.596950
H261	H	1.523625	-0.439848	0.930283
H262	H	0.915909	-1.106452	0.204803
H263	H	1.249242	-0.773119	0.538137
H264	H	1.582575	-0.439785	0.871470
H265	H	0.720382	-0.404475	0.247443
H266	H	1.053715	-0.071142	0.580777
H267	H	1.387049	0.262192	0.914110
N268	N	1.068192	-0.236013	0.575175
N269	N	1.401526	0.097321	0.908508
N270	N	1.734859	0.430654	1.241841
H271	H	1.095632	-0.208585	0.608305
H272	H	1.428965	0.124748	0.941638
H273	H	1.762299	0.458082	1.274971
H274	H	1.040655	-0.204695	0.545847
H275	H	1.373988	0.128639	0.879180
H276	H	1.707322	0.461972	1.212513
N277	N	1.068191	-0.235959	0.722103
N278	N	1.401525	0.097374	1.055436
N279	N	1.734858	0.430707	1.388769
H280	H	1.095622	-0.208546	0.688998
H281	H	1.428955	0.124787	1.022331
H282	H	1.762289	0.458120	1.355664
H283	H	1.099506	-0.263494	0.751440
H284	H	1.432839	0.069840	1.084774
H285	H	1.766173	0.403173	1.418107
N286	N	0.888205	-0.415829	1.077793
N287	N	1.221539	-0.082495	1.411126
N288	N	1.554872	0.250838	1.744459
H289	H	0.860758	-0.443254	1.044667
H290	H	1.194091	-0.109921	1.378000
H291	H	1.527425	0.223413	1.711334
H292	H	0.856907	-0.388265	1.107123
H293	H	1.190240	-0.054932	1.440457
H294	H	1.523573	0.278401	1.773790
H295	H	0.899635	-0.404428	0.940215
H296	H	1.232968	-0.071095	1.273548
H297	H	1.566302	0.262238	1.606881
H298	H	0.364762	-0.247616	0.404834
H299	H	0.698095	0.085717	0.738167
H300	H	1.031429	0.419050	1.071500
N301	N	0.373946	-0.415908	0.236025
N302	N	0.707279	-0.082574	0.569358
N303	N	1.040612	0.250759	0.902691
H304	H	0.403275	-0.447308	0.263469
H305	H	0.736609	-0.113975	0.596803
H306	H	1.069942	0.219358	0.930136
H307	H	0.403230	-0.388309	0.204712
H308	H	0.736563	-0.054976	0.538045
H309	H	1.069897	0.278358	0.871378
N310	N	0.582959	-0.236177	0.416260
N311	N	0.916293	0.097156	0.749593
N312	N	1.249626	0.430490	1.082926
H313	H	0.595278	-0.246750	0.464601
H314	H	0.928612	0.086584	0.797934
H315	H	1.261945	0.419917	1.131268
H316	H	0.532822	-0.242753	0.409630
H317	H	0.866155	0.090580	0.742964
H318	H	1.199488	0.423913	1.076297
N319	N	0.729878	-0.236185	0.416258
N320	N	1.063211	0.097148	0.749591
N321	N	1.396545	0.430482	1.082925
H322	H	0.780015	-0.242746	0.409680
H323	H	1.113349	0.090587	0.743013
H324	H	1.446682	0.423921	1.076347
H325	H	0.717532	-0.246791	0.464577
H326	H	1.050865	0.086542	0.797910
H327	H	1.384198	0.419876	1.131244
H328	H	0.592148	-0.404481	0.247460
H329	H	0.925481	-0.071148	0.580793
H330	H	1.258814	0.262186	0.914127
N331	N	1.067986	-0.574211	0.416179
N332	N	1.401319	-0.240878	0.749512
N333	N	1.734652	0.092455	1.082846
H334	H	1.095402	-0.607288	0.443631
H335	H	1.428735	-0.273955	0.776965
H336	H	1.762068	0.059378	1.110298
H337	H	1.040404	-0.544888	0.447472
H338	H	1.373738	-0.211555	0.780805
H339	H	1.707071	0.121778	1.114139
