data_functionalizedCrystal
_audit_creation_method	'MofGen! by Chris Wilmer'
_symmetry_space_group_name_H-M	'P1'
_symmetry_Int_Tables_number	1
_symmetry_cell_setting	triclinic
loop_
_symmetry_equiv_pos_as_xyz
  x,y,z
_cell_length_a	17.077404
_cell_length_b	18.215405
_cell_length_c	17.077396
_cell_angle_alpha	89.968409
_cell_angle_beta	89.981638
_cell_angle_gamma	90.022855
loop_
_atom_site_label
_atom_site_type_symbol
_atom_site_fract_x
_atom_site_fract_y
_atom_site_fract_z
Zn1	Zn	1.200044	-0.293024	-0.443802
Zn2	Zn	1.700044	0.206976	0.056198
Zn3	Zn	1.199946	-0.416098	-0.312529
Zn4	Zn	1.699946	0.083902	0.187471
Zn5	Zn	1.068776	-0.293045	-0.312552
Zn6	Zn	1.568776	0.206955	0.187448
Zn7	Zn	1.068739	-0.416049	-0.443755
Zn8	Zn	1.568739	0.083951	0.056245
O9	O	1.134376	-0.354554	-0.378159
O10	O	1.634376	0.145446	0.121841
O11	O	1.309878	-0.309362	-0.426398
O12	O	1.809878	0.190638	0.073602
O13	O	1.182521	-0.399804	-0.202685
O14	O	1.682521	0.100196	0.297315
O15	O	1.086245	-0.190058	-0.329993
O16	O	1.586245	0.309942	0.170007
O17	O	1.309806	-0.399783	-0.329952
O18	O	1.809806	0.100217	0.170048
O19	O	1.182687	-0.190043	-0.426421
O20	O	1.682687	0.309957	0.073579
O21	O	1.086150	-0.309397	-0.202702
O22	O	1.586150	0.190603	0.297298
O23	O	0.958924	-0.309350	-0.329947
O24	O	1.458924	0.190650	0.170053
O25	O	1.086182	-0.399701	-0.553608
O26	O	1.586182	0.100299	-0.053608
O27	O	0.958897	-0.399721	-0.426341
O28	O	1.458897	0.100279	0.073659
O29	O	1.182651	-0.309315	-0.553643
O30	O	1.682651	0.190685	-0.053643
O31	O	1.182485	-0.519075	-0.329907
O32	O	1.682485	-0.019075	0.170093
O33	O	1.086088	-0.519040	-0.426318
O34	O	1.586088	-0.019040	0.073682
C35	C	0.930428	-0.354533	-0.378142
C36	C	1.430428	0.145467	0.121858
C37	C	0.843178	-0.354542	-0.378153
C38	C	1.343178	0.145458	0.121847
C39	C	0.802226	-0.307543	-0.428449
C40	C	1.302226	0.192457	0.071551
C41	C	0.720246	-0.307548	-0.428453
C42	C	1.220246	0.192452	0.071547
C43	C	0.679219	-0.354556	-0.378164
C44	C	1.179219	0.145444	0.121836
C45	C	0.720177	-0.401557	-0.327862
C46	C	1.220177	0.098443	0.172138
C47	C	0.802156	-0.401548	-0.327855
C48	C	1.302156	0.098452	0.172145
C49	C	0.549307	-0.401573	-0.327882
C50	C	1.049307	0.098427	0.172118
C51	C	0.467322	-0.401583	-0.327889
C52	C	0.967322	0.098417	0.172111
C53	C	0.467397	-0.307574	-0.428479
C54	C	0.967397	0.192426	0.071521
C55	C	0.549376	-0.307565	-0.428472
C56	C	1.049376	0.192435	0.071528
C57	C	0.590328	-0.354567	-0.378171
C58	C	1.090328	0.145433	0.121829
C59	C	1.134293	-0.545760	-0.378122
C60	C	1.634293	-0.045760	0.121878
C61	C	1.134330	-0.627559	-0.378132
C62	C	1.634330	-0.127559	0.121868
C63	C	1.184642	-0.815747	-0.328023
C64	C	1.684642	-0.315747	0.171977
C65	C	1.184677	-0.892606	-0.328042
C66	C	1.684677	-0.392606	0.171958
C67	C	1.084211	-0.892609	-0.428353
C68	C	1.584211	-0.392609	0.071647
C69	C	1.084180	-0.815751	-0.428337
C70	C	1.584180	-0.315751	0.071663
C71	C	1.134395	-0.777323	-0.378168
C72	C	1.634395	-0.277323	0.121832
C73	C	1.134460	-0.931039	-0.378202
C74	C	1.634460	-0.431039	0.121798
C75	C	1.134498	-1.014372	-0.378223
C76	C	1.634498	-0.514372	0.121777
C77	C	1.134358	-0.693984	-0.378147
C78	C	1.634358	-0.193984	0.121853
C79	C	1.339120	-0.354575	-0.378178
C80	C	1.839120	0.145425	0.121822
C81	C	1.426370	-0.354585	-0.378185
C82	C	1.926370	0.145415	0.121815
C83	C	1.134424	-0.354500	-0.582904
C84	C	1.634424	0.145500	-0.082904
C85	C	1.134444	-0.354477	-0.670154
C86	C	1.634444	0.145523	-0.170154
C87	C	1.134481	-0.162601	-0.378215
C88	C	1.634481	0.337399	0.121785
C89	C	1.134525	-0.080802	-0.378238
C90	C	1.634525	0.419198	0.121762
C91	C	1.184677	-0.307409	-0.711163
C92	C	1.684677	0.192591	-0.211163
C93	C	1.184687	-0.307384	-0.793144
C94	C	1.684687	0.192616	-0.293144
C95	C	1.134466	-0.354432	-0.834113
C96	C	1.634466	0.145568	-0.334113
C97	C	1.084227	-0.401502	-0.793098
C98	C	1.584227	0.098498	-0.293098
C99	C	1.084214	-0.401522	-0.711119
C100	C	1.584214	0.098478	-0.211119
C101	C	1.084259	-0.401458	-0.963968
C102	C	1.584259	0.098542	-0.463968
C103	C	1.084273	-0.401439	-1.045953
C104	C	1.584273	0.098561	-0.545953
C105	C	1.184731	-0.307320	-1.045993
C106	C	1.684731	0.192680	-0.545993
C107	C	1.184718	-0.307340	-0.964014
C108	C	1.684718	0.192660	-0.464014
C109	C	1.134480	-0.354411	-0.923004
C110	C	1.634480	0.145589	-0.423004
C111	C	1.134374	-0.354555	-0.174212
C112	C	1.634374	0.145445	0.325788
C113	C	1.134506	-0.354371	-0.086962
C114	C	1.634506	0.145629	0.413038
H115	H	0.582778	-0.269291	-0.469426
H116	H	1.082778	0.230709	0.030574
O117	O	1.238869	-0.256620	-0.837377
O118	O	1.738869	0.243380	-0.337377
H119	H	1.300466	-0.269263	-0.821654
H120	H	1.800466	0.230737	-0.321654
O121	O	1.030041	-0.934063	-0.482445
O122	O	1.530041	-0.434063	0.017555
H123	H	1.065157	-0.969036	-0.522419
H124	H	1.565157	-0.469036	-0.022419
H125	H	1.043301	-0.439842	-0.677730
H126	H	1.543301	0.060158	-0.177730
O127	O	0.846474	-0.256842	-0.482692
O128	O	1.346474	0.243158	0.017308
H129	H	0.883825	-0.219359	-0.447626
H130	H	1.383825	0.280641	0.052374
O131	O	1.030101	-0.452174	-1.090147
O132	O	1.530101	0.047826	-0.590147
H133	H	0.995155	-0.484900	-1.047860
H134	H	1.495155	0.015100	-0.547860
O135	O	1.238886	-0.256597	-0.919825
O136	O	1.738886	0.243403	-0.419825
H137	H	1.278800	-0.289555	-0.882478
H138	H	1.778800	0.210445	-0.382478
H139	H	0.582648	-0.439845	-0.286919
H140	H	1.082648	0.060155	0.213081
O141	O	1.238909	-0.256542	-1.090222
O142	O	1.738909	0.243458	-0.590222
H143	H	1.278827	-0.289474	-1.127577
H144	H	1.778827	0.210526	-0.627577
O145	O	0.676073	-0.256856	-0.482699
O146	O	1.176073	0.243144	0.017301
H147	H	0.718374	-0.224174	-0.517673
H148	H	1.218374	0.275826	-0.017673
O149	O	1.030055	-0.452241	-0.837287
O150	O	1.530055	0.047759	-0.337287
H151	H	1.043474	-0.510006	-0.821533
H152	H	1.543474	-0.010006	-0.321533
H153	H	0.686766	-0.439828	-0.286912
H154	H	1.186766	0.060172	0.213088
H155	H	1.043263	-0.784464	-0.469175
H156	H	1.543263	-0.284464	0.030825
O157	O	1.238851	-0.256666	-0.666982
O158	O	1.738851	0.243334	-0.166982
H159	H	1.230412	-0.264592	-0.603086
H160	H	1.730412	0.235408	-0.103086
H161	H	1.225530	-0.784460	-0.287173
H162	H	1.725530	-0.284460	0.212827
O163	O	0.423235	-0.256870	-0.482728
O164	O	0.923235	0.243130	0.017272
H165	H	0.359337	-0.264764	-0.474279
H166	H	0.859337	0.235236	0.025721
O167	O	1.238867	-0.934053	-0.273953
O168	O	1.738867	-0.434053	0.226047
H169	H	1.273771	-0.894416	-0.239063
H170	H	1.773771	-0.394416	0.260937
O171	O	1.030070	-0.452221	-0.919732
O172	O	1.530070	0.047779	-0.419732
H173	H	0.995154	-0.484937	-0.961991
H174	H	1.495154	0.015063	-0.461991
H175	H	0.433920	-0.439862	-0.286940
H176	H	0.933920	0.060138	0.213060
O177	O	0.846332	-0.452239	-0.273609
O178	O	1.346332	0.047761	0.226391
H179	H	0.804033	-0.484933	-0.238645
H180	H	1.304033	0.015067	0.261355
