data_functionalizedCrystal
_audit_creation_method	'MofGen! by Chris Wilmer'
_symmetry_space_group_name_H-M	'P1'
_symmetry_Int_Tables_number	1
_symmetry_cell_setting	triclinic
loop_
_symmetry_equiv_pos_as_xyz
  x,y,z
_cell_length_a	11.169417
_cell_length_b	19.120786
_cell_length_c	11.169417
_cell_angle_alpha	92.455390
_cell_angle_beta	90.000863
_cell_angle_gamma	92.466141
loop_
_atom_site_label
_atom_site_type_symbol
_atom_site_fract_x
_atom_site_fract_y
_atom_site_fract_z
Zn1	Zn	1.814226	-0.279725	0.658090
Zn2	Zn	1.805571	-0.397154	0.448822
Zn3	Zn	1.613579	-0.279717	0.457425
Zn4	Zn	1.604909	-0.397148	0.649467
O5	O	1.709571	-0.338436	0.553451
O6	O	1.981027	-0.295308	0.630339
O7	O	1.780109	-0.381575	0.282013
O8	O	1.647446	-0.181429	0.491254
O9	O	1.974669	-0.381583	0.476590
O10	O	1.794860	-0.181435	0.638681
O11	O	1.639053	-0.295295	0.288334
O12	O	1.444480	-0.295289	0.482892
O13	O	1.632669	-0.381572	0.818560
O14	O	1.438110	-0.381564	0.623984
O15	O	1.786454	-0.295302	0.824896
O16	O	1.771703	-0.495442	0.468228
O17	O	1.624277	-0.495438	0.615641
C18	C	1.397748	-0.338425	0.553436
C19	C	1.264347	-0.338438	0.553457
C20	C	1.696142	-0.520925	0.540091
C21	C	1.690507	-0.598995	0.534416
C22	C	1.764553	-0.635615	0.608570
C23	C	1.759254	-0.708970	0.603240
C24	C	1.679913	-0.745703	0.523749
C25	C	1.605859	-0.709078	0.449592
C26	C	1.611153	-0.635725	0.454929
C27	C	1.660085	-0.967186	0.503796
C28	C	1.654798	-1.040545	0.498462
C29	C	1.808192	-1.040431	0.652112
C30	C	1.813485	-0.967076	0.657437
C31	C	1.739426	-0.930458	0.583285
C32	C	1.674497	-0.820684	0.518296
C33	C	1.744837	-0.855479	0.588745
C34	C	2.022613	-0.338447	0.553466
C35	C	2.156013	-0.338452	0.553473
C36	C	1.709560	-0.338437	0.866493
C37	C	1.709555	-0.338438	0.999893
C38	C	1.723086	-0.155234	0.566889
C39	C	1.728845	-0.077164	0.572616
C40	C	1.709568	-0.338448	1.241625
C41	C	1.709558	-0.338439	1.108226
H42	H	1.829166	-0.605711	0.673295
H43	H	1.809432	-0.825568	0.653471
Cl44	Cl	1.852329	-0.755003	0.696482
Cl45	Cl	1.913230	-0.920902	0.757374
H46	H	1.541253	-0.738992	0.384873
Cl47	Cl	1.901283	-1.086470	0.745331
H48	H	1.609901	-0.850600	0.453570
Cl49	Cl	1.555052	-1.086723	0.398518
Cl50	Cl	1.518061	-0.589688	0.361705
Cl51	Cl	1.566971	-0.921161	0.410586
