data_functionalizedCrystal
_audit_creation_method	'MofGen! by Chris Wilmer'
_symmetry_space_group_name_H-M	'P1'
_symmetry_Int_Tables_number	1
_symmetry_cell_setting	triclinic
loop_
_symmetry_equiv_pos_as_xyz
  x,y,z
_cell_length_a	16.109301
_cell_length_b	23.532357
_cell_length_c	14.586319
_cell_angle_alpha	90.009313
_cell_angle_beta	90.000787
_cell_angle_gamma	83.144886
loop_
_atom_site_label
_atom_site_type_symbol
_atom_site_fract_x
_atom_site_fract_y
_atom_site_fract_z
O1	O	1.102536	0.073204	0.076194
O2	O	0.860400	0.082314	0.076210
O3	O	0.988791	-0.005148	0.076182
O4	O	0.974145	0.160665	0.076221
O5	O	0.988782	-0.005149	-0.076298
O6	O	0.860391	0.082312	-0.076271
O7	O	1.102527	0.073202	-0.076287
Cu8	Cu	0.981458	0.077757	-0.090202
Cu9	Cu	0.981469	0.077759	0.090124
O10	O	0.974136	0.160664	-0.076260
C11	C	0.829424	0.081944	-0.000029
C12	C	0.737137	0.080838	-0.000024
C13	C	0.514464	0.130163	-0.000023
C14	C	0.427752	0.129119	-0.000029
C15	C	0.448470	0.025349	-0.000049
C16	C	0.535180	0.026394	-0.000050
C17	C	0.568175	0.078802	-0.000032
C18	C	0.394753	0.076714	-0.000037
C19	C	0.300736	0.075581	-0.000044
C20	C	0.662197	0.079935	-0.000027
C21	C	0.988421	-0.026367	-0.000061
C22	C	0.987319	-0.089589	-0.000069
C23	C	0.980409	-0.481625	0.083098
C24	C	0.979362	-0.541029	0.083103
O25	O	0.978796	-0.571746	0.153791
N26	N	0.978838	-0.570742	-0.000013
C27	C	0.979353	-0.541049	-0.083140
O28	O	0.978810	-0.571778	-0.153836
C29	C	0.980394	-0.481646	-0.083144
C30	C	0.980926	-0.451936	-0.000023
C31	C	0.980941	-0.451915	0.166213
C32	C	0.981989	-0.392516	0.166207
C33	C	0.982506	-0.362827	0.083087
C34	C	0.981975	-0.392537	-0.000028
C35	C	0.980902	-0.451954	-0.166270
C36	C	0.981943	-0.392547	-0.166267
C37	C	0.982475	-0.362837	-0.083146
C38	C	0.983540	-0.303449	-0.083154
N39	N	0.984064	-0.273735	-0.000038
C40	C	0.983547	-0.303424	0.083082
C41	C	0.977165	-0.665799	-0.083124
C42	C	0.976130	-0.725201	-0.083121
C43	C	0.976138	-0.725176	0.083122
C44	C	0.977179	-0.665773	0.083118
C45	C	0.977689	-0.636085	-0.000008
C46	C	0.985750	-0.178682	0.083064
C47	C	0.986802	-0.119278	0.083051
C48	C	0.986790	-0.119308	-0.083192
C49	C	0.985742	-0.178707	-0.083179
C50	C	0.985219	-0.208392	-0.000044
O51	O	0.984103	-0.272693	-0.153806
O52	O	0.984079	-0.272688	0.153767
C53	C	1.133503	0.073572	-0.000046
C54	C	1.225790	0.074678	-0.000046
C55	C	0.974507	0.181883	-0.000014
C56	C	0.975608	0.245105	0.000000
N57	N	0.981457	0.077756	-0.217034
C58	C	1.038327	0.039041	-0.452052
C59	C	1.038330	0.039039	-0.548033
C60	C	0.924601	0.116473	-0.548019
C61	C	0.924595	0.116471	-0.452039
C62	C	0.981463	0.077756	-0.404058
C63	C	0.981471	0.077756	-0.596019
C64	C	0.981473	0.077755	-0.700086
C65	C	0.981460	0.077756	-0.299985
N66	N	0.981477	0.077756	0.216956
H67	H	0.987238	-0.095091	0.150742
O68	O	0.987163	-0.090508	-0.163985
C69	C	0.915364	-0.065830	-0.306008
C70	C	0.914863	-0.098488	-0.214555
H71	H	0.856907	-0.072260	-0.346911
H72	H	0.973299	-0.082735	-0.347092
H73	H	0.916235	-0.018278	-0.291691
H74	H	0.913963	-0.146045	-0.228789
H75	H	0.856935	-0.081536	-0.173500
O76	O	0.375613	0.179027	0.000146
C77	C	0.331415	0.267416	0.079136
C78	C	0.390495	0.210908	0.079064
H79	H	0.343439	0.293213	0.142925
H80	H	0.263755	0.257704	0.079189
H81	H	0.343354	0.293182	0.015302
H82	H	0.378632	0.185114	0.142888
H83	H	0.458136	0.220660	0.078963
O84	O	0.546655	0.181021	0.000029
C85	C	0.671053	0.228623	-0.000014
C86	C	0.634712	0.170986	-0.000050
H87	H	0.742251	0.220529	-0.000098
H88	H	0.648954	0.254014	0.063818
H89	H	0.648846	0.254001	-0.063808
H90	H	0.656902	0.145562	0.063701
H91	H	0.656806	0.145638	-0.063924
H92	H	0.878285	0.147997	-0.412960
H93	H	0.578914	-0.015433	-0.000060
O94	O	0.869251	0.154024	-0.594590
C95	C	0.724410	0.187388	-0.623923
C96	C	0.787001	0.144820	-0.571142
H97	H	0.657897	0.179970	-0.604971
H98	H	0.734111	0.180740	-0.700778
H99	H	0.734893	0.233001	-0.605049
H100	H	0.776556	0.099190	-0.589940
H101	H	0.777284	0.151518	-0.494301
H102	H	0.421595	-0.017321	-0.000069
O103	O	0.985267	-0.207427	0.163902
C104	C	0.985306	-0.201110	0.328790
C105	C	0.985879	-0.168489	0.237309
H106	H	0.985783	-0.169641	0.388164
H107	H	1.043015	-0.234139	0.333029
H108	H	0.926631	-0.223702	0.332897
H109	H	1.044515	-0.145862	0.233141
H110	H	0.928131	-0.135493	0.233109
H111	H	0.982420	-0.368331	0.233893
H112	H	0.980517	-0.476081	0.233903
H113	H	0.977611	-0.641587	0.150803
O114	O	0.975519	-0.753948	0.163928
C115	C	0.903139	-0.765669	0.305990
C116	C	0.903744	-0.733029	0.214529
H117	H	0.845105	-0.748777	0.346918
H118	H	0.961498	-0.759200	0.347042
H119	H	0.902341	-0.813228	0.291686
H120	H	0.904512	-0.685460	0.228749
H121	H	0.845389	-0.739546	0.173504
O122	O	0.975471	-0.754016	-0.163892
C123	C	0.903124	-0.765690	-0.305999
C124	C	0.903765	-0.733028	-0.214545
H125	H	0.845164	-0.748726	-0.346986
H126	H	0.902231	-0.813250	-0.291792
H127	H	0.961544	-0.759248	-0.346954
H128	H	0.845355	-0.739423	-0.173544
H129	H	0.904701	-0.685480	-0.228817
O130	O	0.977525	-0.636923	-0.163855
C131	C	0.906691	-0.563382	-0.260328
C132	C	0.906172	-0.596044	-0.168881
H133	H	0.849018	-0.530316	-0.264413
H134	H	0.906086	-0.594797	-0.319763
H135	H	0.965398	-0.540826	-0.264480
H136	H	0.847475	-0.618602	-0.164640
H137	H	0.906821	-0.564603	-0.109489
H138	H	0.980470	-0.476133	-0.233957
H139	H	0.982346	-0.368376	-0.233960
H140	H	0.985316	-0.202899	-0.150863
H141	H	1.084632	0.007516	-0.412988
H142	H	1.084633	0.007514	-0.587107
