data_functionalizedCrystal
_audit_creation_method	'MofGen! by Chris Wilmer'
_symmetry_space_group_name_H-M	'P1'
_symmetry_Int_Tables_number	1
_symmetry_cell_setting	triclinic
loop_
_symmetry_equiv_pos_as_xyz
  x,y,z
_cell_length_a	13.034570
_cell_length_b	13.033286
_cell_length_c	13.032268
_cell_angle_alpha	105.163409
_cell_angle_beta	105.145796
_cell_angle_gamma	74.858830
loop_
_atom_site_label
_atom_site_type_symbol
_atom_site_fract_x
_atom_site_fract_y
_atom_site_fract_z
Zn1	Zn	-0.681731	1.624261	-0.470832
Zn2	Zn	-0.181731	2.124261	0.029168
Zn3	Zn	-0.841336	1.664694	-0.311246
Zn4	Zn	-0.341336	2.164694	0.188754
Zn5	Zn	-0.641273	1.464654	-0.311276
Zn6	Zn	-0.141273	1.964654	0.188724
Zn7	Zn	-0.841294	1.464604	-0.511395
Zn8	Zn	-0.341294	1.964604	-0.011395
O9	O	-0.751408	1.554554	-0.401187
O10	O	-0.251408	2.054554	0.098813
O11	O	-0.719853	1.780160	-0.432674
O12	O	-0.219853	2.280160	0.067326
O13	O	-0.797883	1.655101	-0.160712
O14	O	-0.297883	2.155101	0.339288
O15	O	-0.496136	1.468926	-0.315478
O16	O	0.003864	1.968926	0.184522
O17	O	-0.837113	1.809865	-0.315427
O18	O	-0.337113	2.309865	0.184573
O19	O	-0.525860	1.586189	-0.432703
O20	O	-0.025860	2.086189	0.067297
O21	O	-0.650898	1.508132	-0.160734
O22	O	-0.150898	2.008132	0.339266
O23	O	-0.650857	1.314113	-0.354811
O24	O	-0.150857	1.814113	0.145189
O25	O	-0.837041	1.468841	-0.656552
O26	O	-0.337041	1.968841	-0.156552
O27	O	-0.797811	1.314076	-0.501837
O28	O	-0.297811	1.814076	-0.001837
O29	O	-0.719812	1.586140	-0.626750
O30	O	-0.219812	2.086140	-0.126750
O31	O	-0.991834	1.655052	-0.354759
O32	O	-0.491834	2.155052	0.145241
O33	O	-0.991803	1.508047	-0.501808
O34	O	-0.491803	2.008047	-0.001808
C35	C	-0.719940	1.275063	-0.432729
C36	C	-0.219940	1.775063	0.067271
C37	C	-0.706506	1.155495	-0.446252
C38	C	-0.206506	1.655495	0.053748
C39	C	-0.758423	1.116886	-0.394156
C40	C	-0.258423	1.616886	0.105844
C41	C	-0.744540	0.993308	-0.408131
C42	C	-0.244540	1.493308	0.091869
C43	C	-1.030849	1.585958	-0.432702
C44	C	-0.530849	2.085958	0.067298
C45	C	-1.150410	1.599487	-0.446209
C46	C	-0.650410	2.099487	0.053791
C47	C	-1.312658	1.561547	-0.408126
C48	C	-0.812658	2.061547	0.091874
C49	C	-1.189086	1.547563	-0.394171
C50	C	-0.689086	2.047563	0.105829
C51	C	-0.470883	1.523053	-0.369569
C52	C	0.029117	2.023053	0.130431
C53	C	-0.351340	1.509629	-0.356096
C54	C	0.148660	2.009629	0.143904
C55	C	-0.782935	1.522975	-0.681775
C56	C	-0.282935	2.022975	-0.181775
C57	C	-0.796370	1.509518	-0.801345
C58	C	-0.296370	2.009518	-0.301345
C59	C	-0.783001	1.835136	-0.369522
C60	C	-0.283001	2.335136	0.130478
C61	C	-0.796463	1.954703	-0.356028
C62	C	-0.296463	2.454703	0.143972
C63	C	-0.744356	1.561556	-0.839908
C64	C	-0.244356	2.061556	-0.339908
C65	C	-0.758240	1.547649	-0.963489
C66	C	-0.258240	2.047649	-0.463489
C67	C	-0.719934	1.586063	-0.121675
C68	C	-0.219934	2.086063	0.378325
C69	C	-0.706220	1.599694	-0.002048
C70	C	-0.206220	2.099694	0.497952
H71	H	-0.813152	1.175321	-0.339213
H72	H	-0.313152	1.675321	0.160787
H73	H	-0.689543	1.616399	-0.781432
H74	H	-0.189543	2.116399	-0.281432
C75	C	-1.229252	1.673528	-0.520352
C76	C	-0.729252	2.173528	-0.020352
N77	N	-1.288636	1.729292	-0.576197
N78	N	-0.788636	2.229292	-0.076197
C79	C	-0.632170	1.673798	-0.923059
C80	C	-0.132170	2.173798	-0.423059
N81	N	-0.576398	1.729614	-0.863564
N82	N	-0.076398	2.229614	-0.363564
H83	H	-1.371026	1.616353	-0.462997
H84	H	-0.871026	2.116353	0.037003
C85	C	-0.670596	0.914373	-0.482362
C86	C	-0.170596	1.414373	0.017638
N87	N	-0.614899	0.854917	-0.538267
N88	N	-0.114899	1.354917	-0.038267
C89	C	-1.272492	1.435592	-0.281959
C90	C	-0.772492	1.935592	0.218041
N91	N	-1.213106	1.379824	-0.226119
N92	N	-0.713106	1.879824	0.273881
C93	C	-1.110242	1.473522	-0.320031
C94	C	-0.610242	1.973522	0.179969
N95	N	-1.050856	1.417754	-0.264191
N96	N	-0.550856	1.917754	0.235809
H97	H	-0.813046	1.492790	-1.021962
H98	H	-0.313046	1.992790	-0.521962
C99	C	-0.870412	1.435415	-0.880339
C100	C	-0.370412	1.935415	-0.380339
N101	N	-0.926183	1.379598	-0.939836
N102	N	-0.426183	1.879598	-0.439836
H103	H	-0.651785	1.097061	-0.501203
H104	H	-0.151785	1.597061	-0.001203
C105	C	-0.870402	1.033636	-0.281792
C106	C	-0.370402	1.533636	0.218208
N107	N	-0.926091	1.093089	-0.225877
N108	N	-0.426091	1.593089	0.274123
