data_functionalizedCrystal
_audit_creation_method	'MofGen! by Chris Wilmer'
_symmetry_space_group_name_H-M	'P1'
_symmetry_Int_Tables_number	1
_symmetry_cell_setting	triclinic
loop_
_symmetry_equiv_pos_as_xyz
  x,y,z
_cell_length_a	14.519731
_cell_length_b	13.596369
_cell_length_c	10.654550
_cell_angle_alpha	90.005825
_cell_angle_beta	84.086892
_cell_angle_gamma	90.005416
loop_
_atom_site_label
_atom_site_type_symbol
_atom_site_fract_x
_atom_site_fract_y
_atom_site_fract_z
O1	O	1.224711	0.081793	0.164753
O2	O	1.558044	0.415127	0.498086
O3	O	1.891377	0.748460	0.831419
O4	O	0.956337	0.081795	0.184111
O5	O	1.289670	0.415128	0.517445
O6	O	1.623003	0.748461	0.850778
O7	O	1.096694	0.081788	-0.008366
O8	O	1.430027	0.415121	0.324967
O9	O	1.763361	0.748454	0.658301
O10	O	1.084353	0.081800	0.357230
O11	O	1.417687	0.415134	0.690563
O12	O	1.751020	0.748467	1.023897
O13	O	1.096680	-0.081795	-0.008376
O14	O	1.430013	0.251538	0.324957
O15	O	1.763347	0.584872	0.658290
O16	O	0.956323	-0.081788	0.184101
O17	O	1.289656	0.251545	0.517434
O18	O	1.622989	0.584878	0.850768
O19	O	1.224696	-0.081790	0.164742
O20	O	1.558030	0.251544	0.498076
O21	O	1.891363	0.584877	0.831409
Zn22	Zn	1.090507	-0.107761	0.174420
Zn23	Zn	1.423841	0.225572	0.507753
Zn24	Zn	1.757174	0.558905	0.841087
Zn25	Zn	1.090526	0.107766	0.174434
Zn26	Zn	1.423859	0.441100	0.507767
Zn27	Zn	1.757193	0.774433	0.841100
O28	O	1.084339	-0.081783	0.357220
O29	O	1.417672	0.251551	0.690553
O30	O	1.751006	0.584884	1.023886
C31	C	0.921965	0.000003	0.183199
C32	C	1.255299	0.333337	0.516532
C33	C	1.588632	0.666670	0.849866
C34	C	0.819571	0.000004	0.180481
C35	C	1.152904	0.333337	0.513814
C36	C	1.486238	0.666671	0.847148
C37	C	0.736416	0.000008	0.178272
C38	C	1.069749	0.333341	0.511606
C39	C	1.403082	0.666674	0.844939
C40	C	0.632093	0.000008	0.175513
C41	C	0.965426	0.333341	0.508846
C42	C	1.298759	0.666675	0.842179
C43	C	0.548942	0.000008	0.173322
C44	C	0.882275	0.333341	0.506656
C45	C	1.215609	0.666675	0.839989
C46	C	0.444612	0.000010	0.170563
C47	C	0.777946	0.333343	0.503896
C48	C	1.111279	0.666677	0.837230
N49	N	1.090501	-0.254853	0.174410
N50	N	1.423835	0.078480	0.507743
N51	N	1.757168	0.411814	0.841077
C52	C	1.090525	-0.656144	0.174435
C53	C	1.423858	-0.322811	0.507768
C54	C	1.757191	0.010523	0.841102
C55	C	1.090515	-0.544493	0.174432
C56	C	1.423849	-0.211159	0.507766
C57	C	1.757182	0.122174	0.841099
C58	C	1.090513	-0.455502	0.174423
C59	C	1.423847	-0.122169	0.507757
C60	C	1.757180	0.211165	0.841090
C61	C	1.090503	-0.343844	0.174419
C62	C	1.423837	-0.010510	0.507752
C63	C	1.757170	0.322823	0.841086
C64	C	1.259068	0.000004	0.165655
C65	C	1.592401	0.333337	0.498988
C66	C	1.925734	0.666670	0.832321
C67	C	1.361462	0.000010	0.168373
C68	C	1.694795	0.333343	0.501706
C69	C	2.028129	0.666676	0.835039
C70	C	1.095781	-0.000003	-0.055160
C71	C	1.429114	0.333330	0.278173
C72	C	1.762448	0.666663	0.611506
C73	C	1.093070	-0.000002	-0.194578
C74	C	1.426403	0.333332	0.138755
C75	C	1.759736	0.666665	0.472089
N76	N	1.090539	0.254858	0.174434
N77	N	1.423872	0.588191	0.507767
N78	N	1.757206	0.921525	0.841100
C79	C	1.175710	-0.000002	-0.274850
C80	C	1.509043	0.333332	0.058484
C81	C	1.842377	0.666665	0.391817
C82	C	1.173157	0.000010	-0.405846
C83	C	1.506491	0.333344	-0.072513
C84	C	1.839824	0.666677	0.260821
C85	C	1.005317	0.000018	-0.376286
C86	C	1.338650	0.333352	-0.042953
C87	C	1.671983	0.666685	0.290380
C88	C	1.007871	0.000013	-0.245293
C89	C	1.341204	0.333347	0.088041
C90	C	1.674537	0.666680	0.421374
C91	C	1.085252	0.000010	0.404014
C92	C	1.418586	0.333344	0.737347
C93	C	1.751919	0.666677	1.070681
C94	C	1.087963	0.000015	0.543432
C95	C	1.421297	0.333349	0.876765
C96	C	1.754630	0.666682	1.210098
H97	H	1.245085	-0.000012	-0.233562
H98	H	1.578418	0.333321	0.099771
H99	H	1.911751	0.666655	0.433104
H100	H	1.240451	0.000012	-0.471199
H101	H	1.573785	0.333346	-0.137866
H102	H	1.907118	0.666679	0.195468
H103	H	0.940571	0.000016	-0.179931
H104	H	1.273904	0.333350	0.153402
H105	H	1.607237	0.666683	0.486735
O106	O	0.922638	-0.000020	-0.425762
O107	O	1.255971	0.333313	-0.092429
O108	O	1.589304	0.666647	0.240904
C109	C	0.938102	0.000006	-0.558595
C110	C	1.271435	0.333339	-0.225261
C111	C	1.604769	0.666672	0.108072
H112	H	1.009871	-0.030965	-0.589192
H113	H	1.343205	0.302369	-0.255859
H114	H	1.676538	0.635702	0.077475
H115	H	0.883532	-0.047486	-0.598946
H116	H	1.216866	0.285848	-0.265613
H117	H	1.550199	0.619181	0.067720
H118	H	0.933406	0.078485	-0.595057
H119	H	1.266739	0.411818	-0.261724
H120	H	1.600073	0.745152	0.071610
