data_functionalizedCrystal
_audit_creation_method	'MofGen! by Chris Wilmer'
_symmetry_space_group_name_H-M	'P1'
_symmetry_Int_Tables_number	1
_symmetry_cell_setting	triclinic
loop_
_symmetry_equiv_pos_as_xyz
  x,y,z
_cell_length_a	16.109317
_cell_length_b	16.176319
_cell_length_c	17.699105
_cell_angle_alpha	90.000428
_cell_angle_beta	83.380042
_cell_angle_gamma	90.000852
loop_
_atom_site_label
_atom_site_type_symbol
_atom_site_fract_x
_atom_site_fract_y
_atom_site_fract_z
O1	O	-1.102965	0.068670	-0.097332
O2	O	-0.602965	0.568670	0.402668
O3	O	-0.860885	0.068692	-0.109425
O4	O	-0.360885	0.568692	0.390575
O5	O	-0.988755	0.068662	0.006799
O6	O	-0.488755	0.568662	0.506799
O7	O	-0.975095	0.068699	-0.213556
O8	O	-0.475095	0.568699	0.286444
O9	O	-0.988742	-0.068831	0.006778
O10	O	-0.488742	0.431169	0.506778
O11	O	-0.860872	-0.068801	-0.109446
O12	O	-0.360872	0.431199	0.390554
O13	O	-1.102952	-0.068824	-0.097353
O14	O	-0.602952	0.431176	0.402647
Cu15	Cu	-0.981911	-0.081367	-0.103401
Cu16	Cu	-0.481911	0.418633	0.396599
Cu17	Cu	-0.981926	0.081235	-0.103377
Cu18	Cu	-0.481926	0.581235	0.396623
O19	O	-0.975082	-0.068794	-0.213577
O20	O	-0.475082	0.431206	0.286423
C21	C	-0.829905	-0.000052	-0.108944
C22	C	-0.329905	0.499948	0.391056
C23	C	-0.737613	-0.000044	-0.107469
C24	C	-0.237613	0.499956	0.392531
N25	N	-0.981907	-0.195732	-0.103418
N26	N	-0.481907	0.304268	0.396582
C27	C	-0.438553	0.074893	-0.102692
C28	C	0.061447	0.574893	0.397308
C29	C	-0.525272	0.074897	-0.104073
C30	C	-0.025272	0.574897	0.395927
C31	C	-0.525278	-0.075006	-0.104086
C32	C	-0.025278	0.424994	0.395914
C33	C	-0.438561	-0.075009	-0.102700
C34	C	0.061439	0.424991	0.397300
C35	C	-0.395200	-0.000057	-0.102007
C36	C	0.104800	0.499943	0.397993
C37	C	-0.568636	-0.000050	-0.104774
C38	C	-0.068636	0.499950	0.395226
C39	C	-0.662661	-0.000047	-0.106272
C40	C	-0.162661	0.499953	0.393728
C41	C	-0.301170	-0.000060	-0.100508
C42	C	0.198830	0.499940	0.399492
C43	C	-0.931603	-0.761125	-0.057438
C44	C	-0.431603	-0.261125	0.442562
C45	C	-0.931601	-0.674578	-0.057444
C46	C	-0.431601	-0.174578	0.442556
C47	C	-0.981929	-0.631307	-0.103370
C48	C	-0.481929	-0.131307	0.396630
C49	C	-1.032269	-0.674588	-0.149287
C50	C	-0.532269	-0.174588	0.350713
C51	C	-1.032274	-0.761134	-0.149276
C52	C	-0.532274	-0.261134	0.350724
C53	C	-1.032248	-0.325560	-0.149329
C54	C	-0.532248	0.174440	0.350671
C55	C	-1.032237	-0.239008	-0.149338
C56	C	-0.532237	0.260992	0.350662
C57	C	-0.931575	-0.239004	-0.057497
C58	C	-0.431575	0.260996	0.442503
C59	C	-0.931581	-0.325550	-0.057487
C60	C	-0.431581	0.174450	0.442513
C61	C	-0.981923	-0.368823	-0.103401
C62	C	-0.481923	0.131177	0.396599
C63	C	-0.981925	-0.462667	-0.103393
C64	C	-0.481925	0.037333	0.396607
C65	C	-0.981923	-0.537465	-0.103383
C66	C	-0.481923	-0.037465	0.396617
C67	C	-0.133932	-0.000073	-0.097835
C68	C	0.366068	0.499927	0.402165
C69	C	-0.226224	-0.000063	-0.099312
C70	C	0.273776	0.499937	0.400688
C71	C	-0.988256	-0.000087	0.034986
C72	C	-0.488256	0.499913	0.534986
C73	C	-0.986778	-0.000096	0.119006
C74	C	-0.486778	0.499904	0.619006
N75	N	-0.981937	0.195600	-0.103354
N76	N	-0.481937	0.695600	0.396646
C77	C	-0.977747	0.074897	0.634742
C78	C	-0.477747	0.574897	1.134742
C79	C	-0.979134	0.074891	0.555796
C80	C	-0.479134	0.574891	1.055796
C81	C	-0.979819	-0.000061	0.516325
C82	C	-0.479819	0.499939	1.016325
C83	C	-0.979126	-0.075012	0.555805
C84	C	-0.479126	0.424988	1.055805
C85	C	-0.977745	-0.075005	0.634750
C86	C	-0.477745	0.424995	1.134750
C87	C	-0.984697	-0.075041	0.237431
C88	C	-0.484697	0.424959	0.737431
C89	C	-0.986076	-0.075042	0.158480
C90	C	-0.486076	0.424958	0.658480
C91	C	-0.986087	0.074855	0.158477
C92	C	-0.486087	0.574855	0.658477
C93	C	-0.984706	0.074862	0.237422
C94	C	-0.484706	0.574862	0.737422
C95	C	-0.984017	-0.000088	0.276895
C96	C	-0.484017	0.499912	0.776895
C97	C	-0.982514	-0.000081	0.362497
C98	C	-0.482514	0.499919	0.862497
C99	C	-0.981316	-0.000069	0.430725
C100	C	-0.481316	0.499931	0.930725
C101	C	-0.975579	-0.000048	0.758235
C102	C	-0.475579	0.499952	1.258235
C103	C	-0.977051	-0.000049	0.674215
C104	C	-0.477051	0.499951	1.174215
H105	H	-0.560566	0.135929	-0.104631
H106	H	-0.060566	0.635929	0.395369
H107	H	-0.403252	0.135924	-0.102127
H108	H	0.096748	0.635924	0.397873
H109	H	-0.403262	-0.136046	-0.102140
H110	H	0.096738	0.363954	0.397860
O111	O	-0.976918	-0.147829	0.673044
O112	O	-0.476918	0.352171	1.173044
C113	C	-0.905287	-0.193430	0.645164
C114	C	-0.405287	0.306570	1.145164
H115	H	-0.855361	-0.149573	0.617465
H116	H	-0.355361	0.350427	1.117465
H117	H	-0.880217	-0.227422	0.694204
H118	H	-0.380217	0.272578	1.194204
H119	H	-0.922357	-0.240168	0.601282
H120	H	-0.422357	0.259832	1.101282
O121	O	-1.081179	-0.196881	-0.193842
O122	O	-0.581179	0.303119	0.306158
C123	C	-1.138000	-0.146822	-0.147711
C124	C	-0.638000	0.353178	0.352289
H125	H	-1.112233	-0.133855	-0.091547
H126	H	-0.612233	0.366145	0.408453
H127	H	-1.147192	-0.085965	-0.178145
H128	H	-0.647192	0.414035	0.321855
H129	H	-1.200521	-0.180166	-0.136139
H130	H	-0.700521	0.319834	0.363861
O131	O	-0.882691	-0.803027	-0.012756
O132	O	-0.382691	-0.303027	0.487244
C133	C	-0.838250	-0.746269	0.027755
C134	C	-0.338250	-0.246269	0.527755
H135	H	-0.872671	-0.684575	0.032152
H136	H	-0.372671	-0.184575	0.532152
H137	H	-0.833214	-0.771266	0.087277
H138	H	-0.333214	-0.271266	0.587277
H139	H	-0.772931	-0.737071	-0.003403
H140	H	-0.272931	-0.237071	0.496597
H141	H	-0.986630	-0.136080	0.126345
H142	H	-0.486630	0.363920	0.626345
H143	H	-0.890617	-0.639348	-0.020053
H144	H	-0.390617	-0.139348	0.479947
H145	H	-0.979703	0.135918	0.523661
H146	H	-0.479703	0.635918	1.023661
H147	H	-1.073239	-0.360782	-0.186716
H148	H	-0.573239	0.139218	0.313284
H149	H	-0.560592	-0.136029	-0.104652
H150	H	-0.060592	0.363971	0.395348
O151	O	-0.976958	0.147755	0.672988
O152	O	-0.476958	0.647755	1.172988
C153	C	-0.905307	0.193337	0.645124
C154	C	-0.405307	0.693337	1.145124
H155	H	-0.882323	0.172026	0.584943
H156	H	-0.382323	0.672026	1.084943
H157	H	-0.921535	0.261904	0.644357
H158	H	-0.421535	0.761904	1.144357
H159	H	-0.854124	0.182940	0.683541
H160	H	-0.354124	0.682940	1.183541
H161	H	-0.890595	-0.360777	-0.020092
H162	H	-0.390595	0.139223	0.479908
H163	H	-0.984137	-0.136070	0.269560
H164	H	-0.484137	0.363930	0.769560
H165	H	-0.986651	0.135883	0.126329
H166	H	-0.486651	0.635883	0.626329
O167	O	-0.882627	-0.196877	-0.012998
O168	O	-0.382627	0.303123	0.487002
C169	C	-0.825792	-0.146839	-0.059138
C170	C	-0.325792	0.353161	0.440862
H171	H	-0.851557	-0.133876	-0.115303
H172	H	-0.351557	0.366124	0.384697
H173	H	-0.816583	-0.085979	-0.028713
H174	H	-0.316583	0.414021	0.471287
H175	H	-0.763281	-0.180200	-0.070705
H176	H	-0.263281	0.319800	0.429295
O177	O	-1.081082	-0.632429	-0.193878
O178	O	-0.581082	-0.132429	0.306122
C179	C	-1.070300	-0.546762	-0.184030
C180	C	-0.570300	-0.046762	0.315970
H181	H	-1.007374	-0.534941	-0.162435
H182	H	-0.507374	-0.034941	0.337565
H183	H	-1.072280	-0.513879	-0.240763
H184	H	-0.572280	-0.013879	0.259237
H185	H	-1.122525	-0.522193	-0.140931
H186	H	-0.622525	-0.022193	0.359069
O187	O	-1.081190	-0.803045	-0.193949
O188	O	-0.581190	-0.303045	0.306051
C189	C	-1.125626	-0.746297	-0.234473
C190	C	-0.625626	-0.246297	0.265527
H191	H	-1.091196	-0.684607	-0.238889
H192	H	-0.591196	-0.184607	0.261111
H193	H	-1.130671	-0.771314	-0.293986
H194	H	-0.630671	-0.271314	0.206014
H195	H	-1.190942	-0.737084	-0.203313
H196	H	-0.690942	-0.237084	0.296687
H197	H	-0.984144	0.135895	0.269555
H198	H	-0.484144	0.635895	0.769555
O199	O	-0.979757	-0.147747	0.517344
O200	O	-0.479757	0.352253	1.017344
C201	C	-0.981144	-0.131684	0.439203
C202	C	-0.481144	0.368316	0.939203
H203	H	-0.955027	-0.067270	0.425281
H204	H	-0.455027	0.432730	0.925281
H205	H	-0.941316	-0.179550	0.404394
H206	H	-0.441316	0.320450	0.904394
H207	H	-1.048208	-0.135245	0.424746
H208	H	-0.548208	0.364755	0.924746
