data_functionalizedCrystal
_audit_creation_method	'MofGen! by Chris Wilmer'
_symmetry_space_group_name_H-M	'P1'
_symmetry_Int_Tables_number	1
_symmetry_cell_setting	triclinic
loop_
_symmetry_equiv_pos_as_xyz
  x,y,z
_cell_length_a	14.853567
_cell_length_b	14.853558
_cell_length_c	13.930277
_cell_angle_alpha	90.004278
_cell_angle_beta	90.002109
_cell_angle_gamma	96.366968
loop_
_atom_site_label
_atom_site_type_symbol
_atom_site_fract_x
_atom_site_fract_y
_atom_site_fract_z
O1	O	0.117660	-1.196371	-0.079811
O2	O	0.131690	-0.933910	-0.079814
O3	O	-0.006555	-1.072151	-0.079815
O4	O	0.255905	-1.058130	-0.079810
O5	O	-0.006551	-1.072138	0.079846
O6	O	0.131694	-0.933896	0.079847
O7	O	0.117664	-1.196357	0.079851
Zn8	Zn	0.124680	-1.065125	0.105199
Zn9	Zn	0.124675	-1.065143	-0.105162
O10	O	0.255909	-1.058116	0.079852
C11	C	-0.040141	-1.071509	0.000013
C12	C	-0.140225	-1.069605	0.000004
C13	C	0.131058	-0.900314	0.000016
C14	C	0.129158	-0.800230	0.000014
C15	C	0.118296	-1.229953	0.000019
C16	C	0.120197	-1.330037	0.000014
C17	C	-0.552756	-0.979439	0.000021
C18	C	-0.574042	-1.143673	0.000024
C19	C	-0.480009	-1.145463	0.000018
C20	C	-0.422344	-1.064240	0.000015
C21	C	-0.458713	-0.981227	0.000019
C22	C	-0.443632	-1.228474	0.000024
C23	C	-0.349593	-1.230268	0.000020
C24	C	-0.291927	-1.149044	0.000011
C25	C	-0.328301	-1.066027	0.000013
C26	C	-0.270637	-0.984805	0.000010
C27	C	-0.307009	-0.901787	0.000006
C28	C	-0.401047	-0.900003	0.000009
C29	C	-0.197890	-1.150828	0.000007
C30	C	-0.176594	-0.986592	0.000008
C31	C	0.289496	-1.058758	0.000022
C32	C	0.389580	-1.060662	0.000024
C33	C	0.128264	-0.753218	-0.087021
C34	C	0.128258	-0.753201	0.087048
C35	C	0.126467	-0.659167	0.087050
C36	C	0.125574	-0.612155	0.000015
C37	C	0.126471	-0.659176	-0.087022
C38	C	0.125561	-0.612141	0.174085
C39	C	0.123769	-0.518101	0.174090
C40	C	0.122882	-0.471086	0.087054
C41	C	0.123781	-0.518113	0.000014
C42	C	0.122887	-0.471100	-0.087022
C43	C	0.123792	-0.518124	-0.174063
C44	C	0.125584	-0.612160	-0.174059
C45	C	0.121090	-0.377050	0.087049
C46	C	0.121094	-0.377058	-0.087023
N47	N	0.124683	-1.065119	0.248765
N48	N	0.124665	-1.065155	-0.248728
C49	C	0.185879	-1.003898	0.299029
C50	C	0.063483	-1.126346	0.299006
C51	C	0.063479	-1.126356	0.399502
C52	C	0.124675	-1.065134	0.449766
C53	C	0.185875	-1.003903	0.399534
C54	C	0.002274	-1.187579	0.449742
C55	C	0.002268	-1.187591	0.550243
C56	C	0.063469	-1.126373	0.600509
C57	C	0.124672	-1.065140	0.550271
C58	C	0.185868	-1.003919	0.600535
C59	C	0.247076	-0.942690	0.550298
C60	C	0.247077	-0.942685	0.449799
C61	C	0.063468	-1.126377	0.701008
C62	C	0.185864	-1.003925	0.701040
H63	H	-0.129649	-0.920449	0.000001
N64	N	-0.636226	-1.231277	0.000022
H65	H	-0.624508	-1.267485	0.059207
H66	H	-0.701293	-1.217479	-0.000011
H67	H	0.235701	-0.954074	0.741958
N68	N	-0.505823	-1.316074	0.000045
H69	H	-0.570914	-1.302343	0.000044
H70	H	-0.494042	-1.352260	-0.059138
N71	N	-0.310365	-1.319802	0.000025
H72	H	-0.361166	-1.370983	0.000029
H73	H	-0.271819	-1.324126	-0.059167
H74	H	0.123059	-0.479834	-0.244927
N75	N	0.313083	-0.876642	0.395622
H76	H	0.353061	-0.911136	0.353916
H77	H	0.278492	-0.836698	0.353989
N78	N	0.313081	-0.876659	0.604512
H79	H	0.302589	-0.812662	0.587030
H80	H	0.303752	-0.886032	0.675782
H81	H	-0.168279	-1.218419	0.000017
N82	N	0.120135	-0.326353	-0.180898
H83	H	0.120980	-0.370413	-0.236033
H84	H	0.063545	-0.294583	-0.184697
H85	H	-0.260047	-0.835656	0.000010
H86	H	0.013654	-1.176187	0.258078
H87	H	0.235716	-0.954048	0.258124
N88	N	0.126543	-0.662883	-0.267930
H89	H	0.125706	-0.618834	-0.323068
H90	H	0.183128	-0.694662	-0.271717
N91	N	-0.591975	-0.889900	0.000026
H92	H	-0.570956	-0.854316	-0.059161
H93	H	-0.660290	-0.901160	0.000063
N94	N	-0.063762	-1.253571	0.395532
H95	H	-0.054478	-1.244268	0.324244
H96	H	-0.053275	-1.317553	0.413072
H97	H	0.129004	-0.791508	-0.157888
N98	N	-0.002534	-1.192410	0.755196
H99	H	-0.042510	-1.157911	0.796898
H100	H	-0.041243	-1.231175	0.708046
H101	H	-0.047570	-1.237447	0.591140
N102	N	-0.440276	-0.810470	0.000008
H103	H	-0.508598	-0.821664	0.000016
H104	H	-0.419184	-0.774920	0.059197
N105	N	0.129218	-0.803902	0.180918
H106	H	0.130489	-0.870610	0.167712
H107	H	0.184750	-0.780221	0.218925
H108	H	0.126280	-0.650426	0.244945
H109	H	0.120362	-0.338766	0.157917
N110	N	0.122795	-0.467385	0.267964
H111	H	0.123006	-0.511517	0.323098
H112	H	0.178217	-0.421556	0.272048
