data_functionalizedCrystal
_audit_creation_method	'MofGen! by Chris Wilmer'
_symmetry_space_group_name_H-M	'P1'
_symmetry_Int_Tables_number	1
_symmetry_cell_setting	triclinic
loop_
_symmetry_equiv_pos_as_xyz
  x,y,z
_cell_length_a	16.992694
_cell_length_b	16.992695
_cell_length_c	9.730223
_cell_angle_alpha	89.995534
_cell_angle_beta	90.001901
_cell_angle_gamma	90.668223
loop_
_atom_site_label
_atom_site_type_symbol
_atom_site_fract_x
_atom_site_fract_y
_atom_site_fract_z
O1	O	1.050850	0.166916	-0.114119
O2	O	1.550850	0.666916	0.385881
O3	O	0.822450	0.165085	-0.114159
O4	O	1.322450	0.665085	0.385841
O5	O	0.935734	0.051800	-0.114128
O6	O	1.435734	0.551800	0.385872
O7	O	0.937565	0.280200	-0.114150
O8	O	1.437565	0.780200	0.385850
O9	O	0.935725	0.051797	0.114452
O10	O	1.435725	0.551797	0.614452
O11	O	0.822441	0.165082	0.114421
O12	O	1.322441	0.665082	0.614421
O13	O	1.050841	0.166913	0.114461
O14	O	1.550841	0.666913	0.614461
Zn15	Zn	0.936639	0.165997	0.150733
Zn16	Zn	1.436639	0.665997	0.650733
Zn17	Zn	0.936651	0.166001	-0.150431
Zn18	Zn	1.436651	0.666001	0.349569
O19	O	0.937556	0.280197	0.114430
O20	O	1.437556	0.780197	0.614430
C21	C	0.793085	0.162727	0.000125
C22	C	1.293085	0.662727	0.500125
C23	C	0.705600	0.155699	0.000110
C24	C	1.205600	0.655699	0.500110
C25	C	0.933374	0.022439	0.000161
C26	C	1.433374	0.522439	0.500161
C27	C	0.926345	-0.065046	0.000159
C28	C	1.426345	0.434954	0.500159
C29	C	0.659610	0.223517	0.000105
C30	C	1.159610	0.723517	0.500105
C31	C	0.577409	0.216908	0.000125
C32	C	1.077409	0.716908	0.500125
C33	C	0.541201	0.142480	0.000140
C34	C	1.041201	0.642480	0.500140
C35	C	0.587198	0.074657	0.000149
C36	C	1.087198	0.574657	0.500149
C37	C	0.669397	0.081267	0.000139
C38	C	1.169397	0.581267	0.500139
C39	C	0.295886	0.115086	0.000179
C40	C	0.795886	0.615086	0.500179
C41	C	0.213681	0.108481	0.000185
C42	C	0.713681	0.608481	0.500185
C43	C	0.203898	0.250732	0.000163
C44	C	0.703898	0.750732	0.500163
C45	C	0.286099	0.257336	0.000145
C46	C	0.786099	0.757336	0.500145
C47	C	0.332089	0.189512	0.000161
C48	C	0.832089	0.689512	0.500161
N49	N	0.457178	0.135723	0.000155
N50	N	0.957178	0.635723	0.500155
N51	N	0.416110	0.196270	0.000155
N52	N	0.916110	0.696270	0.500155
C53	C	0.994163	-0.111037	0.000173
C54	C	1.494163	0.388963	0.500173
C55	C	0.987554	-0.193238	0.000159
C56	C	1.487554	0.306762	0.500159
C57	C	0.913127	-0.229446	0.000141
C58	C	1.413127	0.270554	0.500141
C59	C	0.845303	-0.183449	0.000123
C60	C	1.345303	0.316551	0.500123
C61	C	0.851913	-0.101250	0.000128
C62	C	1.351913	0.398750	0.500128
C63	C	0.885732	-0.474760	0.000117
C64	C	1.385732	0.025240	0.500117
C65	C	0.879127	-0.556966	0.000117
C66	C	1.379127	-0.056966	0.500117
C67	C	1.021379	-0.566749	0.000150
C68	C	1.521379	-0.066749	0.500150
C69	C	1.027982	-0.484547	0.000162
C70	C	1.527982	0.015453	0.500162
C71	C	0.960159	-0.438558	0.000137
C72	C	1.460159	0.061442	0.500137
N73	N	0.906369	-0.313468	0.000131
N74	N	1.406369	0.186532	0.500131
N75	N	0.966917	-0.354537	0.000138
N76	N	1.466917	0.145463	0.500138
C77	C	1.080205	0.169270	0.000173
C78	C	1.580205	0.669270	0.500173
C79	C	1.167690	0.176299	0.000179
C80	C	1.667690	0.676299	0.500179
C81	C	0.939917	0.309559	0.000138
C82	C	1.439917	0.809559	0.500138
C83	C	0.946945	0.397044	0.000130
C84	C	1.446945	0.897044	0.500130
N85	N	0.936637	0.165994	0.356269
N86	N	1.436637	0.665994	0.856269
C87	C	0.986818	0.115855	0.428209
C88	C	1.486818	0.615855	0.928209
C89	C	0.986826	0.115856	0.572092
C90	C	1.486826	0.615856	1.072092
C91	C	0.886468	0.216141	0.572083
C92	C	1.386468	0.716141	1.072083
C93	C	0.886457	0.216136	0.428202
C94	C	1.386457	0.716136	0.928202
N95	N	0.936655	0.166000	0.644032
N96	N	1.436655	0.666000	1.144032
H97	H	0.689084	0.284124	0.000092
H98	H	1.189084	0.784124	0.500092
H99	H	0.796688	-0.063804	0.000116
H100	H	1.296688	0.436196	0.500116
H101	H	0.539966	0.272133	0.000119
H102	H	1.039966	0.772133	0.500119
F103	F	0.175147	0.029261	0.000225
F104	F	0.675147	0.529261	0.500225
H105	H	0.818517	-0.586443	0.000124
H106	H	1.318517	-0.086443	0.500124
H107	H	0.845590	0.256965	0.369625
H108	H	1.345590	0.756965	0.869625
F109	F	0.813548	-0.425825	0.000087
F110	F	1.313548	0.074175	0.500087
H111	H	0.315574	0.317942	0.000116
H112	H	0.815574	0.817942	0.500116
F113	F	1.040222	0.062488	0.351658
F114	F	1.540222	0.562488	0.851658
F115	F	1.040234	0.062490	0.648651
F116	F	1.540234	0.562490	1.148651
H117	H	1.042779	-0.230680	0.000173
H118	H	1.542779	0.269320	0.500173
H119	H	0.784703	-0.212936	0.000100
H120	H	1.284703	0.287064	0.500100
F121	F	1.107198	-0.446018	0.000146
F122	F	1.607198	0.053982	0.500146
H123	H	1.076596	-0.604202	0.000167
H124	H	1.576596	-0.104202	0.500167
H125	H	0.845613	0.256967	0.630665
H126	H	1.345613	0.756967	1.130665
H127	H	0.166444	0.305950	0.000152
H128	H	0.666444	0.805950	0.500152
H129	H	0.557710	0.014056	0.000181
H130	H	1.057710	0.514056	0.500181
F131	F	0.718344	0.009085	0.000150
F132	F	1.218344	0.509085	0.500150
F133	F	0.344822	0.042901	0.000196
F134	F	0.844822	0.542901	0.500196
H135	H	1.054770	-0.081563	0.000196
H136	H	1.554770	0.418437	0.500196
