data_functionalizedCrystal
_audit_creation_method	'MofGen! by Chris Wilmer'
_symmetry_space_group_name_H-M	'P1'
_symmetry_Int_Tables_number	1
_symmetry_cell_setting	triclinic
loop_
_symmetry_equiv_pos_as_xyz
  x,y,z
_cell_length_a	17.699083
_cell_length_b	10.654551
_cell_length_c	16.776229
_cell_angle_alpha	89.995142
_cell_angle_beta	89.998886
_cell_angle_gamma	83.884222
loop_
_atom_site_label
_atom_site_type_symbol
_atom_site_fract_x
_atom_site_fract_y
_atom_site_fract_z
O1	O	1.005089	0.158809	-0.066173
O2	O	0.784842	0.179470	-0.066199
O3	O	0.900028	-0.013689	-0.066184
O4	O	0.889902	0.351967	-0.066188
O5	O	0.900013	-0.013700	0.066393
O6	O	0.784826	0.179458	0.066377
O7	O	1.005073	0.158797	0.066403
Zn8	Zn	0.894947	0.169126	0.087440
Zn9	Zn	0.894968	0.169141	-0.087236
O10	O	0.889886	0.351955	0.066388
C11	C	0.756632	0.178724	0.000086
C12	C	0.672600	0.176503	0.000076
C13	C	0.899277	-0.060479	0.000103
C14	C	0.897052	-0.199884	0.000099
C15	C	0.624700	0.289883	0.000075
C16	C	0.545743	0.287788	0.000085
C17	C	0.514688	0.172313	0.000091
C18	C	0.562594	0.058924	0.000095
C19	C	0.641549	0.061020	0.000090
C20	C	0.244177	0.050470	0.000114
C21	C	0.165216	0.048383	0.000117
C22	C	0.148372	0.277238	0.000110
C23	C	0.227327	0.279334	0.000105
C24	C	0.275226	0.165946	0.000113
C25	C	0.360839	0.168218	0.000103
C26	C	0.429076	0.170039	0.000095
C27	C	0.896016	-0.265363	-0.072169
C28	C	0.893919	-0.396346	-0.072170
C29	C	0.893897	-0.396361	0.072372
C30	C	0.895988	-0.265378	0.072372
C31	C	0.846809	-0.565586	-0.159001
C32	C	0.845786	-0.631072	-0.231273
C33	C	0.890745	-0.598313	-0.295074
C34	C	0.936745	-0.500074	-0.286606
C35	C	0.937775	-0.434595	-0.214332
C36	C	0.892798	-0.467349	-0.150534
C37	C	0.943105	-0.096138	0.159198
C38	C	0.944140	-0.030658	0.231472
C39	C	0.899185	-0.063416	0.295280
C40	C	0.853196	-0.161662	0.286819
C41	C	0.852161	-0.227142	0.214545
C42	C	0.897114	-0.194375	0.150737
C43	C	1.033283	0.159543	0.000117
C44	C	1.117315	0.161764	0.000121
C45	C	0.890638	0.398746	0.000099
C46	C	0.892863	0.538150	0.000098
N47	N	0.894939	0.169114	0.206651
N48	N	0.894982	0.169143	-0.206447
C49	C	0.945959	0.083619	0.248375
C50	C	0.945964	0.083618	0.331827
C51	C	0.894950	0.169119	0.373554
C52	C	0.843924	0.254619	0.331824
C53	C	0.843917	0.254613	0.248374
C54	C	0.843952	0.254643	0.668371
C55	C	0.843964	0.254645	0.751828
C56	C	0.945998	0.083648	0.751825
C57	C	0.945991	0.083642	0.668374
C58	C	0.894963	0.169137	0.626652
C59	C	0.894958	0.169135	0.536163
C60	C	0.894958	0.169127	0.464041
H61	H	0.649979	0.383916	0.000069
Cl62	Cl	0.779806	0.362124	0.615926
H63	H	0.889911	-0.651641	-0.353919
H64	H	0.810188	-0.592257	-0.107057
Cl65	Cl	1.010147	-0.023838	0.804280
H66	H	0.252607	0.373366	0.000097
Cl67	Cl	0.993278	-0.458912	-0.366815
H68	H	0.680549	-0.031306	0.000090
Cl69	Cl	0.126177	-0.096798	0.000125
H70	H	0.283168	-0.041858	0.000121
H71	H	0.987533	0.014023	0.634403
Cl72	Cl	0.779827	0.362139	0.804284
Cl73	Cl	1.001965	0.092841	0.242111
H74	H	0.537303	-0.035098	0.000111
H75	H	0.802384	0.324231	0.365803
Cl76	Cl	0.897348	-0.183030	-0.163026
Cl77	Cl	0.485529	0.430330	0.000079
Cl78	Cl	0.794347	-0.350657	0.203910
Cl79	Cl	0.995598	-0.311103	-0.203683
H80	H	0.893032	-0.449703	0.131214
H81	H	0.109362	0.369564	0.000108
Cl82	Cl	1.010098	-0.023870	0.195927
Cl83	Cl	0.779771	0.362094	0.195921
Cl84	Cl	0.796684	-0.202857	0.367038
Cl85	Cl	0.787956	-0.754565	-0.241918
H86	H	0.900038	-0.010099	0.354131
H87	H	0.979706	-0.069446	0.107239
Cl88	Cl	1.010104	-0.023866	0.384281
