data_functionalizedCrystal
_audit_creation_method	'MofGen! by Chris Wilmer'
_symmetry_space_group_name_H-M	'P1'
_symmetry_Int_Tables_number	1
_symmetry_cell_setting	triclinic
loop_
_symmetry_equiv_pos_as_xyz
  x,y,z
_cell_length_a	23.532407
_cell_length_b	23.532357
_cell_length_c	15.186229
_cell_angle_alpha	89.990735
_cell_angle_beta	89.999328
_cell_angle_gamma	82.838519
loop_
_atom_site_label
_atom_site_type_symbol
_atom_site_fract_x
_atom_site_fract_y
_atom_site_fract_z
O1	O	0.755246	0.069136	-0.073184
O2	O	0.589381	0.079140	-0.073199
O3	O	0.677330	-0.008796	-0.073173
O4	O	0.667297	0.157072	-0.073210
O5	O	0.677324	-0.008797	0.073285
O6	O	0.589375	0.079138	0.073258
O7	O	0.755240	0.069135	0.073274
Zn8	Zn	0.672307	0.074136	0.096519
Zn9	Zn	0.672315	0.074138	-0.096444
O10	O	0.667291	0.157070	0.073247
C11	C	0.568162	0.078884	0.000028
C12	C	0.504945	0.078118	0.000023
C13	C	0.238788	0.022922	0.000059
C14	C	0.298188	0.023633	0.000059
O15	O	0.334940	-0.020154	0.000099
N16	N	0.320805	0.075911	0.000041
C17	C	0.284018	0.127480	0.000033
O18	O	0.308710	0.172012	0.000019
C19	C	0.224619	0.126768	0.000040
C20	C	0.202006	0.074487	0.000048
C21	C	0.216174	-0.029355	0.000069
C22	C	0.156778	-0.030066	0.000068
C23	C	0.119996	0.021499	0.000057
C24	C	0.142610	0.073776	0.000047
C25	C	0.187833	0.178337	0.000037
C26	C	0.128431	0.177620	0.000045
C27	C	0.105818	0.125339	0.000054
C28	C	0.046431	0.124630	0.000035
N29	N	0.023815	0.072353	0.000052
C30	C	0.060597	0.020787	0.000063
C31	C	0.408760	0.128971	0.000020
C32	C	0.468158	0.129684	0.000007
C33	C	0.482324	0.025837	0.000035
C34	C	0.422925	0.025125	0.000042
C35	C	0.386143	0.076694	0.000038
C36	C	-0.064140	0.019297	0.000060
C37	C	-0.123542	0.018591	0.000055
C38	C	-0.137702	0.122438	0.000032
C39	C	-0.078306	0.123145	0.000032
C40	C	-0.041525	0.071570	0.000049
O41	O	0.009644	0.168394	-0.000002
O42	O	0.035897	-0.023737	0.000089
C43	C	0.677076	-0.030013	0.000059
C44	C	0.676322	-0.093232	0.000067
C45	C	0.671588	-0.485242	-0.079815
C46	C	0.670871	-0.544642	-0.079820
O47	O	0.670483	-0.575357	-0.147716
N48	N	0.670512	-0.574354	0.000013
C49	C	0.670865	-0.544662	0.079856
O50	O	0.670493	-0.575388	0.147759
C51	C	0.671578	-0.485263	0.079860
C52	C	0.671942	-0.455555	0.000022
C53	C	0.671952	-0.455534	-0.159646
C54	C	0.672670	-0.396139	-0.159641
C55	C	0.673025	-0.366452	-0.079804
C56	C	0.672661	-0.396160	0.000027
C57	C	0.671926	-0.455572	0.159702
C58	C	0.672639	-0.396169	0.159699
C59	C	0.673004	-0.366461	0.079861
C60	C	0.673733	-0.307078	0.079870
N61	N	0.674092	-0.277366	0.000037
C62	C	0.673738	-0.307053	-0.079800
C63	C	0.669366	-0.669404	0.079841
C64	C	0.668657	-0.728802	0.079838
C65	C	0.668662	-0.728777	-0.079838
C66	C	0.669375	-0.669378	-0.079834
C67	C	0.669725	-0.639692	0.000008
C68	C	0.675247	-0.182319	-0.079783
C69	C	0.675967	-0.122919	-0.079770
C70	C	0.675959	-0.122948	0.079906
C71	C	0.675242	-0.182343	0.079894
C72	C	0.674883	-0.212027	0.000042
O73	O	0.674119	-0.276324	0.147731
O74	O	0.674102	-0.276318	-0.147692
C75	C	0.776459	0.069390	0.000045
C76	C	0.839676	0.070156	0.000044
C77	C	0.667545	0.178288	0.000014
C78	C	0.668300	0.241506	0.000000
N79	N	0.672306	0.074135	0.228212
N80	N	0.672320	0.074135	-0.228137
C81	C	0.711263	0.035210	0.453946
C82	C	0.711265	0.035209	0.546136
C83	C	0.633359	0.113062	0.546122
C84	C	0.633355	0.113060	0.453934
C85	C	0.672310	0.074135	0.407849
C86	C	0.672316	0.074135	0.592226
C87	C	0.672318	0.074134	0.692182
C88	C	0.672308	0.074135	0.307886
H89	H	0.138372	-0.072639	0.000079
O90	O	0.401028	-0.025696	-0.000061
C91	C	0.419840	-0.057101	-0.075919
H92	H	0.460949	-0.041815	-0.101218
H93	H	0.428360	-0.104576	-0.058849
H94	H	0.385423	-0.050307	-0.129029
O95	O	0.676393	-0.094146	0.157483
C96	C	0.725531	-0.115402	0.206092
H97	H	0.759829	-0.136428	0.159400
H98	H	0.742544	-0.078600	0.242320
H99	H	0.713955	-0.148366	0.255862
O100	O	0.749054	-0.002571	0.409042
C101	C	0.740678	0.005750	0.317788
H102	H	0.719162	0.051151	0.305171
H103	H	0.783833	-0.000851	0.282730
H104	H	0.712267	-0.026319	0.291674
O105	O	-0.028359	-0.030764	-0.000047
C106	C	0.006412	-0.033467	-0.075911
H107	H	0.009167	0.011721	-0.101204
H108	H	0.051178	-0.054950	-0.058852
H109	H	-0.012990	-0.059357	-0.129021
H110	H	-0.167661	0.164421	0.000019
H111	H	0.671630	-0.479750	0.224715
O112	O	-0.145602	-0.032147	0.000026
C113	C	-0.205917	-0.021723	0.000043
H114	H	-0.220121	0.022802	-0.027695
H115	H	-0.223964	-0.055156	-0.042470
H116	H	-0.222439	-0.024388	0.070306
H117	H	0.486564	0.172256	-0.000012
H118	H	0.669671	-0.645194	-0.144845
O119	O	0.595544	0.150952	0.590792
C120	C	0.604478	0.207284	0.568261
H121	H	0.626429	0.207100	0.501325
H122	H	0.561506	0.235549	0.565100
H123	H	0.632723	0.224755	0.620137
H124	H	0.601632	0.144757	0.416399
H125	H	0.668372	-0.752959	-0.144846
H126	H	0.246117	-0.071348	0.000081
O127	O	0.518141	-0.024204	0.000090
C128	C	0.575415	-0.012358	0.000062
H129	H	0.577433	0.032364	0.027776
H130	H	0.602519	-0.045244	0.042592
H131	H	0.592607	-0.014617	-0.070201
H132	H	0.378815	0.170968	0.000011
H133	H	0.671662	-0.479699	-0.224663
O134	O	0.749159	-0.002623	0.590779
C135	C	0.783528	-0.036988	0.530330
H136	H	0.784032	-0.013639	0.464610
H137	H	0.829060	-0.045908	0.556964
H138	H	0.765286	-0.079203	0.520537
O139	O	0.674794	-0.211171	0.157465
C140	C	0.625646	-0.189917	0.206045
H141	H	0.591365	-0.168869	0.159333
H142	H	0.608612	-0.226724	0.242249
H143	H	0.637217	-0.156972	0.255833
O144	O	0.209695	0.229174	0.000075
C145	C	0.164483	0.274526	0.000052
H146	H	0.124222	0.258785	0.027777
H147	H	0.176681	0.311045	0.042573
H148	H	0.155985	0.290422	-0.070211
H149	H	0.098485	0.219615	0.000046
O150	O	-0.056430	0.173979	0.000054
C151	C	-0.101636	0.219339	0.000015
H152	H	-0.141902	0.203609	0.027740
H153	H	-0.089433	0.255860	0.042529
H154	H	-0.110127	0.235228	-0.070253
O155	O	0.668206	-0.757615	0.157418
C156	C	0.619055	-0.736352	0.205983
H157	H	0.584777	-0.715315	0.159259
H158	H	0.602020	-0.773152	0.242206
H159	H	0.630622	-0.703396	0.255756
O160	O	0.676293	-0.094145	-0.157407
C161	C	0.675839	-0.133092	-0.227871
H162	H	0.657294	-0.172973	-0.204467
H163	H	0.648395	-0.112148	-0.283711
H164	H	0.721460	-0.145646	-0.252415
O165	O	0.674975	-0.211216	-0.157297
C166	C	0.723897	-0.252300	-0.162099
H167	H	0.740233	-0.263468	-0.092785
H168	H	0.712299	-0.292542	-0.195914
H169	H	0.758719	-0.234111	-0.201479
O170	O	0.669791	-0.640518	0.157350
C171	C	0.719542	-0.612906	0.162152
H172	H	0.736096	-0.606235	0.092839
H173	H	0.708949	-0.569630	0.195956
H174	H	0.753809	-0.640522	0.201543
H175	H	0.672965	-0.371956	-0.224653
H176	H	0.672915	-0.372000	0.224718
