data_functionalizedCrystal
_audit_creation_method	'MofGen! by Chris Wilmer'
_symmetry_space_group_name_H-M	'P1'
_symmetry_Int_Tables_number	1
_symmetry_cell_setting	triclinic
loop_
_symmetry_equiv_pos_as_xyz
  x,y,z
_cell_length_a	10.654550
_cell_length_b	9.065215
_cell_length_c	9.130313
_cell_angle_alpha	89.996437
_cell_angle_beta	89.999724
_cell_angle_gamma	84.749814
loop_
_atom_site_label
_atom_site_type_symbol
_atom_site_fract_x
_atom_site_fract_y
_atom_site_fract_z
O1	O	1.668658	0.207235	-0.121687
O2	O	1.303258	0.226979	-0.121713
O3	O	1.493513	0.002423	-0.121693
O4	O	1.478404	0.431791	-0.121707
O5	O	1.493500	0.002417	0.121906
O6	O	1.303245	0.226972	0.121886
O7	O	1.668645	0.207229	0.121912
Cu8	Cu	1.485944	0.217100	0.144141
Cu9	Cu	1.485959	0.217108	-0.143942
O10	O	1.478390	0.431784	0.121892
C11	C	1.256448	0.225526	0.000083
C12	C	1.116987	0.221189	0.000073
C13	C	1.038024	0.353404	0.000073
C14	C	0.906987	0.349320	0.000098
C15	C	0.933889	0.080794	0.000118
C16	C	1.064924	0.084879	0.000103
C17	C	1.492055	-0.052559	0.000105
C18	C	1.487716	-0.216378	0.000100
C19	C	1.715455	0.208682	0.000113
C20	C	1.854916	0.213019	0.000113
C21	C	1.479848	0.486767	0.000091
C22	C	1.484187	0.650586	0.000086
N23	N	1.485942	0.217094	0.346764
N24	N	1.485971	0.217102	-0.346565
C25	C	1.570216	0.117702	0.423425
C26	C	1.570228	0.117703	0.576762
C27	C	1.401688	0.316498	0.576763
C28	C	1.401671	0.316490	0.423429
H29	H	0.842700	0.456983	0.000101
H30	H	1.638833	0.036766	0.361007
C31	C	1.662934	0.008378	0.661082
H32	H	1.713122	-0.050808	0.593458
H33	H	1.617074	-0.053540	0.720912
H34	H	1.715822	0.062043	0.720882
H35	H	1.333078	0.397427	0.639200
H36	H	1.129219	-0.022793	0.000107
C37	C	1.095291	0.503336	0.000055
H38	H	1.029491	0.581492	0.000072
H39	H	1.145842	0.510518	-0.084898
H40	H	1.145853	0.510509	0.085009
C41	C	0.876614	-0.069134	0.000132
H42	H	0.787265	-0.052634	0.000125
H43	H	0.903619	-0.123635	0.085078
H44	H	0.903612	-0.123622	-0.084829
H45	H	1.333039	0.397427	0.361008
