data_functionalizedCrystal
_audit_creation_method	'MofGen! by Chris Wilmer'
_symmetry_space_group_name_H-M	'P1'
_symmetry_Int_Tables_number	1
_symmetry_cell_setting	triclinic
loop_
_symmetry_equiv_pos_as_xyz
  x,y,z
_cell_length_a	19.077142
_cell_length_b	19.077068
_cell_length_c	19.076919
_cell_angle_alpha	85.529249
_cell_angle_beta	89.925643
_cell_angle_gamma	90.114550
loop_
_atom_site_label
_atom_site_type_symbol
_atom_site_fract_x
_atom_site_fract_y
_atom_site_fract_z
Zn1	Zn	-1.044046	0.340467	-0.453535
Zn2	Zn	-0.544046	0.840467	0.046465
Zn3	Zn	-1.043960	0.453617	-0.340376
Zn4	Zn	-0.543960	0.953617	0.159624
Zn5	Zn	-0.931658	0.331038	-0.330962
Zn6	Zn	-0.431658	0.831038	0.169038
Zn7	Zn	-0.921799	0.453191	-0.453108
Zn8	Zn	-0.421799	0.953191	0.046892
O9	O	-0.985366	0.394578	-0.394495
O10	O	-0.485366	0.894578	0.105505
O11	O	-1.142194	0.359601	-0.442642
O12	O	-0.642194	0.859601	0.057358
O13	O	-1.033152	0.433589	-0.240651
O14	O	-0.533152	0.933589	0.259349
O15	O	-0.950729	0.233814	-0.343461
O16	O	-0.450729	0.733814	0.156539
O17	O	-1.142130	0.442732	-0.359505
O18	O	-0.642130	0.942732	0.140495
O19	O	-1.033300	0.240742	-0.433514
O20	O	-0.533300	0.740742	0.066486
O21	O	-0.950645	0.343531	-0.233735
O22	O	-0.450645	0.843531	0.266265
O23	O	-0.832191	0.343117	-0.343047
O24	O	-0.332191	0.843117	0.156953
O25	O	-0.933926	0.442005	-0.551640
O26	O	-0.433926	0.942005	-0.051640
O27	O	-0.824948	0.432862	-0.432787
O28	O	-0.324948	0.932862	0.067213
O29	O	-1.023740	0.359188	-0.551954
O30	O	-0.523740	0.859188	-0.051954
O31	O	-1.023592	0.552035	-0.359091
O32	O	-0.523592	1.052035	0.140909
O33	O	-0.933842	0.551722	-0.441915
O34	O	-0.433842	1.051722	0.058085
C35	C	-0.803118	0.386921	-0.386849
C36	C	-0.303118	0.886921	0.113151
C37	C	-0.725150	0.383663	-0.383596
C38	C	-0.225150	0.883663	0.116404
C39	C	-0.684768	0.428922	-0.428722
C40	C	-0.184768	0.928922	0.071278
C41	C	-0.611509	0.425852	-0.425668
C42	C	-0.111509	0.925852	0.074332
C43	C	-0.578633	0.377525	-0.377484
C44	C	-0.078633	0.877525	0.122516
C45	C	-0.619021	0.332260	-0.332356
C46	C	-0.119021	0.832260	0.167644
C47	C	-0.692278	0.335328	-0.335414
C48	C	-0.192278	0.835328	0.164586
C49	C	-0.359939	0.363329	-0.363338
C50	C	0.140061	0.863329	0.136662
C51	C	-0.286676	0.360266	-0.360282
C52	C	0.213324	0.860266	0.139718
C53	C	-0.279169	0.453858	-0.453596
C54	C	0.220831	0.953858	0.046404
C55	C	-0.352428	0.456924	-0.456647
C56	C	0.147572	0.956924	0.043353
C57	C	-0.392810	0.411657	-0.411521
C58	C	0.107190	0.911657	0.088479
N59	N	-0.503751	0.374386	-0.374359
N60	N	-0.003751	0.874386	0.125641
N61	N	-0.467691	0.414792	-0.414650
N62	N	0.032309	0.914792	0.085350
C63	C	-0.977656	0.577413	-0.401494
C64	C	-0.477656	1.077413	0.098506
C65	C	-0.974421	0.655634	-0.404515
C66	C	-0.474421	1.155634	0.095485
C67	C	-0.977743	0.401601	-0.578045
C68	C	-0.477743	0.901601	-0.078045
C69	C	-0.974495	0.404593	-0.656263
C70	C	-0.474495	0.904593	-0.156263
C71	C	-0.168326	0.402262	-0.402163
C72	C	0.331674	0.902262	0.097837
C73	C	-0.246294	0.405526	-0.405409
C74	C	0.253706	0.905526	0.094591
C75	C	-0.993124	0.211031	-0.387485
C76	C	-0.493124	0.711031	0.112515
C77	C	-0.996430	0.132814	-0.384498
C78	C	-0.496430	0.632814	0.115502
C79	C	-1.019663	0.692526	-0.362850
C80	C	-0.519663	1.192526	0.137150
C81	C	-1.016624	0.766023	-0.365696
C82	C	-0.516624	1.266023	0.134304
C83	C	-0.968340	0.802628	-0.410202
C84	C	-0.468340	1.302628	0.089798
C85	C	-0.923096	0.765732	-0.451871
C86	C	-0.423096	1.265732	0.048129
C87	C	-0.926139	0.692236	-0.449029
C88	C	-0.426139	1.192236	0.050971
C89	C	-0.954229	1.022422	-0.423325
C90	C	-0.454229	1.522422	0.076675
C91	C	-0.951188	1.095922	-0.426162
C92	C	-0.451188	1.595922	0.073838
C93	C	-1.044718	1.096209	-0.339988
C94	C	-0.544718	1.596209	0.160012
C95	C	-1.047753	1.022711	-0.337147
C96	C	-0.547753	1.522711	0.162853
C97	C	-1.002512	0.985822	-0.378818
C98	C	-0.502512	1.485822	0.121182
N99	N	-0.965231	0.877754	-0.413109
N100	N	-0.465231	1.377754	0.086891
N101	N	-1.005625	0.910697	-0.375914
N102	N	-0.505625	1.410697	0.124086
C103	C	-1.019728	0.362883	-0.693174
C104	C	-0.519728	0.862883	-0.193174
C105	C	-1.016667	0.365691	-0.766668
C106	C	-0.516667	0.865691	-0.266668
C107	C	-0.968376	0.410215	-0.803249
C108	C	-0.468376	0.910215	-0.303249
C109	C	-0.923138	0.451927	-0.766332
C110	C	-0.423138	0.951927	-0.266332
C111	C	-0.926196	0.449114	-0.692840
C112	C	-0.426196	0.949114	-0.192840
C113	C	-0.954214	0.423248	-1.023031
C114	C	-0.454214	0.923248	-0.523031
C115	C	-0.951161	0.426060	-1.096528
C116	C	-0.451161	0.926060	-0.596528
C117	C	-1.044689	0.339822	-1.096859
C118	C	-0.544689	0.839822	-0.596859
C119	C	-1.047745	0.337016	-1.023365
C120	C	-0.547745	0.837016	-0.523365
C121	C	-1.002505	0.378726	-0.986454
C122	C	-0.502505	0.878726	-0.486454
N123	N	-0.965248	0.413089	-0.878372
N124	N	-0.465248	0.913089	-0.378372
N125	N	-1.005630	0.375848	-0.911333
N126	N	-0.505630	0.875848	-0.411333
C127	C	-0.993001	0.387534	-0.211659
C128	C	-0.493001	0.887534	0.288341
C129	C	-0.996394	0.384349	-0.133440
C130	C	-0.496394	0.884349	0.366560
H131	H	-0.592248	0.292908	-0.293126
H132	H	-0.092248	0.792908	0.206874
H133	H	-0.883816	0.488177	-0.796123
H134	H	-0.383816	0.988177	-0.296123
C135	C	-0.876897	0.878266	-0.494484
C136	C	-0.376897	1.378266	0.005516
C137	C	-0.870019	0.805966	-0.500791
C138	C	-0.370019	1.305966	-0.000791
H139	H	-0.844123	0.903102	-0.524682
H140	H	-0.344123	1.403102	-0.024682
H141	H	-0.923086	0.892638	-0.507265
H142	H	-0.423086	1.392638	-0.007265
H143	H	-0.868134	0.888092	-0.447228
H144	H	-0.368134	1.388092	0.052772
H145	H	-0.878787	0.796139	-0.548046
H146	H	-0.378787	1.296139	-0.048046
H147	H	-0.823818	0.791589	-0.488015
H148	H	-0.323818	1.291589	0.011985
C149	C	-1.107982	0.363036	-0.852924
C150	C	-0.607982	0.863036	-0.352924
C151	C	-1.066380	0.319839	-0.807249
C152	C	-0.566380	0.819839	-0.307249
H153	H	-1.138667	0.334724	-0.877981
H154	H	-0.638667	0.834724	-0.377981
H155	H	-1.134717	0.393717	-0.826557
H156	H	-0.634717	0.893717	-0.326557
H157	H	-1.078774	0.389954	-0.885219
H158	H	-0.578774	0.889954	-0.385219
H159	H	-1.095588	0.292925	-0.774950
H160	H	-0.595588	0.792925	-0.274950
H161	H	-1.039642	0.289146	-0.833618
H162	H	-0.539642	0.789146	-0.333618
H163	H	-1.087070	0.992909	-0.300906
H164	H	-0.587070	1.492909	0.199094
C165	C	-0.915898	0.540192	-0.613386
C166	C	-0.415898	1.040192	-0.113386
C167	C	-0.876481	0.494965	-0.652257
C168	C	-0.376481	0.994965	-0.152257
H169	H	-0.885204	0.568493	-0.588328
H170	H	-0.385204	1.068493	-0.088328
H171	H	-0.944120	0.569491	-0.644369
H172	H	-0.444120	1.069491	-0.144369
H173	H	-0.945095	0.513261	-0.581090
H174	H	-0.445095	1.013261	-0.081090
H175	H	-0.847288	0.521896	-0.684557
H176	H	-0.347288	1.021896	-0.184557
H177	H	-0.848247	0.465662	-0.621271
H178	H	-0.348247	0.965662	-0.121271
C179	C	-0.911052	1.121667	-0.544740
C180	C	-0.411052	1.621667	-0.044740
C181	C	-0.898117	1.136165	-0.475091
C182	C	-0.398117	1.636165	0.024909
H183	H	-0.878292	1.146517	-0.574943
H184	H	-0.378292	1.646517	-0.074943
H185	H	-0.906382	1.072623	-0.549012
H186	H	-0.406382	1.572623	-0.049012
H187	H	-0.957253	1.136042	-0.557502
H188	H	-0.457253	1.636042	-0.057502
H189	H	-0.851918	1.121786	-0.462327
H190	H	-0.351918	1.621786	0.037673
H191	H	-0.902780	1.185220	-0.470815
H192	H	-0.402780	1.685220	0.029185
H193	H	-0.711529	0.468278	-0.467956
H194	H	-0.211529	0.968278	0.032044
C195	C	-0.807913	0.298471	-0.298672
C196	C	-0.307913	0.798471	0.201328
C197	C	-0.736670	0.285577	-0.285810
C198	C	-0.236670	0.785577	0.214190
H199	H	-0.835317	0.267751	-0.268051
H200	H	-0.335317	0.767751	0.231949
H201	H	-0.818353	0.345836	-0.290602
H202	H	-0.318353	0.845836	0.209398
H203	H	-0.818386	0.290559	-0.346083
H204	H	-0.318386	0.790559	0.153917
H205	H	-0.726197	0.293495	-0.238399
H206	H	-0.226197	0.793495	0.261601
H207	H	-0.726226	0.238201	-0.293874
H208	H	-0.226226	0.738201	0.206126
H209	H	-1.053465	0.796056	-0.331768
H210	H	-0.553465	1.296056	0.168232
H211	H	-0.911834	0.462318	-1.126311
H212	H	-0.411834	0.962318	-0.626311
C213	C	-0.917365	0.457230	-0.910232
C214	C	-0.417365	0.957230	-0.410232
C215	C	-0.904491	0.469100	-0.982464
C216	C	-0.404491	0.969100	-0.482464
H217	H	-0.886663	0.485536	-0.885187
H218	H	-0.386663	0.985536	-0.385187
H219	H	-0.964554	0.469048	-0.900562
H220	H	-0.464554	0.969048	-0.400562
H221	H	-0.909594	0.409055	-0.895957
H222	H	-0.409594	0.909055	-0.395957
H223	H	-0.912267	0.517274	-0.996740
H224	H	-0.412267	1.017274	-0.496740
H225	H	-0.857291	0.457286	-0.992138
H226	H	-0.357291	0.957286	-0.492138
C227	C	-1.139881	0.252049	-1.031076
C228	C	-0.639881	0.752049	-0.531076
C229	C	-1.100825	0.288070	-0.983157
C230	C	-0.600825	0.788070	-0.483157
H231	H	-1.172647	0.221831	-1.006251
H232	H	-0.672647	0.721831	-0.506251
H233	H	-1.164223	0.284933	-1.062037
H234	H	-0.664223	0.784933	-0.562037
H235	H	-1.109256	0.224946	-1.057430
H236	H	-0.609256	0.724946	-0.557430
H237	H	-1.131449	0.315178	-0.956806
H238	H	-0.631449	0.815178	-0.456806
H239	H	-1.076481	0.255182	-0.952184
H240	H	-0.576481	0.755182	-0.452184
C241	C	-0.208690	0.261762	-0.343628
C242	C	0.291310	0.761762	0.156372
C243	C	-0.250547	0.307120	-0.307328
C244	C	0.249453	0.807120	0.192672
H245	H	-0.186386	0.228953	-0.310938
H246	H	0.313614	0.728953	0.189062
H247	H	-0.237136	0.237284	-0.374501
H248	H	0.262864	0.737284	0.125499
H249	H	-0.174151	0.288290	-0.370052
H250	H	0.325849	0.788290	0.129948
H251	H	-0.285089	0.280593	-0.280907
H252	H	0.214911	0.780593	0.219093
H253	H	-0.222099	0.331601	-0.276442
H254	H	0.277901	0.831601	0.223558
H255	H	-1.081552	1.126252	-0.306062
H256	H	-0.581552	1.626252	0.193938
C257	C	-0.611446	0.518689	-0.518190
C258	C	-0.111446	1.018689	-0.018190
C259	C	-0.567120	0.475614	-0.475261
C260	C	-0.067120	0.975614	0.024739
H261	H	-0.584042	0.549415	-0.548803
H262	H	-0.084042	1.049415	-0.048803
H263	H	-0.640190	0.490304	-0.545187
H264	H	-0.140190	0.990304	-0.045187
H265	H	-0.640162	0.545568	-0.489693
H266	H	-0.140162	1.045568	0.010307
H267	H	-0.538409	0.448730	-0.503759
H268	H	-0.038409	0.948730	-0.003759
H269	H	-0.538365	0.504002	-0.448262
H270	H	-0.038365	1.004002	0.051738
C271	C	-1.111809	0.700199	-0.277961
C272	C	-0.611809	1.200199	0.222039
C273	C	-1.072739	0.652293	-0.313927
C274	C	-0.572739	1.152293	0.186073
H275	H	-1.144580	0.675361	-0.247761
H276	H	-0.644580	1.175361	0.252239
H277	H	-1.081199	0.726589	-0.250848
H278	H	-0.581199	1.226589	0.249152
H279	H	-1.136154	0.731129	-0.310883
H280	H	-0.636154	1.231129	0.189117
H281	H	-1.048390	0.621366	-0.281004
H282	H	-0.548390	1.121366	0.218996
H283	H	-1.103353	0.625892	-0.341041
H284	H	-0.603353	1.125892	0.158959
C285	C	-0.833384	0.699330	-0.534493
C286	C	-0.333384	1.199330	-0.034493
C287	C	-0.876409	0.651682	-0.494828
C288	C	-0.376409	1.151682	0.005172
H289	H	-0.802682	0.674293	-0.562767
H290	H	-0.302682	1.174293	-0.062767
H291	H	-0.861621	0.730272	-0.563818
H292	H	-0.361621	1.230272	-0.063818
H293	H	-0.806661	0.725732	-0.503789
H294	H	-0.306661	1.225732	-0.003789
H295	H	-0.903136	0.625284	-0.525532
H296	H	-0.403136	1.125284	-0.025532
H297	H	-0.848168	0.620728	-0.465500
H298	H	-0.348168	1.120728	0.034500
H299	H	-1.081520	0.305864	-1.126919
H300	H	-0.581520	0.805864	-0.626919
H301	H	-0.379190	0.496279	-0.495882
H302	H	0.120810	0.996279	0.004118
C303	C	-1.111862	0.277918	-0.700890
C304	C	-0.611862	0.777918	-0.200890
C305	C	-1.072810	0.313938	-0.652968
C306	C	-0.572810	0.813938	-0.152968
H307	H	-1.144629	0.247697	-0.676068
H308	H	-0.644629	0.747697	-0.176068
H309	H	-1.136205	0.310802	-0.731850
H310	H	-0.636205	0.810802	-0.231850
H311	H	-1.081236	0.250817	-0.727244
H312	H	-0.581236	0.750817	-0.227244
H313	H	-1.103435	0.341044	-0.626617
H314	H	-0.603435	0.841044	-0.126617
H315	H	-1.048466	0.281050	-0.621995
H316	H	-0.548466	0.781050	-0.121995
H317	H	-0.392809	0.326474	-0.326589
H318	H	0.107191	0.826474	0.173411
C319	C	-0.163537	0.490709	-0.490348
C320	C	0.336463	0.990709	0.009652
C321	C	-0.234780	0.503606	-0.503202
C322	C	0.265220	1.003606	-0.003202
H323	H	-0.136135	0.521420	-0.520980
H324	H	0.363865	1.021420	-0.020980
H325	H	-0.153057	0.498627	-0.442946
H326	H	0.346943	0.998627	0.057054
H327	H	-0.153102	0.443335	-0.498413
H328	H	0.346898	0.943335	0.001587
H329	H	-0.245217	0.550979	-0.495132
H330	H	0.254783	1.050979	0.004868
H331	H	-0.245265	0.495694	-0.550615
H332	H	0.254735	0.995694	-0.050615
H333	H	-0.917390	0.992392	-0.457254
H334	H	-0.417390	1.492392	0.042746
