data_functionalizedCrystal
_audit_creation_method	'MofGen! by Chris Wilmer'
_symmetry_space_group_name_H-M	'P1'
_symmetry_Int_Tables_number	1
_symmetry_cell_setting	triclinic
loop_
_symmetry_equiv_pos_as_xyz
  x,y,z
_cell_length_a	10.654550
_cell_length_b	10.654550
_cell_length_c	9.130313
_cell_angle_alpha	89.995631
_cell_angle_beta	89.999724
_cell_angle_gamma	84.484931
loop_
_atom_site_label
_atom_site_type_symbol
_atom_site_fract_x
_atom_site_fract_y
_atom_site_fract_z
O1	O	1.667839	0.176399	-0.121690
O2	O	1.302361	0.193205	-0.121716
O3	O	1.493503	0.002063	-0.121693
O4	O	1.476697	0.367541	-0.121713
O5	O	1.493490	0.002057	0.121906
O6	O	1.302348	0.193199	0.121882
O7	O	1.667826	0.176393	0.121909
Cu8	Cu	1.485086	0.184796	0.144138
Cu9	Cu	1.485101	0.184802	-0.143946
O10	O	1.476684	0.367535	0.121886
C11	C	1.255556	0.191968	0.000080
C12	C	1.116113	0.188276	0.000070
C13	C	1.492263	-0.044738	0.000105
C14	C	1.488571	-0.184181	0.000103
C15	C	1.036628	0.300818	0.000068
C16	C	0.905607	0.297341	0.000093
C17	C	0.933570	0.068772	0.000117
C18	C	1.064588	0.072250	0.000101
C19	C	1.601112	-0.263667	0.000111
C20	C	1.597636	-0.394688	0.000092
C21	C	1.369066	-0.366725	0.000065
C22	C	1.372544	-0.235706	0.000073
C23	C	1.714631	0.177630	0.000110
C24	C	1.854074	0.181322	0.000110
C25	C	1.477925	0.414336	0.000084
C26	C	1.481616	0.553779	0.000077
N27	N	1.485084	0.184790	0.346761
N28	N	1.485113	0.184798	-0.346568
C29	C	1.569751	0.100188	0.423423
C30	C	1.569763	0.100189	0.576760
C31	C	1.400437	0.269404	0.576759
C32	C	1.400420	0.269396	0.423425
H33	H	1.078574	0.395294	0.000053
O34	O	1.318154	0.351419	0.651399
C35	C	1.240089	0.283439	0.740094
H36	H	1.289261	0.185628	0.763069
H37	H	1.220691	0.335681	0.847914
H38	H	1.147189	0.274040	0.681021
H39	H	0.891602	-0.025693	0.000151
H40	H	1.274601	-0.408693	0.000043
O41	O	0.828448	0.406699	-0.000174
C42	C	0.851970	0.477080	-0.126333
H43	H	0.896155	0.411163	-0.214510
H44	H	0.759463	0.526634	-0.168675
H45	H	0.919310	0.550355	-0.097833
O46	O	1.713708	-0.213406	0.000189
C47	C	1.692651	-0.080721	0.000158
H48	H	1.594909	-0.050813	0.046274
H49	H	1.766959	-0.039865	0.070887
H50	H	1.699059	-0.044192	-0.116706
H51	H	1.331468	0.338290	0.361002
H52	H	1.129309	-0.019401	0.000107
H53	H	1.638704	0.031297	0.639174
H54	H	1.689279	-0.459401	0.000096
O55	O	1.263130	-0.158614	-0.000129
C56	C	1.192781	-0.182089	-0.126319
H57	H	1.222750	-0.281190	-0.168379
H58	H	1.088110	-0.173778	-0.097959
H59	H	1.210593	-0.110283	-0.214658
O60	O	1.652028	0.017877	0.349177
C61	C	1.726778	-0.056774	0.449730
H62	H	1.675287	-0.058664	0.559040
H63	H	1.745064	-0.156899	0.405443
H64	H	1.820426	-0.015126	0.466017
