data_functionalizedCrystal
_audit_creation_method	'MofGen! by Chris Wilmer'
_symmetry_space_group_name_H-M	'P1'
_symmetry_Int_Tables_number	1
_symmetry_cell_setting	triclinic
loop_
_symmetry_equiv_pos_as_xyz
  x,y,z
_cell_length_a	10.654545
_cell_length_b	19.288857
_cell_length_c	9.730223
_cell_angle_alpha	89.993455
_cell_angle_beta	89.997167
_cell_angle_gamma	83.808094
loop_
_atom_site_label
_atom_site_type_symbol
_atom_site_fract_x
_atom_site_fract_y
_atom_site_fract_z
O1	O	1.665750	0.097540	-0.114283
O2	O	1.300071	0.106838	-0.114290
O3	O	1.493482	0.001127	-0.114270
O4	O	1.472339	0.203250	-0.114303
O5	O	1.493469	0.001124	0.114310
O6	O	1.300059	0.106835	0.114290
O7	O	1.665737	0.097537	0.114296
Zn8	Zn	1.482896	0.102185	0.150585
Zn9	Zn	1.482912	0.102189	-0.150579
O10	O	1.472326	0.203247	0.114277
C11	C	1.253281	0.106154	-0.000001
C12	C	1.113882	0.104114	-0.000002
C13	C	1.048391	0.103151	0.124597
C14	C	0.917413	0.101223	0.124598
C15	C	0.917427	0.101221	-0.124613
C16	C	1.048404	0.103145	-0.124612
C17	C	1.492797	-0.024755	0.000021
C18	C	1.490759	-0.101872	0.000025
C19	C	1.489815	-0.138088	-0.124574
C20	C	1.487883	-0.210546	-0.124584
C21	C	1.486920	-0.246789	0.000012
C22	C	1.487858	-0.210564	0.124627
C23	C	1.489777	-0.138106	0.124634
C24	C	1.557428	-0.366560	0.095461
C25	C	1.555517	-0.439018	0.095449
C26	C	1.480994	-0.470273	-0.000004
C27	C	1.408400	-0.429064	-0.095468
C28	C	1.410320	-0.356606	-0.095461
C29	C	1.484838	-0.325357	0.000018
C30	C	1.477953	-0.585056	-0.124623
C31	C	1.476013	-0.657516	-0.124628
C32	C	1.476001	-0.657533	0.124587
C33	C	1.477928	-0.585074	0.124589
C34	C	1.478910	-0.548841	-0.000020
C35	C	1.712527	0.098220	0.000004
C36	C	1.851927	0.100261	-0.000003
C37	C	1.473011	0.229130	-0.000018
C38	C	1.475049	0.306247	-0.000031
N39	N	1.482894	0.102182	0.356122
N40	N	1.482924	0.102187	-0.356115
C41	C	1.568565	0.055394	0.428056
C42	C	1.568578	0.055394	0.571939
C43	C	1.397244	0.148978	0.571940
C44	C	1.397226	0.148973	0.428060
H45	H	1.101728	0.103927	-0.226082
F46	F	1.118074	0.104179	0.257217
H47	H	1.638319	0.017293	0.369488
F48	F	0.847718	0.100199	0.257214
F49	F	1.659757	0.005594	0.648493
F50	F	1.490854	-0.099529	-0.257195
F51	F	1.486877	-0.249097	-0.257205
F52	F	0.847733	0.100176	-0.257223
H53	H	1.327457	0.187075	0.369487
H54	H	1.351208	-0.323056	-0.173189
H55	H	1.347717	-0.454510	-0.173195
F56	F	1.306078	0.198776	0.648511
F57	F	1.478991	-0.546491	-0.257240
H58	H	1.475238	-0.687001	-0.226096
F59	F	1.474969	-0.696100	0.257193
H60	H	1.478707	-0.555588	0.226051
H61	H	1.487070	-0.240077	0.226074
F62	F	1.632782	-0.482869	0.197045
H63	H	1.490541	-0.108620	0.226101
F64	F	1.636776	-0.333305	0.197039
