data_functionalizedCrystal
_audit_creation_method	'MofGen! by Chris Wilmer'
_symmetry_space_group_name_H-M	'P1'
_symmetry_Int_Tables_number	1
_symmetry_cell_setting	triclinic
loop_
_symmetry_equiv_pos_as_xyz
  x,y,z
_cell_length_a	19.188933
_cell_length_b	23.532357
_cell_length_c	18.266242
_cell_angle_alpha	89.988103
_cell_angle_beta	89.992377
_cell_angle_gamma	82.986930
loop_
_atom_site_label
_atom_site_type_symbol
_atom_site_fract_x
_atom_site_fract_y
_atom_site_fract_z
O1	O	0.925906	0.071109	-0.060865
O2	O	0.722562	0.080679	-0.060873
O3	O	0.830384	-0.007027	-0.060854
O4	O	0.818084	0.158815	-0.060885
O5	O	0.830366	-0.007031	0.060908
O6	O	0.722544	0.080675	0.060889
O7	O	0.925888	0.071104	0.060897
Zn8	Zn	0.824213	0.075889	0.080225
Zn9	Zn	0.824237	0.075895	-0.080202
O10	O	0.818066	0.158810	0.060877
C11	C	0.696543	0.080367	0.000007
C12	C	0.619042	0.079436	0.000004
C13	C	0.830067	-0.028246	0.000029
C14	C	0.829142	-0.091467	0.000036
C15	C	0.065819	0.072794	-0.066359
C16	C	0.138640	0.073666	-0.066362
C17	C	0.175046	0.074102	0.000010
C18	C	0.138627	0.073651	0.066390
C19	C	0.065808	0.072774	0.066391
N20	N	0.283943	0.107885	0.049408
N21	N	0.353118	0.108719	0.049402
C22	C	0.394445	0.076743	0.000011
N23	N	0.363984	0.043908	-0.049386
N24	N	0.294802	0.043076	-0.049382
C25	C	0.254006	0.075052	0.000016
C26	C	0.509818	0.078133	-0.066368
C27	C	0.582641	0.079001	-0.066368
C28	C	0.582625	0.078993	0.066386
C29	C	0.509804	0.078119	0.066384
C30	C	0.473404	0.077692	0.000005
C31	C	0.823345	-0.483488	-0.066376
C32	C	0.822466	-0.542889	-0.066380
O33	O	0.821996	-0.573604	-0.122828
N34	N	0.822020	-0.572604	-0.000009
C35	C	0.822446	-0.542913	0.066371
O36	O	0.821985	-0.573642	0.122825
C37	C	0.823320	-0.483512	0.066375
C38	C	0.823773	-0.453802	-0.000001
C39	C	0.823797	-0.453777	-0.132747
C40	C	0.824678	-0.394380	-0.132742
C41	C	0.825106	-0.364694	-0.066367
C42	C	0.824654	-0.394404	0.000003
C43	C	0.823742	-0.453822	0.132754
C44	C	0.824615	-0.394417	0.132752
C45	C	0.825068	-0.364707	0.066376
C46	C	0.825963	-0.305321	0.066383
N47	N	0.826409	-0.275607	0.000011
C48	C	0.825980	-0.305293	-0.066364
C49	C	0.820609	-0.667658	0.066359
C50	C	0.819740	-0.727059	0.066356
C51	C	0.819758	-0.727031	-0.066396
C52	C	0.820632	-0.667630	-0.066392
C53	C	0.821055	-0.637944	-0.000013
C54	C	0.827830	-0.180555	-0.066349
C55	C	0.828714	-0.121153	-0.066339
C56	C	0.828692	-0.121186	0.066412
C57	C	0.827812	-0.180583	0.066403
C58	C	0.827379	-0.210266	0.000016
O59	O	0.826431	-0.274568	0.122801
O60	O	0.826432	-0.274556	-0.122808
C61	C	0.951907	0.071417	0.000015
C62	C	1.029408	0.072348	0.000012
C63	C	0.818382	0.180030	-0.000008
C64	C	0.819307	0.243250	-0.000019
N65	N	0.824202	0.075885	0.189712
N66	N	0.824254	0.075895	-0.189689
C67	C	0.871961	0.037067	0.228029
C68	C	0.871965	0.037065	0.304674
C69	C	0.824217	0.075889	0.342999
C70	C	0.776449	0.114709	0.304672
C71	C	0.776441	0.114707	0.228029
N72	N	0.814970	0.126305	0.463322
N73	N	0.814981	0.126306	0.536130
C74	C	0.824237	0.075897	0.573921
N75	N	0.833494	0.025487	0.536154
N76	N	0.833486	0.025487	0.463339
C77	C	0.824220	0.075896	0.426106
C78	C	0.872003	0.037074	0.695346
C79	C	0.872003	0.037071	0.771992
C80	C	0.776490	0.114720	0.771989
C81	C	0.776487	0.114719	0.695344
C82	C	0.824247	0.075896	0.657027
H83	H	0.036187	0.072445	-0.120410
Br84	Br	0.711681	0.167405	0.823994
H85	H	0.737571	0.146320	0.335880
H86	H	0.737600	0.146329	0.664144
Br87	Br	0.632027	0.079572	0.156464
Br88	Br	0.188066	0.074272	-0.156444
H89	H	0.480158	0.077757	0.120431
Br90	Br	0.632059	0.079599	-0.156452
Br91	Br	0.936817	-0.015615	0.643342
Br92	Br	0.188033	0.074238	0.156468
H93	H	0.829084	-0.096965	-0.120393
H94	H	0.827450	-0.204775	0.120451
Br95	Br	0.829275	-0.080886	0.156488
Br96	Br	0.711620	0.167391	0.176022
Br97	Br	0.827242	-0.220829	-0.156446
H98	H	0.825044	-0.370194	-0.186792
Br99	Br	0.823215	-0.494054	-0.222840
H100	H	0.823374	-0.478003	0.186804
Br101	Br	0.016389	0.072169	0.156474
Br102	Br	0.936817	-0.015619	0.823999
Br103	Br	0.460414	0.077551	-0.156451
H104	H	0.821000	-0.643443	-0.120441
H105	H	0.819407	-0.751212	-0.120442
H106	H	0.910848	0.005455	0.196834
Br107	Br	0.936785	-0.015621	0.356686
H108	H	0.820955	-0.643492	0.120416
Br109	Br	0.819142	-0.767375	0.156441
H110	H	0.824949	-0.370249	0.186807
