data_functionalizedCrystal
_audit_creation_method	'MofGen! by Chris Wilmer'
_symmetry_space_group_name_H-M	'P1'
_symmetry_Int_Tables_number	1
_symmetry_cell_setting	triclinic
loop_
_symmetry_equiv_pos_as_xyz
  x,y,z
_cell_length_a	17.639617
_cell_length_b	29.839131
_cell_length_c	17.637815
_cell_angle_alpha	101.162708
_cell_angle_beta	87.811513
_cell_angle_gamma	101.217837
loop_
_atom_site_label
_atom_site_type_symbol
_atom_site_fract_x
_atom_site_fract_y
_atom_site_fract_z
Zn1	Zn	1.074047	-0.131955	-0.664341
Zn2	Zn	1.099631	-0.189557	-0.537334
Zn3	Zn	0.972746	-0.126052	-0.511675
Zn4	Zn	0.947007	-0.218670	-0.638543
O5	O	1.023358	-0.166559	-0.587973
O6	O	1.183709	-0.129882	-0.669027
O7	O	1.104278	-0.166479	-0.427683
O8	O	0.986248	-0.063967	-0.531985
O9	O	1.202505	-0.172203	-0.575716
O10	O	1.060674	-0.068304	-0.644147
O11	O	1.011056	-0.119822	-0.408832
O12	O	0.863063	-0.148052	-0.506970
O13	O	0.942381	-0.221821	-0.748212
O14	O	0.844153	-0.216098	-0.600179
O15	O	1.035716	-0.158112	-0.767166
O16	O	1.079320	-0.256287	-0.550701
O17	O	0.967188	-0.277676	-0.625059
C18	C	0.826054	-0.184594	-0.547991
C19	C	0.741643	-0.192322	-0.530905
C20	C	0.414996	-0.107861	-0.717965
C21	C	0.335682	-0.115132	-0.701894
C22	C	0.355305	-0.159086	-0.604589
C23	C	0.434622	-0.151820	-0.620654
C24	C	0.464461	-0.126206	-0.677342
C25	C	0.484086	-0.170166	-0.580032
C26	C	0.563397	-0.162898	-0.596093
C27	C	0.593242	-0.137285	-0.652777
C28	C	0.543771	-0.118939	-0.693403
C29	C	0.454246	-0.195776	-0.523340
C30	C	0.503711	-0.214122	-0.482718
C31	C	0.583022	-0.206857	-0.498782
C32	C	0.612868	-0.181244	-0.555466
C33	C	0.632494	-0.225203	-0.458156
C34	C	0.711804	-0.217936	-0.474217
C35	C	0.692178	-0.173977	-0.571527
C36	C	1.023255	-0.283283	-0.587886
C37	C	1.023275	-0.333215	-0.587888
C38	C	1.062087	-0.645093	-0.646443
C39	C	1.062160	-0.832765	-0.646505
O40	O	1.095055	-0.858933	-0.696221
N41	N	1.023470	-0.854001	-0.588084
C42	C	0.984754	-0.828316	-0.529645
O43	O	0.951841	-0.850686	-0.479959
C44	C	0.984677	-0.640646	-0.529586
C45	C	1.023376	-0.619412	-0.588007
C46	C	1.100782	-0.623858	-0.704860
C47	C	1.100767	-0.576942	-0.704842
C48	C	1.062056	-0.551261	-0.646406
C49	C	1.023361	-0.572496	-0.587989
C50	C	0.945957	-0.614964	-0.471151
C51	C	0.945940	-0.568044	-0.471142
C52	C	0.984639	-0.546809	-0.529564
C53	C	0.984635	-0.499899	-0.529535
N54	N	1.023325	-0.478663	-0.587957
C55	C	1.062036	-0.504344	-0.646392
C56	C	0.984799	-0.926846	-0.529679
C57	C	0.984819	-0.973763	-0.529692
C58	C	1.062224	-0.978208	-0.646554
C59	C	1.062207	-0.931289	-0.646537
C60	C	1.023489	-0.905610	-0.588101
C61	C	1.062002	-0.405817	-0.646349
C62	C	1.061986	-0.358896	-0.646323
C63	C	0.984578	-0.354456	-0.529464
C64	C	0.984597	-0.401372	-0.529487
C65	C	1.023310	-0.427052	-0.587936
O66	O	0.951750	-0.473704	-0.479850
O67	O	1.094930	-0.481968	-0.696080
C68	C	1.062102	-0.692009	-0.646462
C69	C	1.023406	-0.713243	-0.588044
C70	C	0.984696	-0.687562	-0.529609
C71	C	1.023427	-0.760160	-0.588058
C72	C	1.062137	-0.785841	-0.646494
C73	C	1.100827	-0.764606	-0.704916
C74	C	1.100812	-0.717690	-0.704897
C75	C	0.946006	-0.708798	-0.471187
C76	C	0.946025	-0.755714	-0.471210
C77	C	0.984735	-0.781395	-0.529645
C78	C	1.221432	-0.148454	-0.628112
C79	C	1.305839	-0.140738	-0.645216
C80	C	0.983324	-0.193872	-0.786008
C81	C	0.966264	-0.205512	-0.870399
C82	C	1.023478	-0.049379	-0.588082
C83	C	1.023530	0.000556	-0.588128
C84	C	1.153126	-0.077954	-1.197288
C85	C	1.137087	-0.088902	-1.276584
C86	C	1.039905	-0.155237	-1.256839
C87	C	1.055939	-0.144296	-1.177541
C88	C	1.112550	-0.105654	-1.147772
C89	C	1.015362	-0.171996	-1.128024
C90	C	1.031392	-0.161054	-1.048731
C91	C	1.087998	-0.122412	-1.018956
C92	C	1.128579	-0.094712	-1.068479
C93	C	0.958748	-0.210636	-1.157794
C94	C	0.918171	-0.238335	-1.108277
C95	C	0.934204	-0.227396	-1.028984
C96	C	0.990811	-0.188754	-0.999208
C97	C	0.893623	-0.255096	-0.979460
C98	C	0.909653	-0.244154	-0.900168
C99	C	1.006841	-0.177812	-0.919915
C100	C	1.063280	-0.139315	-0.390718
C101	C	1.080487	-0.127535	-0.306357
H102	H	0.439292	-0.087006	-0.764128
Br103	Br	0.700880	-0.127415	-0.674568
Br104	Br	0.932047	-0.319594	-0.450161
Br105	Br	0.584273	-0.084184	-0.770347
Br106	Br	0.932242	-0.892002	-0.450367
Br107	Br	0.591990	-0.259955	-0.381214
Br108	Br	0.346611	-0.205634	-0.501535
H109	H	1.052942	-0.146348	-0.895677
H110	H	0.295410	-0.100188	-0.734974
H111	H	1.132276	-0.559656	-0.752415
Br112	Br	1.153335	-0.688879	-0.784188
Br113	Br	1.114729	-0.902476	-0.725826
H114	H	1.101049	-0.113505	-0.954390
H115	H	0.752080	-0.232875	-0.441138
Br116	Br	0.463209	-0.248879	-0.405783
H117	H	0.330999	-0.179938	-0.558431
Br118	Br	1.153367	-0.799467	-0.784218
H119	H	1.093502	-0.341609	-0.693898
Br120	Br	0.893458	-0.673954	-0.391877
Br121	Br	1.114542	-0.440661	-0.725672
Br122	Br	1.205420	-0.042274	-1.028073
Br123	Br	1.114760	-1.013070	-0.725859
Br124	Br	1.229967	-0.025516	-1.156882
H125	H	0.945691	-0.219540	-1.222358
H126	H	1.132303	-0.644764	-0.752450
H127	H	0.953316	-0.991046	-0.482113
H128	H	0.914445	-0.632245	-0.423578
H129	H	0.914408	-0.547138	-0.423557
Br130	Br	0.932091	-0.430189	-0.450191
H131	H	1.170130	-0.066341	-1.316899
Br132	Br	0.963077	-0.207677	-1.297247
Br133	Br	0.893505	-0.784525	-0.391912
H134	H	0.872077	-0.269797	-1.132526
Br135	Br	0.854581	-0.281745	-0.832960
Br136	Br	0.816788	-0.307532	-1.019869
H137	H	0.716474	-0.153122	-0.617691
