data_functionalizedCrystal
_audit_creation_method	'MofGen! by Chris Wilmer'
_symmetry_space_group_name_H-M	'P1'
_symmetry_Int_Tables_number	1
_symmetry_cell_setting	triclinic
loop_
_symmetry_equiv_pos_as_xyz
  x,y,z
_cell_length_a	6.817900
_cell_length_b	11.102188
_cell_length_c	12.908943
_cell_angle_alpha	94.412855
_cell_angle_beta	100.860631
_cell_angle_gamma	108.603875
loop_
_atom_site_label
_atom_site_type_symbol
_atom_site_fract_x
_atom_site_fract_y
_atom_site_fract_z
V1	V	-4.022079	-0.174252	-0.328682
O2	O	-3.982824	0.010006	-0.322425
O3	O	-3.999459	-0.347083	-0.326434
O4	O	-3.959852	-0.170856	-0.472032
O5	O	-4.022705	-0.167442	-0.175820
V6	V	-4.504159	-0.152298	-0.310398
O7	O	-4.286505	-0.222412	-0.368789
O8	O	-4.689930	-0.104138	-0.270292
O9	O	-4.303573	0.020533	-0.312646
O10	O	-4.660810	-0.336556	-0.316655
O11	O	-4.620929	-0.159109	-0.463261
O12	O	-4.343179	-0.155694	-0.167049
C13	C	-3.851178	-0.389238	-0.321249
C14	C	-3.913878	-0.530525	-0.320367
C15	C	-3.909436	-0.579219	-0.223415
C16	C	-3.968371	-0.711974	-0.222590
C17	C	-4.036181	-0.747332	-0.415677
C18	C	-3.977261	-0.614579	-0.416501
C19	C	-4.125514	-0.876300	-0.108860
C20	C	-4.121037	-0.924996	-0.011902
C21	C	-3.954612	-0.862161	0.076448
C22	C	-3.792614	-0.750629	0.067846
C23	C	-3.797077	-0.701940	-0.029113
C24	C	-3.963547	-0.764774	-0.117461
C25	C	-3.820097	-0.450249	-0.530225
C26	C	-3.824545	-0.401557	-0.627184
C27	C	-3.990960	-0.464390	-0.715543
C28	C	-4.152933	-0.575927	-0.706950
C29	C	-4.148486	-0.624619	-0.609990
C30	C	-3.982070	-0.561776	-0.521632
C31	C	-3.800655	-0.164441	-0.506972
C32	C	-3.831231	-0.162807	-0.624161
C33	C	-4.253820	-0.172350	-0.855107
C34	C	-4.282559	-0.170816	-0.965217
C35	C	-3.917446	-0.158196	-0.954491
C36	C	-3.888707	-0.159730	-0.844381
C37	C	-4.056903	-0.166809	-0.794694
C38	C	-4.028166	-0.168352	-0.684583
C39	C	-3.663052	-0.155723	-0.673858
C40	C	-3.691791	-0.154189	-0.783968
C41	C	-4.115196	0.062681	-0.317829
C42	C	-4.031734	0.203967	-0.318718
C43	C	-4.165720	-0.162113	-0.132103
C44	C	-4.114381	-0.163741	-0.014913
H45	H	-3.857827	-0.510784	-0.145136
H46	H	-3.780515	-0.152423	-0.994965
H47	H	-3.657089	-0.699484	0.139789
H48	H	-3.994554	-0.424740	-0.794494
H49	H	-4.252952	-1.015807	-0.004905
H50	H	-3.554856	-0.148421	-0.824438
Br51	Br	-4.256431	-0.177968	-0.617151
H52	H	-3.950972	-0.901819	0.155393
H53	H	-3.684580	-0.399075	-0.458278
Br54	Br	-3.577245	-0.550589	-0.040796
Br55	Br	-4.549807	-0.178327	-1.047204
H56	H	-3.502707	-0.151217	-0.624657
H57	H	-4.087790	-0.815784	-0.493946
Br58	Br	-4.351421	-0.961570	-0.228758
H59	H	-4.288436	-0.627093	-0.778900
Br60	Br	-3.604707	-0.250191	-0.638850
Br61	Br	-4.368302	-0.775998	-0.598329
H62	H	-4.390778	-0.178127	-0.814653
