data_functionalizedCrystal
_audit_creation_method	'MofGen! by Chris Wilmer'
_symmetry_space_group_name_H-M	'P1'
_symmetry_Int_Tables_number	1
_symmetry_cell_setting	triclinic
loop_
_symmetry_equiv_pos_as_xyz
  x,y,z
_cell_length_a	18.050591
_cell_length_b	21.395361
_cell_length_c	18.050565
_cell_angle_alpha	90.106805
_cell_angle_beta	89.930112
_cell_angle_gamma	89.973287
loop_
_atom_site_label
_atom_site_type_symbol
_atom_site_fract_x
_atom_site_fract_y
_atom_site_fract_z
Zn1	Zn	1.135639	0.249050	-0.420011
Zn2	Zn	1.135438	0.353966	-0.295811
Zn3	Zn	1.011352	0.249199	-0.295822
Zn4	Zn	1.011401	0.353787	-0.419947
O5	O	1.073457	0.301501	-0.357898
O6	O	1.239537	0.262980	-0.403558
O7	O	1.118873	0.340206	-0.191888
O8	O	1.027903	0.161501	-0.312327
O9	O	1.239389	0.340062	-0.312309
O10	O	1.119216	0.161392	-0.403568
O11	O	1.027708	0.263234	-0.191895
O12	O	0.907434	0.263060	-0.312265
O13	O	1.027986	0.339756	-0.523881
O14	O	0.907470	0.339900	-0.403459
O15	O	1.119263	0.262806	-0.523927
O16	O	1.118920	0.441620	-0.312247
O17	O	1.027791	0.441488	-0.403449
C18	C	0.880505	0.301477	-0.357857
C19	C	0.797959	0.301482	-0.357857
C20	C	1.073359	0.464288	-0.357856
C21	C	1.073385	0.533929	-0.357864
C22	C	1.073652	0.301244	-0.551604
C23	C	1.073735	0.301135	-0.634150
C24	C	0.598468	0.259648	-0.308379
C25	C	0.549030	0.316816	-0.290098
C26	C	0.646829	0.301501	-0.357890
C27	C	0.549186	0.244353	-0.376169
C28	C	0.500844	0.301515	-0.357921
C29	C	0.598478	0.358700	-0.339574
C30	C	0.598638	0.286198	-0.425677
C31	C	0.549222	0.343405	-0.407421
C32	C	0.730927	0.301493	-0.357870
C33	C	0.416747	0.301530	-0.357941
C34	C	1.267163	0.301524	-0.357939
C35	C	1.349709	0.301534	-0.357957
C36	C	1.073576	0.138077	-0.357955
C37	C	1.073627	0.068436	-0.357980
C38	C	1.120879	0.566690	-0.310423
C39	C	1.120913	0.632126	-0.310440
C40	C	1.073441	0.664798	-0.357889
C41	C	1.025944	0.632029	-0.405339
C42	C	1.025917	0.566595	-0.405326
C43	C	1.006577	0.768502	-0.363702
C44	C	1.006603	0.833935	-0.363709
C45	C	1.073528	0.866618	-0.357933
C46	C	1.140427	0.833861	-0.352133
C47	C	1.140399	0.768427	-0.352120
C48	C	1.073466	0.735750	-0.357908
C49	C	1.121062	0.970332	-0.310508
C50	C	1.121098	1.035768	-0.310530
C51	C	1.026123	1.035670	-0.405424
C52	C	1.026094	0.970235	-0.405406
C53	C	1.073563	0.937570	-0.357944
C54	C	1.073306	0.301710	-0.164945
C55	C	1.073367	0.301643	-0.082399
C56	C	1.123474	0.342976	0.117092
C57	C	1.055883	0.358653	0.166680
C58	C	1.073489	0.301472	0.068730
C59	C	1.141199	0.285658	0.166225
C60	C	1.073614	0.301308	0.214715
C61	C	1.005862	0.317180	0.117231
C62	C	1.091223	0.244158	0.116771
C63	C	1.023585	0.259814	0.166336
C64	C	1.073419	0.301568	-0.015368
C65	C	1.073677	0.301212	0.298811
H66	H	0.620092	0.224292	-0.266464
H67	H	0.952130	0.860600	-0.368424
H68	H	0.620444	0.273226	-0.482972
H69	H	1.165639	0.378172	0.095469
H70	H	1.159532	0.540096	-0.271779
H71	H	0.527735	0.378846	-0.449304
H72	H	0.987417	0.943559	-0.444034
H73	H	1.040932	0.407052	0.188594
H74	H	0.948636	0.330541	0.095794
H75	H	1.106194	0.195773	0.094841
H76	H	0.987241	0.539920	-0.443958
H77	H	0.527242	0.329770	-0.232786
H78	H	0.981319	0.224646	0.187823
H79	H	1.194870	0.741758	-0.347400
H80	H	1.198408	0.272350	0.187752
H81	H	0.620041	0.407049	-0.324063
H82	H	0.527494	0.196024	-0.391592
H83	H	1.159591	0.658805	-0.271808
H84	H	1.194923	0.860471	-0.347429
H85	H	1.159717	0.943735	-0.271863
H86	H	1.159778	1.062441	-0.271899
H87	H	0.987474	1.062271	-0.444062
H88	H	0.952075	0.741897	-0.368409
H89	H	0.987294	0.658635	-0.443973
