data_functionalizedCrystal
_audit_creation_method	'MofGen! by Chris Wilmer'
_symmetry_space_group_name_H-M	'P1'
_symmetry_Int_Tables_number	1
_symmetry_cell_setting	triclinic
loop_
_symmetry_equiv_pos_as_xyz
  x,y,z
_cell_length_a	17.699083
_cell_length_b	15.072220
_cell_length_c	17.699083
_cell_angle_alpha	90.002035
_cell_angle_beta	83.283015
_cell_angle_gamma	90.006459
loop_
_atom_site_label
_atom_site_type_symbol
_atom_site_fract_x
_atom_site_fract_y
_atom_site_fract_z
O1	O	1.004085	0.073660	0.095706
O2	O	1.504085	0.573660	0.595706
O3	O	0.783707	0.073689	0.108159
O4	O	1.283707	0.573689	0.608159
O5	O	0.900122	0.073666	-0.008257
O6	O	1.400122	0.573666	0.491743
O7	O	0.887670	0.073683	0.212122
O8	O	1.387670	0.573683	0.712122
O9	O	0.900093	-0.073899	-0.008250
O10	O	1.400093	0.426101	0.491750
O11	O	0.783678	-0.073876	0.108165
O12	O	1.283678	0.426124	0.608165
O13	O	1.004056	-0.073905	0.095713
O14	O	1.504056	0.426095	0.595713
Zn15	Zn	0.893863	-0.097320	0.101940
Zn16	Zn	1.393863	0.402680	0.601940
Zn17	Zn	0.893901	0.097104	0.101931
Zn18	Zn	1.393901	0.597104	0.601931
O19	O	0.887641	-0.073882	0.212128
O20	O	1.387641	0.426118	0.712128
C21	C	0.755495	-0.000090	0.107716
C22	C	1.255495	0.499910	0.607716
C23	C	0.671477	-0.000079	0.106377
C24	C	1.171477	0.499921	0.606377
N25	N	0.893842	-0.230009	0.101945
N26	N	1.393842	0.269991	0.601945
C27	C	0.622856	-0.000074	0.174710
C28	C	1.122856	0.499926	0.674710
C29	C	0.543913	-0.000085	0.173448
C30	C	1.043913	0.499915	0.673448
C31	C	0.513592	-0.000096	0.103852
C32	C	1.013592	0.499904	0.603852
C33	C	0.562219	-0.000103	0.035513
C34	C	1.062219	0.499897	0.535513
C35	C	0.641161	-0.000098	0.036776
C36	C	1.141161	0.499902	0.536776
C37	C	0.243856	-0.000126	0.030418
C38	C	0.743856	0.499874	0.530418
C39	C	0.164908	-0.000128	0.029160
C40	C	0.664908	0.499872	0.529160
C41	C	0.146608	-0.000113	0.167090
C42	C	0.646608	0.499887	0.667090
C43	C	0.225550	-0.000108	0.168353
C44	C	0.725550	0.499892	0.668353
C45	C	0.274170	-0.000120	0.100015
C46	C	0.774170	0.499880	0.600015
C47	C	0.359769	-0.000109	0.101384
C48	C	0.859769	0.499891	0.601384
C49	C	0.427995	-0.000100	0.102481
C50	C	0.927995	0.499900	0.602481
C51	C	0.893899	-0.589210	0.101928
C52	C	1.393899	-0.089210	0.601928
C53	C	0.831399	-0.551591	0.164012
C54	C	1.331399	-0.051591	0.664012
C55	C	0.831542	-0.448765	0.164238
C56	C	1.331542	0.051235	0.664238
C57	C	0.893870	-0.411006	0.101937
C58	C	1.393870	0.088994	0.601937
C59	C	0.972810	-0.448306	0.119040
C60	C	1.472810	0.051694	0.619040
C61	C	0.972460	-0.551164	0.119481
C62	C	1.472460	-0.051164	0.619481
C63	C	0.878163	-0.551314	0.022557
C64	C	1.378163	-0.051314	0.522557
C65	C	0.876350	-0.448450	0.023090
C66	C	1.376350	0.051550	0.523090
C67	C	0.893859	-0.310293	0.101940
C68	C	1.393859	0.189707	0.601940
C69	C	0.893915	-0.689923	0.101927
C70	C	1.393915	-0.189923	0.601927
C71	C	1.032268	-0.000124	0.096156
C72	C	1.532268	0.499876	0.596156
C73	C	1.116286	-0.000130	0.097494
C74	C	1.616286	0.499870	0.597494
C75	C	0.899662	-0.000117	-0.036451
C76	C	1.399662	0.499883	0.463549
C77	C	0.898323	-0.000117	-0.120469
C78	C	1.398323	0.499883	0.379531
N79	N	0.893927	0.229792	0.101920
N80	N	1.393927	0.729792	0.601920
C81	C	0.966656	-0.000127	-0.169090
C82	C	1.466656	0.499873	0.330910
C83	C	0.965394	-0.000119	-0.248033
C84	C	1.465394	0.499881	0.251967
C85	C	0.895798	-0.000107	-0.278354
C86	C	1.395798	0.499893	0.221646
C87	C	0.827459	-0.000094	-0.229727
C88	C	1.327459	0.499906	0.270273
C89	C	0.828722	-0.000096	-0.150785
C90	C	1.328722	0.499904	0.349215
C91	C	0.822364	-0.000086	-0.548090
C92	C	1.322364	0.499914	-0.048090
C93	C	0.821106	-0.000087	-0.627038
C94	C	1.321106	0.499913	-0.127038
C95	C	0.959036	-0.000110	-0.645338
C96	C	1.459036	0.499890	-0.145338
C97	C	0.960299	-0.000111	-0.566396
C98	C	1.460299	0.499889	-0.066396
C99	C	0.891961	-0.000094	-0.517776
C100	C	1.391961	0.499906	-0.017776
C101	C	0.893330	-0.000101	-0.432177
C102	C	1.393330	0.499899	0.067823
C103	C	0.894427	-0.000107	-0.363951
C104	C	1.394427	0.499893	0.136049
C105	C	0.888102	-0.000097	0.240322
C106	C	1.388102	0.499903	0.740322
C107	C	0.889440	-0.000091	0.324340
C108	C	1.389440	0.499909	0.824340
H109	H	0.647537	-0.000065	0.231384
H110	H	1.147537	0.499935	0.731384
C111	C	0.845110	-0.415499	0.243804
C112	C	1.345110	0.084501	0.743804
H113	H	0.845241	-0.352468	0.244215
H114	H	1.345241	0.147532	0.744215
H115	H	0.892760	-0.436804	0.255886
H116	H	1.392760	0.063196	0.755886
H117	H	0.805692	-0.436690	0.280398
H118	H	1.305692	0.063310	0.780398
C119	C	0.694644	-0.000095	-0.038390
C120	C	1.194644	0.499905	0.461610
H121	H	0.665282	-0.000092	-0.080021
H122	H	1.165282	0.499908	0.419979
H123	H	0.725819	-0.051551	-0.040765
H124	H	1.225819	0.448449	0.459235
H125	H	0.725820	0.051374	-0.040764
H126	H	1.225820	0.551374	0.459236
C127	C	1.036854	-0.000121	-0.533047
C128	C	1.536854	0.499879	-0.033047
H129	H	1.077372	-0.000117	-0.573311
H130	H	1.577372	0.499883	-0.073311
H131	H	1.040207	-0.051579	-0.502631
H132	H	1.540207	0.448421	-0.002631
H133	H	1.040220	0.051346	-0.502634
H134	H	1.540220	0.551346	-0.002634
C135	C	0.753558	-0.000084	-0.097298
C136	C	1.253558	0.499916	0.402702
H137	H	0.764277	-0.000077	-0.045941
H138	H	1.264277	0.499923	0.454059
H139	H	0.724999	-0.051537	-0.106473
H140	H	1.224999	0.448463	0.393527
H141	H	0.725028	0.051388	-0.106477
H142	H	1.225028	0.551388	0.393523
C143	C	0.744548	-0.000067	-0.660393
C144	C	1.244548	0.499933	-0.160393
H145	H	0.753587	-0.000078	-0.714371
H146	H	1.253587	0.499922	-0.214371
H147	H	0.716431	0.051399	-0.643698
H148	H	1.216431	0.551399	-0.143698
H149	H	0.716404	-0.051526	-0.643696
H150	H	1.216404	0.448474	-0.143696
C151	C	0.802087	-0.586380	0.000300
C152	C	1.302087	-0.086380	0.500300
H153	H	0.793680	-0.562717	-0.047761
H154	H	1.293680	-0.062717	0.452239
H155	H	0.761860	-0.568767	0.037554
H156	H	1.261860	-0.068767	0.537554
H157	H	0.803791	-0.649297	-0.002632
H158	H	1.303791	-0.149297	0.497368
H159	H	1.021038	-0.000130	-0.287618
H160	H	1.521038	0.499870	0.212382
C161	C	0.992033	-0.413499	0.196338
C162	C	1.492033	0.086501	0.696338
H163	H	1.039911	-0.436439	0.206178
H164	H	1.539911	0.063561	0.706178
H165	H	0.953861	-0.432051	0.235356
H166	H	1.453861	0.067949	0.735356
H167	H	0.994196	-0.350529	0.195161
H168	H	1.494196	0.149471	0.695161
H169	H	1.020413	-0.576048	0.076038
H170	H	1.520413	-0.076048	0.576038
C171	C	0.131557	-0.000148	-0.047400
C172	C	0.631557	0.499852	0.452600
H173	H	0.171819	-0.000164	-0.087919
H174	H	0.671819	0.499836	0.412081
H175	H	0.101146	0.051308	-0.050765
H176	H	0.601146	0.551308	0.449235
H177	H	0.101138	-0.051617	-0.050748
H178	H	0.601138	0.448383	0.449252
C179	C	0.747195	-0.000083	-0.494618
C180	C	1.247195	0.499917	0.005382
H181	H	0.705567	-0.000087	-0.523984
H182	H	1.205567	0.499913	-0.023984
H183	H	0.744823	0.051375	-0.463438
H184	H	1.244823	0.551375	0.036562
H185	H	0.744814	-0.051550	-0.463446
H186	H	1.244814	0.448450	0.036554
C187	C	0.297328	-0.000133	-0.044751
C188	C	0.797328	0.499867	0.455249
H189	H	0.267962	-0.000131	-0.086379
H190	H	0.767962	0.499869	0.413621
H191	H	0.328500	-0.051592	-0.047126
H192	H	0.828500	0.448408	0.452874
H193	H	0.328507	0.051333	-0.047130
H194	H	0.828507	0.551333	0.452870
C195	C	0.528869	-0.000113	-0.041041
C196	C	1.028869	0.499887	0.458959
H197	H	0.474890	-0.000106	-0.032008
H198	H	0.974890	0.499894	0.467992
H199	H	0.545562	-0.051573	-0.069171
H200	H	1.045562	0.448427	0.430829
H201	H	0.545571	0.051352	-0.069171
H202	H	1.045571	0.551352	0.430829
H203	H	0.818282	-0.424072	0.010107
H204	H	1.318282	0.075928	0.510107
H205	H	0.986348	-0.575143	0.177362
H206	H	1.486348	-0.075143	0.677362
C207	C	0.933871	-0.413746	-0.042233
C208	C	1.433871	0.086254	0.457767
H209	H	0.969485	-0.375801	-0.022184
H210	H	1.469485	0.124199	0.477816
H211	H	0.907673	-0.381634	-0.077322
H212	H	1.407673	0.118366	0.422678
H213	H	0.959958	-0.462402	-0.067484
H214	H	1.459958	0.037598	0.432516
C215	C	0.490433	-0.000077	0.248615
C216	C	0.990433	0.499923	0.748615
H217	H	0.519797	-0.000059	0.290244
H218	H	1.019797	0.499941	0.790244
H219	H	0.459255	-0.051538	0.250996
H220	H	0.959255	0.448462	0.750996
H221	H	0.459260	0.051386	0.250984
H222	H	0.959260	0.551386	0.750984
C223	C	1.034208	-0.000115	-0.698822
C224	C	1.534208	0.499885	-0.198822
H225	H	1.023492	-0.000101	-0.750180
H226	H	1.523492	0.499899	-0.250180
H227	H	1.062742	-0.051578	-0.689648
H228	H	1.562742	0.448422	-0.189648
H229	H	1.062759	0.051347	-0.689639
H230	H	1.562759	0.551347	-0.189639
H231	H	0.250232	-0.000095	0.225025
H232	H	0.750232	0.499905	0.725025
H233	H	0.107012	-0.000107	0.222734
H234	H	0.607012	0.499893	0.722734
C235	C	0.939730	-0.584184	-0.039856
C236	C	1.439730	-0.084184	0.460144
H237	H	0.974858	-0.620825	-0.017693
H238	H	1.474858	-0.120825	0.482307
H239	H	0.965792	-0.534723	-0.063803
H240	H	1.465792	-0.034723	0.436197
H241	H	0.916520	-0.617303	-0.076568
H242	H	1.416520	-0.117303	0.423432
H243	H	0.772859	-0.423547	0.154069
H244	H	1.272859	0.076453	0.654069
C245	C	0.751867	-0.585040	0.150515
C246	C	1.251867	-0.085040	0.650515
H247	H	0.756062	-0.622253	0.106901
H248	H	1.256062	-0.122253	0.606901
H249	H	0.720165	-0.535840	0.142664
H250	H	1.220165	-0.035840	0.642664
H251	H	0.730310	-0.617686	0.193656
H252	H	1.230310	-0.117686	0.693656
H253	H	0.841293	-0.577426	0.222584
H254	H	1.341293	-0.077426	0.722584
C255	C	1.037136	-0.415260	0.059579
C256	C	1.537136	0.084740	0.559579
H257	H	1.016371	-0.378330	0.023711
H258	H	1.516371	0.121670	0.523711
H259	H	1.061791	-0.464639	0.034053
H260	H	1.561791	0.035361	0.534053
H261	H	1.072925	-0.382406	0.084293
H262	H	1.572925	0.117594	0.584293
H263	H	0.770792	-0.000079	-0.254420
H264	H	1.270792	0.499921	0.245580
C265	C	1.043214	-0.000140	-0.135744
C266	C	1.543214	0.499860	0.364256
H267	H	1.083729	-0.000137	-0.176010
H268	H	1.583729	0.499863	0.323990
H269	H	1.046566	-0.051600	-0.105330
H270	H	1.546566	0.448400	0.394670
H271	H	1.046583	0.051325	-0.105329
H272	H	1.546583	0.551325	0.394671
