data_functionalizedCrystal
_audit_creation_method	'MofGen! by Chris Wilmer'
_symmetry_space_group_name_H-M	'P1'
_symmetry_Int_Tables_number	1
_symmetry_cell_setting	triclinic
loop_
_symmetry_equiv_pos_as_xyz
  x,y,z
_cell_length_a	15.944551
_cell_length_b	14.519731
_cell_length_c	12.996460
_cell_angle_alpha	89.992872
_cell_angle_beta	89.998907
_cell_angle_gamma	83.593796
loop_
_atom_site_label
_atom_site_type_symbol
_atom_site_fract_x
_atom_site_fract_y
_atom_site_fract_z
O1	O	1.114706	0.118942	-0.085462
O2	O	1.364706	0.368942	0.164538
O3	O	1.614706	0.618942	0.414538
O4	O	1.864706	0.868942	0.664538
O5	O	0.870179	0.133606	-0.085488
O6	O	1.120179	0.383606	0.164512
O7	O	1.370179	0.633606	0.414512
O8	O	1.620179	0.883606	0.664512
O9	O	0.998916	-0.007974	-0.085465
O10	O	1.248916	0.242026	0.164535
O11	O	1.498916	0.492026	0.414535
O12	O	1.748916	0.742026	0.664535
O13	O	0.985969	0.260523	-0.085485
O14	O	1.235969	0.510523	0.164515
O15	O	1.485969	0.760523	0.414515
O16	O	1.735969	1.010523	0.664515
O17	O	0.998903	-0.007982	0.085669
O18	O	1.248903	0.242018	0.335669
O19	O	1.498903	0.492018	0.585669
O20	O	1.748903	0.742018	0.835669
O21	O	0.870165	0.133598	0.085646
O22	O	1.120165	0.383598	0.335646
O23	O	1.370165	0.633598	0.585646
O24	O	1.620165	0.883598	0.835646
O25	O	1.114693	0.118934	0.085672
O26	O	1.364693	0.368934	0.335672
O27	O	1.614693	0.618934	0.585672
O28	O	1.864693	0.868934	0.835672
Cu29	Cu	0.992428	0.126266	0.101285
Cu30	Cu	1.242428	0.376266	0.351285
Cu31	Cu	1.492428	0.626266	0.601285
Cu32	Cu	1.742428	0.876266	0.851285
Cu33	Cu	0.992444	0.126275	-0.101101
Cu34	Cu	1.242444	0.376275	0.148899
Cu35	Cu	1.492444	0.626275	0.398899
Cu36	Cu	1.742444	0.876275	0.648899
O37	O	0.985955	0.260515	0.085649
O38	O	1.235955	0.510515	0.335649
O39	O	1.485955	0.760515	0.585649
O40	O	1.735955	1.010515	0.835649
C41	C	0.838877	0.132993	0.000076
C42	C	1.088877	0.382993	0.250076
C43	C	1.338877	0.632993	0.500076
C44	C	1.588877	0.882993	0.750076
C45	C	0.745628	0.131168	0.000066
C46	C	0.995628	0.381168	0.250066
C47	C	1.245628	0.631168	0.500066
C48	C	1.495628	0.881168	0.750066
C49	C	0.998303	-0.042337	0.000102
C50	C	1.248303	0.207663	0.250102
C51	C	1.498303	0.457663	0.500102
C52	C	1.748303	0.707663	0.750102
C53	C	0.996485	-0.144714	0.000103
C54	C	1.246485	0.105286	0.250103
C55	C	1.496485	0.355286	0.500103
C56	C	1.746485	0.605286	0.750103
C57	C	0.530632	0.039048	0.000093
C58	C	0.780632	0.289048	0.250093
C59	C	1.030632	0.539048	0.500093
C60	C	1.280632	0.789048	0.750093
C61	C	0.469683	0.081829	-0.084288
C62	C	0.719683	0.331829	0.165712
C63	C	0.969683	0.581829	0.415712
C64	C	1.219683	0.831829	0.665712
C65	C	0.574898	0.127867	0.000079
C66	C	0.824898	0.377867	0.250079
C67	C	1.074898	0.627867	0.500079
C68	C	1.324898	0.877867	0.750079
C69	C	0.469692	0.081843	0.084437
C70	C	0.719692	0.331843	0.334437
C71	C	0.969692	0.581843	0.584437
C72	C	1.219692	0.831843	0.834437
C73	C	0.409980	0.124671	0.000095
C74	C	0.659980	0.374671	0.250095
C75	C	0.909980	0.624671	0.500095
C76	C	1.159980	0.874671	0.750095
C77	C	0.515177	0.170673	-0.084372
C78	C	0.765177	0.420673	0.165628
C79	C	1.015177	0.670673	0.415628
C80	C	1.265177	0.920673	0.665628
C81	C	0.515193	0.170674	0.084428
C82	C	0.765193	0.420674	0.334428
C83	C	1.015193	0.670674	0.584428
C84	C	1.265193	0.920674	0.834428
C85	C	0.454262	0.213520	0.000026
C86	C	0.704262	0.463520	0.250026
C87	C	0.954262	0.713520	0.500026
C88	C	1.204262	0.963520	0.750026
C89	C	0.669903	0.129705	0.000068
C90	C	0.919903	0.379705	0.250068
C91	C	1.169903	0.629705	0.500068
C92	C	1.419903	0.879705	0.750068
C93	C	0.314976	0.122839	0.000098
C94	C	0.564976	0.372839	0.250098
C95	C	0.814976	0.622839	0.500098
C96	C	1.064976	0.872839	0.750098
C97	C	0.995008	-0.227855	0.000100
C98	C	1.245008	0.022145	0.250100
C99	C	1.495008	0.272145	0.500100
C100	C	1.745008	0.522145	0.750100
C101	C	0.993162	-0.332161	0.000092
C102	C	1.243162	-0.082161	0.250092
C103	C	1.493162	0.167839	0.500092
C104	C	1.743162	0.417839	0.750092
C105	C	0.991697	-0.415297	0.000085
C106	C	1.241697	-0.165297	0.250085
C107	C	1.491697	0.084703	0.500085
C108	C	1.741697	0.334703	0.750085
C109	C	0.989851	-0.519609	0.000079
C110	C	1.239851	-0.269609	0.250079
C111	C	1.489851	-0.019609	0.500079
C112	C	1.739851	0.230391	0.750079
C113	C	1.145994	0.119547	0.000106
C114	C	1.395994	0.369547	0.250106
C115	C	1.645994	0.619547	0.500106
C116	C	1.895994	0.869547	0.750106
C117	C	1.239243	0.121372	0.000109
C118	C	1.489243	0.371372	0.250109
C119	C	1.739243	0.621372	0.500109
C120	C	1.989243	0.871372	0.750109
C121	C	0.986569	0.294877	0.000080
C122	C	1.236569	0.544877	0.250080
C123	C	1.486569	0.794877	0.500080
C124	C	1.736569	1.044877	0.750080
C125	C	0.988386	0.397254	0.000072
C126	C	1.238386	0.647254	0.250072
C127	C	1.488386	0.897254	0.500072
C128	C	1.738386	1.147254	0.750072
N129	N	0.992423	0.126258	0.243632
N130	N	1.242423	0.376258	0.493632
N131	N	1.492423	0.626258	0.743632
N132	N	1.742423	0.876258	0.993632
N133	N	0.992455	0.126275	-0.243448
N134	N	1.242455	0.376275	0.006552
N135	N	1.492455	0.626275	0.256552
N136	N	1.742455	0.876275	0.506552
C137	C	0.992443	0.126276	0.663446
C138	C	1.242443	0.376276	0.913446
C139	C	1.492443	0.626276	1.163446
C140	C	1.742443	0.876276	1.413446
C141	C	0.992435	0.126274	0.546641
C142	C	1.242435	0.376274	0.796641
C143	C	1.492435	0.626274	1.046641
C144	C	1.742435	0.876274	1.296641
C145	C	0.992433	0.126268	0.453543
C146	C	1.242433	0.376268	0.703543
C147	C	1.492433	0.626268	0.953543
C148	C	1.742433	0.876268	1.203543
C149	C	0.992424	0.126265	0.336730
C150	C	1.242424	0.376265	0.586730
C151	C	1.492424	0.626265	0.836730
C152	C	1.742424	0.876265	1.086730
H153	H	0.563852	-0.034665	-0.000006
H154	H	0.813852	0.215335	0.249994
H155	H	1.063852	0.465335	0.499994
H156	H	1.313852	0.715335	0.749994
H157	H	0.535228	0.208214	-0.155788
H158	H	0.785228	0.458214	0.094212
H159	H	1.035228	0.708214	0.344212
H160	H	1.285228	0.958214	0.594212
H161	H	0.449521	0.044266	-0.155621
H162	H	0.699521	0.294266	0.094379
H163	H	0.949521	0.544266	0.344379
H164	H	1.199521	0.794266	0.594379
H165	H	0.449543	0.044256	0.155772
H166	H	0.699543	0.294256	0.405772
H167	H	0.949543	0.544256	0.655772
H168	H	1.199543	0.794256	0.905772
H169	H	0.535375	0.208206	0.155764
H170	H	0.785375	0.458206	0.405764
H171	H	1.035375	0.708206	0.655764
H172	H	1.285375	0.958206	0.905764
H173	H	0.421216	0.287308	-0.000026
H174	H	0.671216	0.537308	0.249974
H175	H	0.921216	0.787308	0.499974
H176	H	1.171216	1.037308	0.749974
