data_functionalizedCrystal
_audit_creation_method	'MofGen! by Chris Wilmer'
_symmetry_space_group_name_H-M	'P1'
_symmetry_Int_Tables_number	1
_symmetry_cell_setting	triclinic
loop_
_symmetry_equiv_pos_as_xyz
  x,y,z
_cell_length_a	23.532361
_cell_length_b	8.559649
_cell_length_c	22.610064
_cell_angle_alpha	89.995925
_cell_angle_beta	90.010993
_cell_angle_gamma	103.695834
loop_
_atom_site_label
_atom_site_type_symbol
_atom_site_fract_x
_atom_site_fract_y
_atom_site_fract_z
O1	O	0.747202	-0.193745	0.049123
O2	O	0.580160	-0.221909	0.049137
O3	O	0.678398	0.025015	0.049128
O4	O	0.648965	-0.440669	0.049132
O5	O	0.678372	0.025015	-0.049241
O6	O	0.580134	-0.221909	-0.049232
O7	O	0.747177	-0.193745	-0.049246
Zn8	Zn	0.663651	-0.207827	-0.064857
Zn9	Zn	0.663685	-0.207827	0.064749
O10	O	0.648939	-0.440669	-0.049237
C11	C	0.558960	-0.221203	-0.000046
C12	C	0.495830	-0.219083	-0.000040
C13	C	0.222987	-0.209808	0.053577
C14	C	0.282303	-0.211815	0.053579
O15	O	0.313000	-0.212798	0.099180
N16	N	0.311953	-0.212829	-0.000043
C17	C	0.282284	-0.211819	-0.053669
O18	O	0.312950	-0.212865	-0.099278
C19	C	0.222971	-0.209801	-0.053670
C20	C	0.193323	-0.208803	-0.000045
C21	C	0.193340	-0.208809	0.107198
C22	C	0.134027	-0.206804	0.107196
C23	C	0.104363	-0.205800	0.053574
C24	C	0.134011	-0.206799	-0.000047
C25	C	0.193304	-0.208780	-0.107295
C26	C	0.133987	-0.206759	-0.107292
C27	C	0.104339	-0.205762	-0.053667
C28	C	0.045034	-0.203790	-0.053670
N29	N	0.015384	-0.202776	-0.000049
C30	C	0.045049	-0.203781	0.053573
C31	C	0.406848	-0.216056	-0.053663
C32	C	0.466160	-0.218086	-0.053663
C33	C	0.466175	-0.218079	0.053585
C34	C	0.406861	-0.216060	0.053584
C35	C	0.377198	-0.215042	-0.000042
C36	C	-0.079511	-0.199574	0.053565
C37	C	-0.138829	-0.197576	0.053559
C38	C	-0.138838	-0.197575	-0.053688
C39	C	-0.079526	-0.199581	-0.053682
C40	C	-0.049863	-0.200575	-0.000051
O41	O	0.014300	-0.202800	-0.099249
O42	O	0.014378	-0.202714	0.099174
C43	C	0.680615	0.084582	-0.000055
C44	C	0.687255	0.262070	-0.000052
C45	C	0.768376	-0.194451	-0.000062
C46	C	0.831506	-0.196571	-0.000063
C47	C	0.646721	-0.500236	-0.000052
C48	C	0.640082	-0.677724	-0.000051
N49	N	0.663633	-0.207826	-0.153310
C50	C	0.694006	-0.304282	-0.561953
C51	C	0.694014	-0.304278	-0.623873
O52	O	0.719816	-0.386277	-0.655894
N53	N	0.663697	-0.207809	-0.654847
C54	C	0.633376	-0.111325	-0.623897
O55	O	0.607590	-0.029269	-0.655928
C56	C	0.633372	-0.111321	-0.561978
C57	C	0.663686	-0.207809	-0.531008
C58	C	0.724318	-0.400760	-0.530983
C59	C	0.724310	-0.400766	-0.469067
C60	C	0.693990	-0.304294	-0.438122
C61	C	0.663678	-0.207815	-0.469092
C62	C	0.603055	-0.014830	-0.531030
C63	C	0.603054	-0.014834	-0.469107
C64	C	0.633368	-0.111322	-0.438137
C65	C	0.633349	-0.111348	-0.376231
N66	N	0.663666	-0.207817	-0.345258
C67	C	0.693986	-0.304290	-0.376203
C68	C	0.633386	-0.111337	-0.753931
C69	C	0.633386	-0.111348	-0.815848
C70	C	0.694025	-0.304299	-0.815820
C71	C	0.694021	-0.304296	-0.753901
C72	C	0.663703	-0.207807	-0.722957
C73	C	0.693966	-0.304296	-0.246176
C74	C	0.693953	-0.304299	-0.184255
C75	C	0.633317	-0.111342	-0.184288
C76	C	0.633327	-0.111345	-0.246204
C77	C	0.663656	-0.207827	-0.277146
O78	O	0.607562	-0.029386	-0.344171
O79	O	0.719774	-0.386316	-0.344165
N80	N	0.663709	-0.207815	0.153201
H81	H	-0.162966	-0.196768	0.097229
H82	H	-0.055367	-0.200385	0.097237
H83	H	0.718713	-0.382855	-0.841027
H84	H	0.608694	-0.032798	-0.841059
H85	H	0.718705	-0.382866	-0.728689
H86	H	0.608692	-0.032770	-0.728740
H87	H	0.732724	0.346319	-0.000061
Br88	Br	0.506385	-0.219481	-0.126442
H89	H	0.718637	-0.382878	-0.159042
H90	H	0.382725	-0.215248	0.097250
Br91	Br	0.561911	0.116122	-0.573045
H92	H	0.594615	0.238036	-0.000049
H93	H	0.748997	-0.479330	-0.443857
Br94	Br	0.233525	-0.210137	-0.180077
Br95	Br	0.233588	-0.210167	0.179981
H96	H	0.718663	-0.382860	-0.271362
Br97	Br	0.765473	-0.531704	-0.572968
H98	H	0.578365	0.063742	-0.443915
Br99	Br	0.592179	0.019583	-0.288237
Br100	Br	0.592167	0.019573	-0.142279
Br101	Br	-0.039291	-0.200961	-0.126459
Br102	Br	0.093801	-0.205438	0.179976
H103	H	0.382699	-0.215248	-0.097334
Br104	Br	0.506444	-0.219452	0.126359
H105	H	-0.163002	-0.196763	-0.097346
Br106	Br	0.093736	-0.205362	-0.180074
