data_functionalizedCrystal
_audit_creation_method	'MofGen! by Chris Wilmer'
_symmetry_space_group_name_H-M	'P1'
_symmetry_Int_Tables_number	1
_symmetry_cell_setting	triclinic
loop_
_symmetry_equiv_pos_as_xyz
  x,y,z
_cell_length_a	16.109301
_cell_length_b	16.109301
_cell_length_c	13.448316
_cell_angle_alpha	89.991973
_cell_angle_beta	89.995959
_cell_angle_gamma	83.461481
loop_
_atom_site_label
_atom_site_type_symbol
_atom_site_fract_x
_atom_site_fract_y
_atom_site_fract_z
O1	O	1.103134	0.106869	-0.082632
O2	O	0.861072	0.120168	-0.082648
O3	O	0.988753	-0.007512	-0.082630
O4	O	0.975454	0.234550	-0.082651
O5	O	0.988737	-0.007520	0.082754
O6	O	0.861056	0.120161	0.082735
O7	O	1.103118	0.106861	0.082752
Cu8	Cu	0.982086	0.113510	0.097844
Cu9	Cu	0.982105	0.113519	-0.097741
O10	O	0.975438	0.234542	0.082733
C11	C	0.830090	0.119626	0.000042
C12	C	0.737794	0.118011	0.000036
C13	C	0.515522	0.190018	0.000041
C14	C	0.428801	0.188494	0.000048
C15	C	0.448676	0.037006	0.000057
C16	C	0.535394	0.038530	0.000057
C17	C	0.568815	0.115039	0.000044
C18	C	0.395376	0.111990	0.000050
C19	C	0.301350	0.110337	0.000057
C20	C	0.662847	0.116693	0.000039
C21	C	0.988206	-0.038491	0.000063
C22	C	0.986591	-0.130786	0.000064
C23	C	1.058599	-0.353059	0.000053
C24	C	1.057075	-0.439779	0.000045
C25	C	0.905586	-0.419905	0.000039
C26	C	0.907111	-0.333186	0.000040
C27	C	0.983620	-0.299766	0.000052
C28	C	0.980571	-0.473205	0.000043
C29	C	0.978918	-0.567231	0.000034
C30	C	0.985273	-0.205734	0.000059
C31	C	1.134101	0.107404	0.000060
C32	C	1.226397	0.109019	0.000059
C33	C	0.975984	0.265521	0.000038
C34	C	0.977600	0.357816	0.000031
N35	N	0.982079	0.113503	0.235409
N36	N	0.982119	0.113520	-0.235305
C37	C	1.038633	0.056989	0.287457
C38	C	1.038638	0.056989	0.391561
C39	C	0.982092	0.113506	0.443613
C40	C	0.925532	0.170023	0.391557
C41	C	0.925523	0.170019	0.287456
C42	C	0.925555	0.170028	0.608537
C43	C	0.925564	0.170034	0.712646
C44	C	1.038670	0.056998	0.712642
C45	C	1.038661	0.056994	0.608541
C46	C	0.982102	0.113512	0.556492
H47	H	0.542730	0.252317	0.000038
H48	H	0.846050	-0.289792	0.000036
C49	C	0.370179	0.270969	0.000039
H50	H	0.313745	0.259107	0.000050
H51	H	0.380310	0.302343	-0.057637
H52	H	0.380307	0.302336	0.057716
H53	H	1.084683	0.010970	0.245083
H54	H	1.084689	0.010970	0.433938
H55	H	0.879487	0.216038	0.433945
C56	C	1.100860	-0.005174	0.551284
H57	H	1.134540	-0.038839	0.597190
H58	H	1.135451	0.024744	0.510657
H59	H	1.070953	-0.039796	0.510691
H60	H	0.421454	-0.025285	0.000073
C61	C	0.863317	0.232187	0.230202
H62	H	0.829646	0.265854	0.276111
H63	H	0.828716	0.202267	0.189606
H64	H	0.893214	0.266808	0.189580
C65	C	1.100878	-0.005177	0.769891
H66	H	1.092779	0.002911	0.839345
H67	H	1.156359	0.003869	0.752821
H68	H	1.091860	-0.060670	0.752839
C69	C	0.821433	-0.456671	0.000039
H70	H	0.831262	-0.515950	0.000049
H71	H	0.790562	-0.438371	-0.057633
H72	H	0.790563	-0.438381	0.057721
H73	H	1.118130	-0.483168	0.000044
C74	C	0.863313	0.232149	0.769903
H75	H	0.829604	0.265785	0.723997
H76	H	0.893158	0.266792	0.810530
H77	H	0.828743	0.202169	0.810495
H78	H	0.578788	-0.022530	0.000063
C79	C	1.142754	-0.316298	0.000055
H80	H	1.187190	-0.360461	0.000046
H81	H	1.146498	-0.282889	0.057728
H82	H	1.146500	-0.282877	-0.057625
C83	C	0.863344	0.232200	0.551286
H84	H	0.829675	0.265868	0.597194
H85	H	0.828742	0.202284	0.510686
H86	H	0.893245	0.266819	0.510666
