data_functionalizedCrystal
_audit_creation_method	'MofGen! by Chris Wilmer'
_symmetry_space_group_name_H-M	'P1'
_symmetry_Int_Tables_number	1
_symmetry_cell_setting	triclinic
loop_
_symmetry_equiv_pos_as_xyz
  x,y,z
_cell_length_a	14.971487
_cell_length_b	14.519731
_cell_length_c	13.448316
_cell_angle_alpha	89.994830
_cell_angle_beta	89.997082
_cell_angle_gamma	83.651628
loop_
_atom_site_label
_atom_site_type_symbol
_atom_site_fract_x
_atom_site_fract_y
_atom_site_fract_z
O1	O	-0.117340	-1.223787	0.082692
O2	O	0.382660	-0.723787	0.582692
O3	O	-0.131128	-0.955304	0.082694
O4	O	0.368872	-0.455304	0.582694
O5	O	0.005962	-1.096741	0.082688
O6	O	0.505962	-0.596741	0.582688
O7	O	-0.254429	-1.082350	0.082698
O8	O	0.245571	-0.582350	0.582698
O9	O	0.005963	-1.096727	-0.082696
O10	O	0.505963	-0.596727	0.417304
O11	O	-0.131127	-0.955290	-0.082690
O12	O	0.368873	-0.455290	0.417310
O13	O	-0.117339	-1.223772	-0.082691
O14	O	0.382661	-0.723772	0.417309
Cu15	Cu	-0.124233	-1.089530	-0.097792
Cu16	Cu	0.375767	-0.589530	0.402208
Cu17	Cu	-0.124234	-1.089547	0.097794
Cu18	Cu	0.375766	-0.589547	0.597794
O19	O	-0.254428	-1.082335	-0.082686
O20	O	0.245572	-0.582335	0.417314
C21	C	0.039287	-1.096090	-0.000003
C22	C	0.539287	-0.596090	0.499997
C23	C	0.138586	-1.094161	-0.000000
C24	C	0.638586	-0.594161	0.500000
C25	C	-0.130481	-0.920938	0.000002
C26	C	0.369519	-0.420938	0.500002
C27	C	-0.128545	-0.818559	0.000002
C28	C	0.371455	-0.318559	0.500002
C29	C	-0.117985	-1.258138	0.000002
C30	C	0.382015	-0.758138	0.500002
C31	C	-0.119921	-1.360518	0.000009
C32	C	0.380079	-0.860518	0.500009
C33	C	0.195758	-1.177252	-0.000000
C34	C	0.695758	-0.677252	0.500000
C35	C	0.289059	-1.175434	0.000012
C36	C	0.789059	-0.675434	0.500012
C37	C	0.325185	-1.090524	0.000016
C38	C	0.825185	-0.590524	0.500016
C39	C	0.268005	-1.007427	0.000019
C40	C	0.768005	-0.507427	0.500019
C41	C	0.174706	-1.009246	0.000015
C42	C	0.674706	-0.509246	0.500015
C43	C	0.462470	-1.003642	0.000027
C44	C	0.962470	-0.503642	0.500027
C45	C	0.555775	-1.001822	0.000029
C46	C	1.055775	-0.501822	0.500029
C47	C	0.576822	-1.169829	0.000023
C48	C	1.076822	-0.669829	0.500023
C49	C	0.483523	-1.171648	0.000019
C50	C	0.983523	-0.671648	0.500019
C51	C	0.426350	-1.088551	0.000020
C52	C	0.926350	-0.588551	0.500020
C53	C	0.712246	-1.082986	0.000012
C54	C	1.212246	-0.582986	0.500012
C55	C	0.612948	-1.084913	0.000029
C56	C	1.112948	-0.584913	0.500029
C57	C	-0.126972	-0.735416	0.000006
C58	C	0.373028	-0.235416	0.500006
C59	C	-0.125007	-0.631108	0.000007
C60	C	0.374993	-0.131108	0.500007
C61	C	-0.123447	-0.547970	0.000006
C62	C	0.376553	-0.047970	0.500006
C63	C	-0.121481	-0.443656	0.000009
C64	C	0.378519	0.056344	0.500009
N65	N	-0.124231	-1.089525	-0.235356
N66	N	0.375769	-0.589525	0.264644
C67	C	-0.178608	-1.145513	-0.287390
C68	C	0.321392	-0.645513	0.212610
C69	C	-0.178604	-1.145524	-0.391493
C70	C	0.321396	-0.645524	0.108507
C71	C	-0.124227	-1.089542	-0.443561
C72	C	0.375773	-0.589542	0.056439
C73	C	-0.069844	-1.033552	-0.391519
C74	C	0.430156	-0.533552	0.108481
C75	C	-0.069844	-1.033546	-0.287418
C76	C	0.430156	-0.533546	0.212582
C77	C	-0.069850	-1.033567	-0.608499
C78	C	0.430150	-0.533567	-0.108499
C79	C	-0.069852	-1.033571	-0.712608
C80	C	0.430148	-0.533571	-0.212608
C81	C	-0.178610	-1.145545	-0.712575
C82	C	0.321390	-0.645545	-0.212575
C83	C	-0.178610	-1.145539	-0.608474
C84	C	0.321390	-0.645539	-0.108474
C85	C	-0.124228	-1.089547	-0.556439
C86	C	0.375772	-0.589547	-0.056439
N87	N	-0.124228	-1.089559	0.235358
N88	N	0.375772	-0.589559	0.735358
H89	H	0.166352	-1.246395	-0.000010
H90	H	0.666352	-0.746395	0.499990
C91	C	-0.010687	-0.972936	-0.551952
C92	C	0.489313	-0.472936	-0.051952
C93	C	0.049779	-1.028784	-0.492202
C94	C	0.549779	-0.528784	0.007798
C95	C	0.104297	-0.972964	-0.440107
C96	C	0.604297	-0.472964	0.059893
H97	H	-0.047142	-0.930519	-0.511265
H98	H	0.452858	-0.430519	-0.011265
H99	H	0.021749	-0.939614	-0.597839
H100	H	0.521749	-0.439614	-0.097839
H101	H	0.017346	-1.062091	-0.446320
H102	H	0.517346	-0.562091	0.053680
H103	H	0.086254	-1.071199	-0.532864
H104	H	0.586254	-0.571199	-0.032864
H105	H	0.136734	-0.939641	-0.485994
H106	H	0.636734	-0.439641	0.014006
H107	H	0.067835	-0.930549	-0.399426
H108	H	0.567835	-0.430549	0.100574
H109	H	0.145335	-1.010848	-0.399568
H110	H	0.645335	-0.510848	0.100432
H111	H	0.128157	-0.941585	0.000015
H112	H	0.628157	-0.441585	0.500015
H113	H	-0.025565	-0.987955	-0.245053
H114	H	0.474435	-0.487955	0.254947
H115	H	-0.025566	-0.987975	-0.433920
H116	H	0.474434	-0.487975	0.066080
C117	C	-0.237487	-1.206438	-0.448035
C118	C	0.262513	-0.706438	0.051965
C119	C	-0.183393	-1.268858	-0.507767
C120	C	0.316607	-0.768858	-0.007767
C121	C	-0.237604	-1.325000	-0.559854
C122	C	0.262396	-0.825000	-0.059854
H123	H	-0.278581	-1.168805	-0.488735
H124	H	0.221419	-0.668805	0.011265
H125	H	-0.269854	-1.239828	-0.402144
H126	H	0.230146	-0.739828	0.097856
H127	H	-0.151042	-1.235471	-0.553653
H128	H	0.348958	-0.735471	-0.053653
H129	H	-0.142301	-1.306512	-0.467093
H130	H	0.357699	-0.806512	0.032907
H131	H	-0.269971	-1.358390	-0.513963
H132	H	0.230029	-0.858390	-0.013963
H133	H	-0.278695	-1.287360	-0.600548
H134	H	0.221305	-0.787360	-0.100548
H135	H	-0.200909	-1.367365	-0.600381
H136	H	0.299091	-0.867365	-0.100381
H137	H	0.454113	-1.240789	0.000008
H138	H	0.954113	-0.740789	0.500008
C139	C	0.638932	-1.260024	0.000238
C140	C	1.138932	-0.760024	0.500238
C141	C	0.693082	-1.263912	0.085344
C142	C	1.193082	-0.763912	0.585344
C143	C	0.750302	-1.346988	0.085579
C144	C	1.250302	-0.846988	0.585579
H145	H	0.675859	-1.262893	-0.057363
H146	H	1.175859	-0.762893	0.442637
H147	H	0.604083	-1.310877	0.000284
H148	H	1.104083	-0.810877	0.500284
H149	H	0.727928	-1.213072	0.085289
H150	H	1.227928	-0.713072	0.585289
H151	H	0.656179	-1.261058	0.142958
H152	H	1.156179	-0.761058	0.642958
H153	H	0.715452	-1.397841	0.085625
H154	H	1.215452	-0.897841	0.585625
H155	H	0.787222	-1.349849	0.027975
H156	H	1.287222	-0.849849	0.527975
H157	H	0.787043	-1.349640	0.143326
H158	H	1.287043	-0.849640	0.643326
H159	H	0.415921	-0.935975	0.000030
H160	H	0.915921	-0.435975	0.500030
H161	H	0.297426	-0.938292	0.000030
H162	H	0.797426	-0.438292	0.500030
H163	H	-0.222893	-1.191094	-0.245005
H164	H	0.277107	-0.691094	0.254995
C165	C	-0.010711	-0.972767	-0.768956
C166	C	0.489289	-0.472767	-0.268956
C167	C	0.036936	-0.923757	-0.701104
C168	C	0.536936	-0.423757	-0.201104
C169	C	0.091435	-0.867744	-0.752974
C170	C	0.591435	-0.367744	-0.252974
H171	H	-0.047170	-0.930286	-0.809574
H172	H	0.452830	-0.430286	-0.309574
H173	H	0.030412	-1.010504	-0.809542
H174	H	0.530412	-0.510504	-0.309542
H175	H	-0.004182	-0.886023	-0.660535
H176	H	0.495818	-0.386023	-0.160535
H177	H	0.073412	-0.966214	-0.660484
H178	H	0.573412	-0.466214	-0.160484
H179	H	0.132558	-0.905481	-0.793560
H180	H	0.632558	-0.405481	-0.293560
H181	H	0.054969	-0.825270	-0.793590
H182	H	0.554969	-0.325270	-0.293590
H183	H	0.123776	-0.834491	-0.706944
H184	H	0.623776	-0.334491	-0.206944
H185	H	0.335605	-1.243094	0.000009
H186	H	0.835605	-0.743094	0.500009
H187	H	0.585186	-0.932682	0.000017
H188	H	1.085186	-0.432682	0.500017
H189	H	-0.222892	-1.191120	-0.566083
H190	H	0.277108	-0.691120	-0.066083
H191	H	-0.222893	-1.191131	-0.754946
H192	H	0.277107	-0.691131	-0.254946
