data_functionalizedCrystal
_audit_creation_method	'MofGen! by Chris Wilmer'
_symmetry_space_group_name_H-M	'P1'
_symmetry_Int_Tables_number	1
_symmetry_cell_setting	triclinic
loop_
_symmetry_equiv_pos_as_xyz
  x,y,z
_cell_length_a	15.944493
_cell_length_b	14.421503
_cell_length_c	10.654550
_cell_angle_alpha	89.995515
_cell_angle_beta	83.979987
_cell_angle_gamma	90.007064
loop_
_atom_site_label
_atom_site_type_symbol
_atom_site_fract_x
_atom_site_fract_y
_atom_site_fract_z
O1	O	1.115495	0.077099	0.161602
O2	O	0.871055	0.077104	0.181647
O3	O	0.998895	0.077095	-0.011189
O4	O	0.987655	0.077107	0.354438
O5	O	0.998874	-0.077128	-0.011161
O6	O	0.871033	-0.077120	0.181675
O7	O	1.115474	-0.077124	0.161631
Cu8	Cu	0.993252	-0.091204	0.171656
Cu9	Cu	0.993277	0.091183	0.171622
O10	O	0.987633	-0.077116	0.354467
C11	C	0.839745	-0.000008	0.180842
C12	C	0.746482	-0.000006	0.178385
N13	N	0.993240	-0.219485	0.171679
C14	C	0.511379	-0.000002	0.291893
C15	C	0.460456	-0.076048	0.230697
C16	C	0.575734	-0.000008	0.173834
C17	C	0.460481	0.076004	0.230641
C18	C	0.410799	-0.000006	0.169447
C19	C	0.526040	-0.076117	0.112670
C20	C	0.526068	0.076004	0.112631
C21	C	0.475178	-0.000061	0.051348
C22	C	0.670749	-0.000010	0.176365
C23	C	0.315788	-0.000010	0.166907
C24	C	0.934116	-0.469135	0.260806
C25	C	1.010159	-0.530938	0.285163
C26	C	0.993260	-0.408647	0.171649
C27	C	0.917237	-0.530937	0.147321
C28	C	0.993273	-0.591368	0.171623
C29	C	1.069342	-0.469089	0.196062
C30	C	0.976370	-0.469083	0.058171
C31	C	1.052468	-0.530858	0.082480
C32	C	0.993252	-0.303385	0.171667
C33	C	0.993290	-0.696627	0.171603
C34	C	1.146784	-0.000011	0.162435
C35	C	1.240047	-0.000007	0.164892
N36	N	0.993295	0.219464	0.171589
C37	C	0.998059	-0.000016	-0.057962
C38	C	0.995590	-0.000014	-0.197373
C39	C	1.070860	-0.000015	-0.277856
C40	C	1.068535	-0.000004	-0.408846
C41	C	0.915663	0.000006	-0.378857
C42	C	0.917989	0.000001	-0.247869
C43	C	0.988469	-0.000003	0.401239
C44	C	0.990939	0.000002	0.540650
H45	H	0.527591	-0.000069	0.393588
C46	C	1.156223	-0.432549	0.224011
C47	C	1.191074	-0.457776	0.349055
C48	C	1.277950	-0.421233	0.377010
C49	C	1.329975	-0.359464	0.279920
C50	C	1.295125	-0.334235	0.154868
C51	C	1.208249	-0.370777	0.126913
H52	H	1.152561	-0.503504	0.420934
H53	H	1.303748	-0.439910	0.469582
H54	H	1.394287	-0.332413	0.300614
H55	H	1.333638	-0.288507	0.082989
H56	H	1.182450	-0.352100	0.034340
C57	C	0.564573	-0.163063	0.045381
C58	C	0.507162	-0.233921	-0.011879
C59	C	0.545697	-0.320866	-0.079164
C60	C	0.641643	-0.336954	-0.089188
C61	C	0.699060	-0.266094	-0.031926
C62	C	0.660525	-0.179148	0.035358
H63	H	0.436132	-0.222014	-0.004460
H64	H	0.503192	-0.373321	-0.121553
H65	H	0.670169	-0.401316	-0.138996
H66	H	0.770091	-0.278001	-0.039345
H67	H	0.703030	-0.126693	0.077747
C68	C	0.453557	-0.000070	-0.086172
C69	C	0.483154	-0.080535	-0.174987
C70	C	0.461569	-0.080525	-0.312524
C71	C	0.410387	-0.000049	-0.361245
C72	C	0.380786	0.080422	-0.272429
C73	C	0.402372	0.080412	-0.134892
H74	H	0.521045	-0.140113	-0.138922
H75	H	0.483481	-0.140095	-0.378271
H76	H	0.394408	-0.000042	-0.463058
H77	H	0.342895	0.140000	-0.308494
H78	H	0.380459	0.139982	-0.069145
H79	H	0.554735	0.140294	0.062799
C80	C	0.830380	-0.567638	0.119518
C81	C	0.778824	-0.630117	0.216230
C82	C	0.691966	-0.666814	0.188436
C83	C	0.656664	-0.641031	0.063931
C84	C	0.708221	-0.578549	-0.032789
C85	C	0.795079	-0.541852	-0.004995
H86	H	0.804956	-0.649205	0.308403
H87	H	0.653801	-0.713067	0.260036
H88	H	0.592367	-0.668196	0.043357
H89	H	0.682089	-0.559460	-0.124962
H90	H	0.833244	-0.495598	-0.076595
H91	H	0.431798	-0.140335	0.280567
C92	C	1.120113	-0.567254	-0.019396
C93	C	1.094318	-0.628305	-0.127537
C94	C	1.161965	-0.664705	-0.229404
C95	C	1.255407	-0.640054	-0.223129
C96	C	1.281207	-0.578999	-0.114983
C97	C	1.213560	-0.542599	-0.013116
H98	H	1.025142	-0.646556	-0.132186
H99	H	1.142866	-0.709901	-0.309461
H100	H	1.305484	-0.666999	-0.298537
H101	H	1.350382	-0.560748	-0.110334
H102	H	1.232659	-0.497403	0.066941
H103	H	0.884151	-0.442034	0.336264
H104	H	0.962048	-0.441892	-0.037753
C105	C	0.835185	0.000001	-0.159328
C106	C	0.815778	0.080086	-0.065163
C107	C	0.732979	0.080090	0.023378
C108	C	0.669587	0.000010	0.017753
C109	C	0.688992	-0.080081	-0.076416
C110	C	0.771791	-0.080085	-0.164957
H111	H	0.862706	0.139371	-0.060995
H112	H	0.718614	0.139379	0.093088
H113	H	0.608294	0.000013	0.083296
H114	H	0.642064	-0.139367	-0.080584
H115	H	0.786156	-0.139374	-0.234667
C116	C	0.421795	0.162852	0.297999
C117	C	0.432389	0.179540	0.438219
C118	C	0.393705	0.266382	0.505587
C119	C	0.344428	0.336537	0.432736
C120	C	0.333832	0.319851	0.292508
C121	C	0.372516	0.233008	0.225140
H122	H	0.468869	0.127606	0.492155
H123	H	0.401549	0.278734	0.609393
H124	H	0.315792	0.400823	0.482606
H125	H	0.297352	0.371785	0.238572
H126	H	0.364672	0.220656	0.121334
H127	H	1.024457	-0.558108	0.381118
H128	H	0.852482	0.000016	-0.419988
H129	H	1.134048	-0.000026	-0.236746
H130	H	1.129828	-0.000003	-0.474371
