data_functionalizedCrystal
_audit_creation_method	'MofGen! by Chris Wilmer'
_symmetry_space_group_name_H-M	'P1'
_symmetry_Int_Tables_number	1
_symmetry_cell_setting	triclinic
loop_
_symmetry_equiv_pos_as_xyz
  x,y,z
_cell_length_a	8.497374
_cell_length_b	12.827879
_cell_length_c	12.827893
_cell_angle_alpha	90.041784
_cell_angle_beta	90.001063
_cell_angle_gamma	90.049712
loop_
_atom_site_label
_atom_site_type_symbol
_atom_site_fract_x
_atom_site_fract_y
_atom_site_fract_z
Zn1	Zn	0.627475	-0.590940	-1.598006
Zn2	Zn	0.891474	-0.416239	-1.597875
Zn3	Zn	0.627701	-0.416214	-1.423178
Zn4	Zn	0.891207	-0.590939	-1.423276
O5	O	0.759464	-0.503583	-1.510584
O6	O	0.662512	-0.567777	-1.744224
O7	O	0.856690	-0.269999	-1.574605
O8	O	0.406909	-0.439382	-1.446384
O9	O	0.856471	-0.439424	-1.744128
O10	O	0.406743	-0.567753	-1.574828
O11	O	0.662898	-0.269981	-1.446257
O12	O	0.662639	-0.439380	-1.276955
O13	O	0.856016	-0.737175	-1.446550
O14	O	0.856235	-0.567750	-1.277027
O15	O	0.662253	-0.737176	-1.574923
O16	O	1.112201	-0.439423	-1.574700
O17	O	1.112005	-0.567774	-1.446423
C18	C	0.759434	-0.503563	-1.239074
C19	C	0.759459	-0.503579	-1.122921
C20	C	0.759734	-0.232073	-1.510466
C21	C	0.759453	-0.115920	-1.510593
C22	C	0.759080	-0.776154	-1.510762
C23	C	0.758916	-0.892307	-1.510838
C24	C	1.169344	-0.503598	-1.510571
C25	C	1.347988	-0.503581	-1.510598
C26	C	0.759496	-0.503604	-1.783154
C27	C	0.759510	-0.503612	-1.899307
C28	C	0.663855	0.055869	-1.446818
C29	C	0.664142	-0.064181	-1.446685
C30	C	0.855406	-0.567003	-1.071199
C31	C	0.855434	-0.567021	-0.951149
H32	H	0.582263	0.100377	-1.392101
Br33	Br	0.528474	-0.138455	-1.355334
Br34	Br	0.992297	-0.657485	-1.145517
H35	H	0.840516	0.063185	-1.565549
H36	H	0.937583	-0.621317	-0.906669
Br37	Br	0.622559	-0.413103	-1.048602
Br38	Br	0.895100	-0.041653	-1.601964
H39	H	0.677367	-0.449307	-0.943780
