data_functionalizedCrystal
_audit_creation_method	'MofGen! by Chris Wilmer'
_symmetry_space_group_name_H-M	'P1'
_symmetry_Int_Tables_number	1
_symmetry_cell_setting	triclinic
loop_
_symmetry_equiv_pos_as_xyz
  x,y,z
_cell_length_a	21.395362
_cell_length_b	25.639239
_cell_length_c	21.395356
_cell_angle_alpha	89.971496
_cell_angle_beta	89.957023
_cell_angle_gamma	90.054564
loop_
_atom_site_label
_atom_site_type_symbol
_atom_site_fract_x
_atom_site_fract_y
_atom_site_fract_z
Zn1	Zn	0.957819	-0.207942	-0.354582
Zn2	Zn	1.457819	0.292058	0.145418
Zn3	Zn	0.957709	-0.295376	-0.249803
Zn4	Zn	1.457709	0.204624	0.250197
Zn5	Zn	0.853036	-0.207981	-0.249783
Zn6	Zn	1.353036	0.292019	0.250217
Zn7	Zn	0.852988	-0.295373	-0.354508
Zn8	Zn	1.352988	0.204627	0.145492
O9	O	0.905388	-0.251668	-0.302169
O10	O	1.405388	0.248332	0.197831
O11	O	1.045482	-0.219526	-0.340722
O12	O	1.545482	0.280474	0.159278
O13	O	0.943797	-0.283800	-0.162122
O14	O	1.443797	0.216200	0.337878
O15	O	0.867001	-0.134810	-0.263708
O16	O	1.367001	0.365190	0.236292
O17	O	1.045401	-0.283763	-0.263742
O18	O	1.545401	0.216237	0.236258
O19	O	0.943985	-0.134782	-0.340703
O20	O	1.443985	0.365218	0.159297
O21	O	0.866894	-0.219591	-0.162108
O22	O	1.366894	0.280409	0.337892
O23	O	0.765351	-0.219588	-0.263636
O24	O	1.265351	0.280412	0.236364
O25	O	0.866921	-0.283758	-0.442196
O26	O	1.366921	0.216242	0.057804
O27	O	0.765317	-0.283795	-0.340576
O28	O	1.265317	0.216205	0.159424
O29	O	0.943939	-0.219523	-0.442250
O30	O	1.443939	0.280477	0.057750
O31	O	0.943751	-0.368541	-0.263669
O32	O	1.443751	0.131459	0.236331
O33	O	0.866814	-0.368539	-0.340596
O34	O	1.366814	0.131461	0.159404
C35	C	0.742600	-0.251696	-0.302096
C36	C	1.242600	0.248304	0.197904
C37	C	0.672959	-0.251720	-0.302080
C38	C	1.172959	0.248280	0.197920
C39	C	0.640244	-0.285197	-0.342083
C40	C	1.140244	0.214803	0.157917
C41	C	0.574809	-0.285184	-0.342111
C42	C	1.074809	0.214816	0.157889
C43	C	0.542091	-0.251700	-0.302125
C44	C	1.042091	0.248300	0.197875
C45	C	0.574813	-0.218217	-0.262119
C46	C	1.074813	0.281783	0.237881
C47	C	0.640247	-0.218227	-0.262097
C48	C	1.140247	0.281773	0.237903
C49	C	0.438368	-0.247496	-0.245720
C50	C	0.938368	0.252504	0.254280
C51	C	0.372935	-0.247489	-0.245741
C52	C	0.872935	0.252511	0.254259
C53	C	0.340270	-0.251666	-0.302194
C54	C	0.840270	0.248334	0.197806
C55	C	0.373046	-0.255860	-0.358627
C56	C	0.873046	0.244140	0.141373
C57	C	0.438480	-0.255870	-0.358605
C58	C	0.938480	0.244130	0.141395
C59	C	0.471138	-0.251685	-0.302145
C60	C	0.971138	0.248315	0.197855
C61	C	0.236603	-0.285130	-0.342231
C62	C	0.736603	0.214870	0.157769
C63	C	0.171166	-0.285114	-0.342260
C64	C	0.671166	0.214886	0.157740
C65	C	0.171172	-0.218149	-0.262262
C66	C	0.671172	0.281851	0.237738
C67	C	0.236607	-0.218163	-0.262239
C68	C	0.736607	0.281837	0.237761
C69	C	0.269319	-0.251657	-0.302222
C70	C	0.769319	0.248343	0.197778
C71	C	0.905282	-0.387511	-0.302140
C72	C	1.405282	0.112489	0.197860
C73	C	0.905295	-0.445625	-0.302149
C74	C	1.405295	0.054375	0.197851
C75	C	0.945554	-0.805976	-0.262182
C76	C	1.445554	-0.305976	0.237818
C77	C	0.945578	-0.860581	-0.262190
C78	C	1.445578	-0.360581	0.237810
O79	O	0.979698	-0.888808	-0.228177
O80	O	1.479698	-0.388808	0.271823
N81	N	0.905498	-0.887907	-0.302211
N82	N	1.405498	-0.387907	0.197789
C83	C	0.865396	-0.860626	-0.342230
C84	C	1.365396	-0.360626	0.157770
O85	O	0.831307	-0.888884	-0.376271
O86	O	1.331307	-0.388884	0.123729
C87	C	0.865375	-0.806023	-0.342224
C88	C	1.365375	-0.306023	0.157776
C89	C	0.905453	-0.778699	-0.302196
C90	C	1.405453	-0.278699	0.197804
C91	C	0.985629	-0.778653	-0.222158
C92	C	1.485629	-0.278653	0.277842
C93	C	0.985604	-0.724052	-0.222149
C94	C	1.485604	-0.224052	0.277851
C95	C	0.945503	-0.696775	-0.262164
C96	C	1.445503	-0.196775	0.237836
C97	C	0.905428	-0.724099	-0.302187
C98	C	1.405428	-0.224099	0.197813
C99	C	0.825276	-0.778743	-0.382246
C100	C	1.325276	-0.278743	0.117754
C101	C	0.825259	-0.724136	-0.382237
C102	C	1.325259	-0.224136	0.117763
C103	C	0.865337	-0.696813	-0.342209
C104	C	1.365337	-0.196813	0.157791
C105	C	0.865302	-0.642222	-0.342193
C106	C	1.365302	-0.142222	0.157807
N107	N	0.905382	-0.614895	-0.302173
N108	N	1.405382	-0.114895	0.197827
C109	C	0.945483	-0.642172	-0.262158
C110	C	1.445483	-0.142172	0.237842
C111	C	0.865443	-0.975297	-0.342239
C112	C	1.365443	-0.475297	0.157761
C113	C	0.865460	-1.029899	-0.342242
C114	C	1.365460	-0.529899	0.157758
C115	C	0.945643	-1.029850	-0.262204
C116	C	1.445643	-0.529850	0.237796
C117	C	0.945623	-0.975246	-0.262198
C118	C	1.445623	-0.475246	0.237802
C119	C	0.905523	-0.947971	-0.302219
C120	C	1.405523	-0.447971	0.197781
C121	C	0.945426	-0.527507	-0.262142
C122	C	1.445426	-0.027507	0.237858
C123	C	0.945395	-0.472902	-0.262134
C124	C	1.445395	0.027098	0.237866
C125	C	0.865215	-0.472956	-0.342175
C126	C	1.365215	0.027044	0.157825
C127	C	0.865243	-0.527556	-0.342180
C128	C	1.365243	-0.027556	0.157820
C129	C	0.905353	-0.554831	-0.302162
C130	C	1.405353	-0.054831	0.197838
O131	O	0.831201	-0.613960	-0.376190
O132	O	1.331201	-0.113960	0.123810
O133	O	0.979571	-0.613908	-0.228128
O134	O	1.479571	-0.113908	0.271872
C135	C	1.068811	-0.251641	-0.302242
C136	C	1.568811	0.248359	0.197758
C137	C	1.138452	-0.251629	-0.302274
C138	C	1.638452	0.248371	0.197726
C139	C	0.905437	-0.251636	-0.465592
C140	C	1.405437	0.248364	0.034408
C141	C	0.905458	-0.251622	-0.535234
C142	C	1.405458	0.248378	-0.035234
C143	C	0.905511	-0.115295	-0.302212
C144	C	1.405511	0.384705	0.197788
C145	C	0.905563	-0.057181	-0.302230
C146	C	1.405563	0.442819	0.197770
C147	C	0.865426	-0.218184	-0.567929
C148	C	1.365426	0.281816	-0.067929
C149	C	0.865423	-0.218175	-0.633365
C150	C	1.365423	0.281825	-0.133365
C151	C	0.905465	-0.251597	-0.666102
C152	C	1.405465	0.248403	-0.166102
C153	C	0.945500	-0.285041	-0.633398
C154	C	1.445500	0.214959	-0.133398
C155	C	0.945497	-0.285053	-0.567964
C156	C	1.445497	0.214947	-0.067964
C157	C	0.961916	-0.255694	-0.769807
C158	C	1.461916	0.244306	-0.269807
C159	C	0.961921	-0.255678	-0.835240
C160	C	1.461921	0.244322	-0.335240
C161	C	0.905475	-0.251562	-0.867923
C162	C	1.405475	0.248438	-0.367923
C163	C	0.849024	-0.247450	-0.835164
C164	C	1.349024	0.252550	-0.335164
C165	C	0.849020	-0.247462	-0.769730
C166	C	1.349020	0.252538	-0.269730
C167	C	0.905473	-0.251587	-0.737054
C168	C	1.405473	0.248413	-0.237054
C169	C	0.865437	-0.218112	-0.971571
C170	C	1.365437	0.281888	-0.471571
C171	C	0.865434	-0.218106	-1.037008
C172	C	1.365434	0.281894	-0.537008
C173	C	0.945517	-0.284969	-1.037040
C174	C	1.445517	0.215031	-0.537040
C175	C	0.945514	-0.284978	-0.971605
C176	C	1.445514	0.215022	-0.471605
C177	C	0.905475	-0.251547	-0.938874
C178	C	1.405475	0.248453	-0.438874
C179	C	0.905375	-0.251663	-0.139381
C180	C	1.405375	0.248337	0.360619
C181	C	0.905475	-0.251529	-0.069741
C182	C	1.405475	0.248471	0.430259
H183	H	0.465164	-0.259284	-0.404555
H184	H	0.965164	0.240716	0.095445
H185	H	0.346253	-0.244077	-0.199789
H186	H	0.846253	0.255923	0.300211
H187	H	0.464958	-0.244092	-0.199746
H188	H	0.964958	0.255908	0.300254
F189	F	0.782624	-0.807811	-0.424854
F190	F	1.282624	-0.307811	0.075146
F191	F	0.675054	-0.320842	-0.384639
F192	F	1.175054	0.179158	0.115361
F193	F	0.788946	-0.243066	-0.869942
F194	F	1.288946	0.256934	-0.369942
H195	H	0.832835	-0.190890	-0.944921
H196	H	1.332835	0.309110	-0.444921
H197	H	1.018241	-0.701808	-0.189557
H198	H	1.518241	-0.201808	0.310443
H199	H	0.832783	-0.953092	-0.374827
H200	H	1.332783	-0.453092	0.125173
H201	H	0.832818	-1.052142	-0.374831
H202	H	1.332818	-0.552142	0.125169
F203	F	1.021997	-0.260080	-0.735031
F204	F	1.521997	0.239920	-0.235031
F205	F	0.822809	-0.182527	-1.071805
F206	F	1.322809	0.317473	-0.571805
H207	H	0.832825	-0.190943	-0.659991
H208	H	1.332825	0.309057	-0.159991
F209	F	0.988321	-1.058889	-0.219615
F210	F	1.488321	-0.558889	0.280385
F211	F	0.822576	-0.556637	-0.384770
F212	F	1.322576	-0.056637	0.115230
F213	F	0.338288	-0.260303	-0.418714
F214	F	0.838288	0.239697	0.081286
F215	F	0.271419	-0.320774	-0.384787
F216	F	0.771419	0.179226	0.115213
F217	F	0.782579	-0.695111	-0.424835
F218	F	1.282579	-0.195111	0.075165
F219	F	0.822810	-0.182605	-0.533099
F220	F	1.322810	0.317395	-0.033099
H221	H	0.978121	-0.312181	-1.063694
H222	H	1.478121	0.187819	-0.563694
H223	H	0.832563	-0.450739	-0.374753
H224	H	1.332563	0.049261	0.125247
F225	F	0.788942	-0.243089	-0.734869
F226	F	1.288942	0.256911	-0.234869
H227	H	0.978115	-0.312205	-0.944984
H228	H	1.478115	0.187795	-0.444984
F229	F	0.988108	-0.320643	-0.533166
F230	F	1.488108	0.179357	-0.033166
H231	H	1.007887	-0.259024	-0.861907
H232	H	1.507887	0.240976	-0.361907
H233	H	0.548170	-0.190953	-0.229563
H234	H	1.048170	0.309047	0.270437
H235	H	0.548167	-0.312445	-0.374689
H236	H	1.048167	0.187555	0.125311
F237	F	0.136349	-0.320744	-0.384842
F238	F	0.636349	0.179256	0.115158
H239	H	0.978102	-0.312254	-0.660057
H240	H	1.478102	0.187746	-0.160057
F241	F	0.988279	-0.946171	-0.219596
F242	F	1.488279	-0.446171	0.280404
F243	F	0.136355	-0.182510	-0.219708
F244	F	0.636355	0.317490	0.280292
F245	F	0.271426	-0.182534	-0.219660
F246	F	0.771426	0.317466	0.280340
H247	H	0.666883	-0.190964	-0.229521
H248	H	1.166883	0.309036	0.270479
F249	F	0.988116	-0.556526	-0.219549
F250	F	1.488116	-0.056526	0.280451
F251	F	0.988054	-0.443825	-0.219530
F252	F	1.488054	0.056175	0.280470
F253	F	1.028315	-0.807675	-0.179566
F254	F	1.528315	-0.307675	0.320434
