data_functionalizedCrystal
_audit_creation_method	'MofGen! by Chris Wilmer'
_symmetry_space_group_name_H-M	'P1'
_symmetry_Int_Tables_number	1
_symmetry_cell_setting	triclinic
loop_
_symmetry_equiv_pos_as_xyz
  x,y,z
_cell_length_a	10.654550
_cell_length_b	10.654559
_cell_length_c	9.130313
_cell_angle_alpha	89.996023
_cell_angle_beta	89.995737
_cell_angle_gamma	84.486794
loop_
_atom_site_label
_atom_site_type_symbol
_atom_site_fract_x
_atom_site_fract_y
_atom_site_fract_z
O1	O	1.667840	0.176400	-0.121915
O2	O	1.302362	0.193206	-0.121891
O3	O	1.493498	0.002064	-0.121899
O4	O	1.476704	0.367541	-0.121906
O5	O	1.493495	0.002054	0.121700
O6	O	1.302359	0.193196	0.121708
O7	O	1.667837	0.176390	0.121684
Cu8	Cu	1.485098	0.184792	0.143939
Cu9	Cu	1.485101	0.184804	-0.144145
O10	O	1.476701	0.367531	0.121693
C11	C	1.255563	0.191967	-0.000088
C12	C	1.116119	0.188275	-0.000079
C13	C	1.036637	0.300816	-0.000103
C14	C	0.905616	0.297340	-0.000128
C15	C	0.933572	0.068771	-0.000112
C16	C	1.064591	0.072249	-0.000076
C17	C	1.020496	0.432779	-0.000118
C18	C	0.889475	0.429302	-0.000143
C19	C	1.492261	-0.044738	-0.000102
C20	C	1.488565	-0.184181	-0.000107
C21	C	1.714637	0.177629	-0.000121
C22	C	1.854080	0.181321	-0.000140
N23	N	1.485104	0.184803	-0.346768
C24	C	1.477938	0.414334	-0.000108
C25	C	1.481635	0.553777	-0.000112
C26	C	1.597647	0.605317	-0.000125
C27	C	1.601113	0.736339	-0.000117
C28	C	1.372543	0.764271	-0.000090
C29	C	1.369079	0.633251	-0.000087
C30	C	1.729610	0.589191	-0.000147
C31	C	1.733076	0.720213	-0.000139
C32	C	1.569898	0.100332	-0.423424
C33	C	1.569902	0.100325	-0.576760
C34	C	1.400307	0.269263	-0.576772
C35	C	1.400310	0.269275	-0.423438
C36	C	1.667809	0.002793	-0.423418
C37	C	1.667813	0.002786	-0.576755
N38	N	1.485105	0.184783	0.346561
H39	H	0.891601	-0.025694	-0.000132
C40	C	1.060129	0.502492	0.137611
N41	N	1.089980	0.554995	0.241349
C42	C	1.068678	0.489527	-0.142212
N43	N	1.104970	0.532258	-0.249244
C44	C	1.798147	0.032007	-0.367218
N45	N	1.896327	0.053976	-0.324889
H46	H	0.843804	0.469178	0.105024
C47	C	1.626800	-0.120516	-0.359130
N48	N	1.595906	-0.213391	-0.310708
C49	C	1.789854	0.768348	0.141948
N50	N	1.832614	0.804605	0.248968
H51	H	1.129301	-0.019393	-0.000036
H52	H	1.758933	0.033534	-0.624327
H53	H	1.784679	0.749587	-0.102089
H54	H	0.847745	0.479028	-0.102098
C55	C	1.639069	-0.127701	-0.632954
N56	N	1.617416	-0.225979	-0.675283
H57	H	1.274611	0.591294	-0.000064
H58	H	1.280905	0.828994	-0.000068
C59	C	1.307033	0.362172	-0.661124
N60	N	1.236774	0.432150	-0.724656
H61	H	1.779341	0.547439	0.101789
C62	C	1.307038	0.362207	-0.339122
N63	N	1.236780	0.432206	-0.275616
H64	H	1.769481	0.543554	-0.105329
