data_functionalizedCrystal
_audit_creation_method	'MofGen! by Chris Wilmer'
_symmetry_space_group_name_H-M	'P1'
_symmetry_Int_Tables_number	1
_symmetry_cell_setting	triclinic
loop_
_symmetry_equiv_pos_as_xyz
  x,y,z
_cell_length_a	14.446369
_cell_length_b	14.446369
_cell_length_c	14.446369
_cell_angle_alpha	90.002259
_cell_angle_beta	59.999833
_cell_angle_gamma	59.999699
loop_
_atom_site_label
_atom_site_type_symbol
_atom_site_fract_x
_atom_site_fract_y
_atom_site_fract_z
Zr1	Zr	1.013188	0.891778	-0.121488
O2	O	1.206310	0.743969	-0.269305
O3	O	0.820068	0.937089	-0.076168
O4	O	1.013180	0.937088	-0.269289
O5	O	1.013204	0.743971	0.076146
O6	O	1.013172	1.089425	-0.269283
O7	O	1.013198	0.743970	-0.076184
O8	O	0.667730	1.089426	0.076174
O9	O	1.358646	0.743971	-0.269312
O10	O	0.899494	1.070102	-0.056843
O11	O	0.899505	0.956416	0.056835
O12	O	1.126869	0.956415	-0.170540
O13	O	1.126880	0.842729	-0.056862
Zr14	Zr	1.013184	1.134741	0.121470
Zr15	Zr	1.013175	1.134739	-0.121479
Zr16	Zr	1.013197	0.891781	0.121461
Zr17	Zr	1.256146	0.891781	-0.121499
Zr18	Zr	0.770226	1.134739	0.121481
O19	O	1.206304	1.089431	0.076150
O20	O	1.206291	1.089427	-0.269292
O21	O	1.206323	0.743973	0.076137
O22	O	0.820062	1.282551	0.269286
O23	O	0.820049	1.282547	-0.076155
O24	O	0.820081	0.937093	0.269274
O25	O	1.013168	1.282549	-0.076164
O26	O	1.013192	1.089431	0.269270
O27	O	1.013201	0.937094	0.269265
O28	O	1.013174	1.282550	0.076166
O29	O	1.358635	0.937091	-0.269305
O30	O	0.667737	1.089428	0.269286
O31	O	0.667727	1.282549	0.269293
O32	O	0.667719	1.282547	0.076182
O33	O	1.358653	0.743973	-0.076200
O34	O	1.358642	0.937094	-0.076193
O35	O	0.899503	1.070104	0.170521
O36	O	0.899492	1.183791	0.056843
O37	O	1.126867	1.070104	-0.056853
O38	O	1.126878	0.956418	0.056825
C39	C	0.709283	1.013257	0.000005
C40	C	0.606141	1.013256	0.000009
C41	C	0.459138	0.941898	0.072035
C42	C	0.566758	0.941510	0.071743
C43	C	0.655135	0.960948	-0.123528
C44	C	0.547902	0.960412	-0.123154
C45	C	0.372678	1.136973	0.050459
C46	C	0.478829	1.136791	0.052980
C47	C	1.013203	0.709354	-0.000020
C48	C	1.013208	0.606211	-0.000024
C49	C	1.156599	0.387843	-0.071371
C50	C	1.156695	0.495074	-0.071772
C51	C	0.941975	0.602886	-0.052320
C52	C	0.942885	0.495117	-0.052843
C53	C	0.939939	0.496483	0.123709
C54	C	0.942641	0.602452	0.123514
C55	C	1.317089	1.013263	-0.000023
C56	C	1.420231	1.013264	-0.000028
C57	C	1.013175	1.013257	-0.303901
C58	C	1.013171	1.013255	-0.407039
C59	C	1.013169	1.317166	0.000002
C60	C	1.013164	1.420309	0.000006
C61	C	0.869751	1.084970	-0.374610
C62	C	0.869699	1.085358	-0.481865
C63	C	1.084837	1.065186	-0.589833
C64	C	1.083883	1.065723	-0.482042
C65	C	1.085998	0.889581	-0.483007
C66	C	1.083333	0.889773	-0.588996
C67	C	1.013198	1.013263	0.303883
C68	C	1.013202	1.013264	0.407021
C69	C	0.709266	1.317163	0.000016
C70	C	0.606118	1.420305	0.000024
C71	C	0.709294	1.013260	0.303897
C72	C	0.606156	1.013261	0.407040
C73	C	0.709278	1.317167	0.303908
C74	C	0.606134	1.420310	0.407054
C75	C	1.317095	0.709353	-0.303926
C76	C	1.420238	0.606210	-0.407073
C77	C	1.317106	0.709357	-0.000034
C78	C	1.420254	0.606215	-0.000043
C79	C	1.317078	1.013259	-0.303915
C80	C	1.420216	1.013259	-0.407058
C81	C	0.459796	1.638674	0.071364
C82	C	0.566725	1.531443	0.071766
C83	C	0.479262	1.423633	0.052327
C84	C	0.371879	1.531401	0.052849
C85	C	0.546851	1.530027	-0.123711
C86	C	0.655329	1.424059	-0.123515
C87	C	0.459845	0.941211	0.482027
C88	C	0.566767	0.941515	0.374692
C89	C	0.479295	1.136793	0.481604
C90	C	0.371919	1.136406	0.588469
C91	C	0.546901	0.962801	0.590040
C92	C	0.655373	0.960293	0.481363
C93	C	0.459796	1.495297	0.625423
C94	C	0.566742	1.387963	0.518187
C95	C	0.479281	1.494852	0.410374
C96	C	0.371881	1.601717	0.518147
C97	C	0.546825	1.603333	0.516800
C98	C	0.655320	1.494655	0.410827
H99	H	0.530049	0.976597	0.162712
O100	O	1.009948	0.428418	-0.173421
H101	H	1.096801	0.342838	-0.198013
O102	O	0.795941	1.205107	-0.302004
H103	H	0.792262	1.204488	-0.223416
O104	O	0.341049	1.493888	0.698225
H105	H	0.253941	1.571879	0.711390
H106	H	0.497089	0.850014	0.479687
O107	O	0.332220	1.211403	0.692565
H108	H	0.226300	1.281001	0.741380
H109	H	0.745871	0.869286	0.429935
H110	H	0.745816	1.424580	-0.162586
O111	O	0.795652	1.206208	-0.478844
H112	H	0.693406	1.254529	-0.401865
O113	O	0.697910	1.022595	0.515194
H114	H	0.684569	1.092602	0.479409
H115	H	0.281134	1.601435	0.568481
O116	O	0.777078	0.841367	-0.177032
H117	H	0.854989	0.842305	-0.180259
H118	H	0.655562	0.850259	0.036742
O119	O	0.803977	0.707308	0.199891
H120	H	0.757060	0.701902	0.286353
O121	O	0.508729	1.319956	-0.013209
H122	H	0.449455	1.346484	-0.047890
H123	H	1.191649	0.835904	-0.510427
O124	O	0.599348	0.844122	0.595471
H125	H	0.523930	0.845974	0.675294
O126	O	0.517128	1.316706	0.521419
H127	H	0.582737	1.231892	0.520956
H128	H	0.525929	1.009035	-0.179763
O129	O	0.508761	1.211011	0.517658
H130	H	0.547915	1.175128	0.567871
H131	H	0.837649	0.521771	-0.004216
O132	O	0.509120	1.710150	0.025143
H133	H	0.430941	1.789115	0.028775
H134	H	1.039769	0.846167	-0.432838
O135	O	0.248538	1.194844	0.169125
H136	H	0.217032	1.281907	0.202826
O137	O	0.599318	1.596251	-0.181571
H138	H	0.535696	1.684213	-0.122798
H139	H	0.500326	1.194444	0.005953
O140	O	0.514076	1.031982	0.693649
H141	H	0.408111	1.101968	0.747022
O142	O	0.341074	0.987153	0.480656
H143	H	0.370107	0.935679	0.401981
H144	H	0.440734	1.177483	0.430000
H145	H	0.522025	1.681552	0.489359
O146	O	0.428146	1.420854	0.171778
H147	H	0.492861	1.417105	0.194109
H148	H	0.529297	0.976527	0.320909
O149	O	0.698458	1.318969	-0.200022
H150	H	0.685338	1.262209	-0.150948
O151	O	1.014165	0.838367	-0.588154
H152	H	0.930190	0.900499	-0.590568
O153	O	0.514025	1.493676	-0.194495
H154	H	0.408061	1.529658	-0.141897
H155	H	0.281163	1.176814	0.588200
H156	H	0.656089	1.333702	0.519806
H157	H	0.497023	1.492974	0.679387
H158	H	0.745781	1.443259	0.411389
O159	O	0.426317	1.188544	0.173558
H160	H	0.490624	1.126556	0.195676
O161	O	0.517095	1.534690	0.192642
H162	H	0.582700	1.534227	0.211851
H163	H	0.836473	0.681154	-0.002835
H164	H	0.440743	1.443231	0.408228
O165	O	1.017222	1.186254	-0.415542
H166	H	0.985963	1.243610	-0.460520
O167	O	0.685104	0.821016	0.302779
H168	H	0.723629	0.781073	0.352315
O169	O	0.332156	1.705836	0.482894
H170	H	0.293444	1.703084	0.433948
H171	H	0.588604	0.869379	-0.163571
H172	H	0.994580	0.601935	0.162582
H173	H	0.683916	1.010431	-0.179542
H174	H	0.501526	1.522090	0.332113
H175	H	0.586382	1.607464	0.566826
O176	O	0.697879	1.528468	0.305980
H177	H	0.613953	1.578242	0.299773
O178	O	0.341420	0.988115	0.192831
H179	H	0.300467	1.077380	0.231556
O180	O	0.506499	0.821738	0.026081
H181	H	0.502452	0.812624	-0.047862
O182	O	1.223290	1.000974	-0.517325
H183	H	1.244952	0.928112	-0.485488
O184	O	1.231187	0.491840	-0.192643
H185	H	1.267270	0.413597	-0.251037
O186	O	0.338250	1.207750	-0.018720
H187	H	0.354887	1.155146	-0.088714
O188	O	1.230724	0.492948	-0.025314
H189	H	1.266783	0.415140	-0.002363
H190	H	0.370128	1.693660	0.162066
O191	O	1.221983	0.813088	-0.693808
H192	H	1.233509	0.741726	-0.738736
O193	O	1.000728	0.430233	0.181586
H194	H	1.036719	0.471402	0.205486
O195	O	1.231194	0.316351	-0.025168
H196	H	1.166843	0.303185	0.049159
H197	H	0.991447	0.605021	-0.142485
O198	O	1.230780	0.315048	-0.191528
H199	H	1.234416	0.236480	-0.190892
H200	H	0.834277	0.523921	0.177143
H201	H	0.813521	1.050565	-0.480121
H202	H	0.656074	1.533057	0.036687
H203	H	0.813143	1.050361	-0.320511
H204	H	1.190364	1.015438	-0.668090
H205	H	1.035687	1.155309	-0.592132
O206	O	0.251648	1.598095	0.173421
H207	H	0.270603	1.553227	0.230808
H208	H	0.341924	1.504746	0.004222
