data_functionalizedCrystal
_audit_creation_method	'MofGen! by Chris Wilmer'
_symmetry_space_group_name_H-M	'P1'
_symmetry_Int_Tables_number	1
_symmetry_cell_setting	triclinic
loop_
_symmetry_equiv_pos_as_xyz
  x,y,z
_cell_length_a	12.645331
_cell_length_b	12.645035
_cell_length_c	12.645323
_cell_angle_alpha	89.878181
_cell_angle_beta	90.022676
_cell_angle_gamma	90.148797
loop_
_atom_site_label
_atom_site_type_symbol
_atom_site_fract_x
_atom_site_fract_y
_atom_site_fract_z
Zn1	Zn	1.619758	-0.422072	0.600526
Zn2	Zn	1.619231	-0.599365	0.423720
Zn3	Zn	1.442473	-0.422108	0.423271
Zn4	Zn	1.442046	-0.599296	0.600935
O5	O	1.530877	-0.510710	0.512113
O6	O	1.768036	-0.445604	0.577090
O7	O	1.595742	-0.575895	0.275313
O8	O	1.466389	-0.273752	0.446425
O9	O	1.767649	-0.575861	0.447191
O10	O	1.596640	-0.273725	0.576654
O11	O	1.465878	-0.445665	0.274983
O12	O	1.294069	-0.445598	0.446822
O13	O	1.465662	-0.575743	0.749228
O14	O	1.293756	-0.575777	0.577351
O15	O	1.596226	-0.445537	0.748928
O16	O	1.595328	-0.747707	0.447587
O17	O	1.465151	-0.747657	0.577787
C18	C	1.255448	-0.510685	0.512083
C19	C	1.137617	-0.510700	0.512095
C20	C	1.531621	-0.234197	0.511444
C21	C	1.531938	-0.116363	0.511158
C22	C	0.970216	-0.428427	0.430429
C23	C	1.092775	-0.428640	0.430071
C24	C	1.092840	-0.622377	0.481866
C25	C	0.970242	-0.621928	0.481309
C26	C	0.970533	-0.482358	0.624306
C27	C	1.093145	-0.479863	0.623676
C28	C	1.530165	-0.786148	0.512803
C29	C	1.529957	-0.903981	0.513134
C30	C	1.807382	-0.510736	0.512145
C31	C	1.925212	-0.510747	0.512158
C32	C	1.530955	-0.510628	0.788619
C33	C	1.530989	-0.510593	0.906449
C34	C	1.612042	0.051193	0.594932
C35	C	1.613507	-0.071348	0.593551
C36	C	1.561826	-0.070238	0.399879
C37	C	1.561276	0.052348	0.401496
C38	C	1.418206	0.049184	0.541214
C39	C	1.419942	-0.073430	0.542540
C40	C	1.530860	-0.510715	0.236684
C41	C	1.531033	-0.510452	0.118853
C42	C	1.448599	-0.592120	1.074201
C43	C	1.448813	-0.592523	0.951642
C44	C	1.642619	-0.540915	0.951046
C45	C	1.642166	-0.541426	1.073646
C46	C	1.502806	-0.398290	1.073359
C47	C	1.500313	-0.398963	0.950754
H48	H	1.123067	-0.345827	0.448986
H49	H	1.122010	-0.447404	0.346959
Cl50	Cl	1.679149	-0.668016	1.118147
H51	H	0.939821	-0.402345	0.651853
H52	H	1.366028	-0.573549	0.921491
H53	H	1.122438	-0.397681	0.646476
H54	H	0.939325	-0.446983	0.347806
Cl55	Cl	1.740131	-0.453518	1.119247
Cl56	Cl	1.140075	-0.660189	0.356658
Cl57	Cl	0.925022	-0.300180	0.459309
H58	H	0.940452	-0.685339	0.538256
Cl59	Cl	1.140271	-0.565686	0.722688
H60	H	1.594772	-0.102600	0.676082
Cl61	Cl	0.925578	-0.574926	0.718319
H62	H	1.666990	-0.622048	0.920565
Cl63	Cl	1.742246	-0.114781	0.564011
H64	H	1.593020	0.079495	0.678290
Cl65	Cl	1.595508	-0.304348	1.117912
Cl66	Cl	0.925925	-0.659093	0.354742
H67	H	1.121864	-0.685351	0.539537
Cl68	Cl	1.739185	0.100596	0.566622
H69	H	1.467030	-0.674750	1.105231
H70	H	1.390333	0.078866	0.621543
Cl71	Cl	1.687460	0.098421	0.364614
Cl72	Cl	1.320398	-0.563104	1.119620
Cl73	Cl	1.385073	-0.120195	0.669026
Cl74	Cl	1.473024	0.098243	0.304115
Cl75	Cl	1.473252	-0.115161	0.302323
H76	H	1.422837	-0.370651	1.104192
H77	H	1.467426	-0.675674	0.922541
H78	H	1.705674	-0.483313	0.921763
Cl79	Cl	1.687477	-0.115717	0.361481
H80	H	1.418164	-0.376096	0.921596
Cl81	Cl	1.321421	-0.120809	0.456324
H82	H	1.555988	-0.334898	0.919969
H83	H	1.357088	0.078158	0.481604
