data_functionalizedCrystal
_audit_creation_method	'MofGen! by Chris Wilmer'
_symmetry_space_group_name_H-M	'P1'
_symmetry_Int_Tables_number	1
_symmetry_cell_setting	triclinic
loop_
_symmetry_equiv_pos_as_xyz
  x,y,z
_cell_length_a	13.032831
_cell_length_b	13.032721
_cell_length_c	13.032268
_cell_angle_alpha	103.289627
_cell_angle_beta	90.886977
_cell_angle_gamma	90.902885
loop_
_atom_site_label
_atom_site_type_symbol
_atom_site_fract_x
_atom_site_fract_y
_atom_site_fract_z
Zn1	Zn	1.399428	-0.702884	-0.857492
Zn2	Zn	1.732762	-0.369551	-0.524159
Zn3	Zn	2.066095	-0.036217	-0.190825
Zn4	Zn	1.399318	-0.857952	-0.702424
Zn5	Zn	1.732652	-0.524619	-0.369090
Zn6	Zn	2.065985	-0.191286	-0.035757
Zn7	Zn	1.255414	-0.659406	-0.658991
Zn8	Zn	1.588747	-0.326072	-0.325658
Zn9	Zn	1.922080	0.007261	0.007676
Zn10	Zn	1.206359	-0.852325	-0.851935
Zn11	Zn	1.539693	-0.518992	-0.518602
Zn12	Zn	1.873026	-0.185658	-0.185268
O13	O	1.315130	-0.768142	-0.767710
O14	O	1.648463	-0.434808	-0.434377
O15	O	1.981797	-0.101475	-0.101044
O16	O	1.540438	-0.744005	-0.857424
O17	O	1.873772	-0.410672	-0.524091
O18	O	2.207105	-0.077338	-0.190757
O19	O	1.400712	-0.815774	-0.551018
O20	O	1.734046	-0.482441	-0.217685
O21	O	2.067379	-0.149107	0.115649
O22	O	1.295093	-0.519539	-0.669471
O23	O	1.628426	-0.186206	-0.336138
O24	O	1.961760	0.147128	-0.002805
O25	O	1.540357	-0.857933	-0.743496
O26	O	1.873691	-0.524600	-0.410163
O27	O	2.207024	-0.191266	-0.076829
O28	O	1.400900	-0.551483	-0.815309
O29	O	1.734233	-0.218149	-0.481976
O30	O	2.067567	0.115184	-0.148642
O31	O	1.294986	-0.669903	-0.519108
O32	O	1.628320	-0.336569	-0.185775
O33	O	1.961653	-0.003236	0.147559
O34	O	1.107882	-0.664446	-0.664083
O35	O	1.441215	-0.331113	-0.330750
O36	O	1.774549	0.002221	0.002583
O37	O	1.211487	-0.848342	-0.998317
O38	O	1.544820	-0.515009	-0.664983
O39	O	1.878154	-0.181676	-0.331650
O40	O	1.071842	-0.806183	-0.805839
O41	O	1.405175	-0.472850	-0.472505
O42	O	1.738509	-0.139516	-0.139172
O43	O	1.353334	-0.738549	-1.002399
O44	O	1.686667	-0.405215	-0.669066
O45	O	2.020001	-0.071882	-0.335732
O46	O	1.353146	-1.002840	-0.738108
O47	O	1.686480	-0.669507	-0.404775
O48	O	2.019813	-0.336173	-0.071441
O49	O	1.211380	-0.998706	-0.847953
O50	O	1.544714	-0.665372	-0.514620
O51	O	1.878047	-0.332039	-0.181287
C52	C	1.053296	-0.729987	-0.729646
C53	C	1.386629	-0.396653	-0.396312
C54	C	1.719962	-0.063320	-0.062979
C55	C	0.941275	-0.713692	-0.713389
C56	C	1.274608	-0.380358	-0.380055
C57	C	1.607941	-0.047025	-0.046722
C58	C	0.873527	-0.776647	-0.776195
C59	C	1.206860	-0.443313	-0.442862
C60	C	1.540194	-0.109980	-0.109528
C61	C	0.757747	-0.759806	-0.759394
C62	C	1.091081	-0.426473	-0.426061
C63	C	1.424414	-0.093140	-0.092728
C64	C	1.276952	-1.038540	-0.797167
C65	C	1.610286	-0.705207	-0.463834
C66	C	1.943619	-0.371874	-0.130501
C67	C	1.260707	-1.154235	-0.809817
C68	C	1.594041	-0.820902	-0.476484
C69	C	1.927374	-0.487569	-0.143151
C70	C	1.323655	-1.207840	-0.761163
C71	C	1.656989	-0.874507	-0.427830
C72	C	1.990322	-0.541173	-0.094496
C73	C	1.306867	-1.327417	-0.774236
C74	C	1.640200	-0.994083	-0.440903
C75	C	1.973533	-0.660750	-0.107569
C76	C	1.577986	-0.806447	-0.805925
C77	C	1.911320	-0.473113	-0.472591
C78	C	2.244653	-0.139780	-0.139258
C79	C	1.690000	-0.822770	-0.822209
C80	C	2.023333	-0.489437	-0.488876
C81	C	2.356667	-0.156103	-0.155543
C82	C	1.276951	-0.797668	-1.039178
C83	C	1.610284	-0.464334	-0.705844
C84	C	1.943618	-0.131001	-0.372511
C85	C	1.260681	-0.810250	-1.154861
C86	C	1.594015	-0.476916	-0.821528
C87	C	1.927348	-0.143583	-0.488194
C88	C	1.353481	-0.496694	-0.738165
C89	C	1.686814	-0.163360	-0.404832
C90	C	2.020147	0.169973	-0.071499
C91	C	1.369823	-0.381019	-0.725575
C92	C	1.703157	-0.047685	-0.392242
C93	C	2.036490	0.285648	-0.058908
C94	C	1.323611	-0.761535	-1.208456
C95	C	1.656944	-0.428202	-0.875123
C96	C	1.990277	-0.094869	-0.541789
C97	C	1.306797	-0.774538	-1.328021
C98	C	1.640130	-0.441205	-0.994687
C99	C	1.973463	-0.107872	-0.661354
C100	C	1.353229	-0.738664	-0.497299
C101	C	1.686562	-0.405331	-0.163966
C102	C	2.019896	-0.071998	0.169367
C103	C	1.369735	-0.725817	-0.381613
C104	C	1.703068	-0.392484	-0.048280
C105	C	2.036402	-0.059151	0.285053
H106	H	0.717707	-0.889135	-0.888428
H107	H	1.051041	-0.555802	-0.555095
H108	H	1.384374	-0.222468	-0.221762
Cl109	Cl	1.204468	-1.393228	-0.853504
Cl110	Cl	1.537802	-1.059894	-0.520170
Cl111	Cl	1.871135	-0.726561	-0.186837
Cl112	Cl	1.472231	-1.315213	-0.646318
Cl113	Cl	1.805565	-0.981880	-0.312985
Cl114	Cl	2.138898	-0.648547	0.020348
H115	H	1.194390	-1.196870	-0.861155
H116	H	1.527723	-0.863536	-0.527822
H117	H	1.861056	-0.530203	-0.194489
H118	H	0.901241	-0.843009	-0.842407
H119	H	1.234574	-0.509675	-0.509074
H120	H	1.567908	-0.176342	-0.175740
Cl121	Cl	1.425992	-0.682249	-1.142637
Cl122	Cl	1.759326	-0.348916	-0.809304
Cl123	Cl	2.092659	-0.015583	-0.475971
H124	H	1.436059	-0.674475	-1.338985
H125	H	1.769393	-0.341141	-1.005652
H126	H	2.102726	-0.007808	-0.672318
Cl127	Cl	0.898497	-0.611220	-0.611169
Cl128	Cl	1.231830	-0.277886	-0.277835
Cl129	Cl	1.565163	0.055447	0.055498
Cl130	Cl	1.426059	-1.142028	-0.681913
Cl131	Cl	1.759393	-0.808695	-0.348580
Cl132	Cl	2.092726	-0.475361	-0.015246
Cl133	Cl	1.204384	-0.853792	-1.393827
Cl134	Cl	1.537718	-0.520459	-1.060494
Cl135	Cl	1.871051	-0.187125	-0.727161
H136	H	0.730039	-0.693432	-0.693185
H137	H	1.063372	-0.360099	-0.359851
H138	H	1.396705	-0.026766	-0.026518
Cl139	Cl	1.158273	-0.889500	-1.220672
Cl140	Cl	1.491607	-0.556166	-0.887338
Cl141	Cl	1.824940	-0.222833	-0.554005
