data_functionalizedCrystal
_audit_creation_method	'MofGen! by Chris Wilmer'
_symmetry_space_group_name_H-M	'P1'
_symmetry_Int_Tables_number	1
_symmetry_cell_setting	triclinic
loop_
_symmetry_equiv_pos_as_xyz
  x,y,z
_cell_length_a	13.339070
_cell_length_b	17.699077
_cell_length_c	16.776229
_cell_angle_alpha	89.993415
_cell_angle_beta	89.996888
_cell_angle_gamma	99.454935
loop_
_atom_site_label
_atom_site_type_symbol
_atom_site_fract_x
_atom_site_fract_y
_atom_site_fract_z
O1	O	0.127834	1.031102	-0.066275
O2	O	0.144476	0.814241	-0.066278
O3	O	-0.011047	0.897783	-0.066274
O4	O	0.283356	0.947560	-0.066278
O5	O	-0.011056	0.897766	0.066302
O6	O	0.144466	0.814224	0.066298
O7	O	0.127824	1.031085	0.066302
Zn8	Zn	0.136144	0.922652	0.087349
Zn9	Zn	0.136156	0.922674	-0.087326
O10	O	0.283347	0.947543	0.066298
C11	C	0.143875	0.785909	0.000010
C12	C	0.142090	0.701514	0.000008
C13	C	0.141243	0.661859	0.072276
C14	C	0.139549	0.582558	0.072277
C15	C	0.138709	0.542915	0.000009
C16	C	0.139552	0.582575	-0.072265
C17	C	0.141239	0.661873	-0.072265
C18	C	0.132748	0.262773	-0.072266
C19	C	0.131064	0.183469	-0.072261
C20	C	0.131058	0.183458	0.072276
C21	C	0.132745	0.262757	0.072276
C22	C	0.133583	0.302409	0.000003
C23	C	0.135418	0.388396	0.000002
C24	C	0.136881	0.456930	0.000008
C25	C	-0.048720	0.889366	0.000013
C26	C	-0.160959	0.864303	0.000009
C27	C	-0.526237	1.059182	0.000013
C28	C	-0.420783	1.082733	0.000020
C29	C	-0.355822	1.028127	0.000017
C30	C	-0.396325	0.949967	0.000007
C31	C	-0.501790	0.926414	0.000005
C32	C	-0.331375	0.895359	0.000010
C33	C	-0.371878	0.817199	-0.000001
C34	C	-0.477333	0.793650	-0.000003
C35	C	-0.542293	0.848255	0.000000
C36	C	-0.225910	0.918912	0.000011
C37	C	-0.201463	0.786144	0.000004
C38	C	-0.306917	0.762593	-0.000004
C39	C	0.321020	0.955960	0.000009
C40	C	0.433259	0.981023	0.000008
C41	C	0.128425	1.059417	0.000012
C42	C	0.130210	1.143812	0.000008
N43	N	0.136135	0.922641	0.206561
N44	N	0.136157	0.922689	-0.206537
C45	C	0.067297	0.959655	0.248279
C46	C	0.067297	0.959659	0.331732
C47	C	0.136138	0.922654	0.373464
C48	C	0.204979	0.885635	0.331739
C49	C	0.204974	0.885626	0.248288
C50	C	0.204999	0.885666	0.668286
C51	C	0.205000	0.885679	0.751743
C52	C	0.067321	0.959699	0.751729
C53	C	0.067316	0.959691	0.668279
C54	C	0.136153	0.922669	0.626561
C55	C	0.136152	0.922664	0.536073
C56	C	0.136145	0.922663	0.463950
H57	H	0.130371	0.151163	0.131124
H58	H	0.011267	0.989842	0.785705
N59	N	0.279222	0.845710	0.203285
H60	H	0.240635	0.804096	0.168675
H61	H	0.322820	0.822316	0.242431
N62	N	0.138632	0.539784	0.150222
H63	H	0.138708	0.576847	0.196004
H64	H	0.200950	0.514340	0.153611
H65	H	-0.628164	0.829084	-0.000009
H66	H	0.261049	0.855523	0.634326
H67	H	0.133428	0.295048	-0.131116
N68	N	0.130155	0.140708	-0.150210
H69	H	0.130938	0.177859	-0.195996
H70	H	0.066801	0.100787	-0.153348
N71	N	0.138634	0.539819	-0.150213
H72	H	0.137438	0.483566	-0.139249
H73	H	0.201583	0.560702	-0.181777
N74	N	0.279243	0.845751	0.796754
H75	H	0.268800	0.851378	0.855949
H76	H	0.350961	0.869541	0.782159
N77	N	0.133658	0.305510	0.150226
H78	H	0.070708	0.284688	0.181822
H79	H	0.134896	0.361753	0.139196
H80	H	0.141931	0.694159	-0.131113
H81	H	0.011243	0.989794	0.214307
H82	H	0.261028	0.855499	0.365722
H83	H	-0.192943	0.982550	0.000020
N84	N	-0.596307	1.118065	0.000027
H85	H	-0.640606	1.111261	-0.049117
H86	H	-0.554584	1.171127	0.000062
H87	H	-0.269957	1.047307	0.000024
N88	N	-0.131412	0.727240	0.000010
H89	H	-0.058458	0.754020	0.000012
H90	H	-0.144497	0.694139	-0.049136
N91	N	-0.377098	1.167027	0.000036
H92	H	-0.434249	1.198046	0.000036
H93	H	-0.333866	1.179701	-0.049109
H94	H	0.141935	0.694132	0.131126
H95	H	-0.510306	0.730007	-0.000005
H96	H	0.011244	0.989798	0.365699
N97	N	-0.350601	0.678293	-0.000010
H98	H	-0.393806	0.665572	-0.049156
H99	H	-0.393767	0.665612	0.049168
N100	N	-0.006929	0.999608	0.623268
H101	H	-0.050540	1.023056	0.662360
H102	H	-0.051581	0.961254	0.588655
