data_functionalizedCrystal
_audit_creation_method	'MofGen! by Chris Wilmer'
_symmetry_space_group_name_H-M	'P1'
_symmetry_Int_Tables_number	1
_symmetry_cell_setting	triclinic
loop_
_symmetry_equiv_pos_as_xyz
  x,y,z
_cell_length_a	14.044220
_cell_length_b	15.944493
_cell_length_c	13.101039
_cell_angle_alpha	93.367629
_cell_angle_beta	86.340132
_cell_angle_gamma	88.331960
loop_
_atom_site_label
_atom_site_type_symbol
_atom_site_fract_x
_atom_site_fract_y
_atom_site_fract_z
O1	O	1.262879	0.198269	-0.085081
O2	O	0.986913	0.190960	-0.085107
O3	O	1.132461	0.072903	-0.085102
O4	O	1.117331	0.316327	-0.085086
O5	O	1.122018	0.081388	0.085328
O6	O	0.976470	0.199446	0.085322
O7	O	1.252436	0.206755	0.085349
Zn8	Zn	1.112795	0.204448	0.112395
Zn9	Zn	1.126554	0.193267	-0.112153
O10	O	1.106888	0.324813	0.085343
C11	C	0.946377	0.192004	0.000104
C12	C	0.841154	0.182462	0.000093
C13	C	0.648494	0.165020	0.000112
C14	C	0.590849	0.232692	0.000121
C15	C	0.483647	0.222986	0.000131
C16	C	0.755707	0.174724	0.000101
C17	C	1.126621	0.045804	0.000109
C18	C	1.124768	-0.047584	0.000095
C19	C	1.210440	-0.276927	0.000123
C20	C	1.169389	-0.335139	-0.083912
C21	C	1.121332	-0.218561	0.000108
C22	C	1.159072	-0.326750	0.084119
C23	C	1.118020	-0.383718	0.000124
C24	C	1.080309	-0.275546	-0.083996
C25	C	1.070001	-0.267150	0.084109
C26	C	1.028886	-0.325334	0.000054
C27	C	1.123243	-0.123419	0.000097
C28	C	1.116103	-0.478859	0.000127
C29	C	1.292971	0.205711	0.000136
C30	C	1.398195	0.215253	0.000140
C31	C	1.112727	0.351911	0.000131
C32	C	1.114581	0.445299	0.000137
N33	N	1.103412	0.212078	0.265643
N34	N	1.135945	0.185631	-0.265402
C35	C	1.090645	0.222467	0.474685
C36	C	1.148708	0.175245	0.525563
C37	C	1.141604	0.181025	0.641881
C38	C	1.097747	0.216688	0.358356
H39	H	0.622009	0.297916	0.000120
H40	H	1.028049	-0.237467	0.155150
H41	H	1.035606	0.267235	0.518480
H42	H	0.617336	0.099800	0.000113
H43	H	1.211373	-0.364804	-0.154950
Cl44	Cl	1.328949	-0.243926	0.000009
Cl45	Cl	1.028975	-0.240872	-0.193805
H46	H	1.203752	0.130475	0.481763
H47	H	0.952074	-0.346555	0.000001
H48	H	1.192369	-0.349325	0.155159
