data_functionalizedCrystal
_audit_creation_method	'MofGen! by Chris Wilmer'
_symmetry_space_group_name_H-M	'P1'
_symmetry_Int_Tables_number	1
_symmetry_cell_setting	triclinic
loop_
_symmetry_equiv_pos_as_xyz
  x,y,z
_cell_length_a	16.120807
_cell_length_b	18.215407
_cell_length_c	18.215399
_cell_angle_alpha	89.983176
_cell_angle_beta	92.922316
_cell_angle_gamma	87.099733
loop_
_atom_site_label
_atom_site_type_symbol
_atom_site_fract_x
_atom_site_fract_y
_atom_site_fract_z
Zn1	Zn	0.331888	1.110314	-0.401292
Zn2	Zn	0.471317	1.104038	-0.271998
Zn3	Zn	0.331922	0.987251	-0.278238
Zn4	Zn	0.471264	0.981023	-0.395026
O5	O	0.401598	1.045656	-0.336639
O6	O	0.350392	1.212465	-0.384152
O7	O	0.452861	1.088525	-0.169840
O8	O	0.215251	1.008808	-0.299795
O9	O	0.452829	1.207854	-0.289161
O10	O	0.215226	1.099222	-0.390203
O11	O	0.350448	1.002723	-0.174424
O12	O	0.350398	0.883441	-0.293719
O13	O	0.452740	0.998194	-0.498843
O14	O	0.452772	0.878866	-0.379522
O15	O	0.350341	1.093183	-0.503447
O16	O	0.587976	1.082487	-0.283084
O17	O	0.587938	0.992109	-0.373472
C18	C	0.401583	0.854451	-0.336618
C19	C	0.401597	0.772651	-0.336626
C20	C	0.184142	1.055410	-0.346394
C21	C	0.091476	1.059566	-0.350551
C22	C	0.454988	0.582090	-0.381241
C23	C	0.454990	0.505232	-0.381250
C24	C	0.348223	0.509974	-0.292052
C25	C	0.348217	0.586831	-0.292047
C26	C	0.401604	0.622887	-0.336640
C27	C	0.401613	0.469171	-0.336654
C28	C	0.401615	0.385837	-0.336663
C29	C	0.401600	0.706227	-0.336632
C30	C	-0.119463	1.024279	-0.315235
C31	C	-0.078182	1.067165	-0.358125
C32	C	0.016224	1.062936	-0.353910
C33	C	-0.213878	1.028507	-0.319450
C34	C	0.618207	1.035961	-0.326937
C35	C	0.710874	1.031880	-0.322811
C36	C	0.401531	1.045694	-0.528594
C37	C	0.401503	1.045710	-0.610395
C38	C	0.401613	1.237609	-0.336659
C39	C	0.401619	1.319407	-0.336668
C40	C	0.348140	1.001074	-0.800978
C41	C	0.348123	1.001088	-0.877838
C42	C	0.454766	1.090439	-0.873053
C43	C	0.454786	1.090421	-0.796195
C44	C	0.401469	1.045740	-0.760160
C45	C	0.401431	1.045771	-0.913878
C46	C	0.401414	1.045786	-0.997212
C47	C	0.401487	1.045724	-0.676820
C48	C	0.401604	1.045664	-0.145432
C49	C	0.401397	1.045801	-0.063643
H50	H	0.498457	0.611445	-0.417553
H51	H	0.498216	1.126794	-0.762960
O52	O	0.290662	0.471069	-0.243950
H53	H	0.225240	0.488736	-0.259590
O54	O	0.290636	0.630845	-0.243941
H55	H	0.327902	0.664186	-0.204784
H56	H	0.498459	0.472018	-0.417569
H57	H	-0.113741	1.107059	-0.398009
O58	O	-0.072372	0.971451	-0.262390
H59	H	-0.004538	0.976392	-0.267323
O60	O	0.290635	0.952884	-0.762112
H61	H	0.327954	0.913764	-0.725410
H62	H	0.304699	0.964716	-0.911069
O63	O	0.512263	1.138637	-0.911919
H64	H	0.503284	1.131153	-0.972222
