data_functionalizedCrystal
_audit_creation_method	'MofGen! by Chris Wilmer'
_symmetry_space_group_name_H-M	'P1'
_symmetry_Int_Tables_number	1
_symmetry_cell_setting	triclinic
loop_
_symmetry_equiv_pos_as_xyz
  x,y,z
_cell_length_a	18.050591
_cell_length_b	25.639240
_cell_length_c	18.050582
_cell_angle_alpha	89.968180
_cell_angle_beta	89.979078
_cell_angle_gamma	90.028762
loop_
_atom_site_label
_atom_site_type_symbol
_atom_site_fract_x
_atom_site_fract_y
_atom_site_fract_z
Zn1	Zn	1.135269	-0.208240	-0.419984
Zn2	Zn	1.135170	-0.295667	-0.295774
Zn3	Zn	1.011088	-0.208242	-0.295795
Zn4	Zn	1.011026	-0.295640	-0.419909
O5	O	1.073138	-0.251947	-0.357865
O6	O	1.239181	-0.219848	-0.403529
O7	O	1.118695	-0.284083	-0.191852
O8	O	1.027629	-0.135076	-0.312309
O9	O	1.239108	-0.284081	-0.312273
O10	O	1.118864	-0.135075	-0.403550
O11	O	1.027532	-0.219851	-0.191867
O12	O	0.907156	-0.219825	-0.312236
O13	O	1.027523	-0.284034	-0.523844
O14	O	0.907110	-0.284036	-0.403423
O15	O	1.118804	-0.219821	-0.523898
O16	O	1.118635	-0.368829	-0.312200
O17	O	1.027427	-0.368809	-0.403402
C18	C	0.880186	-0.251928	-0.357824
C19	C	0.797641	-0.251932	-0.357824
C20	C	0.598193	-0.216974	-0.308351
C21	C	0.548768	-0.264661	-0.290064
C22	C	0.646510	-0.251948	-0.357858
C23	C	0.548854	-0.204277	-0.376143
C24	C	0.500525	-0.251959	-0.357889
C25	C	0.598172	-0.299660	-0.339535
C26	C	0.598262	-0.239244	-0.425646
C27	C	0.548859	-0.286965	-0.407384
C28	C	0.730608	-0.251941	-0.357838
C29	C	0.416429	-0.251971	-0.357909
C30	C	1.073034	-0.387790	-0.357807
C31	C	1.073057	-0.445904	-0.357807
C32	C	1.120668	-0.806228	-0.405460
C33	C	1.120690	-0.860832	-0.405475
O34	O	1.161046	-0.889035	-0.445932
N35	N	1.073241	-0.888186	-0.357937
C36	C	1.025763	-0.860933	-0.310386
O37	O	0.985405	-0.889214	-0.269953
C38	C	1.025738	-0.806330	-0.310375
C39	C	1.073195	-0.778979	-0.357911
C40	C	1.168121	-0.778876	-0.452993
C41	C	1.168100	-0.724275	-0.452977
C42	C	1.120626	-0.697027	-0.405428
C43	C	1.073173	-0.724378	-0.357895
C44	C	0.978255	-0.779078	-0.262828
C45	C	0.978234	-0.724471	-0.262822
C46	C	1.025691	-0.697120	-0.310358
C47	C	1.025679	-0.642529	-0.310330
N48	N	1.073127	-0.615174	-0.357868
C49	C	1.120601	-0.642423	-0.405417
C50	C	1.025818	-0.975604	-0.310413
C51	C	1.025846	-1.030206	-0.310420
C52	C	1.120773	-1.030101	-0.405510
C53	C	1.120748	-0.975498	-0.405499
C54	C	1.073267	-0.948250	-0.357951
C55	C	1.120553	-0.527758	-0.405379
C56	C	1.120530	-0.473153	-0.405356
C57	C	1.025601	-0.473263	-0.310269
C58	C	1.025627	-0.527863	-0.310288
C59	C	1.073105	-0.555110	-0.357849
O60	O	0.985341	-0.614291	-0.269896
O61	O	1.160944	-0.614136	-0.445850
C62	C	1.266844	-0.251967	-0.357907
C63	C	1.349390	-0.251976	-0.357925
C64	C	1.073168	-0.251924	-0.551571
C65	C	1.073180	-0.251914	-0.634117
C66	C	1.073264	-0.115574	-0.357940
C67	C	1.073318	-0.057460	-0.357972
C68	C	1.023580	-0.286785	-0.833538
C69	C	1.091333	-0.299569	-0.882933
C70	C	1.073217	-0.251874	-0.785247
C71	C	1.005500	-0.239076	-0.882934
C72	C	1.073246	-0.251837	-0.931232
C73	C	1.141006	-0.264683	-0.833556
C74	C	1.055127	-0.204168	-0.833551
C75	C	1.122927	-0.216933	-0.882925
C76	C	1.073199	-0.251897	-0.701149
C77	C	1.073272	-0.251814	-1.015329
C78	C	1.073152	-0.251933	-0.164913
C79	C	1.073284	-0.251795	-0.082368
H80	H	0.527029	-0.275415	-0.232751
H81	H	0.948221	-0.228267	-0.904624
O82	O	1.109730	-0.347644	-0.908859
C83	C	1.195473	-0.398540	-0.981214
C84	C	1.174744	-0.344068	-0.951889
H85	H	1.248029	-0.395666	-1.016023
H86	H	1.205373	-0.426035	-0.932562
H87	H	1.148323	-0.414243	-1.016811
H88	H	1.221867	-0.328319	-0.916304
H89	H	1.164817	-0.316608	-1.000575
H90	H	1.164965	-0.187394	-0.904472
H91	H	0.981643	-0.316347	-0.811854
O92	O	0.623953	-0.181662	-0.258404
C93	C	0.627071	-0.091596	-0.220453
C94	C	0.597831	-0.131530	-0.277060
H95	H	0.605976	-0.051054	-0.235525
H96	H	0.606713	-0.102487	-0.162683
H97	H	0.690223	-0.091682	-0.221272
H98	H	0.534682	-0.131465	-0.276308
H99	H	0.618246	-0.120625	-0.334804
O100	O	1.036746	-0.156112	-0.807556
C101	C	0.951676	-0.105408	-0.734141
C102	C	0.972429	-0.159862	-0.763518
H103	H	0.899666	-0.108420	-0.698543
H104	H	0.999197	-0.089354	-0.699360
H105	H	0.940775	-0.078129	-0.782822
H106	H	0.983317	-0.187180	-0.714882
H107	H	0.924896	-0.175873	-0.798321
O108	O	0.624027	-0.347739	-0.320999
C109	C	0.731319	-0.401680	-0.300235
C110	C	0.702137	-0.347206	-0.321221
H111	H	0.794473	-0.401270	-0.300423
H112	H	0.710545	-0.412596	-0.242623
H113	H	0.710533	-0.431515	-0.342178
H114	H	0.722910	-0.317335	-0.279329
H115	H	0.722905	-0.336334	-0.378852
O116	O	0.624189	-0.226309	-0.493977
C117	C	0.628485	-0.161424	-0.590513
C118	C	0.599086	-0.176009	-0.513115
H119	H	0.608188	-0.120761	-0.606017
H120	H	0.691636	-0.161886	-0.589986
H121	H	0.607351	-0.190851	-0.632861
H122	H	0.620165	-0.146597	-0.470724
H123	H	0.535935	-0.175565	-0.513704
H124	H	1.198302	-0.275538	-0.811957
O125	O	0.523140	-0.322220	-0.457431
C126	C	0.451047	-0.336373	-0.567942
C127	C	0.480139	-0.296389	-0.511331
H128	H	0.416262	-0.315506	-0.611526
H129	H	0.499816	-0.356607	-0.595929
H130	H	0.415481	-0.366619	-0.538246
H131	H	0.515693	-0.266111	-0.540972
H132	H	0.431337	-0.276195	-0.483347
H133	H	1.159210	-0.549936	-0.444112
H134	H	0.527150	-0.163963	-0.391570
H135	H	1.159178	-0.450885	-0.444065
H136	H	0.987210	-1.052471	-0.271703
O137	O	1.214219	-0.697791	-0.499227
C138	C	1.308405	-0.703470	-0.593515
C139	C	1.256198	-0.733523	-0.541181
H140	H	1.342369	-0.732346	-0.627437
H141	H	1.274310	-0.677921	-0.632359
H142	H	1.347222	-0.677887	-0.559446
H143	H	1.217371	-0.759135	-0.575190
H144	H	1.290339	-0.759039	-0.502335
H145	H	1.206779	-0.801056	-0.491717
H146	H	1.159391	-0.953231	-0.444208
O147	O	1.166816	-1.056657	-0.451682
C148	C	1.208937	-1.140737	-0.493807
C149	C	1.156748	-1.110726	-0.441498
H150	H	1.200827	-1.184457	-0.485581
H151	H	1.195848	-1.130019	-0.553691
H152	H	1.268819	-1.129947	-0.480839
H153	H	1.096849	-1.121500	-0.454399
H154	H	1.169902	-1.121447	-0.381629
O155	O	0.979596	-0.949195	-0.264251
C156	C	0.853284	-0.932565	-0.228087
C157	C	0.905547	-0.962511	-0.280398
H158	H	0.793403	-0.943313	-0.241134
H159	H	0.866313	-0.943338	-0.168210
H160	H	0.861448	-0.888842	-0.236225
H161	H	0.897412	-1.006242	-0.272327
H162	H	0.892504	-0.951696	-0.340256
O163	O	0.932082	-0.805558	-0.216631
C164	C	0.837943	-0.799876	-0.122297
C165	C	0.890190	-0.769824	-0.174592
H166	H	0.804071	-0.770998	-0.088284
H167	H	0.799048	-0.825428	-0.156325
H168	H	0.872076	-0.825456	-0.083529
H169	H	0.856117	-0.744216	-0.213371
H170	H	0.929088	-0.744305	-0.140518
O171	O	0.932031	-0.697979	-0.216738
C172	C	0.831773	-0.636370	-0.206627
C173	C	0.884036	-0.666348	-0.258902
H174	H	0.792966	-0.610780	-0.240695
H175	H	0.797807	-0.665278	-0.172671
H176	H	0.865897	-0.610831	-0.167806
H177	H	0.849969	-0.691887	-0.297769
H178	H	0.918005	-0.637412	-0.292807
O179	O	0.979462	-0.554355	-0.264085
C180	C	0.885333	-0.548690	-0.169740
C181	C	0.937572	-0.518629	-0.222032
H182	H	0.851463	-0.519818	-0.135715
H183	H	0.846436	-0.574239	-0.203771
H184	H	0.919472	-0.574274	-0.130983
H185	H	0.903493	-0.493016	-0.260800
H186	H	0.976471	-0.493113	-0.187955
O187	O	0.979510	-0.446707	-0.264153
C188	C	0.937440	-0.362627	-0.221976
C189	C	0.989668	-0.392638	-0.274247
H190	H	0.945646	-0.318907	-0.230108
H191	H	0.877536	-0.373349	-0.234965
H192	H	0.950509	-0.373414	-0.162114
H193	H	0.976665	-0.381867	-0.334127
H194	H	1.049556	-0.381914	-0.261194
