data_functionalizedCrystal
_audit_creation_method	'MofGen! by Chris Wilmer'
_symmetry_space_group_name_H-M	'P1'
_symmetry_Int_Tables_number	1
_symmetry_cell_setting	triclinic
loop_
_symmetry_equiv_pos_as_xyz
  x,y,z
_cell_length_a	25.639239
_cell_length_b	11.169417
_cell_length_c	11.169409
_cell_angle_alpha	90.019824
_cell_angle_beta	89.960719
_cell_angle_gamma	89.960435
loop_
_atom_site_label
_atom_site_type_symbol
_atom_site_fract_x
_atom_site_fract_y
_atom_site_fract_z
Zn1	Zn	-0.208096	-1.834726	-0.678485
Zn2	Zn	-0.295546	-1.834516	-0.477777
Zn3	Zn	-0.208128	-1.634012	-0.477819
Zn4	Zn	-0.295504	-1.633920	-0.678422
O5	O	-0.251819	-1.734293	-0.578126
O6	O	-0.219701	-2.002648	-0.651869
O7	O	-0.283981	-1.807869	-0.309833
O8	O	-0.134959	-1.660763	-0.504482
O9	O	-0.283950	-2.002494	-0.504410
O10	O	-0.134935	-1.808227	-0.651910
O11	O	-0.219755	-1.660560	-0.309864
O12	O	-0.219714	-1.466050	-0.504421
O13	O	-0.283878	-1.660607	-0.846380
O14	O	-0.283909	-1.465983	-0.651803
O15	O	-0.219660	-1.808138	-0.846426
O16	O	-0.368706	-1.807780	-0.504350
O17	O	-0.368675	-1.660403	-0.651763
C18	C	-0.251811	-1.422469	-0.578110
C19	C	-0.251820	-1.289069	-0.578132
C20	C	-0.387661	-1.734092	-0.578071
C21	C	-0.445775	-1.734115	-0.578088
C22	C	-0.251761	-1.734386	-0.891168
C23	C	-0.251736	-1.734425	-1.024569
C24	C	-0.806142	-1.811233	-0.501499
C25	C	-0.860746	-1.811279	-0.501515
O26	O	-0.888986	-1.876638	-0.436336
N27	N	-0.888058	-1.734504	-0.578205
C28	C	-0.860762	-1.657686	-0.654894
O29	O	-0.889006	-1.592388	-0.720127
C30	C	-0.806159	-1.657647	-0.654883
C31	C	-0.778850	-1.734418	-0.578178
C32	C	-0.778833	-1.887999	-0.424802
C33	C	-0.724233	-1.887951	-0.424784
C34	C	-0.696941	-1.811136	-0.501464
C35	C	-0.724249	-1.734370	-0.578161
C36	C	-0.778864	-1.580836	-0.731576
C37	C	-0.724257	-1.580804	-0.731559
C38	C	-0.696948	-1.657575	-0.654855
C39	C	-0.642357	-1.657507	-0.654823
N40	N	-0.615046	-1.734282	-0.578133
C41	C	-0.642338	-1.811097	-0.501453
C42	C	-0.975432	-1.657777	-0.654912
C43	C	-1.030035	-1.657809	-0.654918
C44	C	-1.030015	-1.811404	-0.501540
C45	C	-0.975412	-1.811365	-0.501529
C46	C	-0.948121	-1.734552	-0.578221
C47	C	-0.527673	-1.810988	-0.501422
C48	C	-0.473067	-1.810930	-0.501408
C49	C	-0.473091	-1.657340	-0.654789
C50	C	-0.527692	-1.657393	-0.654799
C51	C	-0.554981	-1.734228	-0.578112
O52	O	-0.614082	-1.592185	-0.719973
O53	O	-0.614086	-1.876395	-0.436242
C54	C	-0.115446	-1.734529	-0.578207
C55	C	-0.057331	-1.734629	-0.578242
C56	C	-0.251827	-2.047336	-0.578142
C57	C	-0.251830	-2.180736	-0.578149
C58	C	-0.251839	-1.734271	-0.266301
C59	C	-0.251716	-1.734464	-0.132902
H60	H	-0.549885	-1.873557	-0.438978
H61	H	-0.801049	-1.950557	-0.362360
H62	H	-1.052246	-1.873955	-0.439107
C63	C	-1.059586	-1.574401	-0.738319
C64	C	-1.023991	-1.507147	-0.805483
C65	C	-1.051192	-1.430313	-0.882344
H66	H	-1.080930	-1.522040	-0.692509
H67	H	-1.080835	-1.620273	-0.790728
H68	H	-1.002751	-1.461278	-0.753080
H69	H	-1.002646	-1.559476	-0.851318
H70	H	-1.072441	-1.476185	-0.934753
H71	H	-1.072535	-1.377960	-0.836523
H72	H	-1.027045	-1.384680	-0.927931
C73	C	-0.443486	-1.894220	-0.417933
C74	C	-0.456835	-1.868180	-0.299170
C75	C	-0.429603	-1.944891	-0.222245
H76	H	-0.407048	-1.883271	-0.428734
H77	H	-0.452403	-1.974877	-0.435501
H78	H	-0.447914	-1.787543	-0.281607
H79	H	-0.493268	-1.879136	-0.288330
H80	H	-0.438520	-2.025548	-0.239813
H81	H	-0.393167	-1.933936	-0.233057
H82	H	-0.438660	-1.927241	-0.141657
C83	C	-0.694682	-1.971451	-0.341473
C84	C	-0.730280	-2.038749	-0.274360
C85	C	-0.703081	-2.115703	-0.197615
H86	H	-0.673416	-1.925701	-0.289019
H87	H	-0.673356	-2.023771	-0.387402
H88	H	-0.751597	-1.986436	-0.228435
H89	H	-0.751547	-2.084523	-0.326783
H90	H	-0.681755	-2.168023	-0.243543
H91	H	-0.681816	-2.069944	-0.145168
H92	H	-0.727229	-2.161382	-0.152077
H93	H	-0.953181	-1.873879	-0.439071
C94	C	-0.694722	-1.497275	-0.814877
C95	C	-0.730329	-1.430041	-0.882027
C96	C	-0.703142	-1.353073	-0.958780
H97	H	-0.673381	-1.543012	-0.867308
H98	H	-0.673472	-1.444916	-0.768951
H99	H	-0.751570	-1.482394	-0.927950
H100	H	-0.751672	-1.384280	-0.829628
H101	H	-0.681892	-1.300714	-0.912854
H102	H	-0.681802	-1.398820	-1.011203
H103	H	-0.727297	-1.307438	-1.004342
C104	C	-0.945777	-1.574560	-0.738319
C105	C	-0.914382	-1.642440	-0.815328
C106	C	-0.887064	-1.565826	-0.892189
H107	H	-0.924473	-1.522248	-0.692500
H108	H	-0.969849	-1.528866	-0.784059
H109	H	-0.890312	-1.688114	-0.769593
H110	H	-0.935673	-1.694749	-0.861174
H111	H	-0.911137	-1.520132	-0.937929
H112	H	-0.865763	-1.513517	-0.846360
H113	H	-0.865764	-1.611872	-0.944455
H114	H	-0.801089	-1.518314	-0.794031
C115	C	-0.557371	-1.573885	-0.737870
C116	C	-0.588772	-1.497001	-0.669866
C117	C	-0.616109	-1.420054	-0.746359
H118	H	-0.578671	-1.619648	-0.790240
H119	H	-0.533309	-1.528059	-0.783508
H120	H	-0.612831	-1.542823	-0.624248
H121	H	-0.567484	-1.451212	-0.617500
H122	H	-0.592047	-1.374228	-0.791997
H123	H	-0.637407	-1.465826	-0.798724
H124	H	-0.637414	-1.367872	-0.700229
C125	C	-0.443359	-1.574078	-0.737996
C126	C	-0.389696	-1.590504	-0.721581
C127	C	-0.362290	-1.513843	-0.798229
H128	H	-0.452284	-1.493402	-0.720452
H129	H	-0.452240	-1.591628	-0.818679
H130	H	-0.380819	-1.572946	-0.640917
H131	H	-0.380756	-1.671165	-0.739134
H132	H	-0.371170	-1.531393	-0.878912
H133	H	-0.371218	-1.433171	-0.780679
H134	H	-0.325877	-1.524986	-0.787110
