data_functionalizedCrystal
_audit_creation_method	'MofGen! by Chris Wilmer'
_symmetry_space_group_name_H-M	'P1'
_symmetry_Int_Tables_number	1
_symmetry_cell_setting	triclinic
loop_
_symmetry_equiv_pos_as_xyz
  x,y,z
_cell_length_a	6.817900
_cell_length_b	10.943574
_cell_length_c	10.943624
_cell_angle_alpha	91.772393
_cell_angle_beta	108.838799
_cell_angle_gamma	108.837846
loop_
_atom_site_label
_atom_site_type_symbol
_atom_site_fract_x
_atom_site_fract_y
_atom_site_fract_z
V1	V	-4.115492	-0.178596	-0.402524
O2	O	-4.073204	0.008617	-0.394890
O3	O	-4.093439	-0.354160	-0.399743
O4	O	-4.093454	-0.175834	-0.578091
O5	O	-4.073188	-0.170944	-0.215308
V6	V	-4.592290	-0.156205	-0.380134
O7	O	-4.391502	-0.227713	-0.451636
O8	O	-4.766477	-0.107089	-0.331022
O9	O	-4.391136	0.019358	-0.382915
O10	O	-4.751974	-0.343419	-0.387769
O11	O	-4.751990	-0.163858	-0.567350
O12	O	-4.391120	-0.158968	-0.204568
C13	C	-3.943996	-0.396959	-0.393386
C14	C	-4.007427	-0.540485	-0.392284
C15	C	-3.890258	-0.703489	-0.384276
C16	C	-4.003635	-0.637681	-0.495234
C17	C	-3.893183	-0.604393	-0.281389
C18	C	-4.233990	-0.730421	-0.501411
C19	C	-4.123465	-0.697124	-0.287470
C20	C	-4.237013	-0.631364	-0.398458
C21	C	-3.944014	-0.169485	-0.620884
C22	C	-4.007454	-0.168388	-0.764411
C23	C	-3.852284	-0.161001	-0.841560
C24	C	-4.041640	-0.270645	-0.947533
C25	C	-3.931163	-0.056802	-0.914179
C26	C	-4.196021	-0.278135	-0.868507
C27	C	-4.085464	-0.064194	-0.835130
C28	C	-4.274957	-0.173870	-0.941074
C29	C	-4.203921	0.062151	-0.389268
C30	C	-4.119730	0.205675	-0.390379
C31	C	-4.203902	-0.165321	-0.161767
C32	C	-4.119700	-0.166411	-0.018239
H33	H	-3.744387	-0.735399	-0.378404
H34	H	-3.952392	-0.611143	-0.583092
H35	H	-4.378572	-0.784968	-0.594490
H36	H	-3.819816	0.036718	-0.934956
C37	C	-4.192629	-0.733036	-0.168779
C38	C	-4.026259	-0.675061	-0.029496
C39	C	-4.095399	-0.710973	0.089207
C40	C	-4.330910	-0.804861	0.068628
C41	C	-4.497296	-0.862842	-0.070662
C42	C	-4.428155	-0.826929	-0.189365
H43	H	-3.851906	-0.605554	-0.014256
H44	H	-3.972228	-0.668052	0.192319
H45	H	-4.382092	-0.831446	0.156499
H46	H	-4.671649	-0.932349	-0.085902
H47	H	-4.551326	-0.869851	-0.292476
H48	H	-4.103243	0.023090	-0.786160
C49	C	-4.017519	-0.388545	-1.013664
C50	C	-4.220908	-0.490547	-1.117979
C51	C	-4.196766	-0.608438	-1.184106
C52	C	-3.969235	-0.624328	-1.145918
C53	C	-3.765830	-0.522324	-1.041597
C54	C	-3.789972	-0.404432	-0.975470
H55	H	-4.389354	-0.478787	-1.146253
H56	H	-4.347341	-0.683949	-1.261332
H57	H	-3.951364	-0.711599	-1.194869
H58	H	-3.597383	-0.534084	-1.013323
H59	H	-3.639396	-0.328921	-0.898245
C60	C	-4.346495	-0.404649	-0.840750
C61	C	-4.490608	-0.397587	-0.759485
C62	C	-4.641071	-0.524101	-0.731725
C63	C	-4.647421	-0.657677	-0.785231
C64	C	-4.503304	-0.664744	-0.866501
C65	C	-4.352841	-0.538230	-0.894261
H66	H	-4.485911	-0.298702	-0.719872
H67	H	-4.747756	-0.518869	-0.671563
H68	H	-4.758803	-0.751330	-0.764681
H69	H	-4.508001	-0.763629	-0.906114
H70	H	-4.246156	-0.543462	-0.954423
H71	H	-4.383203	-0.599718	-0.404497
H72	H	-3.748452	-0.549682	-0.188433
H73	H	-3.673084	-0.155707	-0.798112
H74	H	-4.454271	-0.179337	-0.984317
