data_functionalizedCrystal
_audit_creation_method	'MofGen! by Chris Wilmer'
_symmetry_space_group_name_H-M	'P1'
_symmetry_Int_Tables_number	1
_symmetry_cell_setting	triclinic
loop_
_symmetry_equiv_pos_as_xyz
  x,y,z
_cell_length_a	16.120484
_cell_length_b	14.908610
_cell_length_c	14.908308
_cell_angle_alpha	89.826017
_cell_angle_beta	95.986071
_cell_angle_gamma	90.215361
loop_
_atom_site_label
_atom_site_type_symbol
_atom_site_fract_x
_atom_site_fract_y
_atom_site_fract_z
Zn1	Zn	-0.434983	-1.320094	-0.609992
Zn2	Zn	-0.566804	-1.321037	-0.466415
Zn3	Zn	-0.418969	-1.179337	-0.450162
Zn4	Zn	-0.565807	-1.162123	-0.608012
O5	O	-0.496641	-1.245648	-0.533645
O6	O	-0.459588	-1.445633	-0.598576
O7	O	-0.540909	-1.309839	-0.338111
O8	O	-0.304473	-1.204819	-0.465391
O9	O	-0.556437	-1.446326	-0.493091
O10	O	-0.316238	-1.308232	-0.582817
O11	O	-0.432295	-1.205733	-0.326170
O12	O	-0.431328	-1.051640	-0.463471
O13	O	-0.554737	-1.175479	-0.734422
O14	O	-0.539209	-1.038993	-0.579442
O15	O	-0.458621	-1.291540	-0.735877
O16	O	-0.683292	-1.293147	-0.491171
O17	O	-0.682559	-1.176393	-0.595201
C18	C	-0.483423	-1.012798	-0.519479
C19	C	-0.477790	-0.913181	-0.513441
C20	C	-0.413608	-0.779334	-0.444641
C21	C	-0.418897	-0.872933	-0.450311
C22	C	-0.531396	-0.859824	-0.570908
C23	C	-0.526107	-0.766225	-0.565238
C24	C	-0.467212	-0.725983	-0.502102
C25	C	-0.461928	-0.632382	-0.496429
C26	C	-0.574423	-0.619275	-0.617030
C27	C	-0.579711	-0.712874	-0.622699
C28	C	-0.713166	-1.233028	-0.544756
C29	C	-0.805803	-1.227709	-0.549544
C30	C	-0.975413	-1.218002	-0.558305
C31	C	-1.017037	-1.273453	-0.509009
C32	C	-1.111414	-1.268052	-0.513884
C33	C	-0.881028	-1.223402	-0.553432
C34	C	-0.279272	-1.258340	-0.522512
C35	C	-0.186642	-1.263749	-0.517768
C36	C	-0.508354	-1.231484	-0.768773
C37	C	-0.513346	-1.225448	-0.868970
C38	C	-0.509903	-0.479408	-0.547859
C39	C	-0.515535	-0.579024	-0.553896
C40	C	-0.422621	-1.334959	-1.058767
C41	C	-0.427308	-1.329291	-1.152912
C42	C	-0.527403	-1.208440	-1.151405
C43	C	-0.522716	-1.214108	-1.057260
C44	C	-0.470324	-1.277371	-1.010945
C45	C	-0.465641	-1.283043	-0.916799
C46	C	-0.565731	-1.162188	-0.915294
C47	C	-0.570419	-1.156520	-1.009438
C48	C	-0.484915	-1.259812	-0.299432
C49	C	-0.479699	-1.266035	-0.199234
H50	H	-0.375244	-0.916368	-0.403523
C51	C	-0.349589	-0.735805	-0.376064
C52	C	-0.303766	-0.802562	-0.326965
C53	C	-0.244776	-0.762499	-0.263791
H54	H	-0.377297	-0.699809	-0.336071
H55	H	-0.312938	-0.699350	-0.406516
H56	H	-0.340411	-0.839002	-0.296514
H57	H	-0.276040	-0.838563	-0.366934
H58	H	-0.208125	-0.726044	-0.294243
H59	H	-0.272491	-0.726504	-0.223804
H60	H	-0.213673	-0.807787	-0.230475
C61	C	-0.970107	-1.342297	-0.447969
C62	C	-0.997113	-1.428594	-0.474132
C63	C	-0.953887	-1.492030	-0.417930
H64	H	-0.980571	-1.332196	-0.387291
H65	H	-0.911997	-1.336900	-0.452789
H66	H	-1.055210	-1.433989	-0.469304
H67	H	-0.986648	-1.438724	-0.534801
H68	H	-0.895777	-1.486633	-0.422750
H69	H	-0.964354	-1.481921	-0.357255
H70	H	-0.972199	-1.550590	-0.435679
H71	H	-1.010654	-1.166477	-0.604166
C72	C	-0.595306	-0.903694	-0.639361
C73	C	-0.588472	-0.997083	-0.632010
C74	C	-0.647341	-1.037525	-0.695045
H75	H	-0.585413	-0.885527	-0.698448
H76	H	-0.649775	-0.885956	-0.628006
H77	H	-0.534016	-1.014814	-0.643371
H78	H	-0.598373	-1.015275	-0.572936
H79	H	-0.701810	-1.019787	-0.683690
H80	H	-0.637443	-1.019352	-0.754128
H81	H	-0.642717	-1.100893	-0.690060
H82	H	-0.413973	-0.599619	-0.445021
H83	H	-0.627660	-0.745652	-0.674105
H84	H	-0.618071	-0.575826	-0.663819
H85	H	-0.422982	-1.334555	-0.879091
H86	H	-0.379965	-1.386474	-1.021057
H87	H	-0.388461	-1.376183	-1.191845
H88	H	-0.570058	-1.156935	-1.189131
H89	H	-0.613073	-1.105012	-1.047161
C90	C	-0.617672	-1.099751	-0.863436
C91	C	-0.702375	-1.113089	-0.891737
C92	C	-0.750248	-1.055599	-0.843980
H93	H	-0.602932	-1.039282	-0.874545
H94	H	-0.607438	-1.112187	-0.800727
H95	H	-0.712605	-1.100647	-0.954431
H96	H	-0.717141	-1.173546	-0.880626
H97	H	-0.740013	-1.068035	-0.781271
H98	H	-0.735500	-0.995134	-0.855093
H99	H	-0.807724	-1.064647	-0.863169
