data_functionalizedCrystal
_audit_creation_method	'MofGen! by Chris Wilmer'
_symmetry_space_group_name_H-M	'P1'
_symmetry_Int_Tables_number	1
_symmetry_cell_setting	triclinic
loop_
_symmetry_equiv_pos_as_xyz
  x,y,z
_cell_length_a	10.723022
_cell_length_b	15.021413
_cell_length_c	10.723024
_cell_angle_alpha	89.994776
_cell_angle_beta	84.467548
_cell_angle_gamma	90.007085
loop_
_atom_site_label
_atom_site_type_symbol
_atom_site_fract_x
_atom_site_fract_y
_atom_site_fract_z
O1	O	1.657196	0.074024	0.175001
O2	O	1.294044	0.074027	0.191757
O3	O	1.483997	0.074022	0.001803
O4	O	1.467244	0.074029	0.364955
O5	O	1.483967	-0.074042	0.001830
O6	O	1.294014	-0.074038	0.191784
O7	O	1.657166	-0.074040	0.175028
Zn8	Zn	1.475585	-0.097547	0.183410
Zn9	Zn	1.475625	0.097534	0.183375
O10	O	1.467213	-0.074036	0.364982
C11	C	1.247529	-0.000005	0.190551
C12	C	1.108975	-0.000004	0.186904
C13	C	1.060414	-0.000006	0.077365
C14	C	0.917211	-0.000004	0.073593
N15	N	1.475567	-0.230685	0.183434
C16	C	1.387719	-0.470366	0.271227
C17	C	1.500688	-0.529701	0.296412
C18	C	1.475599	-0.412292	0.183403
C19	C	1.362660	-0.529699	0.158246
C20	C	1.475619	-0.587716	0.183376
C21	C	1.588625	-0.470320	0.208645
C22	C	1.450523	-0.470313	0.070429
C23	C	1.563573	-0.529621	0.095567
C24	C	1.475585	-0.311235	0.183422
C25	C	1.475646	-0.688771	0.183356
C26	C	1.703681	-0.000007	0.176234
C27	C	1.842235	-0.000002	0.179881
N28	N	1.475653	0.230671	0.183341
C29	C	1.482763	-0.000009	-0.044683
C30	C	1.479115	-0.000006	-0.183238
C31	C	1.585403	-0.000006	-0.258221
C32	C	1.581635	-0.000002	-0.401424
C33	C	1.468448	-0.000003	0.411468
C34	C	1.472095	0.000000	0.550023
H35	H	0.884039	-0.000006	0.273673
H36	H	1.381100	-0.000006	-0.385552
H37	H	1.044532	0.000002	0.277893
H38	H	1.124856	-0.000003	-0.013624
H39	H	1.313478	-0.444349	0.345558
H40	H	1.521916	-0.555786	0.391940
C41	C	1.717696	-0.435242	0.237534
C42	C	1.741519	-0.334281	0.242941
C43	C	1.870585	-0.299201	0.271834
C44	C	1.975829	-0.365081	0.295321
C45	C	1.952009	-0.466048	0.289915
C46	C	1.822943	-0.501129	0.261022
H47	H	1.663608	-0.285507	0.225554
H48	H	1.888217	-0.224458	0.275836
H49	H	2.071371	-0.339113	0.316710
H50	H	2.029920	-0.514823	0.307302
H51	H	1.805311	-0.575872	0.257020
H52	H	1.385329	0.000001	-0.225059
H53	H	0.875399	0.000017	-0.020195
C54	C	1.664084	-0.564558	-0.004788
C55	C	1.802904	-0.540888	0.002654
C56	C	1.903418	-0.575827	-0.097695
C57	C	1.865112	-0.634436	-0.205484
C58	C	1.726285	-0.658109	-0.212930
C59	C	1.625772	-0.623170	-0.112582
H60	H	1.831266	-0.497500	0.082450
H61	H	2.006186	-0.558303	-0.092183
H62	H	1.939518	-0.660300	-0.279768
H63	H	1.697923	-0.701498	-0.292726
H64	H	1.523003	-0.640695	-0.118094
C65	C	1.421801	-0.435034	-0.058579
C66	C	1.296640	-0.458417	-0.110008
C67	C	1.267901	-0.423136	-0.239016
C68	C	1.364325	-0.364472	-0.316595
C69	C	1.489495	-0.341087	-0.265166
C70	C	1.518233	-0.376368	-0.136159
H71	H	1.225254	-0.501846	-0.052579
H72	H	1.175242	-0.440447	-0.277086
H73	H	1.343051	-0.338355	-0.412094
H74	H	1.560880	-0.297658	-0.322595
H75	H	1.610893	-0.359056	-0.098089
H76	H	1.267142	-0.555783	0.136981
H77	H	1.679188	-0.000012	-0.216399
H78	H	1.672625	-0.000006	-0.465857
