data_functionalizedCrystal
_audit_creation_method	'MofGen! by Chris Wilmer'
_symmetry_space_group_name_H-M	'P1'
_symmetry_Int_Tables_number	1
_symmetry_cell_setting	triclinic
loop_
_symmetry_equiv_pos_as_xyz
  x,y,z
_cell_length_a	16.992694
_cell_length_b	8.559649
_cell_length_c	16.053802
_cell_angle_alpha	92.204030
_cell_angle_beta	87.249047
_cell_angle_gamma	80.223444
loop_
_atom_site_label
_atom_site_type_symbol
_atom_site_fract_x
_atom_site_fract_y
_atom_site_fract_z
O1	O	1.023824	0.329978	-0.069320
O2	O	0.795762	0.326287	-0.069345
O3	O	0.929885	0.098096	-0.069329
O4	O	0.889700	0.558168	-0.069335
O5	O	0.922506	0.110601	0.069529
O6	O	0.788383	0.338792	0.069513
O7	O	1.016444	0.342483	0.069538
Zn8	Zn	0.901242	0.342623	0.091572
Zn9	Zn	0.910964	0.326147	-0.091379
O10	O	0.882321	0.570673	0.069523
C11	C	0.763145	0.327794	0.000081
C12	C	0.676954	0.313635	0.000072
C13	C	0.929241	0.045208	0.000098
C14	C	0.938306	-0.131015	0.000095
C15	C	0.618488	0.450242	0.000071
C16	C	0.537502	0.436931	0.000082
C17	C	0.514985	0.287010	0.000089
C18	C	0.573459	0.150392	0.000093
C19	C	0.654442	0.163706	0.000087
C20	C	0.274709	0.231830	0.000112
C21	C	0.193719	0.218527	0.000115
C22	C	0.157768	0.505067	0.000106
C23	C	0.238755	0.518367	0.000096
C24	C	0.297221	0.381749	0.000104
N25	N	0.432206	0.273399	0.000099
N26	N	0.379998	0.395362	0.000100
C27	C	1.049061	0.340975	0.000110
C28	C	1.135252	0.355134	0.000114
C29	C	0.882965	0.623562	0.000093
C30	C	0.873901	0.799784	0.000091
N31	N	0.894612	0.353867	0.216432
N32	N	0.917601	0.314891	-0.216239
C33	C	0.951698	0.256811	0.260132
C34	C	0.947067	0.264692	0.347539
C35	C	0.885353	0.369639	0.391243
C36	C	0.828261	0.466699	0.347536
C37	C	0.832890	0.458808	0.260132
C38	C	0.865138	0.404060	0.652650
C39	C	0.860515	0.411947	0.740061
C40	C	0.979321	0.209937	0.740057
C41	C	0.983946	0.202063	0.652651
C42	C	0.926852	0.299117	0.608952
N43	N	0.880619	0.377701	0.480586
N44	N	0.931583	0.291046	0.519610
H45	H	0.489901	0.548171	0.000080
H46	H	1.000384	-0.206593	0.000108
N47	N	0.642772	0.611943	0.000053
H48	H	0.593441	0.696462	0.000055
H49	H	0.672863	0.628351	0.051526
H50	H	0.322304	0.120586	0.000119
H51	H	0.702047	0.052465	0.000088
N52	N	0.771323	0.563494	0.212990
H53	H	0.742447	0.495180	0.176738
H54	H	0.731577	0.631163	0.253988
H55	H	0.811826	-0.124646	0.000087
N56	N	1.050517	0.088883	0.605517
H57	H	1.044791	0.098624	0.543516
H58	H	1.103790	0.115723	0.620795
N59	N	0.793940	0.525145	0.787190
H60	H	0.761227	0.463383	0.823467
H61	H	0.817579	0.602445	0.823393
H62	H	0.257081	0.640447	0.000080
H63	H	1.001956	0.171359	0.224554
N64	N	0.803557	0.508726	0.605524
H65	H	0.763761	0.576405	0.646476
H66	H	0.831032	0.579397	0.569245
H67	H	0.993551	0.185660	0.383119
N68	N	1.040897	0.105261	0.787189
H69	H	1.028603	0.126179	0.849191
H70	H	1.039494	-0.009764	0.771919
N71	N	0.094710	0.652411	0.000099
H72	H	0.039989	0.621235	0.000105
H73	H	0.098288	0.721936	0.051574
H74	H	0.778008	0.552143	0.383125
H75	H	0.175391	0.096437	0.000120
H76	H	0.555119	0.028324	0.000110
