data_functionalizedCrystal
_audit_creation_method	'MofGen! by Chris Wilmer'
_symmetry_space_group_name_H-M	'P1'
_symmetry_Int_Tables_number	1
_symmetry_cell_setting	triclinic
loop_
_symmetry_equiv_pos_as_xyz
  x,y,z
_cell_length_a	16.992694
_cell_length_b	16.992695
_cell_length_c	16.776229
_cell_angle_alpha	90.003575
_cell_angle_beta	90.000162
_cell_angle_gamma	90.668223
loop_
_atom_site_label
_atom_site_type_symbol
_atom_site_fract_x
_atom_site_fract_y
_atom_site_fract_z
O1	O	1.050852	0.166915	0.066189
O2	O	0.822452	0.165084	0.066213
O3	O	0.935736	0.051799	0.066195
O4	O	0.937568	0.280199	0.066207
O5	O	0.935723	0.051798	-0.066382
O6	O	0.822438	0.165083	-0.066364
O7	O	1.050838	0.166914	-0.066387
Zn8	Zn	0.936636	0.165998	-0.087425
Zn9	Zn	0.936654	0.166000	0.087250
O10	O	0.937554	0.280198	-0.066370
C11	C	0.793085	0.162727	-0.000073
C12	C	0.705600	0.155699	-0.000064
C13	C	0.933374	0.022439	-0.000093
C14	C	0.926345	-0.065046	-0.000092
C15	C	0.659610	0.223517	-0.000061
C16	C	0.577409	0.216908	-0.000072
C17	C	0.541201	0.142480	-0.000081
C18	C	0.587198	0.074657	-0.000086
C19	C	0.669397	0.081267	-0.000081
C20	C	0.295886	0.115086	-0.000104
C21	C	0.213681	0.108481	-0.000107
C22	C	0.203898	0.250732	-0.000094
C23	C	0.286099	0.257336	-0.000084
C24	C	0.332089	0.189512	-0.000094
N25	N	0.457178	0.135723	-0.000090
N26	N	0.416110	0.196270	-0.000090
C27	C	0.994163	-0.111037	-0.000100
C28	C	0.987554	-0.193238	-0.000092
C29	C	0.913127	-0.229446	-0.000082
C30	C	0.845303	-0.183449	-0.000071
C31	C	0.851913	-0.101250	-0.000074
C32	C	0.885732	-0.474760	-0.000068
C33	C	0.879127	-0.556966	-0.000068
C34	C	1.021379	-0.566749	-0.000087
C35	C	1.027982	-0.484547	-0.000094
C36	C	0.960159	-0.438558	-0.000080
N37	N	0.906369	-0.313468	-0.000076
N38	N	0.966917	-0.354537	-0.000080
C39	C	1.080205	0.169270	-0.000100
C40	C	1.167690	0.176299	-0.000104
C41	C	0.939917	0.309559	-0.000080
C42	C	0.946945	0.397044	-0.000076
N43	N	0.936630	0.165997	-0.206636
C44	C	0.987362	0.216762	-0.248352
C45	C	0.987370	0.216759	-0.331805
C46	C	0.936642	0.165995	-0.373539
C47	C	0.885908	0.115225	-0.331817
C48	C	0.885904	0.115224	-0.248367
C49	C	0.885924	0.115227	-0.668365
C50	C	0.885930	0.115233	-0.751821
C51	C	0.987390	0.216762	-0.751802
C52	C	0.987386	0.216761	-0.668352
C53	C	0.936655	0.165988	-0.626637
C54	C	0.936647	0.165990	-0.536149
C55	C	0.936645	0.165997	-0.464026
N56	N	0.936667	0.165995	0.206461
H57	H	0.689084	0.284124	-0.000053
Br58	Br	1.095177	-0.061905	-0.000126
H59	H	0.706842	0.026042	-0.000083
Br60	Br	0.817044	0.046351	-0.611762
Br61	Br	0.817065	0.046327	-0.388456
Br62	Br	1.079597	-0.255651	-0.000102
Br63	Br	0.744293	-0.232588	-0.000044
H64	H	1.088589	-0.455073	-0.000103
Br65	Br	0.778112	-0.606105	-0.000062
Br66	Br	0.759871	-0.038832	-0.000057
Br67	Br	1.113419	-0.629167	-0.000106
Br68	Br	0.793686	-0.412356	-0.000043
H69	H	0.184203	0.047870	-0.000113
Br70	Br	1.056208	0.285662	-0.191721
Br71	Br	1.056224	0.285657	-0.388416
H72	H	0.333322	0.059859	-0.000112
H73	H	1.028691	0.258101	-0.634376
H74	H	1.028700	0.258102	-0.785776
H75	H	0.844619	0.073892	-0.785799
Br76	Br	0.817061	0.046315	-0.191751
Br77	Br	0.514995	0.308951	-0.000065
H78	H	0.315574	0.317942	-0.000068
Br79	Br	0.538059	-0.026353	-0.000106
H80	H	0.166444	0.305950	-0.000088
