data_functionalizedCrystal
_audit_creation_method	'MofGen! by Chris Wilmer'
_symmetry_space_group_name_H-M	'P1'
_symmetry_Int_Tables_number	1
_symmetry_cell_setting	triclinic
loop_
_symmetry_equiv_pos_as_xyz
  x,y,z
_cell_length_a	15.538191
_cell_length_b	10.540539
_cell_length_c	14.185569
_cell_angle_alpha	76.712172
_cell_angle_beta	97.875798
_cell_angle_gamma	65.898793
loop_
_atom_site_label
_atom_site_type_symbol
_atom_site_fract_x
_atom_site_fract_y
_atom_site_fract_z
O1	O	1.226032	-0.372482	-0.083440
O2	O	0.952757	-0.226369	-0.083435
O3	O	1.095630	-0.487082	-0.083436
O4	O	1.083160	-0.111770	-0.083439
O5	O	1.137835	-0.564092	0.083398
O6	O	0.994963	-0.303380	0.083399
O7	O	1.268238	-0.449492	0.083395
Cu8	Cu	1.135454	-0.383468	0.098630
Cu9	Cu	1.085541	-0.292394	-0.098671
O10	O	1.125366	-0.188780	0.083396
C11	C	0.938868	-0.249587	-0.000017
C12	C	0.834601	-0.204052	-0.000016
C13	C	1.115797	-0.572447	-0.000021
C14	C	1.112998	-0.712069	-0.000026
C15	C	0.543764	-0.656437	-0.000029
C16	C	0.445786	-0.613616	-0.000030
C17	C	0.424963	-0.372762	-0.000031
C18	C	0.522942	-0.415565	-0.000025
C19	C	0.582335	-0.557403	-0.000025
C20	C	0.561514	-0.316531	-0.000021
C21	C	0.659483	-0.359329	-0.000021
C22	C	0.718881	-0.501160	-0.000024
C23	C	0.680305	-0.600201	-0.000024
C24	C	0.502117	-0.174690	-0.000029
C25	C	0.540689	-0.075657	-0.000025
C26	C	0.638662	-0.118457	-0.000017
C27	C	0.698060	-0.260288	-0.000020
C28	C	0.677238	-0.019416	-0.000016
C29	C	0.775208	-0.062213	-0.000016
C30	C	0.796029	-0.303085	-0.000020
C31	C	1.005700	-0.844617	-0.000399
C32	C	1.008631	-0.699513	-0.000023
C33	C	1.187326	-0.841460	0.095243
C34	C	1.183784	-0.986357	0.095324
C35	C	1.137911	-0.900304	-0.094398
C36	C	1.138553	-0.753195	-0.095658
C37	C	1.282127	-0.426273	-0.000025
C38	C	1.386392	-0.471806	-0.000033
C39	C	1.105198	-0.103414	-0.000022
C40	C	1.107995	0.036211	-0.000023
N41	N	1.170567	-0.447528	0.237401
N42	N	1.050435	-0.228347	-0.237441
C43	C	0.947273	-0.040193	0.605053
C44	C	0.973877	-0.088712	0.710074
C45	C	1.100417	-0.319521	0.710034
C46	C	1.073820	-0.271023	0.605010
C47	C	0.997248	-0.131358	0.552528
C48	C	1.123795	-0.362188	0.552486
C49	C	1.097203	-0.313691	0.447472
C50	C	1.020636	-0.174029	0.394982
C51	C	0.970656	-0.082861	0.447514
C52	C	1.200371	-0.501850	0.604970
C53	C	1.250346	-0.593015	0.552446
C54	C	1.223751	-0.544522	0.447429
C55	C	1.147184	-0.404860	0.394940
C56	C	1.273731	-0.635691	0.394898
C57	C	1.247139	-0.587194	0.289883
C58	C	1.120592	-0.356363	0.289925
H59	H	0.844393	-0.418587	-0.000014
H60	H	1.083974	-0.662421	-0.166136
O61	O	0.978862	-0.661108	0.090604
H62	H	0.903731	-0.647674	0.087294
H63	H	0.951834	-0.606693	-0.068316
O64	O	0.888039	0.067759	0.390902
H65	H	0.877936	0.086149	0.309055
O66	O	1.237421	-0.765278	-0.103280
H67	H	1.253150	-0.794402	-0.171546
H68	H	1.213133	-0.982890	-0.095040
O69	O	0.744383	-0.753188	-0.000014
H70	H	0.713383	-0.771347	-0.068014
H71	H	0.414386	-0.694271	-0.000034
O72	O	1.229063	-0.554171	0.718237
H73	H	1.165801	-0.554967	0.745949
H74	H	1.058233	-0.242639	0.247192
O75	O	0.991944	-0.121721	0.281715
H76	H	1.055211	-0.120958	0.253998
H77	H	1.162765	-0.433236	0.752777
O78	O	1.068971	-0.876765	-0.190053
H79	H	1.012609	-0.910056	-0.171392
H80	H	0.628864	0.096074	-0.000026
O81	O	0.864682	0.110448	0.548432
H82	H	0.834396	0.165703	0.602596
H83	H	0.981827	-0.886763	0.067539
H84	H	1.164681	-1.029873	0.166541
O85	O	0.919967	0.009616	0.766731
H86	H	0.862252	0.114874	0.712590
H87	H	1.312695	-0.706730	0.595189
H88	H	0.422344	-0.139848	-0.000032
O89	O	1.356320	-0.786323	0.451506
H90	H	1.366413	-0.804730	0.533354
H91	H	1.259937	-1.071823	0.099645
H92	H	0.798651	-0.535997	-0.000037
H93	H	1.264866	-0.856993	0.098784
O94	O	1.301030	-0.685517	0.233220
H95	H	1.358734	-0.790789	0.287356
O96	O	0.360901	-0.219793	-0.000016
H97	H	0.298560	-0.163136	-0.068008
O98	O	0.476627	0.077313	-0.000010
H99	H	0.414285	0.133970	-0.068002
O100	O	0.816821	0.044591	0.000001
H101	H	0.775822	0.141956	-0.067990
O102	O	0.928194	-0.814913	-0.090891
H103	H	0.895161	-0.697794	-0.136691
O104	O	1.164879	-0.806531	0.189161
H105	H	1.089757	-0.789954	0.190106
H106	H	0.592127	-0.771939	-0.000023
