data_functionalizedCrystal
_audit_creation_method	'MofGen! by Chris Wilmer'
_symmetry_space_group_name_H-M	'P1'
_symmetry_Int_Tables_number	1
_symmetry_cell_setting	triclinic
loop_
_symmetry_equiv_pos_as_xyz
  x,y,z
_cell_length_a	17.019282
_cell_length_b	27.731996
_cell_length_c	16.098678
_cell_angle_alpha	92.714437
_cell_angle_beta	83.404766
_cell_angle_gamma	83.006485
loop_
_atom_site_label
_atom_site_type_symbol
_atom_site_fract_x
_atom_site_fract_y
_atom_site_fract_z
O1	O	1.046209	0.061368	-0.005792
O2	O	0.815597	0.069745	0.010756
O3	O	0.938087	-0.004831	0.001949
O4	O	0.923718	0.135944	0.003016
O5	O	0.945206	-0.009173	-0.137073
O6	O	0.822715	0.065403	-0.128266
O7	O	1.053327	0.057026	-0.144814
Zn8	Zn	0.939152	0.060525	-0.158612
Zn9	Zn	0.929772	0.066246	0.024555
O10	O	0.930837	0.131602	-0.136006
C11	C	0.789662	0.067343	-0.056639
C12	C	0.701779	0.066650	-0.050333
C13	C	0.664377	0.063956	-0.123154
C14	C	0.581804	0.063297	-0.117232
C15	C	0.536634	0.065335	-0.038488
C16	C	0.574042	0.068027	0.034338
C17	C	0.656614	0.068683	0.028415
C18	C	0.287125	0.063470	-0.016814
C19	C	0.204546	0.062815	-0.010896
C20	C	0.212315	0.058084	-0.162466
C21	C	0.294888	0.058743	-0.168382
C22	C	0.332289	0.061433	-0.095556
C23	C	0.452230	0.064662	-0.032433
C24	C	0.416692	0.062102	-0.101613
C25	C	0.941352	-0.025010	-0.067544
C26	C	0.940463	-0.078668	-0.067489
C27	C	0.930988	-0.409025	0.008734
C28	C	0.927611	-0.610688	0.008991
O29	O	0.923840	-0.634747	0.073474
N30	N	0.931072	-0.638273	-0.066759
C31	C	0.935372	-0.615438	-0.142578
O32	O	0.938231	-0.643527	-0.207002
C33	C	0.938743	-0.413776	-0.142834
C34	C	0.935290	-0.386194	-0.067079
C35	C	0.927534	-0.381444	0.084483
C36	C	0.928382	-0.331031	0.084417
C37	C	0.932685	-0.308200	0.008604
C38	C	0.936138	-0.335782	-0.067145
C39	C	0.943038	-0.390941	-0.218652
C40	C	0.943878	-0.340522	-0.218709
C41	C	0.940425	-0.312941	-0.142954
C42	C	0.941289	-0.262538	-0.143024
N43	N	0.937828	-0.234954	-0.067274
C44	C	0.933526	-0.257785	0.008540
C45	C	0.933604	-0.721314	-0.142439
C46	C	0.932763	-0.771730	-0.142375
C47	C	0.925000	-0.766976	0.009195
C48	C	0.925847	-0.716560	0.009130
C49	C	0.930143	-0.693730	-0.066689
C50	C	0.935309	-0.151915	0.008397
C51	C	0.936161	-0.101499	0.008325
C52	C	0.943919	-0.106257	-0.143244
C53	C	0.943072	-0.156669	-0.143173
C54	C	0.938763	-0.179497	-0.067345
O55	O	0.945050	-0.238447	-0.207472
O56	O	0.930651	-0.229686	0.072955
C57	C	0.930139	-0.459438	0.008800
C58	C	0.933593	-0.487019	-0.066949
C59	C	0.937895	-0.464188	-0.142762
C60	C	0.932752	-0.537434	-0.066885
C61	C	0.928449	-0.560265	0.008929
C62	C	0.924988	-0.532681	0.084679
C63	C	0.925837	-0.482269	0.084613
C64	C	0.941356	-0.491773	-0.218512
C65	C	0.940509	-0.542185	-0.218441
C66	C	0.936206	-0.565016	-0.142627
C67	C	1.079262	0.059428	-0.077417
C68	C	1.167144	0.060121	-0.083717
C69	C	0.927572	0.151781	-0.066512
C70	C	0.928460	0.205439	-0.066561
N71	N	0.945558	0.056621	-0.283620
C72	C	0.893559	0.088262	-0.323486
C73	C	0.898064	0.085528	-0.410997
C74	C	0.954565	0.051151	-0.458640
C75	C	1.006571	0.019508	-0.418768
C76	C	1.002069	0.022244	-0.331259
C77	C	0.970875	0.041240	-0.723057
C78	C	0.975372	0.038505	-0.810572
C79	C	0.866865	0.104527	-0.802795
C80	C	0.862365	0.107258	-0.715284
C81	C	0.914373	0.075617	-0.675420
C82	C	0.959170	0.048355	-0.548091
C83	C	0.909772	0.078415	-0.585971
N84	N	0.923372	0.070147	0.149562
H85	H	0.551357	0.061095	-0.176530
H86	H	0.687065	0.070878	0.087713
H87	H	0.931796	-0.170495	0.070144
H88	H	0.415443	0.066322	0.031680
H89	H	0.816357	0.135251	-0.676495
Br90	Br	1.072648	-0.020697	-0.277154
H91	H	0.863771	0.106407	-0.547178
Br92	Br	0.949707	-0.309541	-0.321611
Br93	Br	0.477996	0.059333	-0.208475
Br94	Br	0.931479	-0.064070	0.111141
Br95	Br	1.035850	0.001700	-0.612752
H96	H	0.924027	-0.400027	0.146223
H97	H	0.824524	0.130288	-0.835261
Br98	Br	0.143242	0.065585	0.095977
H99	H	0.331661	0.057081	-0.232504
H100	H	0.847546	0.116254	-0.284701
Br101	Br	0.919158	-0.797970	0.112085
Br102	Br	0.827494	0.128473	-0.465105
H103	H	0.925567	-0.308578	0.146105
H104	H	0.701149	0.062300	-0.187275
Br105	Br	1.052056	-0.008157	-0.875225
H106	H	0.923034	-0.694106	0.070816
Br107	Br	0.161552	0.054432	-0.261296
Br108	Br	1.083259	-0.027145	-0.483423
Br109	Br	0.337873	0.067120	0.082022
H110	H	0.537258	0.069683	0.098452
H111	H	0.937106	-0.702731	-0.204183
Br112	Br	0.937469	-0.809157	-0.245190
Br113	Br	0.947722	-0.428361	-0.321468
Br114	Br	0.947777	-0.194104	-0.245984
Br115	Br	0.949760	-0.075262	-0.246129
H116	H	0.923024	-0.459816	0.146300
H117	H	0.943327	-0.564638	-0.280135
H118	H	0.921489	-0.551279	0.146409
H119	H	0.944861	-0.473189	-0.280250
H120	H	1.013221	0.015476	-0.690606
