data_functionalizedCrystal
_audit_creation_method	'MofGen! by Chris Wilmer'
_symmetry_space_group_name_H-M	'P1'
_symmetry_Int_Tables_number	1
_symmetry_cell_setting	triclinic
loop_
_symmetry_equiv_pos_as_xyz
  x,y,z
_cell_length_a	18.050591
_cell_length_b	19.120786
_cell_length_c	18.050582
_cell_angle_alpha	92.465003
_cell_angle_beta	90.020922
_cell_angle_gamma	92.460873
loop_
_atom_site_label
_atom_site_type_symbol
_atom_site_fract_x
_atom_site_fract_y
_atom_site_fract_z
Zn1	Zn	1.122689	-0.279748	0.407398
Zn2	Zn	1.117309	-0.397198	0.277904
Zn3	Zn	0.998508	-0.279751	0.283209
Zn4	Zn	0.993167	-0.397160	0.402042
O5	O	1.057918	-0.338464	0.342638
O6	O	1.225899	-0.295342	0.390242
O7	O	1.101533	-0.381635	0.174683
O8	O	1.019469	-0.181461	0.304145
O9	O	1.221946	-0.381632	0.295104
O10	O	1.110704	-0.181458	0.395386
O11	O	1.014251	-0.295347	0.178580
O12	O	0.893876	-0.295311	0.298951
O13	O	1.010365	-0.381569	0.506677
O14	O	0.889951	-0.381571	0.386256
O15	O	1.105524	-0.295306	0.510613
O16	O	1.096354	-0.495482	0.289909
O17	O	1.005147	-0.495455	0.381112
C18	C	0.864967	-0.338438	0.342598
C19	C	0.782421	-0.338444	0.342598
C20	C	1.049607	-0.520954	0.334370
C21	C	1.046119	-0.599024	0.330858
C22	C	0.585086	-0.291481	0.295238
C23	C	0.532780	-0.355544	0.274069
C24	C	0.631290	-0.338465	0.342631
C25	C	0.536513	-0.274424	0.363797
C26	C	0.485304	-0.338480	0.342661
C27	C	0.580070	-0.402562	0.321425
C28	C	0.583809	-0.321399	0.411186
C29	C	0.531524	-0.385506	0.390041
C30	C	0.715389	-0.338455	0.342612
C31	C	0.401207	-0.338497	0.342680
C32	C	1.091947	-0.635640	0.376751
C33	C	1.088667	-0.708995	0.373452
C34	C	1.039563	-0.745733	0.324256
C35	C	0.993730	-0.709112	0.278361
C36	C	0.997007	-0.635758	0.281664
C37	C	1.027291	-0.967217	0.311907
C38	C	1.024019	-1.040576	0.308606
C39	C	1.118955	-1.040454	0.403698
C40	C	1.122231	-0.967099	0.406994
C41	C	1.076395	-0.930484	0.361102
C42	C	1.036210	-0.820713	0.320881
C43	C	1.079744	-0.855505	0.364481
C44	C	1.251623	-0.338491	0.342679
C45	C	1.334168	-0.338502	0.342696
C46	C	1.057949	-0.338433	0.536345
C47	C	1.057962	-0.338420	0.618892
C48	C	1.066282	-0.155262	0.350955
C49	C	1.069846	-0.077191	0.354499
C50	C	1.057933	-0.338444	0.149687
C51	C	1.058073	-0.338260	0.067150
C52	C	1.006255	-0.385265	0.816205
C53	C	1.073236	-0.402439	0.864828
C54	C	1.058001	-0.338366	0.770025
C55	C	0.991057	-0.321173	0.868484
C56	C	1.058032	-0.338316	0.916012
C57	C	1.125016	-0.355573	0.817559
C58	C	1.042793	-0.274278	0.821212
C59	C	1.109822	-0.291427	0.869814
C60	C	1.057981	-0.338397	0.685925
C61	C	1.058059	-0.338285	1.000110
H62	H	0.608531	-0.251791	0.255112
H63	H	0.962532	-0.424978	0.792735
H64	H	0.996232	-0.850634	0.280823
H65	H	1.156270	-1.070273	0.441062
H66	H	0.934431	-0.306652	0.890828
O67	O	1.088481	-0.467111	0.887768
C68	C	1.033790	-0.516430	0.860376
H69	H	0.980986	-0.488495	0.847770
H70	H	1.021537	-0.556958	0.903736
H71	H	1.054620	-0.543716	0.807474
O72	O	1.192534	-0.372996	0.790890
C73	C	1.191698	-0.372824	0.712792
H74	H	1.132156	-0.380634	0.691985
H75	H	1.226122	-0.417145	0.689227
H76	H	1.216139	-0.320558	0.694011
H77	H	0.606217	-0.306933	0.469133
H78	H	1.029890	-0.220116	0.801941
H79	H	0.953745	-0.739029	0.238308
O80	O	0.506104	-0.372663	0.204882
C81	C	0.533482	-0.323000	0.155069
H82	H	0.549679	-0.271894	0.187003
H83	H	0.488713	-0.313102	0.112674
H84	H	0.584192	-0.343847	0.125248
H85	H	1.153644	-0.251744	0.893146
O86	O	0.952461	-0.600296	0.237010
C87	C	0.908403	-0.648449	0.192894
H88	H	0.936490	-0.700715	0.187994
H89	H	0.901458	-0.627286	0.135328
H90	H	0.851635	-0.656282	0.219684
O91	O	0.976210	-1.076235	0.260898
C92	C	0.902979	-1.058354	0.277849
H93	H	0.900093	-1.038160	0.338082
H94	H	0.864144	-1.106630	0.269246
H95	H	0.885484	-1.015815	0.239926
H96	H	1.131936	-0.605733	0.416808
O97	O	0.603020	-0.467150	0.299983
C98	C	0.681162	-0.466359	0.300215
H99	H	0.704143	-0.410375	0.294582
H100	H	0.701142	-0.500775	0.251746
H101	H	0.701389	-0.487289	0.354502
H102	H	1.119722	-0.825591	0.404539
O103	O	0.503733	-0.433061	0.437779
C104	C	0.525983	-0.500472	0.415219
H105	H	0.539680	-0.501725	0.353542
H106	H	0.479100	-0.540645	0.425803
H107	H	0.577158	-0.513556	0.448070
H108	H	0.517245	-0.220266	0.381661
H109	H	1.125990	-0.738805	0.410817
H110	H	0.989971	-0.937411	0.274539
O111	O	1.169952	-0.931522	0.454846
C112	C	1.209715	-0.979571	0.494630
H113	H	1.176956	-1.031880	0.494824
H114	H	1.218556	-0.958338	0.554104
H115	H	1.265784	-0.987348	0.467134
