data_functionalizedCrystal
_audit_creation_method	'MofGen! by Chris Wilmer'
_symmetry_space_group_name_H-M	'P1'
_symmetry_Int_Tables_number	1
_symmetry_cell_setting	triclinic
loop_
_symmetry_equiv_pos_as_xyz
  x,y,z
_cell_length_a	17.699083
_cell_length_b	27.732048
_cell_length_c	16.776229
_cell_angle_alpha	89.988391
_cell_angle_beta	89.998886
_cell_angle_gamma	82.962835
loop_
_atom_site_label
_atom_site_type_symbol
_atom_site_fract_x
_atom_site_fract_y
_atom_site_fract_z
O1	O	1.003540	0.061127	-0.066185
O2	O	1.503540	0.561127	0.433815
O3	O	0.783091	0.069080	-0.066212
O4	O	1.283091	0.569080	0.433788
O5	O	0.900162	-0.005269	-0.066183
O6	O	1.400162	0.494731	0.433817
O7	O	0.886469	0.135475	-0.066215
O8	O	1.386469	0.635475	0.433785
O9	O	0.900147	-0.005273	0.066394
O10	O	1.400147	0.494727	0.566394
O11	O	0.783076	0.069075	0.066364
O12	O	1.283076	0.569075	0.566364
O13	O	1.003524	0.061122	0.066391
O14	O	1.503524	0.561122	0.566391
Zn15	Zn	0.893298	0.065098	0.087427
Zn16	Zn	1.393298	0.565098	0.587427
Zn17	Zn	0.893318	0.065104	-0.087248
Zn18	Zn	1.393318	0.565104	0.412752
O19	O	0.886453	0.135471	0.066362
O20	O	1.386453	0.635471	0.566362
C21	C	0.754889	0.068792	0.000073
C22	C	1.254889	0.568792	0.500073
C23	C	0.670878	0.067938	0.000063
C24	C	1.170878	0.567938	0.500063
C25	C	0.899867	-0.023279	0.000108
C26	C	1.399867	0.476721	0.500108
C27	C	0.899001	-0.076937	0.000114
C28	C	1.399001	0.423063	0.500114
C29	C	0.621873	0.111579	0.000053
C30	C	1.121873	0.611579	0.500053
C31	C	0.542936	0.110772	0.000064
C32	C	1.042936	0.610772	0.500064
C33	C	0.513007	0.066325	0.000078
C34	C	1.013007	0.566325	0.500078
C35	C	0.562019	0.022680	0.000090
C36	C	1.062019	0.522680	0.500090
C37	C	0.640954	0.023487	0.000085
C38	C	1.140954	0.523487	0.500085
C39	C	0.243685	0.019426	0.000111
C40	C	0.743685	0.519426	0.500111
C41	C	0.164744	0.018623	0.000113
C42	C	0.664744	0.518623	0.500113
C43	C	0.145667	0.106712	0.000089
C44	C	0.645667	0.606712	0.500089
C45	C	0.224602	0.107518	0.000084
C46	C	0.724602	0.607518	0.500084
C47	C	0.273607	0.063874	0.000100
C48	C	0.773607	0.563874	0.500100
C49	C	0.359199	0.064749	0.000090
C50	C	0.859199	0.564749	0.500090
C51	C	0.427418	0.065450	0.000082
C52	C	0.927418	0.565450	0.500082
C53	C	0.962734	-0.415523	0.000081
C54	C	1.462734	0.084477	0.500081
C55	C	0.959522	-0.617194	0.000070
C56	C	1.459522	-0.117194	0.500070
O57	O	1.017801	-0.648240	0.000042
O58	O	1.517801	-0.148240	0.500042
N59	N	0.890104	-0.636567	0.000062
N60	N	1.390104	-0.136567	0.500062
C61	C	0.821484	-0.605520	0.000051
C62	C	1.321484	-0.105520	0.500051
O63	O	0.762366	-0.626625	0.000036
O64	O	1.262366	-0.126625	0.500036
C65	C	0.824696	-0.403849	0.000057
C66	C	1.324696	0.096151	0.500057
C67	C	0.894119	-0.384479	0.000073
C68	C	1.394119	0.115521	0.500073
C69	C	1.032151	-0.396152	0.000096
C70	C	1.532151	0.103848	0.500096
C71	C	1.032953	-0.345737	0.000103
C72	C	1.532953	0.154263	0.500103
C73	C	0.964338	-0.314693	0.000095
C74	C	1.464338	0.185307	0.500095
C75	C	0.894921	-0.334064	0.000080
C76	C	1.394921	0.165936	0.500080
C77	C	0.756076	-0.372802	0.000041
C78	C	1.256076	0.127198	0.500041
C79	C	0.756886	-0.322382	0.000041
C80	C	1.256886	0.177618	0.500041
C81	C	0.826308	-0.303012	0.000057
C82	C	1.326308	0.196988	0.500057
C83	C	0.827108	-0.252605	0.000080
C84	C	1.327108	0.247395	0.500080
N85	N	0.896526	-0.233232	0.000088
N86	N	1.396526	0.266768	0.500088
C87	C	0.965141	-0.264276	0.000095
C88	C	1.465141	0.235724	0.500095
C89	C	0.819802	-0.711400	0.000050
C90	C	1.319802	-0.211400	0.500050
C91	C	0.818999	-0.761817	0.000050
C92	C	1.318999	-0.261817	0.500050
C93	C	0.957038	-0.773488	0.000067
C94	C	1.457038	-0.273488	0.500067
C95	C	0.957840	-0.723070	0.000072
C96	C	1.457840	-0.223070	0.500072
C97	C	0.889220	-0.692026	0.000058
C98	C	1.389220	-0.192026	0.500058
C99	C	0.966820	-0.158401	0.000111
C100	C	1.466820	0.341599	0.500111
C101	C	0.967616	-0.107981	0.000122
C102	C	1.467616	0.392019	0.500122
C103	C	0.829578	-0.096314	0.000101
C104	C	1.329578	0.403686	0.500101
C105	C	0.828781	-0.146730	0.000095
C106	C	1.328781	0.353270	0.500095
C107	C	0.897409	-0.177772	0.000097
C108	C	1.397409	0.322228	0.500097
O109	O	0.768860	-0.221531	0.000099
O110	O	1.268860	0.278469	0.500099
O111	O	1.024251	-0.243161	0.000093
O112	O	1.524251	0.256839	0.500093
C113	C	0.961931	-0.465938	0.000074
C114	C	1.461931	0.034062	0.500074
C115	C	0.892514	-0.485309	0.000059
C116	C	1.392514	0.014691	0.500059
C117	C	0.823899	-0.454265	0.000051
C118	C	1.323899	0.045735	0.500051
C119	C	0.891711	-0.535726	0.000059
C120	C	1.391711	-0.035726	0.500059
C121	C	0.960326	-0.566770	0.000067
C122	C	1.460326	-0.066770	0.500067
C123	C	1.029744	-0.547397	0.000074
C124	C	1.529744	-0.047397	0.500074
C125	C	1.030546	-0.496982	0.000082
C126	C	1.530546	0.003018	0.500082
C127	C	0.754481	-0.473638	0.000043
C128	C	1.254481	0.026362	0.500043
C129	C	0.753685	-0.524053	0.000037
C130	C	1.253685	-0.024053	0.500037
C131	C	0.822300	-0.555097	0.000045
C132	C	1.322300	-0.055097	0.500045
C133	C	1.031726	0.061410	0.000105
C134	C	1.531726	0.561410	0.500105
C135	C	1.115737	0.062264	0.000109
C136	C	1.615737	0.562264	0.500109
C137	C	0.886748	0.153481	0.000069
C138	C	1.386748	0.653481	0.500069
C139	C	0.887614	0.207139	0.000058
C140	C	1.387614	0.707139	0.500058
N141	N	0.893289	0.065094	0.206638
N142	N	1.393289	0.565094	0.706638
N143	N	0.893332	0.065105	-0.206459
N144	N	1.393332	0.565105	0.293541
C145	C	0.945144	0.032186	0.248368
C146	C	1.445144	0.532186	0.748368
C147	C	0.945148	0.032185	0.331821
C148	C	1.445148	0.532185	0.831821
C149	C	0.893301	0.065095	0.373541
C150	C	1.393301	0.565095	0.873541
C151	C	0.841441	0.098005	0.331805
C152	C	1.341441	0.598005	0.831805
C153	C	0.841433	0.098003	0.248354
C154	C	1.341433	0.598003	0.748354
C155	C	0.841468	0.098015	0.668352
C156	C	1.341468	0.598015	1.168352
C157	C	0.841481	0.098015	0.751809
C158	C	1.341481	0.598015	1.251809
C159	C	0.945182	0.032197	0.751819
C160	C	1.445182	0.532197	1.251819
C161	C	0.945175	0.032195	0.668368
C162	C	1.445175	0.532195	1.168368
C163	C	0.893313	0.065102	0.626639
C164	C	1.393313	0.565102	1.126639
C165	C	0.893308	0.065102	0.536151
C166	C	1.393308	0.565102	1.036151
C167	C	0.893309	0.065099	0.464028
C168	C	1.393309	0.565099	0.964028
H169	H	0.646234	0.147773	0.000041
H170	H	1.146234	0.647773	0.500041
C171	C	0.990523	-0.051537	0.642871
C172	C	1.490523	0.448463	1.142871
C173	C	1.002164	-0.004024	0.622587
C174	C	1.502164	0.495976	1.122587
H175	H	1.025702	-0.073910	0.614628
H176	H	1.525702	0.426090	1.114628
H177	H	0.997905	-0.056198	0.698552
H178	H	1.497905	0.443802	1.198552
H179	H	0.940070	-0.056725	0.629177
H180	H	1.440070	0.443275	1.129177
H181	H	1.052616	0.001166	0.636287
H182	H	1.552616	0.501166	1.136287
H183	H	0.994789	0.000639	0.566894
H184	H	1.494789	0.500639	1.066894
H185	H	0.987371	0.005389	0.365797
H186	H	1.487371	0.505389	0.865797
C187	C	0.824277	0.163819	0.845630
C188	C	1.324277	0.663819	1.345630
C189	C	0.784481	0.134191	0.797669
C190	C	1.284481	0.634191	1.297669
H191	H	0.789088	0.186152	0.873937
H192	H	1.289088	0.686152	1.373937
H193	H	0.855158	0.144221	0.882421
H194	H	1.355158	0.644221	1.382421
H195	H	0.855564	0.181182	0.813053
H196	H	1.355564	0.681182	1.313053
H197	H	0.753198	0.116825	0.830246
H198	H	1.253198	0.616825	1.330246
H199	H	0.753587	0.153791	0.760873
H200	H	1.253587	0.653791	1.260873
H201	H	0.680855	-0.012050	0.000093
H202	H	1.180855	0.487950	0.500093
H203	H	0.248965	0.143712	0.000069
H204	H	0.748965	0.643712	0.500069
H205	H	0.799241	0.124810	0.634383
H206	H	1.299241	0.624810	1.134383
H207	H	0.503039	0.146309	0.000055
H208	H	1.003039	0.646309	0.500055
H209	H	0.105758	0.142249	0.000080
H210	H	0.605758	0.642249	0.500080
C211	C	0.191527	-0.068376	0.000156
C212	C	0.691527	0.431624	0.500156
C213	C	0.131845	-0.030238	0.000137
C214	C	0.631845	0.469762	0.500137
H215	H	0.171214	-0.098538	0.000175
H216	H	0.671214	0.401462	0.500175
H217	H	0.221916	-0.066233	-0.046076
H218	H	0.721916	0.433767	0.453924
H219	H	0.221918	-0.066225	0.046390
H220	H	0.721918	0.433775	0.546390
H221	H	0.101457	-0.032386	-0.046100
H222	H	0.601457	0.467614	0.453900
H223	H	0.101443	-0.032382	0.046373
H224	H	0.601443	0.467618	0.546373
C225	C	0.962393	-0.033607	0.845684
C226	C	1.462393	0.466393	1.345684
C227	C	1.002184	-0.003982	0.797690
C228	C	1.502184	0.496018	1.297690
H229	H	0.997584	-0.055942	0.873997
H230	H	1.497584	0.444058	1.373997
H231	H	0.931523	-0.014007	0.882470
H232	H	1.431523	0.485993	1.382470
H233	H	0.931096	-0.050968	0.813129
H234	H	1.431096	0.449032	1.313129
H235	H	1.033477	0.013382	0.830246
H236	H	1.533477	0.513382	1.330246
H237	H	1.033067	-0.023584	0.760900
H238	H	1.533067	0.476416	1.260900
C239	C	0.795409	0.127238	0.459723
C240	C	1.295409	0.627238	0.959723
C241	C	0.784450	0.134182	0.377663
C242	C	1.284450	0.634182	0.877663
H243	H	0.760228	0.149577	0.488030
H244	H	1.260228	0.649577	0.988030
H245	H	0.787568	0.094989	0.473412
H246	H	1.287568	0.594989	0.973412
H247	H	0.845862	0.132448	0.473380
H248	H	1.345862	0.632448	0.973380
H249	H	0.733999	0.128969	0.364004
H250	H	1.233999	0.628969	0.864004
H251	H	0.792285	0.166439	0.363968
H252	H	1.292285	0.666439	0.863968
H253	H	0.773714	-0.071029	0.000098
H254	H	1.273714	0.428971	0.500098
H255	H	1.024151	-0.092213	0.000137
H256	H	1.524151	0.407787	0.500137
H257	H	0.283576	-0.016112	0.000125
H258	H	0.783576	0.483888	0.500125
H259	H	0.762468	-0.777584	0.000051
H260	H	1.262468	-0.277584	0.500051
C261	C	0.738932	0.163068	0.256721
C262	C	1.238932	0.663068	0.756721
C263	C	0.784437	0.134179	0.202481
C264	C	1.284437	0.634179	0.702481
H265	H	0.703746	0.185403	0.228400
H266	H	1.203746	0.685403	0.728400
H267	H	0.711950	0.142970	0.289280
H268	H	1.211950	0.642970	0.789280
H269	H	0.770242	0.180430	0.289260
H270	H	1.270242	0.680430	0.789260
H271	H	0.753127	0.116814	0.169946
H272	H	1.253127	0.616814	0.669946
H273	H	0.811421	0.154279	0.169909
H274	H	1.311421	0.654279	0.669909
H275	H	1.087078	-0.481215	0.000094
H276	H	1.587078	0.018785	0.500094
C277	C	0.449491	-0.017671	0.000101
C278	C	0.949491	0.482329	0.500101
C279	C	0.529123	-0.026178	0.000105
C280	C	1.029123	0.473822	0.500105
H281	H	0.429185	-0.047836	0.000103
H282	H	0.929185	0.452164	0.500103
H283	H	0.432640	0.000289	0.046327
H284	H	0.932640	0.500289	0.546327
H285	H	0.432642	0.000296	-0.046138
H286	H	0.932642	0.500296	0.453862
H287	H	0.545973	-0.044142	0.046347
H288	H	1.045973	0.455858	0.546347
H289	H	0.545982	-0.044146	-0.046126
H290	H	1.045982	0.455854	0.453874
H291	H	0.701006	-0.297108	0.000028
H292	H	1.201006	0.202892	0.500028
H293	H	1.089484	-0.329971	0.000113
H294	H	1.589484	0.170029	0.500113
C295	C	1.103347	-0.164859	0.000140
C296	C	1.603347	0.335141	0.500140
C297	C	1.042256	-0.192518	0.000121
C298	C	1.542256	0.307482	0.500121
H299	H	1.149916	-0.185922	0.000154
H300	H	1.649916	0.314078	0.500154
H301	H	1.100793	-0.144947	-0.046089
H302	H	1.600793	0.355053	0.453911
H303	H	1.100768	-0.144956	0.046376
H304	H	1.600768	0.355044	0.546376
H305	H	1.044831	-0.212418	-0.046119
H306	H	1.544831	0.287582	0.453881
H307	H	1.044811	-0.212438	0.046355
H308	H	1.544811	0.287562	0.546355
H309	H	1.088028	-0.421424	0.000099
H310	H	1.588028	0.078576	0.500099
H311	H	1.014370	-0.707302	0.000085
H312	H	1.514370	-0.207302	0.500085
C313	C	1.074449	-0.798956	-0.068083
C314	C	1.574449	-0.298956	0.431917
C315	C	1.032463	-0.807616	0.000069
C316	C	1.532463	-0.307616	0.500069
H317	H	1.121013	-0.820024	-0.068082
H318	H	1.621013	-0.320024	0.431918
H319	H	1.045957	-0.804813	-0.114306
H320	H	1.545957	-0.304813	0.385694
H321	H	1.084862	-0.766156	-0.068071
H322	H	1.584862	-0.266156	0.431929
H323	H	1.022045	-0.840415	0.000054
H324	H	1.522045	-0.340415	0.500054
H325	H	1.060962	-0.801762	0.046304
H326	H	1.560962	-0.301762	0.546304
C327	C	0.683276	-0.704939	0.000045
C328	C	1.183276	-0.204939	0.500045
C329	C	0.744368	-0.677280	0.000046
C330	C	1.244368	-0.177280	0.500046
H331	H	0.636707	-0.683875	0.000051
H332	H	1.136707	-0.183875	0.500051
H333	H	0.685840	-0.724838	-0.046186
H334	H	1.185840	-0.224838	0.453814
H335	H	0.685845	-0.724855	0.046279
H336	H	1.185845	-0.224855	0.546279
H337	H	0.741802	-0.657367	-0.046192
H338	H	1.241802	-0.157367	0.453808
H339	H	0.741803	-0.657373	0.046281
H340	H	1.241803	-0.157373	0.546281
C341	C	0.619718	-0.356181	0.000001
C342	C	1.119718	0.143819	0.500001
C343	C	0.679763	-0.394085	0.000017
C344	C	1.179763	0.105915	0.500017
H345	H	0.572603	-0.369320	-0.000020
H346	H	1.072603	0.130680	0.499980
H347	H	0.622896	-0.336768	0.046234
H348	H	1.122896	0.163232	0.546234
H349	H	0.622926	-0.336752	-0.046231
H350	H	1.122926	0.163248	0.453769
H351	H	0.676558	-0.413512	0.046252
H352	H	1.176558	0.086488	0.546252
H353	H	0.676583	-0.413506	-0.046221
H354	H	1.176583	0.086494	0.453779
H355	H	1.085613	-0.572682	0.000084
H356	H	1.585613	-0.072682	0.500084
C357	C	0.692417	-0.130126	0.000071
C358	C	1.192417	0.369874	0.500071
C359	C	0.752472	-0.168025	0.000076
C360	C	1.252472	0.331975	0.500076
H361	H	0.645307	-0.143272	0.000047
H362	H	1.145307	0.356728	0.500047
H363	H	0.695591	-0.110717	0.046308
H364	H	1.195591	0.389283	0.546308
H365	H	0.695619	-0.110693	-0.046157
H366	H	1.195619	0.389307	0.453843
H367	H	0.749274	-0.187456	0.046307
H368	H	1.249274	0.312544	0.546307
H369	H	0.749297	-0.187442	-0.046166
H370	H	1.249297	0.312558	0.453834
H371	H	0.698605	-0.448366	0.000035
H372	H	1.198605	0.051634	0.500035
C373	C	0.617317	-0.507440	0.000006
C374	C	1.117317	-0.007440	0.500006
C375	C	0.677368	-0.545341	0.000017
C376	C	1.177368	-0.045341	0.500017
H377	H	0.570205	-0.520582	-0.000017
H378	H	1.070205	-0.020582	0.499983
H379	H	0.620493	-0.488029	0.046242
H380	H	1.120493	0.011971	0.546242
H381	H	0.620522	-0.488009	-0.046223
H382	H	1.120522	0.011991	0.453777
H383	H	0.674166	-0.564770	0.046250
H384	H	1.174166	-0.064770	0.546250
H385	H	0.674190	-0.564760	-0.046224
H386	H	1.174190	-0.064760	0.453776
C387	C	1.047647	-0.032878	0.256769
C388	C	1.547647	0.467122	0.756769
C389	C	1.002136	-0.003992	0.202513
C390	C	1.502136	0.496008	0.702513
H391	H	1.082827	-0.055216	0.228460
H392	H	1.582827	0.444784	0.728460
H393	H	1.074636	-0.012778	0.289303
H394	H	1.574636	0.487222	0.789303
H395	H	1.016341	-0.050237	0.289331
H396	H	1.516341	0.449763	0.789331
H397	H	1.033441	0.013370	0.169955
H398	H	1.533441	0.513370	0.669955
H399	H	0.975145	-0.024095	0.169965
H400	H	1.475145	0.475905	0.669965
