data_functionalizedCrystal
_audit_creation_method	'MofGen! by Chris Wilmer'
_symmetry_space_group_name_H-M	'P1'
_symmetry_Int_Tables_number	1
_symmetry_cell_setting	triclinic
loop_
_symmetry_equiv_pos_as_xyz
  x,y,z
_cell_length_a	18.215407
_cell_length_b	18.215405
_cell_length_c	18.215399
_cell_angle_alpha	89.969449
_cell_angle_beta	89.980167
_cell_angle_gamma	90.025333
loop_
_atom_site_label
_atom_site_type_symbol
_atom_site_fract_x
_atom_site_fract_y
_atom_site_fract_z
Zn1	Zn	1.125072	-0.292983	-0.416103
Zn2	Zn	1.124980	-0.416054	-0.293031
Zn3	Zn	1.002005	-0.293007	-0.293050
Zn4	Zn	1.001970	-0.416013	-0.416056
O5	O	1.063507	-0.354514	-0.354560
O6	O	1.228044	-0.309316	-0.399788
O7	O	1.108643	-0.399759	-0.190049
O8	O	1.018382	-0.190020	-0.309401
O9	O	1.227977	-0.399736	-0.309368
O10	O	1.108799	-0.190002	-0.399807
O11	O	1.018293	-0.309357	-0.190063
O12	O	0.899016	-0.309317	-0.309355
O13	O	1.018324	-0.399666	-0.519046
O14	O	0.898991	-0.399689	-0.399727
O15	O	1.108766	-0.309276	-0.519081
O16	O	1.108610	-0.519033	-0.309322
O17	O	1.018235	-0.519003	-0.399708
C18	C	0.872301	-0.354502	-0.354539
C19	C	0.790502	-0.354514	-0.354547
C20	C	0.602314	-0.401645	-0.401544
C21	C	0.525455	-0.401647	-0.401554
C22	C	0.525452	-0.307397	-0.307591
C23	C	0.602309	-0.307392	-0.307586
C24	C	0.640738	-0.354520	-0.354562
C25	C	0.487022	-0.354528	-0.354576
C26	C	0.403688	-0.354530	-0.354585
C27	C	0.724077	-0.354517	-0.354553
C28	C	1.063429	-0.545721	-0.354524
C29	C	1.063463	-0.627520	-0.354534
C30	C	1.110632	-0.815705	-0.307556
C31	C	1.110665	-0.892563	-0.307574
C32	C	1.016476	-0.892572	-0.401616
C33	C	1.016447	-0.815715	-0.401601
C34	C	1.063524	-0.777283	-0.354567
C35	C	1.063586	-0.930999	-0.354600
C36	C	1.063621	-1.014333	-0.354619
C37	C	1.063490	-0.693944	-0.354548
C38	C	1.255460	-0.354528	-0.354581
C39	C	1.337259	-0.354533	-0.354591
C40	C	1.063552	-0.354464	-0.546513
C41	C	1.063571	-0.354442	-0.628312
C42	C	1.063605	-0.162561	-0.354611
C43	C	1.063647	-0.080763	-0.354633
C44	C	1.110681	-0.307332	-0.816525
C45	C	1.110690	-0.307311	-0.893384
C46	C	1.016513	-0.401438	-0.893336
C47	C	1.016501	-0.401455	-0.816479
C48	C	1.063589	-0.354403	-0.778075
C49	C	1.063610	-0.354365	-0.931791
C50	C	1.063619	-0.354342	-1.015125
C51	C	1.063579	-0.354425	-0.694736
C52	C	1.063504	-0.354512	-0.163353
C53	C	1.063628	-0.354326	-0.081555
H54	H	0.633595	-0.269012	-0.269327
H55	H	1.149021	-0.269017	-0.785259
H56	H	0.494174	-0.440020	-0.439813
C57	C	0.964686	-0.934854	-0.453342
N58	N	0.925673	-0.966700	-0.492300
C59	C	0.964717	-0.453191	-0.935588
N60	N	0.925703	-0.492173	-0.967411
H61	H	0.633601	-0.440018	-0.439797
C62	C	1.162422	-0.773433	-0.255822
N63	N	1.201433	-0.741595	-0.216856
C64	C	0.964691	-0.453238	-0.774182
N65	N	0.925667	-0.492237	-0.742324
C66	C	1.162484	-0.934824	-0.255855
N67	N	1.201516	-0.966654	-0.216898
C68	C	0.964637	-0.773448	-0.453335
N69	N	0.925622	-0.741613	-0.492305
H70	H	0.494153	-0.269028	-0.269344
H71	H	1.149035	-0.268979	-0.924686
