data_functionalizedCrystal
_audit_creation_method	'MofGen! by Chris Wilmer'
_symmetry_space_group_name_H-M	'P1'
_symmetry_Int_Tables_number	1
_symmetry_cell_setting	triclinic
loop_
_symmetry_equiv_pos_as_xyz
  x,y,z
_cell_length_a	15.944557
_cell_length_b	14.472310
_cell_length_c	15.995350
_cell_angle_alpha	89.998838
_cell_angle_beta	96.503128
_cell_angle_gamma	89.988822
loop_
_atom_site_label
_atom_site_type_symbol
_atom_site_fract_x
_atom_site_fract_y
_atom_site_fract_z
O1	O	-1.114526	0.076797	0.108009
O2	O	-0.869976	0.076807	0.121317
O3	O	-0.998936	0.076800	-0.007224
O4	O	-0.985566	0.076803	0.236550
O5	O	-0.998903	-0.076882	-0.007217
O6	O	-0.869943	-0.076875	0.121324
O7	O	-1.114493	-0.076885	0.108016
Cu8	Cu	-0.992215	-0.090913	0.114671
Cu9	Cu	-0.992254	0.090834	0.114662
O10	O	-0.985533	-0.076879	0.236557
C11	C	-0.838666	-0.000033	0.120767
C12	C	-0.745420	-0.000029	0.119108
N13	N	-0.992193	-0.218744	0.114677
C14	C	-0.998367	-0.000039	-0.038415
C15	C	-0.996709	-0.000034	-0.131366
C16	C	-0.474794	-0.000045	0.034471
C17	C	-0.525356	-0.075819	0.075276
C18	C	-0.409779	-0.000051	0.113191
C19	C	-0.525370	0.075700	0.075290
C20	C	-0.574691	-0.000039	0.116094
C21	C	-0.459113	-0.075888	0.153975
C22	C	-0.459123	0.075699	0.153977
C23	C	-0.509653	-0.000094	0.194840
C24	C	-0.314777	-0.000059	0.111516
C25	C	-0.669690	-0.000037	0.117775
C26	C	-0.145804	-0.000048	0.108554
C27	C	-0.239055	-0.000060	0.110179
C28	C	-0.992253	-0.592835	0.114659
C29	C	-0.923018	-0.553666	0.183208
C30	C	-0.923177	-0.446578	0.183458
C31	C	-0.992223	-0.407244	0.114668
C32	C	-1.079865	-0.446084	0.133756
C33	C	-1.079476	-0.553206	0.134244
C34	C	-0.974628	-0.553364	0.026818
C35	C	-0.972618	-0.446237	0.027403
C36	C	-0.992211	-0.302356	0.114671
C37	C	-0.992270	-0.697723	0.114657
N38	N	-0.992282	0.218665	0.114650
C39	C	-0.990758	-0.000036	-0.469114
C40	C	-0.898916	0.000312	-0.421687
C41	C	-0.900573	-0.000034	-0.324997
C42	C	-0.993710	-0.000034	-0.301553
C43	C	-1.038991	-0.087795	-0.342623
C44	C	-1.036684	-0.087868	-0.439259
C45	C	-1.038619	0.086897	-0.439625
C46	C	-1.038598	0.088057	-0.342680
C47	C	-0.995383	-0.000036	-0.206856
C48	C	-0.989088	-0.000041	-0.563812
C49	C	-0.986102	-0.000038	0.267748
C50	C	-0.987759	-0.000037	0.360699
H51	H	-0.459144	-0.000119	-0.033326
H52	H	-0.934117	-0.580575	0.248026
H53	H	-1.107416	-0.091058	-0.328492
H54	H	-1.095007	-0.578182	0.198306
H55	H	-0.857661	-0.579451	0.172021
H56	H	-1.008606	0.153414	-0.460170
F57	F	-0.563188	0.159428	0.031816
F58	F	-0.851007	-0.081261	-0.447579
H59	H	-0.934432	-0.420944	0.248643
H60	H	-0.864711	-0.063049	-0.297132
F61	F	-0.421301	0.159435	0.197390
F62	F	-0.995659	0.172928	-0.306683
H63	H	-0.862221	0.063247	-0.440225
H64	H	-1.104113	-0.091850	-0.471501
F65	F	-1.100653	-0.411008	0.216535
F66	F	-1.127374	0.094989	-0.322590
F67	F	-0.838015	-0.412253	0.168634
F68	F	-1.148778	-0.587074	0.071402
H69	H	-0.525141	-0.000137	0.262690
F70	F	-1.034255	-0.411254	-0.042398
F71	F	-0.421440	-0.159713	0.197401
F72	F	-0.563154	-0.159554	0.031829
H73	H	-1.007514	-0.153103	-0.314241
F74	F	-1.148816	-0.412784	0.070233
F75	F	-0.892894	-0.588714	0.002841
F76	F	-0.888350	-0.413059	0.008467
H77	H	-1.025118	-0.578693	-0.024194
F78	F	-0.854047	0.082193	-0.287852
H79	H	-1.106335	0.087487	-0.471381
H80	H	-1.003637	-0.153470	-0.457560
