data_functionalizedCrystal
_audit_creation_method	'MofGen! by Chris Wilmer'
_symmetry_space_group_name_H-M	'P1'
_symmetry_Int_Tables_number	1
_symmetry_cell_setting	triclinic
loop_
_symmetry_equiv_pos_as_xyz
  x,y,z
_cell_length_a	16.974800
_cell_length_b	16.992695
_cell_length_c	17.766277
_cell_angle_alpha	89.993690
_cell_angle_beta	93.647453
_cell_angle_gamma	87.021674
loop_
_atom_site_label
_atom_site_type_symbol
_atom_site_fract_x
_atom_site_fract_y
_atom_site_fract_z
O1	O	1.055459	0.099873	0.001724
O2	O	0.826059	0.112614	-0.012258
O3	O	0.939839	-0.007898	-0.005317
O4	O	0.941679	0.220385	-0.005217
O5	O	0.939818	-0.007904	0.119870
O6	O	0.826037	0.112608	0.112930
O7	O	1.055437	0.099867	0.126911
Cu8	Cu	0.940735	0.106237	0.131351
Cu9	Cu	0.940761	0.106244	-0.016698
O10	O	0.941657	0.220379	0.119970
C11	C	0.796559	0.112128	0.048539
C12	C	0.708691	0.110681	0.043184
C13	C	0.937462	-0.037111	0.057132
C14	C	0.930403	-0.124147	0.056702
C15	C	0.667404	0.109996	0.108909
C16	C	0.584843	0.108624	0.103880
C17	C	0.543572	0.107942	0.033124
C18	C	0.584865	0.108625	-0.032606
C19	C	0.667425	0.109992	-0.027576
C20	C	0.296658	0.103850	0.010763
C21	C	0.214093	0.102485	0.005737
C22	C	0.214076	0.102482	0.142224
C23	C	0.296637	0.103854	0.147248
C24	C	0.337923	0.104532	0.081518
N25	N	0.459182	0.106542	0.027982
N26	N	0.422312	0.105927	0.086661
C27	C	0.998518	-0.174465	0.060854
C28	C	0.991880	-0.256244	0.060442
C29	C	0.917126	-0.287704	0.055884
C30	C	0.849006	-0.237380	0.051729
C31	C	0.855645	-0.155602	0.052135
C32	C	0.889612	-0.531270	0.054196
C33	C	0.882978	-0.613054	0.053793
C34	C	1.025853	-0.631913	0.062504
C35	C	1.032485	-0.550133	0.062915
C36	C	0.964365	-0.499816	0.058756
N37	N	0.910340	-0.371295	0.055465
N38	N	0.971152	-0.416226	0.059170
C39	C	1.084937	0.100353	0.066113
C40	C	1.172805	0.101800	0.071463
C41	C	0.944034	0.249592	0.057519
C42	C	0.951093	0.336628	0.057945
N43	N	0.940723	0.106231	0.235480
N44	N	0.940779	0.106244	-0.120827
C45	C	0.991124	0.052895	0.277942
C46	C	0.991128	0.052891	0.356744
C47	C	0.940740	0.106238	0.393082
C48	C	0.890329	0.159578	0.350611
C49	C	0.890320	0.159575	0.271810
C50	C	0.934893	0.177655	0.517560
C51	C	0.934907	0.177659	0.596360
C52	C	0.940762	0.106247	0.636130
C53	C	0.946619	0.034828	0.597091
C54	C	0.946611	0.034824	0.518291
C55	C	0.940743	0.106247	0.478528
C56	C	0.991170	0.052902	0.764037
C57	C	0.991169	0.052897	0.842840
C58	C	0.890374	0.159591	0.836706
C59	C	0.890371	0.159589	0.757904
C60	C	0.940773	0.106245	0.721575
H61	H	0.551231	0.108053	0.157401
O62	O	0.810342	-0.643580	0.049223
C63	C	0.768515	-0.617844	-0.018158
H64	H	0.812149	-0.600872	-0.060811
H65	H	0.731761	-0.667350	-0.042165
H66	H	0.727814	-0.564502	-0.005986
H67	H	0.180452	0.101928	0.195738
O68	O	0.336816	0.104404	0.215940
C69	C	0.389226	0.037312	0.223228
H70	H	0.403164	0.014895	0.164828
H71	H	0.446226	0.053533	0.255586
H72	H	0.360671	-0.010743	0.255164
H73	H	0.180491	0.101932	-0.051883
O74	O	0.789502	-0.106688	0.047972
C75	C	0.789091	-0.058801	-0.016880
H76	H	0.827638	-0.088794	-0.059846
H77	H	0.725990	-0.049527	-0.042491
H78	H	0.813313	0.000641	-0.000745
O79	O	0.707466	0.110517	0.177660
C80	C	0.691940	0.042319	0.218239
H81	H	0.672516	-0.005491	0.177127
H82	H	0.747797	0.020433	0.252599
H83	H	0.642954	0.056867	0.257804
O84	O	1.105040	-0.519445	0.067365
C85	C	1.096293	-0.436476	0.066813
H86	H	1.035804	-0.417205	0.086830
H87	H	1.144434	-0.411422	0.106089
H88	H	1.101569	-0.413710	0.007075
H89	H	0.330263	0.104400	-0.042760
H90	H	0.849343	0.203024	0.866292
H91	H	1.047347	-0.297210	0.063825
H92	H	1.081312	-0.672889	0.065889
O93	O	0.823464	-0.482370	0.050030
C94	C	0.823043	-0.434483	-0.014824
H95	H	0.861593	-0.464471	-0.057790
H96	H	0.759941	-0.425221	-0.040433
H97	H	0.847254	-0.375037	0.001310
O98	O	1.071091	-0.143815	0.065179
C99	C	1.079224	-0.097083	0.000829
H100	H	1.018198	-0.076640	-0.024504
H101	H	1.114124	-0.043571	0.017539
H102	H	1.111924	-0.133249	-0.042580
H103	H	1.032209	0.009460	0.877413
O104	O	0.776451	-0.268067	0.047338
C105	C	0.785195	-0.351036	0.047853
H106	H	0.845677	-0.370314	0.075240
H107	H	0.737043	-0.376096	0.081264
H108	H	0.779936	-0.373791	-0.012527
H109	H	0.551256	0.108065	-0.090217
O110	O	0.841392	0.211483	0.716768
C111	C	0.796903	0.258555	0.765735
H112	H	0.829379	0.259425	0.823878
H113	H	0.788793	0.321177	0.742466
H114	H	0.736564	0.233130	0.770457
O115	O	1.040102	0.000997	0.242770
C116	C	1.084603	-0.046068	0.297154
H117	H	1.052138	-0.046931	0.351356
H118	H	1.092709	-0.108692	0.274890
H119	H	1.144943	-0.020640	0.309190
H120	H	0.701040	0.110551	-0.081097
H121	H	0.951378	-0.023328	0.486509
O122	O	1.040133	0.001185	0.398084
C123	C	1.091575	0.043156	0.446764
H124	H	1.063955	0.104524	0.456885
H125	H	1.102027	0.010426	0.502816
H126	H	1.150339	0.048455	0.419959
H127	H	0.951386	-0.023323	0.629470
H128	H	1.032209	0.009464	0.734457
O129	O	0.929179	0.247102	0.634159
C130	C	0.924017	0.310131	0.582162
H131	H	0.900920	0.288454	0.524593
H132	H	0.881880	0.358946	0.602368
H133	H	0.985075	0.333961	0.577480
H134	H	0.930111	0.235811	0.485185
O135	O	0.841343	0.211292	0.385987
C136	C	0.789912	0.169329	0.428442
H137	H	0.817531	0.107960	0.441931
H138	H	0.779478	0.202064	0.483217
H139	H	0.731138	0.164031	0.394509
H140	H	0.849277	0.203009	0.237237
