data_functionalizedCrystal
_audit_creation_method	'MofGen! by Chris Wilmer'
_symmetry_space_group_name_H-M	'P1'
_symmetry_Int_Tables_number	1
_symmetry_cell_setting	triclinic
loop_
_symmetry_equiv_pos_as_xyz
  x,y,z
_cell_length_a	10.540539
_cell_length_b	10.540539
_cell_length_c	9.016244
_cell_angle_alpha	89.997712
_cell_angle_beta	90.001494
_cell_angle_gamma	84.525492
loop_
_atom_site_label
_atom_site_type_symbol
_atom_site_fract_x
_atom_site_fract_y
_atom_site_fract_z
O1	O	-1.685886	-0.178892	-0.123263
O2	O	-1.316473	-0.195747	-0.123280
O3	O	-1.509608	-0.002613	-0.123269
O4	O	-1.492752	-0.372026	-0.123274
O5	O	-1.509593	-0.002625	0.123411
O6	O	-1.316458	-0.195759	0.123400
O7	O	-1.685871	-0.178903	0.123418
Cu8	Cu	-1.501163	-0.187332	0.145933
Cu9	Cu	-1.501181	-0.187318	-0.145795
O10	O	-1.492737	-0.372038	0.123407
C11	C	-1.269163	-0.194489	0.000058
C12	C	-1.128215	-0.190707	0.000051
C13	C	-1.508336	0.044684	0.000068
C14	C	-1.504554	0.185632	0.000060
C15	C	-1.733182	-0.180161	0.000077
C16	C	-1.874130	-0.183943	0.000074
C17	C	-0.944788	-0.045790	0.000628
C18	C	-1.091406	-0.049624	0.000057
C19	C	-1.066551	-0.258596	-0.140811
C20	C	-0.920006	-0.253781	-0.140914
C21	C	-0.919501	-0.256664	0.139608
C22	C	-1.066483	-0.257964	0.141455
C23	C	-1.494008	-0.419335	0.000066
C24	C	-1.497790	-0.560283	0.000064
N25	N	-1.501160	-0.187341	0.351119
C26	C	-1.359637	0.369059	-0.000500
C27	C	-1.363471	0.222441	0.000055
C28	C	-1.572441	0.247283	0.140930
C29	C	-1.567626	0.393828	0.141049
C30	C	-1.570513	0.394359	-0.139473
C31	C	-1.571812	0.247377	-0.141336
N32	N	-1.501195	-0.187299	-0.350982
C33	C	-1.397800	-0.290639	0.414083
C34	C	-1.397448	-0.290342	0.585974
C35	C	-1.471604	-0.054426	0.586594
C36	C	-1.470841	-0.055055	0.414650
C37	C	-1.634423	-0.215719	0.414462
C38	C	-1.633578	-0.218696	0.586419
H39	H	-1.134014	0.003794	0.101034
F40	F	-0.857304	-0.386399	-0.149273
F41	F	-1.420606	-0.419370	0.641149
F42	F	-0.883138	-0.188184	-0.278540
H43	H	-1.662677	-0.310645	0.371110
H44	H	-1.298583	-0.272019	0.627132
F45	F	-1.420577	-0.420110	0.360056
H46	H	-0.916196	0.009941	0.101649
F47	F	-0.905307	0.026767	-0.130666
H48	H	-1.373634	-0.030310	0.374567
F49	F	-1.703707	0.456088	-0.140709
H50	H	-1.299481	-0.272581	0.370900
H51	H	-1.543226	0.024212	0.372994
H52	H	-1.375521	-0.029103	0.629690
F53	F	-1.700244	0.456529	0.149424
F54	F	-1.567364	0.048578	0.639961
H55	H	-1.303912	0.397664	-0.101521
H56	H	-1.656004	-0.316462	0.627196
F57	F	-1.738913	-0.126891	0.642507
F58	F	-1.734972	-0.117288	0.361227
F59	F	-1.293650	0.166758	-0.131935
F60	F	-1.707864	0.218067	0.147788
F61	F	-1.145949	0.020417	-0.132361
F62	F	-1.095796	-0.394009	-0.147692
H63	H	-0.887948	-0.211011	0.246381
F64	F	-1.122221	-0.196944	-0.277837
H65	H	-1.107438	-0.208369	0.245664
H66	H	-1.522140	0.206524	-0.245547
F67	F	-1.098139	-0.392413	0.152569
H68	H	-0.872274	-0.358568	0.140559
F69	F	-1.293141	0.167850	0.132256
F70	F	-1.286890	0.408964	0.130434
H71	H	-1.517442	0.422022	0.246347
H72	H	-1.524858	0.425917	-0.246244
F73	F	-1.510788	0.191600	0.277949
H74	H	-1.674673	0.223156	-0.149837
