data_functionalizedCrystal
_audit_creation_method	'MofGen! by Chris Wilmer'
_symmetry_space_group_name_H-M	'P1'
_symmetry_Int_Tables_number	1
_symmetry_cell_setting	triclinic
loop_
_symmetry_equiv_pos_as_xyz
  x,y,z
_cell_length_a	19.805407
_cell_length_b	19.805406
_cell_length_c	19.805399
_cell_angle_alpha	89.983420
_cell_angle_beta	90.021064
_cell_angle_gamma	89.997903
loop_
_atom_site_label
_atom_site_type_symbol
_atom_site_fract_x
_atom_site_fract_y
_atom_site_fract_z
Zn1	Zn	-1.034845	-0.269497	-0.382798
Zn2	Zn	-0.701512	0.063836	-0.049465
Zn3	Zn	-0.368179	0.397170	0.283868
Zn4	Zn	-1.034806	-0.382685	-0.269632
Zn5	Zn	-0.701473	-0.049352	0.063701
Zn6	Zn	-0.368139	0.283981	0.397035
Zn7	Zn	-0.921660	-0.269514	-0.269620
Zn8	Zn	-0.588327	0.063820	0.063713
Zn9	Zn	-0.254993	0.397153	0.397047
Zn10	Zn	-0.921669	-0.382647	-0.382776
Zn11	Zn	-0.588336	-0.049314	-0.049442
Zn12	Zn	-0.255003	0.284019	0.283891
O13	O	-0.978245	-0.326086	-0.326206
O14	O	-0.644912	0.007247	0.007127
O15	O	-0.311579	0.340581	0.340460
O16	O	-1.129557	-0.284521	-0.367801
O17	O	-0.796223	0.048813	-0.034468
O18	O	-0.462890	0.382146	0.298866
O19	O	-1.019777	-0.367696	-0.174914
O20	O	-0.686443	-0.034363	0.158420
O21	O	-0.353110	0.298971	0.491753
O22	O	-0.936687	-0.174795	-0.284638
O23	O	-0.603353	0.158538	0.048695
O24	O	-0.270020	0.491872	0.382029
O25	O	-1.129528	-0.367680	-0.284658
O26	O	-0.796195	-0.034346	0.048675
O27	O	-0.462861	0.298987	0.382009
O28	O	-1.019843	-0.174783	-0.367790
O29	O	-0.686510	0.158551	-0.034456
O30	O	-0.353177	0.491884	0.298877
O31	O	-0.936649	-0.284549	-0.174905
O32	O	-0.603315	0.048784	0.158428
O33	O	-0.269982	0.382118	0.491762
O34	O	-0.826945	-0.284512	-0.284616
O35	O	-0.493611	0.048821	0.048717
O36	O	-0.160278	0.382154	0.382051
O37	O	-0.936703	-0.367615	-0.477495
O38	O	-0.603369	-0.034282	-0.144162
O39	O	-0.270036	0.299052	0.189171
O40	O	-0.826952	-0.367631	-0.367751
O41	O	-0.493618	-0.034298	-0.034418
O42	O	-0.160285	0.299036	0.298916
O43	O	-1.019853	-0.284484	-0.477512
O44	O	-0.686519	0.048849	-0.144179
O45	O	-0.353186	0.382183	0.189155
O46	O	-1.019786	-0.477397	-0.284636
O47	O	-0.686453	-0.144064	0.048697
O48	O	-0.353119	0.189270	0.382031
O49	O	-0.936665	-0.477369	-0.367762
O50	O	-0.603332	-0.144036	-0.034429
O51	O	-0.269998	0.189298	0.298904
C52	C	-0.802389	-0.326070	-0.326180
C53	C	-0.469056	0.007263	0.007153
C54	C	-0.135723	0.340597	0.340487
C55	C	-0.727157	-0.326079	-0.326185
C56	C	-0.393824	0.007254	0.007149
C57	C	-0.060491	0.340587	0.340482
C58	C	-0.691834	-0.369424	-0.369402
C59	C	-0.358501	-0.036090	-0.036069
C60	C	-0.025168	0.297243	0.297265
C61	C	-0.621146	-0.369424	-0.369410
C62	C	-0.287813	-0.036090	-0.036077
C63	C	0.045521	0.297243	0.297257
C64	C	-0.585782	-0.326082	-0.326196
C65	C	-0.252448	0.007251	0.007137
C66	C	0.080885	0.340585	0.340470
C67	C	-0.621109	-0.282733	-0.282977
C68	C	-0.287776	0.050601	0.050356
C69	C	0.045557	0.383934	0.383690
C70	C	-0.691796	-0.282730	-0.282973
C71	C	-0.358463	0.050603	0.050360
C72	C	-0.025130	0.383937	0.383694
C73	C	-0.336036	-0.282743	-0.282992
C74	C	-0.002703	0.050591	0.050341
C75	C	0.330631	0.383924	0.383675
C76	C	-0.265344	-0.282750	-0.282998
C77	C	0.067989	0.050583	0.050336
C78	C	0.401323	0.383916	0.383669
C79	C	-0.265386	-0.369437	-0.369429
C80	C	0.067948	-0.036103	-0.036095
C81	C	0.401281	0.297230	0.297238
C82	C	-0.336073	-0.369434	-0.369425
C83	C	-0.002739	-0.036100	-0.036091
C84	C	0.330594	0.297233	0.297242
C85	C	-0.371394	-0.326082	-0.326208
C86	C	-0.038061	0.007251	0.007125
C87	C	0.295272	0.340584	0.340458
C88	C	-0.448043	-0.326082	-0.326201
C89	C	-0.114709	0.007251	0.007132
C90	C	0.218624	0.340585	0.340465
C91	C	-0.509134	-0.326085	-0.326199
C92	C	-0.175801	0.007248	0.007134
C93	C	0.157532	0.340581	0.340467
C94	C	-0.978241	-0.501942	-0.326213
C95	C	-0.644907	-0.168609	0.007121
C96	C	-0.311574	0.164725	0.340454
C97	C	-0.978301	-0.577174	-0.326238
C98	C	-0.644967	-0.243841	0.007095
C99	C	-0.311634	0.089493	0.340429
C100	C	-0.154788	-0.326098	-0.326227
C101	C	0.178545	0.007235	0.007106
C102	C	0.511879	0.340569	0.340440
C103	C	-0.230020	-0.326092	-0.326219
C104	C	0.103313	0.007241	0.007114
C105	C	0.436647	0.340575	0.340448
C106	C	-0.978283	-0.326043	-0.502749
C107	C	-0.644950	0.007290	-0.169416
C108	C	-0.311616	0.340623	0.163917
C109	C	-0.978299	-0.326025	-0.577981
C110	C	-0.644966	0.007308	-0.244648
C111	C	-0.311633	0.340642	0.088685
C112	C	-0.978268	-0.149543	-0.326215
C113	C	-0.644935	0.183790	0.007118
C114	C	-0.311602	0.517123	0.340452
C115	C	-0.978278	-0.074311	-0.326219
C116	C	-0.644945	0.259022	0.007115
C117	C	-0.311611	0.592355	0.340448
C118	C	-0.935003	0.387474	-0.282946
C119	C	-0.601669	0.720808	0.050387
C120	C	-0.268336	1.054141	0.383721
C121	C	-0.935001	0.316786	-0.282940
C122	C	-0.601668	0.650119	0.050393
C123	C	-0.268335	0.983453	0.383726
C124	C	-0.978295	0.281450	-0.326231
C125	C	-0.644962	0.614784	0.007103
C126	C	-0.311628	0.948117	0.340436
C127	C	-1.021598	0.316807	-0.369525
C128	C	-0.688264	0.650140	-0.036192
C129	C	-0.354931	0.983474	0.297142
C130	C	-1.021602	0.387494	-0.369527
C131	C	-0.688269	0.720828	-0.036193
C132	C	-0.354935	1.054161	0.297140
C133	C	-1.021582	0.031734	-0.369518
C134	C	-0.688249	0.365067	-0.036185
C135	C	-0.354915	0.698400	0.297148
C136	C	-1.021573	-0.038958	-0.369515
C137	C	-0.688240	0.294375	-0.036181
C138	C	-0.354906	0.627708	0.297152
C139	C	-0.934982	-0.038974	-0.282932
C140	C	-0.601648	0.294359	0.050401
C141	C	-0.268315	0.627692	0.383735
C142	C	-0.934986	0.031713	-0.282934
C143	C	-0.601652	0.365046	0.050400
C144	C	-0.268319	0.698379	0.383733
C145	C	-0.978291	0.067063	-0.326225
C146	C	-0.644957	0.400396	0.007108
C147	C	-0.311624	0.733730	0.340442
C148	C	-0.978292	0.143712	-0.326230
C149	C	-0.644959	0.477045	0.007104
C150	C	-0.311626	0.810378	0.340437
C151	C	-0.978290	0.204803	-0.326230
C152	C	-0.644957	0.538137	0.007103
C153	C	-0.311624	0.871470	0.340437
C154	C	-1.021596	-0.282737	-0.613335
C155	C	-0.688263	0.050597	-0.280002
C156	C	-0.354930	0.383930	0.053331
C157	C	-1.021603	-0.282717	-0.684024
C158	C	-0.688270	0.050616	-0.350690
C159	C	-0.354937	0.383950	-0.017357
C160	C	-0.978316	-0.325990	-0.719357
C161	C	-0.644983	0.007344	-0.386024
C162	C	-0.311649	0.340677	-0.052690
C163	C	-0.935014	-0.369280	-0.683998
C164	C	-0.601681	-0.035947	-0.350665
C165	C	-0.268348	0.297386	-0.017331
C166	C	-0.935004	-0.369296	-0.613311
C167	C	-0.601671	-0.035963	-0.279978
C168	C	-0.268338	0.297371	0.053356
C169	C	-0.935052	-0.369217	-0.969071
C170	C	-0.601719	-0.035884	-0.635738
C171	C	-0.268386	0.297450	-0.302405
C172	C	-0.935067	-0.369200	-1.039764
C173	C	-0.601734	-0.035866	-0.706430
C174	C	-0.268400	0.297467	-0.373097
C175	C	-1.021651	-0.282638	-1.039784
C176	C	-0.688318	0.050695	-0.706451
C177	C	-0.354985	0.384028	-0.373118
C178	C	-1.021642	-0.282654	-0.969097
C179	C	-0.688308	0.050679	-0.635764
C180	C	-0.354975	0.384013	-0.302430
C181	C	-0.978337	-0.325941	-0.933744
C182	C	-0.645004	0.007392	-0.600411
C183	C	-0.311671	0.340725	-0.267078
C184	C	-0.978330	-0.325961	-0.857096
C185	C	-0.644996	0.007372	-0.523763
C186	C	-0.311663	0.340705	-0.190429
C187	C	-0.978327	-0.325974	-0.796004
C188	C	-0.644994	0.007359	-0.462671
C189	C	-0.311660	0.340693	-0.129337
C190	C	-0.978246	-0.326080	-0.150350
C191	C	-0.644913	0.007254	0.182983
C192	C	-0.311580	0.340587	0.516316
C193	C	-0.978361	-0.325907	-0.075119
C194	C	-0.645028	0.007426	0.258214
C195	C	-0.311695	0.340760	0.591548
H196	H	-0.236552	-0.247452	-0.247808
H197	H	0.096781	0.085881	0.085526
H198	H	0.430114	0.419215	0.418859
H199	H	-0.364786	-0.247448	-0.247797
H200	H	-0.031453	0.085885	0.085536
H201	H	0.301880	0.419218	0.418869
O202	O	-0.893053	-0.411360	-0.934773
O203	O	-0.559720	-0.078027	-0.601440
O204	O	-0.226387	0.255307	-0.268106
C205	C	-0.907818	-0.478818	-0.952057
C206	C	-0.574484	-0.145485	-0.618724
C207	C	-0.241151	0.187848	-0.285391
H208	H	-0.961897	-0.482248	-0.971485
H209	H	-0.628564	-0.148915	-0.638151
H210	H	-0.295231	0.184419	-0.304818
H211	H	-0.901954	-0.512269	-0.905571
H212	H	-0.568621	-0.178936	-0.572238
H213	H	-0.235288	0.154398	-0.238904
H214	H	-0.871541	-0.496487	-0.993091
H215	H	-0.538208	-0.163154	-0.659758
H216	H	-0.204875	0.170180	-0.326425
H217	H	-0.899722	-0.067765	-0.247680
H218	H	-0.566389	0.265568	0.085653
H219	H	-0.233056	0.598901	0.418986
O220	O	-0.892996	0.282341	-0.240918
O221	O	-0.559662	0.615674	0.092416
O222	O	-0.226329	0.949008	0.425749
C223	C	-0.902259	0.212374	-0.250210
C224	C	-0.568926	0.545707	0.083123
C225	C	-0.235593	0.879041	0.416456
H226	H	-0.954504	0.202721	-0.272371
H227	H	-0.621171	0.536054	0.060963
H228	H	-0.287837	0.869387	0.394296
H229	H	-0.897639	0.185494	-0.199513
H230	H	-0.564305	0.518827	0.133821
H231	H	-0.230972	0.852161	0.467154
H232	H	-0.862127	0.192330	-0.286261
H233	H	-0.528794	0.525663	0.047073
H234	H	-0.195461	0.858996	0.380406
H235	H	-1.056841	0.060511	-0.404769
H236	H	-0.723508	0.393844	-0.071435
H237	H	-0.390174	0.727177	0.261898
H238	H	-1.056851	0.288031	-0.404770
H239	H	-0.723518	0.621365	-0.071436
H240	H	-0.390184	0.954698	0.261897
H241	H	-0.592310	-0.247440	-0.247795
H242	H	-0.258977	0.085893	0.085539
H243	H	0.074357	0.419226	0.418872
H244	H	-0.899814	-0.404439	-1.068530
H245	H	-0.566481	-0.071105	-0.735197
H246	H	-0.233148	0.262228	-0.401863
O247	O	-0.586807	-0.411437	-0.411462
O248	O	-0.253474	-0.078103	-0.078128
O249	O	0.079860	0.255230	0.255205
C250	C	-0.545926	-0.372969	-0.455239
C251	C	-0.212592	-0.039636	-0.121906
C252	C	0.120741	0.293698	0.211428
H253	H	-0.567226	-0.319664	-0.459508
H254	H	-0.233893	0.013669	-0.126175
H255	H	0.099441	0.347003	0.207159
H256	H	-0.545153	-0.397524	-0.507286
H257	H	-0.211819	-0.064190	-0.173953
H258	H	0.121514	0.269143	0.159380
H259	H	-0.492342	-0.370614	-0.434324
H260	H	-0.159009	-0.037281	-0.100990
H261	H	0.174324	0.296053	0.232343
O262	O	-0.893027	-0.411293	-0.718423
O263	O	-0.559694	-0.077959	-0.385090
O264	O	-0.226360	0.255374	-0.051757
C265	C	-0.902308	-0.401987	-0.788395
C266	C	-0.568974	-0.068653	-0.455062
C267	C	-0.235641	0.264680	-0.121729
H268	H	-0.954547	-0.379824	-0.798063
H269	H	-0.621214	-0.046491	-0.464730
H270	H	-0.287881	0.286843	-0.131396
H271	H	-0.897712	-0.452679	-0.815255
H272	H	-0.564379	-0.119346	-0.481922
H273	H	-0.231045	0.213987	-0.148588
H274	H	-0.862169	-0.365933	-0.808449
H275	H	-0.528836	-0.032599	-0.475115
H276	H	-0.195502	0.300734	-0.141782
H277	H	-1.056893	-0.247419	-0.940332
H278	H	-0.723559	0.085914	-0.606999
H279	H	-0.390226	0.419248	-0.273666
O280	O	-0.892909	0.065932	-0.240817
O281	O	-0.559576	0.399265	0.092516
O282	O	-0.226243	0.732599	0.425850
C283	C	-0.854681	0.019571	-0.202615
C284	C	-0.521347	0.352904	0.130719
C285	C	-0.188014	0.686238	0.464052
H286	H	-0.882399	-0.030819	-0.200275
H287	H	-0.549066	0.302514	0.133059
H288	H	-0.215732	0.635847	0.466392
H289	H	-0.847453	0.039982	-0.149286
H290	H	-0.514119	0.373315	0.184048
H291	H	-0.180786	0.706648	0.517381
H292	H	-0.803279	0.012063	-0.227391
H293	H	-0.469946	0.345396	0.105942
H294	H	-0.136612	0.678729	0.439275
H295	H	-0.899745	0.416240	-0.247697
H296	H	-0.566412	0.749573	0.085637
H297	H	-0.233078	1.082907	0.418970
O298	O	-0.892933	-0.411419	-0.579070
O299	O	-0.559599	-0.078086	-0.245737
O300	O	-0.226266	0.255248	0.087596
C301	C	-0.854720	-0.449602	-0.625412
C302	C	-0.521387	-0.116269	-0.292079
C303	C	-0.188054	0.217064	0.041254
H304	H	-0.882447	-0.451930	-0.675809
H305	H	-0.549114	-0.118596	-0.342476
H306	H	-0.215781	0.214737	-0.009142
H307	H	-0.847501	-0.502937	-0.604986
H308	H	-0.514168	-0.169604	-0.271653
H309	H	-0.180834	0.163729	0.061681
H310	H	-0.803314	-0.424818	-0.632915
H311	H	-0.469981	-0.091485	-0.299581
H312	H	-0.136648	0.241849	0.033752
O313	O	-0.726007	-0.240607	-0.240924
O314	O	-0.392673	0.092726	0.092410
O315	O	-0.059340	0.426059	0.425743
C316	C	-0.679637	-0.202343	-0.202793
C317	C	-0.346304	0.130990	0.130541
C318	C	-0.012971	0.464324	0.463874
H319	H	-0.629248	-0.230065	-0.200409
H320	H	-0.295914	0.103269	0.132924
H321	H	0.037419	0.436602	0.466258
H322	H	-0.700038	-0.195055	-0.149474
H323	H	-0.366705	0.138279	0.183859
H324	H	-0.033372	0.471612	0.517193
H325	H	-0.672131	-0.150969	-0.227659
H326	H	-0.338798	0.182364	0.105674
H327	H	-0.005464	0.515698	0.439007
O328	O	-1.063696	-0.073180	-0.411591
O329	O	-0.730362	0.260153	-0.078257
O330	O	-0.397029	0.593487	0.255076
C331	C	-1.101907	-0.026822	-0.449814
C332	C	-0.768574	0.306511	-0.116481
C333	C	-0.435240	0.639845	0.216853
H334	H	-1.104253	0.023559	-0.422092
H335	H	-0.770920	0.356892	-0.088759
H336	H	-0.437586	0.690225	0.244575
H337	H	-1.155233	-0.047252	-0.457040
H338	H	-0.821900	0.286082	-0.123707
H339	H	-0.488567	0.619415	0.209626
H340	H	-1.077135	-0.019287	-0.501217
H341	H	-0.743801	0.314046	-0.167883
H342	H	-0.410468	0.647379	0.165450
O343	O	-1.063679	0.421732	-0.411648
O344	O	-0.730346	0.755066	-0.078315
O345	O	-0.397013	1.088399	0.255018
C346	C	-1.101901	0.375389	-0.449848
C347	C	-0.768568	0.708722	-0.116514
C348	C	-0.435235	1.042055	0.216819
H349	H	-1.074176	0.325001	-0.452185
H350	H	-0.740843	0.658334	-0.118851
H351	H	-0.407509	0.991668	0.214482
H352	H	-1.109133	0.395826	-0.503178
H353	H	-0.775799	0.729160	-0.169845
H354	H	-0.442466	1.062493	0.163489
H355	H	-1.153302	0.367864	-0.425070
H356	H	-0.819969	0.701197	-0.091737
H357	H	-0.486635	1.034530	0.241596
H358	H	-0.364863	-0.404729	-0.404611
H359	H	-0.031530	-0.071396	-0.071278
H360	H	0.301804	0.261937	0.262055
H361	H	-1.056848	-0.247501	-0.584572
H362	H	-0.723515	0.085832	-0.251239
H363	H	-0.390181	0.419166	0.082095
O364	O	-1.063729	-0.240648	-0.718262
O365	O	-0.730395	0.092686	-0.384928
O366	O	-0.397062	0.426019	-0.051595
C367	C	-1.101924	-0.202450	-0.671918
C368	C	-0.768591	0.130884	-0.338585
C369	C	-0.435258	0.464217	-0.005251
H370	H	-1.104255	-0.230187	-0.621529
H371	H	-0.770921	0.103147	-0.288196
H372	H	-0.437588	0.436480	0.045137
H373	H	-1.155257	-0.195234	-0.692354
H374	H	-0.821924	0.138099	-0.359021
H375	H	-0.488591	0.471432	-0.025687
H376	H	-1.077149	-0.151042	-0.664396
H377	H	-0.743815	0.182292	-0.331063
H378	H	-0.410482	0.515625	0.002271
H379	H	-1.056909	-0.247389	-1.068577
H380	H	-0.723576	0.085944	-0.735244
H381	H	-0.390243	0.419278	-0.401910
O382	O	-0.230968	-0.411481	-0.411394
O383	O	0.102365	-0.078147	-0.078061
O384	O	0.435698	0.255186	0.255272
C385	C	-0.160995	-0.402203	-0.402125
C386	C	0.172339	-0.068870	-0.068792
C387	C	0.505672	0.264463	0.264542
H388	H	-0.151328	-0.349939	-0.380045
H389	H	0.182005	-0.016606	-0.046712
H390	H	0.515338	0.316728	0.286622
H391	H	-0.134154	-0.406865	-0.452820
H392	H	0.199179	-0.073531	-0.119486
H393	H	0.532512	0.259802	0.213847
H394	H	-0.140918	-0.442303	-0.366017
H395	H	0.192415	-0.108970	-0.032684
H396	H	0.525748	0.224364	0.300649
H397	H	-0.720623	-0.404720	-0.404590
H398	H	-0.387290	-0.071387	-0.071256
H399	H	-0.053956	0.261947	0.262077
