data_functionalizedCrystal
_audit_creation_method	'MofGen! by Chris Wilmer'
_symmetry_space_group_name_H-M	'P1'
_symmetry_Int_Tables_number	1
_symmetry_cell_setting	triclinic
loop_
_symmetry_equiv_pos_as_xyz
  x,y,z
_cell_length_a	10.654541
_cell_length_b	14.519709
_cell_length_c	9.130307
_cell_angle_alpha	89.995756
_cell_angle_beta	89.999822
_cell_angle_gamma	84.082037
loop_
_atom_site_label
_atom_site_type_symbol
_atom_site_fract_x
_atom_site_fract_y
_atom_site_fract_z
O1	O	1.666593	0.129520	-0.121758
O2	O	1.300996	0.141863	-0.121771
O3	O	1.493488	0.001504	-0.121751
O4	O	1.474101	0.269880	-0.121778
O5	O	1.493481	0.001502	0.121848
O6	O	1.300989	0.141862	0.121828
O7	O	1.666587	0.129519	0.121841
Cu8	Cu	1.483788	0.135690	0.144077
Cu9	Cu	1.483795	0.135692	-0.144007
O10	O	1.474095	0.269879	0.121821
C11	C	1.254203	0.140957	0.000027
C12	C	1.114786	0.138247	0.000022
C13	C	1.085201	0.306085	-0.000013
C14	C	1.004912	0.388727	-0.000036
C15	C	0.873919	0.386175	-0.000038
C16	C	0.823213	0.300972	-0.000011
C17	C	0.903502	0.218330	0.000012
C18	C	1.034496	0.220891	0.000009
C19	C	0.933086	0.050493	0.000058
C20	C	1.064080	0.053043	0.000049
C21	C	0.882380	-0.034710	0.000085
C22	C	0.962669	-0.117354	0.000098
C23	C	1.093670	-0.114798	0.000097
C24	C	1.144369	-0.029599	0.000072
C25	C	1.492581	-0.032862	0.000049
C26	C	1.489874	-0.135257	0.000049
C27	C	1.479906	-0.510204	0.000011
C28	C	1.482674	-0.405882	0.000022
C29	C	1.484890	-0.322734	0.000032
C30	C	1.487658	-0.218405	0.000040
C31	C	1.713380	0.130425	0.000040
C32	C	1.852797	0.133135	0.000035
C33	C	1.475002	0.304244	0.000018
C34	C	1.477709	0.406639	0.000008
N35	N	1.483792	0.135689	0.346700
N36	N	1.483801	0.135686	-0.346630
C37	C	1.654313	0.011436	0.346708
C38	C	1.739582	-0.050687	0.423378
C39	C	1.739594	-0.050688	0.576712
C40	C	1.654326	0.011440	0.653378
C41	C	1.569057	0.073564	0.576707
C42	C	1.569056	0.073559	0.423370
C43	C	1.398532	0.197810	0.576700
C44	C	1.398524	0.197816	0.423366
C45	C	1.313264	0.259937	0.653366
C46	C	1.227999	0.322067	0.576695
C47	C	1.227991	0.322066	0.423352
C48	C	1.313255	0.259940	0.346695
H49	H	1.251028	-0.027510	0.000055
C50	C	0.738292	-0.037524	0.000082
H51	H	0.719596	-0.100101	0.000110
H52	H	0.703198	-0.007115	-0.084877
H53	H	0.703192	-0.007104	0.085031
C54	C	0.906891	-0.211065	0.000124
H55	H	0.817378	-0.200748	0.000119
H56	H	0.934439	-0.245128	0.085075
H57	H	0.934428	-0.245127	-0.084832
C58	C	1.181978	-0.205707	0.000115
H59	H	1.133014	-0.256810	0.000119
H60	H	1.233701	-0.208198	0.085058
H61	H	1.233686	-0.208203	-0.084850
H62	H	1.654331	0.011428	0.778230
H63	H	1.046212	0.458098	-0.000054
H64	H	0.808546	0.453470	-0.000046
H65	H	1.654322	0.011438	0.221855
H66	H	1.313273	0.259931	0.778218
C67	C	1.833369	-0.119022	0.339044
H68	H	1.821161	-0.110123	0.236743
H69	H	1.819609	-0.180668	0.364184
H70	H	1.917204	-0.108422	0.364165
C71	C	1.229289	0.308896	-0.000024
H72	H	1.247989	0.371473	-0.000037
H73	H	1.264384	0.278472	-0.084963
H74	H	1.264386	0.278490	0.084945
H75	H	1.809023	-0.101277	0.639137
C76	C	1.134219	0.390398	0.661027
H77	H	1.146440	0.381501	0.763327
H78	H	1.050387	0.379811	0.635903
H79	H	1.147994	0.452048	0.635898
C80	C	0.679124	0.298166	-0.000001
H81	H	0.638569	0.359586	-0.000022
H82	H	0.654954	0.266596	0.084954
H83	H	0.654951	0.266593	-0.084954
H84	H	1.313260	0.259936	0.221843
H85	H	1.158550	0.372650	0.360935
