data_functionalizedCrystal
_audit_creation_method	'MofGen! by Chris Wilmer'
_symmetry_space_group_name_H-M	'P1'
_symmetry_Int_Tables_number	1
_symmetry_cell_setting	triclinic
loop_
_symmetry_equiv_pos_as_xyz
  x,y,z
_cell_length_a	11.792254
_cell_length_b	14.472311
_cell_length_c	11.792241
_cell_angle_alpha	90.003432
_cell_angle_beta	95.803993
_cell_angle_gamma	90.006047
loop_
_atom_site_label
_atom_site_type_symbol
_atom_site_fract_x
_atom_site_fract_y
_atom_site_fract_z
O1	O	1.506904	0.076841	-0.155622
O2	O	2.006904	0.576841	0.344378
O3	O	1.176565	0.076843	-0.171640
O4	O	1.676565	0.576843	0.328360
O5	O	1.349751	0.076835	0.001539
O6	O	1.849751	0.576835	0.501539
O7	O	1.333718	0.076848	-0.328801
O8	O	1.833718	0.576848	0.171199
O9	O	1.349728	-0.076847	0.001516
O10	O	1.849728	0.423153	0.501516
O11	O	1.176542	-0.076839	-0.171663
O12	O	1.676542	0.423161	0.328337
O13	O	1.506881	-0.076841	-0.155645
O14	O	2.006881	0.423159	0.344355
Cu15	Cu	1.341709	-0.090873	-0.163656
Cu16	Cu	1.841709	0.409127	0.336344
Cu17	Cu	1.341737	0.090874	-0.163629
Cu18	Cu	1.841737	0.590874	0.336371
O19	O	1.333695	-0.076834	-0.328824
O20	O	1.833695	0.423166	0.171176
C21	C	1.134263	0.000002	-0.170642
C22	C	1.634263	0.500002	0.329358
C23	C	1.008250	0.000002	-0.167622
C24	C	1.508250	0.500002	0.332378
C25	C	0.905913	0.000006	-0.165168
C26	C	1.405913	0.500006	0.334832
C27	C	0.777527	0.000007	-0.162100
C28	C	1.277527	0.500007	0.337900
N29	N	1.341698	-0.218704	-0.163674
N30	N	1.841698	0.281296	0.336326
C31	C	1.341718	-0.407204	-0.163649
C32	C	1.841718	0.092796	0.336351
C33	C	1.249034	-0.446430	-0.256280
C34	C	1.749034	0.053570	0.243720
C35	C	1.248713	-0.553518	-0.256024
C36	C	1.748713	-0.053518	0.243976
C37	C	1.341737	-0.592795	-0.163627
C38	C	1.841737	-0.092795	0.336373
C39	C	1.315625	-0.553909	-0.044897
C40	C	1.815625	-0.053909	0.455103
C41	C	1.314948	-0.446788	-0.045453
C42	C	1.814948	0.053212	0.454547
C43	C	1.460794	-0.446662	-0.188681
C44	C	1.960794	0.053338	0.311319
C45	C	1.460024	-0.553791	-0.191353
C46	C	1.960024	-0.053791	0.308647
C47	C	1.341750	-0.697683	-0.163607
C48	C	1.841750	-0.197683	0.336393
C49	C	1.341702	-0.302316	-0.163662
C50	C	1.841702	0.197684	0.336338
C51	C	1.549183	0.000001	-0.156643
C52	C	2.049183	0.500001	0.343357
C53	C	1.675196	0.000007	-0.159663
C54	C	2.175196	0.500007	0.340337
C55	C	1.348732	-0.000006	0.043819
C56	C	1.848732	0.499994	0.543819
C57	C	1.345718	-0.000005	0.169832
C58	C	1.845718	0.499995	0.669832
N59	N	1.341757	0.218705	-0.163602
N60	N	1.841757	0.718705	0.336398
C61	C	1.334714	0.000009	-0.371104
C62	C	1.834714	0.500009	0.128896
C63	C	1.337728	0.000014	-0.497118
C64	C	1.837728	0.500014	0.002882
C65	C	1.340175	0.000011	0.400545
C66	C	1.840175	0.500011	0.900545
C67	C	1.343255	0.000002	0.272160
C68	C	1.843255	0.500002	0.772160
H69	H	1.264303	-0.579811	-0.344241
H70	H	1.764303	-0.079811	0.155759
H71	H	1.264366	-0.420678	-0.344796
H72	H	1.764366	0.079322	0.155204
H73	H	1.161174	-0.419530	-0.240386
H74	H	1.661174	0.080470	0.259614
H75	H	1.228099	-0.421820	-0.023578
H76	H	1.728099	0.078180	0.476422
H77	H	1.229779	-0.580761	-0.022506
H78	H	1.729779	-0.080761	0.477494
H79	H	1.160363	-0.579163	-0.239899
H80	H	1.660363	-0.079163	0.260101
H81	H	1.379874	-0.420837	0.025610
H82	H	1.879874	0.079163	0.525610
H83	H	1.381334	-0.579347	0.025749
H84	H	1.881334	-0.079347	0.525749
F85	F	1.550952	-0.413497	-0.100409
F86	F	2.050952	0.086503	0.399591
F87	F	1.493499	-0.411355	-0.299518
F88	F	1.993499	0.088645	0.200482
H89	H	1.479822	-0.579192	-0.278711
H90	H	1.979822	-0.079192	0.221289
H91	H	1.532256	-0.580526	-0.128346
H92	H	2.032256	-0.080526	0.371654
