data_functionalizedCrystal
_audit_creation_method	'MofGen! by Chris Wilmer'
_symmetry_space_group_name_H-M	'P1'
_symmetry_Int_Tables_number	1
_symmetry_cell_setting	triclinic
loop_
_symmetry_equiv_pos_as_xyz
  x,y,z
_cell_length_a	14.044190
_cell_length_b	14.044191
_cell_length_c	9.130313
_cell_angle_alpha	89.998938
_cell_angle_beta	89.990619
_cell_angle_gamma	93.191777
loop_
_atom_site_label
_atom_site_type_symbol
_atom_site_fract_x
_atom_site_fract_y
_atom_site_fract_z
O1	O	0.230200	1.277177	-0.121759
O2	O	0.730200	1.777177	0.378241
O3	O	0.221888	1.000504	-0.121776
O4	O	0.721888	1.500504	0.378224
O5	O	0.087708	1.134684	-0.121739
O6	O	0.587708	1.634684	0.378261
O7	O	0.364380	1.142997	-0.121796
O8	O	0.864380	1.642997	0.378204
O9	O	0.087703	1.134674	0.121860
O10	O	0.587703	1.634674	0.621860
O11	O	0.221883	1.000494	0.121822
O12	O	0.721883	1.500494	0.621822
O13	O	0.230195	1.277167	0.121840
O14	O	0.730195	1.777167	0.621840
Cu15	Cu	0.226039	1.138829	0.144074
Cu16	Cu	0.726039	1.638829	0.644074
Cu17	Cu	0.226045	1.138842	-0.144010
Cu18	Cu	0.726045	1.638842	0.355990
O19	O	0.364375	1.142987	0.121803
O20	O	0.864375	1.642987	0.621803
C21	C	0.218249	0.964877	0.000021
C22	C	0.718249	1.464877	0.500021
C23	C	0.207401	0.858734	0.000016
C24	C	0.707401	1.358734	0.500016
C25	C	0.264502	0.613277	0.000019
C26	C	0.764502	1.113277	0.500019
C27	C	0.187585	0.664400	0.000032
C28	C	0.687585	1.164400	0.500032
C29	C	0.198614	0.772537	0.000023
C30	C	0.698614	1.272537	0.500023
C31	C	0.253475	0.505130	0.000028
C32	C	0.753475	1.005130	0.500028
C33	C	0.052083	1.131043	0.000064
C34	C	0.552083	1.631043	0.500064
C35	C	-0.054060	1.120195	0.000076
C36	C	0.445940	1.620195	0.500076
C37	C	-0.299517	1.177296	0.000023
C38	C	0.200483	1.677296	0.500023
C39	C	-0.248394	1.100379	0.000028
C40	C	0.251606	1.600379	0.500028
C41	C	-0.140257	1.111408	0.000055
C42	C	0.359743	1.611408	0.500055
C43	C	-0.407664	1.166269	-0.000004
C44	C	0.092336	1.666269	0.499996
C45	C	0.400000	1.146628	-0.000004
C46	C	0.900000	1.646628	0.499996
C47	C	0.506143	1.157476	-0.000026
C48	C	1.006143	1.657476	0.499974
C49	C	0.233834	1.312794	0.000039
C50	C	0.733834	1.812794	0.500039
C51	C	0.244682	1.418937	0.000035
C52	C	0.744682	1.918937	0.500035
N53	N	0.226034	1.138828	0.346696
N54	N	0.726034	1.638828	0.846696
N55	N	0.226042	1.138850	-0.346633
N56	N	0.726042	1.638850	0.153367
C57	C	0.166648	1.198267	0.423365
C58	C	0.666648	1.698267	0.923365
C59	C	0.166649	1.198276	0.576702
C60	C	0.666649	1.698276	1.076702
C61	C	0.285430	1.079405	0.576688
C62	C	0.785430	1.579405	1.076688
C63	C	0.285424	1.079391	0.423354
C64	C	0.785424	1.579391	0.923354
H65	H	-0.285839	1.026247	0.000015
H66	H	0.214161	1.526247	0.500015
H67	H	-0.262074	1.251423	0.000042
H68	H	0.237926	1.751423	0.500042
H69	H	0.118289	1.246662	0.360954
H70	H	0.618289	1.746662	0.860954
H71	H	0.118291	1.246675	0.639121
H72	H	0.618291	1.746675	1.139121
O73	O	0.349496	1.015311	0.659366
O74	O	0.849496	1.515311	1.159366
H75	H	0.339534	1.025314	0.778871
H76	H	0.839534	1.525314	1.278871
O77	O	0.349482	1.015283	0.340644
O78	O	0.849482	1.515283	0.840644
H79	H	0.390791	0.973967	0.419707
H80	H	0.890791	1.473967	0.919707
H81	H	0.338629	0.650720	-0.000001
H82	H	0.838629	1.150720	0.499999
H83	H	0.113453	0.626955	-0.000056
H84	H	0.613453	1.126955	0.499944
