data_functionalizedCrystal
_audit_creation_method	'MofGen! by Chris Wilmer'
_symmetry_space_group_name_H-M	'P1'
_symmetry_Int_Tables_number	1
_symmetry_cell_setting	triclinic
loop_
_symmetry_equiv_pos_as_xyz
  x,y,z
_cell_length_a	14.519709
_cell_length_b	17.666332
_cell_length_c	14.519709
_cell_angle_alpha	90.007412
_cell_angle_beta	83.680145
_cell_angle_gamma	90.003734
loop_
_atom_site_label
_atom_site_type_symbol
_atom_site_fract_x
_atom_site_fract_y
_atom_site_fract_z
O1	O	1.223874	0.062851	0.120893
O2	O	1.723874	0.562851	0.620893
O3	O	0.955397	0.062875	0.135129
O4	O	1.455397	0.562875	0.635129
O5	O	1.096754	0.062856	-0.006227
O6	O	1.596754	0.562856	0.493773
O7	O	1.082517	0.062871	0.262250
O8	O	1.582517	0.562871	0.762250
O9	O	1.096729	-0.063041	-0.006235
O10	O	1.596729	0.436959	0.493765
O11	O	0.955372	-0.063022	0.135122
O12	O	1.455372	0.436978	0.635122
O13	O	1.223849	-0.063045	0.120885
O14	O	1.723849	0.436955	0.620885
Cu15	Cu	1.089608	-0.074529	0.128003
Cu16	Cu	1.589608	0.425471	0.628003
Cu17	Cu	1.089638	0.074358	0.128012
Cu18	Cu	1.589638	0.574358	0.628012
O19	O	1.082492	-0.063026	0.262242
O20	O	1.582492	0.436974	0.762242
C21	C	0.921025	-0.000071	0.134462
C22	C	1.421025	0.499929	0.634462
C23	C	0.818643	-0.000062	0.132474
C24	C	1.318643	0.499938	0.632474
C25	C	0.443748	-0.000097	0.125154
C26	C	0.943748	0.499903	0.625154
C27	C	0.548056	-0.000087	0.127187
C28	C	1.048056	0.499913	0.627187
C29	C	0.631192	-0.000079	0.128814
C30	C	1.131192	0.499921	0.628814
C31	C	0.735507	-0.000070	0.130847
C32	C	1.235507	0.499930	0.630847
N33	N	1.089594	-0.179248	0.127996
N34	N	1.589594	0.320752	0.627996
C35	C	1.152207	-0.218867	0.065434
C36	C	1.652207	0.281133	0.565434
C37	C	1.152213	-0.298114	0.065429
C38	C	1.652213	0.201886	0.565429
C39	C	1.089614	-0.337741	0.128003
C40	C	1.589614	0.162259	0.628003
C41	C	1.026989	-0.298113	0.190570
C42	C	1.526989	0.201887	0.690570
C43	C	1.026979	-0.218867	0.190566
C44	C	1.526979	0.281133	0.690566
N45	N	1.078009	-0.462154	0.209587
N46	N	1.578009	0.037846	0.709587
N47	N	1.078024	-0.537435	0.209587
N48	N	1.578024	-0.037435	0.709587
C49	C	1.089638	-0.576505	0.128016
C50	C	1.589638	-0.076505	0.628016
N51	N	1.101255	-0.537450	0.046442
N52	N	1.601255	-0.037450	0.546442
N53	N	1.101245	-0.462163	0.046442
N54	N	1.601245	0.037837	0.546442
C55	C	1.089617	-0.423670	0.128013
C56	C	1.589617	0.076330	0.628013
C57	C	1.152261	-0.702052	0.065444
C58	C	1.652261	-0.202052	0.565444
C59	C	1.152259	-0.781301	0.065438
C60	C	1.652259	-0.281301	0.565438
C61	C	1.027040	-0.781298	0.190587
C62	C	1.527040	-0.281298	0.690587
C63	C	1.027037	-0.702051	0.190584
C64	C	1.527037	-0.202051	0.690584
C65	C	1.089652	-0.662432	0.128014
C66	C	1.589652	-0.162432	0.628014
C67	C	1.258221	-0.000098	0.121553
C68	C	1.758221	0.499902	0.621553
C69	C	1.360602	-0.000102	0.123541
C70	C	1.860602	0.499898	0.623541
C71	C	1.096078	-0.000093	-0.040591
C72	C	1.596078	0.499907	0.459409
C73	C	1.094090	-0.000093	-0.142972
C74	C	1.594090	0.499907	0.357028
N75	N	1.089659	0.179078	0.128011
N76	N	1.589659	0.679078	0.628011
C77	C	1.086770	-0.000073	-0.517868
C78	C	1.586770	0.499927	-0.017868
C79	C	1.088803	-0.000079	-0.413560
C80	C	1.588803	0.499921	0.086440
C81	C	1.090430	-0.000084	-0.330423
C82	C	1.590430	0.499916	0.169577
C83	C	1.092463	-0.000088	-0.226109
C84	C	1.592463	0.499912	0.273891
C85	C	1.083168	-0.000076	0.296605
C86	C	1.583168	0.499924	0.796605
C87	C	1.085156	-0.000071	0.398987
C88	C	1.585156	0.499929	0.898987
H89	H	1.203202	-0.330377	0.014482
H90	H	1.703202	0.169623	0.514482
N91	N	0.959516	-0.824029	0.258071
N92	N	1.459516	-0.324029	0.758071
H93	H	0.919848	-0.786902	0.297705
H94	H	1.419848	-0.286902	0.797705
H95	H	0.918699	-0.856914	0.222663
H96	H	1.418699	-0.356914	0.722663
H97	H	1.203190	-0.186612	0.014483
H98	H	1.703190	0.313388	0.514483
H99	H	0.976055	-0.669791	0.241532
H100	H	1.476055	-0.169791	0.741532
N101	N	0.959445	-0.176138	0.258056
N102	N	1.459445	0.323862	0.758056
H103	H	0.994746	-0.143250	0.298969
H104	H	1.494746	0.356750	0.798969
H105	H	0.918570	-0.143311	0.222656
H106	H	1.418570	0.356689	0.722656
H107	H	0.976018	-0.330381	0.241517
H108	H	1.476018	0.169619	0.741517
N109	N	1.219788	-0.659314	-0.002040
N110	N	1.719788	-0.159314	0.497960
H111	H	1.259451	-0.696440	-0.041681
H112	H	1.759451	-0.196440	0.458319
H113	H	1.184416	-0.626441	-0.042890
H114	H	1.684416	-0.126441	0.457110
H115	H	1.203244	-0.813559	0.014488
H116	H	1.703244	-0.313559	0.514488
