data_functionalizedCrystal
_audit_creation_method	'MofGen! by Chris Wilmer'
_symmetry_space_group_name_H-M	'P1'
_symmetry_Int_Tables_number	1
_symmetry_cell_setting	triclinic
loop_
_symmetry_equiv_pos_as_xyz
  x,y,z
_cell_length_a	27.731994
_cell_length_b	27.732048
_cell_length_c	26.210047
_cell_angle_alpha	89.999521
_cell_angle_beta	89.997128
_cell_angle_gamma	82.631595
loop_
_atom_site_label
_atom_site_type_symbol
_atom_site_fract_x
_atom_site_fract_y
_atom_site_fract_z
O1	O	0.640948	0.057385	-0.042362
O2	O	0.974282	0.390719	0.290972
O3	O	1.307615	0.724052	0.624305
O4	O	0.500151	0.066158	-0.042379
O5	O	0.833484	0.399491	0.290954
O6	O	1.166818	0.732825	0.624287
O7	O	0.574923	-0.008626	-0.042360
O8	O	0.908256	0.324707	0.290973
O9	O	1.241589	0.658041	0.624306
O10	O	0.566177	0.132169	-0.042381
O11	O	0.899510	0.465503	0.290953
O12	O	1.232844	0.798836	0.624286
O13	O	0.574908	-0.008614	0.042498
O14	O	0.908242	0.324719	0.375831
O15	O	1.241575	0.658052	0.709164
O16	O	0.500137	0.066170	0.042479
O17	O	0.833470	0.399503	0.375812
O18	O	1.166803	0.732837	0.709145
O19	O	0.640934	0.057397	0.042496
O20	O	0.974267	0.390730	0.375830
O21	O	1.307601	0.724064	0.709163
Cu22	Cu	0.570534	0.061784	0.050236
Cu23	Cu	0.903867	0.395118	0.383569
Cu24	Cu	1.237201	0.728451	0.716902
Cu25	Cu	0.570551	0.061771	-0.050119
Cu26	Cu	0.903884	0.395104	0.283215
Cu27	Cu	1.237218	0.728437	0.616548
O28	O	0.566162	0.132181	0.042477
O29	O	0.899496	0.465514	0.375811
O30	O	1.232829	0.798848	0.709144
C31	C	0.482137	0.065984	0.000047
C32	C	0.815470	0.399317	0.333381
C33	C	1.148803	0.732651	0.666714
C34	C	0.428480	0.065442	0.000041
C35	C	0.761814	0.398775	0.333374
C36	C	1.095147	0.732108	0.666708
C37	C	0.095754	0.062032	0.046317
C38	C	0.429087	0.395366	0.379651
C39	C	0.762421	0.728699	0.712984
C40	C	-0.105904	0.059971	0.046324
C41	C	0.227429	0.393304	0.379657
C42	C	0.560762	0.726637	0.712990
O43	O	-0.131984	0.059689	0.085663
O44	O	0.201350	0.393022	0.418996
O45	O	0.534683	0.726355	0.752329
N46	N	-0.131111	0.059708	0.000067
N47	N	0.202222	0.393042	0.333401
N48	N	0.535555	0.726375	0.666734
C49	C	-0.105900	0.059958	-0.046193
C50	C	0.227433	0.393291	0.287140
C51	C	0.560767	0.726625	0.620473
O52	O	-0.131967	0.059683	-0.085537
O53	O	0.201367	0.393016	0.247796
O54	O	0.534700	0.726349	0.581130
C55	C	0.095758	0.062016	-0.046199
C56	C	0.429091	0.395350	0.287134
C57	C	0.762424	0.728683	0.620468
C58	C	0.120961	0.062283	0.000060
C59	C	0.454295	0.395617	0.333393
C60	C	0.787628	0.728950	0.666727
C61	C	0.120958	0.062299	0.092573
C62	C	0.454291	0.395632	0.425906
C63	C	0.787624	0.728966	0.759239
C64	C	0.171369	0.062817	0.092571
C65	C	0.504702	0.396150	0.425904
C66	C	0.838036	0.729484	0.759237
C67	C	0.196576	0.063068	0.046313
C68	C	0.529910	0.396402	0.379647
C69	C	0.863243	0.729735	0.712980
C70	C	0.171372	0.062802	0.000058
C71	C	0.504706	0.396135	0.333391
C72	C	0.838039	0.729468	0.666725
C73	C	0.120968	0.062263	-0.092459
C74	C	0.454302	0.395596	0.240874
C75	C	0.787635	0.728929	0.574207
C76	C	0.171386	0.062776	-0.092457
C77	C	0.504719	0.396109	0.240877
C78	C	0.838053	0.729443	0.574210
C79	C	0.196590	0.063043	-0.046197
C80	C	0.529923	0.396377	0.287136
C81	C	0.863256	0.729710	0.620469
C82	C	0.246991	0.063571	-0.046201
C83	C	0.580324	0.396904	0.287132
C84	C	0.913658	0.730237	0.620466
N85	N	0.272198	0.063833	0.000055
N86	N	0.605531	0.397167	0.333388
N87	N	0.938865	0.730500	0.666722
C88	C	0.246991	0.063582	0.046312
C89	C	0.580324	0.396915	0.379646
C90	C	0.913657	0.730249	0.712979
C91	C	-0.211773	0.058878	-0.046187
C92	C	0.121560	0.392212	0.287146
C93	C	0.454893	0.725545	0.620479
C94	C	-0.262188	0.058365	-0.046186
C95	C	0.071146	0.391698	0.287147
C96	C	0.404479	0.725031	0.620481
C97	C	-0.262188	0.058376	0.046331
C98	C	0.071145	0.391710	0.379665
C99	C	0.404478	0.725043	0.712998
C100	C	-0.211774	0.058894	0.046329
C101	C	0.121560	0.392227	0.379663
C102	C	0.454893	0.725560	0.712996
C103	C	-0.186566	0.059141	0.000069
C104	C	0.146767	0.392474	0.333402
C105	C	0.480100	0.725808	0.666736
C106	C	0.352858	0.064670	0.046305
C107	C	0.686191	0.398004	0.379638
C108	C	1.019524	0.731337	0.712971
C109	C	0.403273	0.065190	0.046298
C110	C	0.736606	0.398524	0.379632
C111	C	1.069940	0.731857	0.712965
C112	C	0.403269	0.065176	-0.046218
C113	C	0.736603	0.398509	0.287115
C114	C	1.069936	0.731843	0.620448
C115	C	0.352858	0.064659	-0.046213
C116	C	0.686191	0.397992	0.287121
C117	C	1.019525	0.731325	0.620454
C118	C	0.327654	0.064404	0.000053
C119	C	0.660987	0.397737	0.333386
C120	C	0.994320	0.731071	0.666720
O121	O	0.273102	0.063848	-0.085520
O122	O	0.606435	0.397181	0.247814
O123	O	0.939769	0.730514	0.581147
O124	O	0.273067	0.063847	0.085650
O125	O	0.606401	0.397180	0.418983
O126	O	0.939734	0.730513	0.752316
C127	C	0.045343	0.061514	0.046319
C128	C	0.378676	0.394848	0.379653
C129	C	0.712009	0.728181	0.712986
C130	C	0.020139	0.061247	0.000064
C131	C	0.353472	0.394581	0.333397
C132	C	0.686806	0.727914	0.666731
C133	C	0.045346	0.061499	-0.046193
C134	C	0.378680	0.394832	0.287140
C135	C	0.712013	0.728165	0.620473
C136	C	-0.030275	0.060734	0.000065
C137	C	0.303058	0.394067	0.333399
C138	C	0.636391	0.727400	0.666732
C139	C	-0.055483	0.060482	0.046323
C140	C	0.277851	0.393816	0.379656
C141	C	0.611184	0.727149	0.712989
C142	C	-0.030276	0.060745	0.092579
C143	C	0.303058	0.394078	0.425912
C144	C	0.636391	0.727412	0.759245
C145	C	0.020135	0.061263	0.092577
C146	C	0.353469	0.394596	0.425910
C147	C	0.686802	0.727930	0.759243
C148	C	0.020139	0.061236	-0.092449
C149	C	0.353473	0.394570	0.240884
C150	C	0.686806	0.727903	0.574217
C151	C	-0.030272	0.060719	-0.092443
C152	C	0.303061	0.394052	0.240890
C153	C	0.636395	0.727385	0.574223
C154	C	-0.055479	0.060468	-0.046186
C155	C	0.277854	0.393801	0.287147
C156	C	0.611187	0.727134	0.620481
C157	C	0.574732	-0.026627	0.000070
C158	C	0.908065	0.306706	0.333403
C159	C	1.241398	0.640040	0.666737
C160	C	0.574179	-0.080282	0.000074
C161	C	0.907512	0.253052	0.333408
C162	C	1.240846	0.586385	0.666741
C163	C	0.614884	-0.419105	0.000053
C164	C	0.948217	-0.085771	0.333387
C165	C	1.281551	0.247562	0.666720
C166	C	0.612833	-0.620764	0.000046
C167	C	0.946166	-0.287431	0.333379
C168	C	1.279499	0.045903	0.666712
O169	O	0.650055	-0.652027	0.000028
O170	O	0.983388	-0.318693	0.333362
O171	O	1.316721	0.014640	0.666695
N172	N	0.568496	-0.639879	0.000041
N173	N	0.901830	-0.306546	0.333374
N174	N	1.235163	0.026788	0.666707
C175	C	0.524670	-0.608576	0.000034
C176	C	0.858003	-0.275242	0.333367
C177	C	1.191336	0.058091	0.666701
O178	O	0.486912	-0.629462	0.000024
O179	O	0.820245	-0.296128	0.333358
O180	O	1.153578	0.037205	0.666691
C181	C	0.526721	-0.406918	0.000038
C182	C	0.860055	-0.073584	0.333371
C183	C	1.193388	0.259749	0.666704
C184	C	0.571061	-0.387805	0.000048
C185	C	0.904394	-0.054472	0.333381
C186	C	1.237727	0.278861	0.666715
C187	C	0.659220	-0.399992	0.000063
C188	C	0.992553	-0.066659	0.333396
C189	C	1.325886	0.266675	0.666730
C190	C	0.659732	-0.349580	0.000068
C191	C	0.993065	-0.016247	0.333401
C192	C	1.326399	0.317086	0.666734
C193	C	0.615908	-0.318281	0.000062
C194	C	0.949242	0.015052	0.333396
C195	C	1.282575	0.348386	0.666729
C196	C	0.571573	-0.337394	0.000053
C197	C	0.904906	-0.004060	0.333386
C198	C	1.238239	0.329273	0.666719
C199	C	0.482895	-0.375615	0.000028
C200	C	0.816228	-0.042282	0.333361
C201	C	1.149562	0.291051	0.666694
C202	C	0.483412	-0.325198	0.000027
C203	C	0.816745	0.008135	0.333361
C204	C	1.150079	0.341468	0.666694
C205	C	0.527751	-0.306086	0.000037
C206	C	0.861084	0.027247	0.333371
C207	C	1.194418	0.360581	0.666704
C208	C	0.528262	-0.255683	0.000052
C209	C	0.861595	0.077651	0.333386
C210	C	1.194928	0.410984	0.666719
N211	N	0.572598	-0.236567	0.000057
N212	N	0.905931	0.096766	0.333391
N213	N	1.239265	0.430099	0.666724
C214	C	0.616421	-0.267867	0.000062
C215	C	0.949755	0.065467	0.333396
C216	C	1.283088	0.398800	0.666729
C217	C	0.523596	-0.714450	0.000033
C218	C	0.856929	-0.381116	0.333366
C219	C	1.190262	-0.047783	0.666700
C220	C	0.523083	-0.764864	0.000033
C221	C	0.856416	-0.431531	0.333366
C222	C	1.189749	-0.098197	0.666700
C223	C	0.611246	-0.777049	0.000044
C224	C	0.944579	-0.443715	0.333377
C225	C	1.277913	-0.110382	0.666711
C226	C	0.611759	-0.726633	0.000048
C227	C	0.945092	-0.393300	0.333381
C228	C	1.278425	-0.059967	0.666714
C229	C	0.567932	-0.695335	0.000038
C230	C	0.901265	-0.362001	0.333372
C231	C	1.234599	-0.028668	0.666705
C232	C	0.617494	-0.161998	0.000073
C233	C	0.950827	0.171336	0.333406
C234	C	1.284161	0.504669	0.666739
C235	C	0.618002	-0.111581	0.000079
C236	C	0.951336	0.221752	0.333413
C237	C	1.284669	0.555086	0.666746
C238	C	0.529839	-0.099401	0.000066
C239	C	0.863173	0.233933	0.333399
C240	C	1.196506	0.567266	0.666733
C241	C	0.529331	-0.149813	0.000062
C242	C	0.862664	0.183520	0.333395
C243	C	1.195997	0.516854	0.666729
C244	C	0.573162	-0.181111	0.000063
C245	C	0.906495	0.152222	0.333397
C246	C	1.239829	0.485556	0.666730
O247	O	0.491060	-0.224391	0.000064
O248	O	0.824393	0.108942	0.333397
O249	O	1.157727	0.442275	0.666731
O250	O	0.654174	-0.246971	0.000061
O251	O	0.987507	0.086362	0.333394
O252	O	1.320841	0.419695	0.666728
C253	C	0.614372	-0.469517	0.000049
C254	C	0.947705	-0.136183	0.333382
C255	C	1.281038	0.197150	0.666715
C256	C	0.570036	-0.488629	0.000039
C257	C	0.903369	-0.155296	0.333372
C258	C	1.236703	0.178037	0.666706
C259	C	0.526213	-0.457330	0.000034
C260	C	0.859546	-0.123997	0.333367
C261	C	1.192879	0.209337	0.666700
C262	C	0.569523	-0.539043	0.000039
C263	C	0.902856	-0.205710	0.333372
C264	C	1.236190	0.127623	0.666706
C265	C	0.613346	-0.570343	0.000044
C266	C	0.946680	-0.237009	0.333377
C267	C	1.280013	0.096324	0.666711
C268	C	0.657683	-0.551228	0.000049
C269	C	0.991016	-0.217894	0.333382
C270	C	1.324349	0.115439	0.666716
C271	C	0.658195	-0.500816	0.000054
C272	C	0.991528	-0.167482	0.333387
C273	C	1.324862	0.165851	0.666720
C274	C	0.481876	-0.476445	0.000029
C275	C	0.815209	-0.143112	0.333362
C276	C	1.148543	0.190222	0.666695
C277	C	0.481367	-0.526857	0.000025
C278	C	0.814701	-0.193524	0.333358
C279	C	1.148034	0.139809	0.666691
C280	C	0.525191	-0.558157	0.000030
C281	C	0.858524	-0.224823	0.333363
C282	C	1.191858	0.108510	0.666696
C283	C	0.658949	0.057571	0.000068
C284	C	0.992282	0.390905	0.333402
C285	C	1.325615	0.724238	0.666735
C286	C	0.712605	0.058114	0.000071
C287	C	1.045938	0.391447	0.333405
C288	C	1.379272	0.724780	0.666738
C289	C	0.566353	0.150182	0.000046
C290	C	0.899687	0.483515	0.333379
C291	C	1.233020	0.816849	0.666712
C292	C	0.566906	0.203837	0.000038
C293	C	0.900239	0.537170	0.333372
C294	C	1.233573	0.870503	0.666705
N295	N	0.570526	0.061794	0.120820
N296	N	0.903859	0.395127	0.454153
N297	N	1.237192	0.728461	0.787486
N298	N	0.570563	0.061757	-0.120703
N299	N	0.903897	0.395091	0.212631
N300	N	1.237230	0.728424	0.545964
C301	C	0.603656	0.028664	0.473342
C302	C	0.936990	0.361997	0.806675
C303	C	1.270323	0.695330	1.140009
C304	C	0.603667	0.028657	0.687001
C305	C	0.937000	0.361990	1.020334
C306	C	1.270334	0.695324	1.353667
O307	O	0.631818	0.000491	0.714630
O308	O	0.965151	0.333824	1.047963
O309	O	1.298484	0.667157	1.381297
N310	N	0.570554	0.061760	0.713714
N311	N	0.903887	0.395093	1.047047
N312	N	1.237220	0.728427	1.380380
C313	C	0.537433	0.094865	0.687008
C314	C	0.870766	0.428198	1.020342
C315	C	1.204100	0.761532	1.353675
O316	O	0.509265	0.123018	0.714632
O317	O	0.842598	0.456351	1.047965
O318	O	1.175932	0.789684	1.381299
C319	C	0.537421	0.094869	0.473351
C320	C	0.870754	0.428202	0.806684
C321	C	1.204087	0.761536	1.140017
C322	C	0.570539	0.061767	0.446641
C323	C	0.903873	0.395100	0.779974
C324	C	1.237206	0.728434	1.113307
C325	C	0.636772	-0.004436	0.446632
C326	C	0.970106	0.328897	0.779965
C327	C	1.303439	0.662231	1.113299
C328	C	0.636771	-0.004432	0.393221
C329	C	0.970104	0.328901	0.726554
C330	C	1.303438	0.662235	1.059887
C331	C	0.603654	0.028671	0.366519
C332	C	0.936987	0.362005	0.699853
C333	C	1.270321	0.695338	1.033186
C334	C	0.570538	0.061771	0.393229
C335	C	0.903871	0.395104	0.726563
C336	C	1.237205	0.728438	1.059896
C337	C	0.504298	0.127971	0.446647
C338	C	0.837631	0.461305	0.779980
C339	C	1.170965	0.794638	1.113313
C340	C	0.504297	0.127969	0.393229
C341	C	0.837630	0.461302	0.726562
C342	C	1.170964	0.794635	1.059896
C343	C	0.537416	0.094867	0.366519
C344	C	0.870749	0.428200	0.699852
C345	C	1.204083	0.761533	1.033186
C346	C	0.537420	0.094878	0.313117
C347	C	0.870753	0.428211	0.646450
C348	C	1.204086	0.761545	0.979783
N349	N	0.570533	0.061775	0.286404
N350	N	0.903867	0.395108	0.619737
N351	N	1.237200	0.728442	0.953070
C352	C	0.603650	0.028672	0.313105
C353	C	0.936984	0.362005	0.646438
C354	C	1.270317	0.695338	0.979772
C355	C	0.537443	0.094861	0.799182
C356	C	0.870776	0.428195	1.132515
C357	C	1.204109	0.761528	1.465848
C358	C	0.537446	0.094861	0.852596
C359	C	0.870780	0.428194	1.185929
C360	C	1.204113	0.761527	1.519263
C361	C	0.603680	0.028652	0.852585
C362	C	0.937013	0.361985	1.185918
C363	C	1.270347	0.695319	1.519251
C364	C	0.603678	0.028655	0.799169
C365	C	0.937012	0.361988	1.132503
C366	C	1.270345	0.695322	1.465836
C367	C	0.570556	0.061758	0.772469
C368	C	0.903889	0.395091	1.105802
C369	C	1.237223	0.728425	1.439136
C370	C	0.603645	0.028682	0.200937
C371	C	0.936979	0.362016	0.534271
C372	C	1.270312	0.695349	0.867604
C373	C	0.603643	0.028690	0.147521
C374	C	0.936976	0.362024	0.480854
C375	C	1.270309	0.695357	0.814188
C376	C	0.537408	0.094897	0.147537
C377	C	0.870741	0.428231	0.480870
C378	C	1.204074	0.761564	0.814204
C379	C	0.537412	0.094891	0.200949
C380	C	0.870745	0.428225	0.534282
C381	C	1.204079	0.761558	0.867615
C382	C	0.570533	0.061780	0.227647
C383	C	0.903866	0.395113	0.560981
C384	C	1.237199	0.728446	0.894314
O385	O	0.509281	0.123026	0.285454
O386	O	0.842614	0.456359	0.618788
O387	O	1.175947	0.789693	0.952121
O388	O	0.631807	0.000516	0.285473
O389	O	0.965140	0.333849	0.618806
O390	O	1.298474	0.667183	0.952139
C391	C	0.603658	0.028660	0.526754
C392	C	0.936991	0.361993	0.860087
C393	C	1.270324	0.695327	1.193420
C394	C	0.570542	0.061760	0.553464
C395	C	0.903875	0.395093	0.886797
C396	C	1.237209	0.728426	1.220130
C397	C	0.537425	0.094863	0.526762
C398	C	0.870758	0.428196	0.860096
C399	C	1.204092	0.761530	1.193429
C400	C	0.570546	0.061759	0.606878
C401	C	0.903879	0.395093	0.940211
C402	C	1.237212	0.728426	1.273545
C403	C	0.603663	0.028656	0.633579
C404	C	0.936996	0.361989	0.966913
C405	C	1.270329	0.695322	1.300246
C406	C	0.636776	-0.004447	0.606866
C407	C	0.970109	0.328886	0.940200
C408	C	1.303443	0.662219	1.273533
C409	C	0.636775	-0.004443	0.553455
C410	C	0.970108	0.328890	0.886788
C411	C	1.303441	0.662223	1.220122
C412	C	0.504311	0.127966	0.553475
C413	C	0.837645	0.461299	0.886808
C414	C	1.170978	0.794633	1.220142
C415	C	0.504316	0.127960	0.606887
C416	C	0.837649	0.461293	0.940220
C417	C	1.170982	0.794627	1.273553
C418	C	0.537433	0.094857	0.633588
C419	C	0.870766	0.428190	0.966921
C420	C	1.204099	0.761523	1.300255
H421	H	0.100439	0.062093	0.130243
H422	H	0.433773	0.395427	0.463576
H423	H	0.767106	0.728760	0.796910
Br424	Br	0.492466	0.139823	0.111291
Br425	Br	0.825799	0.473157	0.444624
Br426	Br	1.159132	0.806490	0.777958
Br427	Br	-0.177574	0.059256	0.109112
Br428	Br	0.155760	0.392589	0.442445
Br429	Br	0.489093	0.725923	0.775778
H430	H	-0.191254	0.059079	-0.083860
H431	H	0.142079	0.392413	0.249473
H432	H	0.475412	0.725746	0.582806
Br433	Br	0.459367	0.172891	0.643130
Br434	Br	0.792701	0.506224	0.976464
Br435	Br	1.126034	0.839558	1.309797
Br436	Br	0.678181	-0.085646	0.000094
Br437	Br	1.011514	0.247687	0.333427
Br438	Br	1.344848	0.581020	0.666761
Br439	Br	-0.296408	0.058035	0.109109
Br440	Br	0.036926	0.391369	0.442442
Br441	Br	0.370259	0.724702	0.775775
H442	H	0.694908	-0.425472	0.000065
H443	H	1.028241	-0.092138	0.333399
H444	H	1.361575	0.241195	0.666732
Br445	Br	0.670720	-0.819536	0.000050
Br446	Br	1.004054	-0.486202	0.333383
Br447	Br	1.337387	-0.152869	0.666716
H448	H	-0.050789	0.060505	-0.130116
H449	H	0.282544	0.393838	0.203217
H450	H	0.615878	0.727172	0.536551
Br451	Br	0.671935	-0.700701	0.000063
Br452	Br	1.005268	-0.367368	0.333396
Br453	Br	1.338602	-0.034034	0.666729
Br454	Br	0.648624	-0.016273	0.888833
Br455	Br	0.981958	0.317060	1.222166
Br456	Br	1.315291	0.650393	1.555500
H457	H	0.493226	-0.165375	0.000068
H458	H	0.826559	0.167959	0.333401
H459	H	1.159893	0.501292	0.666734
H460	H	0.446789	-0.391167	0.000016
H461	H	0.780123	-0.057834	0.333349
H462	H	1.113456	0.275499	0.666683
H463	H	0.191907	0.062977	-0.130128
H464	H	0.525240	0.396311	0.203205
H465	H	0.858574	0.729644	0.536538
Br466	Br	-0.296388	0.058014	-0.108969
Br467	Br	0.036945	0.391347	0.224365
Br468	Br	0.370279	0.724681	0.557698
Br469	Br	0.086776	0.061899	-0.155244
Br470	Br	0.420109	0.395233	0.178090
Br471	Br	0.753443	0.728566	0.511423
Br472	Br	0.492506	0.139794	0.888839
Br473	Br	0.825839	0.473128	1.222173
Br474	Br	1.159172	0.806461	1.555506
H475	H	0.477343	0.154922	0.531739
H476	H	0.810676	0.488256	0.865072
H477	H	1.144010	0.821589	1.198406
H478	H	0.423791	0.065410	0.083970
H479	H	0.757125	0.398743	0.417303
H480	H	1.090458	0.732076	0.750636
H481	H	0.630614	0.001735	0.125775
H482	H	0.963947	0.335068	0.459109
H483	H	1.297280	0.668401	0.792442
Br484	Br	0.681717	-0.049360	0.356977
Br485	Br	1.015050	0.283973	0.690311
Br486	Br	1.348384	0.617307	1.023644
Br487	Br	-0.064496	0.060407	0.155356
Br488	Br	0.268837	0.393741	0.488689
Br489	Br	0.602170	0.727074	0.822023
Br490	Br	0.648627	-0.016271	0.762926
Br491	Br	0.981960	0.317063	1.096259
Br492	Br	1.315293	0.650396	1.429593
Br493	Br	0.676980	-0.204466	0.000074
Br494	Br	1.010313	0.128868	0.333408
Br495	Br	1.343646	0.462201	0.666741
Br496	Br	0.422395	-0.433975	0.000019
Br497	Br	0.755728	-0.100641	0.333352
Br498	Br	1.089062	0.232692	0.666686
H499	H	0.494160	-0.073908	0.000064
H500	H	0.827493	0.259425	0.333397
H501	H	1.160826	0.592759	0.666730
Br502	Br	0.462906	-0.790795	0.000031
Br503	Br	0.796239	-0.457462	0.333365
Br504	Br	1.129572	-0.124129	0.666698
Br505	Br	0.318650	0.064306	-0.108993
Br506	Br	0.651984	0.397639	0.224340
Br507	Br	0.985317	0.730972	0.557674
H508	H	0.423802	0.065383	-0.083880
H509	H	0.757135	0.398716	0.249453
H510	H	1.090469	0.732049	0.582787
H511	H	0.040652	0.061481	0.130246
H512	H	0.373985	0.394814	0.463579
H513	H	0.707318	0.728147	0.796912
H514	H	0.332341	0.064467	0.083978
H515	H	0.665675	0.397801	0.417312
H516	H	0.999008	0.731134	0.750645
H517	H	0.487905	-0.688970	0.000026
H518	H	0.821238	-0.355637	0.333359
H519	H	1.154571	-0.022303	0.666692
H520	H	0.694301	-0.485260	0.000062
H521	H	1.027634	-0.151926	0.333395
H522	H	1.360967	0.181407	0.666729
H523	H	0.040658	0.061439	-0.130118
H524	H	0.373992	0.394773	0.203215
H525	H	0.707325	0.728106	0.536548
H526	H	0.663740	-0.031395	0.468368
H527	H	0.997074	0.301938	0.801701
H528	H	1.330407	0.635272	1.135034
H529	H	0.693365	-0.576720	0.000055
H530	H	1.026699	-0.243387	0.333389
H531	H	1.360032	0.089946	0.666722
Br532	Br	0.648595	-0.016255	0.237162
Br533	Br	0.981929	0.317078	0.570496
Br534	Br	1.315262	0.650411	0.903829
H535	H	0.510470	0.121819	0.777446
H536	H	0.843803	0.455152	1.110779
H537	H	1.177137	0.788486	1.444112
H538	H	0.477324	0.154925	0.371492
H539	H	0.810657	0.488258	0.704825
H540	H	1.143990	0.821591	1.038159
H541	H	0.695837	-0.334024	0.000074
H542	H	1.029171	-0.000691	0.333407
H543	H	1.362504	0.332642	0.666740
H544	H	0.445258	-0.542413	0.000021
H545	H	0.778592	-0.209080	0.333354
H546	H	1.111925	0.124253	0.666687
H547	H	0.477329	0.154926	0.468387
H548	H	0.810663	0.488259	0.801720
H549	H	1.143996	0.821592	1.135053
H550	H	0.663743	-0.031400	0.628615
H551	H	0.997076	0.301933	0.961949
H552	H	1.330410	0.635267	1.295282
H553	H	0.447722	-0.299716	0.000019
H554	H	0.781055	0.033617	0.333352
H555	H	1.114389	0.366950	0.666686
Br556	Br	0.205566	0.063178	0.155354
Br557	Br	0.538900	0.396511	0.488688
Br558	Br	0.872233	0.729844	0.822021
Br559	Br	0.492470	0.139823	0.237197
Br560	Br	0.825803	0.473156	0.570530
Br561	Br	1.159137	0.806490	0.903863
Br562	Br	0.681724	-0.049369	0.517213
Br563	Br	1.015058	0.283964	0.850546
Br564	Br	1.348391	0.617297	1.183880
