data_functionalizedCrystal
_audit_creation_method	'MofGen! by Chris Wilmer'
_symmetry_space_group_name_H-M	'P1'
_symmetry_Int_Tables_number	1
_symmetry_cell_setting	triclinic
loop_
_symmetry_equiv_pos_as_xyz
  x,y,z
_cell_length_a	16.959455
_cell_length_b	18.101397
_cell_length_c	16.959455
_cell_angle_alpha	90.017520
_cell_angle_beta	90.001568
_cell_angle_gamma	90.017413
loop_
_atom_site_label
_atom_site_type_symbol
_atom_site_fract_x
_atom_site_fract_y
_atom_site_fract_z
Zn1	Zn	1.208282	-0.294993	0.446890
Zn2	Zn	1.208233	-0.418811	0.314704
Zn3	Zn	1.076140	-0.294982	0.314728
Zn4	Zn	1.076074	-0.418791	0.446842
O5	O	1.142182	-0.356894	0.380791
O6	O	1.318886	-0.311432	0.429365
O7	O	1.190718	-0.402389	0.204096
O8	O	1.093717	-0.191350	0.332289
O9	O	1.318850	-0.402400	0.332249
O10	O	1.190801	-0.191359	0.429388
O11	O	1.093669	-0.311412	0.204114
O12	O	0.965520	-0.311392	0.332243
O13	O	1.093605	-0.402365	0.557459
O14	O	0.965472	-0.402354	0.429307
O15	O	1.190737	-0.311412	0.557495
O16	O	1.190654	-0.522442	0.332202
O17	O	1.093558	-0.522427	0.429284
C18	C	0.936816	-0.356870	0.380773
C19	C	0.848960	-0.356877	0.380784
C20	C	0.477485	-0.309492	0.330355
C21	C	0.477483	-0.404358	0.431272
C22	C	0.560029	-0.404347	0.431267
C23	C	0.601307	-0.356909	0.380805
C24	C	0.560038	-0.309481	0.330347
C25	C	0.601304	-0.451780	0.481718
C26	C	0.683855	-0.451772	0.481715
C27	C	0.725134	-0.404329	0.431256
C28	C	0.683860	-0.356898	0.380797
C29	C	0.725138	-0.309460	0.330334
C30	C	0.683866	-0.262025	0.279879
C31	C	0.601317	-0.262038	0.279888
C32	C	0.807682	-0.404316	0.431246
C33	C	0.807691	-0.309449	0.330326
C34	C	1.142115	-0.549305	0.380753
C35	C	1.142158	-0.631619	0.380763
C36	C	1.142259	-0.930710	0.380835
C37	C	1.203179	-0.899363	0.319590
C38	C	1.203390	-0.813745	0.319749
C39	C	1.142209	-0.782327	0.380798
C40	C	1.164766	-0.813354	0.464115
C41	C	1.165237	-0.898998	0.463781
C42	C	1.058619	-0.899210	0.359484
C43	C	1.059033	-0.813560	0.357624
C44	C	1.142179	-0.698468	0.380783
C45	C	1.142291	-1.014569	0.380856
C46	C	1.348351	-0.356919	0.380810
C47	C	1.436207	-0.356930	0.380817
C48	C	1.142169	-0.356888	0.586959
C49	C	1.142164	-0.356885	0.674816
C50	C	1.142272	-0.163732	0.380847
C51	C	1.142310	-0.081418	0.380870
C52	C	1.091603	-0.404260	1.046275
C53	C	1.192748	-0.309549	1.046307
C54	C	1.192745	-0.309543	0.963761
C55	C	1.142172	-0.356897	0.922469
C56	C	1.091601	-0.404257	0.963722
C57	C	1.243321	-0.262190	0.922502
C58	C	1.243321	-0.262182	0.839951
C59	C	1.192743	-0.309533	0.798657
C60	C	1.142169	-0.356894	0.839915
C61	C	1.091595	-0.404248	0.798623
C62	C	1.041017	-0.451606	0.839879
C63	C	1.041022	-0.451607	0.922428
C64	C	1.192738	-0.309531	0.716108
C65	C	1.091593	-0.404245	0.716069
C66	C	1.142185	-0.356914	1.175425
C67	C	1.142177	-0.356906	1.087568
H68	H	0.841282	-0.442939	0.472324
H69	H	1.050421	-0.442816	1.079870
H70	H	0.717451	-0.490395	0.522799
H71	H	1.233920	-0.270975	0.682521
H72	H	1.189281	-0.792769	0.257971
H73	H	0.999847	-0.490166	0.956027
H74	H	1.233927	-0.271000	1.079932
H75	H	0.567706	-0.223420	0.238809
H76	H	0.443870	-0.442985	0.472351
H77	H	0.443877	-0.270869	0.289278
H78	H	1.011203	-0.792181	0.398966
H79	H	1.189241	-0.919992	0.257627
H80	H	1.050402	-0.442800	0.682454
H81	H	0.567690	-0.490407	0.522796
H82	H	1.264797	-0.920837	0.333554
H83	H	0.841293	-0.270814	0.289238
H84	H	1.265346	-0.793207	0.333875
H85	H	1.226373	-0.918924	0.481867
H86	H	1.122808	-0.919733	0.510986
H87	H	1.121750	-0.793002	0.510974
H88	H	1.225217	-0.791853	0.482506
H89	H	1.038094	-0.920857	0.299784
H90	H	1.042024	-0.793288	0.296310
H91	H	1.284500	-0.223641	0.956128
H92	H	0.999843	-0.490164	0.806248
H93	H	1.284505	-0.223620	0.806366
H94	H	0.717484	-0.223404	0.238789
H95	H	1.013230	-0.919483	0.404091
