data_functionalizedCrystal
_audit_creation_method	'MofGen! by Chris Wilmer'
_symmetry_space_group_name_H-M	'P1'
_symmetry_Int_Tables_number	1
_symmetry_cell_setting	triclinic
loop_
_symmetry_equiv_pos_as_xyz
  x,y,z
_cell_length_a	10.654550
_cell_length_b	19.288865
_cell_length_c	9.730223
_cell_angle_alpha	89.990377
_cell_angle_beta	89.999957
_cell_angle_gamma	83.810589
loop_
_atom_site_label
_atom_site_type_symbol
_atom_site_fract_x
_atom_site_fract_y
_atom_site_fract_z
O1	O	1.665751	0.097555	-0.114205
O2	O	1.300073	0.106849	-0.114232
O3	O	1.493478	0.001141	-0.114191
O4	O	1.472346	0.203263	-0.114247
O5	O	1.493466	0.001138	0.114389
O6	O	1.300061	0.106846	0.114348
O7	O	1.665738	0.097552	0.114375
Zn8	Zn	1.482898	0.102198	0.150653
Zn9	Zn	1.482914	0.102202	-0.150511
O10	O	1.472333	0.203260	0.114333
C11	C	1.253284	0.106165	0.000055
C12	C	1.113884	0.104123	0.000046
C13	C	1.033066	0.166363	0.000033
C14	C	0.902087	0.164440	0.000057
C15	C	0.932756	0.038033	0.000102
C16	C	1.063733	0.039956	0.000088
C17	C	1.492792	-0.024742	0.000103
C18	C	1.490751	-0.101859	0.000115
C19	C	1.604232	-0.145812	0.000131
C20	C	1.602315	-0.218272	0.000109
C21	C	1.486909	-0.246775	0.000099
C22	C	1.373413	-0.202812	0.000076
C23	C	1.375334	-0.130354	0.000085
C24	C	1.396183	-0.355657	0.080159
C25	C	1.394267	-0.428114	0.080160
C26	C	1.480980	-0.470259	0.000068
C27	C	1.569631	-0.439940	-0.080006
C28	C	1.571552	-0.367482	-0.079998
C29	C	1.484814	-0.325343	0.000090
C30	C	1.592390	-0.592782	0.000057
C31	C	1.590467	-0.665243	0.000027
C32	C	1.361562	-0.649781	0.000009
C33	C	1.363488	-0.577322	0.000025
C34	C	1.478905	-0.548827	0.000056
C35	C	1.712528	0.098236	0.000085
C36	C	1.851928	0.100277	0.000085
C37	C	1.473020	0.229142	0.000036
C38	C	1.475061	0.306259	0.000015
N39	N	1.482896	0.102195	0.356190
N40	N	1.482926	0.102200	-0.356047
C41	C	1.568564	0.055408	0.428134
C42	C	1.568577	0.055408	0.572017
C43	C	1.397248	0.148990	0.571999
C44	C	1.397231	0.148986	0.428118
H45	H	1.698214	-0.122616	0.000151
H46	H	1.322077	-0.452794	0.145353
H47	H	1.325567	-0.321348	0.145387
H48	H	1.327503	0.187086	0.630577
O49	O	1.249533	-0.677541	-0.000188
C50	C	1.241568	-0.718961	-0.118599
H51	H	1.340651	-0.736523	-0.158057
H52	H	1.191773	-0.766645	-0.091990
H53	H	1.185839	-0.687210	-0.201496
O54	O	1.651570	0.009896	0.358141
C55	C	1.584511	-0.033312	0.275016
H56	H	1.486115	-0.006128	0.253430
H57	H	1.636975	-0.044079	0.173849
H58	H	1.576219	-0.084667	0.330547
O59	O	1.081576	0.228751	0.000065
C60	C	0.982151	0.283272	0.000026
H61	H	0.893286	0.263370	0.043317
H62	H	1.009274	0.328030	0.066372
H63	H	0.963495	0.302502	-0.109639
O64	O	0.823455	0.224854	-0.000147
C65	C	0.746784	0.227529	-0.118539
H66	H	0.740467	0.172365	-0.157978
H67	H	0.648195	0.252929	-0.091914
H68	H	0.789689	0.259455	-0.201458
O69	O	0.883826	-0.024236	0.000071
C70	C	0.750892	-0.012589	0.000112
H71	H	0.719821	0.041466	-0.043179
H72	H	0.710903	-0.053684	-0.066234
H73	H	0.714457	-0.016131	0.109777
H74	H	1.638334	0.017308	0.630590
O75	O	1.253167	-0.534694	-0.000155
C76	C	1.183092	-0.547672	-0.118563
H77	H	1.214242	-0.602474	-0.158037
H78	H	1.078325	-0.543084	-0.091944
H79	H	1.200040	-0.507952	-0.201452
O80	O	1.313961	0.194505	0.358436
C81	C	1.238341	0.235797	0.452771
H82	H	1.289828	0.236854	0.555327
H83	H	1.218855	0.291165	0.411169
H84	H	1.145191	0.212762	0.468098
H85	H	1.129539	-0.010730	0.000102
H86	H	1.694728	-0.254065	0.000115
O87	O	1.657699	-0.338139	-0.157911
C88	C	1.733850	-0.390869	-0.228581
H89	H	1.681238	-0.439060	-0.238263
H90	H	1.756542	-0.371413	-0.335430
H91	H	1.825347	-0.404771	-0.169199
H92	H	1.640240	-0.474253	-0.145225
O93	O	1.704610	-0.565211	0.000002
C94	C	1.804364	-0.619548	0.000025
H95	H	1.769441	-0.668928	-0.043255
H96	H	1.884960	-0.604010	-0.066339
H97	H	1.839356	-0.629644	0.109684
O98	O	1.700626	-0.708014	0.000218
C99	C	1.706362	-0.750395	0.118608
H100	H	1.606702	-0.754543	0.158059
H101	H	1.753449	-0.804616	0.091975
H102	H	1.763575	-0.726298	0.201520
H103	H	1.279449	-0.226024	0.000066
O104	O	1.264977	-0.087753	0.000138
C105	C	1.162701	-0.128444	0.000082
H106	H	1.194877	-0.182367	0.043349
H107	H	1.083207	-0.102111	0.066441
H108	H	1.127314	-0.133758	-0.109585
