data_functionalizedCrystal
_audit_creation_method	'MofGen! by Chris Wilmer'
_symmetry_space_group_name_H-M	'P1'
_symmetry_Int_Tables_number	1
_symmetry_cell_setting	triclinic
loop_
_symmetry_equiv_pos_as_xyz
  x,y,z
_cell_length_a	38.067044
_cell_length_b	38.077471
_cell_length_c	38.067077
_cell_angle_alpha	59.997213
_cell_angle_beta	89.997014
_cell_angle_gamma	59.999941
loop_
_atom_site_label
_atom_site_type_symbol
_atom_site_fract_x
_atom_site_fract_y
_atom_site_fract_z
O1	O	0.240983	0.309782	-0.010460
O2	O	0.189899	0.237866	0.010394
O3	O	0.189899	0.309779	-0.061542
O4	O	0.240983	0.237869	0.061476
O5	O	0.248326	0.251368	-0.061541
O6	O	0.248326	0.179455	0.010394
O7	O	0.299410	0.251371	-0.010459
Zn8	Zn	0.283144	0.206139	-0.000033
Zn9	Zn	0.206165	0.283098	-0.000033
O10	O	0.299410	0.179458	0.061476
C11	C	0.361071	0.449899	-0.025339
C12	C	0.403348	0.428867	-0.025638
C13	C	0.361073	0.386300	-0.025335
C14	C	0.403350	0.365365	-0.025633
C15	C	0.424685	0.386303	-0.025339
C16	C	0.339834	0.428864	-0.025633
C17	C	0.297315	0.513472	-0.020177
C18	C	0.277153	0.553648	-0.016921
C19	C	0.298889	0.573799	-0.015289
C20	C	0.277030	0.617358	-0.011756
C21	C	0.340787	0.553781	-0.016917
C22	C	0.360947	0.513609	-0.020176
C23	C	0.339211	0.493455	-0.021804
C24	C	0.493436	0.381311	-0.020181
C25	C	0.536879	0.358036	-0.016924
C26	C	0.558669	0.314521	-0.015288
C27	C	0.605773	0.289281	-0.011754
C28	C	0.537019	0.294278	-0.016912
C29	C	0.493577	0.317552	-0.020171
C30	C	0.471787	0.361067	-0.021804
C31	C	0.297319	0.381302	-0.020168
C32	C	0.277160	0.358020	-0.016902
C33	C	0.298897	0.314505	-0.015265
C34	C	0.277041	0.289263	-0.011727
C35	C	0.340794	0.294265	-0.016892
C36	C	0.360954	0.317543	-0.020157
C37	C	0.339215	0.361061	-0.021795
C38	C	0.025601	0.057329	0.031595
C39	C	0.046936	0.014767	0.031891
C40	C	0.089215	0.057327	0.031598
C41	C	0.110454	0.014764	0.031894
C42	C	0.089214	-0.006267	0.031595
C43	C	0.046937	0.078263	0.031894
C44	C	-0.127801	0.171857	0.020077
C45	C	-0.171243	0.195271	0.016820
C46	C	-0.193036	0.175176	0.015183
C47	C	-0.240142	0.200566	0.011644
C48	C	-0.171384	0.131663	0.016807
C49	C	-0.127943	0.108249	0.020070
C50	C	-0.106152	0.128348	0.021705
C51	C	0.128057	-0.148109	0.020073
C52	C	0.148079	-0.188283	0.016815
C53	C	0.189972	-0.208436	0.015180
C54	C	0.211683	-0.251990	0.011642
C55	C	0.211846	-0.188415	0.016807
C56	C	0.191827	-0.148249	0.020072
C57	C	0.149928	-0.128096	0.021702
C58	C	0.128063	0.171849	0.020088
C59	C	0.148085	0.195264	0.016828
C60	C	0.189980	0.175167	0.015195
C61	C	0.211690	0.200555	0.011658
C62	C	0.211850	0.131658	0.016817
C63	C	0.191827	0.108246	0.020075
C64	C	0.149933	0.128343	0.021714
C65	C	-0.059049	0.102958	0.025239
C66	C	-0.021502	0.082719	0.028058
C67	C	0.110923	0.082715	0.028063
C68	C	0.128227	0.102951	0.025247
C69	C	0.110921	-0.049820	0.028057
C70	C	0.128223	-0.084538	0.025238
C71	C	0.088946	0.431916	-0.406429
C72	C	0.046669	0.474478	-0.427667
C73	C	0.088946	0.431916	-0.342816
C74	C	0.046669	0.474478	-0.364151
C75	C	0.025334	0.495511	-0.406428
C76	C	0.110185	0.410980	-0.364151
C77	C	0.191987	0.317389	-0.445274
C78	C	0.212150	0.293976	-0.465296
C79	C	0.190413	0.314073	-0.507190
C80	C	0.212271	0.288683	-0.528899
C81	C	0.148513	0.357586	-0.529062
C82	C	0.128356	0.381000	-0.509042
C83	C	0.150094	0.360899	-0.467146
C84	C	-0.128067	0.637357	-0.509466
C85	C	-0.171509	0.677531	-0.529629
C86	C	-0.193303	0.697683	-0.507894
C87	C	-0.240406	0.741238	-0.529748
C88	C	-0.171650	0.677661	-0.465994
C89	C	-0.128209	0.637494	-0.445835
C90	C	-0.106420	0.617342	-0.467575
C91	C	0.191987	0.317389	-0.189414
C92	C	0.212148	0.293972	-0.145970
C93	C	0.190412	0.314069	-0.124177
C94	C	0.212269	0.288680	-0.077072
C95	C	0.148513	0.357579	-0.145828
C96	C	0.128354	0.380992	-0.189270
C97	C	0.150096	0.360896	-0.211061
C98	C	0.128231	0.386289	-0.445439
C99	C	0.110806	0.406526	-0.428136
C100	C	0.110806	0.406526	-0.295712
C101	C	0.128231	0.386289	-0.258166
C102	C	-0.021769	0.539065	-0.428286
C103	C	-0.059315	0.573784	-0.445711
O104	O	0.744326	0.179469	0.010375
O105	O	0.621309	0.251386	-0.010480
O106	O	0.693233	0.179476	0.061456
O107	O	0.672402	0.251379	-0.061561
O108	O	0.693232	0.237890	0.061451
O109	O	0.621307	0.309800	-0.010485
O110	O	0.744325	0.237883	0.010370
Zn111	Zn	0.682816	0.283116	-0.000058
Zn112	Zn	0.682818	0.206153	-0.000052
O113	O	0.672400	0.309793	-0.061566
O114	O	0.248318	0.733750	0.010374
O115	O	0.299401	0.631615	-0.010481
O116	O	0.299398	0.631605	0.061455
O117	O	0.248321	0.733760	-0.061562
O118	O	0.240969	0.631609	0.061449
O119	O	0.240972	0.631619	-0.010487
O120	O	0.189889	0.733755	0.010368
Zn121	Zn	0.206154	0.682688	-0.000060
Zn122	Zn	0.283137	0.682682	-0.000053
O123	O	0.189892	0.733764	-0.061568
O124	O	-0.378954	0.857637	-0.558456
O125	O	-0.255938	0.755495	-0.507376
O126	O	-0.327868	0.755492	-0.507369
O127	O	-0.307024	0.857640	-0.558463
O128	O	-0.327869	0.755493	-0.565797
O129	O	-0.255940	0.755496	-0.565803
O130	O	-0.378955	0.857639	-0.616884
Zn131	Zn	-0.317448	0.806568	-0.600620
Zn132	Zn	-0.317446	0.806566	-0.523639
O133	O	-0.307026	0.857642	-0.616890
O134	O	0.240987	0.237864	-0.616616
O135	O	0.189899	0.309779	-0.565534
O136	O	0.189901	0.237863	-0.565528
O137	O	0.240985	0.309779	-0.616622
O138	O	0.248327	0.179454	-0.507101
O139	O	0.248325	0.251369	-0.507107
O140	O	0.299413	0.179455	-0.558190
Zn141	Zn	0.283145	0.206138	-0.523372
Zn142	Zn	0.206167	0.283095	-0.600351
O143	O	0.299411	0.251370	-0.558195
C144	C	0.424692	0.039351	0.321712
C145	C	0.403357	0.060383	0.342952
C146	C	0.361079	0.102947	0.258101
C147	C	0.339841	0.123882	0.279437
C148	C	0.361080	0.102946	0.321714
C149	C	0.403356	0.060384	0.279435
C150	C	0.493444	-0.024221	0.321545
C151	C	0.536888	-0.064396	0.341568
C152	C	0.558677	-0.084545	0.383459
C153	C	0.605782	-0.128102	0.405170
C154	C	0.537026	-0.064526	0.405334
C155	C	0.493584	-0.024356	0.385313
C156	C	0.471795	-0.004203	0.343418
C157	C	0.361246	0.107941	0.385470
C158	C	0.341222	0.131217	0.405632
C159	C	0.299331	0.174730	0.383896
C160	C	0.277619	0.199971	0.405754
C161	C	0.277457	0.194972	0.341998
C162	C	0.297479	0.171696	0.321838
C163	C	0.339373	0.128183	0.343574
C164	C	0.361244	0.107943	0.189347
C165	C	0.341221	0.131223	0.145902
C166	C	0.299331	0.174737	0.124113
C167	C	0.277618	0.199978	0.077008
C168	C	0.277459	0.194978	0.145764
C169	C	0.297479	0.171702	0.189207
C170	C	0.339372	0.128184	0.210997
C171	C	0.708036	0.103006	0.321680
C172	C	0.708327	0.060446	0.342920
C173	C	0.708050	0.102996	0.258072
C174	C	0.708342	0.060435	0.279408
C175	C	0.708034	0.039409	0.321684
C176	C	0.708343	0.123936	0.279404
C177	C	0.702875	0.171907	0.321509
C178	C	0.699613	0.195325	0.341529
C179	C	0.697968	0.175235	0.383418
C180	C	0.694429	0.200625	0.405127
C181	C	0.699590	0.131724	0.405294
C182	C	0.702854	0.108306	0.385275
C183	C	0.704495	0.128400	0.343383
C184	C	0.702857	-0.024154	0.385438
C185	C	0.699593	-0.064326	0.405600
C186	C	0.697962	-0.084479	0.383866
C187	C	0.694422	-0.128034	0.405724
C188	C	0.699599	-0.064467	0.341970
C189	C	0.702865	-0.024298	0.321810
C190	C	0.704492	-0.004142	0.343544
C191	C	0.702904	0.171886	0.189319
C192	C	0.699650	0.195297	0.145875
C193	C	0.698020	0.175196	0.124089
C194	C	0.694496	0.200575	0.076986
C195	C	0.699640	0.131689	0.145740
C196	C	0.702892	0.108278	0.189182
C197	C	0.704524	0.128378	0.210970
C198	C	0.361050	0.386277	0.321686
C199	C	0.403328	0.365338	0.342927
C200	C	0.361055	0.449876	0.258076
C201	C	0.403332	0.428840	0.279414
C202	C	0.424665	0.386274	0.321691
C203	C	0.339814	0.428844	0.279410
C204	C	0.297293	0.381285	0.321516
C205	C	0.277129	0.358010	0.341538
C206	C	0.298863	0.314492	0.383428
C207	C	0.277004	0.289252	0.405138
C208	C	0.340761	0.294247	0.405305
C209	C	0.360923	0.317523	0.385285
C210	C	0.339189	0.361040	0.343391
C211	C	0.493415	0.317368	0.385448
C212	C	0.536859	0.293951	0.405612
C213	C	0.558649	0.314048	0.383877
C214	C	0.605754	0.288659	0.405736
C215	C	0.537000	0.357565	0.341979
C216	C	0.493559	0.380982	0.321818
C217	C	0.471768	0.360881	0.343552
C218	C	0.297302	0.513457	0.189322
C219	C	0.277144	0.553632	0.145876
C220	C	0.298883	0.573781	0.124090
C221	C	0.277028	0.617344	0.076985
C222	C	0.340779	0.553759	0.145741
C223	C	0.360939	0.513584	0.189185
C224	C	0.339198	0.493435	0.210973
C225	C	0.651261	0.495203	-0.406441
C226	C	0.650971	0.474165	-0.427676
C227	C	0.651248	0.431614	-0.342828
C228	C	0.650958	0.410673	-0.364160
C229	C	0.651265	0.431602	-0.406435
C230	C	0.650954	0.474176	-0.364165
C231	C	0.662779	0.637052	-0.445292
C232	C	0.666038	0.677226	-0.465316
C233	C	0.667682	0.697372	-0.507208
C234	C	0.671224	0.740926	-0.528918
C235	C	0.666064	0.677344	-0.529077
C236	C	0.662799	0.637178	-0.509055
C237	C	0.661157	0.617032	-0.467161
C238	C	0.662813	0.381231	-0.509460
C239	C	0.666076	0.357953	-0.529620
C240	C	0.667709	0.314436	-0.507883
C241	C	0.671254	0.289190	-0.529734
C242	C	0.666074	0.294201	-0.465985
C243	C	0.662804	0.317483	-0.445829
C244	C	0.661176	0.361000	-0.467572
C245	C	0.662728	0.381290	-0.189434
C246	C	0.665980	0.358020	-0.145992
C247	C	0.667612	0.314503	-0.124197
C248	C	0.671140	0.289269	-0.077094
C249	C	0.665995	0.294257	-0.145845
C250	C	0.662745	0.317526	-0.189286
C251	C	0.661108	0.361047	-0.211078
C252	C	0.657621	0.573474	-0.445453
C253	C	0.654801	0.538756	-0.428149
C254	C	0.654774	0.406384	-0.295727
C255	C	0.657584	0.386274	-0.258182
C256	C	0.654809	0.406359	-0.428290
C257	C	0.657633	0.386239	-0.445712
O258	O	0.672291	0.251460	0.492833
O259	O	0.693148	0.179538	0.441757
O260	O	0.621213	0.251461	0.441741
O261	O	0.744226	0.179538	0.492848
O262	O	0.621227	0.309865	0.383316
O263	O	0.693162	0.237942	0.383332
O264	O	0.672305	0.309864	0.434408
Zn265	Zn	0.682736	0.283176	0.399593
Zn266	Zn	0.682717	0.206227	0.476571
O267	O	0.744240	0.237941	0.434423
C268	C	0.025623	1.057377	-0.406453
C269	C	0.046960	1.078313	-0.427690
C270	C	0.089232	0.993774	-0.342838
C271	C	0.110474	1.014806	-0.364171
C272	C	0.089238	1.057373	-0.406448
C273	C	0.046955	1.014810	-0.364176
C274	C	-0.127781	1.107735	-0.445307
C275	C	-0.171222	1.131010	-0.465331
C276	C	-0.193012	1.174531	-0.507225
C277	C	-0.240117	1.199776	-0.528937
C278	C	-0.171357	1.194773	-0.529095
C279	C	-0.127917	1.171494	-0.509073
C280	C	-0.106129	1.127973	-0.467177
C281	C	0.128092	1.171901	-0.509480
C282	C	0.148117	1.195314	-0.529640
C283	C	0.190009	1.175217	-0.507903
C284	C	0.211723	1.200602	-0.529755
C285	C	0.211879	1.131700	-0.466003
C286	C	0.191858	1.108284	-0.445846
C287	C	0.149960	1.128392	-0.467589
C288	C	0.128067	0.851915	-0.189439
C289	C	0.148085	0.811741	-0.145996
C290	C	0.189979	0.791584	-0.124201
C291	C	0.211685	0.748025	-0.077096
C292	C	0.211852	0.811607	-0.145849
C293	C	0.191832	0.851782	-0.189291
C294	C	0.149940	0.871930	-0.211084
C295	C	-0.059026	1.102736	-0.445467
C296	C	-0.021480	1.082617	-0.428163
C297	C	0.110937	0.950215	-0.295735
C298	C	0.128237	0.915493	-0.258189
C299	C	0.110947	1.082762	-0.428304
C300	C	0.128252	1.102999	-0.445727
H301	H	0.420475	0.446473	-0.026118
Cl302	Cl	0.704925	0.000858	0.269144
Cl303	Cl	0.704896	0.053607	0.412774
Cl304	Cl	-0.198749	1.249480	-0.581761
H305	H	0.475932	0.416415	0.287705
H306	H	0.667326	0.258820	-0.128097
H307	H	0.094239	0.416419	-0.206896
Cl308	Cl	0.564102	-0.089558	0.314069
H309	H	0.420461	0.446445	0.262285
H310	H	0.029830	1.112569	-0.462424
H311	H	0.243047	0.374505	-0.015578
Cl312	Cl	0.219325	-0.123085	0.022120
H313	H	0.554749	0.373927	0.324285
H314	H	-0.188869	0.230699	0.015496
Cl315	Cl	0.368112	0.579118	-0.014866
Cl316	Cl	-0.100696	1.196937	-0.536567
Cl317	Cl	0.219322	0.053549	0.022116
Cl318	Cl	0.075397	0.197116	0.022146
H319	H	0.093960	0.868311	-0.207184
H320	H	0.475951	0.301068	-0.021491
H321	H	0.130274	0.230691	0.015506
Cl322	Cl	0.075424	1.197177	-0.536813
Cl323	Cl	0.224486	0.578808	-0.014871
Cl324	Cl	0.164082	-0.012409	0.032626
Cl325	Cl	0.697537	-0.089482	0.458267
H326	H	0.358495	0.258828	-0.015556
H327	H	0.554502	0.374524	-0.015603
H328	H	0.667299	0.374507	-0.128368
H329	H	0.475674	0.300999	0.403149
H330	H	-0.189395	0.694074	-0.448298
Cl331	Cl	0.704904	0.001181	0.412763
Cl332	Cl	0.120622	1.250019	-0.582308
H333	H	0.029822	0.997210	-0.347050
H334	H	0.661440	0.620654	-0.411181
H335	H	0.395069	0.301059	-0.021479
Cl336	Cl	0.121179	0.382835	-0.118429
H337	H	0.704210	0.072852	0.206810
H338	H	0.475696	0.416744	-0.021513
Cl339	Cl	0.650209	0.501356	-0.481315
H340	H	0.554773	-0.080939	0.439447
H341	H	0.094242	0.416428	-0.526853
H342	H	-0.110062	0.188226	0.021409
Cl343	Cl	0.564415	0.239570	-0.014857
Cl344	Cl	0.564069	0.239248	0.458281
H345	H	0.305098	0.446466	-0.026108
Cl346	Cl	0.120585	0.786574	-0.118783
H347	H	0.245964	0.115294	0.015486
Cl348	Cl	0.650220	0.357793	-0.337712
H349	H	0.145212	0.997195	-0.347041
Cl350	Cl	0.413610	0.488410	0.216403
Cl351	Cl	0.660711	0.292073	-0.216498
H352	H	0.245992	1.115333	-0.448306
Cl353	Cl	0.650213	0.501355	-0.337721
Cl354	Cl	0.264514	-0.213754	0.014759
H355	H	0.243347	0.230414	0.128019
Cl356	Cl	0.224475	0.578801	0.118660
H357	H	-0.189130	0.115304	0.015477
Cl358	Cl	0.660746	0.292046	-0.393163
H359	H	-0.189136	0.693828	-0.563742
Cl360	Cl	-0.100991	0.612328	-0.393166
Cl361	Cl	0.368111	0.579090	0.118350
H362	H	0.667408	0.374431	-0.563732
Cl363	Cl	0.219351	1.053580	-0.393177
Cl364	Cl	0.660762	0.612006	-0.536548
H365	H	0.279666	0.188175	0.287726
H366	H	0.029539	0.492075	-0.347017
H367	H	0.420453	0.331086	0.377664
H368	H	0.661392	0.416728	-0.207177
H369	H	0.209645	0.868081	-0.206915
Cl370	Cl	0.219316	0.292116	-0.392605
H371	H	0.420487	0.042779	0.262308
H372	H	-0.110045	1.072298	-0.411194
H373	H	0.698309	0.115323	0.127997
H374	H	0.395039	0.301034	0.403095
Cl375	Cl	0.020225	0.501661	-0.481300
H376	H	0.667363	0.693524	-0.447505
H377	H	0.667400	0.693753	-0.563186
H378	H	-0.188850	1.114527	-0.447522
Cl379	Cl	0.286186	0.456022	0.252958
H380	H	0.305104	0.158132	0.262306
Cl381	Cl	-0.100726	0.053550	0.022114
H382	H	0.245967	0.795190	-0.128102
H383	H	0.144918	0.376722	-0.347020
H384	H	0.708815	0.158190	0.262272
Cl385	Cl	0.264819	0.239275	-0.118755
H386	H	0.209692	0.301021	-0.207154
H387	H	0.420486	0.042773	0.377691
H388	H	0.661484	0.416665	-0.527167
Cl389	Cl	0.269987	0.436012	-0.022229
H390	H	0.279591	0.416722	0.287405
H391	H	0.698274	-0.080883	0.324276
Cl392	Cl	0.075386	-0.122773	0.022118
Cl393	Cl	0.697575	0.250020	0.314029
Cl394	Cl	0.120580	-0.213445	0.014767
H395	H	0.246264	0.258547	-0.447485
H396	H	0.420479	0.331113	-0.026108
Cl397	Cl	0.269984	0.197149	0.216424
H398	H	-0.110329	0.620954	-0.527172
Cl399	Cl	0.269987	0.488139	-0.022227
Cl400	Cl	0.704956	0.197157	0.216708
H401	H	0.029806	-0.002836	0.032371
H402	H	0.359034	0.114738	0.128278
H403	H	0.395354	0.072508	0.207087
Cl404	Cl	0.668119	0.239500	-0.438659
Cl405	Cl	0.704944	0.197166	0.268846
Cl406	Cl	0.020492	0.131141	0.032633
Cl407	Cl	0.413613	0.488449	-0.022230
Cl408	Cl	0.121192	0.382849	-0.581728
H409	H	0.475705	-0.007817	0.287434
Cl410	Cl	0.466361	0.000797	0.412816
H411	H	0.359036	0.114729	0.439746
Cl412	Cl	0.413912	0.053236	0.412798
Cl413	Cl	0.269969	0.488130	0.216712
Cl414	Cl	0.224789	0.249678	0.314673
H415	H	0.708822	0.042832	0.262280
H416	H	0.698251	0.115368	0.439404
Cl417	Cl	0.709059	0.033272	0.396549
H418	H	0.243016	0.374496	0.323723
Cl419	Cl	0.697615	0.249990	0.118660
Cl420	Cl	0.368085	0.239536	0.457971
