data_functionalizedCrystal
_audit_creation_method	'MofGen! by Chris Wilmer'
_symmetry_space_group_name_H-M	'P1'
_symmetry_Int_Tables_number	1
_symmetry_cell_setting	triclinic
loop_
_symmetry_equiv_pos_as_xyz
  x,y,z
_cell_length_a	13.897449
_cell_length_b	12.594516
_cell_length_c	13.897441
_cell_angle_alpha	90.028053
_cell_angle_beta	90.020733
_cell_angle_gamma	90.013095
loop_
_atom_site_label
_atom_site_type_symbol
_atom_site_fract_x
_atom_site_fract_y
_atom_site_fract_z
Zn1	Zn	1.474742	-0.423672	0.545398
Zn2	Zn	1.974742	0.076328	1.045398
Zn3	Zn	1.474653	-0.601683	0.384107
Zn4	Zn	1.974653	-0.101683	0.884107
Zn5	Zn	1.313431	-0.423722	0.384117
Zn6	Zn	1.813431	0.076278	0.884117
Zn7	Zn	1.313429	-0.601613	0.545359
Zn8	Zn	1.813429	-0.101613	1.045359
O9	O	1.394064	-0.512672	0.464745
O10	O	1.894064	-0.012672	0.964745
O11	O	1.609712	-0.447293	0.524015
O12	O	2.109712	0.052707	1.024015
O13	O	1.453229	-0.578126	0.249126
O14	O	1.953229	-0.078126	0.749126
O15	O	1.334868	-0.274770	0.405531
O16	O	1.834868	0.225230	0.905531
O17	O	1.609646	-0.578077	0.405515
O18	O	2.109646	-0.078077	0.905515
O19	O	1.453382	-0.274733	0.524024
O20	O	1.953382	0.225267	1.024024
O21	O	1.334781	-0.447380	0.249134
O22	O	1.834781	0.052620	0.749134
O23	O	1.178449	-0.447312	0.405494
O24	O	1.678449	0.052688	0.905494
O25	O	1.334865	-0.577958	0.680346
O26	O	1.834865	-0.077958	1.180346
O27	O	1.178448	-0.578007	0.523958
O28	O	1.678448	-0.078007	1.023958
O29	O	1.453380	-0.447226	0.680375
O30	O	1.953380	0.052774	1.180375
O31	O	1.453228	-0.750619	0.405477
O32	O	1.953228	-0.250619	0.905477
O33	O	1.334778	-0.750568	0.523949
O34	O	1.834778	-0.250568	1.023949
C35	C	1.143449	-0.512658	0.464723
C36	C	1.643449	-0.012658	0.964723
C37	C	1.036236	-0.512678	0.464737
C38	C	1.536236	-0.012678	0.964737
C39	C	1.394019	-0.789213	0.464729
C40	C	1.894019	-0.289213	0.964729
C41	C	1.394088	-0.907519	0.464754
C42	C	1.894088	-0.407519	0.964754
C43	C	0.839940	-0.512681	0.464762
C44	C	1.339940	-0.012681	0.964762
C45	C	0.949173	-0.512676	0.464745
C46	C	1.449173	-0.012676	0.964745
C47	C	1.458588	-0.976761	0.400386
C48	C	1.958588	-0.476761	0.900386
C49	C	1.482161	-1.047457	0.488426
C50	C	1.982161	-0.547457	0.988426
C51	C	1.370635	-1.047622	0.376769
C52	C	1.870635	-0.547622	0.876769
C53	C	1.417707	-0.976656	0.552841
C54	C	1.917707	-0.476656	1.052841
C55	C	1.306140	-0.976815	0.441124
C56	C	1.806140	-0.476815	0.941124
C57	C	1.329680	-1.047479	0.529225
C58	C	1.829680	-0.547479	1.029225
C59	C	1.645657	-0.512687	0.464768
C60	C	2.145657	-0.012687	0.964768
C61	C	1.752871	-0.512694	0.464778
C62	C	2.252871	-0.012694	0.964778
C63	C	1.394132	-0.512578	0.716338
C64	C	1.894132	-0.012578	1.216338
C65	C	1.394161	-0.512538	0.823552
C66	C	1.894161	-0.012538	1.323552
C67	C	1.394135	-0.235052	0.464783
C68	C	1.894135	0.264948	0.964783
C69	C	1.394165	-0.116746	0.464799
C70	C	1.894165	0.383254	0.964799
C71	C	1.394051	-0.512689	0.214131
C72	C	1.894051	-0.012689	0.714131
C73	C	1.394209	-0.512430	0.106918
C74	C	1.894209	-0.012430	0.606918
C75	C	1.394188	-0.512466	1.019848
C76	C	1.894188	-0.012466	1.519848
C77	C	1.394170	-0.512509	0.910615
C78	C	1.894170	-0.012509	1.410615
H79	H	1.556570	-1.078490	0.508439
H80	H	2.056570	-0.578490	1.008439
H81	H	1.437501	-0.945617	0.627331
H82	H	1.937501	-0.445617	1.127331
H83	H	1.513142	-0.945709	0.346001
H84	H	2.013142	-0.445709	0.846001
C85	C	1.280921	-1.053122	0.694870
C86	C	1.780921	-0.553122	1.194870
C87	C	1.256091	-1.089145	0.602815
C88	C	1.756091	-0.589145	1.102815
H89	H	1.235495	-1.078853	0.740302
H90	H	1.735495	-0.578853	1.240302
H91	H	1.280865	-0.977711	0.695615
H92	H	1.780865	-0.477711	1.195615
H93	H	1.343237	-1.078389	0.711131
H94	H	1.843237	-0.578389	1.211131
H95	H	1.193778	-1.063872	0.586551
H96	H	1.693778	-0.563872	1.086551
H97	H	1.256136	-1.164572	0.602067
H98	H	1.756136	-0.664572	1.102067
C99	C	1.181262	-0.970639	0.321836
C100	C	1.681262	-0.470639	0.821836
C101	C	1.205722	-0.934877	0.414073
C102	C	1.705722	-0.434877	0.914073
H103	H	1.119271	-0.944740	0.305128
H104	H	1.619271	-0.444740	0.805128
H105	H	1.180701	-1.046048	0.321080
H106	H	1.680701	-0.546048	0.821080
H107	H	1.227221	-0.945366	0.276742
H108	H	1.727221	-0.445366	0.776742
H109	H	1.159767	-0.960157	0.459169
H110	H	1.659767	-0.460157	0.959169
H111	H	1.206276	-0.859452	0.414836
H112	H	1.706276	-0.359452	0.914836
C113	C	1.411411	-1.053992	0.208997
C114	C	1.911411	-0.553992	0.708997
C115	C	1.343804	-1.089697	0.276298
C116	C	1.843804	-0.589697	0.776298
H117	H	1.394847	-1.079961	0.146969
H118	H	1.894847	-0.579961	0.646969
H119	H	1.473464	-1.079224	0.226241
H120	H	1.973464	-0.579224	0.726241
H121	H	1.411760	-0.978574	0.208128
H122	H	1.911760	-0.478574	0.708128
H123	H	1.343461	-1.165115	0.277172
H124	H	1.843461	-0.665115	0.777172
H125	H	1.281735	-1.064471	0.259049
H126	H	1.781735	-0.564471	0.759049
