data_functionalizedCrystal
_audit_creation_method	'MofGen! by Chris Wilmer'
_symmetry_space_group_name_H-M	'P1'
_symmetry_Int_Tables_number	1
_symmetry_cell_setting	triclinic
loop_
_symmetry_equiv_pos_as_xyz
  x,y,z
_cell_length_a	11.169417
_cell_length_b	18.215405
_cell_length_c	11.169409
_cell_angle_alpha	90.039798
_cell_angle_beta	90.019824
_cell_angle_gamma	90.025764
loop_
_atom_site_label
_atom_site_type_symbol
_atom_site_fract_x
_atom_site_fract_y
_atom_site_fract_z
Zn1	Zn	1.834841	-0.292907	0.678481
Zn2	Zn	1.834679	-0.415999	0.477771
Zn3	Zn	1.634127	-0.292952	0.477815
Zn4	Zn	1.634083	-0.415939	0.678416
O5	O	1.734433	-0.354449	0.578121
O6	O	2.002769	-0.309242	0.651865
O7	O	1.808026	-0.399720	0.309827
O8	O	1.660838	-0.189962	0.504479
O9	O	2.002651	-0.399677	0.504404
O10	O	1.808302	-0.189929	0.651907
O11	O	1.660681	-0.309319	0.309859
O12	O	1.466171	-0.309260	0.504416
O13	O	1.660764	-0.399574	0.846375
O14	O	1.466140	-0.399618	0.651797
O15	O	1.808260	-0.309184	0.846422
O16	O	1.807984	-0.518975	0.504342
O17	O	1.660607	-0.518931	0.651755
C18	C	1.422608	-0.354438	0.578105
C19	C	1.289208	-0.354451	0.578127
C20	C	1.734306	-0.545656	0.578063
C21	C	1.734362	-0.627454	0.578078
C22	C	1.811281	-0.815647	0.501462
C23	C	1.811335	-0.892506	0.501491
C24	C	1.657738	-0.892500	0.654866
C25	C	1.657691	-0.815642	0.654842
C26	C	1.734461	-0.777218	0.578133
C27	C	1.734561	-0.930934	0.578186
C28	C	1.734619	-1.014268	0.578218
C29	C	1.734405	-0.693879	0.578102
C30	C	2.047475	-0.354461	0.578137
C31	C	2.180875	-0.354466	0.578144
C32	C	1.734525	-0.354368	0.891163
C33	C	1.734564	-0.354333	1.024563
C34	C	1.734593	-0.162496	0.578205
C35	C	1.734661	-0.080697	0.578241
C36	C	1.734410	-0.354478	0.266296
C37	C	1.734603	-0.354305	0.132897
H38	H	1.873891	-0.923791	0.439059
H39	H	1.595233	-0.923794	0.717318
C40	C	1.573184	-0.773366	0.739188
C41	C	1.436756	-0.784001	0.729278
C42	C	1.352258	-0.741724	0.813624
C43	C	1.404187	-0.688812	0.907881
C44	C	1.540622	-0.678174	0.917794
C45	C	1.625120	-0.720451	0.833448
H46	H	1.398309	-0.823172	0.659500
H47	H	1.251260	-0.749600	0.806285
H48	H	1.341636	-0.657516	0.970319
H49	H	1.579069	-0.639003	0.987572
H50	H	1.726118	-0.712576	0.840787
C51	C	1.895734	-0.773379	0.417094
C52	C	1.980240	-0.815654	0.332762
C53	C	2.064699	-0.773389	0.248395
C54	C	2.064652	-0.688848	0.248359
C55	C	1.980144	-0.646569	0.332694
C56	C	1.895685	-0.688834	0.417061
H57	H	1.980277	-0.878240	0.332786
H58	H	2.127258	-0.804687	0.185965
H59	H	2.127174	-0.657561	0.185906
H60	H	1.980106	-0.583983	0.332670
H61	H	1.833125	-0.657536	0.479491
