data_functionalizedCrystal
_audit_creation_method	'MofGen! by Chris Wilmer'
_symmetry_space_group_name_H-M	'P1'
_symmetry_Int_Tables_number	1
_symmetry_cell_setting	triclinic
loop_
_symmetry_equiv_pos_as_xyz
  x,y,z
_cell_length_a	21.295411
_cell_length_b	21.395362
_cell_length_c	21.395361
_cell_angle_alpha	90.046585
_cell_angle_beta	90.021703
_cell_angle_gamma	90.043935
loop_
_atom_site_label
_atom_site_type_symbol
_atom_site_fract_x
_atom_site_fract_y
_atom_site_fract_z
Zn1	Zn	-0.356237	-0.957859	0.249244
Zn2	Zn	-0.106237	-0.707859	0.499244
Zn3	Zn	0.143763	-0.457859	0.749244
Zn4	Zn	0.393763	-0.207859	0.999244
Zn5	Zn	-0.250962	-0.957762	0.354005
Zn6	Zn	-0.000962	-0.707762	0.604005
Zn7	Zn	0.249038	-0.457762	0.854005
Zn8	Zn	0.499038	-0.207762	1.104005
Zn9	Zn	-0.250946	-0.853074	0.249274
Zn10	Zn	-0.000946	-0.603074	0.499274
Zn11	Zn	0.249054	-0.353074	0.749274
Zn12	Zn	0.499054	-0.103074	0.999274
Zn13	Zn	-0.356158	-0.853044	0.354017
Zn14	Zn	-0.106158	-0.603044	0.604017
Zn15	Zn	0.143842	-0.353044	0.854017
Zn16	Zn	0.393842	-0.103044	1.104017
O17	O	-0.303576	-0.905435	0.301635
O18	O	-0.053576	-0.655435	0.551635
O19	O	0.196424	-0.405435	0.801635
O20	O	0.446424	-0.155435	1.051635
O21	O	-0.342311	-1.045524	0.263123
O22	O	-0.092311	-0.795524	0.513123
O23	O	0.157689	-0.545524	0.763123
O24	O	0.407689	-0.295524	1.013123
O25	O	-0.162870	-0.943847	0.340119
O26	O	0.087130	-0.693847	0.590119
O27	O	0.337130	-0.443847	0.840119
O28	O	0.587130	-0.193847	1.090119
O29	O	-0.264939	-0.867028	0.161592
O30	O	-0.014939	-0.617028	0.411592
O31	O	0.235061	-0.367028	0.661592
O32	O	0.485061	-0.117028	0.911592
O33	O	-0.264966	-1.045453	0.340090
O34	O	-0.014966	-0.795453	0.590090
O35	O	0.235034	-0.545453	0.840090
O36	O	0.485034	-0.295453	1.090090
O37	O	-0.342296	-0.944013	0.161570
O38	O	-0.092296	-0.694013	0.411570
O39	O	0.157704	-0.444013	0.661570
O40	O	0.407704	-0.194013	0.911570
O41	O	-0.162859	-0.866934	0.263174
O42	O	0.087141	-0.616934	0.513174
O43	O	0.337141	-0.366934	0.763174
O44	O	0.587141	-0.116934	1.013174
O45	O	-0.264863	-0.765392	0.263186
O46	O	-0.014863	-0.515392	0.513186
O47	O	0.235137	-0.265392	0.763186
O48	O	0.485137	-0.015392	1.013186
O49	O	-0.444258	-0.866976	0.340112
O50	O	-0.194258	-0.616976	0.590112
O51	O	0.055742	-0.366976	0.840112
O52	O	0.305742	-0.116976	1.090112
O53	O	-0.342162	-0.765370	0.340140
O54	O	-0.092162	-0.515370	0.590140
O55	O	0.157838	-0.265370	0.840140
O56	O	0.407838	-0.015370	1.090140
O57	O	-0.444316	-0.943983	0.263136
O58	O	-0.194316	-0.693983	0.513136
O59	O	0.055684	-0.443983	0.763136
O60	O	0.305684	-0.193983	1.013136
O61	O	-0.264890	-0.943817	0.441684
O62	O	-0.014890	-0.693817	0.691684
O63	O	0.235110	-0.443817	0.941684
O64	O	0.485110	-0.193817	1.191684
O65	O	-0.342177	-0.866881	0.441693
O66	O	-0.092177	-0.616881	0.691693
O67	O	0.157823	-0.366881	0.941693
O68	O	0.407823	-0.116881	1.191693
C69	C	-0.303503	-0.742647	0.301668
C70	C	-0.053503	-0.492647	0.551668
C71	C	0.196497	-0.242647	0.801668
C72	C	0.446497	0.007353	1.051668
C73	C	-0.303486	-0.673006	0.301697
C74	C	-0.053486	-0.423006	0.551697
C75	C	0.196514	-0.173006	0.801697
C76	C	0.446514	0.076994	1.051697
C77	C	-0.303541	-0.905352	0.464423
C78	C	-0.053541	-0.655352	0.714423
C79	C	0.196459	-0.405352	0.964423
C80	C	0.446459	-0.155352	1.214423
C81	C	-0.303547	-0.905374	0.534064
C82	C	-0.053547	-0.655374	0.784064
C83	C	0.196453	-0.405374	1.034064
C84	C	0.446453	-0.155374	1.284064
C85	C	-0.467766	-0.905487	0.301622
C86	C	-0.217766	-0.655487	0.551622
C87	C	0.032234	-0.405487	0.801622
C88	C	0.282234	-0.155487	1.051622
C89	C	-0.537734	-0.905509	0.301616
C90	C	-0.287734	-0.655509	0.551616
C91	C	-0.037734	-0.405509	0.801616
C92	C	0.212266	-0.155509	1.051616
C93	C	-0.570632	-0.945605	0.261533
C94	C	-0.320632	-0.695605	0.511533
C95	C	-0.070632	-0.445605	0.761533
C96	C	0.179368	-0.195605	1.011533
C97	C	-0.636374	-0.945604	0.261506
C98	C	-0.386374	-0.695604	0.511506
C99	C	-0.136374	-0.445604	0.761506
C100	C	0.113626	-0.195604	1.011506
C101	C	-0.669217	-0.905514	0.301573
C102	C	-0.419217	-0.655514	0.551573
C103	C	-0.169217	-0.405514	0.801573
C104	C	0.080783	-0.155514	1.051573
C105	C	-0.636311	-0.865410	0.341659
C106	C	-0.386311	-0.615410	0.591659
C107	C	-0.136311	-0.365410	0.841659
C108	C	0.113689	-0.115410	1.091659
C109	C	-0.570570	-0.865407	0.341681
C110	C	-0.320570	-0.615407	0.591681
C111	C	-0.070570	-0.365407	0.841681
C112	C	0.179430	-0.115407	1.091681
N113	N	-0.772430	-0.900680	0.356385
N114	N	-0.522430	-0.650680	0.606385
N115	N	-0.272430	-0.400680	0.856385
N116	N	-0.022430	-0.150680	1.106385
N117	N	-0.834882	-0.900686	0.356363
N118	N	-0.584882	-0.650686	0.606363
N119	N	-0.334882	-0.400686	0.856363
N120	N	-0.084882	-0.150686	1.106363
C121	C	-0.867292	-0.905518	0.301509
C122	C	-0.617292	-0.655518	0.551509
C123	C	-0.367292	-0.405518	0.801509
C124	C	-0.117292	-0.155518	1.051509
N125	N	-0.834891	-0.910356	0.246678
N126	N	-0.584891	-0.660356	0.496678
N127	N	-0.334891	-0.410356	0.746678
N128	N	-0.084891	-0.160356	0.996678
N129	N	-0.772433	-0.910353	0.246701
N130	N	-0.522433	-0.660353	0.496701
N131	N	-0.272433	-0.410353	0.746701
N132	N	-0.022433	-0.160353	0.996701
C133	C	-0.740502	-0.905512	0.301554
C134	C	-0.490502	-0.655512	0.551554
C135	C	-0.240502	-0.405512	0.801554
C136	C	0.009498	-0.155512	1.051554
C137	C	-0.971475	-0.945615	0.261393
C138	C	-0.721475	-0.695615	0.511393
C139	C	-0.471475	-0.445615	0.761393
C140	C	-0.221475	-0.195615	1.011393
C141	C	-1.037219	-0.945610	0.261365
C142	C	-0.787219	-0.695610	0.511365
C143	C	-0.537219	-0.445610	0.761365
C144	C	-0.287219	-0.195610	1.011365
C145	C	-1.037154	-0.865419	0.341524
C146	C	-0.787154	-0.615419	0.591524
C147	C	-0.537154	-0.365419	0.841524
C148	C	-0.287154	-0.115419	1.091524
C149	C	-0.971412	-0.865421	0.341547
C150	C	-0.721412	-0.615421	0.591547
C151	C	-0.471412	-0.365421	0.841547
C152	C	-0.221412	-0.115421	1.091547
C153	C	-0.938576	-0.905522	0.301482
C154	C	-0.688576	-0.655522	0.551482
C155	C	-0.438576	-0.405522	0.801482
C156	C	-0.188576	-0.155522	1.051482
C157	C	-0.140024	-0.905419	0.301603
C158	C	0.109976	-0.655419	0.551603
C159	C	0.359976	-0.405419	0.801603
C160	C	0.609976	-0.155419	1.051603
C161	C	-0.070056	-0.905518	0.301432
C162	C	0.179944	-0.655518	0.551432
C163	C	0.429944	-0.405518	0.801432
C164	C	0.679944	-0.155518	1.051432
C165	C	-0.303649	-1.068858	0.301602
C166	C	-0.053649	-0.818858	0.551602
C167	C	0.196351	-0.568858	0.801602
C168	C	0.446351	-0.318858	1.051602
C169	C	-0.303681	-1.138499	0.301588
C170	C	-0.053681	-0.888499	0.551588
C171	C	0.196319	-0.638499	0.801588
C172	C	0.446319	-0.388499	1.051588
C173	C	-0.343676	-0.640297	0.341821
C174	C	-0.093676	-0.390297	0.591821
C175	C	0.156324	-0.140297	0.841821
C176	C	0.406324	0.109703	1.091821
C177	C	-0.343704	-0.574862	0.341805
C178	C	-0.093704	-0.324862	0.591805
C179	C	0.156296	-0.074862	0.841805
C180	C	0.406296	0.175138	1.091805
C181	C	-0.303531	-0.542138	0.301673
C182	C	-0.053531	-0.292138	0.551673
C183	C	0.196469	-0.042138	0.801673
C184	C	0.446469	0.207862	1.051673
C185	C	-0.263339	-0.574854	0.261542
C186	C	-0.013339	-0.324854	0.511542
C187	C	0.236661	-0.074854	0.761542
C188	C	0.486661	0.175146	1.011542
C189	C	-0.263317	-0.640288	0.261554
C190	C	-0.013317	-0.390288	0.511554
C191	C	0.236683	-0.140288	0.761554
C192	C	0.486683	0.109712	1.011554
C193	C	-0.246861	-0.438413	0.296626
C194	C	0.003139	-0.188413	0.546626
C195	C	0.253139	0.061587	0.796626
C196	C	0.503139	0.311587	1.046626
C197	C	-0.246883	-0.372980	0.296618
C198	C	0.003117	-0.122980	0.546618
C199	C	0.253117	0.127020	0.796618
C200	C	0.503117	0.377020	1.046618
C201	C	-0.303601	-0.340317	0.301632
C202	C	-0.053601	-0.090317	0.551632
C203	C	0.196399	0.159683	0.801632
C204	C	0.446399	0.409683	1.051632
C205	C	-0.360299	-0.373095	0.306667
C206	C	-0.110299	-0.123095	0.556667
C207	C	0.139701	0.126905	0.806667
C208	C	0.389701	0.376905	1.056667
C209	C	-0.360276	-0.438529	0.306679
C210	C	-0.110276	-0.188529	0.556679
C211	C	0.139724	0.061471	0.806679
C212	C	0.389724	0.311471	1.056679
C213	C	-0.303551	-0.471185	0.301655
C214	C	-0.053551	-0.221185	0.551655
C215	C	0.196449	0.028815	0.801655
C216	C	0.446449	0.278815	1.051655
C217	C	-0.343824	-0.236656	0.341741
C218	C	-0.093824	0.013344	0.591741
C219	C	0.156176	0.263344	0.841741
C220	C	0.406176	0.513344	1.091741
C221	C	-0.343853	-0.171219	0.341721
C222	C	-0.093853	0.078781	0.591721
C223	C	0.156147	0.328781	0.841721
C224	C	0.406147	0.578781	1.091721
C225	C	-0.263483	-0.171213	0.261462
C226	C	-0.013483	0.078787	0.511462
C227	C	0.236517	0.328787	0.761462
C228	C	0.486517	0.578787	1.011462
C229	C	-0.263459	-0.236648	0.261478
C230	C	-0.013459	0.013352	0.511478
C231	C	0.236541	0.263352	0.761478
C232	C	0.486541	0.513352	1.011478
C233	C	-0.303629	-0.269366	0.301621
C234	C	-0.053629	-0.019366	0.551621
C235	C	0.196371	0.230634	0.801621
C236	C	0.446371	0.480634	1.051621
C237	C	-0.303625	-0.905535	0.138212
C238	C	-0.053625	-0.655535	0.388212
C239	C	0.196375	-0.405535	0.638212
C240	C	0.446375	-0.155535	0.888212
C241	C	-0.303646	-0.905578	0.068570
C242	C	-0.053646	-0.655578	0.318570
C243	C	0.196354	-0.405578	0.568570
C244	C	0.446354	-0.155578	0.818570
C245	C	-0.263345	-0.945470	0.566751
C246	C	-0.013345	-0.695470	0.816751
C247	C	0.236655	-0.445470	1.066751
C248	C	0.486655	-0.195470	1.316751
C249	C	-0.263359	-0.945499	0.632187
C250	C	-0.013359	-0.695499	0.882187
C251	C	0.236641	-0.445499	1.132187
C252	C	0.486641	-0.195499	1.382187
C253	C	-0.303568	-0.905421	0.664932
C254	C	-0.053568	-0.655421	0.914932
C255	C	0.196432	-0.405421	1.164932
C256	C	0.446432	-0.155421	1.414932
C257	C	-0.343778	-0.865322	0.632237
C258	C	-0.093778	-0.615322	0.882237
C259	C	0.156222	-0.365322	1.132237
C260	C	0.406222	-0.115322	1.382237
C261	C	-0.343767	-0.865299	0.566803
C262	C	-0.093767	-0.615299	0.816803
C263	C	0.156233	-0.365299	1.066803
C264	C	0.406233	-0.115299	1.316803
C265	C	-0.308482	-0.849006	0.768663
C266	C	-0.058482	-0.599006	1.018663
C267	C	0.191518	-0.349006	1.268663
C268	C	0.441518	-0.099006	1.518663
C269	C	-0.308488	-0.849029	0.834096
C270	C	-0.058488	-0.599029	1.084096
C271	C	0.191512	-0.349029	1.334096
C272	C	0.441512	-0.099029	1.584096
C273	C	-0.303605	-0.905494	0.866753
C274	C	-0.053605	-0.655494	1.116753
C275	C	0.196395	-0.405494	1.366753
C276	C	0.446395	-0.155494	1.616753
C277	C	-0.298702	-0.961939	0.833969
C278	C	-0.048702	-0.711939	1.083969
C279	C	0.201298	-0.461939	1.333969
C280	C	0.451298	-0.211939	1.583969
C281	C	-0.298692	-0.961915	0.768535
C282	C	-0.048692	-0.711915	1.018535
C283	C	0.201308	-0.461915	1.268535
C284	C	0.451308	-0.211915	1.518535
C285	C	-0.303585	-0.905443	0.735885
C286	C	-0.053585	-0.655443	0.985885
C287	C	0.196415	-0.405443	1.235885
C288	C	0.446415	-0.155443	1.485885
C289	C	-0.263416	-0.945625	0.970393
C290	C	-0.013416	-0.695625	1.220393
C291	C	0.236584	-0.445625	1.470393
C292	C	0.486584	-0.195625	1.720393
C293	C	-0.263435	-0.945655	1.035829
C294	C	-0.013435	-0.695655	1.285829
C295	C	0.236565	-0.445655	1.535829
C296	C	0.486565	-0.195655	1.785829
C297	C	-0.343851	-0.865473	1.035878
C298	C	-0.093851	-0.615473	1.285878
C299	C	0.156149	-0.365473	1.535878
C300	C	0.406149	-0.115473	1.785878
C301	C	-0.343836	-0.865448	0.970443
C302	C	-0.093836	-0.615448	1.220443
C303	C	0.156164	-0.365448	1.470443
C304	C	0.406164	-0.115448	1.720443
C305	C	-0.303615	-0.905524	0.937704
C306	C	-0.053615	-0.655524	1.187704
C307	C	0.196385	-0.405524	1.437704
C308	C	0.446385	-0.155524	1.687704
H309	H	-0.543901	-0.978258	0.228908
H310	H	-0.293901	-0.728258	0.478908
H311	H	-0.043901	-0.478258	0.728908
H312	H	0.206099	-0.228258	0.978908
H313	H	-0.376570	-0.832795	0.943827
H314	H	-0.126570	-0.582795	1.193827
H315	H	0.123430	-0.332795	1.443827
H316	H	0.373430	-0.082795	1.693827
H317	H	-0.663055	-0.832766	0.374280
H318	H	-0.413055	-0.582766	0.624280
H319	H	-0.163055	-0.332766	0.874280
H320	H	0.086945	-0.082766	1.124280
Br321	Br	-0.292043	-1.038514	0.724044
Br322	Br	-0.042043	-0.788514	0.974044
Br323	Br	0.207957	-0.538514	1.224044
Br324	Br	0.457957	-0.288514	1.474044
Br325	Br	-0.525920	-0.810986	0.396083
Br326	Br	-0.275920	-0.560986	0.646083
Br327	Br	-0.025920	-0.310986	0.896083
Br328	Br	0.224080	-0.060986	1.146083
Br329	Br	-0.926908	-1.000035	0.207020
Br330	Br	-0.676908	-0.750035	0.457020
Br331	Br	-0.426908	-0.500035	0.707020
Br332	Br	-0.176908	-0.250035	0.957020
Br333	Br	-0.398429	-0.811086	1.080311
Br334	Br	-0.148429	-0.561086	1.330311
Br335	Br	0.101571	-0.311086	1.580311
Br336	Br	0.351571	-0.061086	1.830311
H337	H	-0.376535	-0.263296	0.374425
H338	H	-0.126535	-0.013296	0.624425
H339	H	0.123465	0.236704	0.874425
H340	H	0.373465	0.486704	1.124425
Br341	Br	-0.208824	-0.530444	0.207072
Br342	Br	0.041176	-0.280444	0.457072
Br343	Br	0.291176	-0.030444	0.707072
Br344	Br	0.541176	0.219556	0.957072
Br345	Br	-0.437220	-0.483012	0.313510
Br346	Br	-0.187220	-0.233012	0.563510
Br347	Br	0.062780	0.016988	0.813510
Br348	Br	0.312780	0.266988	1.063510
Br349	Br	-0.398406	-0.126828	0.396174
Br350	Br	-0.148406	0.123172	0.646174
Br351	Br	0.101594	0.373172	0.896174
Br352	Br	0.351594	0.623172	1.146174
Br353	Br	-0.208876	-1.000083	1.080193
Br354	Br	0.041124	-0.750083	1.330193
Br355	Br	0.291124	-0.500083	1.580193
Br356	Br	0.541124	-0.250083	1.830193
H357	H	-0.312474	-0.803068	0.860784
H358	H	-0.062474	-0.553068	1.110784
H359	H	0.187526	-0.303068	1.360784
H360	H	0.437526	-0.053068	1.610784
Br361	Br	-0.315112	-0.772368	0.724350
Br362	Br	-0.065112	-0.522368	0.974350
Br363	Br	0.184888	-0.272368	1.224350
Br364	Br	0.434888	-0.022368	1.474350
Br365	Br	-1.081867	-1.000041	0.206971
Br366	Br	-0.831867	-0.750041	0.456971
Br367	Br	-0.581867	-0.500041	0.706971
Br368	Br	-0.331867	-0.250041	0.956971
Br369	Br	-0.169880	-0.482735	0.289821
Br370	Br	0.080120	-0.232735	0.539821
Br371	Br	0.330120	0.017265	0.789821
Br372	Br	0.580120	0.267265	1.039821
H373	H	-0.376386	-0.666932	0.374507
H374	H	-0.126386	-0.416932	0.624507
H375	H	0.123614	-0.166932	0.874507
H376	H	0.373614	0.083068	1.124507
H377	H	-1.063894	-0.832770	0.374141
H378	H	-0.813894	-0.582770	0.624141
H379	H	-0.563894	-0.332770	0.874141
H380	H	-0.313894	-0.082770	1.124141
H381	H	-0.230590	-0.666919	0.228879
H382	H	0.019410	-0.416919	0.478879
H383	H	0.269410	-0.166919	0.728879
H384	H	0.519410	0.083081	0.978879
Br385	Br	-0.926761	-0.811002	0.395950
Br386	Br	-0.676761	-0.561002	0.645950
Br387	Br	-0.426761	-0.311002	0.895950
Br388	Br	-0.176761	-0.061002	1.145950
Br389	Br	-0.398354	-0.810935	0.676675
Br390	Br	-0.148354	-0.560935	0.926675
Br391	Br	0.101646	-0.310935	1.176675
Br392	Br	0.351646	-0.060935	1.426675
Br393	Br	-0.681031	-1.000009	0.207088
Br394	Br	-0.431031	-0.750009	0.457088
Br395	Br	-0.181031	-0.500009	0.707088
Br396	Br	0.068969	-0.250009	0.957088
H397	H	-0.294726	-1.007918	0.860557
H398	H	-0.044726	-0.757918	1.110557
H399	H	0.205274	-0.507918	1.360557
H400	H	0.455274	-0.257918	1.610557
Br401	Br	-0.398251	-0.530462	0.396261
Br402	Br	-0.148251	-0.280462	0.646261
Br403	Br	0.101749	-0.030462	0.896261
Br404	Br	0.351749	0.219538	1.146261
Br405	Br	-0.208768	-0.999866	0.522323
Br406	Br	0.041232	-0.749866	0.772323
Br407	Br	0.291232	-0.499866	1.022323
Br408	Br	0.541232	-0.249866	1.272323
H409	H	-0.376506	-0.832647	0.540188
H410	H	-0.126506	-0.582647	0.790188
H411	H	0.123494	-0.332647	1.040188
H412	H	0.373494	-0.082647	1.290188
H413	H	-0.230668	-0.978259	0.943736
H414	H	0.019332	-0.728259	1.193736
H415	H	0.269332	-0.478259	1.443736
H416	H	0.519332	-0.228259	1.693736
Br417	Br	-0.208968	-0.126808	0.206990
Br418	Br	0.041032	0.123192	0.456990
Br419	Br	0.291032	0.373192	0.706990
Br420	Br	0.541032	0.623192	0.956990
H421	H	-0.406484	-0.346502	0.310749
H422	H	-0.156484	-0.096502	0.560749
H423	H	0.093516	0.153498	0.810749
H424	H	0.343516	0.403498	1.060749
Br425	Br	-0.208913	-0.281041	0.207022
Br426	Br	0.041087	-0.031041	0.457022
Br427	Br	0.291087	0.218959	0.707022
Br428	Br	0.541087	0.468959	0.957022
Br429	Br	-0.169937	-0.328502	0.289787
Br430	Br	0.080063	-0.078502	0.539787
Br431	Br	0.330063	0.171498	0.789787
Br432	Br	0.580063	0.421498	1.039787
H433	H	-0.230621	-0.978153	0.658806
H434	H	0.019379	-0.728153	0.908806
H435	H	0.269379	-0.478153	1.158806
H436	H	0.519379	-0.228153	1.408806
