data_functionalizedCrystal
_audit_creation_method	'MofGen! by Chris Wilmer'
_symmetry_space_group_name_H-M	'P1'
_symmetry_Int_Tables_number	1
_symmetry_cell_setting	triclinic
loop_
_symmetry_equiv_pos_as_xyz
  x,y,z
_cell_length_a	14.971486
_cell_length_b	10.654550
_cell_length_c	9.730223
_cell_angle_alpha	89.999490
_cell_angle_beta	89.995614
_cell_angle_gamma	84.049530
loop_
_atom_site_label
_atom_site_type_symbol
_atom_site_fract_x
_atom_site_fract_y
_atom_site_fract_z
O1	O	0.125631	1.666492	-0.114188
O2	O	0.137600	1.300885	-0.114213
O3	O	0.001468	1.493488	-0.114190
O4	O	0.261762	1.473890	-0.114211
O5	O	0.001465	1.493474	0.114390
O6	O	0.137597	1.300871	0.114366
O7	O	0.125628	1.666478	0.114392
Zn8	Zn	0.131612	1.483672	0.150671
Zn9	Zn	0.131616	1.483691	-0.150493
O10	O	0.261759	1.473875	0.114369
C11	C	0.136720	1.254090	0.000073
C12	C	0.134090	1.114675	0.000064
C13	C	0.214242	1.034329	0.000061
C14	C	0.211766	0.903335	0.000086
C15	C	0.048979	0.933044	0.000109
C16	C	0.051456	1.064036	0.000095
C17	C	-0.031863	1.492604	0.000099
C18	C	-0.131174	1.489978	0.000098
C19	C	-0.187783	1.603127	0.000107
C20	C	-0.281096	1.600651	0.000093
C21	C	-0.317798	1.485026	0.000080
C22	C	-0.261181	1.371868	0.000067
C23	C	-0.167870	1.374345	0.000071
C24	C	-0.455672	1.366714	0.000061
C25	C	-0.548989	1.364237	0.000060
C26	C	-0.568898	1.593020	0.000083
C27	C	-0.475587	1.595497	0.000087
C28	C	-0.418976	1.482339	0.000077
C29	C	0.295090	1.474759	0.000076
C30	C	0.394401	1.477385	0.000069
C31	C	0.126508	1.713274	0.000102
C32	C	0.129137	1.852689	0.000102
N33	N	0.131608	1.483669	0.356208
C34	C	0.071355	1.568982	0.428144
C35	C	0.071356	1.568993	0.572027
C36	C	0.191871	1.398375	0.572025
C37	C	0.191865	1.398358	0.428144
N38	N	0.131615	1.483697	0.643971
H39	H	0.281528	1.075554	0.000047
H40	H	0.022289	1.638445	0.369576
H41	H	0.022292	1.638461	0.630593
C42	C	-0.147421	1.730326	0.000121
N43	N	-0.117024	1.826136	0.000126
C44	C	0.258193	1.304560	0.349010
N45	N	0.308162	1.233933	0.289406
H46	H	0.277034	0.837922	0.000086
H47	H	-0.327185	1.692789	0.000103
H48	H	-0.445708	1.689649	0.000108
H49	H	-0.018299	0.891798	0.000142
H50	H	-0.013817	1.129457	0.000101
H51	H	0.240932	1.328919	0.630610
H52	H	-0.614995	1.685158	0.000087
H53	H	-0.578868	1.270084	0.000071
C54	C	-0.393402	1.242233	0.000057
N55	N	-0.346500	1.148476	0.000063
H56	H	-0.291071	1.277724	0.000047
H57	H	-0.121779	1.282207	0.000063
