data_functionalizedCrystal
_audit_creation_method	'MofGen! by Chris Wilmer'
_symmetry_space_group_name_H-M	'P1'
_symmetry_Int_Tables_number	1
_symmetry_cell_setting	triclinic
loop_
_symmetry_equiv_pos_as_xyz
  x,y,z
_cell_length_a	16.109302
_cell_length_b	16.109304
_cell_length_c	14.586319
_cell_angle_alpha	89.999019
_cell_angle_beta	89.994552
_cell_angle_gamma	83.462209
loop_
_atom_site_label
_atom_site_type_symbol
_atom_site_fract_x
_atom_site_fract_y
_atom_site_fract_z
O1	O	1.103131	0.106869	-0.076276
O2	O	1.353131	0.356869	0.173724
O3	O	1.603131	0.606869	0.423724
O4	O	1.853131	0.856869	0.673724
O5	O	0.861070	0.120168	-0.076268
O6	O	1.111070	0.370168	0.173732
O7	O	1.361070	0.620168	0.423732
O8	O	1.611070	0.870168	0.673732
O9	O	0.988749	-0.007513	-0.076272
O10	O	1.238749	0.242487	0.173728
O11	O	1.488749	0.492487	0.423728
O12	O	1.738749	0.742487	0.673728
O13	O	0.975452	0.234549	-0.076271
O14	O	1.225452	0.484549	0.173729
O15	O	1.475452	0.734549	0.423729
O16	O	1.725452	0.984549	0.673729
O17	O	0.988740	-0.007514	0.076208
O18	O	1.238740	0.242486	0.326208
O19	O	1.488740	0.492486	0.576208
O20	O	1.738740	0.742486	0.826208
O21	O	0.861061	0.120166	0.076213
O22	O	1.111061	0.370166	0.326213
O23	O	1.361061	0.620166	0.576213
O24	O	1.611061	0.870166	0.826213
O25	O	1.103123	0.106867	0.076205
O26	O	1.353123	0.356867	0.326205
O27	O	1.603123	0.606867	0.576205
O28	O	1.853123	0.856867	0.826205
Cu29	Cu	0.982091	0.113516	0.090132
Cu30	Cu	1.232091	0.363516	0.340132
Cu31	Cu	1.482091	0.613516	0.590132
Cu32	Cu	1.732091	0.863516	0.840132
Cu33	Cu	0.982101	0.113518	-0.090194
Cu34	Cu	1.232101	0.363518	0.159806
Cu35	Cu	1.482101	0.613518	0.409806
Cu36	Cu	1.732101	0.863518	0.659806
O37	O	0.975443	0.234547	0.076210
O38	O	1.225443	0.484547	0.326210
O39	O	1.475443	0.734547	0.576210
O40	O	1.725443	0.984547	0.826210
C41	C	0.830090	0.119628	-0.000026
C42	C	1.080090	0.369628	0.249974
C43	C	1.330090	0.619628	0.499974
C44	C	1.580090	0.869628	0.749974
C45	C	0.737795	0.118012	-0.000024
C46	C	0.987795	0.368012	0.249976
C47	C	1.237795	0.618012	0.499976
C48	C	1.487795	0.868012	0.749976
C49	C	0.525449	0.114276	0.083084
C50	C	0.775449	0.364276	0.333084
C51	C	1.025449	0.614276	0.583084
C52	C	1.275449	0.864276	0.833084
C53	C	0.438729	0.112750	0.083081
C54	C	0.688729	0.362750	0.333081
C55	C	0.938729	0.612750	0.583081
C56	C	1.188729	0.862750	0.833081
C57	C	0.438749	0.112756	-0.083162
C58	C	0.688749	0.362756	0.166838
C59	C	0.938749	0.612756	0.416838
C60	C	1.188749	0.862756	0.666838
C61	C	0.525469	0.114277	-0.083157
C62	C	0.775469	0.364277	0.166843
C63	C	1.025469	0.614277	0.416843
C64	C	1.275469	0.864277	0.666843
C65	C	0.568816	0.115041	-0.000032
C66	C	0.818816	0.365041	0.249968
C67	C	1.068816	0.615041	0.499968
C68	C	1.318816	0.865041	0.749968
C69	C	0.395377	0.111994	-0.000039
C70	C	0.645377	0.361994	0.249961
C71	C	0.895377	0.611994	0.499961
C72	C	1.145377	0.861994	0.749961
C73	C	0.301351	0.110338	-0.000043
C74	C	0.551351	0.360338	0.249957
C75	C	0.801351	0.610338	0.499957
C76	C	1.051351	0.860338	0.749957
C77	C	0.662848	0.116695	-0.000027
C78	C	0.912848	0.366695	0.249973
C79	C	1.162848	0.616695	0.499973
C80	C	1.412848	0.866695	0.749973
C81	C	0.988206	-0.038488	-0.000034
C82	C	1.238206	0.211512	0.249966
C83	C	1.488206	0.461512	0.499966
C84	C	1.738206	0.711512	0.749966
C85	C	0.986590	-0.130784	-0.000040
C86	C	1.236590	0.119216	0.249960
C87	C	1.486590	0.369216	0.499960
C88	C	1.736590	0.619216	0.749960
C89	C	0.982861	-0.343120	-0.083154
C90	C	1.232861	-0.093120	0.166846
C91	C	1.482861	0.156880	0.416846
C92	C	1.732861	0.406880	0.666846
C93	C	0.981335	-0.429840	-0.083153
C94	C	1.231335	-0.179840	0.166847
C95	C	1.481335	0.070160	0.416847
C96	C	1.731335	0.320160	0.666847
C97	C	0.981329	-0.429839	0.083090
C98	C	1.231329	-0.179839	0.333090
C99	C	1.481329	0.070161	0.583090
C100	C	1.731329	0.320161	0.833090
C101	C	0.982849	-0.343120	0.083088
C102	C	1.232849	-0.093120	0.333088
C103	C	1.482849	0.156880	0.583088
C104	C	1.732849	0.406880	0.833088
C105	C	0.983619	-0.299763	-0.000037
C106	C	1.233619	-0.049763	0.249963
C107	C	1.483619	0.200237	0.499963
C108	C	1.733619	0.450237	0.749963
C109	C	0.980573	-0.473202	-0.000034
C110	C	1.230573	-0.223202	0.249966
C111	C	1.480573	0.026798	0.499966
C112	C	1.730573	0.276798	0.749966
C113	C	0.978918	-0.567228	-0.000032
C114	C	1.228918	-0.317228	0.249968
C115	C	1.478918	-0.067228	0.499968
C116	C	1.728918	0.182772	0.749968
C117	C	0.985272	-0.205731	-0.000039
C118	C	1.235272	0.044269	0.249961
C119	C	1.485272	0.294269	0.499961
C120	C	1.735272	0.544269	0.749961
C121	C	1.134102	0.107407	-0.000038
C122	C	1.384102	0.357407	0.249962
C123	C	1.634102	0.607407	0.499962
C124	C	1.884102	0.857407	0.749962
C125	C	1.226397	0.109022	-0.000047
C126	C	1.476397	0.359022	0.249953
C127	C	1.726397	0.609022	0.499953
C128	C	1.976397	0.859022	0.749953
C129	C	0.975987	0.265523	-0.000031
C130	C	1.225987	0.515523	0.249969
C131	C	1.475987	0.765523	0.499969
C132	C	1.725987	1.015523	0.749969
C133	C	0.977603	0.357818	-0.000030
C134	C	1.227603	0.607818	0.249970
C135	C	1.477603	0.857818	0.499970
C136	C	1.727603	1.107818	0.749970
N137	N	0.982090	0.113514	0.216963
N138	N	1.232090	0.363514	0.466963
N139	N	1.482090	0.613514	0.716963
N140	N	1.732090	0.863514	0.966963
N141	N	0.982109	0.113514	-0.217026
N142	N	1.232109	0.363514	0.032974
N143	N	1.482109	0.613514	0.282974
N144	N	1.732109	0.863514	0.532974
C145	C	1.038645	0.056996	0.451968
C146	C	1.288645	0.306996	0.701968
C147	C	1.538645	0.556996	0.951968
C148	C	1.788645	0.806996	1.201968
C149	C	1.038647	0.056994	0.547949
C150	C	1.288647	0.306994	0.797949
C151	C	1.538647	0.556994	1.047949
C152	C	1.788647	0.806994	1.297949
C153	C	0.925548	0.170034	0.547963
C154	C	1.175548	0.420034	0.797963
C155	C	1.425548	0.670034	1.047963
C156	C	1.675548	0.920034	1.297963
C157	C	0.925542	0.170032	0.451983
C158	C	1.175542	0.420032	0.701983
C159	C	1.425542	0.670032	0.951983
C160	C	1.675542	0.920032	1.201983
C161	C	0.982095	0.113514	0.403988
C162	C	1.232095	0.363514	0.653988
C163	C	1.482095	0.613514	0.903988
C164	C	1.732095	0.863514	1.153988
C165	C	0.982104	0.113514	0.595949
C166	C	1.232104	0.363514	0.845949
C167	C	1.482104	0.613514	1.095949
C168	C	1.732104	0.863514	1.345949
C169	C	0.982106	0.113513	0.700016
C170	C	1.232106	0.363513	0.950016
C171	C	1.482106	0.613513	1.200016
C172	C	1.732106	0.863513	1.450016
C173	C	0.982092	0.113514	0.299915
C174	C	1.232092	0.363514	0.549915
C175	C	1.482092	0.613514	0.799915
C176	C	1.732092	0.863514	1.049915
H177	H	0.403424	0.112127	0.150763
H178	H	0.653424	0.362127	0.400763
H179	H	0.903424	0.612127	0.650763
H180	H	1.153424	0.862127	0.900763
H181	H	1.084694	0.010972	0.587012
H182	H	1.334694	0.260972	0.837012
H183	H	1.584694	0.510972	1.087012
H184	H	1.834694	0.760972	1.337012
H185	H	0.980704	-0.465151	0.150767
H186	H	1.230704	-0.215151	0.400767
H187	H	1.480704	0.034849	0.650767
H188	H	1.730704	0.284849	0.900767
C189	C	0.983698	-0.295429	-0.174593
C190	C	1.233698	-0.045429	0.075407
C191	C	1.483698	0.204571	0.325407
C192	C	1.733698	0.454571	0.575407
N193	N	0.984326	-0.259511	-0.243468
N194	N	1.234326	-0.009511	0.006532
N195	N	1.484326	0.240489	0.256532
N196	N	1.734326	0.490489	0.506532
H197	H	1.084692	0.010975	0.412893
H198	H	1.334692	0.260975	0.662893
H199	H	1.584692	0.510975	0.912893
H200	H	1.834692	0.760975	1.162893
H201	H	0.879505	0.216051	0.587050
H202	H	1.129505	0.466051	0.837050
H203	H	1.379505	0.716051	1.087050
H204	H	1.629505	0.966051	1.337050
H205	H	0.879489	0.216055	0.412916
H206	H	1.129489	0.466055	0.662916
H207	H	1.379489	0.716055	0.912916
H208	H	1.629489	0.966055	1.162916
C209	C	0.980533	-0.477533	-0.174589
C210	C	1.230533	-0.227533	0.075411
C211	C	1.480533	0.022467	0.325411
C212	C	1.730533	0.272467	0.575411
N213	N	0.979940	-0.513456	-0.243463
N214	N	1.229940	-0.263456	0.006537
N215	N	1.479940	-0.013456	0.256537
N216	N	1.729940	0.236544	0.506537
C217	C	0.573175	0.115113	-0.174597
C218	C	0.823175	0.365113	0.075403
C219	C	1.073175	0.615113	0.325403
C220	C	1.323175	0.865113	0.575403
N221	N	0.609108	0.115739	-0.243466
N222	N	0.859108	0.365739	0.006534
N223	N	1.109108	0.615739	0.256534
N224	N	1.359108	0.865739	0.506534
C225	C	0.573129	0.115107	0.174525
C226	C	0.823129	0.365107	0.424525
C227	C	1.073129	0.615107	0.674525
C228	C	1.323129	0.865107	0.924525
N229	N	0.609040	0.115729	0.243401
N230	N	0.859040	0.365729	0.493401
N231	N	1.109040	0.615729	0.743401
N232	N	1.359040	0.865729	0.993401
C233	C	0.983683	-0.295424	0.174528
C234	C	1.233683	-0.045424	0.424528
C235	C	1.483683	0.204576	0.674528
C236	C	1.733683	0.454576	0.924528
N237	N	0.984308	-0.259500	0.243398
N238	N	1.234308	-0.009500	0.493398
N239	N	1.484308	0.240500	0.743398
N240	N	1.734308	0.490500	0.993398
C241	C	0.391059	0.111922	-0.174595
C242	C	0.641059	0.361922	0.075405
C243	C	0.891059	0.611922	0.325405
C244	C	1.141059	0.861922	0.575405
N245	N	0.355138	0.111296	-0.243465
N246	N	0.605138	0.361296	0.006535
N247	N	0.855138	0.611296	0.256535
N248	N	1.105138	0.861296	0.506535
