data_functionalizedCrystal
_audit_creation_method	'MofGen! by Chris Wilmer'
_symmetry_space_group_name_H-M	'P1'
_symmetry_Int_Tables_number	1
_symmetry_cell_setting	triclinic
loop_
_symmetry_equiv_pos_as_xyz
  x,y,z
_cell_length_a	14.853567
_cell_length_b	13.330367
_cell_length_c	9.065218
_cell_angle_alpha	90.002749
_cell_angle_beta	84.325408
_cell_angle_gamma	90.004582
loop_
_atom_site_label
_atom_site_type_symbol
_atom_site_fract_x
_atom_site_fract_y
_atom_site_fract_z
O1	O	1.197794	0.083350	0.192615
O2	O	0.935505	0.083367	0.215560
O3	O	1.072071	0.083356	-0.010662
O4	O	1.061228	0.083361	0.418838
O5	O	1.072051	-0.083491	-0.010667
O6	O	0.935484	-0.083480	0.215555
O7	O	1.197774	-0.083497	0.192610
Cu8	Cu	1.066627	-0.098723	0.204082
Cu9	Cu	1.066651	0.098593	0.204088
O10	O	1.061208	-0.083486	0.418832
C11	C	0.901898	-0.000055	0.214518
C12	C	0.801791	-0.000048	0.211403
C13	C	0.388166	-0.000072	0.063852
C14	C	0.368873	-0.000068	0.332609
C15	C	0.462929	-0.000065	0.335539
C16	C	0.519607	-0.000064	0.202622
C17	C	0.482230	-0.000066	0.066777
C18	C	0.500313	-0.000053	0.471382
C19	C	0.594374	-0.000048	0.474316
C20	C	0.651054	-0.000054	0.341399
C21	C	0.613672	-0.000058	0.205548
C22	C	0.670350	-0.000056	0.072632
C23	C	0.632969	-0.000067	-0.063221
C24	C	0.538910	-0.000072	-0.066141
C25	C	0.745113	-0.000049	0.344319
C26	C	0.764414	-0.000050	0.075557
N27	N	1.066617	-0.237505	0.204077
C28	C	1.006177	-0.710123	0.304220
C29	C	1.127150	-0.710100	0.103945
C30	C	1.127140	-0.605082	0.103940
C31	C	1.066648	-0.552579	0.204079
C32	C	1.006166	-0.605095	0.304222
C33	C	1.187626	-0.552558	0.003809
C34	C	1.187619	-0.447534	0.003802
C35	C	1.127122	-0.395029	0.103934
C36	C	1.066638	-0.447551	0.204080
C37	C	1.006146	-0.395048	0.304218
C38	C	0.945656	-0.447568	0.404359
C39	C	0.945670	-0.552590	0.404354
C40	C	1.127109	-0.290007	0.103939
C41	C	1.006136	-0.290020	0.304220
C42	C	1.231381	-0.000073	0.193652
C43	C	1.331487	-0.000073	0.196768
C44	C	1.071019	-0.000066	-0.065631
C45	C	1.067903	-0.000061	-0.229412
N46	N	1.066668	0.237374	0.204082
C47	C	1.062260	-0.000062	0.473801
C48	C	1.065376	-0.000061	0.637582
H49	H	0.775544	-0.000042	0.454927
O50	O	0.886774	-0.396673	0.501572
C51	C	0.730721	-0.364494	0.587487
C52	C	0.797302	-0.422217	0.477337
H53	H	0.658369	-0.385109	0.567912
H54	H	0.743352	-0.385157	0.705723
H55	H	0.741160	-0.280417	0.570306
H56	H	0.786902	-0.506307	0.494383
H57	H	0.784654	-0.401470	0.359142
H58	H	1.236872	-0.404778	-0.077738
O59	O	0.887007	-0.603763	0.501576
C60	C	0.833387	-0.765568	0.590282
C61	C	0.899879	-0.707736	0.480120
H62	H	0.843758	-0.849641	0.572952
H63	H	0.846096	-0.744985	0.708516
H64	H	0.761029	-0.744882	0.570861
H65	H	0.972262	-0.728391	0.499405
H66	H	0.887092	-0.728324	0.361924
O67	O	1.185861	-0.760992	0.006469
C68	C	1.236538	-0.793189	-0.249914
C69	C	1.170014	-0.735466	-0.139674
H70	H	1.223736	-0.772588	-0.368094
H71	H	1.308922	-0.772513	-0.230619
H72	H	1.226162	-0.877266	-0.232629
H73	H	1.180307	-0.651376	-0.156893
H74	H	1.097653	-0.756225	-0.158997
O75	O	1.246332	-0.603456	-0.093669
C76	C	1.297002	-0.635653	-0.350054
C77	C	1.230488	-0.577921	-0.239810
H78	H	1.284203	-0.615045	-0.468233
H79	H	1.369390	-0.614992	-0.330759
H80	H	1.286614	-0.719728	-0.332774
H81	H	1.240794	-0.493832	-0.257025
H82	H	1.158124	-0.598665	-0.259132
O83	O	0.313915	-0.000199	0.461815
C84	C	0.268598	-0.086664	0.690586
C85	C	0.330909	-0.086628	0.544324
H86	H	0.282302	-0.156545	0.757322
H87	H	0.282350	-0.016885	0.757533
H88	H	0.194957	-0.086615	0.665129
H89	H	0.404571	-0.086712	0.569647
H90	H	0.317079	-0.156401	0.477421
H91	H	0.454159	-0.000043	0.579594
H92	H	0.956872	-0.247279	0.385760
H93	H	0.810556	-0.000053	-0.032681
O94	O	0.630718	0.000144	0.606245
C95	C	0.725745	0.086577	0.765497
C96	C	0.684631	0.086493	0.616050
H97	H	0.769358	0.156372	0.773460
H98	H	0.669107	0.086647	0.860040
H99	H	0.769258	0.016725	0.773586
H100	H	0.641127	0.156333	0.607816
H101	H	0.741312	0.086371	0.521578
H102	H	0.679129	-0.000059	-0.171441
H103	H	1.176363	-0.247250	0.022413
O104	O	0.502553	0.000104	-0.198058
C105	C	0.407509	0.086514	-0.357277
C106	C	0.448645	0.086447	-0.207849
H107	H	0.363899	0.156305	-0.365229
H108	H	0.464134	0.086578	-0.451840
H109	H	0.363987	0.016657	-0.365343
H110	H	0.492157	0.156292	-0.199639
H111	H	0.391976	0.086331	-0.113358
H112	H	0.357726	-0.000085	-0.046756
H113	H	0.956924	-0.752887	0.385749
