data_functionalizedCrystal
_audit_creation_method	'MofGen! by Chris Wilmer'
_symmetry_space_group_name_H-M	'P1'
_symmetry_Int_Tables_number	1
_symmetry_cell_setting	triclinic
loop_
_symmetry_equiv_pos_as_xyz
  x,y,z
_cell_length_a	14.853567
_cell_length_b	12.837943
_cell_length_c	11.295483
_cell_angle_alpha	94.538773
_cell_angle_beta	94.104625
_cell_angle_gamma	90.768065
loop_
_atom_site_label
_atom_site_type_symbol
_atom_site_fract_x
_atom_site_fract_y
_atom_site_fract_z
O1	O	0.228927	-1.382763	-0.098984
O2	O	0.217348	-1.080941	-0.098992
O3	O	0.092592	-1.239915	-0.098991
O4	O	0.353684	-1.223790	-0.098985
O5	O	0.103530	-1.225952	0.099059
O6	O	0.228287	-1.066978	0.099059
O7	O	0.239866	-1.368800	0.099067
Cu8	Cu	0.235075	-1.216614	0.117146
Cu9	Cu	0.222139	-1.233127	-0.117072
O10	O	0.364623	-1.209827	0.099066
C11	C	0.064410	-1.232203	0.000030
C12	C	-0.035860	-1.230014	0.000020
C13	C	0.218906	-1.035334	0.000032
C14	C	0.207240	-0.920240	0.000029
C15	C	0.238308	-1.414408	0.000040
C16	C	0.249974	-1.529502	0.000036
C17	C	-0.457187	-1.126324	0.000040
C18	C	-0.462449	-1.315188	0.000045
C19	C	-0.368241	-1.317247	0.000038
C20	C	-0.318502	-1.223843	0.000034
C21	C	-0.362970	-1.128380	0.000037
C22	C	-0.323764	-1.412707	0.000047
C23	C	-0.229551	-1.414770	0.000042
C24	C	-0.179810	-1.321366	0.000029
C25	C	-0.224285	-1.225899	0.000030
C26	C	-0.174546	-1.132495	0.000026
C27	C	-0.219019	-1.037028	0.000019
C28	C	-0.313230	-1.034976	0.000024
C29	C	-0.085599	-1.323418	0.000024
C30	C	-0.080329	-1.134551	0.000023
C31	C	0.392804	-1.217539	0.000042
C32	C	0.493073	-1.219728	0.000044
N33	N	0.244174	-1.205008	0.281883
C34	C	0.347487	-0.679482	0.000049
C35	C	0.336530	-0.571341	0.000047
C36	C	0.174369	-0.595813	0.000030
C37	C	0.185327	-0.703954	0.000032
C38	C	0.271888	-0.745785	0.000040
C39	C	0.282844	-0.853929	0.000034
C40	C	0.120685	-0.878399	0.000026
C41	C	0.109728	-0.770257	0.000023
N42	N	0.213033	-1.244742	-0.281808
C43	C	0.147484	-1.328293	0.531173
C44	C	0.154367	-1.319529	0.655836
C45	C	0.264819	-1.178712	0.655876
C46	C	0.257935	-1.187475	0.531212
C47	C	0.199267	-1.262270	0.468865
C48	C	0.192389	-1.271038	0.344199
C49	C	0.302836	-1.130216	0.344241
C50	C	0.309719	-1.121452	0.468904
H51	H	-0.039837	-1.058490	0.000014
C52	C	0.442698	-0.725508	0.000049
C53	C	0.513766	-0.693304	0.102889
C54	C	0.608978	-0.739330	0.102887
C55	C	0.633122	-0.817560	0.000043
C56	C	0.562052	-0.849768	-0.102806
C57	C	0.466840	-0.803742	-0.102803
H58	H	0.495895	-0.635389	0.179028
H59	H	0.661588	-0.715487	0.179022
H60	H	0.703603	-0.851631	0.000040
H61	H	0.579923	-0.907683	-0.178944
H62	H	0.414230	-0.827586	-0.178939
H63	H	0.144621	-1.331942	0.293437
H64	H	0.099720	-1.389201	0.480409
C65	C	0.014515	-0.724236	0.000014
C66	C	-0.045195	-0.741950	0.102847
C67	C	-0.140410	-0.695930	0.102835
C68	C	-0.175915	-0.632198	-0.000010
C69	C	-0.116204	-0.614481	-0.102851
C70	C	-0.020989	-0.660500	-0.102839
H71	H	-0.018913	-0.789131	0.178987
H72	H	-0.184611	-0.709046	0.178966
H73	H	-0.246398	-0.598131	-0.000019
H74	H	-0.142486	-0.567299	-0.178990
H75	H	0.023212	-0.647384	-0.178969
H76	H	0.112199	-1.373291	0.706564
H77	H	0.312578	-1.117809	0.706655
C78	C	0.359801	-1.057585	0.275697
C79	C	0.352235	-1.067228	0.138572
C80	C	0.409202	-0.994604	0.070027
C81	C	0.473735	-0.912338	0.138607
C82	C	0.481305	-0.902692	0.275740
C83	C	0.424338	-0.975315	0.344285
H84	H	0.304461	-1.128129	0.087798
H85	H	0.403598	-1.001745	-0.031488
H86	H	0.515906	-0.858577	0.087866
H87	H	0.529079	-0.841790	0.326514
H88	H	0.429941	-0.968174	0.445800
H89	H	-0.493402	-1.048597	0.000030
H90	H	0.357483	-1.060553	0.519682
H91	H	-0.049393	-1.401145	0.000038
C92	C	-0.180637	-1.519781	0.000037
C93	C	-0.110906	-1.539926	0.102870
C94	C	-0.061992	-1.644938	0.102860
C95	C	-0.082810	-1.729806	0.000016
C96	C	-0.152545	-1.709663	-0.102825
C97	C	-0.201458	-1.604651	-0.102815
H98	H	-0.095492	-1.477100	0.179008
H99	H	-0.010369	-1.659849	0.178990
H100	H	-0.046601	-1.807542	0.000008
H101	H	-0.167958	-1.772490	-0.178964
H102	H	-0.253081	-1.589741	-0.178945
H103	H	-0.178508	-0.960979	0.000024
H104	H	-0.349448	-0.957251	0.000020
H105	H	-0.502951	-1.391232	0.000058
H106	H	-0.364268	-1.488750	0.000062
H107	H	0.353327	-0.887985	0.000043
H108	H	0.103900	-0.561728	0.000122
H109	H	0.398091	-0.517360	0.000058
H110	H	0.059126	-0.932395	0.000010
