data_functionalizedCrystal
_audit_creation_method	'MofGen! by Chris Wilmer'
_symmetry_space_group_name_H-M	'P1'
_symmetry_Int_Tables_number	1
_symmetry_cell_setting	triclinic
loop_
_symmetry_equiv_pos_as_xyz
  x,y,z
_cell_length_a	18.215407
_cell_length_b	14.908520
_cell_length_c	18.215399
_cell_angle_alpha	86.730636
_cell_angle_beta	90.016899
_cell_angle_gamma	93.318021
loop_
_atom_site_label
_atom_site_type_symbol
_atom_site_fract_x
_atom_site_fract_y
_atom_site_fract_z
Zn1	Zn	1.108174	-0.359229	0.432964
Zn2	Zn	1.441508	-0.025896	0.766297
Zn3	Zn	1.774841	0.307437	1.099631
Zn4	Zn	1.100986	-0.510098	0.316998
Zn5	Zn	1.434319	-0.176765	0.650331
Zn6	Zn	1.767653	0.156569	0.983664
Zn7	Zn	0.985106	-0.359251	0.309919
Zn8	Zn	1.318439	-0.025918	0.643252
Zn9	Zn	1.651772	0.307416	0.976585
Zn10	Zn	0.977979	-0.510040	0.440026
Zn11	Zn	1.311312	-0.176706	0.773359
Zn12	Zn	1.644645	0.156627	1.106693
O13	O	1.043061	-0.434654	0.374977
O14	O	1.376395	-0.101321	0.708310
O15	O	1.709728	0.232012	1.041643
O16	O	1.210204	-0.379258	0.417588
O17	O	1.543538	-0.045924	0.750921
O18	O	1.876871	0.287409	1.084254
O19	O	1.085589	-0.490121	0.213076
O20	O	1.418922	-0.156788	0.546409
O21	O	1.752255	0.176546	0.879742
O22	O	1.007422	-0.233003	0.320323
O23	O	1.340755	0.100330	0.653656
O24	O	1.674089	0.433663	0.986989
O25	O	1.204923	-0.490100	0.332388
O26	O	1.538256	-0.156767	0.665721
O27	O	1.871590	0.176567	0.999054
O28	O	1.097840	-0.232987	0.410723
O29	O	1.431173	0.100346	0.744057
O30	O	1.764507	0.433679	1.077390
O31	O	1.000452	-0.379294	0.207875
O32	O	1.333785	-0.045961	0.541208
O33	O	1.667119	0.287372	0.874542
O34	O	0.881177	-0.379238	0.327171
O35	O	1.214510	-0.045905	0.660504
O36	O	1.547844	0.287429	0.993837
O37	O	0.995275	-0.490001	0.542072
O38	O	1.328608	-0.156668	0.875405
O39	O	1.661942	0.176666	1.208739
O40	O	0.875941	-0.490022	0.422760
O41	O	1.209274	-0.156689	0.756093
O42	O	1.542607	0.176645	1.089427
O43	O	1.090929	-0.379201	0.536883
O44	O	1.424263	-0.045868	0.870217
O45	O	1.757596	0.287465	1.203550
O46	O	1.078678	-0.636335	0.339236
O47	O	1.412011	-0.303002	0.672569
O48	O	1.745345	0.030332	1.005902
O49	O	0.988305	-0.636292	0.429624
O50	O	1.321638	-0.302959	0.762958
O51	O	1.654972	0.030374	1.096291
C52	C	0.851856	-0.434627	0.374964
C53	C	1.185190	-0.101293	0.708297
C54	C	1.518523	0.232040	1.041631
C55	C	0.770057	-0.434637	0.374977
C56	C	1.103390	-0.101303	0.708310
C57	C	1.436724	0.232030	1.041644
C58	C	0.502287	-0.492434	0.424690
C59	C	0.835620	-0.159101	0.758023
C60	C	1.168953	0.174232	1.091356
C61	C	0.579146	-0.492427	0.424686
C62	C	0.912479	-0.159093	0.758019
C63	C	1.245813	0.174240	1.091353
C64	C	0.584576	-0.376895	0.325277
C65	C	0.917909	-0.043561	0.658610
C66	C	1.251243	0.289772	0.991944
C67	C	0.507718	-0.376908	0.325278
C68	C	0.841051	-0.043574	0.658611
C69	C	1.174385	0.289759	0.991945
C70	C	0.466575	-0.434676	0.374989
C71	C	0.799909	-0.101343	0.708322
C72	C	1.133242	0.231991	1.041655
C73	C	0.620293	-0.434656	0.374984
C74	C	0.953626	-0.101322	0.708317
C75	C	1.286959	0.232011	1.041650
C76	C	0.703627	-0.434647	0.374979
C77	C	1.036960	-0.101313	0.708312
C78	C	1.370293	0.232020	1.041646
C79	C	0.383236	-0.434686	0.374992
C80	C	0.716569	-0.101353	0.708326
C81	C	1.049903	0.231980	1.041659
C82	C	1.031958	-0.669047	0.385981
C83	C	1.365291	-0.335714	0.719314
C84	C	1.698625	-0.002381	1.052647
C85	C	1.027275	-0.769322	0.390713
C86	C	1.360609	-0.435988	0.724046
C87	C	1.693942	-0.102655	1.057379
C88	C	1.112678	-0.957731	0.305559
C89	C	1.446011	-0.624398	0.638893
C90	C	1.779345	-0.291064	0.972226
C91	C	1.108281	-1.051948	0.310003
C92	C	1.441614	-0.718614	0.643337
C93	C	1.774947	-0.385281	0.976670
C94	C	1.014088	-1.051973	0.404048
C95	C	1.347421	-0.718640	0.737381
C96	C	1.680754	-0.385306	1.070714
C97	C	1.018485	-0.957757	0.399604
C98	C	1.351818	-0.624423	0.732937
C99	C	1.685152	-0.291090	1.066270
C100	C	1.067781	-0.910639	0.350357
C101	C	1.401114	-0.577305	0.683690
C102	C	1.734448	-0.243972	1.017024
C103	C	1.072174	-0.816420	0.345910
C104	C	1.405507	-0.483087	0.679243
C105	C	1.738841	-0.149754	1.012577
C106	C	0.977985	-0.816448	0.439958
C107	C	1.311318	-0.483114	0.773291
C108	C	1.644652	-0.149781	1.106624
C109	C	0.973588	-0.910664	0.444402
C110	C	1.306921	-0.577331	0.777735
C111	C	1.640254	-0.243998	1.111068
C112	C	1.235013	-0.434683	0.374990
C113	C	1.568346	-0.101350	0.708323
C114	C	1.901679	0.231984	1.041656
C115	C	1.316811	-0.434695	0.374995
C116	C	1.650144	-0.101362	0.708329
C117	C	1.983478	0.231972	1.041662
C118	C	1.043109	-0.434592	0.566927
C119	C	1.376442	-0.101259	0.900260
C120	C	1.709776	0.232074	1.233593
C121	C	1.043129	-0.434566	0.648724
C122	C	1.376463	-0.101232	0.982058
C123	C	1.709796	0.232101	1.315391
C124	C	1.054228	-0.199346	0.363946
C125	C	1.387561	0.133987	0.697279
C126	C	1.720895	0.467320	1.030612
C127	C	1.058986	-0.099072	0.359245
C128	C	1.392320	0.234261	0.692578
C129	C	1.725653	0.567595	1.025912
C130	C	1.043059	-0.434651	0.183770
C131	C	1.376392	-0.101318	0.517103
C132	C	1.709726	0.232015	0.850437
C133	C	1.043193	-0.434424	0.101961
C134	C	1.376527	-0.101090	0.435294
C135	C	1.709860	0.232243	0.768628
C136	C	1.092956	-0.376818	0.834215
C137	C	1.426289	-0.043485	1.167549
C138	C	1.759623	0.289848	1.500882
C139	C	1.092966	-0.376792	0.911073
C140	C	1.426299	-0.043459	1.244406
C141	C	1.759633	0.289875	1.577739
C142	C	0.993361	-0.492174	0.916465
C143	C	1.326695	-0.158840	1.249798
C144	C	1.660028	0.174493	1.583131
C145	C	0.993348	-0.492195	0.839608
C146	C	1.326682	-0.158861	1.172942
C147	C	1.660015	0.174472	1.506275
C148	C	1.043150	-0.434518	0.798486
C149	C	1.376483	-0.101185	1.131819
C150	C	1.709816	0.232148	1.465152
C151	C	1.043173	-0.434471	0.952200
C152	C	1.376506	-0.101138	1.285533
C153	C	1.709839	0.232196	1.618866
C154	C	1.043183	-0.434443	1.035532
C155	C	1.376517	-0.101110	1.368865
C156	C	1.709850	0.232224	1.702199
C157	C	1.043139	-0.434545	0.715148
C158	C	1.376472	-0.101212	1.048481
C159	C	1.709805	0.232122	1.381815
H160	H	0.478641	-0.329873	0.284802
H161	H	0.811975	0.003461	0.618135
H162	H	1.145308	0.336794	0.951469
H163	H	0.952785	-0.539180	0.810517
H164	H	1.286119	-0.205847	1.143850
H165	H	1.619452	0.127486	1.477183
Cl166	Cl	0.636303	-0.304271	0.262792
Cl167	Cl	0.969637	0.029063	0.596125
Cl168	Cl	1.302970	0.362396	0.929458
H169	H	1.133522	-0.329805	0.940160
H170	H	1.466855	0.003528	1.273493
H171	H	1.800189	0.336861	1.606827
Cl172	Cl	0.930761	-0.564682	0.968167
Cl173	Cl	1.264095	-0.231348	1.301500
Cl174	Cl	1.597428	0.101985	1.634834
Cl175	Cl	1.134143	-0.757188	0.283998
Cl176	Cl	1.467476	-0.423854	0.617331
Cl177	Cl	1.800809	-0.090521	0.950665
H178	H	0.608218	-0.539460	0.465157
H179	H	0.941552	-0.206127	0.798490
H180	H	1.274885	0.127207	1.131824
Cl181	Cl	1.164727	-1.111147	0.253685
Cl182	Cl	1.498060	-0.777813	0.587018
Cl183	Cl	1.831394	-0.444480	0.920352
Cl184	Cl	0.450567	-0.565061	0.487180
Cl185	Cl	0.783901	-0.231727	0.820513
Cl186	Cl	1.117234	0.101606	1.153847
H187	H	1.152812	-0.919367	0.265456
H188	H	1.486145	-0.586034	0.598789
H189	H	1.819479	-0.252700	0.932122
H190	H	0.973958	-1.090353	0.444147
H191	H	1.307291	-0.757019	0.777480
H192	H	1.640625	-0.423686	1.110813
H193	H	0.933454	-0.949040	0.484499
H194	H	1.266788	-0.615707	0.817832
H195	H	1.600121	-0.282374	1.151165
H196	H	0.941425	-0.778095	0.476433
H197	H	1.274758	-0.444761	0.809766
H198	H	1.608091	-0.111428	1.143100
Cl199	Cl	1.155560	-0.304308	0.782521
Cl200	Cl	1.488894	0.029026	1.115854
Cl201	Cl	1.822227	0.362359	1.449187
