data_functionalizedCrystal
_audit_creation_method	'MofGen! by Chris Wilmer'
_symmetry_space_group_name_H-M	'P1'
_symmetry_Int_Tables_number	1
_symmetry_cell_setting	triclinic
loop_
_symmetry_equiv_pos_as_xyz
  x,y,z
_cell_length_a	17.637015
_cell_length_b	17.639874
_cell_length_c	11.169409
_cell_angle_alpha	101.172648
_cell_angle_beta	101.253383
_cell_angle_gamma	65.665973
loop_
_atom_site_label
_atom_site_type_symbol
_atom_site_fract_x
_atom_site_fract_y
_atom_site_fract_z
Zn1	Zn	-0.073172	-1.193555	0.290384
Zn2	Zn	-0.211087	-1.165577	0.055877
Zn3	Zn	-0.101112	-1.055727	0.123355
Zn4	Zn	-0.238894	-1.027854	0.290168
O5	O	-0.156066	-1.110678	0.189946
O6	O	-0.068136	-1.305162	0.231127
O7	O	-0.196555	-1.150961	-0.103125
O8	O	0.017975	-1.097384	0.173842
O9	O	-0.169462	-1.284607	0.058836
O10	O	0.038503	-1.198645	0.296557
O11	O	-0.115756	-1.070255	-0.053549
O12	O	-0.142719	-0.936711	0.173633
O13	O	-0.216855	-1.049878	0.458150
O14	O	-0.243947	-0.916233	0.296190
O15	O	-0.095099	-1.171618	0.458309
O16	O	-0.330157	-1.123934	0.058626
O17	O	-0.350586	-1.022750	0.230759
C18	C	-0.199383	-0.896571	0.242211
C19	C	-0.217934	-0.804971	0.264593
C20	C	-0.015070	-0.556981	0.019873
C21	C	-0.032518	-0.470906	0.040917
C22	C	-0.138072	-0.449607	0.168235
C23	C	-0.120630	-0.535683	0.147206
C24	C	-0.059129	-0.589364	0.073023
C25	C	-0.164688	-0.568065	0.200357
C26	C	-0.147250	-0.654133	0.179324
C27	C	-0.085754	-0.707819	0.105142
C28	C	-0.041691	-0.675432	0.051991
C29	C	-0.226193	-0.514382	0.274532
C30	C	-0.270252	-0.546765	0.327683
C31	C	-0.252810	-0.632835	0.306658
C32	C	-0.191314	-0.686520	0.232475
C33	C	-0.296873	-0.665222	0.359809
C34	C	-0.279435	-0.751290	0.338776
C35	C	-0.173876	-0.772588	0.211443
C36	C	-0.370284	-1.067304	0.137368
C37	C	-0.461911	-1.048823	0.114896
C38	C	-0.601805	-0.970089	0.019247
C39	C	-0.515705	-0.987460	0.040370
C40	C	-0.494202	-1.092843	0.168323
C41	C	-0.580300	-1.075483	0.147206
C42	C	-0.634096	-1.014105	0.072668
C43	C	-0.612591	-1.119499	0.200627
C44	C	-0.698683	-1.102138	0.179516
C45	C	-0.752484	-1.040761	0.104984
C46	C	-0.720188	-0.996744	0.051557
C47	C	-0.558795	-1.180873	0.275172
C48	C	-0.591086	-1.224889	0.328592
C49	C	-0.677179	-1.207532	0.307475
C50	C	-0.730980	-1.146155	0.232943
C51	C	-0.709475	-1.251550	0.360902
C52	C	-0.795567	-1.234188	0.339791
C53	C	-0.817072	-1.128794	0.211832
C54	C	0.058992	-1.154244	0.242751
C55	C	0.150637	-1.172810	0.265253
C56	C	-0.155962	-1.110760	0.502996
C57	C	-0.155917	-1.110795	0.636399
C58	C	-0.112570	-0.325623	0.137468
C59	C	-0.094008	-0.417226	0.115080
C60	C	-0.156101	-1.110656	-0.121882
C61	C	-0.155881	-1.110828	-0.255267
H62	H	-0.320329	-0.503046	0.388079
Cl63	Cl	-0.860692	-1.019053	0.078240
H64	H	-0.346953	-0.621502	0.420198
H65	H	-0.188149	-0.405888	0.228631
H66	H	-0.315311	-0.777656	0.382058
H67	H	-0.860875	-1.078818	0.151128
Cl68	Cl	-0.787821	-0.919591	-0.042167
H69	H	-0.665666	-1.301518	0.421601
Cl70	Cl	-0.836165	-1.289526	0.406945
Cl71	Cl	-0.248126	-0.406179	0.300955
Cl72	Cl	-0.096553	-0.840081	0.118192
Cl73	Cl	-0.669438	-0.892936	-0.074477
H74	H	-0.489420	-0.951611	-0.003136
H75	H	-0.450392	-1.142815	0.229016
H76	H	0.035023	-0.600695	-0.040514
Cl77	Cl	-0.450624	-1.202409	0.302203
Cl78	Cl	-0.523452	-1.302042	0.422304
H79	H	-0.071559	-0.777900	0.088016
Cl80	Cl	0.035632	-0.742924	-0.041260
H81	H	0.003370	-0.444546	-0.002360
