data_functionalizedCrystal
_audit_creation_method	'MofGen! by Chris Wilmer'
_symmetry_space_group_name_H-M	'P1'
_symmetry_Int_Tables_number	1
_symmetry_cell_setting	triclinic
loop_
_symmetry_equiv_pos_as_xyz
  x,y,z
_cell_length_a	12.759401
_cell_length_b	12.759400
_cell_length_c	12.759393
_cell_angle_alpha	89.969548
_cell_angle_beta	90.020566
_cell_angle_gamma	89.987219
loop_
_atom_site_label
_atom_site_type_symbol
_atom_site_fract_x
_atom_site_fract_y
_atom_site_fract_z
Zn1	Zn	-1.606267	-0.418266	-0.594010
Zn2	Zn	-1.606159	-0.593981	-0.418330
Zn3	Zn	-1.430566	-0.418311	-0.418346
Zn4	Zn	-1.430558	-0.593898	-0.593969
O5	O	-1.518388	-0.506114	-0.506164
O6	O	-1.753274	-0.441591	-0.570716
O7	O	-1.582824	-0.570732	-0.271311
O8	O	-1.453922	-0.271284	-0.441672
O9	O	-1.753194	-0.570688	-0.441645
O10	O	-1.583009	-0.271251	-0.570732
O11	O	-1.453817	-0.441669	-0.271323
O12	O	-1.283544	-0.441587	-0.441632
O13	O	-1.453909	-0.570546	-0.740995
O14	O	-1.283538	-0.570590	-0.570661
O15	O	-1.583001	-0.441510	-0.741026
O16	O	-1.582816	-0.740991	-0.441605
O17	O	-1.453803	-0.740930	-0.570646
C18	C	-1.245420	-0.506085	-0.506145
C19	C	-1.128644	-0.506098	-0.506161
C20	C	-1.518326	-0.779081	-0.506142
C21	C	-1.518395	-0.895858	-0.506168
C22	C	-1.073824	-0.438997	-0.573472
C23	C	-0.964100	-0.439003	-0.573477
C24	C	-0.964025	-0.573222	-0.438859
C25	C	-1.073747	-0.573210	-0.438849
C26	C	-0.792421	-0.506134	-0.506180
C27	C	-0.909197	-0.506117	-0.506176
C28	C	-1.585711	-1.060448	-0.439084
C29	C	-1.585648	-0.950724	-0.439051
C30	C	-1.451194	-0.950722	-0.573314
C31	C	-1.451252	-1.060444	-0.573341
C32	C	-1.518466	-0.506013	-0.780197
C33	C	-1.518500	-0.505970	-0.896974
C34	C	-1.518478	-0.232081	-0.506209
C35	C	-1.518517	-0.115304	-0.506228
C36	C	-1.585723	-0.438770	-0.951853
C37	C	-1.585741	-0.438725	-1.061578
C38	C	-1.451309	-0.573088	-1.061533
C39	C	-1.451287	-0.573128	-0.951811
C40	C	-1.518370	-0.506139	-0.233196
C41	C	-1.518540	-0.505886	-0.116420
H42	H	-1.118517	-0.384347	-0.628278
H43	H	-1.640362	-0.906063	-0.384376
H44	H	-1.640479	-0.384003	-1.106256
H45	H	-1.640450	-0.384083	-0.907208
H46	H	-0.919470	-0.384361	-0.628286
H47	H	-1.396430	-0.906043	-0.627958
H48	H	-1.396530	-1.105109	-0.628020
C49	C	-1.134058	-0.647023	-0.364807
H50	H	-1.207266	-0.637394	-0.374435
H51	H	-1.116080	-0.717636	-0.380057
H52	H	-1.116047	-0.631556	-0.294241
C53	C	-0.903640	-0.647049	-0.364829
H54	H	-0.952007	-0.687004	-0.324733
H55	H	-0.860852	-0.692879	-0.404943
H56	H	-0.860822	-0.606805	-0.319121
C57	C	-1.377338	-0.647049	-0.891434
H58	H	-1.386945	-0.637443	-0.818235
H59	H	-1.392688	-0.717637	-0.909402
H60	H	-1.306753	-0.631648	-0.909408
H61	H	-1.396589	-0.627768	-1.106195
H62	H	-1.640482	-1.105112	-0.384435
