data_functionalizedCrystal
_audit_creation_method	'MofGen! by Chris Wilmer'
_symmetry_space_group_name_H-M	'P1'
_symmetry_Int_Tables_number	1
_symmetry_cell_setting	triclinic
loop_
_symmetry_equiv_pos_as_xyz
  x,y,z
_cell_length_a	10.654550
_cell_length_b	9.065218
_cell_length_c	9.130313
_cell_angle_alpha	90.000552
_cell_angle_beta	89.996220
_cell_angle_gamma	84.750394
loop_
_atom_site_label
_atom_site_type_symbol
_atom_site_fract_x
_atom_site_fract_y
_atom_site_fract_z
O1	O	1.668655	0.207228	-0.121914
O2	O	1.303255	0.226972	-0.121889
O3	O	1.493507	0.002416	-0.121899
O4	O	1.478402	0.431784	-0.121904
O5	O	1.493505	0.002422	0.121700
O6	O	1.303252	0.226978	0.121709
O7	O	1.668653	0.207234	0.121685
Cu8	Cu	1.485952	0.217107	0.143940
Cu9	Cu	1.485955	0.217100	-0.144144
O10	O	1.478400	0.431790	0.121695
C11	C	1.256450	0.225525	-0.000087
C12	C	1.116989	0.221188	-0.000078
C13	C	1.038027	0.353403	-0.000101
C14	C	0.906990	0.349319	-0.000126
C15	C	0.933890	0.080793	-0.000112
C16	C	1.064925	0.084879	-0.000076
C17	C	1.022496	0.508434	-0.000115
C18	C	0.891459	0.504350	-0.000141
C19	C	1.492055	-0.052559	-0.000102
C20	C	1.487714	-0.216378	-0.000109
C21	C	1.715457	0.208681	-0.000120
C22	C	1.854918	0.213018	-0.000139
C23	C	1.479852	0.486766	-0.000106
C24	C	1.484193	0.650585	-0.000108
N25	N	1.485959	0.217111	0.346563
N26	N	1.485957	0.217084	-0.346767
C27	C	1.570225	0.117712	0.423210
C28	C	1.570222	0.117694	0.576547
C29	C	1.401682	0.316488	0.576575
C30	C	1.401681	0.316497	0.423241
C31	C	1.667534	0.002944	0.423195
C32	C	1.667531	0.002926	0.576532
H33	H	1.052066	0.569069	0.101835
O34	O	1.630819	-0.124930	0.633465
C35	C	1.687002	-0.338715	0.784613
C36	C	1.728723	-0.193948	0.720246
H37	H	1.766145	-0.394574	0.854764
H38	H	1.599378	-0.312763	0.855001
H39	H	1.664618	-0.416039	0.691624
H40	H	1.751175	-0.116556	0.813140
H41	H	1.816306	-0.220012	0.649819
H42	H	1.058348	0.557796	-0.105288
O43	O	0.837378	0.560353	0.125380
C44	C	0.870005	0.669570	0.361366
C45	C	0.931413	0.606226	0.219277
H46	H	0.946007	0.706647	0.437333
H47	H	0.799915	0.768369	0.334049
H48	H	0.818629	0.580480	0.417948
H49	H	0.982856	0.695210	0.162626
H50	H	1.001435	0.507393	0.246689
H51	H	1.764142	0.028206	0.618142
H52	H	0.849958	0.562761	-0.102095
O53	O	1.319943	0.413252	0.348855
C54	C	1.249175	0.669004	0.302048
C55	C	1.341840	0.559589	0.386350
H56	H	1.266829	0.787340	0.332354
H57	H	1.263641	0.652076	0.179265
H58	H	1.148382	0.648582	0.332191
H59	H	1.442670	0.579944	0.356329
H60	H	1.327265	0.576542	0.509112
O61	O	1.141574	-0.043596	-0.000298
C62	C	1.204632	-0.271919	-0.126404
C63	C	1.117776	-0.126455	-0.126356
H64	H	1.185404	-0.338965	-0.228295
H65	H	1.307255	-0.245682	-0.126469
H66	H	1.185476	-0.338848	-0.024409
H67	H	1.136820	-0.059455	-0.228334
H68	H	1.015181	-0.152796	-0.126214
H69	H	0.891483	-0.030185	-0.000133
O70	O	1.776584	0.045775	0.366679
C71	C	1.981429	0.126463	0.417555
C72	C	1.858010	0.077945	0.481755
H73	H	2.047286	0.152516	0.510562
H74	H	2.028753	0.033371	0.347321
H75	H	1.959575	0.229531	0.347234
H76	H	1.879756	-0.025090	0.552142
H77	H	1.810722	0.171125	0.551906
H78	H	1.333064	0.397404	0.639023
H79	H	1.645642	-0.110463	0.381578
