data_functionalizedCrystal
_audit_creation_method	'MofGen! by Chris Wilmer'
_symmetry_space_group_name_H-M	'P1'
_symmetry_Int_Tables_number	1
_symmetry_cell_setting	triclinic
loop_
_symmetry_equiv_pos_as_xyz
  x,y,z
_cell_length_a	21.295417
_cell_length_b	18.101398
_cell_length_c	18.101389
_cell_angle_alpha	90.024327
_cell_angle_beta	89.977434
_cell_angle_gamma	89.974227
loop_
_atom_site_label
_atom_site_type_symbol
_atom_site_fract_x
_atom_site_fract_y
_atom_site_fract_z
Zn1	Zn	-0.250755	-1.132124	-0.418817
Zn2	Zn	0.249245	-0.632124	0.081183
Zn3	Zn	-0.356008	-1.132021	-0.294967
Zn4	Zn	0.143992	-0.632021	0.205033
Zn5	Zn	-0.250748	-1.008283	-0.294979
Zn6	Zn	0.249252	-0.508283	0.205021
Zn7	Zn	-0.355981	-1.008235	-0.418755
Zn8	Zn	0.144019	-0.508235	0.081245
O9	O	-0.303373	-1.070166	-0.356880
O10	O	0.196627	-0.570166	0.143120
O11	O	-0.264731	-1.235743	-0.402409
O12	O	0.235269	-0.735743	0.097591
O13	O	-0.342054	-1.115584	-0.191335
O14	O	0.157946	-0.615584	0.308665
O15	O	-0.162660	-1.024774	-0.311437
O16	O	0.337340	-0.524774	0.188563
O17	O	-0.342060	-1.235668	-0.311417
O18	O	0.157940	-0.735668	0.188583
O19	O	-0.162664	-1.115759	-0.402421
O20	O	0.337336	-0.615759	0.097579
O21	O	-0.264720	-1.024674	-0.191344
O22	O	0.235280	-0.524674	0.308656
O23	O	-0.264694	-0.904644	-0.311377
O24	O	0.235306	-0.404644	0.188623
O25	O	-0.342014	-1.024692	-0.522397
O26	O	0.157986	-0.524692	-0.022397
O27	O	-0.342008	-0.904609	-0.402315
O28	O	0.157992	-0.404609	0.097685
O29	O	-0.264705	-1.115713	-0.522442
O30	O	0.235295	-0.615713	-0.022442
O31	O	-0.444094	-1.115538	-0.311357
O32	O	0.055906	-0.615538	0.188643
O33	O	-0.444074	-1.024592	-0.402304
O34	O	0.055926	-0.524592	0.097696
C35	C	-0.466925	-1.070069	-0.356839
C36	C	0.033075	-0.570069	0.143161
C37	C	-0.536893	-1.070095	-0.356846
C38	C	-0.036893	-0.570095	0.143154
C39	C	-0.303348	-0.877755	-0.356841
C40	C	0.196652	-0.377755	0.143159
C41	C	-0.303352	-0.795441	-0.356842
C42	C	0.196648	-0.295441	0.143158
C43	C	-0.303357	-1.070209	-0.550042
C44	C	0.196643	-0.570209	-0.050042
C45	C	-0.303350	-1.070227	-0.632356
C46	C	0.196650	-0.570227	-0.132356
C47	C	-0.569749	-1.117492	-0.309538
C48	C	-0.069749	-0.617492	0.190462
C49	C	-0.635491	-1.117527	-0.309555
C50	C	-0.135491	-0.617527	0.190445
C51	C	-0.668375	-1.070151	-0.356871
C52	C	-0.168375	-0.570151	0.143129
C53	C	-0.635511	-1.022751	-0.404188
C54	C	-0.135511	-0.522751	0.095812
C55	C	-0.569770	-1.022722	-0.404175
C56	C	-0.069770	-0.522722	0.095825
N57	N	-0.771637	-1.005367	-0.362504
N58	N	-0.271637	-0.505367	0.137496
N59	N	-0.834089	-1.005396	-0.362512
N60	N	-0.334089	-0.505396	0.137488
C61	C	-0.866450	-1.070234	-0.356914
C62	C	-0.366450	-0.570234	0.143086
N63	N	-0.834001	-1.135044	-0.351293
N64	N	-0.334001	-0.635044	0.148707
N65	N	-0.771543	-1.135014	-0.351282
N66	N	-0.271543	-0.635014	0.148718
C67	C	-0.739661	-1.070177	-0.356891
C68	C	-0.239661	-0.570177	0.143109
C69	C	-0.970592	-1.117673	-0.309622
C70	C	-0.470592	-0.617673	0.190378
C71	C	-1.036335	-1.117709	-0.309644
C72	C	-0.536335	-0.617709	0.190356
C73	C	-1.036354	-1.022926	-0.404273
C74	C	-0.536354	-0.522926	0.095727
C75	C	-0.970612	-1.022897	-0.404255
C76	C	-0.470612	-0.522897	0.095745
C77	C	-0.937734	-1.070269	-0.356925
C78	C	-0.437734	-0.570269	0.143075
C79	C	-0.139183	-1.070283	-0.356937
C80	C	0.360817	-0.570283	0.143063
C81	C	-0.069215	-1.070334	-0.356961
C82	C	0.430785	-0.570334	0.143039
C83	C	-0.303399	-1.263328	-0.356919
C84	C	0.196601	-0.763328	0.143081
C85	C	-0.303410	-1.345642	-0.356935
C86	C	0.196590	-0.845642	0.143065
C87	C	-0.303391	-0.496350	-0.356904
C88	C	0.196609	0.003650	0.143096
C89	C	-0.254504	-0.527673	-0.299967
C90	C	0.245496	-0.027673	0.200033
C91	C	-0.254635	-0.613291	-0.299724
C92	C	0.245365	-0.113291	0.200276
C93	C	-0.303371	-0.644733	-0.356873
C94	C	0.196629	-0.144733	0.143127
C95	C	-0.369679	-0.613615	-0.335543
C96	C	0.130321	-0.113615	0.164457
C97	C	-0.369407	-0.527970	-0.335147
C98	C	0.130593	-0.027970	0.164853
C99	C	-0.286547	-0.527965	-0.435305
C100	C	0.213453	-0.027965	0.064695
C101	C	-0.285070	-0.613615	-0.434877
C102	C	0.214930	-0.113615	0.065123
C103	C	-0.303364	-0.728592	-0.356857
C104	C	0.196636	-0.228592	0.143143
C105	C	-0.303403	-0.412491	-0.356919
C106	C	0.196597	0.087509	0.143081
C107	C	-0.303232	-1.070270	-0.931447
C108	C	0.196768	-0.570270	-0.431447
C109	C	-0.351719	-1.012805	-0.900093
C110	C	0.148281	-0.512805	-0.400093
C111	C	-0.351944	-1.012960	-0.814475
C112	C	0.148056	-0.512960	-0.314475
C113	C	-0.303291	-1.070248	-0.783064
C114	C	0.196709	-0.570248	-0.283064
C115	C	-0.321303	-1.148274	-0.814168
C116	C	0.178697	-0.648274	-0.314168
C117	C	-0.321621	-1.147953	-0.899813
C118	C	0.178379	-0.647953	-0.399813
C119	C	-0.236626	-1.050388	-0.899877
C120	C	0.263374	-0.550388	-0.399877
C121	C	-0.237011	-1.048652	-0.814226
C122	C	0.262989	-0.548652	-0.314226
C123	C	-0.303323	-1.070240	-0.699205
C124	C	0.196677	-0.570240	-0.199205
C125	C	-0.303202	-1.070283	-1.015306
C126	C	0.196798	-0.570283	-0.515306
C127	C	-0.303344	-1.070166	-0.164469
C128	C	0.196656	-0.570166	0.335531
C129	C	-0.303173	-1.070291	-0.082155
C130	C	0.196827	-0.570291	0.417845
H131	H	-0.542982	-1.156067	-0.271002
H132	H	-0.042982	-0.656067	0.228998
H133	H	-0.322155	-0.507709	-0.477728
H134	H	0.177845	-0.007709	0.022272
H135	H	-0.265769	-0.633745	-0.241630
H136	H	0.234231	-0.133745	0.258370
H137	H	-0.943858	-0.984298	-0.442774
H138	H	-0.443858	-0.484298	0.057226
H139	H	-0.370312	-1.164808	-0.919793
H140	H	0.129688	-0.664808	-0.419793
F141	F	-0.189408	-1.105095	-0.926382
F142	F	0.310592	-0.605095	-0.426382
H143	H	-0.401314	-1.026087	-0.793988
H144	H	0.098686	-0.526087	-0.293988
H145	H	-0.662248	-1.156126	-0.271032
H146	H	-0.162248	-0.656126	0.228968
H147	H	-0.369476	-1.165420	-0.792722
H148	H	0.130524	-0.665420	-0.292722
H149	H	-0.198968	-1.087452	-0.792845
H150	H	0.301032	-0.587452	-0.292845
F151	F	-0.670509	-0.972333	-0.454548
F152	F	-0.170509	-0.472333	0.045452
H153	H	-0.265512	-0.506124	-0.242211
H154	H	0.234488	-0.006124	0.257789
F155	F	-0.277438	-1.205782	-0.926929
F156	F	0.222562	-0.705782	-0.426929
H157	H	-0.205465	-0.634331	-0.313095
H158	H	0.294535	-0.134331	0.186905
F159	F	-0.418630	-0.500883	-0.386983
F160	F	0.081370	-0.000883	0.113017
F161	F	-0.935599	-1.168090	-0.259250
F162	F	-0.435599	-0.668090	0.240750
F163	F	-0.337134	-0.936948	-0.926994
F164	F	0.162866	-0.436948	-0.426994
F165	F	-0.190036	-0.500786	-0.317250
F166	F	0.309964	-0.000786	0.182750
F167	F	-0.418564	-0.640225	-0.388054
F168	F	0.081436	-0.140225	0.111946
F169	F	-0.388079	-0.501811	-0.260232
F170	F	0.111921	-0.001811	0.239768
F171	F	-0.388677	-0.641603	-0.261437
F172	F	0.111323	-0.141603	0.238563
H173	H	-1.063127	-0.984355	-0.442802
H174	H	-0.563127	-0.484355	0.057198
F175	F	-0.276595	-1.205742	-0.787581
F176	F	0.223405	-0.705742	-0.287581
H177	H	-0.239037	-0.506392	-0.454697
H178	H	0.260963	-0.006392	0.045303
F179	F	-0.215178	-0.977312	-0.928090
F180	F	0.284822	-0.477312	-0.428090
F181	F	-0.221296	-0.640215	-0.455907
F182	F	0.278704	-0.140215	0.044093
F183	F	-0.219258	-0.973596	-0.787661
F184	F	0.280742	-0.473596	-0.287661
F185	F	-0.328222	-0.641590	-0.493300
F186	F	0.171778	-0.141590	0.006700
H187	H	-0.400788	-1.025801	-0.921614
H188	H	0.099212	-0.525801	-0.421614
F189	F	-0.534801	-0.972274	-0.454529
F190	F	-0.034801	-0.472274	0.045471
F191	F	-0.337207	-0.937335	-0.786983
F192	F	0.162793	-0.437335	-0.286983
F193	F	-1.071303	-1.168163	-0.259294
F194	F	-0.571303	-0.668163	0.240706
