data_functionalizedCrystal
_audit_creation_method	'MofGen! by Chris Wilmer'
_symmetry_space_group_name_H-M	'P1'
_symmetry_Int_Tables_number	1
_symmetry_cell_setting	triclinic
loop_
_symmetry_equiv_pos_as_xyz
  x,y,z
_cell_length_a	16.109301
_cell_length_b	13.339070
_cell_length_c	14.586319
_cell_angle_alpha	89.998714
_cell_angle_beta	89.999213
_cell_angle_gamma	99.545388
loop_
_atom_site_label
_atom_site_type_symbol
_atom_site_fract_x
_atom_site_fract_y
_atom_site_fract_z
O1	O	1.133153	0.130021	-0.076178
O2	O	0.894827	0.146201	-0.076192
O3	O	0.986638	-0.009144	-0.076184
O4	O	1.041342	0.285365	-0.076186
O5	O	0.986629	-0.009146	0.076297
O6	O	0.894818	0.146199	0.076289
O7	O	1.133144	0.130018	0.076303
Cu8	Cu	1.013980	0.138108	0.090219
Cu9	Cu	1.013991	0.138111	-0.090107
O10	O	1.041333	0.285363	0.076295
C11	C	0.863697	0.145545	0.000047
C12	C	0.770947	0.143580	0.000041
C13	C	0.568905	0.231189	0.000051
C14	C	0.481756	0.229335	0.000057
C15	C	0.459072	0.045023	0.000055
C16	C	0.546219	0.046879	0.000055
C17	C	0.601133	0.139965	0.000049
C18	C	0.426838	0.136255	0.000054
C19	C	0.332347	0.134244	0.000061
C20	C	0.695630	0.141976	0.000044
C21	C	0.977393	-0.046831	0.000055
C22	C	0.949849	-0.159124	0.000050
C23	C	1.164017	-0.523987	0.000063
C24	C	1.189898	-0.418483	0.000073
C25	C	1.129888	-0.353638	0.000067
C26	C	1.043992	-0.394307	0.000051
C27	C	1.018108	-0.499822	0.000048
C28	C	0.983979	-0.329473	0.000052
C29	C	0.898083	-0.370142	0.000037
C30	C	0.872203	-0.475647	0.000033
C31	C	0.932213	-0.540492	0.000039
C32	C	1.009863	-0.223958	0.000055
C33	C	0.863954	-0.199793	0.000041
C34	C	0.838073	-0.305297	0.000030
C35	C	1.164275	0.130675	0.000063
C36	C	1.257024	0.132640	0.000062
C37	C	1.050578	0.323050	0.000054
C38	C	1.078122	0.435343	0.000054
N39	N	1.013978	0.138106	0.217051
N40	N	1.013998	0.138106	-0.216939
C41	C	1.054656	0.069342	0.452061
C42	C	1.054658	0.069340	0.548042
C43	C	0.973315	0.206873	0.548044
C44	C	0.973308	0.206870	0.452065
C45	C	1.013984	0.138105	0.404075
C46	C	1.013992	0.138106	0.596036
C47	C	1.013994	0.138104	0.700103
C48	C	1.013981	0.138106	0.300002
H49	H	0.613614	0.306986	0.000053
O50	O	0.577490	-0.041770	-0.000111
C51	C	0.549284	-0.098295	-0.079072
H52	H	0.531963	-0.044884	-0.134268
H53	H	0.601454	-0.138871	-0.105578
H54	H	0.491628	-0.156837	-0.061219
O55	O	0.450589	0.318044	0.000016
C56	C	0.517749	0.400596	0.000035
H57	H	0.576544	0.374901	-0.028835
H58	H	0.500502	0.464513	-0.044234
H59	H	0.530506	0.429127	0.073187
O60	O	0.933687	0.273534	0.405403
C61	C	0.869909	0.219340	0.349874
H62	H	0.850102	0.139568	0.378807
H63	H	0.813345	0.260591	0.348781
H64	H	0.894706	0.214039	0.277133
H65	H	0.414350	-0.030764	0.000066
O66	O	1.093306	-0.184506	-0.000100
C67	C	1.131370	-0.217661	-0.079057
H68	H	1.081573	-0.239590	-0.134256
H69	H	1.181487	-0.153758	-0.105562
H70	H	1.161830	-0.286442	-0.061200
H71	H	1.259835	-0.385378	0.000087
O72	O	1.094240	0.002507	0.594512
C73	C	1.130118	-0.058200	0.531570
H74	H	1.140620	-0.016725	0.463152
H75	H	1.192959	-0.073608	0.559297
H76	H	1.085789	-0.133356	0.521365
O77	O	0.933745	0.273533	0.594766
C78	C	0.869947	0.219343	0.650278
H79	H	0.884804	0.140200	0.664656
H80	H	0.866541	0.261562	0.717770
H81	H	0.806909	0.212450	0.613297
H82	H	1.212868	-0.576792	0.000075
H83	H	0.768134	-0.338426	0.000018
O84	O	1.155171	-0.251176	0.000030
C85	C	1.243851	-0.229184	0.000066
H86	H	1.270251	-0.296830	-0.028793
H87	H	1.265606	-0.159333	-0.044204
H88	H	1.267407	-0.213605	0.073222
O89	O	0.907176	-0.642999	-0.000092
C90	C	0.938537	-0.684861	-0.079076
H91	H	0.996049	-0.631107	-0.105398
H92	H	0.957090	-0.761388	-0.061319
H93	H	0.887833	-0.695940	-0.134378
H94	H	0.815089	-0.146996	0.000040
O95	O	0.788789	-0.515272	-0.000100
C96	C	0.769457	-0.575554	-0.079086
H97	H	0.828922	-0.601852	-0.105406
H98	H	0.720377	-0.644633	-0.061332
H99	H	0.743439	-0.528924	-0.134388
O100	O	1.094010	0.002459	0.405363
C101	C	1.035050	-0.059975	0.349899
H102	H	0.979309	-0.019669	0.335502
H103	H	1.066042	-0.076035	0.282412
H104	H	1.012123	-0.134704	0.386930
