data_functionalizedCrystal
_audit_creation_method	'MofGen! by Chris Wilmer'
_symmetry_space_group_name_H-M	'P1'
_symmetry_Int_Tables_number	1
_symmetry_cell_setting	triclinic
loop_
_symmetry_equiv_pos_as_xyz
  x,y,z
_cell_length_a	13.262522
_cell_length_b	17.699083
_cell_length_c	11.804917
_cell_angle_alpha	101.811385
_cell_angle_beta	86.409087
_cell_angle_gamma	96.120548
loop_
_atom_site_label
_atom_site_type_symbol
_atom_site_fract_x
_atom_site_fract_y
_atom_site_fract_z
O1	O	1.282110	-0.180916	-0.514216
O2	O	0.996348	-0.177790	-0.421679
O3	O	1.147305	-0.069602	-0.470552
O4	O	1.131153	-0.289104	-0.465343
O5	O	1.187015	-0.041156	-0.285371
O6	O	1.036059	-0.149343	-0.236498
O7	O	1.321821	-0.152470	-0.329035
Cu8	Cu	1.182566	-0.148309	-0.265858
Cu9	Cu	1.135603	-0.181950	-0.484856
O10	O	1.170864	-0.260657	-0.280162
C11	C	0.979640	-0.161127	-0.317248
C12	C	0.870695	-0.153848	-0.281969
C13	C	0.841167	-0.134923	-0.164446
C14	C	0.738811	-0.128076	-0.131290
C15	C	0.665971	-0.140160	-0.215653
C16	C	0.695498	-0.159091	-0.333178
C17	C	0.797865	-0.165933	-0.366338
C18	C	0.622669	-0.171170	-0.417546
C19	C	0.652195	-0.190101	-0.535071
C20	C	0.754553	-0.196942	-0.568224
C21	C	0.827393	-0.184858	-0.483861
C22	C	0.520302	-0.164328	-0.384386
C23	C	0.476999	-0.195338	-0.586278
C24	C	0.579356	-0.202185	-0.619434
C25	C	1.166582	-0.027150	-0.377774
C26	C	1.164846	0.056962	-0.377212
C27	C	1.338528	-0.169133	-0.433468
C28	C	1.447472	-0.176412	-0.468755
C29	C	1.151587	-0.303109	-0.372942
C30	C	1.153321	-0.387223	-0.373512
N31	N	1.215604	-0.124647	-0.111829
C32	C	1.253453	0.100753	-0.405904
C33	C	1.251815	0.179784	-0.405383
C34	C	1.161569	0.215024	-0.376163
C35	C	1.072954	0.171227	-0.347472
C36	C	1.074592	0.092197	-0.348001
C37	C	1.066345	0.489949	-0.345342
C38	C	1.064714	0.568986	-0.344812
C39	C	1.243567	0.577536	-0.402724
C40	C	1.245206	0.498506	-0.403253
C41	C	1.156590	0.454715	-0.374568
C42	C	1.158367	0.369020	-0.375135
C43	C	1.159792	0.300719	-0.375588
N44	N	1.102573	-0.205607	-0.638888
C45	C	1.023208	-0.262446	0.324497
C46	C	0.998192	-0.280354	0.207946
C47	C	1.052543	-0.241429	0.127997
C48	C	1.131914	-0.184592	0.164610
C49	C	1.156928	-0.166678	0.281174
C50	C	1.186263	-0.145661	0.084674
C51	C	1.265633	-0.088824	0.121286
C52	C	1.290643	-0.070913	0.237840
C53	C	1.236292	-0.109839	0.317789
C54	C	1.161249	-0.163576	-0.031891
C55	C	1.294968	-0.067808	-0.075214
C56	C	1.319984	-0.049899	0.041337
H57	H	0.603411	-0.217599	-0.715125
H58	H	1.326943	0.072067	-0.429691
H59	H	0.714780	-0.112652	-0.035602
H60	H	0.417692	-0.205179	-0.654974
H61	H	0.496271	-0.148920	-0.288696
C62	C	1.341041	0.625705	-0.434296
H63	H	1.327142	0.677819	-0.429811
H64	H	1.391902	0.624436	-0.381704
H65	H	1.364201	0.604582	-0.510865
C66	C	0.787032	-0.217760	-0.697497
H67	H	0.728993	-0.223984	-0.742993
H68	H	0.833655	-0.177369	-0.717082
H69	H	0.818469	-0.264786	-0.712172
C70	C	0.965436	0.607747	-0.312683
H71	H	0.912891	0.570347	-0.295688
H72	H	0.974920	0.648323	-0.246695
H73	H	0.947244	0.628474	-0.375864
H74	H	1.323968	0.215435	-0.428745
C75	C	1.407281	0.012624	0.081618
H76	H	1.436076	0.033241	0.017315
H77	H	1.381813	0.053004	0.138501
H78	H	1.457823	-0.009807	0.113871
H79	H	1.318694	0.469818	-0.427042
C80	C	0.553380	-0.132638	-0.179183
H81	H	0.546226	-0.119640	-0.097108
H82	H	0.529809	-0.093114	-0.211417
H83	H	0.514643	-0.180532	-0.206507
C84	C	1.377938	-0.008388	0.278121
H85	H	1.385043	-0.003290	0.358990
H86	H	1.439315	-0.023049	0.237809
H87	H	1.363297	0.039756	0.262431
C88	C	0.968876	0.441792	-0.313771
H89	H	0.914901	0.474104	-0.296278
H90	H	0.951939	0.400859	-0.377344
H91	H	0.979651	0.420712	-0.248187
C92	C	1.354777	-0.025002	-0.163152
H93	H	1.328525	-0.043820	-0.237817
H94	H	1.348360	0.029015	-0.140659
H95	H	1.424347	-0.033812	-0.165252
C96	C	0.973686	0.209990	-0.315327
H97	H	0.985402	0.263332	-0.319109
H98	H	0.923359	0.185359	-0.368090
H99	H	0.951064	0.205203	-0.238931
H100	H	1.002438	0.056543	-0.324637
H101	H	1.096625	-0.209852	-0.061690
H102	H	1.032172	-0.256013	0.033096
C103	C	1.263809	-0.090142	0.445997
H104	H	1.220070	-0.121465	0.488362
H105	H	1.332163	-0.099808	0.452047
H106	H	1.256150	-0.036999	0.476684
C107	C	0.921288	-0.121605	-0.071659
H108	H	0.889049	-0.109341	0.003083
H109	H	0.954551	-0.167324	-0.077928
H110	H	0.969691	-0.079912	-0.082875
C111	C	0.939987	-0.192381	-0.520336
H112	H	0.947143	-0.205385	-0.602411
H113	H	0.978729	-0.144497	-0.493002
H114	H	0.963548	-0.231916	-0.488108
C115	C	0.910898	-0.342873	0.167676
H116	H	0.882117	-0.363495	0.231979
H117	H	0.860358	-0.320449	0.135419
H118	H	0.936370	-0.383258	0.110795
H119	H	0.978958	-0.294130	0.389599
