data_functionalizedCrystal
_audit_creation_method	'MofGen! by Chris Wilmer'
_symmetry_space_group_name_H-M	'P1'
_symmetry_Int_Tables_number	1
_symmetry_cell_setting	triclinic
loop_
_symmetry_equiv_pos_as_xyz
  x,y,z
_cell_length_a	8.559649
_cell_length_b	26.210047
_cell_length_c	8.559649
_cell_angle_alpha	90.005821
_cell_angle_beta	69.778664
_cell_angle_gamma	89.992466
loop_
_atom_site_label
_atom_site_type_symbol
_atom_site_fract_x
_atom_site_fract_y
_atom_site_fract_z
O1	O	2.126898	-0.042421	-0.055061
O2	O	1.651413	-0.042423	0.028720
O3	O	1.931046	-0.042421	-0.250913
O4	O	1.847265	-0.042423	0.224572
O5	O	1.930993	0.042437	-0.250866
O6	O	1.651360	0.042435	0.028767
O7	O	2.126845	0.042437	-0.055014
Cu8	Cu	1.889097	0.050184	-0.013119
Cu9	Cu	1.889160	-0.050170	-0.013175
O10	O	1.847212	0.042435	0.224619
C11	C	1.591077	0.000006	0.035093
C12	C	1.411378	0.000005	0.053992
N13	N	1.889065	0.120768	-0.013083
C14	C	2.012965	0.473283	-0.136958
C15	C	2.013003	0.686942	-0.136980
O16	O	2.118285	0.714564	-0.242295
N17	N	1.889170	0.713662	-0.013194
C18	C	1.765313	0.686965	0.110600
O19	O	1.659976	0.714595	0.215877
C20	C	1.765270	0.473307	0.110614
C21	C	1.889120	0.446589	-0.013171
C22	C	2.136805	0.446565	-0.260734
C23	C	2.136799	0.393154	-0.260722
C24	C	2.012954	0.366460	-0.136934
C25	C	1.889115	0.393178	-0.013159
C26	C	1.641407	0.446611	0.234400
C27	C	1.641405	0.393193	0.234390
C28	C	1.765256	0.366475	0.110605
C29	C	1.765265	0.313073	0.110641
N30	N	1.889097	0.286352	-0.013145
C31	C	2.012942	0.313046	-0.136933
C32	C	1.765346	0.799138	0.110586
C33	C	1.765358	0.852552	0.110584
C34	C	2.013047	0.852525	-0.136998
C35	C	2.013040	0.799110	-0.136988
C36	C	1.889179	0.772418	-0.013200
C37	C	2.012922	0.200878	-0.136897
C38	C	2.012910	0.147462	-0.136871
C39	C	1.765217	0.147493	0.110706
C40	C	1.765234	0.200905	0.110685
C41	C	1.889094	0.227596	-0.013131
O42	O	1.660027	0.285417	0.215889
O43	O	2.118242	0.285407	-0.242215
C44	C	2.012971	0.526694	-0.136970
C45	C	1.889131	0.553412	-0.013195
C46	C	1.765286	0.526719	0.110593
C47	C	1.889143	0.606826	-0.013196
C48	C	2.012988	0.633520	-0.136983
C49	C	2.136821	0.606800	-0.260769
C50	C	2.136816	0.553388	-0.260758
C51	C	1.641454	0.553439	0.234379
C52	C	1.641470	0.606851	0.234358
C53	C	1.765315	0.633544	0.110570
C54	C	2.187180	0.000007	-0.061387
C55	C	2.366879	0.000005	-0.080286
C56	C	1.937369	0.000007	-0.311198
C57	C	1.956268	0.000004	-0.490898
N58	N	1.889203	0.879246	-0.013203
C59	C	1.840889	0.000006	0.284904
C60	C	1.821990	0.000006	0.464604
H61	H	1.466258	0.000002	-0.209705
H62	H	1.540537	0.371462	0.335192
H63	H	1.664388	0.125751	0.211497
H64	H	1.664397	0.222659	0.211495
H65	H	1.664523	0.874302	0.211396
H66	H	2.113889	0.777360	-0.237785
H67	H	2.237655	0.468294	-0.361544
Cl68	Cl	1.257940	-0.000001	0.253823
H69	H	2.113769	0.125710	-0.237671
Cl70	Cl	2.168638	0.234424	-0.292552
Cl71	Cl	2.292493	0.359571	-0.416351
Cl72	Cl	1.609625	0.765587	0.266224
H73	H	2.113888	0.874268	-0.237789
Cl74	Cl	1.485699	0.480188	0.390018
Cl75	Cl	2.292519	0.519807	-0.416382
H76	H	2.085696	0.000009	-0.590286
H77	H	2.237666	0.628542	-0.361558
Cl78	Cl	1.485762	0.640433	0.389994
H79	H	1.540602	0.531709	0.335180
H80	H	1.692570	0.000007	-0.436018
