data_functionalizedCrystal
_audit_creation_method	'MofGen! by Chris Wilmer'
_symmetry_space_group_name_H-M	'P1'
_symmetry_Int_Tables_number	1
_symmetry_cell_setting	triclinic
loop_
_symmetry_equiv_pos_as_xyz
  x,y,z
_cell_length_a	6.817900
_cell_length_b	16.256275
_cell_length_c	16.255661
_cell_angle_alpha	95.350152
_cell_angle_beta	103.488922
_cell_angle_gamma	103.500333
loop_
_atom_site_label
_atom_site_type_symbol
_atom_site_fract_x
_atom_site_fract_y
_atom_site_fract_z
V1	V	-4.026776	-0.117778	-0.264174
O2	O	-4.014188	0.004956	-0.258835
O3	O	-3.978390	-0.232858	-0.262665
O4	O	-3.978337	-0.116275	-0.379253
O5	O	-4.014241	-0.112433	-0.141440
V6	V	-4.510407	-0.103061	-0.249458
O7	O	-4.287797	-0.150061	-0.296455
O8	O	-4.699583	-0.070779	-0.217177
O9	O	-4.335586	0.012018	-0.250967
O10	O	-4.640392	-0.225796	-0.254796
O11	O	-4.640339	-0.108406	-0.372192
O12	O	-4.335639	-0.104564	-0.134378
C13	C	-3.823396	-0.260902	-0.258575
C14	C	-3.865121	-0.354983	-0.258108
C15	C	-4.156068	-0.586814	-0.261383
C16	C	-4.122322	-0.651960	-0.329022
C17	C	-3.941423	-0.527229	-0.257239
C18	C	-4.049504	-0.629721	-0.188785
C19	C	-4.015138	-0.693610	-0.256397
C20	C	-3.907157	-0.591145	-0.324943
C21	C	-3.834331	-0.568892	-0.184644
C22	C	-3.800444	-0.634012	-0.252297
C23	C	-3.898963	-0.431381	-0.257726
C24	C	-4.057586	-0.789457	-0.255916
C25	C	-3.823327	-0.112188	-0.407293
C26	C	-3.865007	-0.111721	-0.501373
C27	C	-3.775560	-0.106138	-0.724178
C28	C	-3.932015	-0.178197	-0.793839
C29	C	-3.941391	-0.110845	-0.673620
C30	C	-3.859225	-0.037961	-0.771594
C31	C	-4.015158	-0.109994	-0.840001
C32	C	-4.097328	-0.182968	-0.742051
C33	C	-4.024476	-0.042668	-0.719790
C34	C	-4.181067	-0.114748	-0.789432
C35	C	-3.898890	-0.111335	-0.577772
C36	C	-4.057676	-0.109510	-0.935848
C37	C	-4.153923	0.040058	-0.255055
C38	C	-4.091435	0.134138	-0.255527
C39	C	-4.153992	-0.108654	-0.106334
C40	C	-4.091551	-0.109117	-0.012253
H41	H	-3.846693	-0.574019	-0.382552
C42	C	-3.879817	-0.255599	-0.837394
C43	C	-3.713806	-0.241395	-0.888346
C44	C	-3.661588	-0.318793	-0.931895
C45	C	-3.775382	-0.410395	-0.924493
C46	C	-3.941404	-0.424603	-0.873539
C47	C	-3.993622	-0.347205	-0.829990
H48	H	-3.629559	-0.173583	-0.893827
H49	H	-3.538686	-0.308275	-0.969615
H50	H	-3.736727	-0.467690	-0.956731
H51	H	-4.025651	-0.492416	-0.868058
H52	H	-4.116523	-0.357724	-0.792270
C53	C	-3.669414	-0.520161	-0.102188
C54	C	-3.461307	-0.461573	-0.107630
C55	C	-3.296404	-0.412839	-0.025167
C56	C	-3.339608	-0.422692	0.062739
C57	C	-3.547724	-0.481283	0.068185
C58	C	-3.712627	-0.530017	-0.014279
H59	H	-3.429317	-0.454277	-0.172707
H60	H	-3.142343	-0.369467	-0.029199
H61	H	-3.217537	-0.386616	0.123783
H62	H	-3.579714	-0.488579	0.133261
H63	H	-3.866688	-0.573389	-0.010247
C64	C	-4.232758	-0.265852	-0.724082
C65	C	-4.472841	-0.286731	-0.754742
C66	C	-4.608259	-0.369615	-0.736772
C67	C	-4.503594	-0.431620	-0.688142
C68	C	-4.263497	-0.410742	-0.657479
C69	C	-4.128079	-0.327858	-0.675449
H70	H	-4.550332	-0.240830	-0.790744
H71	H	-4.785994	-0.385070	-0.759471
H72	H	-4.603838	-0.492976	-0.674839
H73	H	-4.186007	-0.456643	-0.621477
H74	H	-3.950344	-0.312403	-0.652750
C75	C	-3.723788	0.044833	-0.789726
C76	C	-3.567721	0.039865	-0.843712
C77	C	-3.432270	0.122654	-0.861842
C78	C	-3.452887	0.210409	-0.825987
C79	C	-3.608961	0.215380	-0.771998
C80	C	-3.744412	0.132592	-0.753867
H81	H	-3.552453	-0.025100	-0.870257
H82	H	-3.316734	0.118974	-0.901808
H83	H	-3.352619	0.271694	-0.839408
H84	H	-3.624229	0.280345	-0.745452
H85	H	-3.859948	0.136272	-0.713901
C86	C	-4.076564	0.034740	-0.676203
C87	C	-4.157047	0.098904	-0.730150
C88	C	-4.209108	0.176321	-0.686559
C89	C	-4.180687	0.189576	-0.589021
C90	C	-4.100201	0.125411	-0.535068
C91	C	-4.048139	0.047993	-0.578660
H92	H	-4.178089	0.089093	-0.802358
H93	H	-4.268690	0.223820	-0.726498
H94	H	-4.219226	0.246885	-0.556752
H95	H	-4.079158	0.135221	-0.462860
H96	H	-3.988558	0.000494	-0.538720
C97	C	-4.287312	-0.700666	-0.411476
C98	C	-4.507768	-0.686206	-0.432163
C99	C	-4.672769	-0.734909	-0.514613
C100	C	-4.617314	-0.798072	-0.576377
C101	C	-4.396848	-0.812535	-0.555692
C102	C	-4.231847	-0.763832	-0.473242
H103	H	-4.548829	-0.639447	-0.386441
H104	H	-4.835973	-0.724203	-0.529925
H105	H	-4.739458	-0.834125	-0.637412
H106	H	-4.355788	-0.859294	-0.601414
H107	H	-4.068643	-0.774538	-0.457929
H108	H	-3.650355	-0.654729	-0.248471
H109	H	-3.603804	-0.102591	-0.695688
H110	H	-4.110140	-0.646963	-0.131245
H111	H	-4.306013	-0.565956	-0.265315
H112	H	-4.352942	-0.118407	-0.817788
