data_functionalizedCrystal
_audit_creation_method	'MofGen! by Chris Wilmer'
_symmetry_space_group_name_H-M	'P1'
_symmetry_Int_Tables_number	1
_symmetry_cell_setting	triclinic
loop_
_symmetry_equiv_pos_as_xyz
  x,y,z
_cell_length_a	13.596369
_cell_length_b	14.519709
_cell_length_c	14.519709
_cell_angle_alpha	96.319855
_cell_angle_beta	90.006934
_cell_angle_gamma	90.000291
loop_
_atom_site_label
_atom_site_type_symbol
_atom_site_fract_x
_atom_site_fract_y
_atom_site_fract_z
O1	O	-0.081665	1.223868	-0.120893
O2	O	0.418335	1.723868	0.379107
O3	O	-0.081696	0.955392	-0.135129
O4	O	0.418304	1.455392	0.364871
O5	O	-0.081671	1.096748	0.006227
O6	O	0.418329	1.596748	0.506227
O7	O	-0.081690	1.082512	-0.262249
O8	O	0.418310	1.582512	0.237751
O9	O	0.081912	1.096734	0.006235
O10	O	0.581912	1.596734	0.506235
O11	O	0.081887	0.955377	-0.135122
O12	O	0.581887	1.455377	0.364878
O13	O	0.081917	1.223854	-0.120885
O14	O	0.581917	1.723854	0.379115
Zn15	Zn	0.107875	1.089614	-0.128002
Zn16	Zn	0.607875	1.589614	0.371998
Zn17	Zn	-0.107653	1.089632	-0.128012
Zn18	Zn	0.392347	1.589632	0.371988
O19	O	0.081893	1.082498	-0.262242
O20	O	0.581893	1.582498	0.237758
C21	C	0.000092	0.921025	-0.134462
C22	C	0.500092	1.421025	0.365538
C23	C	0.000081	0.818643	-0.132474
C24	C	0.500081	1.318643	0.367526
N25	N	0.254966	1.089608	-0.127995
N26	N	0.754966	1.589608	0.372005
N27	N	-0.254745	1.089645	-0.128012
N28	N	0.245255	1.589645	0.371988
C29	C	0.000126	0.443748	-0.125154
C30	C	0.500126	0.943748	0.374846
C31	C	0.000113	0.548056	-0.127187
C32	C	0.500113	1.048056	0.372813
C33	C	0.000102	0.631192	-0.128814
C34	C	0.500102	1.131192	0.371186
C35	C	0.000091	0.735507	-0.130847
C36	C	0.500091	1.235507	0.369153
C37	C	0.656257	1.089631	-0.128013
C38	C	1.156257	1.589631	0.371987
C39	C	0.544606	1.089622	-0.128011
C40	C	1.044606	1.589622	0.371989
C41	C	0.455615	1.089620	-0.128005
C42	C	0.955615	1.589620	0.371995
C43	C	0.343957	1.089610	-0.128001
C44	C	0.843957	1.589610	0.371999
C45	C	0.000121	1.096078	0.040591
C46	C	0.500121	1.596078	0.540591
C47	C	0.000121	1.094090	0.142972
C48	C	0.500121	1.594090	0.642972
C49	C	0.000128	1.258221	-0.121553
C50	C	0.500128	1.758221	0.378447
C51	C	0.000132	1.360602	-0.123541
C52	C	0.500132	1.860602	0.376459
C53	C	0.000099	1.083168	-0.296605
C54	C	0.500099	1.583168	0.203395
C55	C	0.000092	1.085156	-0.398987
C56	C	0.500092	1.585156	0.101013
C57	C	0.000095	1.086770	0.517868
C58	C	0.500095	1.586770	1.017868
C59	C	0.000102	1.088803	0.413560
C60	C	0.500102	1.588803	0.913560
C61	C	0.000109	1.090430	0.330423
C62	C	0.500109	1.590430	0.830423
C63	C	0.000114	1.092463	0.226109
C64	C	0.500114	1.592463	0.726109
