data_functionalizedCrystal
_audit_creation_method	'MofGen! by Chris Wilmer'
_symmetry_space_group_name_H-M	'P1'
_symmetry_Int_Tables_number	1
_symmetry_cell_setting	triclinic
loop_
_symmetry_equiv_pos_as_xyz
  x,y,z
_cell_length_a	17.699083
_cell_length_b	10.654550
_cell_length_c	16.776229
_cell_angle_alpha	89.994543
_cell_angle_beta	89.998886
_cell_angle_gamma	83.883959
loop_
_atom_site_label
_atom_site_type_symbol
_atom_site_fract_x
_atom_site_fract_y
_atom_site_fract_z
O1	O	1.005088	0.158809	-0.066174
O2	O	0.784841	0.179470	-0.066200
O3	O	0.900029	-0.013689	-0.066184
O4	O	0.889901	0.351967	-0.066191
O5	O	0.900013	-0.013700	0.066393
O6	O	0.784826	0.179458	0.066376
O7	O	1.005073	0.158797	0.066402
Zn8	Zn	0.894947	0.169126	0.087439
Zn9	Zn	0.894967	0.169141	-0.087237
O10	O	0.889885	0.351955	0.066386
C11	C	0.756632	0.178724	0.000085
C12	C	0.672599	0.176503	0.000075
C13	C	0.624699	0.289883	0.000073
C14	C	0.545743	0.287788	0.000083
C15	C	0.514688	0.172313	0.000090
C16	C	0.562594	0.058924	0.000094
C17	C	0.641549	0.061020	0.000090
C18	C	0.244177	0.050470	0.000114
C19	C	0.165216	0.048383	0.000116
C20	C	0.148371	0.277239	0.000108
C21	C	0.227326	0.279334	0.000103
C22	C	0.275225	0.165946	0.000112
C23	C	0.360839	0.168219	0.000102
C24	C	0.429076	0.170039	0.000094
C25	C	0.899277	-0.060479	0.000103
C26	C	0.897052	-0.199884	0.000100
C27	C	0.964873	-0.280557	0.000111
C28	C	0.962778	-0.411541	0.000105
C29	C	0.825036	-0.381166	0.000082
C30	C	0.827132	-0.250185	0.000082
C31	C	1.034794	-0.230256	0.000129
C32	C	1.102620	-0.310930	0.000141
C33	C	1.100525	-0.441914	0.000135
C34	C	1.030603	-0.492224	0.000118
C35	C	1.033282	0.159543	0.000115
C36	C	1.117314	0.161764	0.000120
C37	C	0.890637	0.398746	0.000097
C38	C	0.892861	0.538151	0.000095
N39	N	0.894938	0.169114	0.206650
N40	N	0.894981	0.169143	-0.206448
C41	C	0.945959	0.083619	0.248374
C42	C	0.945963	0.083618	0.331826
C43	C	0.894950	0.169119	0.373553
C44	C	0.843923	0.254619	0.331822
C45	C	0.843916	0.254613	0.248372
C46	C	0.843951	0.254643	0.668370
C47	C	0.843964	0.254645	0.751826
C48	C	0.945998	0.083648	0.751824
C49	C	0.945991	0.083642	0.668374
C50	C	0.894962	0.169137	0.626651
C51	C	0.894957	0.169135	0.536162
C52	C	0.894958	0.169128	0.464040
H53	H	0.109361	0.369564	0.000105
Cl54	Cl	0.266362	0.424509	0.000090
Cl55	Cl	0.779787	0.362103	0.384277
Cl56	Cl	1.190515	-0.247684	0.000152
Cl57	Cl	1.027972	-0.656892	0.000146
Cl58	Cl	0.485528	0.430330	0.000076
Cl59	Cl	0.126177	-0.096798	0.000125
Cl60	Cl	1.185790	-0.543329	0.000141
H61	H	0.283168	-0.041858	0.000122
H62	H	0.771906	-0.184498	0.000074
H63	H	0.802419	0.324273	0.785798
Cl64	Cl	1.010126	-0.023845	0.615921
Cl65	Cl	0.523553	-0.086247	0.000108
Cl66	Cl	1.010147	-0.023838	0.804280
Cl67	Cl	0.737141	-0.444415	0.000063
H68	H	0.802403	0.324258	0.634405
Cl69	Cl	0.701767	-0.081521	0.000096
Cl70	Cl	1.037432	-0.065591	0.000139
Cl71	Cl	1.010098	-0.023870	0.195927
H72	H	0.987508	0.014000	0.365798
H73	H	0.802369	0.324230	0.214401
H74	H	0.649978	0.383916	0.000067
