data_functionalizedCrystal
_audit_creation_method	'MofGen! by Chris Wilmer'
_symmetry_space_group_name_H-M	'P1'
_symmetry_Int_Tables_number	1
_symmetry_cell_setting	triclinic
loop_
_symmetry_equiv_pos_as_xyz
  x,y,z
_cell_length_a	10.723024
_cell_length_b	11.792241
_cell_length_c	9.798715
_cell_angle_alpha	89.996704
_cell_angle_beta	89.996609
_cell_angle_gamma	84.330643
loop_
_atom_site_label
_atom_site_type_symbol
_atom_site_fract_x
_atom_site_fract_y
_atom_site_fract_z
O1	O	1.656766	0.159192	-0.113483
O2	O	1.293573	0.174430	-0.113488
O3	O	1.483983	0.001660	-0.113475
O4	O	1.466356	0.331962	-0.113495
O5	O	1.483969	0.001659	0.113507
O6	O	1.293559	0.174430	0.113495
O7	O	1.656752	0.159192	0.113499
Zn8	Zn	1.475153	0.166811	0.149535
Zn9	Zn	1.475172	0.166811	-0.149523
O10	O	1.466342	0.331962	0.113487
C11	C	1.247070	0.173321	0.000003
C12	C	1.108524	0.170003	0.000001
C13	C	1.482869	-0.040634	0.000015
C14	C	1.479555	-0.166655	0.000014
C15	C	1.033286	0.266676	-0.000005
C16	C	0.890091	0.263249	-0.000007
C17	C	1.473461	-0.397380	-0.000009
C18	C	1.476847	-0.268988	0.000003
C19	C	1.703256	0.160301	0.000006
C20	C	1.841801	0.163619	-0.000002
C21	C	1.467456	0.374255	-0.000006
C22	C	1.470770	0.500276	-0.000014
N23	N	1.475150	0.166809	0.353635
N24	N	1.475186	0.166803	-0.353623
C25	C	1.555098	0.093948	0.421417
C26	C	1.555118	0.093944	0.578580
H27	H	1.074882	0.351978	-0.000002
H28	H	1.066928	0.084701	-0.000028
N29	N	0.808979	0.367067	-0.000022
N30	N	0.692772	0.364137	-0.000025
H31	H	0.635482	0.437460	-0.000035
N32	N	1.389294	0.245050	0.573271
N33	N	1.273895	0.242837	0.589143
H34	H	1.213232	0.298097	0.537503
H35	H	0.906445	0.080854	-0.000005
H36	H	1.623571	0.031569	0.636869
H37	H	1.623527	0.031567	0.363099
N38	N	1.389295	0.245078	0.426764
N39	N	1.314133	0.313581	0.363118
H40	H	1.253494	0.368862	0.414761
