data_functionalizedCrystal
_audit_creation_method	'MofGen! by Chris Wilmer'
_symmetry_space_group_name_H-M	'P1'
_symmetry_Int_Tables_number	1
_symmetry_cell_setting	triclinic
loop_
_symmetry_equiv_pos_as_xyz
  x,y,z
_cell_length_a	10.654550
_cell_length_b	14.853567
_cell_length_c	9.730223
_cell_angle_alpha	90.002458
_cell_angle_beta	89.996251
_cell_angle_gamma	84.059917
loop_
_atom_site_label
_atom_site_type_symbol
_atom_site_fract_x
_atom_site_fract_y
_atom_site_fract_z
O1	O	1.666519	0.126622	-0.114390
O2	O	1.300915	0.138686	-0.114367
O3	O	1.493482	0.001477	-0.114383
O4	O	1.473951	0.263832	-0.114374
O5	O	1.493480	0.001480	0.114197
O6	O	1.300912	0.138690	0.114213
O7	O	1.666516	0.126625	0.114190
Zn8	Zn	1.483714	0.132658	0.150493
Zn9	Zn	1.483717	0.132654	-0.150671
O10	O	1.473949	0.263835	0.114206
C11	C	1.254125	0.137802	-0.000074
C12	C	1.114709	0.135152	-0.000066
C13	C	1.034384	0.215939	-0.000083
C14	C	0.903389	0.213443	-0.000107
C15	C	0.933057	0.049367	-0.000102
C16	C	1.064050	0.051863	-0.000068
C17	C	1.085044	0.299227	-0.000080
C18	C	1.004717	0.380021	-0.000099
C19	C	0.873722	0.377525	-0.000123
C20	C	0.823054	0.294236	-0.000128
C21	C	1.492596	-0.032115	-0.000097
C22	C	1.489944	-0.132213	-0.000109
C23	C	1.364344	-0.545419	-0.000075
C24	C	1.593119	-0.565475	-0.000090
C25	C	1.595613	-0.471428	-0.000098
C26	C	1.482470	-0.414372	-0.000093
C27	C	1.366834	-0.451363	-0.000079
C28	C	1.711247	-0.434430	-0.000097
C29	C	1.713745	-0.340378	-0.000104
C30	C	1.600601	-0.283320	-0.000109
C31	C	1.484961	-0.320316	-0.000097
C32	C	1.371818	-0.263260	-0.000091
C33	C	1.256176	-0.300254	-0.000089
C34	C	1.253691	-0.394305	-0.000084
C35	C	1.603087	-0.189269	-0.000114
C36	C	1.374308	-0.169204	-0.000096
C37	C	1.713306	0.127510	-0.000106
C38	C	1.852722	0.130160	-0.000123
C39	C	1.474835	0.297427	-0.000083
C40	C	1.477487	0.397525	-0.000080
N41	N	1.483721	0.132661	0.356030
N42	N	1.483720	0.132644	-0.356207
C43	C	1.569012	0.071925	0.427949
C44	C	1.569009	0.071914	0.571832
C45	C	1.398420	0.193382	0.571864
C46	C	1.398418	0.193388	0.427984
C47	C	1.654315	0.011198	0.355994
C48	C	1.739614	-0.049542	0.427913
C49	C	1.739610	-0.049553	0.571796
C50	C	1.654309	0.011176	0.643760
H51	H	1.129453	-0.013920	-0.000058
H52	H	0.808324	0.443311	-0.000124
H53	H	1.328972	0.242826	0.630467
C54	C	1.832275	-0.115577	0.350037
C55	C	1.906944	-0.168787	0.443821
C56	C	1.992307	-0.229638	0.372136
H57	H	1.884723	-0.082896	0.293910
H58	H	1.787073	-0.153455	0.293931
H59	H	1.952142	-0.130914	0.499903
H60	H	1.854530	-0.201487	0.499951
H61	H	1.947105	-0.267516	0.316030
H62	H	2.044746	-0.196950	0.316011
H63	H	2.042972	-0.265754	0.435757
H64	H	1.164056	-0.253787	-0.000075
C65	C	1.059549	0.470509	-0.000303
C66	C	1.018733	0.519400	-0.117890
C67	C	1.069200	0.602769	-0.118115
H68	H	1.149064	0.460557	-0.000359
H69	H	1.031932	0.503858	0.079363
H70	H	1.046357	0.486058	-0.197536
H71	H	0.929225	0.529376	-0.117859
H72	H	1.041583	0.636118	-0.038449
H73	H	1.158713	0.592808	-0.118167
H74	H	1.041504	0.635955	-0.197889
C75	C	1.839204	-0.300094	-0.000337
C76	C	1.847301	-0.246679	-0.117928
C77	C	1.962849	-0.209546	-0.118186
H78	H	1.906336	-0.347453	-0.000409
H79	H	1.844948	-0.263763	0.079326
H80	H	1.841570	-0.283008	-0.197570
H81	H	1.780196	-0.199307	-0.117880
H82	H	1.968593	-0.173215	-0.038523
H83	H	2.029972	-0.256910	-0.118255
H84	H	1.968353	-0.173293	-0.197963
H85	H	0.716388	0.292210	-0.000126
H86	H	0.891792	-0.018443	-0.000129
H87	H	1.282173	-0.122754	-0.000097
H88	H	1.654328	0.011203	0.238838
H89	H	1.809055	-0.099016	0.630351
H90	H	1.159541	-0.424435	-0.000080
C91	C	1.306021	0.259375	0.349711
C92	C	1.373003	0.314997	0.267082
C93	C	1.287924	0.375784	0.194943
H94	H	1.255186	0.295634	0.413008
H95	H	1.253716	0.226614	0.293504
H96	H	1.425287	0.347755	0.323284
H97	H	1.423834	0.278764	0.203760
H98	H	1.235619	0.343024	0.138736
H99	H	1.237094	0.412036	0.258249
H100	H	1.333359	0.413525	0.138861
H101	H	1.191705	0.301268	-0.000067
C102	C	1.654062	0.011271	0.799978
C103	C	1.561091	0.077442	0.847602
C104	C	1.560820	0.077550	0.991497
H105	H	1.734265	0.024179	0.832700
H106	H	1.636715	-0.046451	0.832563
H107	H	1.578446	0.135151	0.815030
H108	H	1.480874	0.064549	0.814918
H109	H	1.543473	0.019828	1.024082
H110	H	1.641027	0.090456	1.024205
H111	H	1.497734	0.122440	1.023828
H112	H	1.270191	-0.575545	-0.000079
H113	H	1.685234	-0.611936	-0.000083
H114	H	1.803361	-0.480892	-0.000089
H115	H	1.697240	-0.159152	-0.000107
