data_functionalizedCrystal
_audit_creation_method	'MofGen! by Chris Wilmer'
_symmetry_space_group_name_H-M	'P1'
_symmetry_Int_Tables_number	1
_symmetry_cell_setting	triclinic
loop_
_symmetry_equiv_pos_as_xyz
  x,y,z
_cell_length_a	14.971486
_cell_length_b	15.944551
_cell_length_c	13.448316
_cell_angle_alpha	89.992444
_cell_angle_beta	89.998199
_cell_angle_gamma	83.556434
loop_
_atom_site_label
_atom_site_type_symbol
_atom_site_fract_x
_atom_site_fract_y
_atom_site_fract_z
O1	O	1.186829	0.109463	-0.082580
O2	O	0.926415	0.122572	-0.082607
O3	O	1.063733	-0.006250	-0.082584
O4	O	1.049511	0.238286	-0.082603
O5	O	1.063716	-0.006258	0.082800
O6	O	0.926398	0.122564	0.082777
O7	O	1.186812	0.109456	0.082804
Cu8	Cu	1.056603	0.116009	0.097891
Cu9	Cu	1.056624	0.116018	-0.097694
O10	O	1.049494	0.238278	0.082781
C11	C	0.893082	0.121982	0.000081
C12	C	0.793787	0.120225	0.000071
C13	C	1.063134	-0.037549	0.000108
C14	C	1.061364	-0.130797	0.000109
C15	C	0.736480	0.195904	0.000067
C16	C	0.643182	0.194249	0.000082
C17	C	0.607194	0.116913	0.000094
C18	C	0.664508	0.041227	0.000102
C19	C	0.757804	0.042884	0.000094
C20	C	0.470049	0.037780	0.000116
C21	C	0.376747	0.036123	0.000122
C22	C	0.355428	0.189145	0.000104
C23	C	0.448724	0.190801	0.000096
C24	C	0.506032	0.115116	0.000101
C25	C	0.972017	-0.345738	0.000086
C26	C	1.013498	-0.406720	0.081634
C27	C	1.058162	-0.301526	0.000101
C28	C	1.013536	-0.406696	-0.081421
C29	C	1.055062	-0.466441	0.000089
C30	C	1.099667	-0.361279	0.081717
C31	C	1.099692	-0.361248	-0.081412
C32	C	1.141236	-0.422212	0.000156
C33	C	1.059945	-0.206522	0.000109
C34	C	1.053286	-0.561444	0.000088
C35	C	1.220145	0.110046	0.000113
C36	C	1.319440	0.111802	0.000117
C37	C	1.050093	0.269576	0.000087
C38	C	1.051863	0.362824	0.000080
N39	N	1.056595	0.116002	0.235456
N40	N	1.056639	0.116019	-0.235258
C41	C	1.117419	0.058983	0.287506
C42	C	1.117425	0.058982	0.391610
C43	C	1.056610	0.116005	0.443660
C44	C	0.995780	0.173027	0.391602
C45	C	0.995771	0.173023	0.287501
C46	C	0.995805	0.173033	0.608582
C47	C	0.995815	0.173038	0.712691
C48	C	1.117459	0.058992	0.712691
C49	C	1.117449	0.058988	0.608590
C50	C	1.056620	0.116011	0.556539
H51	H	0.596526	0.255875	0.000077
C52	C	0.624921	-0.043844	0.000118
C53	C	0.646544	-0.106737	0.086006
C54	C	0.606959	-0.191809	0.086020
C55	C	0.545752	-0.213989	0.000146
C56	C	0.524126	-0.151094	-0.085748
C57	C	0.563711	-0.066022	-0.085762
H58	H	0.691856	-0.090319	0.149580
H59	H	0.622968	-0.238368	0.149605
H60	H	0.516449	-0.276965	0.000157
H61	H	0.478814	-0.167512	-0.149322
H62	H	0.547702	-0.019463	-0.149347
H63	H	0.478022	0.253775	0.000076
C64	C	1.148883	-0.333993	-0.174541
C65	C	1.186680	-0.400510	-0.251125
C66	C	1.235862	-0.373252	-0.344264
C67	C	1.247246	-0.279476	-0.360819
C68	C	1.209447	-0.212952	-0.284232
C69	C	1.160265	-0.240211	-0.191093
H70	H	1.178255	-0.469934	-0.238873
H71	H	1.263843	-0.422498	-0.400959
H72	H	1.283653	-0.259298	-0.429766
H73	H	1.217873	-0.143528	-0.296485
H74	H	1.132284	-0.190965	-0.134399
C75	C	0.928865	0.235747	0.230242
C76	C	0.862002	0.298501	0.287492
C77	C	0.795090	0.361224	0.230235
C78	C	0.795043	0.361193	0.115727
C79	C	0.861910	0.298436	0.058471
C80	C	0.928821	0.235713	0.115728
H81	H	0.862034	0.298526	0.372263
H82	H	0.745592	0.407680	0.272620
H83	H	0.745512	0.407624	0.073342
H84	H	0.861877	0.298411	-0.026300
H85	H	0.978320	0.189257	0.073342
H86	H	1.136065	-0.341257	0.150735
H87	H	0.946293	0.219471	0.755065
C88	C	1.237914	-0.466926	0.000221
C89	C	1.302554	-0.451378	-0.085200
C90	C	1.399230	-0.496094	-0.085132
C91	C	1.431265	-0.556357	0.000358
C92	C	1.366623	-0.571907	0.085786
C93	C	1.269948	-0.527191	0.085717
H94	H	1.278841	-0.406766	-0.148491
H95	H	1.447081	-0.484583	-0.148371
H96	H	1.502830	-0.589458	0.000409
H97	H	1.390337	-0.616519	0.149076
H98	H	1.222096	-0.538703	0.148957
C99	C	0.875423	-0.300827	0.000179
C100	C	0.810691	-0.316249	-0.085190
C101	C	0.714101	-0.271337	-0.085091
C102	C	0.682242	-0.211001	0.000378
C103	C	0.746975	-0.195576	0.085753
C104	C	0.843565	-0.240489	0.085654
H105	H	0.834274	-0.360916	-0.148465
H106	H	0.666182	-0.282756	-0.148292
H107	H	0.610740	-0.177754	0.000451
H108	H	0.723392	-0.150909	0.149028
H109	H	0.891485	-0.229069	0.148855
H110	H	0.977096	-0.426804	-0.150369
H111	H	1.166945	0.012552	0.245134
H112	H	1.166951	0.012552	0.433989
H113	H	0.946269	0.219464	0.566206
H114	H	1.166987	0.012562	0.755077
C115	C	1.184344	-0.003735	0.551329
C116	C	1.149385	-0.068026	0.479777
C117	C	1.216278	-0.130751	0.422514
C118	C	1.318131	-0.129185	0.436803
C119	C	1.353095	-0.064892	0.508358
C120	C	1.286202	-0.002167	0.565621
H121	H	1.073983	-0.069187	0.469196
H122	H	1.190395	-0.178345	0.369544
H123	H	1.367649	-0.175618	0.394414
H124	H	1.428497	-0.063730	0.518939
H125	H	1.312086	0.045427	0.618591
H126	H	0.977055	-0.426866	0.150570
H127	H	0.765774	0.258881	0.000056
H128	H	0.308763	0.250771	0.000103
C129	C	0.820846	-0.040365	0.000095
C130	C	0.887918	-0.060271	0.085975
C131	C	0.950960	-0.143521	0.085981
C132	C	0.946930	-0.206866	0.000109
C133	C	0.879856	-0.186962	-0.085777
C134	C	0.816814	-0.103711	-0.085783
H135	H	0.890904	-0.013378	0.149548
H136	H	1.000613	-0.158256	0.149560
H137	H	0.993597	-0.268493	0.000114
H138	H	0.876870	-0.233855	-0.149350
H139	H	0.767161	-0.088977	-0.149362
C140	C	0.337151	-0.048943	0.000145
C141	C	0.275939	-0.071107	0.086033
C142	C	0.236340	-0.156173	0.086058
C143	C	0.257953	-0.219075	0.000195
C144	C	0.319169	-0.196912	-0.085699
C145	C	0.358767	-0.111847	-0.085724
H146	H	0.259936	-0.024542	0.149599
H147	H	0.191024	-0.172579	0.149642
H148	H	0.228640	-0.282045	0.000213
H149	H	0.335171	-0.243477	-0.149266
H150	H	0.404083	-0.095441	-0.149309
H151	H	0.516708	-0.023852	0.000122
H152	H	0.946260	0.219453	0.433988
