data_functionalizedCrystal
_audit_creation_method	'MofGen! by Chris Wilmer'
_symmetry_space_group_name_H-M	'P1'
_symmetry_Int_Tables_number	1
_symmetry_cell_setting	triclinic
loop_
_symmetry_equiv_pos_as_xyz
  x,y,z
_cell_length_a	18.215407
_cell_length_b	18.050590
_cell_length_c	18.215399
_cell_angle_alpha	89.968856
_cell_angle_beta	89.983176
_cell_angle_gamma	90.019000
loop_
_atom_site_label
_atom_site_type_symbol
_atom_site_fract_x
_atom_site_fract_y
_atom_site_fract_z
Zn1	Zn	1.125082	-0.295641	-0.416112
Zn2	Zn	1.625082	0.204359	0.083888
Zn3	Zn	1.125011	-0.419841	-0.293044
Zn4	Zn	1.625011	0.080159	0.206956
Zn5	Zn	1.002022	-0.295670	-0.293059
Zn6	Zn	1.502022	0.204330	0.206941
Zn7	Zn	1.001995	-0.419794	-0.416069
Zn8	Zn	1.501995	0.080206	0.083931
O9	O	1.063527	-0.357736	-0.354571
O10	O	1.563527	0.142264	0.145429
O11	O	1.228057	-0.312123	-0.399798
O12	O	1.728057	0.187877	0.100202
O13	O	1.108677	-0.403401	-0.190062
O14	O	1.608677	0.096599	0.309938
O15	O	1.018387	-0.191742	-0.309407
O16	O	1.518387	0.308258	0.190593
O17	O	1.228005	-0.403372	-0.309381
O18	O	1.728005	0.096628	0.190619
O19	O	1.108799	-0.191720	-0.399813
O20	O	1.608799	0.308280	0.100187
O21	O	1.018318	-0.312173	-0.190073
O22	O	1.518318	0.187827	0.309927
O23	O	0.899034	-0.312128	-0.309365
O24	O	1.399034	0.187872	0.190635
O25	O	1.018341	-0.403293	-0.519059
O26	O	1.518341	0.096707	-0.019059
O27	O	0.899014	-0.403322	-0.399740
O28	O	1.399014	0.096678	0.100260
O29	O	1.108773	-0.312078	-0.519090
O30	O	1.608773	0.187922	-0.019090
O31	O	1.108651	-0.523759	-0.309339
O32	O	1.608651	-0.023759	0.190661
O33	O	1.018272	-0.523725	-0.399725
O34	O	1.518272	-0.023725	0.100275
C35	C	0.872321	-0.357724	-0.354550
C36	C	1.372321	0.142276	0.145450
C37	C	0.790522	-0.357736	-0.354558
C38	C	1.290522	0.142264	0.145442
C39	C	0.602337	-0.405295	-0.401557
C40	C	1.102337	0.094705	0.098443
C41	C	0.525478	-0.405298	-0.401566
C42	C	1.025478	0.094702	0.098434
C43	C	0.525470	-0.310191	-0.307601
C44	C	1.025470	0.189809	0.192399
C45	C	0.602327	-0.310185	-0.307596
C46	C	1.102327	0.189815	0.192404
C47	C	0.640759	-0.357742	-0.354573
C48	C	1.140759	0.142258	0.145427
C49	C	0.487043	-0.357750	-0.354587
C50	C	0.987043	0.142250	0.145413
C51	C	0.403709	-0.357752	-0.354597
C52	C	0.903709	0.142248	0.145403
C53	C	0.724098	-0.357739	-0.354565
C54	C	1.224098	0.142261	0.145435
C55	C	1.063471	-0.550689	-0.354542
C56	C	1.563471	-0.050689	0.145458
C57	C	1.063514	-0.633234	-0.354554
C58	C	1.563514	-0.133234	0.145446
C59	C	1.112765	-0.832676	-0.305470
C60	C	1.612765	-0.332676	0.194530
C61	C	1.130738	-0.882006	-0.372637
C62	C	1.630738	-0.382006	0.127363
C63	C	1.063556	-0.784365	-0.354583
C64	C	1.563556	-0.284365	0.145417
C65	C	1.045657	-0.882117	-0.287446
C66	C	1.545657	-0.382117	0.212554
C67	C	1.063597	-0.930350	-0.354605
C68	C	1.563597	-0.430350	0.145395
C69	C	1.081564	-0.832607	-0.421785
C70	C	1.581564	-0.332607	0.078215
C71	C	0.996451	-0.832714	-0.336549
C72	C	1.496451	-0.332714	0.163451
C73	C	1.014399	-0.882020	-0.403762
C74	C	1.514399	-0.382020	0.096238
C75	C	1.063534	-0.700266	-0.354569
C76	C	1.563534	-0.200266	0.145431
C77	C	1.063619	-1.014446	-0.354627
C78	C	1.563619	-0.514446	0.145373
C79	C	1.255480	-0.357750	-0.354593
C80	C	1.755480	0.142250	0.145407
C81	C	1.337279	-0.357755	-0.354602
C82	C	1.837279	0.142245	0.145398
C83	C	1.063562	-0.357677	-0.546524
C84	C	1.563562	0.142323	-0.046524
C85	C	1.063577	-0.357652	-0.628323
C86	C	1.563577	0.142348	-0.128323
C87	C	1.063604	-0.164031	-0.354616
C88	C	1.563604	0.335969	0.145384
C89	C	1.063637	-0.081485	-0.354636
C90	C	1.563637	0.418515	0.145364
C91	C	1.016566	-0.310117	-0.816524
C92	C	1.516566	0.189883	-0.316524
C93	C	1.016579	-0.310102	-0.893382
C94	C	1.516579	0.189898	-0.393382
C95	C	1.110676	-0.405097	-0.893360
C96	C	1.610676	0.094903	-0.393360
C97	C	1.110658	-0.405116	-0.816503
C98	C	1.610658	0.094884	-0.316503
C99	C	1.063605	-0.357621	-0.778086
C100	C	1.563605	0.142379	-0.278086
C101	C	1.063635	-0.357588	-0.931803
C102	C	1.563635	0.142412	-0.431803
C103	C	1.063649	-0.357572	-1.015136
C104	C	1.563649	0.142428	-0.515136
C105	C	1.063590	-0.357638	-0.694747
C106	C	1.563590	0.142362	-0.194747
C107	C	1.063535	-0.357742	-0.163365
C108	C	1.563535	0.142258	0.336635
C109	C	1.063663	-0.357558	-0.081566
C110	C	1.563663	0.142442	0.418434
H111	H	0.633610	-0.271457	-0.269335
H112	H	1.133610	0.228543	0.230665
H113	H	1.148985	-0.443765	-0.924648
H114	H	1.648985	0.056235	-0.424648
H115	H	0.978252	-0.271445	-0.785247
H116	H	1.478252	0.228555	-0.285247
H117	H	1.148965	-0.443802	-0.785206
H118	H	1.648965	0.056198	-0.285206
H119	H	0.633626	-0.444017	-0.439811
H120	H	1.133626	0.055983	0.060189
C121	C	0.920808	-0.803852	-0.316016
C122	C	1.420808	-0.303852	0.183984
C123	C	0.902328	-0.828880	-0.245628
C124	C	1.402328	-0.328880	0.254372
C125	C	0.832656	-0.802298	-0.226676
C126	C	1.332656	-0.302298	0.273324
H127	H	0.885669	-0.821464	-0.350353
H128	H	1.385669	-0.321464	0.149647
H129	H	0.921226	-0.751223	-0.316558
H130	H	1.421226	-0.251223	0.183442
H131	H	0.901905	-0.881498	-0.245091
H132	H	1.401905	-0.381498	0.254909
H133	H	0.937449	-0.811269	-0.211275
H134	H	1.437449	-0.311269	0.288725
H135	H	0.833073	-0.749669	-0.227218
H136	H	1.333073	-0.249669	0.272782
H137	H	0.797523	-0.819912	-0.261018
H138	H	1.297523	-0.319912	0.238982
H139	H	0.820111	-0.819270	-0.178914
H140	H	1.320111	-0.319270	0.321086
H141	H	1.154393	-0.811010	-0.263980
H142	H	1.654393	-0.311010	0.236020
H143	H	0.494199	-0.444019	-0.439827
H144	H	0.994199	0.055981	0.060173
C145	C	1.025543	-0.911011	-0.211665
C146	C	1.525543	-0.411011	0.288335
C147	C	1.077215	-0.885992	-0.160464
C148	C	1.577215	-0.385992	0.339536
C149	C	1.058711	-0.912584	-0.090646
C150	C	1.558711	-0.412584	0.409354
H151	H	1.025277	-0.963631	-0.212226
H152	H	1.525277	-0.463631	0.287774
H153	H	0.978207	-0.893386	-0.198469
H154	H	1.478207	-0.393386	0.301531
H155	H	1.124538	-0.903620	-0.173657
H156	H	1.624538	-0.403620	0.326343
H157	H	1.077489	-0.833376	-0.159880
H158	H	1.577489	-0.333376	0.340120
H159	H	1.011375	-0.894959	-0.077449
H160	H	1.511375	-0.394959	0.422551
H161	H	1.058444	-0.965203	-0.091214
H162	H	1.558444	-0.465203	0.408786
H163	H	1.093763	-0.895607	-0.055896
H164	H	1.593763	-0.395607	0.444104
H165	H	0.494169	-0.271473	-0.269352
H166	H	0.994169	0.228527	0.230648
H167	H	0.978275	-0.271421	-0.924675
H168	H	1.478275	0.228579	-0.424675
C169	C	1.206492	-0.910732	-0.392969
C170	C	1.706492	-0.410732	0.107031
C171	C	1.253781	-0.850767	-0.404964
C172	C	1.753781	-0.350767	0.095036
C173	C	1.323576	-0.877193	-0.423678
C174	C	1.823576	-0.377193	0.076322
H175	H	1.203250	-0.939640	-0.436408
H176	H	1.703250	-0.439640	0.063592
H177	H	1.225007	-0.940419	-0.354079
H178	H	1.725007	-0.440419	0.145921
H179	H	1.235270	-0.821092	-0.443852
H180	H	1.735270	-0.321092	0.056148
H181	H	1.257045	-0.821853	-0.361535
H182	H	1.757045	-0.321853	0.138465
H183	H	1.342091	-0.906881	-0.384787
H184	H	1.842091	-0.406881	0.115213
H185	H	1.320326	-0.906101	-0.467115
H186	H	1.820326	-0.406101	0.032885
H187	H	1.355671	-0.836512	-0.431812
H188	H	1.855671	-0.336512	0.068188
C189	C	1.101889	-0.803594	-0.497465
C190	C	1.601889	-0.303594	0.002535
C191	C	1.101678	-0.726034	-0.496557
C192	C	1.601678	-0.226034	0.003443
C193	C	1.120410	-0.699281	-0.566254
C194	C	1.620410	-0.199281	-0.066254
H195	H	1.067197	-0.820804	-0.532451
H196	H	1.567197	-0.320804	-0.032451
H197	H	1.149442	-0.820840	-0.510369
H198	H	1.649442	-0.320840	-0.010369
H199	H	1.054131	-0.708795	-0.483662
H200	H	1.554131	-0.208795	0.016338
H201	H	1.136371	-0.708804	-0.461586
H202	H	1.636371	-0.208804	0.038414
H203	H	1.167963	-0.716527	-0.579158
H204	H	1.667963	-0.216527	-0.079158
H205	H	1.085715	-0.716496	-0.601234
H206	H	1.585715	-0.216496	-0.101234
H207	H	1.120275	-0.646654	-0.565645
H208	H	1.620275	-0.146654	-0.065645
H209	H	0.972803	-0.903550	-0.445353
H210	H	1.472803	-0.403550	0.054647
