data_functionalizedCrystal
_audit_creation_method	'MofGen! by Chris Wilmer'
_symmetry_space_group_name_H-M	'P1'
_symmetry_Int_Tables_number	1
_symmetry_cell_setting	triclinic
loop_
_symmetry_equiv_pos_as_xyz
  x,y,z
_cell_length_a	10.489716
_cell_length_b	10.489716
_cell_length_c	9.130313
_cell_angle_alpha	90.002761
_cell_angle_beta	90.000115
_cell_angle_gamma	84.529136
loop_
_atom_site_label
_atom_site_type_symbol
_atom_site_fract_x
_atom_site_fract_y
_atom_site_fract_z
O1	O	1.694049	0.179815	-0.121773
O2	O	1.322848	0.196741	-0.121777
O3	O	1.516911	0.002677	-0.121780
O4	O	1.499985	0.373879	-0.121770
O5	O	1.516909	0.002683	0.121818
O6	O	1.322845	0.196746	0.121822
O7	O	1.694046	0.179820	0.121826
Cu8	Cu	1.508446	0.188284	0.144066
Cu9	Cu	1.508448	0.188277	-0.144018
O10	O	1.499983	0.373884	0.121829
C11	C	1.275314	0.195472	0.000021
C12	C	1.133684	0.191667	0.000019
C13	C	1.035999	0.310673	0.000019
C14	C	0.958658	0.247790	0.120131
C15	C	0.958667	0.247757	-0.120039
C16	C	1.058208	0.128834	0.120230
C17	C	1.058222	0.128818	-0.120047
C18	C	0.980929	0.065848	0.000094
C19	C	1.515638	-0.044852	0.000015
C20	C	1.511833	-0.186483	0.000001
C21	C	1.630839	-0.284167	0.000016
C22	C	1.567955	-0.361525	-0.120088
C23	C	1.567925	-0.361484	0.120081
C24	C	1.448999	-0.261975	-0.120202
C25	C	1.448987	-0.261929	0.120075
C26	C	1.386015	-0.339237	-0.000058
C27	C	1.741580	0.181089	0.000024
C28	C	1.883210	0.184894	0.000016
C29	C	1.501256	0.421413	0.000031
C30	C	1.505061	0.563044	0.000034
N31	N	1.508453	0.188287	0.346689
N32	N	1.508451	0.188264	-0.346640
C33	C	1.594406	0.102385	0.423339
C34	C	1.594403	0.102370	0.576676
C35	C	1.422488	0.274170	0.576698
C36	C	1.422487	0.274178	0.423364
C37	C	1.680373	0.016495	0.346664
C38	C	1.766334	-0.069413	0.423315
C39	C	1.766331	-0.069428	0.576651
C40	C	1.680366	0.016464	0.653338
H41	H	1.101723	0.078617	-0.221599
H42	H	1.398792	-0.218404	0.221619
H43	H	1.618193	-0.405026	-0.221628
H44	H	1.352500	0.344101	0.639146
H45	H	0.956508	-0.037744	0.000161
H46	H	1.398790	-0.218669	-0.221853
H47	H	1.101527	0.078628	0.221876
H48	H	1.618186	-0.404958	0.221617
H49	H	1.836315	-0.139386	0.639059
H50	H	1.836317	-0.139351	0.360869
H51	H	1.680362	0.016436	0.778195
H52	H	1.680386	0.016502	0.221809
H53	H	1.352494	0.344126	0.360955
H54	H	1.282422	-0.363659	-0.000124
H55	H	1.060659	0.414190	0.000134
H56	H	0.915170	0.298030	0.221677
H57	H	0.915180	0.298016	-0.221569
H58	H	1.734354	-0.259500	-0.000105
