data_functionalizedCrystal
_audit_creation_method	'MofGen! by Chris Wilmer'
_symmetry_space_group_name_H-M	'P1'
_symmetry_Int_Tables_number	1
_symmetry_cell_setting	triclinic
loop_
_symmetry_equiv_pos_as_xyz
  x,y,z
_cell_length_a	19.077105
_cell_length_b	19.120786
_cell_length_c	19.076919
_cell_angle_alpha	90.269320
_cell_angle_beta	89.923776
_cell_angle_gamma	90.063747
loop_
_atom_site_label
_atom_site_type_symbol
_atom_site_fract_x
_atom_site_fract_y
_atom_site_fract_z
Zn1	Zn	1.044393	-0.338642	0.425365
Zn2	Zn	1.044421	-0.451190	0.302856
Zn3	Zn	0.931995	-0.329265	0.303575
Zn4	Zn	0.922260	-0.450768	0.415627
O5	O	0.985768	-0.392466	0.361856
O6	O	1.142561	-0.357673	0.412888
O7	O	1.033594	-0.431269	0.204786
O8	O	0.950968	-0.232557	0.324108
O9	O	1.142581	-0.440361	0.322881
O10	O	1.033546	-0.239446	0.413586
O11	O	0.950995	-0.341691	0.205315
O12	O	0.832540	-0.341281	0.314665
O13	O	0.934376	-0.439642	0.515084
O14	O	0.825388	-0.430549	0.396989
O15	O	1.024106	-0.357263	0.522238
O16	O	1.024154	-0.549086	0.313438
O17	O	0.934403	-0.548776	0.396291
C18	C	0.803511	-0.384853	0.354849
C19	C	0.725540	-0.381613	0.351867
C20	C	0.685204	-0.426633	0.393254
C21	C	0.611941	-0.423580	0.390456
C22	C	0.579017	-0.375510	0.346267
C23	C	0.619359	-0.330485	0.304878
C24	C	0.692620	-0.333535	0.307680
C25	C	0.360308	-0.361393	0.333302
C26	C	0.287042	-0.358348	0.330501
C27	C	0.279630	-0.451442	0.416081
C28	C	0.352892	-0.454491	0.418876
C29	C	0.393228	-0.409464	0.377490
N30	N	0.504131	-0.372389	0.343404
N31	N	0.468112	-0.412581	0.380357
C32	C	0.978243	-0.574330	0.353746
C33	C	0.975088	-0.652136	0.350302
C34	C	1.016564	-0.692215	0.395306
C35	C	1.013596	-0.765322	0.392072
C36	C	0.969155	-0.798347	0.343829
C37	C	0.927673	-0.758262	0.298823
C38	C	0.930638	-0.685157	0.302062
C39	C	0.958050	-1.018902	0.331722
C40	C	0.955090	-1.092012	0.328486
C41	C	1.041012	-1.099067	0.421736
C42	C	1.043976	-1.025960	0.424967
C43	C	1.002492	-0.985881	0.379963
C44	C	0.966121	-0.873074	0.340521
C45	C	1.005522	-0.911156	0.383276
C46	C	1.168736	-0.400110	0.368891
C47	C	1.246706	-0.403367	0.371889
C48	C	0.978152	-0.399452	0.544826
C49	C	0.974907	-0.402428	0.622796
C50	C	0.993340	-0.209894	0.370014
C51	C	0.996567	-0.132092	0.373490
C52	C	0.993396	-0.385459	0.179602
C53	C	0.996785	-0.382291	0.101645
C54	C	1.020097	-0.360938	0.663153
C55	C	1.017040	-0.363732	0.736415
C56	C	0.968794	-0.408020	0.769318
C57	C	0.923598	-0.449512	0.728956
C58	C	0.926653	-0.446714	0.655696
C59	C	0.954645	-0.420984	0.988023
C60	C	0.951595	-0.423781	1.061289
C61	C	1.045036	-0.338000	1.068742
C62	C	1.048089	-0.335209	0.995480
C63	C	1.002891	-0.376698	0.955125
N64	N	0.965669	-0.410879	0.844203
N65	N	1.006013	-0.373835	0.880241
H66	H	0.579102	-0.460240	0.424158
H67	H	0.260238	-0.319195	0.294522
C68	C	0.721413	-0.479514	0.441866
N69	N	0.748684	-0.519345	0.478484
C70	C	0.404668	-0.311865	0.287771
N71	N	0.438082	-0.274560	0.253473
C72	C	1.054408	-0.874826	0.436340
N73	N	1.091232	-0.847455	0.476305
H74	H	0.912305	-0.459847	1.088076
C75	C	0.389103	-0.507375	0.467484
N76	N	0.416377	-0.547211	0.504093
H77	H	0.929939	-0.899972	0.301240
H78	H	1.087378	-0.299147	0.968696
C79	C	0.235255	-0.500963	0.461608
N80	N	0.201832	-0.538263	0.495903
C81	C	0.583139	-0.277605	0.256271
N82	N	0.555860	-0.237777	0.219658
H83	H	1.047376	-0.797952	0.428714
H84	H	0.891485	-0.785157	0.259546
C85	C	0.736990	-0.284011	0.262149
N86	N	0.770408	-0.246707	0.227855
H87	H	1.052756	-0.665331	0.434587
H88	H	1.080164	-0.999072	0.464250
H89	H	1.074785	-1.131707	0.458376
C90	C	0.906196	-1.128338	0.275416
N91	N	0.869371	-1.155699	0.235445
C92	C	0.912400	-0.974824	0.282232
N93	N	0.878007	-0.941623	0.244959
H94	H	0.896863	-0.652524	0.265416
H95	H	1.059387	-0.324877	0.636369
C96	C	1.094742	-0.292357	1.113139
N97	N	1.132179	-0.257973	1.146580
H98	H	1.053841	-0.329949	0.769270
C99	C	0.904923	-0.466621	0.943641
N100	N	0.867469	-0.500996	0.910210
C101	C	0.876941	-0.492357	0.611303
N102	N	0.839494	-0.526736	0.577868
C103	C	0.870521	-0.498222	0.765152
N104	N	0.830541	-0.534911	0.792415
