data_functionalizedCrystal
_audit_creation_method	'MofGen! by Chris Wilmer'
_symmetry_space_group_name_H-M	'P1'
_symmetry_Int_Tables_number	1
_symmetry_cell_setting	triclinic
loop_
_symmetry_equiv_pos_as_xyz
  x,y,z
_cell_length_a	16.625548
_cell_length_b	18.101395
_cell_length_c	16.625539
_cell_angle_alpha	89.974216
_cell_angle_beta	89.982945
_cell_angle_gamma	90.032172
loop_
_atom_site_label
_atom_site_type_symbol
_atom_site_fract_x
_atom_site_fract_y
_atom_site_fract_z
Zn1	Zn	1.232604	-0.294821	-0.455913
Zn2	Zn	1.565937	0.038513	-0.122580
Zn3	Zn	1.899271	0.371846	0.210754
Zn4	Zn	1.232495	-0.418666	-0.321082
Zn5	Zn	1.565829	-0.085333	0.012252
Zn6	Zn	1.899162	0.248001	0.345585
Zn7	Zn	1.097774	-0.294845	-0.321094
Zn8	Zn	1.431108	0.038488	0.012240
Zn9	Zn	1.764441	0.371822	0.345573
Zn10	Zn	1.097716	-0.418627	-0.455872
Zn11	Zn	1.431049	-0.085294	-0.122538
Zn12	Zn	1.764383	0.248039	0.210795
O13	O	1.165147	-0.356740	-0.388490
O14	O	1.498481	-0.023406	-0.055157
O15	O	1.831814	0.309927	0.278177
O16	O	1.345422	-0.311255	-0.438040
O17	O	1.678755	0.022078	-0.104706
O18	O	2.012089	0.355412	0.228627
O19	O	1.214603	-0.402267	-0.208251
O20	O	1.547936	-0.068934	0.125082
O21	O	1.881270	0.264400	0.458416
O22	O	1.115730	-0.191209	-0.339000
O23	O	1.449063	0.142124	-0.005667
O24	O	1.782396	0.475458	0.327667
O25	O	1.345342	-0.402244	-0.338980
O26	O	1.678675	-0.068910	-0.005646
O27	O	2.012009	0.264423	0.327687
O28	O	1.214789	-0.191191	-0.438051
O29	O	1.548122	0.142142	-0.104718
O30	O	1.881455	0.475476	0.228616
O31	O	1.115624	-0.311296	-0.208260
O32	O	1.448957	0.022037	0.125074
O33	O	1.782291	0.355370	0.458407
O34	O	0.984934	-0.311259	-0.338960
O35	O	1.318267	0.022074	-0.005626
O36	O	1.651601	0.355408	0.327707
O37	O	1.115630	-0.402178	-0.568710
O38	O	1.448964	-0.068845	-0.235376
O39	O	1.782297	0.264489	0.097957
O40	O	0.984891	-0.402201	-0.437981
O41	O	1.318225	-0.068868	-0.104647
O42	O	1.651558	0.264465	0.228686
O43	O	1.214732	-0.311218	-0.568740
O44	O	1.548065	0.022116	-0.235407
O45	O	1.881399	0.355449	0.097927
O46	O	1.214547	-0.522294	-0.338940
O47	O	1.547880	-0.188960	-0.005606
O48	O	1.881213	0.144373	0.327727
O49	O	1.115525	-0.522265	-0.437969
O50	O	1.448858	-0.188932	-0.104636
O51	O	1.782192	0.144401	0.228697
C52	C	0.955657	-0.356729	-0.388467
C53	C	1.288990	-0.023396	-0.055134
C54	C	1.622323	0.309938	0.278199
C55	C	0.866035	-0.356742	-0.388477
C56	C	1.199369	-0.023409	-0.055144
C57	C	1.532702	0.309924	0.278190
C58	C	0.537860	-0.356747	-0.388511
C59	C	0.871193	-0.023414	-0.055178
C60	C	1.204526	0.309919	0.278155
C61	C	0.629168	-0.356744	-0.388499
C62	C	0.962502	-0.023411	-0.055166
C63	C	1.295835	0.309923	0.278167
C64	C	0.701945	-0.356745	-0.388494
C65	C	1.035278	-0.023412	-0.055160
C66	C	1.368611	0.309921	0.278173
C67	C	0.793259	-0.356741	-0.388483
C68	C	1.126592	-0.023408	-0.055149
C69	C	1.459926	0.309926	0.278184
C70	C	1.165040	-0.549150	-0.388466
C71	C	1.498373	-0.215817	-0.055133
C72	C	1.831706	0.117516	0.278200
C73	C	1.165067	-0.631464	-0.388483
C74	C	1.498400	-0.298131	-0.055150
C75	C	1.831734	0.035202	0.278184
C76	C	1.165244	-0.930555	-0.388527
C77	C	1.498577	-0.597222	-0.055193
C78	C	1.831911	-0.263889	0.278140
C79	C	1.103087	-0.899243	-0.450988
C80	C	1.436420	-0.565910	-0.117655
C81	C	1.769753	-0.232577	0.215679
C82	C	1.102791	-0.813625	-0.450793
C83	C	1.436125	-0.480292	-0.117459
C84	C	1.769458	-0.146959	0.215874
C85	C	1.165156	-0.782173	-0.388506
C86	C	1.498490	-0.448839	-0.055172
C87	C	1.831823	-0.115506	0.278161
C88	C	1.142154	-0.813322	-0.303528
C89	C	1.475488	-0.479989	0.029806
C90	C	1.808821	-0.146656	0.363139
C91	C	1.141754	-0.898968	-0.303901
C92	C	1.475087	-0.565634	0.029432
C93	C	1.808420	-0.232301	0.362765
C94	C	1.250539	-0.898898	-0.410295
C95	C	1.583873	-0.565565	-0.076962
C96	C	1.917206	-0.232231	0.256372
C97	C	1.250038	-0.813247	-0.412159
C98	C	1.583371	-0.479914	-0.078825
C99	C	1.916704	-0.146580	0.254508
C100	C	1.165108	-0.698313	-0.388489
C101	C	1.498441	-0.364980	-0.055155
C102	C	1.831775	-0.031647	0.278178
C103	C	1.165290	-1.014415	-0.388538
C104	C	1.498624	-0.681081	-0.055205
C105	C	1.831957	-0.347748	0.278129
C106	C	1.375456	-0.356751	-0.388513
C107	C	1.708790	-0.023418	-0.055180
C108	C	2.042123	0.309916	0.278154
C109	C	1.465077	-0.356756	-0.388523
C110	C	1.798411	-0.023422	-0.055190
C111	C	2.131744	0.309911	0.278144
C112	C	1.165187	-0.356691	-0.598799
C113	C	1.498520	-0.023358	-0.265466
C114	C	1.831854	0.309976	0.067868
C115	C	1.165204	-0.356670	-0.688420
C116	C	1.498537	-0.023337	-0.355087
C117	C	1.831870	0.309997	-0.021753
C118	C	1.165278	-0.163578	-0.388531
C119	C	1.498611	0.169756	-0.055198
C120	C	1.831944	0.503089	0.278135
C121	C	1.165333	-0.081264	-0.388549
C122	C	1.498667	0.252070	-0.055216
C123	C	1.832000	0.585403	0.278118
C124	C	1.165217	-0.356654	-0.761203
C125	C	1.498550	-0.023320	-0.427869
C126	C	1.831884	0.310013	-0.094536
C127	C	1.165236	-0.356626	-0.852511
C128	C	1.498569	-0.023293	-0.519178
C129	C	1.831902	0.310041	-0.185844
C130	C	1.165255	-0.356600	-0.925288
C131	C	1.498588	-0.023267	-0.591954
C132	C	1.831921	0.310067	-0.258621
C133	C	1.165275	-0.356573	-1.016602
C134	C	1.498608	-0.023240	-0.683269
C135	C	1.831942	0.310093	-0.349935
C136	C	1.165154	-0.356735	-0.178999
C137	C	1.498488	-0.023402	0.154334
C138	C	1.831821	0.309932	0.487667
C139	C	1.165294	-0.356547	-0.089378
C140	C	1.498627	-0.023214	0.243955
C141	C	1.831961	0.310119	0.577288
H142	H	1.117182	-0.792562	-0.513803
H143	H	1.450515	-0.459229	-0.180469
H144	H	1.783849	-0.125896	0.152864
H145	H	1.117335	-0.919792	-0.514202
H146	H	1.450668	-0.586459	-0.180869
H147	H	1.784001	-0.253125	0.152464
C148	C	1.018195	-0.928395	-0.431753
C149	C	1.351528	-0.595062	-0.098420
C150	C	1.684861	-0.261729	0.234913
H151	H	1.020467	-0.959564	-0.385821
H152	H	1.353801	-0.626231	-0.052487
H153	H	1.687134	-0.292898	0.280846
H154	H	0.998383	-0.955641	-0.476375
H155	H	1.331716	-0.622307	-0.143042
H156	H	1.665050	-0.288974	0.190292
H157	H	0.983363	-0.887961	-0.421179
H158	H	1.316697	-0.554627	-0.087846
H159	H	1.650030	-0.221294	0.245487
C160	C	1.273476	-0.785750	-0.496645
C161	C	1.606809	-0.452417	-0.163312
C162	C	1.940142	-0.119084	0.170022
H163	H	1.324873	-0.804741	-0.510614
H164	H	1.658206	-0.471407	-0.177280
H165	H	1.991539	-0.138074	0.156053
H166	H	1.275258	-0.733297	-0.496836
H167	H	1.608591	-0.399964	-0.163502
H168	H	1.941925	-0.066630	0.169831
H169	H	1.234754	-0.802265	-0.534615
H170	H	1.568087	-0.468932	-0.201282
H171	H	1.901421	-0.135598	0.132052
C172	C	1.200243	-0.926957	-0.238879
C173	C	1.533577	-0.593623	0.094454
C174	C	1.866910	-0.260290	0.427788
H175	H	1.224140	-0.885982	-0.212349
H176	H	1.557473	-0.552649	0.120985
H177	H	1.890806	-0.219316	0.454318
H178	H	1.241019	-0.956068	-0.263289
H179	H	1.574352	-0.622735	0.070044
H180	H	1.907685	-0.289401	0.403378
H181	H	1.171643	-0.956077	-0.200870
H182	H	1.504976	-0.622744	0.132463
H183	H	1.838310	-0.289410	0.465796
H184	H	1.039568	-0.793203	-0.436373
H185	H	1.372902	-0.459869	-0.103040
H186	H	1.706235	-0.126536	0.230294
H187	H	1.079403	-0.919011	-0.285461
H188	H	1.412737	-0.585678	0.047872
H189	H	1.746070	-0.252345	0.381205
H190	H	1.186003	-0.792950	-0.255720
H191	H	1.519336	-0.459617	0.077613
H192	H	1.852669	-0.126284	0.410946
C193	C	1.058812	-0.784448	-0.278172
C194	C	1.392145	-0.451115	0.055161
C195	C	1.725479	-0.117782	0.388495
H196	H	1.037923	-0.753419	-0.319252
H197	H	1.371256	-0.420086	0.014081
H198	H	1.704590	-0.086752	0.347415
H199	H	1.063637	-0.757114	-0.229651
H200	H	1.396970	-0.423780	0.103683
H201	H	1.730304	-0.090447	0.437016
H202	H	1.023451	-0.825006	-0.269988
H203	H	1.356784	-0.491673	0.063345
H204	H	1.690118	-0.158340	0.396678
H205	H	1.271511	-0.920447	-0.471205
H206	H	1.604845	-0.587114	-0.137872
H207	H	1.938178	-0.253781	0.195462
C208	C	1.315909	-0.784334	-0.355172
C209	C	1.649242	-0.451001	-0.021839
C210	C	1.982576	-0.117667	0.311494
H211	H	1.292401	-0.752795	-0.316032
H212	H	1.625734	-0.419462	0.017302
H213	H	1.959067	-0.086129	0.350635
H214	H	1.354793	-0.757533	-0.385238
H215	H	1.688126	-0.424200	-0.051905
H216	H	2.021460	-0.090866	0.281429
H217	H	1.341161	-0.824846	-0.329070
H218	H	1.674495	-0.491512	0.004263
H219	H	2.007828	-0.158179	0.337596
C220	C	1.313083	-0.926177	-0.348786
C221	C	1.646416	-0.592844	-0.015453
C222	C	1.979750	-0.259510	0.317881
H223	H	1.287386	-0.956720	-0.310032
H224	H	1.620719	-0.623386	0.023301
H225	H	1.954053	-0.290053	0.356635
H226	H	1.336852	-0.884944	-0.322632
H227	H	1.670185	-0.551611	0.010702
H228	H	2.003518	-0.218277	0.344035
H229	H	1.353582	-0.953691	-0.375732
H230	H	1.686916	-0.620358	-0.042398
H231	H	2.020249	-0.287025	0.290935
