data_functionalizedCrystal
_audit_creation_method	'MofGen! by Chris Wilmer'
_symmetry_space_group_name_H-M	'P1'
_symmetry_Int_Tables_number	1
_symmetry_cell_setting	triclinic
loop_
_symmetry_equiv_pos_as_xyz
  x,y,z
_cell_length_a	11.169417
_cell_length_b	19.121063
_cell_length_c	11.169409
_cell_angle_alpha	87.599247
_cell_angle_beta	90.019513
_cell_angle_gamma	92.470085
loop_
_atom_site_label
_atom_site_type_symbol
_atom_site_fract_x
_atom_site_fract_y
_atom_site_fract_z
Zn1	Zn	1.814442	-0.279532	0.698841
Zn2	Zn	2.314442	0.220468	1.198841
Zn3	Zn	1.805708	-0.397005	0.506692
Zn4	Zn	2.305708	0.102995	1.006692
Zn5	Zn	1.613725	-0.279576	0.498179
Zn6	Zn	2.113725	0.220424	0.998179
Zn7	Zn	1.605116	-0.396949	0.707334
Zn8	Zn	2.105116	0.103051	1.207334
O9	O	1.709748	-0.338266	0.602761
O10	O	2.209748	0.161734	1.102761
O11	O	1.981233	-0.295121	0.673360
O12	O	2.481233	0.204879	1.173360
O13	O	1.780188	-0.381470	0.337616
O14	O	2.280188	0.118530	0.837616
O15	O	1.647608	-0.181286	0.517680
O16	O	2.147608	0.318714	1.017680
O17	O	1.974816	-0.381428	0.532189
O18	O	2.474816	0.118572	1.032189
O19	O	1.795075	-0.181254	0.665105
O20	O	2.295075	0.318746	1.165105
O21	O	1.639139	-0.295195	0.331362
O22	O	2.139139	0.204805	0.831362
O23	O	1.444633	-0.295140	0.525916
O24	O	1.944633	0.204860	1.025916
O25	O	1.632936	-0.381332	0.874154
O26	O	2.132936	0.118668	1.374154
O27	O	1.438309	-0.381374	0.679581
O28	O	1.938309	0.118626	1.179581
O29	O	1.786727	-0.295066	0.867914
O30	O	2.286727	0.204934	1.367914
O31	O	1.771841	-0.495282	0.540424
O32	O	2.271841	0.004718	1.040424
O33	O	1.624467	-0.495241	0.687835
O34	O	2.124467	0.004759	1.187835
C35	C	1.397924	-0.338256	0.602747
C36	C	1.897924	0.161744	1.102747
C37	C	1.264523	-0.338269	0.602770
C38	C	1.764523	0.161731	1.102770
C39	C	1.696304	-0.520745	0.616001
C40	C	2.196304	-0.020745	1.116001
C41	C	1.690663	-0.598811	0.621706
C42	C	2.190663	-0.098811	1.121706
C43	C	1.764802	-0.635484	0.547700
C44	C	2.264802	-0.135484	1.047700
C45	C	1.759504	-0.708835	0.553072
C46	C	2.259504	-0.208835	1.053072
C47	C	1.680059	-0.745511	0.632444
C48	C	2.180059	-0.245511	1.132444
C49	C	1.605917	-0.708832	0.706458
C50	C	2.105917	-0.208832	1.206458
C51	C	1.611222	-0.635483	0.701091
C52	C	2.111222	-0.135483	1.201091
C53	C	1.660204	-0.966979	0.652490
C54	C	2.160204	-0.466979	1.152490
C55	C	1.654902	-1.040334	0.657849
C56	C	2.154902	-0.540334	1.157849
C57	C	1.808491	-1.040332	0.504464
C58	C	2.308491	-0.540332	1.004464
C59	C	1.813784	-0.966981	0.499099
C60	C	2.313784	-0.466981	0.999099
C61	C	1.739647	-0.930309	0.573117
C62	C	2.239647	-0.430309	1.073117
C63	C	1.674639	-0.820488	0.637934
C64	C	2.174639	-0.320488	1.137934
C65	C	1.745074	-0.855334	0.567632
C66	C	2.245074	-0.355334	1.067632
C67	C	2.022789	-0.338276	0.602777
C68	C	2.522789	0.161724	1.102777
C69	C	2.156189	-0.338280	0.602783
C70	C	2.656189	0.161720	1.102783
C71	C	1.709846	-0.338188	0.915798
C72	C	2.209846	0.161812	1.415798
C73	C	1.709887	-0.338154	1.049196
C74	C	2.209887	0.161846	1.549196
C75	C	1.723276	-0.155073	0.589496
C76	C	2.223276	0.344927	1.089496
C77	C	1.729041	-0.077008	0.583843
C78	C	2.229041	0.422992	1.083843
C79	C	1.709723	-0.338293	0.290939
C80	C	2.209723	0.161707	0.790939
C81	C	1.709928	-0.338128	0.157527
C82	C	2.209928	0.161872	0.657527
H83	H	1.819875	-0.738692	0.492808
H84	H	2.319875	-0.238692	0.992808
H85	H	1.599836	-0.937127	0.712756
H86	H	2.099836	-0.437127	1.212756
O87	O	1.577757	-1.076071	0.734852
O88	O	2.077757	-0.576071	1.234852
C89	C	1.588992	-1.148675	0.723727
C90	C	2.088992	-0.648675	1.223727
H91	H	1.627618	-1.158714	0.631870
H92	H	2.127618	-0.658714	1.131870
H93	H	1.497070	-1.176592	0.733830
H94	H	1.997070	-0.676592	1.233830
H95	H	1.651369	-1.169427	0.796483
H96	H	2.151369	-0.669427	1.296483
H97	H	1.609952	-0.850357	0.702557
H98	H	2.109952	-0.350357	1.202557
O99	O	1.842039	-0.599784	0.470756
O100	O	2.342039	-0.099784	0.970756
C101	C	1.922615	-0.557296	0.536043
C102	C	2.422615	-0.057296	1.036043
H103	H	1.881036	-0.546279	0.626153
H104	H	2.381036	-0.046279	1.126153
H105	H	1.942456	-0.505734	0.483395
H106	H	2.442456	-0.005734	0.983395
H107	H	2.009508	-0.585515	0.551373
H108	H	2.509508	-0.085515	1.051373
H109	H	1.878474	-0.937121	0.434468
H110	H	2.378474	-0.437121	0.934468
O111	O	1.880472	-1.076064	0.432704
O112	O	2.380472	-0.576064	0.932704
C113	C	1.858743	-1.148669	0.454438
C114	C	2.358743	-0.648669	0.954438
H115	H	1.818651	-1.158660	0.547751
H116	H	2.318651	-0.658660	1.047751
H117	H	1.946638	-1.176502	0.448427
H118	H	2.446638	-0.676502	0.948427
H119	H	1.793370	-1.169556	0.384713
H120	H	2.293370	-0.669556	0.884713
H121	H	1.541237	-0.738700	0.771089
H122	H	2.041237	-0.238700	1.271089
H123	H	1.550852	-0.605624	0.761356
H124	H	2.050852	-0.105624	1.261356
H125	H	1.809762	-0.825470	0.503012
H126	H	2.309762	-0.325470	1.003012
