data_functionalizedCrystal
_audit_creation_method	'MofGen! by Chris Wilmer'
_symmetry_space_group_name_H-M	'P1'
_symmetry_Int_Tables_number	1
_symmetry_cell_setting	triclinic
loop_
_symmetry_equiv_pos_as_xyz
  x,y,z
_cell_length_a	12.759401
_cell_length_b	12.759400
_cell_length_c	19.805399
_cell_angle_alpha	89.976763
_cell_angle_beta	89.984563
_cell_angle_gamma	90.014845
loop_
_atom_site_label
_atom_site_type_symbol
_atom_site_fract_x
_atom_site_fract_y
_atom_site_fract_z
Zn1	Zn	1.606224	-0.418286	-0.382665
Zn2	Zn	1.606128	-0.593979	-0.269486
Zn3	Zn	1.430535	-0.418316	-0.269498
Zn4	Zn	1.430514	-0.593924	-0.382641
O5	O	1.518350	-0.506126	-0.326072
O6	O	1.753232	-0.441603	-0.367657
O7	O	1.582803	-0.570713	-0.174771
O8	O	1.453890	-0.271291	-0.284526
O9	O	1.753161	-0.570684	-0.284504
O10	O	1.582967	-0.271269	-0.367669
O11	O	1.453796	-0.441653	-0.174780
O12	O	1.283511	-0.441600	-0.284502
O13	O	1.453854	-0.570590	-0.477361
O14	O	1.283496	-0.570618	-0.367627
O15	O	1.582947	-0.441549	-0.477379
O16	O	1.582783	-0.740993	-0.284480
O17	O	1.453761	-0.740953	-0.367615
C18	C	1.245383	-0.506107	-0.326063
C19	C	1.128606	-0.506124	-0.326075
C20	C	1.073764	-0.573412	-0.369287
C21	C	0.964040	-0.573425	-0.369295
C22	C	0.964010	-0.438860	-0.282873
C23	C	1.073732	-0.438842	-0.282869
C24	C	1.128638	-0.640693	-0.412493
C25	C	1.073795	-0.707987	-0.455708
C26	C	0.964071	-0.708001	-0.455716
C27	C	0.909190	-0.640720	-0.412508
C28	C	1.518288	-0.779094	-0.326058
C29	C	1.518357	-0.895870	-0.326075
C30	C	1.585614	-0.950719	-0.282835
C31	C	1.585678	-1.060443	-0.282856
C32	C	1.451221	-1.060460	-0.369359
C33	C	1.451163	-0.950738	-0.369341
C34	C	1.652808	-0.895851	-0.239569
C35	C	1.720070	-0.950699	-0.196325
C36	C	1.720134	-1.060423	-0.196345
C37	C	1.652938	-1.115299	-0.239611
C38	C	1.792383	-0.506147	-0.326082
C39	C	1.909160	-0.506155	-0.326086
C40	C	1.518409	-0.506060	-0.502615
C41	C	1.518434	-0.506032	-0.577847
C42	C	1.518441	-0.232093	-0.326101
C43	C	1.518480	-0.115316	-0.326114
C44	C	1.585654	-0.438837	-0.613202
C45	C	1.585665	-0.438807	-0.683890
C46	C	1.518460	-0.505977	-0.719223
C47	C	1.451233	-0.573175	-0.683863
C48	C	1.451217	-0.573199	-0.613176
C49	C	1.451292	-0.573077	-0.968937
C50	C	1.451315	-0.573049	-1.039629
C51	C	1.585740	-0.438684	-1.039651
C52	C	1.585724	-0.438709	-0.968964
C53	C	1.518493	-0.505902	-0.933610
C54	C	1.518481	-0.505933	-0.856962
C55	C	1.518477	-0.505952	-0.795870
C56	C	1.518352	-0.506116	-0.150217
C57	C	1.518530	-0.505849	-0.074985
H58	H	1.217981	-0.640692	-0.412491
H59	H	1.396469	-0.627905	-0.584391
H60	H	1.118487	-0.762758	-0.490890
H61	H	0.919421	-0.762787	-0.490908
C62	C	0.788496	-0.640712	-0.412532
H63	H	0.763691	-0.690419	-0.444459
H64	H	0.763710	-0.572935	-0.424316
H65	H	0.763627	-0.658795	-0.368836
H66	H	1.396512	-1.105149	-0.404583
H67	H	1.640405	-0.384093	-0.712673
C68	C	0.903643	-0.364866	-0.235345
H69	H	0.830442	-0.374520	-0.241532
H70	H	0.921634	-0.294292	-0.245327
H71	H	0.921601	-0.380153	-0.189848
H72	H	1.640479	-0.383969	-1.068444
C73	C	1.134063	-0.364823	-0.235340
H74	H	1.085669	-0.324763	-0.209604
H75	H	1.176880	-0.319098	-0.261288
H76	H	1.176850	-0.404945	-0.205800
H77	H	1.396510	-0.627862	-0.712637
C78	C	1.652744	-0.775159	-0.239546
H79	H	1.702399	-0.750335	-0.207591
H80	H	1.584941	-0.750404	-0.227805
H81	H	1.670872	-0.750278	-0.283232
C82	C	1.377320	-0.646965	-0.930057
H83	H	1.337299	-0.686963	-0.961225
H84	H	1.331557	-0.606758	-0.902493
H85	H	1.417465	-0.692769	-0.902470
H86	H	1.640453	-0.384015	-0.940200
C87	C	1.793976	-0.890341	-0.148735
H88	H	1.784298	-0.817139	-0.154909
H89	H	1.864570	-0.908249	-0.158677
H90	H	1.778637	-0.908389	-0.103252
H91	H	1.396397	-0.906080	-0.404552
H92	H	1.396584	-0.627750	-1.068395
C93	C	1.794117	-1.120754	-0.148781
H94	H	1.834119	-1.072358	-0.123009
H95	H	1.839898	-1.163493	-0.174701
H96	H	1.753968	-1.163618	-0.119274
H97	H	1.653004	-1.204643	-0.239629
H98	H	1.640384	-0.384143	-0.584439
