data_functionalizedCrystal
_audit_creation_method	'MofGen! by Chris Wilmer'
_symmetry_space_group_name_H-M	'P1'
_symmetry_Int_Tables_number	1
_symmetry_cell_setting	triclinic
loop_
_symmetry_equiv_pos_as_xyz
  x,y,z
_cell_length_a	14.044220
_cell_length_b	10.540539
_cell_length_c	12.503572
_cell_angle_alpha	93.560877
_cell_angle_beta	86.164750
_cell_angle_gamma	88.857185
loop_
_atom_site_label
_atom_site_type_symbol
_atom_site_fract_x
_atom_site_fract_y
_atom_site_fract_z
O1	O	1.265193	0.299541	-0.089197
O2	O	0.989150	0.288487	-0.089224
O3	O	1.133469	0.109945	-0.089208
O4	O	1.120874	0.478084	-0.089212
O5	O	1.122616	0.123396	0.089432
O6	O	0.978297	0.301939	0.089417
O7	O	1.254339	0.312993	0.089444
Cu8	Cu	1.115327	0.308694	0.105742
Cu9	Cu	1.128163	0.292786	-0.105522
O10	O	1.110020	0.491536	0.089428
C11	C	0.948377	0.290375	0.000093
C12	C	0.843054	0.275945	0.000082
C13	C	0.650213	0.249566	0.000104
C14	C	0.593272	0.351908	0.000107
C15	C	0.485969	0.337231	0.000119
C16	C	0.757526	0.264241	0.000092
C17	C	1.127098	0.069272	0.000110
C18	C	1.124272	-0.071962	0.000104
C19	C	1.016008	-0.266368	-0.000308
C20	C	1.018848	-0.119430	0.000095
C21	C	1.168809	-0.120809	0.102122
C22	C	1.165206	-0.267711	0.102207
C23	C	1.179693	-0.283309	-0.100941
C24	C	1.180746	-0.136331	-0.102289
C25	C	1.295113	0.311105	0.000125
C26	C	1.400436	0.325535	0.000129
C27	C	1.116392	0.532208	0.000108
C28	C	1.119218	0.673442	0.000107
N29	N	1.106306	0.319883	0.254333
N30	N	1.137191	0.281588	-0.254113
C31	C	1.093036	0.336354	0.473447
C32	C	1.150458	0.265121	0.526780
C33	C	1.143074	0.274286	0.648703
C34	C	1.100419	0.327191	0.351513
H35	H	0.983371	-0.086369	-0.073036
H36	H	0.625111	0.450550	0.000101
H37	H	0.974198	-0.076223	0.073339
N38	N	1.222935	0.175240	0.465979
H39	H	1.260231	0.128982	0.518562
H40	H	1.188954	0.111567	0.419315
N41	N	1.020586	0.426253	0.534253
H42	H	1.033403	0.516185	0.514752
H43	H	0.954323	0.402562	0.514738
N44	N	1.116009	-0.061532	0.202669
H45	H	1.087637	-0.130605	0.246427
H46	H	1.161815	-0.011226	0.246498
N47	N	0.608037	0.118915	0.000100
H48	H	0.633814	0.066213	-0.066127
H49	H	0.625793	0.076276	0.066361
H50	H	0.978808	-0.304687	-0.073467
N51	N	0.955207	-0.304668	0.096043
H52	H	0.994228	-0.360839	0.139959
H53	H	0.932284	-0.226043	0.141511
H54	H	1.150270	-0.324134	-0.178263
H55	H	1.123078	-0.293959	0.178460
H56	H	1.240744	-0.307665	0.106843
N57	N	1.283058	-0.094584	-0.110447
H58	H	1.284556	0.000696	-0.114997
H59	H	1.315594	-0.119121	-0.044858
H60	H	1.148208	-0.104908	-0.177759
N61	N	1.271068	-0.080503	0.107145
H62	H	1.289550	-0.030063	0.043187
H63	H	1.277798	-0.026143	0.175507
N64	N	1.280614	-0.335728	-0.101847
H65	H	1.287174	-0.387242	-0.037158
H66	H	1.295706	-0.391801	-0.169565
