data_functionalizedCrystal
_audit_creation_method	'MofGen! by Chris Wilmer'
_symmetry_space_group_name_H-M	'P1'
_symmetry_Int_Tables_number	1
_symmetry_cell_setting	triclinic
loop_
_symmetry_equiv_pos_as_xyz
  x,y,z
_cell_length_a	23.096457
_cell_length_b	14.395555
_cell_length_c	14.395555
_cell_angle_alpha	90.000811
_cell_angle_beta	60.003670
_cell_angle_gamma	60.002021
loop_
_atom_site_label
_atom_site_type_symbol
_atom_site_fract_x
_atom_site_fract_y
_atom_site_fract_z
Zr1	Zr	0.633751	0.894901	-0.121881
O2	O	0.754528	0.746583	-0.270193
O3	O	0.512968	0.940364	-0.076421
O4	O	0.633748	0.940371	-0.270206
O5	O	0.633752	0.746575	0.076459
O6	O	0.633752	1.093238	-0.270209
O7	O	0.633748	0.746576	-0.076408
O8	O	0.417698	1.093227	0.076436
O9	O	0.849806	0.746587	-0.270187
O10	O	0.562653	1.073841	-0.057029
O11	O	0.562653	0.959758	0.057057
O12	O	0.704856	0.959765	-0.171099
O13	O	0.704856	0.845681	-0.057014
Zr14	Zr	0.633765	1.138704	0.121919
Zr15	Zr	0.633758	1.138706	-0.121887
Zr16	Zr	0.633758	0.894899	0.121925
Zr17	Zr	0.785708	0.894907	-0.121871
Zr18	Zr	0.481807	1.138698	0.121909
O19	O	0.754548	1.093240	0.076459
O20	O	0.754538	1.093243	-0.270201
O21	O	0.754538	0.746580	0.076467
O22	O	0.512987	1.287022	0.270231
O23	O	0.512977	1.287024	-0.076429
O24	O	0.512977	0.940362	0.270239
O25	O	0.633763	1.287029	-0.076421
O26	O	0.633768	1.093234	0.270244
O27	O	0.633763	0.940367	0.270247
O28	O	0.633768	1.287028	0.076446
O29	O	0.849812	0.940380	-0.270191
O30	O	0.417704	1.093225	0.270229
O31	O	0.417709	1.287018	0.270224
O32	O	0.417704	1.287019	0.076432
O33	O	0.849812	0.746585	-0.076394
O34	O	0.849817	0.940378	-0.076398
O35	O	0.562659	1.073840	0.171137
O36	O	0.562659	1.187924	0.057052
O37	O	0.704863	1.073847	-0.057019
O38	O	0.704863	0.959763	0.057067
C39	C	0.443682	1.016795	0.000006
C40	C	0.379172	1.016792	0.000002
C41	C	0.633749	0.711839	0.000026
C42	C	0.633746	0.608337	0.000029
C43	C	0.348871	1.076335	-0.059554
C44	C	0.288249	1.076346	-0.059545
C45	C	0.257942	1.016792	0.000005
C46	C	0.288247	0.957247	0.059574
C47	C	0.348862	0.957247	0.059572
N48	N	0.195543	0.919880	-0.008250
N49	N	0.137962	0.919882	-0.008255
C50	C	0.075310	1.016791	0.000015
N51	N	0.072421	1.113696	0.008269
N52	N	0.130009	1.113691	0.008267
C53	C	0.192214	1.016786	0.000014
C54	C	-0.020726	1.076351	-0.059533
C55	C	-0.081353	1.076366	-0.059516
C56	C	-0.081348	0.957255	0.059595
C57	C	-0.020728	0.957252	0.059585
C58	C	0.009582	1.016797	0.000015
C59	C	0.556211	0.609948	0.062223
C60	C	0.594973	0.516933	0.107311
C61	C	0.594987	0.516923	-0.045026
C62	C	0.672509	0.516686	0.045179
C63	C	0.672512	0.516690	-0.107218
C64	C	0.711331	0.423658	-0.062157
C65	C	0.823833	1.016810	0.000032
C66	C	0.888343	1.016813	0.000036
C67	C	0.633749	1.016805	-0.304945
C68	C	0.633746	1.016805	-0.408446
C69	C	0.633766	1.321766	0.000012
C70	C	0.633769	1.425268	0.000009
C71	C	0.556211	1.079011	-0.406839
C72	C	0.594969	0.971741	-0.499855
C73	C	0.594991	1.124049	-0.499858
C74	C	0.672505	0.909472	-0.500100
C75	C	0.672516	1.061858	-0.500089
C76	C	0.711331	0.954524	-0.593122
C77	C	0.633766	1.016800	0.304983
C78	C	0.633769	1.016799	0.408484
C79	C	0.443691	1.321758	-0.000001
C80	C	0.379184	1.425257	-0.000008
C81	C	0.443691	1.016792	0.304970
C82	C	0.379184	1.016789	0.408467
C83	C	0.443699	1.321756	0.304962
C84	C	0.379195	1.425254	0.408457
C85	C	0.823816	0.711849	-0.304925
C86	C	0.888320	0.608350	-0.408420
C87	C	0.823825	0.711847	0.000039
C88	C	0.888332	0.608347	0.000046
C89	C	0.823825	1.016812	-0.304932
C90	C	0.888332	1.016816	-0.408429
C91	C	0.348887	1.414312	-0.059570
C92	C	0.288285	1.511551	-0.059599
C93	C	0.257975	1.619735	-0.000059
C94	C	0.288278	1.630678	0.059505
C95	C	0.348884	1.533440	0.059527
C96	C	0.348894	1.076337	0.516630
C97	C	0.288291	1.076330	0.613886
C98	C	0.257976	1.016780	0.602977
C99	C	0.288271	0.957224	0.494803
C100	C	0.348877	0.957226	0.397549
C101	C	0.348904	1.533419	0.397508
C102	C	0.288304	1.630676	0.494743
C103	C	0.257992	1.619766	0.602927
C104	C	0.288290	1.511590	0.613874
C105	C	0.348893	1.414335	0.516640
C106	C	0.918619	0.500186	-0.397470
C107	C	0.979238	0.402928	-0.494706
C108	C	1.009553	0.413839	-0.602889
C109	C	0.979251	0.522015	-0.613836
C110	C	0.918637	0.619269	-0.516602
C111	C	0.918634	0.619293	0.059598
C112	C	0.979254	0.522054	0.059600
C113	C	1.009565	0.413870	0.000056
C114	C	0.979260	0.402927	-0.059503
C115	C	0.918646	0.500165	-0.059511
C116	C	0.918628	1.076377	-0.397484
C117	C	0.979231	1.076402	-0.494721
C118	C	1.009541	1.016859	-0.602903
C119	C	0.979238	0.957296	-0.613846
C120	C	0.918632	0.957278	-0.516610
H121	H	0.373546	1.124824	-0.108056
H122	H	0.263641	1.718749	0.485810
O123	O	1.011911	1.140641	-0.482899
H124	H	1.000264	1.206484	-0.524330
O125	O	0.381545	1.297678	0.528472
H126	H	0.448405	1.250501	0.487039
O127	O	0.469363	0.715583	0.131988
H128	H	0.470105	0.792083	0.130736
H129	H	1.003918	0.530986	0.108105
H130	H	0.893971	0.908771	-0.525538
H131	H	0.208645	1.698966	0.682092
O132	O	0.192608	1.724605	-0.000094
H133	H	0.176622	1.801677	0.051305
O134	O	1.011900	0.286261	-0.482887
H135	H	0.980619	0.295023	-0.391323
H136	H	0.562201	0.516012	-0.083124
H137	H	0.893968	0.707340	-0.525530
O138	O	0.469367	1.148589	-0.301198
H139	H	0.470122	1.148640	-0.224708
H140	H	0.208627	1.016788	0.682177
O141	O	0.798246	0.884757	-0.698594
H142	H	0.830228	0.795809	-0.699305
H143	H	1.058908	0.334638	-0.682054
O144	O	0.255563	1.140557	-0.123794
H145	H	0.286828	1.181954	-0.165224
O146	O	0.885934	0.488404	-0.280792
H147	H	0.917202	0.396844	-0.289533
H148	H	1.058921	0.334702	0.000072
O149	O	0.551570	0.515686	0.227433
H150	H	0.529417	0.592921	0.287359
H151	H	0.373565	1.326232	-0.108069
H152	H	1.003941	0.530885	-0.701930
H153	H	0.893960	0.707372	0.108093
O154	O	-0.114040	1.140595	-0.123751
H155	H	-0.102423	1.080472	-0.189552
O156	O	0.381586	1.140570	0.528409
H157	H	0.409212	1.106140	0.575617
H158	H	0.776948	0.344033	-0.114749
O159	O	0.381600	1.545200	0.280830
H160	H	0.350356	1.636761	0.289571
O161	O	0.255580	1.499843	0.730566
H162	H	0.306445	1.452636	0.740494
O163	O	1.074913	1.016878	-0.707775
H164	H	1.130142	0.928204	-0.759123
H165	H	0.562212	1.214750	-0.500761
O166	O	1.011958	0.286236	-0.123717
H167	H	0.980712	0.294947	-0.165142
O168	O	0.885956	0.488354	-0.123733
H169	H	0.917215	0.396789	-0.165122
H170	H	0.263579	0.908741	0.485938
H171	H	1.003926	0.908818	-0.701941
O172	O	0.255568	0.893004	0.123798
H173	H	0.208334	0.902995	0.113782
O174	O	0.381557	0.893012	0.123798
H175	H	0.350304	0.851595	0.165205
H176	H	0.562198	0.933627	-0.500788
H177	H	0.003951	1.124841	-0.108035
H178	H	0.893960	1.124864	-0.309406
O179	O	-0.114025	0.893016	0.123824
H180	H	-0.161262	0.903012	0.113816
H181	H	0.003946	0.908761	0.108078
H182	H	0.705257	0.517513	0.083380
H183	H	0.705259	1.099998	-0.499112
O184	O	0.715896	0.517954	-0.227329
H185	H	0.683581	0.519103	-0.264552
O186	O	0.255601	1.499737	-0.123835
H187	H	0.286851	1.408172	-0.165211
O188	O	0.715863	0.789275	-0.499007
H189	H	0.715479	0.790226	-0.421600
H190	H	0.263591	1.718774	0.107980
H191	H	0.373531	0.908739	0.309482
O192	O	0.381547	1.545251	0.123792
H193	H	0.350277	1.636816	0.165198
O194	O	0.255608	1.140587	0.730551
H195	H	0.286860	1.182015	0.721788
