data_functionalizedCrystal
_audit_creation_method	'MofGen! by Chris Wilmer'
_symmetry_space_group_name_H-M	'P1'
_symmetry_Int_Tables_number	1
_symmetry_cell_setting	triclinic
loop_
_symmetry_equiv_pos_as_xyz
  x,y,z
_cell_length_a	31.640172
_cell_length_b	20.919309
_cell_length_c	20.919292
_cell_angle_alpha	59.202373
_cell_angle_beta	93.158684
_cell_angle_gamma	62.587483
loop_
_atom_site_label
_atom_site_type_symbol
_atom_site_fract_x
_atom_site_fract_y
_atom_site_fract_z
Zr1	Zr	0.421179	0.700639	-0.111218
O2	O	0.353214	0.834224	-0.218666
O3	O	0.439762	0.567071	-0.074671
O4	O	0.438148	0.700636	-0.213440
O5	O	0.358663	0.700656	0.025463
O6	O	0.507708	0.700615	-0.213423
O7	O	0.354828	0.700659	-0.079896
O8	O	0.510595	0.461691	0.034810
O9	O	0.355776	0.939580	-0.222771
O10	O	0.502320	0.621988	-0.063431
O11	O	0.453271	0.622001	0.015185
O12	O	0.451371	0.779257	-0.148198
O13	O	0.402321	0.779270	-0.069583
Zr14	Zr	0.538236	0.700601	0.056846
Zr15	Zr	0.532119	0.700606	-0.111190
Zr16	Zr	0.427296	0.700634	0.056818
Zr17	Zr	0.425265	0.868669	-0.117764
Zr18	Zr	0.534150	0.532571	0.063392
O19	O	0.519653	0.834170	0.020299
O20	O	0.510956	0.834176	-0.218627
O21	O	0.361911	0.834217	0.020259
O22	O	0.606202	0.567016	0.164294
O23	O	0.597504	0.567023	-0.074631
O24	O	0.448460	0.567064	0.164254
O25	O	0.600752	0.700584	-0.079835
O26	O	0.521267	0.700604	0.159068
O27	O	0.451708	0.700625	0.159051
O28	O	0.604587	0.700581	0.025524
O29	O	0.443958	0.939553	-0.222749
O30	O	0.515457	0.461687	0.168377
O31	O	0.603640	0.461660	0.168399
O32	O	0.598778	0.461664	0.034833
O33	O	0.360638	0.939576	-0.089205
O34	O	0.448820	0.939549	-0.089183
O35	O	0.508045	0.621983	0.093826
O36	O	0.557094	0.621970	0.015211
O37	O	0.506144	0.779239	-0.069557
O38	O	0.457095	0.779253	0.009058
C39	C	0.474597	0.490440	-0.018997
C40	C	0.472862	0.419107	-0.016218
C41	C	0.340939	0.700662	-0.027221
C42	C	0.293842	0.700676	-0.027233
C43	C	0.497649	0.385587	-0.055949
C44	C	0.496021	0.318557	-0.053330
C45	C	0.469602	0.285053	-0.010985
C46	C	0.444815	0.318575	0.028751
C47	C	0.446446	0.385599	0.026137
C48	C	0.463397	0.082680	-0.001033
C49	C	0.461766	0.015653	0.001577
C50	C	0.512974	0.015639	-0.080503
C51	C	0.514600	0.082668	-0.083118
C52	C	0.489815	0.116181	-0.043379
C53	C	0.467936	0.216540	-0.008309
C54	C	0.491485	0.184688	-0.046051
C55	C	-0.069025	0.782720	-0.071426
C56	C	0.107955	0.782747	-0.071453
O57	O	0.108221	0.852567	-0.109062
N58	N	0.156683	0.700657	-0.027208
C59	C	0.161165	0.618553	0.017051
O60	O	0.206672	0.548730	0.054690
C61	C	-0.015815	0.618527	0.017083
C62	C	-0.064543	0.700623	-0.027172
C63	C	-0.117751	0.864810	-0.115676
C64	C	-0.161993	0.864802	-0.115672
C65	C	-0.157510	0.782705	-0.071418
C66	C	-0.108785	0.700615	-0.027168
C67	C	-0.011333	0.536424	0.061346
C68	C	-0.055583	0.536425	0.061352
C69	C	-0.104310	0.618521	0.017097
C70	C	-0.148545	0.618510	0.017090
N71	N	-0.197273	0.700601	-0.027155
C72	C	-0.201755	0.782699	-0.071409
C73	C	0.254080	0.618573	0.017030
C74	C	0.298325	0.618579	0.017021
C75	C	0.245112	0.782774	-0.071482
C76	C	0.200867	0.782767	-0.071477
C77	C	0.205353	0.700663	-0.027215
C78	C	-0.294666	0.782676	-0.071399
C79	C	-0.338910	0.782661	-0.071394
C80	C	-0.285693	0.618467	0.017113
C81	C	-0.241453	0.618481	0.017105
C82	C	-0.245943	0.700593	-0.027153
O83	O	-0.148849	0.548728	0.054686
O84	O	-0.247266	0.852511	-0.109029
C85	C	-0.024783	0.782728	-0.071430
C86	C	0.023942	0.700638	-0.027180
C87	C	0.028425	0.618541	0.017075
C88	C	0.068187	0.700645	-0.027188
C89	C	0.063704	0.782742	-0.071442
C90	C	0.014977	0.864833	-0.115688
C91	C	-0.029266	0.864825	-0.115684
C92	C	0.077153	0.536450	0.061320
C93	C	0.121393	0.536464	0.061312
C94	C	0.116910	0.618562	0.017058
C95	C	0.618476	0.700578	-0.027151
C96	C	0.665573	0.700564	-0.027140
C97	C	0.472057	0.700626	-0.237373
C98	C	0.469460	0.700628	-0.308709
C99	C	0.484819	0.910800	-0.035375
C100	C	0.486553	0.982133	-0.038154
C101	C	0.506561	0.700618	-0.342213
C102	C	0.504122	0.700612	-0.409236
C103	C	0.464580	0.700623	-0.442757
C104	C	0.427477	0.700630	-0.409247
C105	C	0.429918	0.700629	-0.342222
C106	C	0.455294	0.700618	-0.645128
C107	C	0.452855	0.700622	-0.712159
C108	C	0.529500	0.700603	-0.712143
C109	C	0.531936	0.700608	-0.645119
C110	C	0.494835	0.700610	-0.611612
C111	C	0.462085	0.700619	-0.511267
C112	C	0.497332	0.700607	-0.543100
C113	C	0.487359	0.700614	0.183001
C114	C	0.489956	0.700612	0.254337
C115	C	0.613365	0.490398	-0.018963
C116	C	0.658727	0.419051	-0.016172
C117	C	0.482248	0.490434	0.191190
C118	C	0.483110	0.419099	0.265305
C119	C	0.621016	0.490392	0.191224
C120	C	0.668975	0.419043	0.265351
C121	C	0.338399	0.910848	-0.245597
C122	C	0.290440	0.982198	-0.319723
C123	C	0.346050	0.910842	-0.035409
C124	C	0.300688	0.982189	-0.038200
C125	C	0.477167	0.910806	-0.245562
C126	C	0.476305	0.982141	-0.319677
C127	C	0.651438	0.385555	-0.055918
C128	C	0.694056	0.318525	-0.053312
C129	C	0.743963	0.284989	-0.010954
C130	C	0.751251	0.318492	0.028793
C131	C	0.708634	0.385524	0.026182
C132	C	0.512106	0.385590	0.341167
C133	C	0.512915	0.318572	0.410811
C134	C	0.484730	0.285060	0.404592
C135	C	0.455730	0.318576	0.328722
C136	C	0.454919	0.385597	0.259079
C137	C	0.717105	0.385529	0.259125
C138	C	0.762172	0.318498	0.328768
C139	C	0.759108	0.284977	0.404636
C140	C	0.710973	0.318497	0.410860
C141	C	0.665907	0.385532	0.341218
C142	C	0.242310	1.015719	-0.313498
C143	C	0.197244	1.082771	-0.383141
C144	C	0.200309	1.116296	-0.459010
C145	C	0.248443	1.082771	-0.465234
C146	C	0.293509	1.015725	-0.395591
C147	C	0.307977	1.015693	0.001539
C148	C	0.265359	1.082740	-0.001087
C149	C	0.215452	1.116279	-0.043447
C150	C	0.208164	1.082773	-0.083191
C151	C	0.250781	1.015731	-0.080570
C152	C	0.504496	1.015632	-0.313432
C153	C	0.503696	1.082650	-0.383064
C154	C	0.474702	1.116181	-0.458940
C155	C	0.446510	1.082684	-0.465183
C156	C	0.447313	1.015662	-0.395552
H157	H	0.519159	0.412866	-0.090435
H158	H	0.167524	1.110091	-0.117680
H159	H	0.795807	0.230393	0.461337
H160	H	0.244839	0.988455	-0.112928
H161	H	0.158055	1.110055	-0.378058
H162	H	0.163610	1.170888	-0.515711
H163	H	0.446426	0.189253	0.026169
H164	H	0.348610	0.988390	0.036038
H165	H	0.424355	0.988402	-0.400648
H166	H	0.535059	0.412867	0.346246
H167	H	-0.298328	0.849540	-0.107429
H168	H	0.801361	0.291213	0.323686
H169	H	0.714576	0.412788	0.058553
H170	H	0.536532	0.291291	0.472581
H171	H	0.778661	0.230406	-0.008833
H172	H	0.485395	0.230487	0.461307
H173	H	0.610805	0.412859	-0.090420
H174	H	0.688112	0.291256	-0.085679
H175	H	0.528107	0.988342	-0.251656
H176	H	0.564134	0.700600	-0.617827
H177	H	0.399708	0.700635	-0.314943
H178	H	0.708485	0.291194	0.472642
H179	H	0.474053	1.170755	-0.515632
H180	H	0.526653	1.109917	-0.377965
H181	H	0.791891	0.291177	0.063280
H182	H	0.250932	1.110076	-0.527014
H183	H	0.239805	0.988427	-0.251728
H184	H	0.432782	0.291280	0.323671
H185	H	0.080811	0.469595	0.097359
H186	H	0.431308	0.412871	0.197312
H187	H	0.516205	0.291266	-0.085681
H188	H	0.626719	0.412810	0.346299
H189	H	0.719610	0.412812	0.197356
H190	H	0.332697	0.988432	-0.400669
H191	H	0.271303	1.110009	0.031281
H192	H	0.420653	0.700631	-0.739450
H193	H	0.180754	1.170869	-0.045575
H194	H	0.422904	1.109995	-0.526971
H195	H	0.426261	0.412892	0.058487
H196	H	0.533153	-0.011655	-0.112856
H197	H	0.440251	-0.011623	0.036059
H198	H	0.536112	0.109946	-0.117599
H199	H	0.028336	0.469572	0.097376
H200	H	0.443218	0.109955	0.031329
H201	H	0.423307	0.291286	0.063234
H202	H	-0.201666	0.931654	-0.151706
H203	H	0.512997	0.211966	-0.080525
H204	H	-0.121410	0.931667	-0.151712
H205	H	-0.378586	0.849517	-0.107434
H206	H	0.538758	0.700616	-0.314927
H207	H	0.161194	0.849617	-0.107513
H208	H	0.425084	0.700623	-0.617853
H209	H	0.257741	0.551711	0.053076
H210	H	0.241469	0.849621	-0.107517
H211	H	-0.201776	0.551632	0.053149
H212	H	-0.051925	0.469565	0.097398
H213	H	0.337998	0.551728	0.053050
H214	H	-0.282052	0.551625	0.053142
H215	H	-0.068938	0.931677	-0.151720
H216	H	0.011333	0.931679	-0.151724
H217	H	0.161068	0.469606	0.097348
H218	H	0.534333	0.700604	-0.436514
H219	H	0.559707	0.700600	-0.739429
H220	H	0.395283	0.700632	-0.436541
H221	H	0.529529	0.700594	-0.515802
H222	H	0.429889	0.700630	-0.538567
