data_functionalizedCrystal
_audit_creation_method	'MofGen! by Chris Wilmer'
_symmetry_space_group_name_H-M	'P1'
_symmetry_Int_Tables_number	1
_symmetry_cell_setting	triclinic
loop_
_symmetry_equiv_pos_as_xyz
  x,y,z
_cell_length_a	25.639240
_cell_length_b	25.639242
_cell_length_c	25.639243
_cell_angle_alpha	89.984842
_cell_angle_beta	90.001726
_cell_angle_gamma	89.972413
loop_
_atom_site_label
_atom_site_type_symbol
_atom_site_fract_x
_atom_site_fract_y
_atom_site_fract_z
Zn1	Zn	-0.208339	-0.799213	0.295760
Zn2	Zn	0.291661	-0.299213	0.795760
Zn3	Zn	-0.295739	-0.799157	0.208332
Zn4	Zn	0.204261	-0.299157	0.708332
Zn5	Zn	-0.208313	-0.711800	0.208324
Zn6	Zn	0.291687	-0.211800	0.708324
Zn7	Zn	-0.295738	-0.711744	0.295722
Zn8	Zn	0.204262	-0.211744	0.795722
O9	O	-0.252032	-0.755479	0.252035
O10	O	0.247968	-0.255479	0.752035
O11	O	-0.219944	-0.872371	0.284182
O12	O	0.280056	-0.372371	0.784182
O13	O	-0.284131	-0.787569	0.135166
O14	O	0.215869	-0.287569	0.635166
O15	O	-0.135151	-0.723442	0.219936
O16	O	0.364849	-0.223442	0.719936
O17	O	-0.284157	-0.872330	0.219949
O18	O	0.215843	-0.372330	0.719949
O19	O	-0.135170	-0.787664	0.284174
O20	O	0.364830	-0.287664	0.784174
O21	O	-0.219900	-0.723388	0.135160
O22	O	0.280100	-0.223388	0.635160
O23	O	-0.219899	-0.638627	0.219899
O24	O	0.280101	-0.138627	0.719899
O25	O	-0.284155	-0.723347	0.368892
O26	O	0.215845	-0.223347	0.868892
O27	O	-0.284130	-0.638587	0.284110
O28	O	0.215870	-0.138587	0.784110
O29	O	-0.219943	-0.787610	0.368920
O30	O	0.280057	-0.287610	0.868920
O31	O	-0.368904	-0.787515	0.219912
O32	O	0.131096	-0.287515	0.719912
O33	O	-0.368903	-0.723293	0.284117
O34	O	0.131097	-0.223293	0.784117
C35	C	-0.252012	-0.619636	0.251999
C36	C	0.247988	-0.119636	0.751999
C37	C	-0.252015	-0.561522	0.251997
C38	C	0.247985	-0.061522	0.751997
C39	C	-0.387875	-0.755406	0.252023
C40	C	0.112125	-0.255406	0.752023
C41	C	-0.445989	-0.755423	0.252035
C42	C	0.054011	-0.255423	0.752035
C43	C	-0.252052	-0.755479	0.388408
C44	C	0.247948	-0.255479	0.888408
C45	C	-0.252060	-0.755479	0.446522
C46	C	0.247940	-0.255479	0.946522
C47	C	-0.697141	-0.788916	0.285518
C48	C	-0.197141	-0.288916	0.785518
C49	C	-0.642537	-0.788900	0.285514
C50	C	-0.142537	-0.288900	0.785514
O51	O	-0.614265	-0.817317	0.313965
O52	O	-0.114265	-0.317317	0.813965
N53	N	-0.615263	-0.755481	0.252042
N54	N	-0.115263	-0.255481	0.752042
C55	C	-0.642596	-0.722078	0.218567
C56	C	-0.142596	-0.222078	0.718567
O57	O	-0.614383	-0.693651	0.190096
O58	O	-0.114383	-0.193651	0.690096
C59	C	-0.697199	-0.722097	0.218569
C60	C	-0.197199	-0.222097	0.718569
C61	C	-0.724470	-0.755515	0.252047
C62	C	-0.224470	-0.255515	0.752047
C63	C	-0.724412	-0.822332	0.318993
C64	C	-0.224412	-0.322332	0.818993
C65	C	-0.779013	-0.822347	0.318998
C66	C	-0.279013	-0.322347	0.818998
C67	C	-0.806342	-0.788946	0.285527
C68	C	-0.306342	-0.288946	0.785527
C69	C	-0.779071	-0.755530	0.252052
C70	C	-0.279071	-0.255530	0.752052
C71	C	-0.724531	-0.688697	0.185092
C72	C	-0.224531	-0.188697	0.685092
C73	C	-0.779138	-0.688719	0.185097
C74	C	-0.279138	-0.188719	0.685097
C75	C	-0.806410	-0.722138	0.218575
C76	C	-0.306410	-0.222138	0.718575
C77	C	-0.861001	-0.722144	0.218586
C78	C	-0.361001	-0.222144	0.718586
N79	N	-0.888275	-0.755564	0.252058
N80	N	-0.388275	-0.255564	0.752058
C81	C	-0.860945	-0.788965	0.285529
C82	C	-0.360945	-0.288965	0.785529
C83	C	-0.527925	-0.722042	0.218566
C84	C	-0.027925	-0.222042	0.718566
C85	C	-0.473323	-0.722020	0.218566
C86	C	0.026677	-0.222020	0.718566
C87	C	-0.473267	-0.788843	0.285513
C88	C	0.026733	-0.288843	0.785513
C89	C	-0.527871	-0.788862	0.285514
C90	C	-0.027871	-0.288862	0.785514
C91	C	-0.555199	-0.755462	0.252038
C92	C	-0.055199	-0.255462	0.752038
C93	C	-0.975610	-0.788993	0.285536
C94	C	-0.475610	-0.288993	0.785536
C95	C	-1.030216	-0.789003	0.285539
C96	C	-0.530216	-0.289003	0.785539
C97	C	-1.030266	-0.722183	0.218591
C98	C	-0.530266	-0.222183	0.718591
C99	C	-0.975666	-0.722170	0.218590
C100	C	-0.475666	-0.222170	0.718590
C101	C	-0.948339	-0.755579	0.252064
C102	C	-0.448339	-0.255579	0.752064
O103	O	-0.889307	-0.693743	0.190148
O104	O	-0.389307	-0.193743	0.690148
O105	O	-0.889165	-0.817392	0.313991
O106	O	-0.389165	-0.317392	0.813991
C107	C	-0.115659	-0.755565	0.252058
C108	C	0.384341	-0.255565	0.752058
C109	C	-0.057545	-0.755602	0.252068
C110	C	0.442455	-0.255602	0.752068
C111	C	-0.252053	-0.891852	0.252071
C112	C	0.247947	-0.391852	0.752071
C113	C	-0.252062	-0.949966	0.252086
C114	C	0.247938	-0.449966	0.752086
C115	C	-0.285533	-0.201147	0.285438
C116	C	0.214467	0.298853	0.785438
C117	C	-0.285536	-0.146542	0.285446
C118	C	0.214464	0.353458	0.785446
O119	O	-0.314009	-0.118295	0.313849
O120	O	0.185991	0.381705	0.813849
N121	N	-0.252047	-0.119240	0.252069
N122	N	0.247953	0.380760	0.752069
C123	C	-0.218548	-0.146544	0.218685
C124	C	0.281452	0.353456	0.718685
O125	O	-0.190062	-0.118307	0.190297
O126	O	0.309938	0.381693	0.690297
C127	C	-0.218542	-0.201147	0.218680
C128	C	0.281458	0.298853	0.718680
C129	C	-0.252038	-0.228447	0.252056
C130	C	0.247962	0.271553	0.752056
C131	C	-0.319026	-0.228447	0.318811
C132	C	0.180974	0.271553	0.818811
C133	C	-0.319023	-0.283047	0.318802
C134	C	0.180977	0.216953	0.818802
C135	C	-0.285528	-0.310348	0.285420
C136	C	0.214472	0.189652	0.785420
C137	C	-0.252035	-0.283048	0.252046
C138	C	0.247965	0.216952	0.752046
C139	C	-0.185041	-0.228451	0.185299
C140	C	0.314959	0.271549	0.685299
C141	C	-0.185038	-0.283058	0.185297
C142	C	0.314962	0.216942	0.685297
C143	C	-0.218534	-0.310358	0.218673
C144	C	0.281466	0.189642	0.718673
C145	C	-0.218537	-0.364949	0.218655
C146	C	0.281463	0.135051	0.718655
N147	N	-0.252027	-0.392252	0.252032
N148	N	0.247973	0.107748	0.752032
C149	C	-0.285522	-0.364951	0.285414
C150	C	0.214478	0.135049	0.785414
C151	C	-0.218561	-0.031873	0.218699
C152	C	0.281439	0.468127	0.718699
C153	C	-0.218569	0.022729	0.218702
C154	C	0.281431	0.522729	0.718702
C155	C	-0.285557	0.022727	0.285463
C156	C	0.214443	0.522727	0.785463
C157	C	-0.285551	-0.031876	0.285458
C158	C	0.214449	0.468124	0.785458
C159	C	-0.252051	-0.059176	0.252076
C160	C	0.247949	0.440824	0.752076
C161	C	-0.285515	-0.479616	0.285392
C162	C	0.214485	0.020384	0.785392
C163	C	-0.285511	-0.534222	0.285379
C164	C	0.214489	-0.034222	0.785379
C165	C	-0.218521	-0.534215	0.218620
C166	C	0.281479	-0.034215	0.718620
C167	C	-0.218527	-0.479614	0.218631
C168	C	0.281473	0.020386	0.718631
C169	C	-0.252025	-0.452316	0.252022
C170	C	0.247975	0.047684	0.752022
O171	O	-0.190078	-0.393231	0.190268
O172	O	0.309922	0.106769	0.690268
O173	O	-0.313998	-0.393195	0.313803
O174	O	0.186002	0.106805	0.813803
C175	C	-0.218601	-0.788939	0.806905
C176	C	0.281399	-0.288939	1.306905
C177	C	-0.218598	-0.788939	0.861509
C178	C	0.281402	-0.288939	1.361509
O179	O	-0.190153	-0.817379	0.889763
O180	O	0.309847	-0.317379	1.389763
N181	N	-0.252030	-0.755482	0.888804
N182	N	0.247970	-0.255482	1.388804
C183	C	-0.285464	-0.722020	0.861492
C184	C	0.214536	-0.222020	1.361492
O185	O	-0.313900	-0.693563	0.889723
O186	O	0.186100	-0.193563	1.389723
C187	C	-0.285464	-0.722018	0.806889
C188	C	0.214536	-0.222018	1.306889
C189	C	-0.252033	-0.755481	0.779597
C190	C	0.247967	-0.255481	1.279597
C191	C	-0.185173	-0.822398	0.779613
C192	C	0.314827	-0.322398	1.279613
C193	C	-0.185176	-0.822399	0.725012
C194	C	0.314824	-0.322399	1.225012
C195	C	-0.218609	-0.788940	0.697704
C196	C	0.281391	-0.288940	1.197704
C197	C	-0.252037	-0.755481	0.724996
C198	C	0.247963	-0.255481	1.224996
C199	C	-0.318894	-0.688554	0.779578
C200	C	0.181106	-0.188554	1.279578
C201	C	-0.318891	-0.688555	0.724971
C202	C	0.181109	-0.188555	1.224971
C203	C	-0.285460	-0.722017	0.697678
C204	C	0.214540	-0.222017	1.197678
C205	C	-0.285473	-0.722024	0.643087
C206	C	0.214527	-0.222024	1.143087
N207	N	-0.252041	-0.755480	0.615792
N208	N	0.247959	-0.255480	1.115792
C209	C	-0.218609	-0.788938	0.643101
C210	C	0.281391	-0.288938	1.143101
C211	C	-0.285460	-0.722027	0.976163
C212	C	0.214540	-0.222027	1.476163
C213	C	-0.285463	-0.722031	1.030765
C214	C	0.214537	-0.222031	1.530765
C215	C	-0.218597	-0.788948	1.030779
C216	C	0.281403	-0.288948	1.530779
C217	C	-0.218597	-0.788946	0.976175
C218	C	0.281403	-0.288946	1.476175
C219	C	-0.252028	-0.755483	0.948868
C220	C	0.247972	-0.255483	1.448868
C221	C	-0.218619	-0.788938	0.528436
C222	C	0.281381	-0.288938	1.028436
C223	C	-0.218628	-0.788937	0.473830
C224	C	0.281372	-0.288937	0.973830
C225	C	-0.285492	-0.722018	0.473822
C226	C	0.214508	-0.222018	0.973822
C227	C	-0.285486	-0.722020	0.528422
C228	C	0.214514	-0.222020	1.028422
C229	C	-0.252045	-0.755482	0.555728
C230	C	0.247955	-0.255482	1.055728
O231	O	-0.313901	-0.693596	0.614799
O232	O	0.186099	-0.193596	1.114799
O233	O	-0.190172	-0.817386	0.614864
O234	O	0.309828	-0.317386	1.114864
C235	C	-0.252028	-0.755478	1.116192
C236	C	0.247972	-0.255478	1.616192
C237	C	-0.252029	-0.755487	1.058078
C238	C	0.247971	-0.255487	1.558078
H239	H	-1.052417	-0.816216	0.312805
H240	H	-0.552417	-0.316216	0.812805
H241	H	-0.451123	-0.694802	0.191311
H242	H	0.048877	-0.194802	0.691311
H243	H	-0.953461	-0.694953	0.191334
H244	H	-0.453461	-0.194953	0.691334
N245	N	-0.321545	-0.685929	0.444360
N246	N	0.178455	-0.185929	0.944360
H247	H	-0.342724	-0.664729	0.469932
H248	H	0.157276	-0.164729	0.969932
H249	H	-0.345745	-0.707195	0.421709
H250	H	0.154255	-0.207195	0.921709
N251	N	-0.182542	-0.825039	0.946741
N252	N	0.317458	-0.325039	1.446741
H253	H	-0.158307	-0.803812	0.924080
H254	H	0.341693	-0.303812	1.424080
H255	H	-0.203836	-0.849245	0.924124
H256	H	0.296164	-0.349245	1.424124
H257	H	-0.953367	-0.816199	0.312793
H258	H	-0.453367	-0.316199	0.812793
H259	H	-0.346298	-0.305270	0.345981
H260	H	0.153702	0.194730	0.845981
H261	H	-0.550173	-0.694839	0.191307
H262	H	-0.050173	-0.194839	0.691307
N263	N	-0.182558	-0.825031	0.557885
N264	N	0.317442	-0.325031	1.057885
H265	H	-0.158321	-0.803802	0.580534
H266	H	0.341679	-0.303802	1.080534
H267	H	-0.161420	-0.846219	0.532273
H268	H	0.338580	-0.346219	1.032273
N269	N	-0.354954	-0.652460	0.695524
N270	N	0.145046	-0.152460	1.195524
H271	H	-0.379191	-0.673689	0.672875
H272	H	0.120809	-0.173689	1.172875
H273	H	-0.333668	-0.628250	0.672893
H274	H	0.166332	-0.128250	1.172893
N275	N	-0.182419	-0.450160	0.182620
N276	N	0.317581	0.049840	0.682620
H277	H	-0.158224	-0.427519	0.203905
H278	H	0.341776	0.072481	0.703905
H279	H	-0.203679	-0.427521	0.158374
H280	H	0.296321	0.072479	0.658374
H281	H	-0.312791	-0.457397	0.312584
H282	H	0.187209	0.042603	0.812584
N283	N	-0.148908	-0.199022	0.149300
N284	N	0.351092	0.300978	0.649300
H285	H	-0.111569	-0.208551	0.157493
H286	H	0.388431	0.291449	0.657493
H287	H	-0.154027	-0.160295	0.154377
H288	H	0.345973	0.339705	0.654377
H289	H	-1.052528	-0.694987	0.191341
H290	H	-0.552528	-0.194987	0.691341
H291	H	-0.312789	-0.556447	0.312558
H292	H	0.187211	-0.056447	0.812558
H293	H	-0.702165	-0.849533	0.346249
H294	H	-0.202165	-0.349533	0.846249
N295	N	-0.808423	-0.858373	0.355125
N296	N	-0.308423	-0.358373	0.855125
H297	H	-0.782817	-0.879522	0.376330
H298	H	-0.282817	-0.379522	0.876330
H299	H	-0.831070	-0.882602	0.333890
H300	H	-0.331070	-0.382602	0.833890
H301	H	-0.550071	-0.816072	0.312778
H302	H	-0.050071	-0.316072	0.812778
N303	N	-0.355159	-0.199006	0.354816
N304	N	0.144841	0.300994	0.854816
H305	H	-0.376373	-0.224594	0.375952
H306	H	0.123627	0.275406	0.875952
H307	H	-0.379322	-0.176338	0.333491
H308	H	0.120678	0.323662	0.833491
H309	H	-0.451006	-0.816041	0.312766
H310	H	0.048994	-0.316041	0.812766
H311	H	-0.702335	-0.661486	0.157831
H312	H	-0.202335	-0.161486	0.657831
N313	N	-0.808614	-0.652696	0.148987
N314	N	-0.308614	-0.152696	0.648987
H315	H	-0.783049	-0.631526	0.127781
H316	H	-0.283049	-0.131526	0.627781
H317	H	-0.831286	-0.628487	0.170242
H318	H	-0.331286	-0.128487	0.670242
H319	H	-0.312826	-0.054100	0.312636
H320	H	0.187174	0.445900	0.812636
H321	H	-0.157953	-0.849646	0.702796
H322	H	0.342047	-0.349646	1.202796
N323	N	-0.182536	-0.825037	1.060238
N324	N	0.317464	-0.325037	1.560238
H325	H	-0.187611	-0.819956	1.098969
H326	H	0.312389	-0.319956	1.598969
H327	H	-0.145194	-0.816922	1.050694
H328	H	0.354806	-0.316922	1.550694
H329	H	-0.312829	0.044965	0.312647
H330	H	0.187171	0.544965	0.812647
H331	H	-0.191281	-0.054097	0.191512
H332	H	0.308719	0.445903	0.691512
N333	N	-0.182449	0.052171	0.182696
N334	N	0.317551	0.552171	0.682696
H335	H	-0.161232	0.026586	0.161549
H336	H	0.338768	0.526586	0.661549
H337	H	-0.158288	0.074807	0.204021
H338	H	0.341712	0.574807	0.704021
N339	N	-0.149115	-0.858494	0.809060
N340	N	0.350885	-0.358494	1.309060
H341	H	-0.154182	-0.853426	0.847794
H342	H	0.345818	-0.353426	1.347794
H343	H	-0.111773	-0.850383	0.799512
H344	H	0.388227	-0.350383	1.299512
N345	N	-0.148901	-0.312502	0.149296
N346	N	0.351099	0.187498	0.649296
H347	H	-0.127685	-0.286919	0.128157
H348	H	0.372315	0.213081	0.628157
H349	H	-0.170137	-0.335139	0.125056
H350	H	0.329863	0.164861	0.625056
N351	N	-0.182396	-0.563665	0.182615
N352	N	0.317604	-0.063665	0.682615
H353	H	-0.187478	-0.602398	0.187678
H354	H	0.312522	-0.102398	0.687678
H355	H	-0.145070	-0.554141	0.190821
H356	H	0.354930	-0.054141	0.690821
N357	N	-0.182571	-0.825032	0.444394
N358	N	0.317429	-0.325032	0.944394
H359	H	-0.161391	-0.846225	0.469983
H360	H	0.338609	-0.346225	0.969983
H361	H	-0.158372	-0.803766	0.421731
H362	H	0.341628	-0.303766	0.921731
N363	N	-0.321528	-0.685947	1.060199
N364	N	0.178472	-0.185947	1.560199
H365	H	-0.342706	-0.664754	1.034608
H366	H	0.157294	-0.164754	1.534608
H367	H	-0.300243	-0.661762	1.082847
H368	H	0.199757	-0.161762	1.582847
H369	H	-0.312687	-0.694776	0.953932
H370	H	0.187313	-0.194776	1.453932
N371	N	-0.354951	-0.652462	0.809005
N372	N	0.145049	-0.152462	1.309005
H373	H	-0.376124	-0.631267	0.783412
H374	H	0.123876	-0.131267	1.283412
H375	H	-0.333663	-0.628279	0.831652
H376	H	0.166337	-0.128279	1.331652
N377	N	-0.321548	-0.685937	0.557863
N378	N	0.178452	-0.185937	1.057863
H379	H	-0.342730	-0.664744	0.532275
H380	H	0.157270	-0.164744	1.032275
H381	H	-0.300260	-0.661752	0.580508
H382	H	0.199740	-0.161752	1.080508
