data_functionalizedCrystal
_audit_creation_method	'MofGen! by Chris Wilmer'
_symmetry_space_group_name_H-M	'P1'
_symmetry_Int_Tables_number	1
_symmetry_cell_setting	triclinic
loop_
_symmetry_equiv_pos_as_xyz
  x,y,z
_cell_length_a	19.188933
_cell_length_b	19.188930
_cell_length_c	14.421503
_cell_angle_alpha	89.999163
_cell_angle_beta	89.993814
_cell_angle_gamma	83.145175
loop_
_atom_site_label
_atom_site_type_symbol
_atom_site_fract_x
_atom_site_fract_y
_atom_site_fract_z
O1	O	0.926148	0.087164	-0.077091
O2	O	1.426148	0.587164	0.422909
O3	O	0.722837	0.098897	-0.077101
O4	O	1.222837	0.598897	0.422899
O5	O	0.830360	-0.008625	-0.077078
O6	O	1.330360	0.491375	0.422922
O7	O	0.818626	0.194686	-0.077115
O8	O	1.318626	0.694686	0.422885
O9	O	0.830342	-0.008609	0.077146
O10	O	1.330342	0.491391	0.577146
O11	O	0.722819	0.098913	0.077122
O12	O	1.222819	0.598913	0.577122
O13	O	0.926130	0.087180	0.077132
O14	O	1.426130	0.587180	0.577132
Cu15	Cu	0.824473	0.093048	0.091209
Cu16	Cu	1.324473	0.593048	0.591209
Cu17	Cu	0.824494	0.093029	-0.091178
Cu18	Cu	1.324494	0.593029	0.408822
O19	O	0.818608	0.194702	0.077109
O20	O	1.318608	0.694702	0.577109
C21	C	0.696817	0.098525	0.000010
C22	C	1.196817	0.598525	0.500010
C23	C	0.619313	0.097384	0.000007
C24	C	1.119313	0.597384	0.500007
C25	C	0.066067	0.089230	-0.084049
C26	C	0.566067	0.589230	0.415951
C27	C	0.138891	0.090298	-0.084053
C28	C	0.638891	0.590298	0.415947
C29	C	0.175299	0.090844	0.000014
C30	C	0.675299	0.590844	0.500014
C31	C	0.138878	0.090304	0.084091
C32	C	0.638878	0.590304	0.584091
C33	C	0.066056	0.089229	0.084092
C34	C	0.566056	0.589229	0.584092
N35	N	0.284311	0.132269	0.062581
N36	N	0.784311	0.632269	0.562581
N37	N	0.353489	0.133292	0.062574
N38	N	0.853489	0.633292	0.562574
C39	C	0.394707	0.094082	0.000015
C40	C	0.894707	0.594082	0.500015
N41	N	0.364133	0.053819	-0.062551
N42	N	0.864133	0.553819	0.437449
N43	N	0.294949	0.052799	-0.062547
N44	N	0.794949	0.552799	0.437453
C45	C	0.254262	0.092009	0.000022
C46	C	0.754262	0.592009	0.500022
C47	C	0.510084	0.095775	-0.084061
C48	C	1.010084	0.595775	0.415939
C49	C	0.582910	0.096839	-0.084061
C50	C	1.082910	0.596839	0.415939
C51	C	0.582895	0.096852	0.084085
C52	C	1.082895	0.596852	0.584085
C53	C	0.510071	0.095781	0.084083
C54	C	1.010071	0.595781	0.584083
C55	C	0.473669	0.095246	0.000007
C56	C	0.973669	0.595246	0.500007
C57	C	0.829971	-0.034628	0.000037
C58	C	1.329971	0.465372	0.500037
C59	C	0.828830	-0.112132	0.000045
C60	C	1.328830	0.387868	0.500045
C61	C	0.891921	-0.157056	0.000052
C62	C	1.391921	0.342944	0.500052
C63	C	0.890849	-0.229880	0.000037
C64	C	1.390849	0.270120	0.500037
C65	C	0.826683	-0.257777	0.000033
C66	C	1.326683	0.242223	0.500033
C67	C	0.763584	-0.212843	0.000021
C68	C	1.263584	0.287157	0.500021
C69	C	0.764658	-0.140021	0.000026
C70	C	1.264658	0.359979	0.500026
N71	N	0.777630	-0.365777	0.052516
N72	N	1.277630	0.134223	0.552516
N73	N	0.776614	-0.434955	0.052513
N74	N	1.276614	0.065045	0.552513
C75	C	0.823445	-0.477185	0.000014
C76	C	1.323445	0.022815	0.500014
N77	N	0.871340	-0.447625	-0.052469
N78	N	1.371340	0.052375	0.447531
N79	N	0.872358	-0.378440	-0.052461
N80	N	1.372358	0.121560	0.447539
C81	C	0.825512	-0.336739	0.000027
C82	C	1.325512	0.163261	0.500027
C83	C	0.885378	-0.601073	0.000004
C84	C	1.385378	-0.101073	0.500004
C85	C	0.884304	-0.673898	-0.000016
C86	C	1.384304	-0.173898	0.499984
C87	C	0.757037	-0.656860	-0.000023
C88	C	1.257037	-0.156860	0.499977
C89	C	0.758113	-0.584037	-0.000012
C90	C	1.258113	-0.084037	0.499988
C91	C	0.822286	-0.556148	0.000006
C92	C	1.322286	-0.056148	0.500006
C93	C	0.952150	0.087553	0.000020
C94	C	1.452150	0.587553	0.500020
C95	C	1.029655	0.088694	0.000016
C96	C	1.529655	0.588694	0.500016
C97	C	0.818997	0.220705	-0.000008
C98	C	1.318997	0.720705	0.499992
C99	C	0.820137	0.298210	-0.000022
C100	C	1.320137	0.798210	0.499978
N101	N	0.824463	0.093061	0.219490
N102	N	1.324463	0.593061	0.719490
N103	N	0.824510	0.093011	-0.219459
N104	N	1.324510	0.593011	0.280541
C105	C	0.774736	0.142757	0.469133
C106	C	1.274736	0.642757	0.969133
C107	C	0.837784	0.156116	0.530936
C108	C	1.337784	0.656116	1.030936
C109	C	0.824481	0.093044	0.408652
C110	C	1.324481	0.593044	0.908652
C111	C	0.761449	0.079701	0.530943
C112	C	1.261449	0.579701	1.030943
C113	C	0.824491	0.093030	0.591373
C114	C	1.324491	0.593030	1.091373
C115	C	0.887560	0.106435	0.469094
C116	C	1.387560	0.606435	0.969094
C117	C	0.811183	0.029993	0.469095
C118	C	1.311183	0.529993	0.969095
C119	C	0.874277	0.043325	0.530870
C120	C	1.374277	0.543325	1.030870
C121	C	0.824473	0.093055	0.303391
C122	C	1.324473	0.593055	0.803391
C123	C	0.824506	0.093019	0.696632
C124	C	1.324506	0.593019	1.196632
H125	H	0.612557	0.097270	-0.152520
H126	H	1.112557	0.597270	0.347480
Br127	Br	0.632299	0.097578	0.198178
Br128	Br	1.132299	0.597578	0.698178
H129	H	0.711340	-0.235562	0.000015
H130	H	1.211340	0.264438	0.500015
H131	H	0.708139	0.068422	0.558113
H132	H	1.208139	0.568422	1.058113
H133	H	0.704792	-0.679573	-0.000031
H134	H	1.204792	-0.179573	0.499969
Br135	Br	0.979012	-0.119210	0.000051
Br136	Br	1.479012	0.380790	0.500051
Br137	Br	0.672485	-0.523065	-0.000021
Br138	Br	1.172485	-0.023065	0.499979
H139	H	0.937631	-0.578365	0.000015
H140	H	1.437631	-0.078365	0.500015
H141	H	0.942227	-0.266463	0.000040
H142	H	1.442227	0.233537	0.500040
Br143	Br	0.016669	0.088500	-0.198151
Br144	Br	0.516669	0.588500	0.301849
H145	H	0.799906	-0.023305	0.441910
H146	H	1.299906	0.476695	0.941910
Br147	Br	0.460649	0.095063	0.198179
Br148	Br	0.960649	0.595063	0.698179
Br149	Br	0.188319	0.091025	-0.198150
Br150	Br	0.688319	0.591025	0.301850
Br151	Br	0.016635	0.088503	0.198190
Br152	Br	0.516635	0.588503	0.698190
Br153	Br	0.679028	-0.079049	0.000013
Br154	Br	1.179028	0.420951	0.500013
H155	H	0.935682	-0.710475	-0.000015
H156	H	1.435682	-0.210475	0.499985
H157	H	0.732712	0.184831	0.442026
H158	H	1.232712	0.684831	0.942026
H159	H	0.916394	0.001276	0.557807
H160	H	1.416394	0.501276	1.057807
H161	H	0.940881	0.117778	0.442040
H162	H	1.440881	0.617778	0.942040
Br163	Br	0.188286	0.091039	0.198182
Br164	Br	0.688286	0.591039	0.698182
Br165	Br	0.460678	0.095046	-0.198160
Br166	Br	0.960678	0.595046	0.301840
H167	H	0.849042	0.209431	0.558099
H168	H	1.349042	0.709431	1.058099
