data_functionalizedCrystal
_audit_creation_method	'MofGen! by Chris Wilmer'
_symmetry_space_group_name_H-M	'P1'
_symmetry_Int_Tables_number	1
_symmetry_cell_setting	triclinic
loop_
_symmetry_equiv_pos_as_xyz
  x,y,z
_cell_length_a	18.215407
_cell_length_b	14.908178
_cell_length_c	18.215399
_cell_angle_alpha	93.325522
_cell_angle_beta	90.019833
_cell_angle_gamma	93.314324
loop_
_atom_site_label
_atom_site_type_symbol
_atom_site_fract_x
_atom_site_fract_y
_atom_site_fract_z
Zn1	Zn	1.108200	-0.359185	0.399200
Zn2	Zn	1.608200	0.140815	0.899200
Zn3	Zn	1.101021	-0.510066	0.269028
Zn4	Zn	1.601021	-0.010066	0.769028
Zn5	Zn	0.985131	-0.359215	0.276146
Zn6	Zn	1.485131	0.140785	0.776146
Zn7	Zn	0.978014	-0.510015	0.392055
Zn8	Zn	1.478014	-0.010015	0.892055
O9	O	1.043092	-0.434620	0.334107
O10	O	1.543092	0.065380	0.834107
O11	O	1.210232	-0.379209	0.381944
O12	O	1.710232	0.120791	0.881944
O13	O	1.085623	-0.490088	0.166986
O14	O	1.585623	0.009912	0.666986
O15	O	1.007440	-0.232956	0.298438
O16	O	1.507440	0.267044	0.798438
O17	O	1.204957	-0.490060	0.286307
O18	O	1.704957	0.009940	0.786307
O19	O	1.097858	-0.232935	0.388846
O20	O	1.597858	0.267065	0.888846
O21	O	1.000479	-0.379259	0.172216
O22	O	1.500479	0.120741	0.672216
O23	O	0.881203	-0.379210	0.291510
O24	O	1.381203	0.120790	0.791510
O25	O	0.995309	-0.489974	0.495989
O26	O	1.495309	0.010026	0.995989
O27	O	0.875974	-0.490003	0.376669
O28	O	1.375974	0.009997	0.876669
O29	O	1.090956	-0.379160	0.501238
O30	O	1.590956	0.120840	1.001238
O31	O	1.078721	-0.636314	0.279379
O32	O	1.578721	-0.136314	0.779379
O33	O	0.988348	-0.636277	0.369767
O34	O	1.488348	-0.136277	0.869767
C35	C	0.851886	-0.434605	0.334087
C36	C	1.351886	0.065395	0.834087
C37	C	0.770086	-0.434620	0.334095
C38	C	1.270086	0.065380	0.834095
C39	C	0.579185	-0.492400	0.378373
C40	C	1.079185	0.007600	0.878373
C41	C	0.502326	-0.492403	0.378382
C42	C	1.002326	0.007597	0.878382
C43	C	0.507750	-0.376857	0.289857
C44	C	1.007750	0.123143	0.789857
C45	C	0.584607	-0.376850	0.289852
C46	C	1.084607	0.123150	0.789852
C47	C	0.620323	-0.434627	0.334109
C48	C	1.120323	0.065373	0.834109
C49	C	0.466606	-0.434636	0.334123
C50	C	0.966606	0.065364	0.834123
C51	C	0.383272	-0.434639	0.334132
C52	C	0.883272	0.065361	0.834132
C53	C	0.703662	-0.434623	0.334101
C54	C	1.203662	0.065377	0.834101
C55	C	1.032003	-0.669031	0.323041
C56	C	1.532003	-0.169031	0.823041
C57	C	1.027327	-0.769314	0.318331
C58	C	1.527327	-0.269314	0.818331
C59	C	1.112620	-0.957582	0.403724
C60	C	1.612620	-0.457582	0.903724
C61	C	1.108229	-1.051806	0.399301
C62	C	1.608229	-0.551806	0.899301
C63	C	1.014149	-1.051987	0.305068
C64	C	1.514149	-0.551987	0.805068
C65	C	1.018541	-0.957763	0.309490
C66	C	1.518541	-0.457763	0.809490
C67	C	1.067779	-0.910564	0.358819
C68	C	1.567779	-0.410564	0.858819
C69	C	1.072173	-0.816338	0.363238
C70	C	1.572173	-0.316338	0.863238
C71	C	0.978090	-0.816521	0.269009
C72	C	1.478090	-0.316521	0.769009
C73	C	0.973699	-0.910745	0.264586
C74	C	1.473699	-0.410745	0.764586
C75	C	1.235044	-0.434636	0.334128
C76	C	1.735044	0.065364	0.834128
C77	C	1.316842	-0.434643	0.334137
C78	C	1.816842	0.065357	0.834137
C79	C	1.043139	-0.434558	0.526063
C80	C	1.543139	0.065442	1.026063
C81	C	1.043160	-0.434532	0.607863
C82	C	1.543160	0.065468	1.107863
C83	C	1.054244	-0.199294	0.345233
C84	C	1.554244	0.300706	0.845233
C85	C	1.058996	-0.099012	0.349974
C86	C	1.558996	0.400988	0.849974
C87	C	1.043089	-0.434617	0.142901
C88	C	1.543089	0.065383	0.642901
C89	C	1.043224	-0.434389	0.061114
C90	C	1.543224	0.065611	0.561114
C91	C	1.092983	-0.376777	0.798795
C92	C	1.592983	0.123223	1.298795
C93	C	1.092993	-0.376750	0.875655
C94	C	1.592993	0.123250	1.375655
C95	C	0.993395	-0.492147	0.870177
C96	C	1.493395	0.007853	1.370177
C97	C	0.993382	-0.492168	0.793319
C98	C	1.493382	0.007832	1.293319
C99	C	1.043180	-0.434484	0.757629
C100	C	1.543180	0.065516	1.257629
C101	C	1.043203	-0.434437	0.911348
C102	C	1.543203	0.065563	1.411348
C103	C	1.043214	-0.434409	0.994683
C104	C	1.543214	0.065591	1.494683
C105	C	1.043169	-0.434511	0.674289
C106	C	1.543169	0.065489	1.174289
H107	H	0.478661	-0.329818	0.253823
H108	H	0.978661	0.170182	0.753823
H109	H	0.952853	-0.539113	0.899245
H110	H	1.452853	-0.039113	1.399245
Br111	Br	0.446498	-0.570809	0.438461
Br112	Br	0.946498	-0.070809	0.938461
H113	H	0.952822	-0.539160	0.759801
H114	H	1.452822	-0.039160	1.259801
Br115	Br	0.640443	-0.298428	0.229783
Br116	Br	1.140443	0.201572	0.729783
H117	H	0.974059	-1.090433	0.264910
H118	H	1.474059	-0.590433	0.764910
H119	H	0.608262	-0.539444	0.414412
H120	H	1.108262	-0.039444	0.914412
H121	H	1.144740	-1.090084	0.435871
H122	H	1.644740	-0.590084	0.935871
Br123	Br	1.160564	-0.298490	0.750361
Br124	Br	1.660564	0.201510	1.250361
Br125	Br	0.917238	-0.752707	0.208055
Br126	Br	1.417238	-0.252707	0.708055
Br127	Br	1.138998	-0.752282	0.430179
Br128	Br	1.638998	-0.252282	0.930179
Br129	Br	1.179451	-0.893521	0.470656
Br130	Br	1.679451	-0.393521	0.970656
H131	H	0.933609	-0.949188	0.224426
H132	H	1.433609	-0.449188	0.724426
Br133	Br	1.160590	-0.298436	0.931519
Br134	Br	1.660590	0.201564	1.431519
