data_functionalizedCrystal
_audit_creation_method	'MofGen! by Chris Wilmer'
_symmetry_space_group_name_H-M	'P1'
_symmetry_Int_Tables_number	1
_symmetry_cell_setting	triclinic
loop_
_symmetry_equiv_pos_as_xyz
  x,y,z
_cell_length_a	10.967926
_cell_length_b	10.540510
_cell_length_c	10.065875
_cell_angle_alpha	98.879491
_cell_angle_beta	93.120479
_cell_angle_gamma	84.613823
loop_
_atom_site_label
_atom_site_type_symbol
_atom_site_fract_x
_atom_site_fract_y
_atom_site_fract_z
O1	O	1.614767	0.221447	0.266300
O2	O	1.264754	0.225073	0.183976
O3	O	1.447765	0.038854	0.227021
O4	O	1.431757	0.407666	0.223255
O5	O	1.412868	0.074512	0.445802
O6	O	1.229858	0.260732	0.402757
O7	O	1.579871	0.257106	0.485081
Zn8	Zn	1.399324	0.264580	0.478655
Zn9	Zn	1.445301	0.217598	0.190402
O10	O	1.396860	0.443325	0.442036
C11	C	1.202487	0.239944	0.282825
C12	C	1.068942	0.231114	0.251415
C13	C	0.991326	0.245650	0.350747
C14	C	0.853300	0.236524	0.318285
C15	C	1.429124	0.009334	0.336129
C16	C	1.425556	-0.131752	0.335281
C17	C	1.552613	-0.344321	0.365685
C18	C	1.556500	-0.197663	0.366080
C19	C	1.378453	-0.199407	0.194583
C20	C	1.375589	-0.346293	0.193808
C21	C	1.333178	-0.305654	0.441962
C22	C	1.339127	-0.158810	0.445067
C23	C	1.642138	0.242234	0.386229
C24	C	1.775685	0.251062	0.417631
C25	C	1.415502	0.472844	0.332926
C26	C	1.419071	0.613929	0.333765
N27	N	1.367954	0.296644	0.675383
N28	N	1.476680	0.185525	-0.006323
C29	C	1.434379	0.228746	0.758785
C30	C	1.410246	0.253433	0.910276
H31	H	1.594663	-0.151740	0.467970
N32	N	1.036172	0.269755	0.487570
N33	N	1.091671	0.367640	0.528106
H34	H	1.123346	0.384668	0.624739
N35	N	1.274191	0.392482	0.726507
N36	N	1.254715	0.412396	0.849495
H37	H	1.188492	0.480083	0.885601
N38	N	1.455460	-0.177497	0.091692
N39	N	1.545069	-0.112123	0.121656
H40	H	1.599462	-0.096650	0.048994
H41	H	1.589337	-0.369744	0.467279
H42	H	1.623561	-0.181885	0.288777
N43	N	0.808472	0.212421	0.181450
N44	N	0.696413	0.205035	0.155274
H45	H	0.664750	0.188010	0.058636
H46	H	1.436294	-0.399998	0.111194
N47	N	1.209681	-0.337934	0.413996
N48	N	1.184875	-0.419779	0.314879
H49	H	1.097659	-0.442585	0.295117
H50	H	0.811412	0.270260	0.526712
N51	N	1.258464	-0.145481	0.160266
N52	N	1.205873	-0.187467	0.051218
H53	H	1.121131	-0.149378	0.026979
H54	H	1.509111	0.152334	0.718038
H55	H	1.551417	0.109109	0.952934
N56	N	1.634060	-0.414713	0.268885
N57	N	1.594180	-0.495494	0.176491
H58	H	1.651698	-0.545212	0.108123
N59	N	1.316478	0.349277	0.961394
N60	N	1.297002	0.369190	1.084382
H61	H	1.230778	0.436877	1.120488
N62	N	1.024109	0.207012	0.114587
N63	N	0.912049	0.199626	0.088412
H64	H	0.880386	0.182601	-0.008227
N65	N	1.253858	-0.380931	0.157811
N66	N	1.171287	-0.296643	0.133330
H67	H	1.085315	-0.321100	0.107907
H68	H	1.359686	-0.330828	0.546448
H69	H	1.373159	-0.113290	0.548963
N70	N	1.217713	-0.100167	0.426371
N71	N	1.192793	-0.037206	0.331395
H72	H	1.107049	0.004238	0.318200
