data_functionalizedCrystal
_audit_creation_method	'MofGen! by Chris Wilmer'
_symmetry_space_group_name_H-M	'P1'
_symmetry_Int_Tables_number	1
_symmetry_cell_setting	triclinic
loop_
_symmetry_equiv_pos_as_xyz
  x,y,z
_cell_length_a	10.723023
_cell_length_b	15.995343
_cell_length_c	9.198806
_cell_angle_alpha	89.992095
_cell_angle_beta	89.996513
_cell_angle_gamma	83.978366
loop_
_atom_site_label
_atom_site_type_symbol
_atom_site_fract_x
_atom_site_fract_y
_atom_site_fract_z
O1	O	1.655685	0.117432	-0.120894
O2	O	1.292389	0.128673	-0.120902
O3	O	1.483973	0.001222	-0.120871
O4	O	1.464101	0.244884	-0.120926
O5	O	1.483958	0.001221	0.120914
O6	O	1.292374	0.128673	0.120883
O7	O	1.655670	0.117432	0.120891
Cu8	Cu	1.474021	0.123052	0.142964
Cu9	Cu	1.474038	0.123053	-0.142975
O10	O	1.464086	0.244883	0.120859
C11	C	1.245892	0.127855	-0.000010
C12	C	1.107369	0.125408	-0.000012
C13	C	1.045603	0.124317	0.125239
C14	C	0.902433	0.121788	0.125240
C15	C	1.483146	-0.029978	0.000025
C16	C	1.480688	-0.122943	0.000037
C17	C	1.476227	-0.293155	0.000003
C18	C	1.337932	-0.317295	-0.000003
C19	C	1.335330	-0.413987	-0.000568
C20	C	1.471832	-0.460740	-0.000028
C21	C	1.541378	-0.431242	-0.137820
C22	C	1.543018	-0.334440	-0.137919
C23	C	1.545025	-0.334533	0.137045
C24	C	1.539920	-0.431057	0.138840
C25	C	1.469356	-0.555452	-0.000050
C26	C	1.478707	-0.198443	0.000016
C27	C	1.702167	0.118250	-0.000005
C28	C	1.840690	0.120697	-0.000012
C29	C	1.464913	0.276083	-0.000040
C30	C	1.467371	0.369048	-0.000061
N31	N	1.474017	0.123052	0.344078
N32	N	1.474052	0.123047	-0.344089
C33	C	1.554461	0.069302	0.416288
C34	C	1.554480	0.069299	0.583700
H35	H	1.054256	0.124468	-0.107243
H36	H	0.849314	0.120854	0.232472
N37	N	1.645720	0.008347	0.665946
H38	H	1.631132	-0.051140	0.639553
H39	H	1.734318	0.018430	0.639469
H40	H	1.098718	0.125250	0.232470
H41	H	1.405156	0.169063	0.406194
N42	N	1.263230	-0.439612	0.130245
H43	H	1.232853	-0.388051	0.188796
H44	H	1.188937	-0.468516	0.096864
H45	H	1.501387	-0.306519	0.241524
N46	N	1.382806	0.184000	0.573674
H47	H	1.329134	0.219866	0.644873
H48	H	1.430780	0.221178	0.510501
H49	H	0.893798	0.121640	-0.107250
H50	H	1.284322	-0.289600	0.098797
N51	N	1.677350	-0.314358	-0.145695
H52	H	1.697260	-0.280906	-0.057105
H53	H	1.735143	-0.368406	-0.149094
N54	N	1.645642	0.008338	0.333997
H55	H	1.700977	0.040587	0.270811
H56	H	1.699248	-0.027529	0.405261
N57	N	1.268087	-0.279311	-0.130705
H58	H	1.266465	-0.216093	-0.127320
H59	H	1.311711	-0.301330	-0.222414
N60	N	1.263519	-0.438820	-0.132135
H61	H	1.233446	-0.386925	-0.189999
H62	H	1.320065	-0.478412	-0.194755
N63	N	1.479987	-0.299305	-0.274874
H64	H	1.451399	-0.346721	-0.334613
H65	H	1.405133	-0.258508	-0.248293
H66	H	1.641840	-0.462511	-0.142556
N67	N	1.679855	-0.315186	0.138820
H68	H	1.696303	-0.283371	0.230488
H69	H	1.737162	-0.369455	0.135763
N70	N	1.478192	-0.458208	-0.274179
H71	H	1.388175	-0.432268	-0.275902
H72	H	1.523715	-0.438934	-0.362175
H73	H	1.489276	-0.449913	0.240781
H74	H	1.639525	-0.463434	0.147577
