data_functionalizedCrystal
_audit_creation_method	'MofGen! by Chris Wilmer'
_symmetry_space_group_name_H-M	'P1'
_symmetry_Int_Tables_number	1
_symmetry_cell_setting	triclinic
loop_
_symmetry_equiv_pos_as_xyz
  x,y,z
_cell_length_a	11.792254
_cell_length_b	11.792241
_cell_length_c	9.198806
_cell_angle_alpha	90.003595
_cell_angle_beta	90.003910
_cell_angle_gamma	84.196007
loop_
_atom_site_label
_atom_site_type_symbol
_atom_site_fract_x
_atom_site_fract_y
_atom_site_fract_z
O1	O	1.506900	0.155634	0.120892
O2	O	1.176560	0.171652	0.120895
O3	O	1.349746	-0.001527	0.120883
O4	O	1.333714	0.328813	0.120904
O5	O	1.349733	-0.001528	-0.120902
O6	O	1.176547	0.171651	-0.120890
O7	O	1.506886	0.155633	-0.120893
Cu8	Cu	1.341715	0.163642	-0.142968
Cu9	Cu	1.341731	0.163643	0.142970
O10	O	1.333700	0.328812	-0.120881
C11	C	1.134263	0.170642	0.000003
C12	C	1.008250	0.167622	0.000004
C13	C	1.348732	-0.043819	-0.000009
C14	C	1.345718	-0.169832	-0.000007
C15	C	0.905913	0.165168	0.000010
C16	C	0.777527	0.162100	0.000011
C17	C	1.340175	-0.400545	0.000017
C18	C	1.343255	-0.272160	0.000004
C19	C	1.549183	0.156643	0.000002
C20	C	1.675196	0.159663	0.000011
C21	C	1.334714	0.371104	0.000014
C22	C	1.337728	0.497118	0.000022
N23	N	1.341712	0.163640	-0.344082
C24	C	1.407736	0.229300	-0.416277
C25	C	1.407753	0.229298	-0.583689
N26	N	1.341743	0.163636	0.344084
H27	H	1.464253	0.285509	-0.354145
H28	H	1.464273	0.285518	-0.645775
C29	C	1.265429	0.087632	-0.572055
N30	N	1.207971	0.030364	-0.508880
H31	H	1.285202	0.107422	-0.406214
