data_functionalizedCrystal
_audit_creation_method	'MofGen! by Chris Wilmer'
_symmetry_space_group_name_H-M	'P1'
_symmetry_Int_Tables_number	1
_symmetry_cell_setting	triclinic
loop_
_symmetry_equiv_pos_as_xyz
  x,y,z
_cell_length_a	11.792241
_cell_length_b	16.109301
_cell_length_c	14.586319
_cell_angle_alpha	90.005214
_cell_angle_beta	89.999304
_cell_angle_gamma	83.827448
loop_
_atom_site_label
_atom_site_type_symbol
_atom_site_fract_x
_atom_site_fract_y
_atom_site_fract_z
O1	O	-1.505908	-0.113953	-0.076154
O2	O	-1.175464	-0.125697	-0.076176
O3	O	-1.349763	0.001163	-0.076155
O4	O	-1.331608	-0.240814	-0.076175
O5	O	-1.349751	0.001165	0.076325
O6	O	-1.175452	-0.125695	0.076305
O7	O	-1.505896	-0.113951	0.076326
Cu8	Cu	-1.340673	-0.119823	0.090238
Cu9	Cu	-1.340687	-0.119825	-0.090088
O10	O	-1.331596	-0.240812	0.076306
C11	C	-1.133173	-0.124959	0.000062
C12	C	-1.007179	-0.122751	0.000054
C13	C	-1.349022	0.032142	0.000085
C14	C	-1.346817	0.124448	0.000087
C15	C	-1.548186	-0.114690	0.000087
C16	C	-1.674181	-0.116898	0.000088
C17	C	-0.776502	-0.118690	0.000080
C18	C	-0.904868	-0.120946	0.000066
C19	C	-1.332338	-0.271791	0.000063
C20	C	-1.334542	-0.364097	0.000055
N21	N	-1.340671	-0.119821	0.217070
C22	C	-1.445116	0.346258	0.000078
C23	C	-1.443036	0.432988	0.000071
C24	C	-1.236235	0.414087	0.000061
C25	C	-1.238317	0.327358	0.000062
C26	C	-1.342761	0.293446	0.000075
C27	C	-1.338599	0.466905	0.000067
C28	C	-1.336342	0.560942	0.000058
C29	C	-1.345018	0.199404	0.000082
N30	N	-1.340698	-0.119821	-0.216920
C31	C	-1.417876	-0.063666	0.452086
C32	C	-1.417879	-0.063664	0.548067
C33	C	-1.263484	-0.175978	0.548058
C34	C	-1.263476	-0.175976	0.452078
C35	C	-1.340679	-0.119821	0.404095
C36	C	-1.340690	-0.119821	0.596055
C37	C	-1.340693	-0.119820	0.700123
C38	C	-1.340675	-0.119821	0.300021
H39	H	-1.530161	0.318650	0.000088
H40	H	-1.526384	0.475984	0.000071
H41	H	-1.480738	-0.017940	0.413019
C42	C	-1.125724	0.269258	0.000054
H43	H	-1.141924	0.212750	0.000045
H44	H	-1.082887	0.279588	0.053223
H45	H	-1.082907	0.279586	-0.053131
C46	C	-1.178565	-0.237753	0.399280
H47	H	-1.189613	-0.229703	0.335247
H48	H	-1.190873	-0.293301	0.415001
H49	H	-1.102819	-0.228351	0.415011
H50	H	-1.480739	-0.017937	0.587138
H51	H	-1.200629	-0.221700	0.587136
C52	C	-1.121354	0.451389	0.000049
H53	H	-1.060692	0.407513	0.000037
H54	H	-1.116236	0.484835	0.053220
H55	H	-1.116250	0.484822	-0.053133
