data_functionalizedCrystal
_audit_creation_method	'MofGen! by Chris Wilmer'
_symmetry_space_group_name_H-M	'P1'
_symmetry_Int_Tables_number	1
_symmetry_cell_setting	triclinic
loop_
_symmetry_equiv_pos_as_xyz
  x,y,z
_cell_length_a	18.760490
_cell_length_b	21.606444
_cell_length_c	21.606444
_cell_angle_alpha	59.991153
_cell_angle_beta	90.020172
_cell_angle_gamma	60.027417
loop_
_atom_site_label
_atom_site_type_symbol
_atom_site_fract_x
_atom_site_fract_y
_atom_site_fract_z
Zr1	Zr	0.686540	0.677760	-0.081267
O2	O	0.572742	0.806854	-0.180127
O3	O	0.721424	0.548641	-0.050946
O4	O	0.721418	0.677777	-0.180090
O5	O	0.572755	0.677713	0.050871
O6	O	0.838696	0.677819	-0.180079
O7	O	0.572749	0.677718	-0.050983
O8	O	0.838708	0.446819	0.050937
O9	O	0.572743	0.908714	-0.180144
O10	O	0.823827	0.601790	-0.038024
O11	O	0.736307	0.601756	0.037980
O12	O	0.736299	0.753796	-0.114071
O13	O	0.648780	0.753762	-0.038067
Zr14	Zr	0.873595	0.677820	0.081197
Zr15	Zr	0.873586	0.677827	-0.081248
Zr16	Zr	0.686549	0.677753	0.081178
Zr17	Zr	0.686541	0.840215	-0.081294
Zr18	Zr	0.873594	0.515365	0.081224
O19	O	0.838710	0.806939	0.050876
O20	O	0.838697	0.806949	-0.180100
O21	O	0.572756	0.806844	0.050850
O22	O	0.987393	0.548727	0.180057
O23	O	0.987379	0.548737	-0.050920
O24	O	0.721438	0.548631	0.180030
O25	O	0.987380	0.677867	-0.050941
O26	O	0.838717	0.677804	0.180021
O27	O	0.721439	0.677761	0.180009
O28	O	0.987386	0.677863	0.050913
O29	O	0.721419	0.908767	-0.180129
O30	O	0.838716	0.446813	0.180059
O31	O	0.987392	0.446867	0.180074
O32	O	0.987385	0.446872	0.050952
O33	O	0.572750	0.908708	-0.051021
O34	O	0.721427	0.908762	-0.051007
O35	O	0.823835	0.601784	0.114001
O36	O	0.911355	0.601819	0.037997
O37	O	0.823828	0.753825	-0.038050
O38	O	0.736308	0.753790	0.037954
C39	C	0.780066	0.474584	-0.000001
C40	C	0.780066	0.405617	0.000011
C41	C	0.715450	0.429331	-0.056124
C42	C	0.715453	0.364542	-0.056140
C43	C	0.780067	0.276039	-0.000017
C44	C	0.844689	0.252325	0.056121
C45	C	0.844690	0.317114	0.056133
C46	C	0.844689	-0.008961	0.056073
C47	C	0.844682	-0.073750	0.056058
C48	C	0.715452	0.038467	-0.056199
C49	C	0.715452	0.103255	-0.056187
C50	C	0.780076	0.079536	-0.000052
C51	C	0.780074	0.149789	-0.000037
C52	C	0.780067	0.205787	-0.000029
C53	C	0.546102	0.677706	-0.000058
C54	C	0.466696	0.677678	-0.000066
C55	C	0.130705	0.677882	-0.056125
C56	C	0.130828	0.677877	0.056105
C57	C	0.205474	0.677834	0.056093
C58	C	0.242740	0.677813	-0.000029
C59	C	0.205360	0.677836	-0.056138
C60	C	0.242865	0.677802	0.112205
C61	C	0.317516	0.677758	0.112196
C62	C	0.354780	0.677743	0.056070
C63	C	0.317395	0.677767	-0.000041
C64	C	0.354661	0.677747	-0.056163
C65	C	0.317273	0.677777	-0.112278
C66	C	0.242624	0.677822	-0.112263
C67	C	0.429430	0.677698	0.056055
C68	C	0.429316	0.677700	-0.056175
C69	C	1.014033	0.677874	-0.000011
C70	C	1.093439	0.677903	-0.000003
C71	C	0.780056	0.677799	-0.203230
C72	C	0.780052	0.677802	-0.272192
C73	C	0.780069	0.880997	-0.000069
C74	C	0.780069	0.949963	-0.000081
C75	C	0.734363	0.757147	-0.344286
C76	C	0.734370	0.757144	-0.409081
C77	C	0.780062	0.677796	-0.401780
C78	C	0.825756	0.598445	-0.329678
C79	C	0.825753	0.598448	-0.264885
C80	C	0.825770	0.598430	-0.590981
C81	C	0.825767	0.598433	-0.655782
C82	C	0.734387	0.757126	-0.735177
C83	C	0.734384	0.757129	-0.670384
C84	C	0.780082	0.677779	-0.598288
C85	C	0.780075	0.677782	-0.528031
C86	C	0.780065	0.677792	-0.472036
C87	C	0.780079	0.677781	0.203160
C88	C	0.780083	0.677779	0.272122
C89	C	1.014032	0.474668	0.000023
C90	C	1.093437	0.405730	0.000042
C91	C	0.780078	0.474575	0.203194
C92	C	0.780082	0.405605	0.272168
C93	C	1.014044	0.474659	0.203217
C94	C	1.093453	0.405718	0.272199
C95	C	0.546091	0.880922	-0.203287
C96	C	0.466682	0.949862	-0.272269
C97	C	0.546103	0.880913	-0.000092
C98	C	0.466698	0.949851	-0.000112
C99	C	0.780057	0.881006	-0.203264
C100	C	0.780053	0.949975	-0.272238
C101	C	1.085038	0.373341	-0.039638
C102	C	1.159641	0.308575	-0.039635
C103	C	1.242642	0.276195	0.000053
C104	C	1.251039	0.308590	0.039734
C105	C	1.176437	0.373359	0.039726
C106	C	0.825772	0.373231	0.344248
C107	C	0.825772	0.308436	0.409062
C108	C	0.780086	0.276012	0.401795
C109	C	0.734390	0.308392	0.329707
C110	C	0.734386	0.373191	0.264894
C111	C	1.176437	0.373361	0.264921
C112	C	1.251057	0.308592	0.329730
C113	C	1.242693	0.276178	0.401818
C114	C	1.159700	0.308542	0.409095
C115	C	1.085082	0.373313	0.344286
C116	C	0.383698	0.982228	-0.264990
C117	C	0.309078	1.047016	-0.329800
C118	C	0.317442	1.079434	-0.401888
C119	C	0.400434	1.047066	-0.409165
C120	C	0.475053	0.982283	-0.344356
C121	C	0.475097	0.982246	0.039561
C122	C	0.400494	1.047030	0.039540
C123	C	0.317493	1.079412	-0.000150
C124	C	0.309096	1.047014	-0.039828
C125	C	0.383698	0.982236	-0.039811
C126	C	0.825748	0.982379	-0.264946
C127	C	0.825762	1.047174	-0.329748
C128	C	0.780075	1.079569	-0.401841
C129	C	0.734379	1.047159	-0.409131
C130	C	0.734371	0.982361	-0.344330
H131	H	0.897310	-0.028284	0.101781
C132	C	0.876004	0.511172	-0.185580
H133	H	0.869465	0.522537	-0.148037
H134	H	0.853444	0.478553	-0.179891
H135	H	0.936116	0.478584	-0.179880
C136	C	0.409742	1.082659	0.083186
H137	H	0.353429	1.125886	0.077487
H138	H	0.440743	1.036146	0.135398
H139	H	0.440752	1.107942	0.063586
H140	H	0.407235	1.073469	-0.467866
H141	H	0.256755	1.132158	-0.000158
C142	C	0.876043	0.272822	0.488350
H143	H	0.869499	0.229594	0.525915
H144	H	0.936149	0.247562	0.494039
H145	H	0.853480	0.319345	0.494014
H146	H	0.697180	0.821737	-0.793888
H147	H	1.017515	0.399650	0.350223
C148	C	0.201874	0.677823	0.173933
H149	H	0.152054	0.677865	0.165897
H150	H	0.243325	0.627053	0.222384
H151	H	0.184934	0.728580	0.171591
C152	C	0.915763	0.154976	0.117855
H153	H	0.906504	0.119785	0.109814
H154	H	0.971540	0.142557	0.115542
H155	H	0.913080	0.142524	0.166302
H156	H	1.303459	0.223437	0.454583
C157	C	0.684130	0.408790	0.185610
H158	H	0.656932	0.380189	0.190572
H159	H	0.640891	0.469954	0.158658
H160	H	0.723569	0.398170	0.158693
H161	H	0.347952	0.677734	0.157887
C162	C	0.684065	1.082850	-0.488433
H163	H	0.656832	1.054287	-0.483503
H164	H	0.640849	1.144012	-0.515327
H165	H	0.723464	1.072272	-0.515392
H166	H	0.241509	1.073359	-0.323860
H167	H	1.183288	0.399722	0.072043
C168	C	0.358271	0.677748	-0.174006
H169	H	0.325321	0.677766	-0.207422
H170	H	0.358204	0.728485	-0.201735
H171	H	0.416586	0.626957	-0.150938
C172	C	0.235357	1.150681	-0.473170
H173	H	0.184739	1.165301	-0.458504
H174	H	0.235335	1.201250	-0.502502
H175	H	0.235347	1.129433	-0.502475
H176	H	1.183264	0.399743	0.206229
C177	C	1.150511	0.272872	0.488393
H178	H	1.206840	0.229655	0.525942
H179	H	1.119512	0.319368	0.494082
H180	H	1.119522	0.247566	0.494080
C181	C	0.915763	0.291029	0.117883
H182	H	0.954241	0.229041	0.151311
H183	H	0.947676	0.313991	0.094842
H184	H	0.889218	0.313950	0.145604
H185	H	0.376871	0.955837	-0.206299
C186	C	1.342342	0.272959	0.083395
H187	H	1.385562	0.229740	0.077720
H188	H	1.348904	0.319470	0.063805
H189	H	1.348893	0.247665	0.135606
C190	C	0.876032	0.511146	-0.647748
H191	H	0.903254	0.463887	-0.595531
H192	H	0.836598	0.507830	-0.671377
H193	H	0.919267	0.507867	-0.671372
H194	H	0.862951	0.956013	-0.206250
H195	H	0.459871	0.677668	0.101746
H196	H	0.241506	1.073390	-0.072143
C197	C	0.876025	0.408892	0.352252
H198	H	0.869491	0.452118	0.303333
H199	H	0.853459	0.434166	0.379165
H200	H	0.936137	0.362388	0.379193
C201	C	0.470306	0.677678	-0.117909
H202	H	0.520118	0.677650	-0.109884
H203	H	0.487239	0.626929	-0.115572
H204	H	0.428848	0.728457	-0.166360
C205	C	1.342337	0.272996	0.321712
H206	H	1.336625	0.301569	0.269496
H207	H	1.373351	0.283630	0.345329
H208	H	1.373342	0.211823	0.345354
C209	C	0.684092	0.946734	-0.352360
H210	H	0.656879	0.975319	-0.404578
H211	H	0.723511	0.885568	-0.328722
H212	H	0.640848	0.957355	-0.328746
C213	C	0.374448	0.946597	-0.083444
H214	H	0.314329	0.975158	-0.107074
H215	H	0.401647	0.957219	-0.120994
H216	H	0.401646	0.885425	-0.049174
H217	H	0.212179	0.677845	-0.157949
H218	H	0.697150	0.821762	-0.350240
C219	C	0.566332	0.946654	-0.352367
H220	H	0.609582	0.903424	-0.303450
H221	H	0.572835	0.921391	-0.379291
H222	H	0.572897	0.993167	-0.379299
C223	C	0.566388	0.946636	0.083225
H224	H	0.560693	0.975221	0.106841
H225	H	0.597394	0.885469	0.120789
H226	H	0.597391	0.957272	0.048974
H227	H	0.862971	1.073556	-0.323798
C228	C	1.150393	0.272942	-0.083277
H229	H	1.206706	0.229737	-0.077600
H230	H	1.119397	0.247649	-0.063673
H231	H	1.119379	0.319463	-0.135491
H232	H	0.100260	0.677910	-0.101815
C233	C	0.780086	1.150848	-0.473118
H234	H	0.746338	1.165501	-0.517102
H235	H	0.755632	1.201393	-0.473126
H236	H	0.838302	1.129614	-0.473103
C237	C	0.644373	0.526681	-0.117857
H238	H	0.653621	0.561872	-0.109808
H239	H	0.647048	0.539138	-0.166303
H240	H	0.588596	0.539092	-0.115535
C241	C	0.644373	0.390630	-0.117886
H242	H	0.605885	0.452617	-0.151302
H243	H	0.670908	0.367714	-0.145609
H244	H	0.612460	0.367665	-0.094837
H245	H	0.780097	0.223249	0.454576
H246	H	0.697174	0.821743	-0.676336
H247	H	0.662833	0.175317	-0.101886
H248	H	0.100487	0.677888	0.101801
C249	C	0.993747	0.408952	-0.083303
H250	H	0.999442	0.380387	-0.106938
H251	H	0.962739	0.398318	-0.049062
H252	H	0.962745	0.470125	-0.120865
C253	C	1.324698	0.204945	0.000065
H254	H	1.375338	0.190297	0.029381
H255	H	1.324692	0.154392	0.021313
H256	H	1.324693	0.226197	-0.050497
H257	H	0.662834	0.057774	-0.101910
H258	H	0.897303	-0.145817	0.101762
C259	C	0.684143	0.272719	0.321719
H260	H	0.656923	0.301280	0.269509
H261	H	0.723587	0.211553	0.345371
H262	H	0.640909	0.283330	0.345343
C263	C	0.684109	0.844424	-0.488382
H264	H	0.656887	0.891681	-0.483450
H265	H	0.723541	0.847742	-0.515305
H266	H	0.640874	0.847702	-0.515312
H267	H	0.862981	0.533818	-0.532286
C268	C	0.876014	0.511164	-0.321646
H269	H	0.869466	0.522524	-0.370560
H270	H	0.936122	0.478574	-0.294710
H271	H	0.853445	0.478550	-0.294721
