data_functionalizedCrystal
_audit_creation_method	'MofGen! by Chris Wilmer'
_symmetry_space_group_name_H-M	'P1'
_symmetry_Int_Tables_number	1
_symmetry_cell_setting	triclinic
loop_
_symmetry_equiv_pos_as_xyz
  x,y,z
_cell_length_a	14.971482
_cell_length_b	19.288857
_cell_length_c	14.048226
_cell_angle_alpha	89.991412
_cell_angle_beta	89.994098
_cell_angle_gamma	83.372858
loop_
_atom_site_label
_atom_site_type_symbol
_atom_site_fract_x
_atom_site_fract_y
_atom_site_fract_z
O1	O	1.186457	0.090505	-0.079153
O2	O	0.925997	0.101348	-0.079158
O3	O	1.063756	-0.005180	-0.079144
O4	O	1.048697	0.197033	-0.079167
O5	O	1.063740	-0.005186	0.079177
O6	O	0.925980	0.101341	0.079163
O7	O	1.186440	0.090499	0.079168
Zn8	Zn	1.056208	0.095919	0.104303
Zn9	Zn	1.056229	0.095927	-0.104292
O10	O	1.048681	0.197026	0.079154
C11	C	0.892667	0.100860	0.000002
C12	C	0.793377	0.099408	0.000000
C13	C	0.746727	0.098721	0.086303
C14	C	0.653436	0.097346	0.086304
C15	C	0.606796	0.096663	0.000002
C16	C	0.653453	0.097348	-0.086307
C17	C	0.746743	0.098718	-0.086307
C18	C	0.459006	0.094494	-0.086300
C19	C	0.365710	0.093125	-0.086301
C20	C	0.365700	0.093122	0.086310
C21	C	0.458990	0.094492	0.086310
C22	C	0.505640	0.095178	0.000001
C23	C	1.063265	-0.031061	0.000018
C24	C	1.061814	-0.108170	0.000020
C25	C	1.061145	-0.144379	-0.086281
C26	C	1.059769	-0.216829	-0.086288
C27	C	1.059079	-0.253070	0.000011
C28	C	1.059743	-0.216851	0.086323
C29	C	1.061110	-0.144401	0.086328
C30	C	1.109296	-0.373140	0.066122
C31	C	1.107935	-0.445590	0.066114
C32	C	1.054858	-0.476529	0.000000
C33	C	1.003155	-0.435012	-0.066121
C34	C	1.004523	-0.362562	-0.066117
C35	C	1.057596	-0.331629	0.000016
C36	C	1.052697	-0.591298	-0.086315
C37	C	1.051315	-0.663749	-0.086318
C38	C	1.051297	-0.663770	0.086296
C39	C	1.052670	-0.591319	0.086297
C40	C	1.053374	-0.555088	-0.000011
C41	C	1.219770	0.090987	0.000006
C42	C	1.319060	0.092438	0.000001
C43	C	1.049172	0.222908	-0.000009
C44	C	1.050623	0.300016	-0.000018
N45	N	1.056199	0.095913	0.246663
N46	N	1.056245	0.095928	-0.246653
C47	C	1.117218	0.048762	0.296488
C48	C	1.117224	0.048762	0.396145
C49	C	1.056215	0.095916	0.445977
C50	C	0.995190	0.143069	0.396146
C51	C	0.995180	0.143066	0.296490
C52	C	0.995215	0.143074	0.603860
C53	C	0.995226	0.143079	0.703523
C54	C	1.117260	0.048770	0.703515
C55	C	1.117250	0.048767	0.603860
C56	C	1.056226	0.095921	0.554035
H57	H	1.061716	-0.114884	-0.156559
Cl58	Cl	0.939524	-0.310370	-0.149232
Cl59	Cl	1.193925	-0.010518	0.233853
H60	H	1.166932	0.010374	0.563287
Cl61	Cl	0.594824	0.096464	-0.194802
Cl62	Cl	0.918464	0.202342	0.233854
H63	H	1.152516	-0.347956	0.119967
Cl64	Cl	1.193976	-0.010507	0.766155
Cl65	Cl	0.594792	0.096495	0.194803
H66	H	1.053264	-0.561796	-0.156592
H67	H	0.945545	0.181476	0.744090
H68	H	1.166910	0.010368	0.436712
H69	H	0.945510	0.181461	0.436724
Cl70	Cl	0.805351	0.099584	0.194803
Cl71	Cl	0.918494	0.202354	0.541227
H72	H	0.496961	0.095052	0.156585
Cl73	Cl	0.805389	0.099579	-0.194806
H74	H	0.327713	0.092563	0.156586
H75	H	0.327738	0.092570	-0.156575
Cl76	Cl	1.058929	-0.262359	-0.194789
H77	H	0.959936	-0.460200	-0.119958
H78	H	1.059178	-0.246362	0.156589
H79	H	0.496986	0.095053	-0.156583
H80	H	1.050766	-0.693229	-0.156598
Cl81	Cl	1.050425	-0.709321	0.194787
Cl82	Cl	1.053510	-0.545796	0.194796
Cl83	Cl	1.061949	-0.098878	0.194830
Cl84	Cl	1.172935	-0.497776	0.149234
