data_functionalizedCrystal
_audit_creation_method	'MofGen! by Chris Wilmer'
_symmetry_space_group_name_H-M	'P1'
_symmetry_Int_Tables_number	1
_symmetry_cell_setting	triclinic
loop_
_symmetry_equiv_pos_as_xyz
  x,y,z
_cell_length_a	6.817900
_cell_length_b	12.200722
_cell_length_c	14.858572
_cell_angle_alpha	93.924192
_cell_angle_beta	104.524003
_cell_angle_gamma	107.140920
loop_
_atom_site_label
_atom_site_type_symbol
_atom_site_fract_x
_atom_site_fract_y
_atom_site_fract_z
V1	V	-4.056917	-0.159435	-0.290059
V2	V	-3.556917	0.340565	0.209941
O3	O	-4.024805	0.006919	-0.284436
O4	O	-3.524805	0.506919	0.215564
O5	O	-4.026550	-0.315419	-0.288173
O6	O	-3.526550	0.184581	0.211827
O7	O	-4.013309	-0.157309	-0.416520
O8	O	-3.513309	0.342691	0.083480
O9	O	-4.038138	-0.152286	-0.155201
O10	O	-3.538138	0.347714	0.344799
V11	V	-4.537587	-0.139499	-0.273917
V12	V	-4.037587	0.360501	0.226083
O13	O	-4.324433	-0.203167	-0.325468
O14	O	-3.824433	0.296833	0.174532
O15	O	-4.720269	-0.095767	-0.238509
O16	O	-4.220269	0.404233	0.261491
O17	O	-4.344748	0.016485	-0.275803
O18	O	-3.844748	0.516485	0.224197
O19	O	-4.687096	-0.305852	-0.279541
O20	O	-4.187096	0.194148	0.220459
O21	O	-4.673763	-0.146648	-0.408775
O22	O	-4.173763	0.353352	0.091225
O23	O	-4.357989	-0.141625	-0.147457
O24	O	-3.857989	0.358375	0.352543
C25	C	-3.875783	-0.353434	-0.283623
C26	C	-3.375783	0.146566	0.216377
C27	C	-3.932273	-0.480954	-0.282924
C28	C	-3.432273	0.019046	0.217076
C29	C	-3.978143	-0.584514	-0.282347
C30	C	-3.478143	-0.084514	0.217653
C31	C	-4.035709	-0.714434	-0.281629
C32	C	-3.535709	-0.214434	0.218371
C33	C	-3.858891	-0.151747	-0.447340
C34	C	-3.358891	0.348253	0.052660
C35	C	-3.904640	-0.151041	-0.550723
C36	C	-3.404640	0.348959	-0.050723
C37	C	-4.072081	-0.148459	-0.929289
C38	C	-3.572081	0.351541	-0.429289
C39	C	-4.025485	-0.149177	-0.823960
C40	C	-3.525485	0.350823	-0.323960
C41	C	-3.988362	-0.149751	-0.740009
C42	C	-3.488362	0.350249	-0.240009
C43	C	-3.941763	-0.150467	-0.634674
C44	C	-3.441763	0.349533	-0.134674
C45	C	-4.158857	0.054494	-0.280351
C46	C	-3.658857	0.554494	0.219649
C47	C	-4.081606	0.182013	-0.281057
C48	C	-3.581606	0.682013	0.218943
C49	C	-4.175749	-0.147190	-0.116632
C50	C	-3.675749	0.352810	0.383368
C51	C	-4.109238	-0.147891	-0.013248
C52	C	-3.609238	0.352109	0.486752
