data_functionalizedCrystal
_audit_creation_method	'MofGen! by Chris Wilmer'
_symmetry_space_group_name_H-M	'P1'
_symmetry_Int_Tables_number	1
_symmetry_cell_setting	triclinic
loop_
_symmetry_equiv_pos_as_xyz
  x,y,z
_cell_length_a	10.654546
_cell_length_b	16.974813
_cell_length_c	9.730223
_cell_angle_alpha	86.344112
_cell_angle_beta	89.998853
_cell_angle_gamma	83.938187
loop_
_atom_site_label
_atom_site_type_symbol
_atom_site_fract_x
_atom_site_fract_y
_atom_site_fract_z
O1	O	1.666108	0.111039	-0.126667
O2	O	1.300464	0.121622	-0.127840
O3	O	1.493480	0.001283	-0.114452
O4	O	1.473092	0.231378	-0.140056
O5	O	1.493478	0.001286	0.114128
O6	O	1.300462	0.121625	0.100739
O7	O	1.666106	0.111042	0.101912
Zn8	Zn	1.483284	0.116334	0.137618
Zn9	Zn	1.483287	0.116330	-0.163546
O10	O	1.473090	0.231381	0.088524
C11	C	1.253677	0.120847	-0.013464
C12	C	1.114270	0.118524	-0.013204
C13	C	1.048794	0.117423	-0.137686
C14	C	0.917807	0.115234	-0.137454
C15	C	0.917785	0.115244	0.111755
C16	C	1.048768	0.117439	0.111521
C17	C	1.048806	0.117414	-0.281565
C18	C	0.917819	0.115225	-0.281333
C19	C	1.492704	-0.028178	0.003113
C20	C	1.490378	-0.115967	0.012874
C21	C	1.489290	-0.157208	-0.107139
C22	C	1.487097	-0.239695	-0.097964
C23	C	1.486001	-0.280940	0.031225
C24	C	1.487086	-0.239693	0.151247
C25	C	1.489270	-0.157207	0.142070
C26	C	1.479461	-0.527636	0.072031
C27	C	1.477280	-0.610128	0.081198
C28	C	1.477289	-0.610124	-0.168013
C29	C	1.479481	-0.527637	-0.177178
C30	C	1.480559	-0.486397	-0.057157
N31	N	1.483763	-0.365255	0.040607
N32	N	1.482787	-0.402082	-0.066540
C33	C	1.712893	0.111817	-0.012468
C34	C	1.852300	0.114140	-0.012737
C35	C	1.473867	0.260842	-0.029045
C36	C	1.476192	0.348631	-0.038814
N37	N	1.483291	0.116336	0.343154
N38	N	1.483289	0.116322	-0.369081
C39	C	1.568780	0.063069	0.421006
C40	C	1.568777	0.063059	0.564890
C41	C	1.397791	0.169592	0.553056
C42	C	1.397789	0.169597	0.409175
C43	C	1.667501	0.001565	0.427840
C44	C	1.667497	0.001555	0.571724
H45	H	1.101405	0.061104	-0.319934
Br46	Br	1.088739	0.210460	-0.383997
Br47	Br	1.618115	-0.094158	0.656752
H48	H	1.763798	0.015102	0.609266
H49	H	1.490189	-0.123632	-0.212338
Br50	Br	0.877896	0.022169	-0.363039
Br51	Br	1.137622	0.118955	0.280465
H52	H	1.476382	-0.643707	0.186405
Br53	Br	0.830156	0.209072	-0.366204
H54	H	1.328167	0.212965	0.345789
Br55	Br	1.485578	-0.295666	0.326577
Br56	Br	1.818966	0.033674	0.349870
Br57	Br	1.485618	-0.295661	-0.260846
H58	H	1.480374	-0.494061	-0.282377
H59	H	1.328177	0.212955	0.606826
Br60	Br	1.490740	-0.101236	0.304951
Br61	Br	1.475827	-0.666096	-0.330890
H62	H	1.480363	-0.494070	0.169761
Br63	Br	1.633341	-0.099726	0.374005
H64	H	0.864438	0.114360	0.213302
