data_functionalizedCrystal
_audit_creation_method	'MofGen! by Chris Wilmer'
_symmetry_space_group_name_H-M	'P1'
_symmetry_Int_Tables_number	1
_symmetry_cell_setting	triclinic
loop_
_symmetry_equiv_pos_as_xyz
  x,y,z
_cell_length_a	16.992694
_cell_length_b	10.723024
_cell_length_c	16.053802
_cell_angle_alpha	92.591250
_cell_angle_beta	87.249047
_cell_angle_gamma	87.568046
loop_
_atom_site_label
_atom_site_type_symbol
_atom_site_fract_x
_atom_site_fract_y
_atom_site_fract_z
O1	O	1.045092	0.259813	-0.069321
O2	O	1.545092	0.759813	0.430679
O3	O	0.816792	0.256907	-0.069346
O4	O	1.316792	0.756907	0.430654
O5	O	0.936208	0.077238	-0.069330
O6	O	1.436208	0.577238	0.430670
O7	O	0.925676	0.439483	-0.069337
O8	O	1.425676	0.939483	0.430663
O9	O	0.929634	0.087084	0.069528
O10	O	1.429634	0.587084	0.569528
O11	O	0.810219	0.266753	0.069512
O12	O	1.310219	0.766753	0.569512
O13	O	1.038518	0.269659	0.069537
O14	O	1.538518	0.769659	0.569537
Zn15	Zn	0.923325	0.269769	0.091572
Zn16	Zn	1.423325	0.769769	0.591572
Zn17	Zn	0.931985	0.256797	-0.091380
Zn18	Zn	1.431985	0.756797	0.408620
O19	O	0.919103	0.449329	0.069521
O20	O	1.419103	0.949329	0.569521
C21	C	0.784273	0.258094	0.000080
C22	C	1.284273	0.758094	0.500080
C23	C	0.697169	0.246945	0.000071
C24	C	1.197169	0.746945	0.500071
C25	C	0.647507	0.354505	0.000069
C26	C	1.147507	0.854505	0.500069
C27	C	0.565664	0.344024	0.000081
C28	C	1.065664	0.844024	0.500081
C29	C	0.533484	0.225982	0.000088
C30	C	1.033484	0.725982	0.500088
C31	C	0.583152	0.118414	0.000092
C32	C	1.083152	0.618414	0.500092
C33	C	0.664994	0.128896	0.000087
C34	C	1.164994	0.628896	0.500087
C35	C	0.289651	0.182535	0.000112
C36	C	0.789651	0.682535	0.500112
C37	C	0.207803	0.172060	0.000115
C38	C	0.707803	0.672060	0.500115
C39	C	0.190321	0.397672	0.000105
C40	C	0.690321	0.897672	0.500105
C41	C	0.272165	0.408144	0.000094
C42	C	0.772165	0.908144	0.500094
C43	C	0.321826	0.300577	0.000103
C44	C	0.821826	0.800577	0.500103
N45	N	0.449827	0.215265	0.000098
N46	N	0.949827	0.715265	0.500098
N47	N	0.405481	0.311294	0.000099
N48	N	0.905481	0.811294	0.500099
C49	C	0.932155	0.035595	0.000098
C50	C	1.432155	0.535595	0.500098
C51	C	0.929862	-0.103157	0.000095
C52	C	1.429862	0.396843	0.500095
C53	C	0.996681	-0.172386	0.000101
C54	C	1.496681	0.327614	0.500101
C55	C	0.994312	-0.315793	0.000098
C56	C	1.494312	0.184207	0.500098
C57	C	1.071038	0.268472	0.000109
C58	C	1.571038	0.768472	0.500109
C59	C	1.158141	0.279620	0.000113
C60	C	1.658141	0.779620	0.500113
C61	C	0.923156	0.490971	0.000091
C62	C	1.423156	0.990971	0.500091
C63	C	0.925449	0.629723	0.000089
C64	C	1.425449	1.129723	0.500089
N65	N	0.917420	0.278623	0.216431
N66	N	1.417420	0.778623	0.716431
N67	N	0.937896	0.247934	-0.216239
N68	N	1.437896	0.747934	0.283761
C69	C	0.968250	0.202204	0.260132
C70	C	1.468250	0.702204	0.760132
C71	C	0.964127	0.208409	0.347538
C72	C	1.464127	0.708409	0.847538
C73	C	0.909177	0.291041	0.391242
C74	C	1.409177	0.791041	0.891242
C75	C	0.858341	0.367463	0.347535
C76	C	1.358341	0.867463	0.847535
C77	C	0.862461	0.361250	0.260130
C78	C	1.362461	0.861250	0.760130
C79	C	0.891180	0.318143	0.652649
C80	C	1.391180	0.818143	1.152649
C81	C	0.887066	0.324353	0.740060
C82	C	1.387066	0.824353	1.240060
C83	C	0.992852	0.165297	0.740057
C84	C	1.492852	0.665297	1.240057
C85	C	0.996970	0.159097	0.652650
C86	C	1.496970	0.659097	1.152650
C87	C	0.946131	0.235514	0.608951
C88	C	1.446131	0.735514	1.108951
N89	N	0.904963	0.297389	0.480585
N90	N	1.404963	0.797389	0.980585
N91	N	0.950342	0.229159	0.519610
N92	N	1.450342	0.729159	1.019610
H93	H	0.673701	0.450628	0.000063
H94	H	1.173701	0.950628	0.500063
H95	H	0.149878	0.485247	0.000100
H96	H	0.649878	0.985247	0.500100
H97	H	0.813595	0.434739	0.383124
H98	H	1.313595	0.934739	0.883124
H99	H	1.051514	-0.375300	0.000107
H100	H	1.551514	0.124700	0.500107
H101	H	0.556944	0.022301	0.000110
H102	H	1.056944	0.522301	0.500110
H103	H	0.842316	0.391646	0.775640
H104	H	1.342316	0.891646	1.275640
C105	C	0.511038	0.462351	0.000094
C106	C	1.011038	0.962351	0.500094
N107	N	0.469894	0.551481	0.000110
N108	N	0.969894	1.051481	0.500110
C109	C	0.806550	0.445327	0.212060
C110	C	1.306550	0.945327	0.712060
N111	N	0.764436	0.508658	0.175855
N112	N	1.264436	1.008658	0.675855
H113	H	1.041715	0.091812	0.617068
H114	H	1.541715	0.591812	1.117068
C115	C	0.172408	0.042199	0.000122
C116	C	0.672408	0.542199	0.500122
N117	N	0.145748	-0.055608	0.000125
N118	N	0.645748	0.444392	0.500125
C119	C	0.344268	0.064205	0.000115
C120	C	0.844268	0.564205	0.500115
N121	N	0.385409	-0.024927	0.000117
N122	N	0.885409	0.475073	0.500117
H123	H	0.868243	-0.310778	0.000090
H124	H	1.368243	0.189222	0.500090
H125	H	0.705428	0.041309	0.000087
H126	H	1.205428	0.541309	0.500087
H127	H	0.298360	0.504266	0.000079
H128	H	0.798360	1.004266	0.500079
C129	C	0.850207	-0.166509	0.000088
C130	C	1.350207	0.333491	0.500088
N131	N	0.790208	-0.214225	0.000085
N132	N	1.290208	0.285775	0.500085
C133	C	1.028700	0.111301	0.212066
C134	C	1.528700	0.611301	0.712066
N135	N	1.074230	0.042827	0.175864
N136	N	1.574230	0.542827	0.675864
C137	C	1.048764	0.081234	0.788133
C138	C	1.548764	0.581234	1.288133
N139	N	1.090876	0.017909	0.824344
N140	N	1.590876	0.517909	1.324344
H141	H	1.055640	-0.125486	0.000113
H142	H	1.555640	0.374514	0.500113
C143	C	0.835358	0.402377	0.604591
C144	C	1.335358	0.902377	1.104591
N145	N	0.793347	0.465888	0.568391
N146	N	1.293347	0.965888	1.068391
C147	C	1.020026	0.124310	0.395605
C148	C	1.520026	0.624310	0.895605
N149	N	1.062125	0.060950	0.431808
N150	N	1.562125	0.560950	0.931808
