data_functionalizedCrystal
_audit_creation_method	'MofGen! by Chris Wilmer'
_symmetry_space_group_name_H-M	'P1'
_symmetry_Int_Tables_number	1
_symmetry_cell_setting	triclinic
loop_
_symmetry_equiv_pos_as_xyz
  x,y,z
_cell_length_a	8.597340
_cell_length_b	15.995350
_cell_length_c	7.681215
_cell_angle_alpha	96.425396
_cell_angle_beta	88.678259
_cell_angle_gamma	84.418396
loop_
_atom_site_label
_atom_site_type_symbol
_atom_site_fract_x
_atom_site_fract_y
_atom_site_fract_z
O1	O	2.067271	0.116778	-0.167229
O2	O	1.616533	0.129716	-0.098839
O3	O	1.854223	0.001370	-0.134905
O4	O	1.829581	0.245124	-0.131163
O5	O	1.828066	-0.012788	-0.423807
O6	O	1.590376	0.115558	-0.387740
O7	O	2.041114	0.102620	-0.456131
Zn8	Zn	1.811592	0.106841	-0.467805
Zn9	Zn	1.846055	0.125494	-0.087165
O10	O	1.803424	0.230966	-0.420064
C11	C	1.545776	0.122036	-0.234538
C12	C	1.373911	0.120236	-0.208461
C13	C	1.840126	-0.036905	-0.279198
C14	C	1.837073	-0.129857	-0.278725
C15	C	1.826104	-0.467614	-0.277066
C16	C	1.656884	-0.420295	-0.250734
C17	C	1.659880	-0.323634	-0.251848
C18	C	1.831545	-0.300049	-0.277888
C19	C	1.900102	-0.349139	-0.455530
C20	C	1.895837	-0.445785	-0.455023
C21	C	1.929080	-0.430040	-0.127019
C22	C	1.929237	-0.332988	-0.124833
C23	C	1.834628	-0.205349	-0.278360
C24	C	1.823024	-0.562315	-0.276607
C25	C	2.111872	0.110300	-0.320428
C26	C	2.283737	0.112101	-0.346494
C27	C	1.817521	0.269241	-0.275768
C28	C	1.820576	0.362194	-0.276230
N29	N	1.788083	0.094111	-0.727583
N30	N	1.869576	0.138219	0.172612
H31	H	1.319625	0.125824	-0.070319
O32	O	1.348687	0.105325	-0.511211
C33	C	1.532137	0.025779	-0.724149
C34	C	1.458724	0.033363	-0.537548
H35	H	1.621092	-0.032409	-0.745515
H36	H	1.592995	0.084695	-0.741286
H37	H	1.436574	0.019407	-0.823843
H38	H	1.554192	0.039708	-0.437740
H39	H	1.397828	-0.025556	-0.520559
O40	O	1.968672	0.192041	-0.752867
C41	C	2.034235	0.335737	-0.705967
C42	C	1.921919	0.274875	-0.790487
H43	H	1.996457	0.402724	-0.736321
H44	H	2.158164	0.315515	-0.760927
H45	H	2.031174	0.334031	-0.557959
H46	H	1.924843	0.276551	-0.938498
H47	H	1.798042	0.295118	-0.735389
H48	H	1.604955	-0.289473	-0.123631
H49	H	1.599936	-0.433087	-0.122162
H50	H	1.578873	-0.445712	-0.358160
H51	H	1.583081	-0.301631	-0.360285
H52	H	1.830996	-0.326824	-0.569504
O53	O	1.809771	-0.474750	-0.591150
C54	C	1.658259	-0.439832	-0.837774
C55	C	1.755668	-0.406919	-0.683654
H56	H	1.614516	-0.385010	-0.912629
H57	H	1.554138	-0.469638	-0.785416
H58	H	1.734113	-0.489234	-0.929453
H59	H	1.679943	-0.357488	-0.591917
H60	H	1.859798	-0.377165	-0.736136
O61	O	2.043372	-0.484443	-0.486560
C62	C	2.314389	-0.467051	-0.543893
C63	C	2.147386	-0.423170	-0.508223
H64	H	2.398536	-0.417530	-0.561381
H65	H	2.317523	-0.513483	-0.668159
H66	H	2.350756	-0.502628	-0.428409
H67	H	2.110914	-0.387546	-0.623601
H68	H	2.144344	-0.376785	-0.383895
O69	O	2.049833	-0.332495	-0.485996
C70	C	2.229372	-0.276918	-0.678137
C71	C	2.059752	-0.295741	-0.643873
H72	H	2.237440	-0.247183	-0.805759
H73	H	2.310154	-0.338294	-0.688649
H74	H	2.266078	-0.231286	-0.565279
H75	H	2.022900	-0.341347	-0.756684
H76	H	1.979071	-0.234329	-0.633291
O77	O	1.869809	-0.293217	0.031744
C78	C	1.808938	-0.160369	0.212485
C79	C	1.876318	-0.205312	0.035113
H80	H	1.814147	-0.089290	0.215253
H81	H	1.880445	-0.184524	0.323041
H82	H	1.682222	-0.174026	0.230427
H83	H	2.003020	-0.191675	0.017001
H84	H	1.804696	-0.181152	-0.075352
O85	O	2.079677	-0.313944	-0.135229
C86	C	2.333363	-0.323007	-0.007686
C87	C	2.163038	-0.344638	0.004297
H88	H	2.400818	-0.347829	0.105084
H89	H	2.335084	-0.251496	0.000608
H90	H	2.390309	-0.353735	-0.137718
H91	H	2.105988	-0.313966	0.134311
H92	H	2.161425	-0.416158	-0.004098
O93	O	2.078009	-0.467866	-0.148161
C94	C	2.246264	-0.598340	-0.165885
C95	C	2.077544	-0.555602	-0.141867
H96	H	2.245941	-0.669283	-0.160842
H97	H	2.320314	-0.570853	-0.056606
H98	H	2.297438	-0.586522	-0.298127
H99	H	2.026231	-0.567404	-0.009687
H100	H	2.003604	-0.583094	-0.251245
H101	H	1.885055	-0.444500	0.006419
H102	H	1.704941	0.049091	-0.790206
