data_functionalizedCrystal
_audit_creation_method	'MofGen! by Chris Wilmer'
_symmetry_space_group_name_H-M	'P1'
_symmetry_Int_Tables_number	1
_symmetry_cell_setting	triclinic
loop_
_symmetry_equiv_pos_as_xyz
  x,y,z
_cell_length_a	18.215407
_cell_length_b	12.827892
_cell_length_c	18.215399
_cell_angle_alpha	90.024028
_cell_angle_beta	90.017368
_cell_angle_gamma	90.012835
loop_
_atom_site_label
_atom_site_type_symbol
_atom_site_fract_x
_atom_site_fract_y
_atom_site_fract_z
Zn1	Zn	1.125120	-0.416115	0.416088
Zn2	Zn	1.125049	-0.590874	0.293030
Zn3	Zn	1.002053	-0.416140	0.293040
Zn4	Zn	1.002039	-0.590807	0.416060
O5	O	1.063566	-0.503484	0.354554
O6	O	1.228095	-0.439315	0.399771
O7	O	1.108710	-0.567734	0.190047
O8	O	1.018414	-0.269901	0.309379
O9	O	1.228043	-0.567710	0.309361
O10	O	1.108831	-0.269882	0.399781
O11	O	1.018345	-0.439358	0.190054
O12	O	0.899067	-0.439292	0.309352
O13	O	1.018390	-0.567595	0.519048
O14	O	0.899057	-0.567619	0.399734
O15	O	1.108818	-0.439250	0.519068
O16	O	1.108696	-0.737101	0.309334
O17	O	1.018321	-0.737052	0.399724
C18	C	0.872359	-0.503452	0.354541
C19	C	0.790560	-0.503463	0.354553
C20	C	0.602393	-0.436746	0.401704
C21	C	0.525534	-0.436755	0.401707
C22	C	0.525490	-0.570252	0.307417
C23	C	0.602348	-0.570237	0.307412
C24	C	0.640797	-0.503485	0.354559
C25	C	0.487081	-0.503509	0.354567
C26	C	0.403747	-0.503519	0.354570
C27	C	0.724136	-0.503473	0.354556
C28	C	1.063519	-0.774994	0.354541
C29	C	1.063567	-0.891147	0.354559
C30	C	1.108288	-0.942839	0.399334
C31	C	1.108339	-1.062890	0.399354
C32	C	1.255518	-0.503517	0.354568
C33	C	1.337317	-0.503531	0.354573
C34	C	1.063610	-0.503412	0.546507
C35	C	1.063629	-0.503381	0.628306
C36	C	1.063632	-0.230914	0.354584
C37	C	1.063660	-0.114761	0.354597
C38	C	1.063563	-0.503480	0.163348
C39	C	1.063687	-0.503217	0.081550
C40	C	1.110732	-0.436489	0.816512
C41	C	1.110741	-0.436459	0.893371
C42	C	1.016579	-0.570112	0.893338
C43	C	1.016567	-0.570136	0.816481
C44	C	1.063648	-0.503327	0.778070
C45	C	1.063668	-0.503272	0.931786
C46	C	1.063678	-0.503239	1.015120
C47	C	1.063638	-0.503357	0.694731
H48	H	1.146537	-0.898221	0.437655
H49	H	0.978249	-0.624508	0.924622
H50	H	0.494269	-0.382407	0.440096
H51	H	1.025373	-1.070314	0.316259
H52	H	0.633617	-0.624585	0.269017
H53	H	0.978220	-0.624562	0.785180
H54	H	1.146629	-1.107344	0.437684
H55	H	1.025313	-0.935768	0.316245
H56	H	1.149080	-0.382032	0.924667
H57	H	0.633696	-0.382389	0.440093
O58	O	1.156380	-0.371435	0.779233
C59	C	1.192162	-0.193687	0.755788
C60	C	1.140409	-0.267247	0.798035
H61	H	1.179278	-0.109437	0.770985
H62	H	1.184067	-0.205090	0.694243
H63	H	1.251497	-0.212090	0.770899
H64	H	1.081054	-0.248889	0.782985
H65	H	1.148567	-0.255830	0.859570
O66	O	0.488026	-0.635063	0.261694
C67	C	0.369604	-0.694211	0.219886
C68	C	0.411938	-0.620773	0.271715
H69	H	0.308080	-0.682668	0.227959
H70	H	0.384662	-0.778518	0.232710
H71	H	0.384737	-0.675764	0.160572
H72	H	0.396828	-0.639126	0.331046
H73	H	0.396877	-0.536488	0.258827
