data_functionalizedCrystal
_audit_creation_method	'MofGen! by Chris Wilmer'
_symmetry_space_group_name_H-M	'P1'
_symmetry_Int_Tables_number	1
_symmetry_cell_setting	triclinic
loop_
_symmetry_equiv_pos_as_xyz
  x,y,z
_cell_length_a	14.908795
_cell_length_b	14.909042
_cell_length_c	17.077395
_cell_angle_alpha	93.320244
_cell_angle_beta	93.316031
_cell_angle_gamma	89.820018
loop_
_atom_site_label
_atom_site_type_symbol
_atom_site_fract_x
_atom_site_fract_y
_atom_site_fract_z
Zn1	Zn	1.395314	-0.278772	0.500029
Zn2	Zn	1.895314	0.221228	1.000029
Zn3	Zn	1.403910	-0.429142	0.361656
Zn4	Zn	1.903910	0.070858	0.861656
Zn5	Zn	1.244959	-0.287463	0.360780
Zn6	Zn	1.744959	0.212537	0.860780
Zn7	Zn	1.253600	-0.437751	0.484890
Zn8	Zn	1.753600	0.062249	0.984890
O9	O	1.324446	-0.358282	0.426839
O10	O	1.824446	0.141718	0.926839
O11	O	1.522284	-0.291479	0.488375
O12	O	2.022284	0.208521	0.988375
O13	O	1.382806	-0.410382	0.251690
O14	O	1.882806	0.089618	0.751690
O15	O	1.257690	-0.160483	0.385221
O16	O	1.757690	0.339517	0.885221
O17	O	1.528599	-0.401955	0.386714
O18	O	2.028599	0.098045	0.886714
O19	O	1.368155	-0.154099	0.487526
O20	O	1.868155	0.345901	0.987526
O21	O	1.266025	-0.306291	0.251047
O22	O	1.766025	0.193709	0.751047
O23	O	1.120276	-0.314639	0.370542
O24	O	1.620276	0.185361	0.870542
O25	O	1.272417	-0.416628	0.596748
O26	O	1.772417	0.083372	1.096748
O27	O	1.126624	-0.425055	0.461724
O28	O	1.626624	0.074945	0.961724
O29	O	1.376534	-0.299827	0.607870
O30	O	1.876534	0.200173	1.107870
O31	O	1.391185	-0.556110	0.372034
O32	O	1.891185	-0.056110	0.872034
O33	O	1.280752	-0.562435	0.462573
O34	O	1.780752	-0.062435	0.962573
C35	C	1.090824	-0.371725	0.414396
C36	C	1.590824	0.128275	0.914396
C37	C	0.990881	-0.377497	0.409090
C38	C	1.490881	0.122503	0.909090
C39	C	0.853299	-0.443056	0.348609
C40	C	1.353299	0.056944	0.848609
C41	C	0.947205	-0.437636	0.353594
C42	C	1.447205	0.062364	0.853594
C43	C	0.940643	-0.322773	0.459604
C44	C	1.440643	0.177227	0.959604
C45	C	0.846738	-0.328193	0.454619
C46	C	1.346738	0.171807	0.954619
C47	C	0.803069	-0.388337	0.399121
C48	C	1.303069	0.111663	0.899121
C49	C	0.709162	-0.393762	0.394140
C50	C	1.209162	0.106238	0.894140
C51	C	0.702602	-0.278894	0.500146
C52	C	1.202602	0.221106	1.000146
C53	C	0.796507	-0.273474	0.505131
C54	C	1.296507	0.226526	1.005131
C55	C	1.337863	-0.591897	0.415774
C56	C	1.837863	-0.091897	0.915774
C57	C	1.343686	-0.691834	0.411071
C58	C	1.843686	-0.191834	0.911071
C59	C	1.239523	-0.886282	0.496420
C60	C	1.739523	-0.386282	0.996420
C61	C	1.244991	-0.980182	0.492004
C62	C	1.744991	-0.480182	0.992004
C63	C	1.360084	-0.973534	0.397819
C64	C	1.860084	-0.473534	0.897819
C65	C	1.354616	-0.879635	0.402235
C66	C	1.854616	-0.379635	0.902235
C67	C	1.294335	-0.836012	0.451538
C68	C	1.794335	-0.336012	0.951538
C69	C	1.288872	-0.742111	0.455958
C70	C	1.788872	-0.242111	0.955958
C71	C	1.403960	-0.735465	0.361770
C72	C	1.903960	-0.235465	0.861770
C73	C	1.409428	-0.829364	0.357354
C74	C	1.909428	-0.329364	0.857354
C75	C	1.558980	-0.344787	0.439331
C76	C	2.058980	0.155213	0.939331
C77	C	1.658924	-0.339037	0.444654
C78	C	2.158924	0.160963	0.944654
C79	C	1.324481	-0.358219	0.631588
C80	C	1.824481	0.141781	1.131588
C81	C	1.324496	-0.358192	0.718840
C82	C	1.824496	0.141808	1.218840
C83	C	1.311000	-0.123753	0.437965
C84	C	1.811000	0.376247	0.937965
C85	C	1.305270	-0.023811	0.442706
C86	C	1.805270	0.476189	0.942706
C87	C	1.324459	-0.358277	0.222892
C88	C	1.824459	0.141723	0.722892
C89	C	1.324603	-0.358041	0.135661
C90	C	1.824603	0.141959	0.635661
C91	C	1.378802	-0.297246	1.100458
C92	C	1.878802	0.202754	1.600458
C93	C	1.378786	-0.297278	1.018475
C94	C	1.878786	0.202722	1.518475
C95	C	1.324565	-0.358102	0.971697
C96	C	1.824565	0.141898	1.471697
C97	C	1.270364	-0.418904	1.006905
C98	C	1.770364	0.081096	1.506905
C99	C	1.270386	-0.418875	1.088887
C100	C	1.770386	0.081125	1.588887
C101	C	1.270321	-0.418959	0.836030
C102	C	1.770321	0.081041	1.336030
C103	C	1.270297	-0.418987	0.754043
C104	C	1.770297	0.081013	1.254043
C105	C	1.378720	-0.297362	0.765619
C106	C	1.878720	0.202638	1.265619
C107	C	1.378742	-0.297333	0.847600
C108	C	1.878742	0.202667	1.347600
C109	C	1.324540	-0.358134	0.882803
C110	C	1.824540	0.141866	1.382803
H111	H	0.661694	-0.234339	0.541278
H112	H	1.161694	0.265661	1.041278
F113	F	1.212633	-0.483671	0.873494
F114	F	1.712633	0.016329	1.373494
H115	H	1.190446	-0.850764	0.536570
H116	H	1.690446	-0.350764	1.036570
H117	H	1.448594	-0.694524	0.325226
H118	H	1.948594	-0.194524	0.825226
H119	H	0.832075	-0.224504	0.550314
H120	H	1.332075	0.275496	1.050314
F121	F	0.662688	-0.457776	0.335079
F122	F	1.162688	0.042224	0.835079
H123	H	1.422949	-0.247710	1.138540
H124	H	1.922949	0.252290	1.638540
F125	F	0.987134	-0.258764	0.518661
F126	F	1.487134	0.241236	1.018661
F127	F	1.436472	-0.232572	0.981014
F128	F	1.936472	0.267428	1.481014
H129	H	1.226221	-0.468432	0.968812
H130	H	1.726221	0.031568	1.468812
H131	H	1.226253	-0.468382	1.117548
H132	H	1.726253	0.031618	1.617548
F133	F	1.436461	-0.232607	0.897384
F134	F	1.936461	0.267393	1.397384
F135	F	1.212594	-0.483726	0.704259
F136	F	1.712594	0.016274	1.204259
H137	H	0.817744	-0.492035	0.303426
H138	H	1.317744	0.007965	0.803426
F139	F	1.000661	-0.495873	0.299830
F140	F	1.500661	0.004127	0.799830
H141	H	1.239790	-0.706594	0.496105
H142	H	1.739790	-0.206594	0.996105
H143	H	1.409154	-1.009069	0.357672
H144	H	1.909154	-0.509069	0.857672
F145	F	1.186651	-1.033681	0.539772
F146	F	1.686651	-0.533681	1.039772
H147	H	1.458505	-0.864895	0.317210
H148	H	1.958505	-0.364895	0.817210
H149	H	1.422852	-0.247854	0.736953
H150	H	1.922852	0.252146	1.236953
