data_functionalizedCrystal
_audit_creation_method	'MofGen! by Chris Wilmer'
_symmetry_space_group_name_H-M	'P1'
_symmetry_Int_Tables_number	1
_symmetry_cell_setting	triclinic
loop_
_symmetry_equiv_pos_as_xyz
  x,y,z
_cell_length_a	9.065218
_cell_length_b	14.044220
_cell_length_c	7.540329
_cell_angle_alpha	89.995368
_cell_angle_beta	89.996962
_cell_angle_gamma	89.102381
loop_
_atom_site_label
_atom_site_type_symbol
_atom_site_fract_x
_atom_site_fract_y
_atom_site_fract_z
O1	O	1.975818	0.139141	-0.147493
O2	O	2.309152	0.472474	0.185840
O3	O	2.642485	0.805808	0.519174
O4	O	1.547798	0.150554	-0.147496
O5	O	1.881132	0.483887	0.185837
O6	O	2.214465	0.817221	0.519171
O7	O	1.755384	0.006808	-0.147477
O8	O	2.088717	0.340141	0.185856
O9	O	2.422050	0.673474	0.519190
O10	O	1.768233	0.282887	-0.147512
O11	O	2.101566	0.616221	0.185821
O12	O	2.434900	0.949554	0.519155
O13	O	1.755370	0.006806	0.147488
O14	O	2.088703	0.340139	0.480821
O15	O	2.422037	0.673472	0.814155
O16	O	1.547785	0.150552	0.147469
O17	O	1.881118	0.483885	0.480802
O18	O	2.214451	0.817219	0.814136
O19	O	1.975805	0.139139	0.147472
O20	O	2.309138	0.472472	0.480805
O21	O	2.642471	0.805806	0.814139
Cu22	Cu	1.761793	0.144845	0.174403
Cu23	Cu	2.095127	0.478179	0.507737
Cu24	Cu	2.428460	0.811512	0.841070
Cu25	Cu	1.761810	0.144848	-0.174427
Cu26	Cu	2.095143	0.478181	0.158906
Cu27	Cu	2.428476	0.811514	0.492239
O28	O	1.768219	0.282885	0.147453
O29	O	2.101552	0.616219	0.480786
O30	O	2.434886	0.949552	0.814120
C31	C	1.492683	0.149456	-0.000014
C32	C	1.826017	0.482789	0.333320
C33	C	2.159350	0.816123	0.666653
C34	C	1.328477	0.146176	-0.000014
C35	C	1.661810	0.479510	0.333319
C36	C	1.995144	0.812843	0.666652
C37	C	1.749752	-0.028556	0.000006
C38	C	2.083086	0.304777	0.333340
C39	C	2.416419	0.638111	0.666673
C40	C	1.732975	-0.133926	0.000008
C41	C	2.066309	0.199408	0.333342
C42	C	2.399642	0.532741	0.666675
C43	C	1.702304	-0.326850	-0.000017
C44	C	2.035637	0.006483	0.333316
C45	C	2.368970	0.339816	0.666649
C46	C	1.821293	-0.383462	-0.000022
C47	C	2.154626	-0.050129	0.333311
C48	C	2.487959	0.283205	0.666645
C49	C	1.804226	-0.490812	-0.000036
C50	C	2.137560	-0.157479	0.333297
C51	C	2.470893	0.175855	0.666630
C52	C	1.719368	-0.219491	-0.000003
C53	C	2.052701	0.113843	0.333330
C54	C	2.386034	0.447176	0.666663
C55	C	2.030920	0.140237	-0.000014
C56	C	2.364253	0.473570	0.333319
C57	C	2.697586	0.806904	0.666652
C58	C	2.195126	0.143517	-0.000025
C59	C	2.528459	0.476850	0.333308
C60	C	2.861793	0.810183	0.666641
C61	C	1.773850	0.318249	-0.000034
C62	C	2.107184	0.651582	0.333299
C63	C	2.440517	0.984916	0.666633
C64	C	1.790627	0.423619	-0.000048
C65	C	2.123961	0.756952	0.333286
C66	C	2.457294	1.090285	0.666619
N67	N	1.761793	0.144843	0.419752
N68	N	2.095126	0.478177	0.753085
N69	N	2.428459	0.811510	1.086418
N70	N	1.761821	0.144842	-0.419776
N71	N	2.095154	0.478176	-0.086442
N72	N	2.428488	0.811509	0.246891
H73	H	1.935980	-0.351306	-0.000140
H74	H	2.269313	-0.017973	0.333193
H75	H	2.602646	0.315360	0.666526
Cl76	Cl	1.525246	-0.376494	-0.000027
Cl77	Cl	1.858579	-0.043160	0.333306
Cl78	Cl	2.191912	0.290173	0.666639
