data_functionalizedCrystal
_audit_creation_method	'MofGen! by Chris Wilmer'
_symmetry_space_group_name_H-M	'P1'
_symmetry_Int_Tables_number	1
_symmetry_cell_setting	triclinic
loop_
_symmetry_equiv_pos_as_xyz
  x,y,z
_cell_length_a	12.827893
_cell_length_b	12.594510
_cell_length_c	12.827892
_cell_angle_alpha	90.034053
_cell_angle_beta	89.984447
_cell_angle_gamma	89.981177
loop_
_atom_site_label
_atom_site_type_symbol
_atom_site_fract_x
_atom_site_fract_y
_atom_site_fract_z
Zn1	Zn	1.597665	-0.601797	0.415934
Zn2	Zn	2.097665	-0.101797	0.915934
Zn3	Zn	1.597560	-0.423819	0.590724
Zn4	Zn	2.097560	0.076181	1.090724
Zn5	Zn	1.422908	-0.423833	0.415998
Zn6	Zn	1.922908	0.076167	0.915998
Zn7	Zn	1.422892	-0.601757	0.590634
Zn8	Zn	1.922892	-0.101757	1.090634
O9	O	1.510256	-0.512802	0.503323
O10	O	2.010256	-0.012802	1.003323
O11	O	1.743887	-0.578199	0.439131
O12	O	2.243887	-0.078199	0.939131
O13	O	1.574355	-0.274875	0.567611
O14	O	2.074355	0.225125	1.067611
O15	O	1.446140	-0.447463	0.269754
O16	O	1.946140	0.052537	0.769754
O17	O	1.743810	-0.447440	0.567549
O18	O	2.243810	0.052560	1.067549
O19	O	1.574534	-0.578212	0.269706
O20	O	2.074534	-0.078212	0.769706
O21	O	1.446039	-0.274885	0.439241
O22	O	1.946039	0.225115	0.939241
O23	O	1.276670	-0.447424	0.439153
O24	O	1.776670	0.052576	0.939153
O25	O	1.446113	-0.750708	0.567395
O26	O	1.946113	-0.250708	1.067395
O27	O	1.276658	-0.578143	0.567458
O28	O	1.776658	-0.078143	1.067458
O29	O	1.574518	-0.750738	0.439044
O30	O	2.074518	-0.250738	0.939044
O31	O	1.574340	-0.447401	0.736948
O32	O	2.074340	0.052599	1.236948
O33	O	1.446011	-0.578130	0.736882
O34	O	1.946011	-0.078130	1.236882
C35	C	1.238746	-0.512781	0.503303
C36	C	1.738746	-0.012781	1.003303
C37	C	1.122593	-0.512798	0.503320
C38	C	1.622593	-0.012798	1.003320
C39	C	0.950726	-0.448027	0.566784
C40	C	1.450726	0.051973	1.066784
C41	C	1.070777	-0.448008	0.566768
C42	C	1.570777	0.051992	1.066768
C43	C	1.510325	-0.790423	0.503202
C44	C	2.010325	-0.290423	1.003202
C45	C	1.510355	-0.908728	0.503151
C46	C	2.010355	-0.408728	1.003151
C47	C	1.580215	-0.977998	0.433335
C48	C	2.080215	-0.477998	0.933335
C49	C	1.484905	-1.048792	0.407757
C50	C	1.984905	-0.548792	0.907757
C51	C	1.605721	-1.048733	0.528656
C52	C	2.105721	-0.548733	1.028656
C53	C	1.414994	-0.977965	0.477523
C54	C	1.914994	-0.477965	0.977523
C55	C	1.535874	-0.977899	0.598467
C56	C	2.035874	-0.477899	1.098467
C57	C	1.440498	-1.048662	0.572924
C58	C	1.940498	-0.548662	1.072924
C59	C	1.782826	-0.512823	0.503343
C60	C	2.282826	-0.012823	1.003343
C61	C	1.898979	-0.512831	0.503351
C62	C	2.398979	-0.012831	1.003351
C63	C	1.510191	-0.512783	0.774833
C64	C	2.010191	-0.012783	1.274833
C65	C	1.510259	-0.512810	0.890986
C66	C	2.010259	-0.012810	1.390986
C67	C	1.510248	-0.236261	0.503367
C68	C	2.010248	0.263739	1.003367
C69	C	1.510421	-0.117956	0.503125
C70	C	2.010421	0.382044	1.003125
C71	C	1.510350	-0.512844	0.230753
C72	C	2.010350	-0.012844	0.730753
C73	C	1.510390	-0.512862	0.114599
C74	C	2.010390	-0.012862	0.614599
C75	C	1.573835	-0.448193	0.942769
C76	C	2.073835	0.051807	1.442769
C77	C	1.573906	-0.448220	1.062819
C78	C	2.073906	0.051780	1.562819
H79	H	1.639190	-0.946966	0.374260
H80	H	2.139190	-0.446966	0.874260
O81	O	0.958006	-0.586308	0.431388
O82	O	1.458006	-0.086308	0.931388
H83	H	1.007749	-0.640333	0.478254
H84	H	1.507749	-0.140333	0.978254
O85	O	1.646013	-0.374931	1.121788
O86	O	2.146013	0.125069	1.621788
H87	H	1.728023	-0.393237	1.100800
H88	H	2.228023	0.106763	1.600800
H89	H	1.334348	-0.947009	0.455846
H90	H	1.834348	-0.447009	0.955846
O91	O	1.564482	-0.936609	0.705218
O92	O	2.064482	-0.436609	1.205218
H93	H	1.507304	-0.966152	0.763311
H94	H	2.007304	-0.466152	1.263311
H95	H	1.628217	-0.392855	0.898228
H96	H	2.128217	0.107145	1.398228
O97	O	1.129715	-0.374511	0.638708
O98	O	1.629715	0.125489	1.138708
H99	H	1.108782	-0.290992	0.620717
H100	H	1.608782	0.209008	1.120717
H101	H	1.686342	-1.079822	0.550238
H102	H	2.186342	-0.579822	1.050238
H103	H	0.906152	-0.392554	0.621098
H104	H	1.406152	0.107446	1.121098
O105	O	1.438275	-0.586149	1.055638
O106	O	1.938275	-0.086149	1.555638
H107	H	1.485027	-0.640296	1.005831
H108	H	1.985027	-0.140296	1.505831
O109	O	1.063657	-0.586291	0.431374
O110	O	1.563657	-0.086291	0.931374
H111	H	1.084574	-0.669814	0.449368
H112	H	1.584574	-0.169814	0.949368
O113	O	1.456336	-1.090054	0.300977
O114	O	1.956336	-0.590054	0.800977
H115	H	1.514410	-1.061763	0.243171
H116	H	2.014410	-0.561763	0.743171
O117	O	1.362198	-1.089521	0.651116
O118	O	1.862198	-0.589521	1.151116
H119	H	1.283176	-1.061026	0.629686
H120	H	1.783176	-0.561026	1.129686
O121	O	1.438224	-0.586114	0.949985
O122	O	1.938224	-0.086114	1.449985
H123	H	1.456071	-0.669683	0.929024
H124	H	1.956071	-0.169683	1.429024
