data_functionalizedCrystal
_audit_creation_method	'MofGen! by Chris Wilmer'
_symmetry_space_group_name_H-M	'P1'
_symmetry_Int_Tables_number	1
_symmetry_cell_setting	triclinic
loop_
_symmetry_equiv_pos_as_xyz
  x,y,z
_cell_length_a	19.805407
_cell_length_b	12.759400
_cell_length_c	19.805399
_cell_angle_alpha	89.977448
_cell_angle_beta	89.982197
_cell_angle_gamma	90.011961
loop_
_atom_site_label
_atom_site_type_symbol
_atom_site_fract_x
_atom_site_fract_y
_atom_site_fract_z
Zn1	Zn	1.034791	-0.418366	-0.382711
Zn2	Zn	1.034729	-0.594059	-0.269533
Zn3	Zn	0.921606	-0.418387	-0.269539
Zn4	Zn	0.921592	-0.593995	-0.382683
O5	O	0.978180	-0.506202	-0.326117
O6	O	1.129499	-0.441690	-0.367707
O7	O	1.019703	-0.570791	-0.174817
O8	O	0.936651	-0.271363	-0.284566
O9	O	1.129454	-0.570771	-0.284555
O10	O	1.019808	-0.271348	-0.367713
O11	O	0.936591	-0.441725	-0.174822
O12	O	0.826887	-0.441663	-0.284539
O13	O	0.936629	-0.570662	-0.477404
O14	O	0.826878	-0.570682	-0.367665
O15	O	1.019795	-0.441628	-0.477424
O16	O	1.019690	-0.741072	-0.284528
O17	O	0.936569	-0.741025	-0.367659
C18	C	0.802324	-0.506169	-0.326100
C19	C	0.727092	-0.506180	-0.326109
C20	C	0.691772	-0.439086	-0.369472
C21	C	0.621083	-0.439092	-0.369475
C22	C	0.585716	-0.506197	-0.326117
C23	C	0.621041	-0.573294	-0.282750
C24	C	0.691728	-0.573282	-0.282744
C25	C	0.335967	-0.573341	-0.282771
C26	C	0.265275	-0.573350	-0.282781
C27	C	0.265323	-0.439151	-0.369501
C28	C	0.336010	-0.439139	-0.369496
C29	C	0.371329	-0.506231	-0.326126
C30	C	0.447977	-0.506223	-0.326122
C31	C	0.509069	-0.506211	-0.326124
C32	C	0.978139	-0.779169	-0.326105
C33	C	0.978184	-0.895946	-0.326122
C34	C	1.021465	-0.950710	-0.369454
C35	C	1.021503	-1.060434	-0.369472
C36	C	0.934977	-1.060620	-0.282822
C37	C	0.934937	-0.950898	-0.282807
C38	C	1.045696	-1.210280	-0.449338
C39	C	1.088987	-1.265048	-0.492664
C40	C	1.155012	-1.229347	-0.503110
C41	C	1.177758	-1.138880	-0.470220
C42	C	1.134470	-1.084117	-0.426890
C43	C	1.068436	-1.119817	-0.416457
C44	C	0.910751	-0.801049	-0.202940
C45	C	0.867466	-0.746285	-0.159606
C46	C	0.801440	-0.781984	-0.149153
C47	C	0.778696	-0.872455	-0.182030
C48	C	0.821981	-0.927219	-0.225365
C49	C	0.888006	-0.891513	-0.235819
C50	C	1.154722	-0.506235	-0.326134
C51	C	1.229954	-0.506250	-0.326141
C52	C	0.978217	-0.506136	-0.502660
C53	C	0.978234	-0.506107	-0.577892
C54	C	0.978238	-0.232168	-0.326144
C55	C	0.978263	-0.115392	-0.326155
C56	C	1.021539	-0.438916	-0.613248
C57	C	1.021546	-0.438885	-0.683936
C58	C	0.978250	-0.506052	-0.719267
C59	C	0.934940	-0.573247	-0.683906
C60	C	0.934930	-0.573271	-0.613219
C61	C	0.934978	-0.573149	-0.968980
C62	C	0.934993	-0.573122	-1.039672
C63	C	1.021594	-0.438763	-1.039697
C64	C	1.021585	-0.438788	-0.969009
C65	C	0.978272	-0.505977	-0.933655
C66	C	0.978264	-0.506008	-0.857006
C67	C	0.978261	-0.506028	-0.795914
C68	C	0.978181	-0.506192	-0.150261
C69	C	0.978296	-0.505924	-0.075029
H70	H	0.592329	-0.384460	-0.404787
H71	H	0.364715	-0.627973	-0.247457
H72	H	0.720563	-0.384444	-0.404781
O73	O	0.586582	-0.638446	-0.240695
C74	C	0.516618	-0.624055	-0.249986
H75	H	0.506986	-0.589755	-0.302260
H76	H	0.496545	-0.568027	-0.209903
C77	C	0.492148	-0.772478	-0.179466
C78	C	0.480318	-0.730359	-0.243672
H79	H	0.469755	-0.838050	-0.175568
H80	H	0.539284	-0.782172	-0.173204
H81	H	0.475420	-0.725779	-0.146070
H82	H	0.497053	-0.777052	-0.277066
H83	H	0.433183	-0.720675	-0.249940
O84	O	0.974881	-0.766254	-0.212995
C85	C	0.985670	-0.674654	-0.174690
H86	H	0.948503	-0.672487	-0.130750
H87	H	0.977739	-0.602858	-0.208036
C88	C	1.104027	-0.677169	-0.201124
C89	C	1.058381	-0.674512	-0.147153
H90	H	1.148878	-0.677077	-0.184140
H91	H	1.096758	-0.738879	-0.226933
H92	H	1.097409	-0.617337	-0.228908
H93	H	1.064994	-0.734349	-0.119376
H94	H	1.065653	-0.612811	-0.121339
O95	O	0.981543	-1.244986	-0.439318
C96	C	0.946789	-1.246451	-0.501429
H97	H	0.984730	-1.251512	-0.544601
H98	H	0.915741	-1.171683	-0.506790
C99	C	0.852912	-1.336001	-0.450693
C100	C	0.899512	-1.342225	-0.503717
H101	H	0.823747	-1.395076	-0.452104
H102	H	0.876325	-1.335011	-0.408847
H103	H	0.827046	-1.273690	-0.455167
H104	H	0.925383	-1.404528	-0.499238
H105	H	0.876102	-1.343229	-0.545562
O106	O	1.156665	-0.996335	-0.394912
C107	C	1.212557	-1.021620	-0.353957
H108	H	1.237477	-1.096084	-0.373700
H109	H	1.194871	-1.034743	-0.299827
C110	C	1.233234	-0.839466	-0.331424
C111	C	1.263844	-0.930920	-0.355676
H112	H	1.264870	-0.783517	-0.332481
H113	H	1.195577	-0.822431	-0.359014
H114	H	1.218497	-0.850417	-0.286317
H115	H	1.278574	-0.919972	-0.400784
H116	H	1.301506	-0.947952	-0.328093
O117	O	1.063680	-0.373586	-0.718176
C118	C	1.101884	-0.314297	-0.671834
H119	H	1.104208	-0.357351	-0.621442
H120	H	1.077118	-0.234499	-0.664319
C121	C	1.171073	-0.246287	-0.761327
C122	C	1.173934	-0.299171	-0.699437
H123	H	1.215516	-0.236952	-0.778354
H124	H	1.145334	-0.286228	-0.792549
H125	H	1.150433	-0.179794	-0.755056
H126	H	1.194566	-0.365667	-0.705710
H127	H	1.199678	-0.259241	-0.668216
H128	H	0.899768	-1.105375	-0.247555
O129	O	1.063395	-0.897374	-0.411630
C130	C	1.048580	-0.924162	-0.479078
H131	H	0.994517	-0.954389	-0.482447
H132	H	1.084881	-0.987790	-0.496813
C133	C	1.122790	-0.789517	-0.520108
C134	C	1.056387	-0.826634	-0.524247
H135	H	1.127609	-0.729360	-0.547972
H136	H	1.132774	-0.771471	-0.474668
H137	H	1.153034	-0.842550	-0.534887
H138	H	1.026146	-0.773607	-0.509461
H139	H	1.046399	-0.844669	-0.569686
O140	O	1.063631	-0.373337	-1.073967
C141	C	1.048850	-0.268628	-1.056711
H142	H	1.022823	-0.266468	-1.005383
H143	H	1.014066	-0.233215	-1.096491
C144	C	1.146816	-0.207660	-1.116500
C145	C	1.114855	-0.205006	-1.053456
H146	H	1.187530	-0.168412	-1.114495
H147	H	1.156773	-0.278204	-1.128128
H148	H	1.117823	-0.178151	-1.149644
H149	H	1.143845	-0.234527	-1.020315
H150	H	1.104904	-0.134465	-1.041822
O151	O	0.892876	-0.638501	-0.934747
C152	C	0.854650	-0.697750	-0.981091
H153	H	0.882390	-0.701398	-1.031478
H154	H	0.803264	-0.659239	-0.988618
C155	C	0.810767	-0.805086	-0.891599
C156	C	0.844841	-0.809574	-0.953483
H157	H	0.804713	-0.874062	-0.874568
H158	H	0.836518	-0.765166	-0.860375
H159	H	0.767949	-0.772989	-0.897880
H160	H	0.887661	-0.841658	-0.947200
H161	H	0.819096	-0.849501	-0.984705
H162	H	1.056843	-0.384097	-0.940246
O163	O	0.370260	-0.373853	-0.411634
C164	C	0.323927	-0.314651	-0.449920
H165	H	0.273528	-0.310966	-0.422206
H166	H	0.316429	-0.353228	-0.501285
C167	C	0.413429	-0.207375	-0.493832
C168	C	0.351529	-0.202842	-0.459790
H169	H	0.430455	-0.138407	-0.499923
H170	H	0.444645	-0.247263	-0.468040
H171	H	0.407172	-0.239527	-0.536632
H172	H	0.357788	-0.170702	-0.416988
H173	H	0.320314	-0.162946	-0.485575
H174	H	1.231525	-1.109826	-0.478723
O175	O	0.892915	-0.638639	-0.718151
C176	C	0.907693	-0.743361	-0.700881
H177	H	0.933702	-0.745560	-0.649560
H178	H	0.942491	-0.778741	-0.740665
C179	C	0.809748	-0.804287	-0.760631
C180	C	0.841689	-0.806989	-0.697596
H181	H	0.769035	-0.843538	-0.758607
H182	H	0.799793	-0.733734	-0.772269
H183	H	0.838753	-0.833768	-0.793778
H184	H	0.812687	-0.777496	-0.664452
H185	H	0.851637	-0.877539	-0.685952
H186	H	1.190260	-1.273947	-0.538387
O187	O	0.799771	-1.015056	-0.257277
C188	C	0.732218	-1.034843	-0.238747
H189	H	0.707672	-0.958935	-0.220908
H190	H	0.730950	-1.094989	-0.196183
C191	C	0.723444	-1.170978	-0.322012
C192	C	0.693295	-1.077745	-0.300107
H193	H	0.699435	-1.197447	-0.359860
H194	H	0.768957	-1.157650	-0.334494
H195	H	0.722385	-1.221088	-0.286536
H196	H	0.694362	-1.027633	-0.335579
H197	H	0.647782	-1.091065	-0.287632
O198	O	0.714529	-0.906971	-0.171828
C199	C	0.681207	-0.839249	-0.126519
H200	H	0.706738	-0.759176	-0.127305
H201	H	0.683802	-0.873266	-0.073348
C202	C	0.575453	-0.925838	-0.146826
C203	C	0.606808	-0.827487	-0.147795
H204	H	0.529560	-0.918585	-0.159947
H205	H	0.597903	-0.971466	-0.177349
H206	H	0.577623	-0.954174	-0.102515
H207	H	0.604646	-0.799158	-0.192107
H208	H	0.584356	-0.781854	-0.117280
O209	O	0.759380	-0.728652	-0.107140
C210	C	0.750945	-0.625465	-0.131193
H211	H	0.762295	-0.622986	-0.187603
H212	H	0.787008	-0.570832	-0.103387
C213	C	0.663743	-0.592943	-0.049542
C214	C	0.677678	-0.589900	-0.118828
H215	H	0.618549	-0.571002	-0.041913
H216	H	0.669427	-0.662460	-0.033335
H217	H	0.693800	-0.547416	-0.026379
H218	H	0.647626	-0.635436	-0.141989
H219	H	0.671987	-0.520389	-0.135039
O220	O	0.892962	-0.638595	-0.578794
C221	C	0.931482	-0.706486	-0.537917
H222	H	0.982782	-0.669442	-0.527346
H223	H	0.938904	-0.784339	-0.565149
C224	C	0.831225	-0.771015	-0.483742
C225	C	0.894231	-0.725514	-0.470754
H226	H	0.808246	-0.782757	-0.442314
H227	H	0.805272	-0.725279	-0.511283
H228	H	0.837419	-0.835888	-0.506437
H229	H	0.888036	-0.660636	-0.448068
H230	H	0.920182	-0.771239	-0.443208
H231	H	1.070461	-1.338707	-0.519442
H232	H	0.885991	-0.672622	-0.132832
H233	H	0.236481	-0.627997	-0.247472
H234	H	0.236558	-0.384517	-0.404813
H235	H	0.720484	-0.627916	-0.247433
H236	H	1.056798	-0.384224	-0.584486
H237	H	0.899733	-0.627819	-1.068437
