data_functionalizedCrystal
_audit_creation_method	'MofGen! by Chris Wilmer'
_symmetry_space_group_name_H-M	'P1'
_symmetry_Int_Tables_number	1
_symmetry_cell_setting	triclinic
loop_
_symmetry_equiv_pos_as_xyz
  x,y,z
_cell_length_a	13.032831
_cell_length_b	16.625546
_cell_length_c	13.032268
_cell_angle_alpha	82.855386
_cell_angle_beta	89.113023
_cell_angle_gamma	82.826778
loop_
_atom_site_label
_atom_site_type_symbol
_atom_site_fract_x
_atom_site_fract_y
_atom_site_fract_z
Zn1	Zn	1.498429	-0.544521	0.780776
Zn2	Zn	1.998429	-0.044521	1.280776
Zn3	Zn	1.520160	-0.664651	0.608784
Zn4	Zn	2.020160	-0.164651	1.108784
Zn5	Zn	1.348291	-0.510838	0.587021
Zn6	Zn	1.848291	-0.010838	1.087021
Zn7	Zn	1.326409	-0.660292	0.758909
Zn8	Zn	1.826409	-0.160292	1.258909
O9	O	1.423322	-0.595075	0.683873
O10	O	1.923322	-0.095075	1.183873
O11	O	1.645231	-0.576377	0.776220
O12	O	2.145231	-0.076377	1.276220
O13	O	1.515614	-0.631976	0.461981
O14	O	2.015614	-0.131976	0.961981
O15	O	1.368270	-0.402484	0.612767
O16	O	1.868270	0.097516	1.112767
O17	O	1.661197	-0.664636	0.649858
O18	O	2.161197	-0.164636	1.149858
O19	O	1.478576	-0.427231	0.755118
O20	O	1.978576	0.072769	1.255118
O21	O	1.389342	-0.518970	0.445992
O22	O	1.889342	-0.018970	0.945992
O23	O	1.201469	-0.514743	0.591563
O24	O	1.701469	-0.014743	1.091563
O25	O	1.330976	-0.657206	0.905725
O26	O	1.830976	-0.157206	1.405725
O27	O	1.185392	-0.624546	0.717849
O28	O	1.685392	-0.124546	1.217849
O29	O	1.457358	-0.572150	0.921791
O30	O	1.957358	-0.072150	1.421791
O31	O	1.494396	-0.776895	0.628654
O32	O	1.994396	-0.276895	1.128654
O33	O	1.352048	-0.773692	0.738951
O34	O	1.852048	-0.273692	1.238951
C35	C	1.156114	-0.565517	0.649972
C36	C	1.656114	-0.065517	1.149972
C37	C	1.041798	-0.552893	0.635494
C38	C	1.541798	-0.052893	1.135494
C39	C	0.982917	-0.601664	0.691429
C40	C	1.482917	-0.101664	1.191429
C41	C	0.864766	-0.588618	0.676466
C42	C	1.364766	-0.088618	1.176466
C43	C	1.423230	-0.804552	0.683817
C44	C	1.923230	-0.304552	1.183817
C45	C	1.423281	-0.894180	0.683840
C46	C	1.923281	-0.394180	1.183840
C47	C	1.423447	-1.222385	0.683970
C48	C	1.923447	-0.722385	1.183970
C49	C	1.423397	-1.131068	0.683936
C50	C	1.923397	-0.631068	1.183936
C51	C	1.423363	-1.058285	0.683904
C52	C	1.923363	-0.558285	1.183904
C53	C	1.423315	-0.966963	0.683872
C54	C	1.923315	-0.466963	1.183872
C55	C	1.691574	-0.624750	0.717906
C56	C	2.191574	-0.124750	1.217906
C57	C	1.805887	-0.637396	0.732409
C58	C	2.305887	-0.137396	1.232409
C59	C	1.389302	-0.617949	0.952117
C60	C	1.889302	-0.117949	1.452117
C61	C	1.374805	-0.627696	1.066427
C62	C	1.874805	-0.127696	1.566427
C63	C	1.423440	-0.384786	0.683954
C64	C	1.923440	0.115214	1.183954
C65	C	1.423490	-0.295173	0.683989
C66	C	1.923490	0.204827	1.183989
C67	C	1.457270	-0.572239	0.416679
C68	C	1.957270	-0.072239	0.916679
C69	C	1.471966	-0.562287	0.302395
C70	C	1.971966	-0.062287	0.802395
C71	C	1.430873	-0.589958	1.125339
C72	C	1.930873	-0.089958	1.625339
C73	C	1.415890	-0.600031	1.243485
C74	C	1.915890	-0.100031	1.743485
H75	H	1.004736	-0.501477	0.576533
H76	H	1.504736	-0.001477	1.076533
C77	C	1.551804	-0.508559	1.252393
C78	C	2.051804	-0.008559	1.752393
H79	H	1.585031	-0.486185	1.304676
H80	H	2.085031	0.013815	1.804676
H81	H	1.601873	-0.540807	1.216155
H82	H	2.101873	-0.040807	1.716155
H83	H	1.517750	-0.465526	1.205510
H84	H	2.017750	0.034474	1.705510
H85	H	1.019978	-0.653074	0.750398
H86	H	1.519978	-0.153074	1.250398
C87	C	1.294977	-0.681423	1.116442
C88	C	1.794977	-0.181423	1.616442
H89	H	1.295386	-0.681151	1.189289
H90	H	1.795386	-0.181151	1.689289
H91	H	1.228090	-0.660500	1.090126
H92	H	1.728090	-0.160500	1.590126
H93	H	1.312221	-0.735776	1.100776
H94	H	1.812221	-0.235776	1.600776
H95	H	0.827708	-0.537199	0.617501
H96	H	1.327708	-0.037199	1.117501
C97	C	0.855939	-0.706870	0.812052
C98	C	1.355939	-0.206870	1.312052
H99	H	0.928786	-0.706536	0.811649
H100	H	1.428786	-0.206536	1.311649
H101	H	0.829643	-0.699145	0.878981
H102	H	1.329643	-0.199145	1.378981
H103	H	0.840280	-0.757800	0.794637
H104	H	1.340280	-0.257800	1.294637
H105	H	1.489963	-0.550187	1.088309
H106	H	1.989963	-0.050187	1.588309
C107	C	1.336058	-0.653761	1.293494
C108	C	1.836058	-0.153761	1.793494
H109	H	1.336468	-0.653489	1.366341
H110	H	1.836468	-0.153489	1.866341
H111	H	1.269172	-0.632838	1.267179
H112	H	1.769172	-0.132838	1.767179
H113	H	1.353303	-0.708113	1.277829
H114	H	1.853303	-0.208113	1.777829
