data_functionalizedCrystal
_audit_creation_method	'MofGen! by Chris Wilmer'
_symmetry_space_group_name_H-M	'P1'
_symmetry_Int_Tables_number	1
_symmetry_cell_setting	triclinic
loop_
_symmetry_equiv_pos_as_xyz
  x,y,z
_cell_length_a	15.944551
_cell_length_b	15.944493
_cell_length_c	9.565339
_cell_angle_alpha	89.997013
_cell_angle_beta	89.994879
_cell_angle_gamma	96.513109
loop_
_atom_site_label
_atom_site_type_symbol
_atom_site_fract_x
_atom_site_fract_y
_atom_site_fract_z
O1	O	-0.108094	1.114554	-0.116226
O2	O	-0.121501	0.869998	-0.116231
O3	O	0.007479	0.998954	-0.116237
O4	O	-0.237074	0.985598	-0.116221
O5	O	0.007471	0.998944	0.116284
O6	O	-0.121509	0.869988	0.116289
O7	O	-0.108102	1.114544	0.116294
Zn8	Zn	-0.114807	0.992264	0.153209
Zn9	Zn	-0.114796	0.992277	-0.153146
O10	O	-0.237082	0.985587	0.116300
C11	C	-0.120957	0.838698	0.000028
C12	C	-0.119314	0.745449	0.000025
C13	C	-0.195235	0.509689	0.000029
C14	C	-0.154298	0.459126	0.114677
C15	C	-0.116270	0.574728	0.000028
C16	C	-0.154271	0.459141	-0.114569
C17	C	-0.113336	0.409819	0.000024
C18	C	-0.075355	0.525393	0.114771
C19	C	-0.075340	0.525411	-0.114579
C20	C	-0.034345	0.474880	0.000097
C21	C	-0.117963	0.669728	0.000031
C22	C	-0.111637	0.314821	0.000031
C23	C	-0.268372	0.986147	0.000042
C24	C	-0.361617	0.987809	0.000047
C25	C	-0.576457	1.071716	0.000028
C26	C	-0.637485	1.032747	0.114673
C27	C	-0.532343	0.990817	0.000035
C28	C	-0.637463	1.032738	-0.114574
C29	C	-0.697255	0.993728	0.000017
C30	C	-0.592143	0.951826	0.114775
C31	C	-0.592114	0.951828	-0.114575
C32	C	-0.653125	0.912801	0.000098
C33	C	-0.437341	0.989142	0.000047
C34	C	-0.792256	0.995396	0.000016
C35	C	0.038768	0.998395	0.000018
C36	C	0.132014	0.996732	0.000003
C37	C	-0.108646	1.145844	0.000032
C38	C	-0.110289	1.239092	0.000025
N39	N	-0.114814	0.992261	0.362288
N40	N	-0.114783	0.992287	-0.362225
C41	C	-0.174443	0.932605	0.453494
C42	C	-0.190730	1.008512	0.546676
C43	C	-0.098533	0.916387	0.546662
C44	C	-0.131139	1.068206	0.453419
C45	C	-0.038909	0.976032	0.453396
C46	C	-0.055164	1.051993	0.546536
H47	H	-0.187649	0.430184	0.211606
H48	H	-0.686297	0.845592	0.000161
H49	H	-0.657588	1.066960	0.211598
O50	O	-0.568462	0.910981	0.230580
C51	C	-0.613377	0.837782	0.442823
C52	C	-0.640316	0.883998	0.311720
H53	H	-0.671454	0.815969	0.508476
H54	H	-0.581023	0.780691	0.410027
H55	H	-0.567692	0.882531	0.507076
H56	H	-0.686028	0.839316	0.247408
H57	H	-0.672622	0.941100	0.344612
H58	H	-0.042030	0.554217	0.211793
O59	O	-0.536838	1.151879	0.000228
C60	C	-0.552553	1.300414	0.001643
C61	C	-0.597526	1.209677	0.001438
H62	H	-0.601600	1.347168	0.002592
H63	H	-0.510957	1.310415	0.098494
H64	H	-0.511799	1.310829	-0.096118
H65	H	-0.638324	1.199199	0.099133
H66	H	-0.639071	1.199719	-0.095478
H67	H	0.033726	0.459415	0.000159
H68	H	-0.263254	0.525313	0.000141
O69	O	-0.568213	0.910932	-0.230166
C70	C	-0.581569	0.781389	-0.362173
C71	C	-0.608726	0.827601	-0.231213
H72	H	-0.614298	0.714002	-0.363048
H73	H	-0.600004	0.815910	-0.459889
H74	H	-0.510244	0.780033	-0.360483
H75	H	-0.680048	0.828970	-0.232767
H76	H	-0.590229	0.793064	-0.133555
O77	O	-0.234761	0.872565	0.404805
C78	C	-0.382923	0.821859	0.397167
C79	C	-0.314700	0.889913	0.452376
H80	H	-0.447567	0.835850	0.435630
H81	H	-0.382043	0.822004	0.277991
H82	H	-0.369650	0.757298	0.437088
H83	H	-0.327927	0.954507	0.412558
H84	H	-0.315596	0.889693	0.571550
O85	O	-0.193944	0.424543	-0.230235
C86	C	-0.181633	0.344353	-0.441302
C87	C	-0.136599	0.383472	-0.310363
H88	H	-0.135285	0.311152	-0.506137
H89	H	-0.236842	0.296717	-0.408300
H90	H	-0.206102	0.396289	-0.506457
H91	H	-0.112077	0.331595	-0.245150
H92	H	-0.081430	0.431127	-0.343462
O93	O	-0.082157	0.839867	0.595757
C94	C	-0.062959	0.754429	0.798547
C95	C	-0.081521	0.841124	0.743145
H96	H	-0.062420	0.755423	0.917715
H97	H	-0.113882	0.703607	0.760425
H98	H	0.001235	0.740093	0.758497
H99	H	-0.145690	0.855540	0.783171
H100	H	-0.030547	0.891897	0.781254
H101	H	-0.042014	0.554361	-0.211513
O102	O	-0.147779	1.144788	0.404980
C103	C	-0.246334	1.248661	0.398590
C104	C	-0.227574	1.161930	0.453545
H105	H	-0.310855	1.262540	0.437807
H106	H	-0.195845	1.299591	0.437766
H107	H	-0.246208	1.248034	0.279412
H108	H	-0.227713	1.162474	0.572718
H109	H	-0.278066	1.111038	0.414261
O110	O	-0.267228	1.024933	0.595808
C111	C	-0.352677	1.043991	0.798646
C112	C	-0.265995	1.025417	0.743198
H113	H	-0.351715	1.044371	0.917816
H114	H	-0.367063	1.108213	0.758802
H115	H	-0.403451	0.993074	0.760353
H116	H	-0.215166	1.076281	0.781468
H117	H	-0.251683	0.961169	0.783031
O118	O	-0.661558	1.073583	-0.230097
C119	C	-0.777121	1.120156	-0.360218
C120	C	-0.749952	1.073890	-0.229326
H121	H	-0.848591	1.120405	-0.359653
H122	H	-0.745362	1.187920	-0.360064
H123	H	-0.757521	1.086341	-0.457902
H124	H	-0.769546	1.107635	-0.131573
H125	H	-0.781704	1.006125	-0.229603
H126	H	-0.004721	1.102509	0.587133
H127	H	0.025249	0.962263	0.412392
