data_functionalizedCrystal
_audit_creation_method	'MofGen! by Chris Wilmer'
_symmetry_space_group_name_H-M	'P1'
_symmetry_Int_Tables_number	1
_symmetry_cell_setting	triclinic
loop_
_symmetry_equiv_pos_as_xyz
  x,y,z
_cell_length_a	10.967926
_cell_length_b	15.944493
_cell_length_c	10.065918
_cell_angle_alpha	80.168722
_cell_angle_beta	92.218243
_cell_angle_gamma	84.105668
loop_
_atom_site_label
_atom_site_type_symbol
_atom_site_fract_x
_atom_site_fract_y
_atom_site_fract_z
O1	O	1.617224	0.091743	0.266887
O2	O	1.265826	0.111092	0.184239
O3	O	1.451159	-0.021023	0.227817
O4	O	1.431891	0.223859	0.223308
O5	O	1.419550	-0.042465	0.447369
O6	O	1.234217	0.089651	0.403791
O7	O	1.585615	0.070302	0.486438
Zn8	Zn	1.404897	0.076572	0.479973
Zn9	Zn	1.446544	0.104822	0.190704
O10	O	1.400282	0.202418	0.442860
C11	C	1.205056	0.100584	0.283439
C12	C	1.071071	0.101206	0.251926
C13	C	0.994961	0.090377	0.351610
C14	C	0.856481	0.091020	0.319042
C15	C	1.434568	-0.063025	0.337402
C16	C	1.432210	-0.156232	0.336830
C17	C	1.541296	-0.393854	0.362513
C18	C	1.498053	-0.432848	0.240427
C19	C	1.427833	-0.326880	0.335818
C20	C	1.466862	-0.453963	0.456882
C21	C	1.423614	-0.491720	0.334848
C22	C	1.384634	-0.364636	0.213650
C23	C	1.353445	-0.385758	0.430206
C24	C	1.310123	-0.424714	0.308074
C25	C	1.430268	-0.231920	0.336377
C26	C	1.421172	-0.586675	0.334277
C27	C	1.646386	0.080811	0.387236
C28	C	1.780372	0.080189	0.418741
C29	C	1.416874	0.244420	0.333272
C30	C	1.419233	0.337627	0.333836
N31	N	1.376483	0.057291	0.677394
N32	N	1.474968	0.124096	-0.006714
C33	C	1.414801	0.083273	0.911352
C34	C	1.436659	0.098120	0.759327
H35	H	1.032323	0.080624	0.461065
F36	F	1.288007	-0.002770	0.732800
F37	F	1.669061	-0.375590	0.392420
H38	H	1.292392	-0.364919	0.510467
F39	F	1.512301	-0.504526	0.591232
H40	H	1.033710	0.110952	0.142471
H41	H	0.819126	0.100766	0.209580
H42	H	0.817726	0.070437	0.528203
F43	F	1.525151	0.158169	0.703921
F44	F	1.339282	-0.314208	0.079178
F45	F	1.577905	-0.460070	0.135537
H46	H	1.212320	-0.438507	0.285010
F47	F	1.563456	0.184142	0.937874
H48	H	1.347114	0.037328	0.953754
