data_functionalizedCrystal
_audit_creation_method	'MofGen! by Chris Wilmer'
_symmetry_space_group_name_H-M	'P1'
_symmetry_Int_Tables_number	1
_symmetry_cell_setting	triclinic
loop_
_symmetry_equiv_pos_as_xyz
  x,y,z
_cell_length_a	11.026660
_cell_length_b	6.394989
_cell_length_c	10.065875
_cell_angle_alpha	80.951547
_cell_angle_beta	79.302288
_cell_angle_gamma	82.458727
loop_
_atom_site_label
_atom_site_type_symbol
_atom_site_fract_x
_atom_site_fract_y
_atom_site_fract_z
O1	O	1.640991	-0.855536	-0.113479
O2	O	1.286155	-0.755367	-0.113482
O3	O	1.468610	-0.503281	-0.113481
O4	O	1.458536	-1.107622	-0.113479
O5	O	1.433822	-0.551597	0.113508
O6	O	1.251367	-0.803683	0.113507
O7	O	1.606203	-0.903852	0.113510
Zn8	Zn	1.423262	-0.861439	0.149548
Zn9	Zn	1.469096	-0.797780	-0.149519
O10	O	1.423748	-1.155938	0.113509
C11	C	1.223268	-0.761046	0.000012
C12	C	1.087713	-0.705957	0.000011
C13	C	0.876129	-0.801149	0.000007
C14	C	1.016233	-0.858090	0.000010
C15	C	1.669090	-0.898173	0.000013
C16	C	1.804647	-0.953260	0.000006
C17	C	1.449225	-0.448868	0.000008
C18	C	1.443138	-0.210344	0.000007
N19	N	1.391990	-0.904886	0.353653
N20	N	1.500378	-0.754320	-0.353625
C21	C	1.458208	-0.812881	0.421432
C22	C	1.434150	-0.846339	0.578600
H23	H	1.045210	-0.533543	-0.000081
H24	H	1.532707	-0.709331	0.363108
H25	H	1.317483	-1.008417	0.411979
N26	N	0.819816	-0.572800	-0.000008
H27	H	0.886768	-0.479111	-0.000009
H28	H	0.754567	-0.561241	0.084138
N29	N	1.599066	-0.617143	0.569140
H30	H	1.602264	-0.612677	0.467813
H31	H	1.682290	-0.678920	0.594026
H32	H	1.058750	-1.030486	0.000019
N33	N	0.860966	-1.181602	-0.000010
H34	H	0.794014	-1.275290	-0.000014
H35	H	0.900422	-1.228989	0.084137
H36	H	1.359638	-0.949876	0.636920
