data_functionalizedCrystal
_audit_creation_method	'MofGen! by Chris Wilmer'
_symmetry_space_group_name_H-M	'P1'
_symmetry_Int_Tables_number	1
_symmetry_cell_setting	triclinic
loop_
_symmetry_equiv_pos_as_xyz
  x,y,z
_cell_length_a	10.685727
_cell_length_b	10.686285
_cell_length_c	10.686551
_cell_angle_alpha	80.915481
_cell_angle_beta	80.924363
_cell_angle_gamma	80.941179
loop_
_atom_site_label
_atom_site_type_symbol
_atom_site_fract_x
_atom_site_fract_y
_atom_site_fract_z
Zn1	Zn	-2.038245	0.595538	0.823940
Zn2	Zn	-1.704912	0.928872	1.157273
Zn3	Zn	-1.371579	1.262205	1.490606
Zn4	Zn	-2.038142	0.824111	0.595430
Zn5	Zn	-1.704809	1.157444	0.928763
Zn6	Zn	-1.371475	1.490778	1.262097
Zn7	Zn	-1.809683	0.595590	0.595449
Zn8	Zn	-1.476350	0.928924	0.928783
Zn9	Zn	-1.143016	1.262257	1.262116
Zn10	Zn	-1.840094	0.793603	0.793551
Zn11	Zn	-1.506760	1.126936	1.126884
Zn12	Zn	-1.173427	1.460269	1.460218
O13	O	-1.931541	0.702211	0.702092
O14	O	-1.598208	1.035544	1.035426
O15	O	-1.264874	1.368877	1.368759
O16	O	-2.216770	0.638605	0.806337
O17	O	-1.883436	0.971938	1.139670
O18	O	-1.550103	1.305272	1.473004
O19	O	-1.995066	0.806587	0.416894
O20	O	-1.661733	1.139920	0.750227
O21	O	-1.328400	1.473253	1.083561
O22	O	-1.827318	0.417056	0.638485
O23	O	-1.493985	0.750389	0.971818
O24	O	-1.160652	1.083723	1.305151
O25	O	-2.216694	0.806536	0.638452
O26	O	-1.883361	1.139870	0.971785
O27	O	-1.550027	1.473203	1.305119
O28	O	-1.995242	0.417018	0.806356
O29	O	-1.661909	0.750351	1.139689
O30	O	-1.328576	1.083685	1.473022
O31	O	-1.827218	0.638694	0.416908
O32	O	-1.493885	0.972027	0.750242
O33	O	-1.160552	1.305360	1.083575
O34	O	-1.635179	0.609111	0.609018
O35	O	-1.301846	0.942444	0.942351
O36	O	-0.968512	1.275778	1.275685
O37	O	-1.879149	0.754539	0.976120
O38	O	-1.545816	1.087873	1.309454
O39	O	-1.212482	1.421206	1.642787
O40	O	-1.657522	0.754590	0.754563
O41	O	-1.324188	1.087923	1.087896
O42	O	-0.990855	1.421256	1.421229
O43	O	-2.024730	0.609022	0.998447
O44	O	-1.691397	0.942356	1.331780
O45	O	-1.358064	1.275689	1.665114
O46	O	-2.024554	0.998591	0.608985
O47	O	-1.691221	1.331924	0.942319
O48	O	-1.357888	1.665258	1.275652
O49	O	-1.879049	0.976177	0.754544
O50	O	-1.545716	1.309510	1.087877
O51	O	-1.212382	1.642844	1.421211
C52	C	-1.600058	0.678546	0.678496
C53	C	-1.266724	1.011880	1.011829
C54	C	-0.933391	1.345213	1.345162
C55	C	-1.458252	0.668451	0.668429
C56	C	-1.124918	1.001785	1.001762
C57	C	-0.791585	1.335118	1.335095
C58	C	-1.955343	0.678372	1.034871
C59	C	-1.622010	1.011705	1.368204
C60	C	-1.288677	1.345039	1.701538
C61	C	-1.965487	0.668213	1.176681
C62	C	-1.632153	1.001547	1.510015
C63	C	-1.298820	1.334880	1.843348
C64	C	-1.955127	1.033675	0.678495
C65	C	-1.621794	1.367008	1.011829
C66	C	-1.288460	1.700341	1.345162
C67	C	-1.965337	1.175482	0.668451
C68	C	-1.632004	1.508815	1.001784
C69	C	-1.298670	1.842148	1.335118
C70	C	-1.264318	0.725960	0.725770
C71	C	-0.930984	1.059294	1.059104
C72	C	-0.597651	1.392627	1.392437
C73	C	-1.406123	0.736062	0.735831
C74	C	-1.072790	1.069395	1.069164
C75	C	-0.739457	1.402728	1.402498
C76	C	-1.907900	0.369453	0.725812
C77	C	-1.574566	0.702786	1.059145
C78	C	-1.241233	1.036119	1.392479
C79	C	-1.897825	0.227651	0.735920
C80	C	-1.564492	0.560984	1.069253
C81	C	-1.231158	0.894318	1.402587
C82	C	-1.907898	0.725869	0.370620
C83	C	-1.574565	1.059203	0.703953
C84	C	-1.241231	1.392536	1.037287
C85	C	-1.897977	0.735686	0.228854
C86	C	-1.564643	1.069020	0.562187
C87	C	-1.231310	1.402353	0.895520
H88	H	-1.394395	0.602835	0.603031
H89	H	-1.061062	0.936168	0.936364
H90	H	-0.727729	1.269501	1.269697
Cl91	Cl	-1.504715	0.837361	0.836825
Cl92	Cl	-1.171382	1.170695	1.170159
Cl93	Cl	-0.838048	1.504028	1.503492
Cl94	Cl	-1.796526	1.129118	0.836972
Cl95	Cl	-1.463193	1.462451	1.170306
Cl96	Cl	-1.129859	1.795784	1.503639
H97	H	-2.030942	1.239311	0.602989
H98	H	-1.697608	1.572644	0.936322
H99	H	-1.364275	1.905978	1.269656
H100	H	-1.832422	0.801228	1.165031
H101	H	-1.499089	1.134561	1.498365
H102	H	-1.165756	1.467895	1.831698
Cl103	Cl	-2.066721	0.567029	1.275221
Cl104	Cl	-1.733388	0.900362	1.608554
Cl105	Cl	-1.400054	1.233695	1.941887
