data_functionalizedCrystal
_audit_creation_method	'MofGen! by Chris Wilmer'
_symmetry_space_group_name_H-M	'P1'
_symmetry_Int_Tables_number	1
_symmetry_cell_setting	triclinic
loop_
_symmetry_equiv_pos_as_xyz
  x,y,z
_cell_length_a	17.699083
_cell_length_b	9.198806
_cell_length_c	17.699083
_cell_angle_alpha	89.995663
_cell_angle_beta	96.716985
_cell_angle_gamma	89.997927
loop_
_atom_site_label
_atom_site_type_symbol
_atom_site_fract_x
_atom_site_fract_y
_atom_site_fract_z
O1	O	1.004075	0.120692	-0.095710
O2	O	0.783697	0.120740	-0.108162
O3	O	0.900112	0.120701	0.008253
O4	O	0.887660	0.120730	-0.212125
O5	O	0.900103	-0.121084	0.008254
O6	O	0.783688	-0.121046	-0.108161
O7	O	1.004066	-0.121094	-0.095709
Cu8	Cu	0.893876	-0.143146	-0.101935
Cu9	Cu	0.893887	0.142792	-0.101936
O10	O	0.887651	-0.121055	-0.212124
C11	C	0.755495	-0.000147	-0.107716
C12	C	0.671477	-0.000129	-0.106377
N13	N	0.893874	-0.344260	-0.101934
C14	C	0.622856	-0.000121	-0.174710
C15	C	0.543913	-0.000140	-0.173448
C16	C	0.513592	-0.000157	-0.103852
C17	C	0.562219	-0.000169	-0.035513
C18	C	0.641161	-0.000161	-0.036776
C19	C	0.243856	-0.000206	-0.030418
C20	C	0.164908	-0.000210	-0.029160
C21	C	0.146608	-0.000185	-0.167090
C22	C	0.225550	-0.000176	-0.168353
C23	C	0.274170	-0.000197	-0.100015
C24	C	0.359769	-0.000179	-0.101384
C25	C	0.427995	-0.000164	-0.102481
C26	C	0.937554	-0.416462	-0.145366
C27	C	0.937565	-0.583875	-0.145365
C28	C	1.032268	-0.000204	-0.096156
C29	C	1.116286	-0.000212	-0.097494
C30	C	0.899662	-0.000191	0.036451
C31	C	0.898323	-0.000192	0.120469
N32	N	0.893895	0.343906	-0.101931
C33	C	0.888102	-0.000160	-0.240322
C34	C	0.889440	-0.000150	-0.324340
C35	C	0.966656	-0.000209	0.169090
C36	C	0.965394	-0.000195	0.248033
C37	C	0.895798	-0.000176	0.278354
C38	C	0.827459	-0.000154	0.229727
C39	C	0.828722	-0.000157	0.150785
C40	C	0.822364	-0.000141	0.548090
C41	C	0.821106	-0.000143	0.627038
C42	C	0.959036	-0.000180	0.645338
C43	C	0.960299	-0.000182	0.566396
C44	C	0.891961	-0.000154	0.517776
C45	C	0.893330	-0.000165	0.432177
C46	C	0.894427	-0.000175	0.363951
H47	H	0.647537	-0.000106	-0.231384
H48	H	0.283434	-0.000224	0.025228
H49	H	0.974957	-0.645967	-0.182553
Cl50	Cl	0.482792	-0.000120	-0.259357
Cl51	Cl	0.739966	-0.000112	0.267844
Cl52	Cl	0.836150	-0.560246	-0.044521
Cl53	Cl	0.836153	-0.440165	-0.044516
H54	H	0.537526	-0.000204	0.021154
H55	H	1.023330	-0.000233	0.144409
Cl56	Cl	0.702285	-0.000178	0.049132
Cl57	Cl	1.051303	-0.000221	0.309154
H58	H	1.016971	-0.000206	0.541714
H59	H	0.250232	-0.000156	-0.225025
Cl60	Cl	0.085481	-0.000166	-0.253002
H61	H	0.773078	-0.000143	0.111198
Cl62	Cl	0.126793	-0.000232	0.058340
H63	H	0.974944	-0.354337	-0.182548
Cl64	Cl	0.733606	-0.000115	0.665153
Cl65	Cl	0.736452	-0.000101	0.486977
H66	H	1.014680	-0.000196	0.684934
