data_functionalizedCrystal
_audit_creation_method	'MofGen! by Chris Wilmer'
_symmetry_space_group_name_H-M	'P1'
_symmetry_Int_Tables_number	1
_symmetry_cell_setting	triclinic
loop_
_symmetry_equiv_pos_as_xyz
  x,y,z
_cell_length_a	15.944551
_cell_length_b	27.732048
_cell_length_c	15.021413
_cell_angle_alpha	89.999048
_cell_angle_beta	89.997174
_cell_angle_gamma	83.070697
loop_
_atom_site_label
_atom_site_type_symbol
_atom_site_fract_x
_atom_site_fract_y
_atom_site_fract_z
O1	O	1.113714	0.062334	-0.073949
O2	O	1.613714	0.562334	0.426051
O3	O	0.869064	0.070020	-0.073973
O4	O	1.369064	0.570020	0.426027
O5	O	0.998987	-0.004187	-0.073943
O6	O	1.498987	0.495813	0.426057
O7	O	0.983790	0.136541	-0.073979
O8	O	1.483790	0.636541	0.426021
O9	O	0.998966	-0.004176	0.074121
O10	O	1.498966	0.495824	0.574121
O11	O	0.869043	0.070030	0.074092
O12	O	1.369043	0.570030	0.574092
O13	O	1.113693	0.062345	0.074115
O14	O	1.613693	0.562345	0.574115
Zn15	Zn	0.991365	0.066189	0.097612
Zn16	Zn	1.491365	0.566189	0.597612
Zn17	Zn	0.991392	0.066175	-0.097469
Zn18	Zn	1.491392	0.566175	0.402531
O19	O	0.983770	0.136551	0.074086
O20	O	1.483770	0.636551	0.574086
C21	C	0.837763	0.069706	0.000057
C22	C	1.337763	0.569706	0.500057
C23	C	0.744530	0.068749	0.000049
C24	C	1.244530	0.568749	0.500049
C25	C	0.998658	-0.022190	0.000091
C26	C	1.498658	0.477810	0.500091
C27	C	0.997697	-0.075849	0.000099
C28	C	1.497697	0.424151	0.500099
C29	C	0.530305	0.020466	0.000078
C30	C	1.030305	0.520466	0.500078
C31	C	0.469001	0.042882	-0.072931
C32	C	0.969001	0.542882	0.427069
C33	C	0.573827	0.067019	0.000060
C34	C	1.073827	0.567019	0.500060
C35	C	0.469003	0.042904	0.073049
C36	C	0.969003	0.542904	0.573049
C37	C	0.408936	0.065344	0.000074
C38	C	0.908936	0.565344	0.500074
C39	C	0.513752	0.089448	-0.073010
C40	C	1.013752	0.589448	0.426990
C41	C	0.513760	0.089463	0.073036
C42	C	1.013760	0.589463	0.573036
C43	C	0.452474	0.111912	0.000009
C44	C	0.952474	0.611912	0.500009
C45	C	0.668816	0.067983	0.000051
C46	C	1.168816	0.567983	0.500051
C47	C	0.313947	0.064384	0.000077
C48	C	0.813947	0.564384	0.500077
C49	C	1.068426	-0.414358	0.000060
C50	C	1.568426	0.085642	0.500060
C51	C	1.064862	-0.616033	0.000047
C52	C	1.564862	-0.116033	0.500047
O53	O	1.129539	-0.647008	0.000014
O54	O	1.629539	-0.147008	0.500014
N55	N	0.987823	-0.635490	0.000040
N56	N	1.487823	-0.135490	0.500040
C57	C	0.911669	-0.604525	0.000031
C58	C	1.411669	-0.104525	0.500031
O59	O	0.846061	-0.625703	0.000016
O60	O	1.346061	-0.125703	0.500016
C61	C	0.915234	-0.402851	0.000038
C62	C	1.415234	0.097149	0.500038
C63	C	0.992278	-0.383397	0.000053
C64	C	1.492278	0.116603	0.500053
C65	C	1.145464	-0.394903	0.000074
C66	C	1.645464	0.105097	0.500074
C67	C	1.146354	-0.344487	0.000082
C68	C	1.646354	0.155513	0.500082
C69	C	1.070206	-0.313526	0.000076
C70	C	1.570206	0.186474	0.500076
C71	C	0.993168	-0.332981	0.000061
C72	C	1.493168	0.167019	0.500061
C73	C	0.839081	-0.371887	0.000022
C74	C	1.339081	0.128113	0.500022
C75	C	0.839979	-0.321466	0.000021
C76	C	1.339979	0.178534	0.500021
C77	C	0.917024	-0.302012	0.000037
C78	C	1.417024	0.197988	0.500037
C79	C	0.917911	-0.251604	0.000063
C80	C	1.417911	0.248396	0.500063
N81	N	0.994950	-0.232147	0.000069
N82	N	1.494950	0.267853	0.500069
C83	C	1.071098	-0.263108	0.000076
C84	C	1.571098	0.236892	0.500076
C85	C	0.909803	-0.710408	0.000030
C86	C	1.409803	-0.210408	0.500030
C87	C	0.908912	-0.760826	0.000030
C88	C	1.408912	-0.260826	0.500030
C89	C	1.062105	-0.772330	0.000044
C90	C	1.562105	-0.272330	0.500044
C91	C	1.062995	-0.721911	0.000050
C92	C	1.562995	-0.221911	0.500050
C93	C	0.986842	-0.690950	0.000036
C94	C	1.486842	-0.190950	0.500036
C95	C	1.072961	-0.157231	0.000093
C96	C	1.572961	0.342769	0.500093
C97	C	1.073845	-0.106810	0.000105
C98	C	1.573845	0.393190	0.500105
C99	C	0.920652	-0.095310	0.000086
C100	C	1.420652	0.404690	0.500086
C101	C	0.919768	-0.145727	0.000079
C102	C	1.419768	0.354273	0.500079
C103	C	0.995930	-0.176686	0.000080
C104	C	1.495930	0.323314	0.500080
O105	O	0.853269	-0.220600	0.000085
O106	O	1.353269	0.279400	0.500085
O107	O	1.136697	-0.241921	0.000071
O108	O	1.636697	0.258079	0.500071
C109	C	1.067536	-0.464774	0.000052
C110	C	1.567536	0.035226	0.500052
C111	C	0.990498	-0.484228	0.000037
C112	C	1.490498	0.015772	0.500037
C113	C	0.914350	-0.453268	0.000031
C114	C	1.414350	0.046732	0.500031
C115	C	0.989607	-0.534647	0.000037
C116	C	1.489607	-0.034647	0.500037
C117	C	1.065754	-0.565608	0.000044
C118	C	1.565754	-0.065608	0.500044
C119	C	1.142794	-0.546150	0.000050
C120	C	1.642794	-0.046150	0.500050
C121	C	1.143684	-0.495734	0.000058
C122	C	1.643684	0.004266	0.500058
C123	C	0.837311	-0.472725	0.000024
C124	C	1.337311	0.027275	0.500024
C125	C	0.836427	-0.523141	0.000017
C126	C	1.336427	-0.023141	0.500017
C127	C	0.912575	-0.554102	0.000023
C128	C	1.412575	-0.054102	0.500023
C129	C	1.144993	0.062658	0.000084
C130	C	1.644993	0.562658	0.500084
C131	C	1.238227	0.063615	0.000086
C132	C	1.738227	0.563615	0.500086
C133	C	0.984099	0.154554	0.000049
C134	C	1.484099	0.654554	0.500049
C135	C	0.985059	0.208213	0.000036
C136	C	1.485059	0.708213	0.500036
N137	N	0.991352	0.066198	0.230749
N138	N	1.491352	0.566198	0.730749
N139	N	0.991411	0.066162	-0.230607
N140	N	1.491411	0.566162	0.269393
C141	C	0.931267	0.100495	0.470419
C142	C	1.431267	0.600495	0.970419
C143	C	1.007044	0.109879	0.529758
C144	C	1.507044	0.609879	1.029758
C145	C	0.991374	0.066186	0.412356
C146	C	1.491374	0.566186	0.912356
C147	C	0.915617	0.056813	0.529759
C148	C	1.415617	0.556813	1.029759
C149	C	0.991388	0.066176	0.587780
C150	C	1.491388	0.566176	1.087780
C151	C	1.067190	0.075592	0.470389
C152	C	1.567190	0.575592	0.970389
C153	C	0.975712	0.022507	0.470385
C154	C	1.475712	0.522507	0.970385
C155	C	1.051545	0.031872	0.529697
C156	C	1.551545	0.531872	1.029697
C157	C	0.991365	0.066194	0.311299
C158	C	1.491365	0.566194	0.811299
C159	C	0.991406	0.066168	0.688836
C160	C	1.491406	0.566168	1.188836
H161	H	0.564143	-0.018169	-0.000003
H162	H	1.064143	0.481831	0.499997
Cl163	Cl	0.438364	0.012478	-0.168215
Cl164	Cl	0.938364	0.512478	0.331785
Cl165	Cl	1.168709	-0.196143	0.000095
Cl166	Cl	1.668709	0.303857	0.500095
Cl167	Cl	1.243215	-0.320038	0.000076
Cl168	Cl	1.743215	0.179962	0.500076
H169	H	0.533491	0.109118	-0.134801
H170	H	1.033491	0.609118	0.365199
Cl171	Cl	0.544435	0.119844	0.168323
Cl172	Cl	1.044435	0.619844	0.668323
H173	H	0.777965	-0.296260	0.000009
H174	H	1.277965	0.203740	0.500009
Cl175	Cl	0.438378	0.012499	0.168344
Cl176	Cl	0.938378	0.512499	0.668344
H177	H	0.962429	-0.014416	0.444285
H178	H	1.462429	0.485584	0.944285
Cl179	Cl	0.816695	0.044579	0.570025
Cl180	Cl	1.316695	0.544579	1.070025
Cl181	Cl	0.742219	-0.396332	-0.000003
Cl182	Cl	1.242219	0.103668	0.499997
Cl183	Cl	0.814057	-0.671492	0.000013
Cl184	Cl	1.314057	-0.171492	0.500013
H185	H	1.020304	0.146814	0.555837
H186	H	1.520304	0.646814	1.055837
Cl187	Cl	1.166135	0.087892	0.430300
Cl188	Cl	1.666135	0.587892	0.930300
Cl189	Cl	0.400493	0.171622	-0.000066
Cl190	Cl	0.900493	0.671622	0.499934
Cl191	Cl	1.130114	-0.012932	0.569637
Cl192	Cl	1.630114	0.487068	1.069637
Cl193	Cl	0.824929	-0.056379	0.000076
Cl194	Cl	1.324929	0.443621	0.500076
H195	H	1.136586	-0.090973	0.000120
H196	H	1.636586	0.409027	0.500120
Cl197	Cl	1.241206	-0.433817	0.000084
Cl198	Cl	1.741206	0.066183	0.500084
H199	H	1.125732	-0.706075	0.000062
H200	H	1.625732	-0.206075	0.500062
Cl201	Cl	0.822912	-0.170184	0.000077
Cl202	Cl	1.322912	0.329816	0.500077
H203	H	1.124107	-0.797547	0.000049
H204	H	1.624107	-0.297547	0.500049
Cl205	Cl	1.240545	-0.471285	0.000070
Cl206	Cl	1.740545	0.028715	0.500070
H207	H	0.846175	-0.776661	0.000032
H208	H	1.346175	-0.276661	0.500032
H209	H	1.204796	-0.571368	0.000059
H210	H	1.704796	-0.071368	0.500059
Cl211	Cl	0.739561	-0.547591	0.000002
Cl212	Cl	1.239561	-0.047591	0.500002
Cl213	Cl	0.741572	-0.433810	0.000014
Cl214	Cl	1.241572	0.066190	0.500014
H215	H	0.880487	0.129533	0.444392
H216	H	1.380487	0.629533	0.944392
