data_functionalizedCrystal
_audit_creation_method	'MofGen! by Chris Wilmer'
_symmetry_space_group_name_H-M	'P1'
_symmetry_Int_Tables_number	1
_symmetry_cell_setting	triclinic
loop_
_symmetry_equiv_pos_as_xyz
  x,y,z
_cell_length_a	18.627263
_cell_length_b	18.627226
_cell_length_c	18.627297
_cell_angle_alpha	120.004257
_cell_angle_beta	89.999758
_cell_angle_gamma	60.000314
loop_
_atom_site_label
_atom_site_type_symbol
_atom_site_fract_x
_atom_site_fract_y
_atom_site_fract_z
O1	O	-0.492472	-0.633254	-0.021364
O2	O	-0.388078	-0.486243	0.021251
O3	O	-0.388073	-0.633252	-0.125763
O4	O	-0.492476	-0.486246	0.125650
O5	O	-0.507480	-0.513842	-0.125750
O6	O	-0.507484	-0.366834	0.021264
O7	O	-0.611878	-0.513845	-0.021351
Zn8	Zn	-0.578640	-0.421380	-0.000042
Zn9	Zn	-0.421316	-0.578708	-0.000059
O10	O	-0.611883	-0.366836	0.125663
C11	C	-0.386972	-0.226052	0.030933
C12	C	-0.431269	-0.137457	0.024830
C13	C	-0.430378	-0.269043	0.031546
C14	C	-0.256974	-0.356049	0.030940
C15	C	-0.162277	-0.406446	0.024843
C16	C	-0.300578	-0.398842	0.031553
C17	C	-0.386977	-0.356045	0.030945
C18	C	-0.431279	-0.406439	0.024854
C19	C	-0.300573	-0.269046	0.031541
C20	C	-0.386972	-0.644049	-0.387063
C21	C	-0.431273	-0.593650	-0.431359
C22	C	-0.300570	-0.731061	-0.430476
C23	C	-0.386972	-0.644049	-0.257062
C24	C	-0.431274	-0.593649	-0.162360
C25	C	-0.300570	-0.731060	-0.300672
C26	C	-0.256967	-0.774057	-0.387075
C27	C	-0.162267	-0.862663	-0.431384
C28	C	-0.430378	-0.601250	-0.300660
C29	C	-0.612967	-0.774064	-0.031073
C30	C	-0.568663	-0.862671	-0.024986
C31	C	-0.699367	-0.731067	-0.031676
C32	C	-0.612973	-0.644053	-0.031059
C33	C	-0.568675	-0.593652	-0.024958
C34	C	-0.699373	-0.601254	-0.031662
C35	C	-0.742973	-0.644055	-0.031059
C36	C	-0.837671	-0.593656	-0.024957
C37	C	-0.569565	-0.731065	-0.031676
O38	O	0.125729	-0.513858	-0.021361
O39	O	-0.125673	-0.366850	0.021239
O40	O	0.021337	-0.513878	-0.125769
O41	O	-0.021281	-0.366830	0.125647
O42	O	0.021332	-0.633272	-0.125758
O43	O	-0.125678	-0.486244	0.021250
O44	O	0.125723	-0.633252	-0.021351
Zn45	Zn	0.000022	-0.578705	-0.000049
Zn46	Zn	0.000029	-0.421397	-0.000063
O47	O	-0.021286	-0.486224	0.125658
O48	O	-0.611861	0.104325	-0.021388
O49	O	-0.507471	-0.104455	0.021231
O50	O	-0.507458	-0.104488	-0.125785
O51	O	-0.611874	0.104358	0.125627
O52	O	-0.388054	-0.104491	-0.125790
O53	O	-0.388067	-0.104458	0.021226
O54	O	-0.492458	0.104323	-0.021393
Zn55	Zn	-0.421305	-0.000068	-0.000084
Zn56	Zn	-0.578624	-0.000065	-0.000078
O57	O	-0.492471	0.104355	0.125623
O58	O	0.125740	-1.104478	-0.492601
O59	O	-0.125666	-0.895666	-0.388186
O60	O	0.021333	-0.895665	-0.388184
O61	O	-0.021259	-1.104480	-0.492604
O62	O	0.021336	-0.895668	-0.507587
O63	O	-0.125662	-0.895670	-0.507590
O64	O	0.125743	-1.104481	-0.612004
Zn65	Zn	0.000041	-1.000076	-0.578755
Zn66	Zn	0.000036	-1.000072	-0.421436
O67	O	-0.021255	-1.104483	-0.612007
O68	O	-0.492482	-0.486240	-0.611947
O69	O	-0.388073	-0.633252	-0.507566
O70	O	-0.388080	-0.486241	-0.507549
O71	O	-0.492474	-0.633251	-0.611964
O72	O	-0.507485	-0.366833	-0.388135
O73	O	-0.507478	-0.513845	-0.388151
O74	O	-0.611886	-0.366832	-0.492533
Zn75	Zn	-0.578640	-0.421380	-0.421382
Zn76	Zn	-0.421319	-0.578705	-0.578716
O77	O	-0.611879	-0.513844	-0.492549
C78	C	-0.742991	-0.226029	0.386974
C79	C	-0.837691	-0.137423	0.431282
C80	C	-0.699388	-0.269025	0.430375
C81	C	-0.612985	-0.356038	0.256962
C82	C	-0.568682	-0.406439	0.162260
C83	C	-0.569580	-0.398837	0.300561
C84	C	-0.612987	-0.356036	0.386964
C85	C	-0.568686	-0.406435	0.431260
C86	C	-0.699387	-0.269027	0.300571
C87	C	0.031017	-0.774100	-0.387066
C88	C	0.024915	-0.862701	-0.431360
C89	C	0.031625	-0.731114	-0.430477
C90	C	0.031024	-0.644088	-0.257067
C91	C	0.024932	-0.593680	-0.162367
C92	C	0.031633	-0.601300	-0.300676
C93	C	0.031022	-0.644107	-0.387077
C94	C	0.024926	-0.593719	-0.431384
C95	C	0.031627	-0.731095	-0.300664
C96	C	-0.030971	-0.355995	0.386966
C97	C	-0.024876	-0.406382	0.431273
C98	C	-0.031574	-0.268988	0.430366
C99	C	-0.030974	-0.356014	0.256956
C100	C	-0.024881	-0.406422	0.162255
C101	C	-0.031576	-0.269007	0.300553
C102	C	-0.030965	-0.226002	0.386954
C103	C	-0.024863	-0.137402	0.431249
C104	C	-0.031582	-0.398802	0.300565
C105	C	-0.256934	-0.356141	-0.387100
C106	C	-0.162233	-0.406545	-0.431403
C107	C	-0.300533	-0.398945	-0.430504
C108	C	-0.386944	-0.226117	-0.257092
C109	C	-0.431252	-0.137499	-0.162391
C110	C	-0.430346	-0.269118	-0.300695
C111	C	-0.386935	-0.356140	-0.387097
C112	C	-0.431233	-0.406544	-0.431397
C113	C	-0.300542	-0.269119	-0.300697
O114	O	-0.021314	-0.366913	-0.492588
O115	O	0.021311	-0.513904	-0.388181
O116	O	-0.125701	-0.366928	-0.388190
O117	O	0.125699	-0.513889	-0.492578
O118	O	-0.125670	-0.486364	-0.507605
O119	O	0.021343	-0.633340	-0.507596
O120	O	-0.021282	-0.486349	-0.612002
Zn121	Zn	0.000035	-0.578808	-0.578759
Zn122	Zn	-0.000006	-0.421445	-0.421425
O123	O	0.125730	-0.633325	-0.611993
C124	C	-0.612996	0.356008	0.386935
C125	C	-0.568699	0.406412	0.431236
C126	C	-0.699398	0.398812	0.430342
C127	C	-0.612985	0.225984	0.256930
C128	C	-0.568677	0.137366	0.162229
C129	C	-0.699388	0.268986	0.300534
C130	C	-0.742997	0.356007	0.386937
C131	C	-0.837697	0.406411	0.431239
C132	C	-0.569585	0.268986	0.300533
H133	H	-0.265572	-0.233058	0.032521
H134	H	-0.501342	-0.233117	-0.265687
C135	C	-0.746035	-0.779116	-0.033172
C136	C	-0.770155	-0.807980	-0.108820
C137	C	-0.813141	-0.852251	-0.110237
H138	H	-0.797164	-0.731461	0.017486
H139	H	-0.707694	-0.837241	-0.033494
H140	H	-0.808495	-0.749863	-0.108490
H141	H	-0.719043	-0.855646	-0.159491
H142	H	-0.774799	-0.910376	-0.110559
H143	H	-0.864265	-0.804590	-0.059575
H144	H	-0.829504	-0.871849	-0.161567
H145	H	-0.032550	-0.233036	0.265537
C146	C	-0.253920	-0.778844	-0.253858
C147	C	-0.249631	-0.708287	-0.178631
C148	C	-0.206661	-0.752261	-0.135484
H149	H	-0.196084	-0.836905	-0.292133
H150	H	-0.285529	-0.798459	-0.237328
H151	H	-0.218021	-0.688686	-0.195162
H152	H	-0.307454	-0.650223	-0.140336
H153	H	-0.238270	-0.771876	-0.118955
H154	H	-0.148828	-0.810322	-0.173766
H155	H	-0.203752	-0.704393	-0.084434
H156	H	-0.498577	-0.767050	-0.032651
C157	C	-0.745955	-0.508030	-0.033152
C158	C	-0.699179	-0.530677	-0.108793
C159	C	-0.742070	-0.444837	-0.110209
H160	H	-0.748987	-0.453876	0.017511
H161	H	-0.803749	-0.488603	-0.033482
H162	H	-0.641400	-0.550090	-0.108456
H163	H	-0.696144	-0.584817	-0.159469
H164	H	-0.799865	-0.425409	-0.110538
H165	H	-0.745100	-0.390688	-0.059542
H166	H	-0.710344	-0.460193	-0.161534
C167	C	-0.474887	-0.492118	0.254038
C168	C	-0.421884	-0.469511	0.300825
C169	C	-0.334657	-0.555425	0.258007
H170	H	-0.455032	-0.511670	0.196222
H171	H	-0.471524	-0.546180	0.251087
H172	H	-0.425242	-0.415466	0.303767
H173	H	-0.441710	-0.449971	0.358640
H174	H	-0.331295	-0.609487	0.255056
H175	H	-0.314812	-0.574970	0.200192
H176	H	-0.298686	-0.540100	0.289750
H177	H	-0.265567	-0.767045	-0.501469
H178	H	0.032606	-0.531282	-0.265668
H179	H	-0.734394	-0.233024	0.501373
C180	C	-0.746270	0.492285	0.524951
C181	C	-0.821510	0.571761	0.529602
C182	C	-0.864730	0.657880	0.616736
H183	H	-0.708047	0.511909	0.544789
H184	H	-0.762788	0.477168	0.561066
H185	H	-0.804990	0.586877	0.493499
H186	H	-0.859754	0.552170	0.509781
H187	H	-0.881248	0.642763	0.652851
H188	H	-0.826500	0.677495	0.636567
H189	H	-0.915789	0.711813	0.619904
C190	C	0.032738	-0.778896	-0.253874
C191	C	-0.042104	-0.708342	-0.178645
C192	C	-0.041122	-0.752339	-0.135528
H193	H	0.083946	-0.798545	-0.237340
H194	H	0.032948	-0.836948	-0.292191
H195	H	-0.042307	-0.650308	-0.140336
H196	H	-0.093324	-0.688687	-0.195154
H197	H	-0.040912	-0.810391	-0.173845
H198	H	0.010089	-0.771987	-0.119000
H199	H	-0.091905	-0.704479	-0.084485
H200	H	-0.734395	-0.233037	0.265573
C201	C	-0.032727	-0.220968	0.524976
C202	C	0.042099	-0.220553	0.529636
C203	C	0.041066	-0.176310	0.616772
H204	H	-0.032947	-0.258977	0.544810
H205	H	-0.083963	-0.153214	0.561091
H206	H	0.093322	-0.288296	0.493534
H207	H	0.042335	-0.182539	0.509819
H208	H	-0.010171	-0.108555	0.652887
H209	H	0.040843	-0.214323	0.636599
H210	H	0.091829	-0.176014	0.619946
C211	C	-0.474866	0.220909	0.253953
C212	C	-0.421874	0.192060	0.300733
C213	C	-0.334615	0.147752	0.257844
H214	H	-0.471380	0.268541	0.250923
H215	H	-0.455100	0.162775	0.196155
H216	H	-0.441633	0.250187	0.358516
H217	H	-0.425333	0.144418	0.303766
H218	H	-0.314850	0.089617	0.200046
H219	H	-0.331139	0.195389	0.254816
H220	H	-0.298649	0.128164	0.289573
H221	H	0.032609	-0.767116	-0.501471
H222	H	-0.501360	-0.531216	-0.265642
C223	C	-0.032747	-0.492251	0.253943
C224	C	0.042083	-0.571777	0.249647
C225	C	0.041037	-0.657873	0.206712
H226	H	-0.032982	-0.511829	0.196107
H227	H	-0.083981	-0.477131	0.285581
H228	H	0.093303	-0.586897	0.218007
H229	H	0.042333	-0.552233	0.307469
H230	H	-0.010197	-0.642752	0.238351
H231	H	0.040799	-0.677441	0.148880
H232	H	0.091803	-0.711838	0.203799
H233	H	-0.265514	-0.468978	-0.501492
H234	H	-0.265534	-0.233135	-0.265694
C235	C	-0.746132	0.221025	0.254028
C236	C	-0.770294	0.192218	0.300841
C237	C	-0.813371	0.148052	0.258043
H238	H	-0.707858	0.162891	0.196215
H239	H	-0.797251	0.268753	0.251069
H240	H	-0.719183	0.144493	0.303790
H241	H	-0.808578	0.250333	0.358652
H242	H	-0.864490	0.195780	0.255083
H243	H	-0.775092	0.089922	0.200231
H244	H	-0.829777	0.128510	0.289803
C245	C	-0.253936	-0.492059	0.033053
C246	C	-0.229807	-0.469405	0.108694
C247	C	-0.186856	-0.555241	0.110115
H248	H	-0.202814	-0.546214	-0.017610
H249	H	-0.292302	-0.511488	0.033385
H250	H	-0.191443	-0.449990	0.108353
H251	H	-0.280913	-0.415264	0.159369
H252	H	-0.225222	-0.574670	0.110448
H253	H	-0.135738	-0.609390	0.059449
H254	H	-0.170487	-0.539879	0.161440
H255	H	-0.501371	-0.233048	0.032535
