data_functionalizedCrystal
_audit_creation_method	'MofGen! by Chris Wilmer'
_symmetry_space_group_name_H-M	'P1'
_symmetry_Int_Tables_number	1
_symmetry_cell_setting	triclinic
loop_
_symmetry_equiv_pos_as_xyz
  x,y,z
_cell_length_a	10.489711
_cell_length_b	10.489741
_cell_length_c	9.016244
_cell_angle_alpha	90.007596
_cell_angle_beta	89.998500
_cell_angle_gamma	84.533091
loop_
_atom_site_label
_atom_site_type_symbol
_atom_site_fract_x
_atom_site_fract_y
_atom_site_fract_z
O1	O	1.694061	0.179794	0.123393
O2	O	1.322861	0.196727	0.123384
O3	O	1.516907	0.002662	0.123380
O4	O	1.500014	0.373859	0.123397
O5	O	1.516920	0.002641	-0.123301
O6	O	1.322873	0.196706	-0.123296
O7	O	1.694073	0.179774	-0.123288
Cu8	Cu	1.508474	0.188238	-0.145816
Cu9	Cu	1.508460	0.188263	0.145913
O10	O	1.500027	0.373839	-0.123283
C11	C	1.275334	0.195446	0.000043
C12	C	1.133703	0.191644	0.000039
C13	C	0.951317	0.308348	0.000062
C14	C	1.043456	0.250063	0.121683
C15	C	1.043441	0.250011	-0.121525
C16	C	0.973505	0.126520	0.121792
C17	C	0.973481	0.126486	-0.121525
C18	C	1.065593	0.068111	0.000127
C19	C	1.515638	-0.044880	0.000041
C20	C	1.511820	-0.186509	0.000043
C21	C	1.388354	-0.254636	0.000051
C22	C	1.446684	-0.346775	-0.121574
C23	C	1.446702	-0.346729	0.121634
C24	C	1.570202	-0.276782	-0.121682
C25	C	1.570202	-0.276727	0.121635
C26	C	1.628622	-0.368839	-0.000020
C27	C	1.741600	0.181055	0.000057
C28	C	1.883231	0.184857	0.000070
C29	C	1.501296	0.421381	0.000059
C30	C	1.505114	0.563010	0.000067
N31	N	1.508450	0.188270	0.351099
N32	N	1.508494	0.188220	-0.351002
C33	C	1.404776	0.292182	0.586133
C34	C	1.404376	0.291937	0.414242
C35	C	1.478505	0.054802	0.413456
C36	C	1.477784	0.055382	0.585401
C37	C	1.642453	0.216544	0.585621
C38	C	1.641564	0.219590	0.413667
H39	H	0.942463	0.074268	-0.224357
H40	H	1.719647	0.140753	0.626279
F41	F	1.083914	0.318324	-0.255919
F42	F	1.761424	-0.433457	-0.000100
H43	H	1.550408	-0.024381	0.626983
F44	F	1.574556	-0.048817	0.359993
H45	H	0.901626	0.409850	0.000187
H46	H	1.381888	0.029522	0.370382
H47	H	0.942691	0.074326	0.224735
F48	F	1.378384	-0.387210	0.256026
H49	H	1.664256	0.317791	0.372939
F50	F	1.427852	0.421550	0.359135
F51	F	1.378411	-0.387314	-0.255978
F52	F	1.130249	-0.064676	0.000202
F53	F	1.638422	-0.236143	0.256045
H54	H	1.286841	-0.204974	-0.000074
F55	F	1.350051	0.023074	0.637826
F56	F	1.638437	-0.236507	-0.256231
F57	F	1.274452	0.268093	0.360474
F58	F	1.083949	0.318368	0.256091
H59	H	1.422472	0.391657	0.627516
H60	H	1.671019	0.311857	0.629018
H61	H	1.305946	0.274178	0.629344
H62	H	1.722422	0.148912	0.370682
