data_functionalizedCrystal
_audit_creation_method	'MofGen! by Chris Wilmer'
_symmetry_space_group_name_H-M	'P1'
_symmetry_Int_Tables_number	1
_symmetry_cell_setting	triclinic
loop_
_symmetry_equiv_pos_as_xyz
  x,y,z
_cell_length_a	15.995350
_cell_length_b	15.995350
_cell_length_c	15.072220
_cell_angle_alpha	90.001101
_cell_angle_beta	89.991149
_cell_angle_gamma	83.492375
loop_
_atom_site_label
_atom_site_type_symbol
_atom_site_fract_x
_atom_site_fract_y
_atom_site_fract_z
O1	O	1.110996	0.107921	-0.073703
O2	O	1.610996	0.607921	0.426297
O3	O	0.867221	0.121249	-0.073721
O4	O	1.367221	0.621249	0.426279
O5	O	0.995772	-0.007303	-0.073710
O6	O	1.495772	0.492697	0.426290
O7	O	0.982444	0.236472	-0.073713
O8	O	1.482444	0.736472	0.426287
O9	O	0.995740	-0.007296	0.073855
O10	O	1.495740	0.492704	0.573855
O11	O	0.867189	0.121256	0.073844
O12	O	1.367189	0.621256	0.573844
O13	O	1.110964	0.107928	0.073862
O14	O	1.610964	0.607928	0.573862
Zn15	Zn	0.989071	0.114593	0.097283
Zn16	Zn	1.489071	0.614593	0.597283
Zn17	Zn	0.989113	0.114584	-0.097141
Zn18	Zn	1.489113	0.614584	0.402859
O19	O	0.982413	0.236480	0.073852
O20	O	1.482413	0.736480	0.573852
C21	C	0.836010	0.120701	0.000060
C22	C	1.336010	0.620701	0.500060
C23	C	0.743060	0.119049	0.000053
C24	C	1.243060	0.619049	0.500053
C25	C	0.995205	-0.038494	0.000070
C26	C	1.495205	0.461506	0.500070
C27	C	0.993553	-0.131444	0.000065
C28	C	1.493553	0.368556	0.500065
C29	C	0.405312	0.113117	0.000071
C30	C	0.905312	0.613117	0.500071
C31	C	0.452746	0.021565	0.000401
C32	C	0.952746	0.521565	0.500401
C33	C	0.549436	0.023217	0.000063
C34	C	1.049436	0.523217	0.500063
C35	C	0.572873	0.116060	0.000063
C36	C	1.072873	0.616060	0.500063
C37	C	0.531804	0.161212	-0.084201
C38	C	1.031804	0.661212	0.415799
C39	C	0.435168	0.158912	-0.084266
C40	C	0.935168	0.658912	0.415734
C41	C	0.434793	0.160812	0.083543
C42	C	0.934793	0.660812	0.583543
C43	C	0.531738	0.160790	0.084651
C44	C	1.031738	0.660790	0.584651
C45	C	0.667570	0.117727	0.000055
C46	C	1.167570	0.617727	0.500055
C47	C	0.310614	0.111452	0.000073
C48	C	0.810614	0.611452	0.500073
C49	C	0.987621	-0.469192	0.000068
C50	C	1.487621	0.030808	0.500068
C51	C	0.896069	-0.421758	-0.000270
C52	C	1.396069	0.078242	0.499730
C53	C	0.897721	-0.325068	0.000063
C54	C	1.397721	0.174932	0.500063
C55	C	0.990564	-0.301631	0.000066
C56	C	1.490564	0.198369	0.500066
C57	C	1.035702	-0.342705	0.084335
C58	C	1.535702	0.157295	0.584335
C59	C	1.033402	-0.439341	0.084405
C60	C	1.533402	0.060659	0.584405
C61	C	1.035330	-0.439707	-0.083404
C62	C	1.535330	0.060293	0.416596
C63	C	1.035308	-0.342761	-0.084518
C64	C	1.535308	0.157239	0.415482
C65	C	0.992231	-0.206934	0.000068
C66	C	1.492231	0.293066	0.500068
C67	C	0.985956	-0.563890	0.000072
C68	C	1.485956	-0.063890	0.500072
C69	C	1.142175	0.108476	0.000080
C70	C	1.642175	0.608476	0.500080
C71	C	1.235125	0.110127	0.000081
C72	C	1.735125	0.610127	0.500081
C73	C	0.982980	0.267671	0.000069
C74	C	1.482980	0.767671	0.500069
C75	C	0.984631	0.360621	0.000069
C76	C	1.484631	0.860621	0.500069
N77	N	0.989049	0.114599	0.229971
N78	N	1.489049	0.614599	0.729971
N79	N	0.989142	0.114571	-0.229830
N80	N	1.489142	0.614571	0.270170
C81	C	0.989112	0.114580	0.589173
C82	C	1.489112	0.614580	1.089173
C83	C	0.920095	0.183135	0.551560
C84	C	1.420095	0.683135	1.051560
C85	C	0.920254	0.183385	0.448735
C86	C	1.420254	0.683385	0.948735
C87	C	0.989080	0.114590	0.410969
C88	C	1.489080	0.614590	0.910969
C89	C	1.076445	0.133671	0.448266
C90	C	1.576445	0.633671	0.948266
C91	C	1.076058	0.134159	0.551124
C92	C	1.576058	0.634159	1.051124
C93	C	0.971542	0.026741	0.551272
C94	C	1.471542	0.526741	1.051272
C95	C	0.969537	0.027327	0.448409
C96	C	1.469537	0.527327	0.948409
C97	C	0.989067	0.114593	0.310255
C98	C	1.489067	0.614593	0.810255
C99	C	0.989130	0.114579	0.689886
C100	C	1.489130	0.614579	1.189886
H101	H	0.577852	-0.012275	0.060467
H102	H	1.077852	0.487725	0.560467
N103	N	0.847795	-0.447695	0.079329
N104	N	1.347795	0.052305	0.579329
H105	H	0.789058	-0.416937	0.078607
H106	H	1.289058	0.083063	0.578607
H107	H	0.844567	-0.510357	0.077208
H108	H	1.344567	-0.010357	0.577208
H109	H	0.931160	0.247952	0.577399
H110	H	1.431160	0.747952	1.077399
H111	H	0.545929	0.229421	-0.087335
H112	H	1.045929	0.729421	0.412665
H113	H	1.092297	0.197002	0.422498
H114	H	1.592297	0.697002	0.922498
N115	N	0.428202	-0.026908	0.080449
N116	N	0.928202	0.473092	0.580449
H117	H	0.386093	0.010004	0.117277
H118	H	0.886093	0.510004	0.617277
H119	H	0.402266	-0.078387	0.060277
H120	H	0.902266	0.421613	0.560277
H121	H	0.560191	0.129845	-0.146912
H122	H	1.060191	0.629845	0.353088
H123	H	1.091540	0.198219	0.575106
H124	H	1.591540	0.698219	1.075106
H125	H	0.854945	0.171953	0.576317
H126	H	1.354945	0.671953	1.076317
H127	H	0.931473	0.248570	0.424121
H128	H	1.431473	0.748570	0.924121
N129	N	1.146104	0.069293	0.415871
N130	N	1.646104	0.569293	0.915871
H131	H	1.121640	0.027038	0.376610
H132	H	1.621640	0.527038	0.876610
H133	H	1.188256	0.098464	0.380984
H134	H	1.688256	0.598464	0.880984
N135	N	1.126049	-0.323987	0.088477
N136	N	1.626049	0.176013	0.588477
H137	H	1.135400	-0.292297	0.144914
H138	H	1.635400	0.207703	0.644914
H139	H	1.164620	-0.378533	0.087606
H140	H	1.664620	0.121467	0.587606
H141	H	1.102831	-0.471468	-0.083968
H142	H	1.602831	0.028532	0.416032
N143	N	0.994143	-0.305098	0.167395
N144	N	1.494143	0.194902	0.667395
H145	H	0.933085	-0.315678	0.168229
H146	H	1.433085	0.184322	0.668229
H147	H	1.023693	-0.331943	0.221218
H148	H	1.523693	0.168057	0.721218
N149	N	0.850731	-0.287419	-0.079958
N150	N	1.350731	0.212581	0.420042
H151	H	0.851720	-0.224396	-0.079896
H152	H	1.351720	0.275604	0.420104
H153	H	0.878508	-0.312023	-0.135764
H154	H	1.378508	0.187977	0.364236
H155	H	1.021872	-0.024275	0.575595
H156	H	1.521872	0.475725	1.075595
H157	H	1.016540	-0.026078	0.422704
H158	H	1.516540	0.473922	0.922704
N159	N	0.407580	0.121174	0.168150
N160	N	0.907580	0.621174	0.668150
H161	H	0.375859	0.071893	0.153224
H162	H	0.875859	0.571893	0.653224
H163	H	0.458832	0.101007	0.204712
H164	H	0.958832	0.601007	0.704712
N165	N	0.410931	0.115276	-0.167692
N166	N	0.910931	0.615276	0.332308
H167	H	0.348041	0.113345	-0.168567
H168	H	0.848041	0.613345	0.331433
H169	H	0.428093	0.147236	-0.221247
H170	H	0.928093	0.647236	0.278753
H171	H	0.559041	0.127829	0.146989
H172	H	1.059041	0.627829	0.646989
H173	H	0.433165	-0.014865	-0.059694
H174	H	0.933165	0.485135	0.440306
N175	N	0.586369	-0.024106	-0.080091
N176	N	1.086369	0.475894	0.419909
H177	H	0.627808	-0.072830	-0.060148
H178	H	1.127808	0.427170	0.439852
H179	H	0.539781	-0.046067	-0.115315
H180	H	1.039781	0.453933	0.384685
N181	N	0.884402	0.008174	0.416113
N182	N	1.384402	0.508174	0.916113
H183	H	0.891042	-0.045738	0.380632
H184	H	1.391042	0.454262	0.880632
H185	H	0.846544	0.001663	0.468705
H186	H	1.346544	0.501663	0.968705
H187	H	1.005411	-0.460250	-0.147274
H188	H	1.505411	0.039750	0.352726
H189	H	1.129019	0.086195	0.576003
H190	H	1.629019	0.586195	1.076003
H191	H	0.859490	-0.440293	-0.060701
H192	H	1.359490	0.059707	0.439299
H193	H	0.909219	0.008392	0.577258
H194	H	1.409219	0.508392	1.077258
N195	N	0.392444	0.247943	-0.089296
N196	N	0.892444	0.747943	0.410704
H197	H	0.436411	0.288508	-0.091471
H198	H	0.936411	0.788508	0.408529
H199	H	0.356552	0.254668	-0.144516
H200	H	0.856552	0.754668	0.355484
H201	H	0.547102	0.228494	0.089741
H202	H	1.047102	0.728494	0.589741
H203	H	0.403031	0.228312	0.084113
H204	H	0.903031	0.728312	0.584113
H205	H	1.000460	-0.457639	0.147395
H206	H	1.500460	0.042361	0.647395
N207	N	0.991650	-0.306618	-0.167101
N208	N	1.491650	0.193382	0.332899
H209	H	0.943091	-0.263777	-0.149805
H210	H	1.443091	0.236223	0.350195
H211	H	1.032882	-0.278621	-0.204495
H212	H	1.532882	0.221379	0.295505
H213	H	0.861974	-0.297200	0.060568
H214	H	1.361974	0.202800	0.560568
H215	H	1.103014	-0.327400	-0.089603
H216	H	1.603014	0.172600	0.410397
N217	N	1.122427	-0.482073	0.089487
N218	N	1.622427	0.017927	0.589487
H219	H	1.155432	-0.465280	0.036524
H220	H	1.655432	0.034720	0.536524
H221	H	1.149802	-0.464431	0.145805
H222	H	1.649802	0.035569	0.645805
N223	N	0.834236	0.168330	0.415324
N224	N	1.334236	0.668330	0.915324
H225	H	0.795873	0.161472	0.467415
H226	H	1.295873	0.661472	0.967415
H227	H	0.810176	0.217868	0.378201
H228	H	1.310176	0.717868	0.878201
