data_functionalizedCrystal
_audit_creation_method	'MofGen! by Chris Wilmer'
_symmetry_space_group_name_H-M	'P1'
_symmetry_Int_Tables_number	1
_symmetry_cell_setting	triclinic
loop_
_symmetry_equiv_pos_as_xyz
  x,y,z
_cell_length_a	21.295420
_cell_length_b	21.295417
_cell_length_c	18.050582
_cell_angle_alpha	89.973245
_cell_angle_beta	89.984936
_cell_angle_gamma	90.028757
loop_
_atom_site_label
_atom_site_type_symbol
_atom_site_fract_x
_atom_site_fract_y
_atom_site_fract_z
Zn1	Zn	0.962296	-0.250679	-0.419894
Zn2	Zn	0.962216	-0.355940	-0.295695
Zn3	Zn	0.857036	-0.250685	-0.295718
Zn4	Zn	0.856988	-0.355911	-0.419843
O5	O	0.909634	-0.303304	-0.357787
O6	O	1.050374	-0.264651	-0.403430
O7	O	0.948250	-0.341993	-0.191773
O8	O	0.871053	-0.162595	-0.312221
O9	O	1.050316	-0.341986	-0.312182
O10	O	0.948386	-0.162590	-0.403452
O11	O	0.870975	-0.264662	-0.191790
O12	O	0.768941	-0.264634	-0.312171
O13	O	0.870971	-0.341936	-0.523774
O14	O	0.768905	-0.341943	-0.403366
O15	O	0.948339	-0.264623	-0.523812
O16	O	0.948203	-0.444025	-0.312132
O17	O	0.870893	-0.444004	-0.403343
C18	C	0.746082	-0.303287	-0.357766
C19	C	0.676114	-0.303294	-0.357774
C20	C	0.176654	-0.343632	-0.405226
C21	C	0.242397	-0.343633	-0.405218
C22	C	0.275275	-0.303318	-0.357811
C23	C	0.242405	-0.263011	-0.310394
C24	C	0.176664	-0.263017	-0.310398
N25	N	0.378516	-0.248201	-0.352227
N26	N	0.440968	-0.248197	-0.352228
C27	C	0.473349	-0.303300	-0.357795
N28	N	0.440921	-0.358407	-0.363376
N29	N	0.378463	-0.358410	-0.363379
C30	C	0.346560	-0.303308	-0.357801
C31	C	0.577497	-0.343607	-0.405196
C32	C	0.643241	-0.343609	-0.405183
C33	C	0.643248	-0.262982	-0.310363
C34	C	0.577505	-0.262986	-0.310372
C35	C	0.544634	-0.303298	-0.357793
C36	C	0.909551	-0.466855	-0.357746
C37	C	0.909574	-0.536823	-0.357753
C38	C	0.949865	-0.569680	-0.310308
C39	C	0.949894	-0.635423	-0.310325
C40	C	0.909621	-0.668306	-0.357779
C41	C	0.869327	-0.635441	-0.405233
C42	C	0.869304	-0.569700	-0.405220
N43	N	0.854554	-0.771570	-0.363433
N44	N	0.854578	-0.834022	-0.363441
C45	C	0.909692	-0.866380	-0.357822
N46	N	0.964782	-0.833929	-0.352179
N47	N	0.964756	-0.771471	-0.352168
C48	C	0.909643	-0.739591	-0.357798
C49	C	0.950019	-0.970523	-0.310392
C50	C	0.950049	-1.036267	-0.310414
C51	C	0.869477	-1.036284	-0.405318
C52	C	0.869452	-0.970541	-0.405300
C53	C	0.909722	-0.937665	-0.357833
C54	C	1.073824	-0.303321	-0.357809
C55	C	1.143792	-0.303329	-0.357818
C56	C	0.909659	-0.303276	-0.551493
C57	C	0.909669	-0.303264	-0.634039
C58	C	0.909734	-0.139113	-0.357845
C59	C	0.909777	-0.069145	-0.357869
C60	C	0.867628	-0.345249	-0.833469
C61	C	0.925059	-0.360639	-0.882859
C62	C	0.909700	-0.303216	-0.785169
C63	C	0.852301	-0.287809	-0.882861
C64	C	0.909725	-0.303170	-0.931154
C65	C	0.967161	-0.318635	-0.833472
C66	C	0.894365	-0.245779	-0.833469
C67	C	0.951835	-0.261146	-0.882837
C68	C	0.909685	-0.303243	-0.701071
C69	C	0.909747	-0.303143	-1.015251
C70	C	0.909646	-0.303286	-0.164835
C71	C	0.909757	-0.303121	-0.082290
H72	H	0.149894	-0.376460	-0.443837
H73	H	0.982657	-0.542914	-0.271660
Br74	Br	0.132062	-0.208314	-0.246054
H75	H	0.836688	-1.063056	-0.443959
H76	H	1.015727	-0.331702	-0.811869
Br77	Br	0.946706	-0.441564	-0.919019
Br78	Br	1.011218	-0.201867	-0.918743
Br79	Br	1.004579	-0.680024	-0.245931
Br80	Br	0.872693	-0.164874	-0.797280
H81	H	0.269158	-0.376453	-0.443826
H82	H	0.669996	-0.376433	-0.443786
Br83	Br	0.814676	-0.680066	-0.469641
Br84	Br	0.808382	-0.404569	-0.797338
Br85	Br	0.814619	-0.525105	-0.469616
H86	H	0.982811	-0.943754	-0.271744
Br87	Br	0.771380	-0.266121	-0.919023
H88	H	0.550749	-0.230164	-0.271770
H89	H	0.269178	-0.230188	-0.271793
H90	H	0.550732	-0.376433	-0.443808
Br91	Br	1.004742	-1.080860	-0.246026
Br92	Br	0.814766	-0.925946	-0.469692
Br93	Br	0.687860	-0.208276	-0.246013
