data_functionalizedCrystal
_audit_creation_method	'MofGen! by Chris Wilmer'
_symmetry_space_group_name_H-M	'P1'
_symmetry_Int_Tables_number	1
_symmetry_cell_setting	triclinic
loop_
_symmetry_equiv_pos_as_xyz
  x,y,z
_cell_length_a	12.827893
_cell_length_b	16.120444
_cell_length_c	12.827885
_cell_angle_alpha	87.135329
_cell_angle_beta	90.019272
_cell_angle_gamma	92.926466
loop_
_atom_site_label
_atom_site_type_symbol
_atom_site_fract_x
_atom_site_fract_y
_atom_site_fract_z
Zn1	Zn	1.576496	-0.331868	0.611901
Zn2	Zn	1.909829	0.001466	0.945234
Zn3	Zn	2.243163	0.334799	1.278567
Zn4	Zn	1.567494	-0.471303	0.446006
Zn5	Zn	1.900827	-0.137970	0.779339
Zn6	Zn	2.234161	0.195363	1.112673
Zn7	Zn	1.401735	-0.331908	0.437177
Zn8	Zn	1.735068	0.001425	0.770510
Zn9	Zn	2.068402	0.334758	1.103844
Zn10	Zn	1.392831	-0.471241	0.620702
Zn11	Zn	1.726164	-0.137908	0.954035
Zn12	Zn	2.059497	0.195425	1.287369
O13	O	1.484639	-0.401580	0.528946
O14	O	1.817972	-0.068247	0.862280
O15	O	2.151306	0.265086	1.195613
O16	O	1.721537	-0.350373	0.589906
O17	O	2.054871	-0.017040	0.923239
O18	O	2.388204	0.316294	1.256573
O19	O	1.545465	-0.452855	0.298601
O20	O	1.878798	-0.119522	0.631935
O21	O	2.212132	0.213811	0.965268
O22	O	1.432411	-0.215237	0.452976
O23	O	1.765745	0.118096	0.786309
O24	O	2.099078	0.451430	1.119643
O25	O	1.714924	-0.452816	0.468024
O26	O	2.048257	-0.119483	0.801357
O27	O	2.381590	0.213851	1.134691
O28	O	1.560808	-0.215207	0.581345
O29	O	1.894141	0.118126	0.914678
O30	O	2.227474	0.451459	1.248011
O31	O	1.423682	-0.350442	0.292115
O32	O	1.757016	-0.017109	0.625448
O33	O	2.090349	0.316224	0.958781
O34	O	1.254318	-0.350382	0.461510
O35	O	1.587652	-0.017049	0.794844
O36	O	1.920985	0.316285	1.128177
O37	O	1.417235	-0.452710	0.765768
O38	O	1.750568	-0.119377	1.099101
O39	O	2.083902	0.213956	1.432435
O40	O	1.247776	-0.452750	0.596346
O41	O	1.581110	-0.119416	0.929679
O42	O	1.914443	0.213917	1.263012
O43	O	1.552173	-0.350313	0.759302
O44	O	1.885507	-0.016980	1.092635
O45	O	2.218840	0.316354	1.425968
O46	O	1.536831	-0.587961	0.476558
O47	O	1.870164	-0.254628	0.809892
O48	O	2.203497	0.078706	1.143225
O49	O	1.408506	-0.587915	0.604907
O50	O	1.741840	-0.254582	0.938240
O51	O	2.075173	0.078751	1.271573
C52	C	1.213130	-0.401564	0.528926
C53	C	1.546463	-0.068231	0.862259
C54	C	1.879797	0.265103	1.195592
C55	C	1.096976	-0.401577	0.528943
C56	C	1.430309	-0.068244	0.862276
C57	C	1.763643	0.265089	1.195609
C58	C	1.041977	-0.452311	0.595570
C59	C	1.375310	-0.118978	0.928904
C60	C	1.708643	0.214356	1.262237
C61	C	0.921925	-0.452326	0.595590
C62	C	1.255259	-0.118993	0.928923
C63	C	1.588592	0.214341	1.262256
C64	C	1.470754	-0.618188	0.542669
C65	C	1.804087	-0.284855	0.876002
C66	C	2.137420	0.048478	1.209335
C67	C	1.464909	-0.710854	0.548574
C68	C	1.798243	-0.377521	0.881907
C69	C	2.131576	-0.044188	1.215241
C70	C	1.515214	-0.921799	0.498537
C71	C	1.848547	-0.588465	0.831871
C72	C	2.181880	-0.255132	1.165204
C73	C	1.454258	-0.880510	0.559367
C74	C	1.787591	-0.547177	0.892700
C75	C	2.120925	-0.213844	1.226033
C76	C	1.460186	-0.786105	0.553360
C77	C	1.793519	-0.452772	0.886693
C78	C	2.126853	-0.119438	1.220026
C79	C	1.509287	-1.016213	0.504543
C80	C	1.842620	-0.682879	0.837876
C81	C	2.175953	-0.349546	1.171209
C82	C	1.757208	-0.401597	0.528968
C83	C	2.090541	-0.068264	0.862301
C84	C	2.423875	0.265070	1.195635
C85	C	1.873361	-0.401604	0.528977
C86	C	2.206694	-0.068271	0.862311
C87	C	2.540027	0.265063	1.195644
C88	C	1.484715	-0.401500	0.801512
C89	C	1.818048	-0.068167	1.134845
C90	C	2.151382	0.265167	1.468178
C91	C	1.484748	-0.401466	0.917663
C92	C	1.818081	-0.068133	1.250996
C93	C	2.151414	0.265201	1.584329
C94	C	1.498607	-0.184126	0.515194
C95	C	1.831940	0.149207	0.848527
C96	C	2.165273	0.482540	1.181860
C97	C	1.504559	-0.091460	0.509333
C98	C	1.837892	0.241873	0.842666
C99	C	2.171226	0.575206	1.176000
C100	C	1.484627	-0.401600	0.257438
C101	C	1.817960	-0.068266	0.590771
C102	C	2.151294	0.265067	0.924104
C103	C	1.484812	-0.401399	0.141272
C104	C	1.818145	-0.068066	0.474606
C105	C	2.151479	0.265268	0.807939
C106	C	1.551527	-0.350787	0.966247
C107	C	1.884860	-0.017453	1.299580
C108	C	2.218194	0.315880	1.632914
C109	C	1.551562	-0.350750	1.086295
C110	C	1.884895	-0.017417	1.419629
C111	C	2.218229	0.315916	1.752962
H112	H	0.874640	-0.495763	0.652629
H113	H	1.207973	-0.162430	0.985963
H114	H	1.541306	0.170903	1.319296
H115	H	1.397620	-0.916063	0.615955
H116	H	1.730953	-0.582730	0.949289
H117	H	2.064286	-0.249397	1.282622
H118	H	1.083767	-0.495732	0.652602
H119	H	1.417101	-0.162399	0.985936
H120	H	1.750434	0.170934	1.319269
Cl121	Cl	1.639736	-0.283815	0.893257
Cl122	Cl	1.973070	0.049518	1.226591
Cl123	Cl	2.306403	0.382851	1.559924
H124	H	1.571847	-0.886250	0.441951
H125	H	1.905180	-0.552916	0.775285
H126	H	2.238514	-0.219583	1.108618
H127	H	1.608737	-0.307365	1.128089
H128	H	1.942071	0.025969	1.461422
H129	H	2.275404	0.359302	1.794756
Cl130	Cl	0.946354	-0.334542	0.440895
Cl131	Cl	1.279687	-0.001209	0.774228
Cl132	Cl	1.613020	0.332124	1.107561
Cl133	Cl	1.396540	-0.468398	1.076760
Cl134	Cl	1.729873	-0.135065	1.410093
Cl135	Cl	2.063207	0.198268	1.743426
H136	H	1.427595	-0.444822	0.964943
H137	H	1.760928	-0.111489	1.298276
H138	H	2.094262	0.221845	1.631609
H139	H	1.055186	-0.358150	0.471918
H140	H	1.388519	-0.024817	0.805252
H141	H	1.721853	0.308517	1.138585
