data_functionalizedCrystal
_audit_creation_method	'MofGen! by Chris Wilmer'
_symmetry_space_group_name_H-M	'P1'
_symmetry_Int_Tables_number	1
_symmetry_cell_setting	triclinic
loop_
_symmetry_equiv_pos_as_xyz
  x,y,z
_cell_length_a	27.732048
_cell_length_b	15.995350
_cell_length_c	15.072220
_cell_angle_alpha	89.998899
_cell_angle_beta	89.985054
_cell_angle_gamma	96.932485
loop_
_atom_site_label
_atom_site_type_symbol
_atom_site_fract_x
_atom_site_fract_y
_atom_site_fract_z
O1	O	0.641363	-0.099622	-0.073829
O2	O	1.141363	0.400378	0.426171
O3	O	0.500635	-0.114771	-0.073819
O4	O	1.000635	0.385229	0.426181
O5	O	0.574846	0.014741	-0.073823
O6	O	1.074846	0.514741	0.426177
O7	O	0.567152	-0.229134	-0.073824
O8	O	1.067152	0.270866	0.426176
O9	O	0.574827	0.014734	0.073742
O10	O	1.074827	0.514734	0.573742
O11	O	0.500616	-0.114778	0.073746
O12	O	1.000616	0.385222	0.573746
O13	O	0.641344	-0.099630	0.073736
O14	O	1.141344	0.400370	0.573736
Zn15	Zn	0.570977	-0.107205	0.097170
Zn16	Zn	1.070977	0.392795	0.597170
Zn17	Zn	0.571002	-0.107195	-0.097253
Zn18	Zn	1.071002	0.392805	0.402747
O19	O	0.567133	-0.229141	0.073741
O20	O	1.067133	0.270859	0.573741
C21	C	0.574518	0.045928	-0.000042
C22	C	1.074518	0.545928	0.499958
C23	C	0.573565	0.138866	-0.000047
C24	C	1.073565	0.638866	0.499953
C25	C	0.482617	-0.114456	-0.000035
C26	C	0.982617	0.385544	0.499965
C27	C	0.428958	-0.113499	-0.000031
C28	C	0.928958	0.386501	0.499969
C29	C	0.659362	-0.099944	-0.000049
C30	C	1.159362	0.400056	0.499951
C31	C	0.713021	-0.100901	-0.000059
C32	C	1.213021	0.399099	0.499941
C33	C	1.051532	-0.030396	-0.000028
C34	C	1.551532	0.469604	0.499972
C35	C	1.253207	-0.033949	-0.000025
C36	C	1.753207	0.466051	0.499975
O37	O	1.284184	0.030523	0.000013
O38	O	1.784184	0.530523	0.500013
N39	N	1.272662	-0.110744	-0.000028
N40	N	1.772662	0.389256	0.499972
C41	C	1.241694	-0.186656	-0.000026
C42	C	1.741694	0.313344	0.499974
O43	O	1.262870	-0.252057	-0.000019
O44	O	1.762870	0.247943	0.499981
C45	C	1.040020	-0.183103	-0.000022
C46	C	1.540020	0.316897	0.499978
C47	C	1.020569	-0.106303	-0.000028
C48	C	1.520569	0.393697	0.499972
C49	C	1.032079	0.046397	-0.000033
C50	C	1.532079	0.546397	0.499967
C51	C	0.981664	0.047285	-0.000039
C52	C	1.481664	0.547285	0.499961
C53	C	0.950700	-0.028622	-0.000039
C54	C	1.450700	0.471378	0.499961
C55	C	0.970153	-0.105416	-0.000034
C56	C	1.470153	0.394584	0.499966
C57	C	1.009054	-0.259014	-0.000014
C58	C	1.509054	0.240986	0.499986
C59	C	0.958633	-0.258119	-0.000011
C60	C	1.458633	0.241881	0.499989
C61	C	0.939181	-0.181319	-0.000017
C62	C	1.439181	0.318681	0.499983
C63	C	0.888774	-0.180435	-0.000040
C64	C	1.388774	0.319565	0.499960
N65	N	0.869319	-0.103640	-0.000037
N66	N	1.369319	0.396360	0.499963
C67	C	0.900282	-0.027733	-0.000037
C68	C	1.400282	0.472267	0.499963
C69	C	1.347577	-0.188517	-0.000029
C70	C	1.847577	0.311483	0.499971
C71	C	1.397995	-0.189405	-0.000032
C72	C	1.897995	0.310595	0.499968
C73	C	1.409504	-0.036698	-0.000030
C74	C	1.909504	0.463302	0.499970
C75	C	1.359085	-0.035810	-0.000033
C76	C	1.859085	0.464190	0.499967
C77	C	1.328122	-0.111722	-0.000027
C78	C	1.828122	0.388278	0.499973
C79	C	0.794405	-0.025875	-0.000049
C80	C	1.294405	0.474125	0.499951
C81	C	0.743984	-0.024995	-0.000058
C82	C	1.243984	0.475005	0.499942
C83	C	0.732480	-0.177702	-0.000056
C84	C	1.232480	0.322298	0.499944
C85	C	0.782896	-0.178583	-0.000052
C86	C	1.282896	0.321417	0.499948
C87	C	0.813858	-0.102663	-0.000045
C88	C	1.313858	0.397337	0.499955
O89	O	0.857768	-0.244872	-0.000068
O90	O	1.357768	0.255128	0.499932
O91	O	0.879098	0.037658	-0.000024
O92	O	1.379098	0.537658	0.499976
C93	C	1.101948	-0.031284	-0.000022
C94	C	1.601948	0.468716	0.499978
C95	C	1.121400	-0.108078	-0.000017
C96	C	1.621400	0.391922	0.499983
C97	C	1.090437	-0.183984	-0.000018
C98	C	1.590437	0.316016	0.499982
C99	C	1.171818	-0.108966	-0.000020
C100	C	1.671818	0.391034	0.499980
C101	C	1.202782	-0.033060	-0.000019
C102	C	1.702782	0.466940	0.499981
C103	C	1.183327	0.043735	-0.000016
C104	C	1.683327	0.543735	0.499984
C105	C	1.132911	0.044623	-0.000022
C106	C	1.632911	0.544623	0.499978
C107	C	1.109892	-0.260779	-0.000021
C108	C	1.609892	0.239221	0.499979
C109	C	1.160308	-0.261660	-0.000016
C110	C	1.660308	0.238340	0.499984
C111	C	1.191271	-0.185754	-0.000016
C112	C	1.691271	0.314246	0.499984
C113	C	0.567461	-0.260328	-0.000042
C114	C	1.067461	0.239672	0.499958
C115	C	0.568414	-0.353266	-0.000043
C116	C	1.068414	0.146734	0.499957
N117	N	0.570964	-0.107211	0.229859
N118	N	1.070964	0.392789	0.729859
C119	C	0.570140	0.476569	-0.000044
C120	C	1.070140	0.976569	0.499956
C121	C	0.517289	0.428451	-0.000371
C122	C	1.017289	0.928451	0.499629
C123	C	0.518242	0.331773	-0.000039
C124	C	1.018242	0.831773	0.499961
C125	C	0.571839	0.309031	-0.000046
C126	C	1.071839	0.809031	0.499954
C127	C	0.597897	0.350441	0.084217
C128	C	1.097897	0.850441	0.584217
C129	C	0.596569	0.447060	0.084288
C130	C	1.096569	0.947060	0.584288
C131	C	0.597682	0.447440	-0.083521
C132	C	1.097682	0.947440	0.416479
C133	C	0.597669	0.350495	-0.084635
C134	C	1.097669	0.850495	0.415365
C135	C	0.572802	0.214346	-0.000044
C136	C	1.072802	0.714346	0.499956
C137	C	0.569179	0.571255	-0.000040
C138	C	1.069179	1.071255	0.499960
N139	N	0.571018	-0.107182	-0.229942
N140	N	1.071018	0.392818	0.270058
C141	C	0.571001	-0.107192	0.589061
C142	C	1.071001	0.392808	1.089061
C143	C	0.531158	-0.176262	0.551456
C144	C	1.031158	0.323738	1.051456
C145	C	0.531250	-0.176511	0.448630
C146	C	1.031250	0.323489	0.948630
C147	C	0.570982	-0.107202	0.410857
C148	C	1.070982	0.392798	0.910857
C149	C	0.621417	-0.125631	0.448144
C150	C	1.121417	0.374369	0.948144
C151	C	0.621193	-0.126121	0.551002
C152	C	1.121193	0.373879	1.051002
C153	C	0.560858	-0.019484	0.551162
C154	C	1.060858	0.480516	1.051162
C155	C	0.559701	-0.020085	0.448299
C156	C	1.059701	0.479915	0.948299
C157	C	0.570975	-0.107205	0.310143
C158	C	1.070975	0.392795	0.810143
C159	C	0.571011	-0.107190	0.689774
C160	C	1.071011	0.392810	1.189774
H161	H	0.728150	0.037548	-0.000066
H162	H	1.228150	0.537548	0.499934
H163	H	0.589913	0.031908	0.575479
H164	H	1.089913	0.531908	1.075479
C165	C	0.651088	0.332030	0.088458
C166	C	1.151088	0.832030	0.588458
N167	N	0.691151	0.318155	0.091655
N168	N	1.191151	0.818155	0.591655
C169	C	0.540002	-0.264458	0.415373
C170	C	1.040002	0.235542	0.915373
N171	N	0.546598	-0.330703	0.390325
N172	N	1.046598	0.169297	0.890325
C173	C	0.924576	-0.341631	-0.000006
C174	C	1.424576	0.158369	0.499994
N175	N	0.898926	-0.404531	-0.000006
N176	N	1.398926	0.095469	0.499994
H177	H	0.630131	-0.190066	0.574983
H178	H	1.130131	0.309934	1.074983
H179	H	0.630568	-0.188843	0.422374
H180	H	1.130568	0.311157	0.922374
H181	H	0.579783	0.321822	0.146928
H182	H	1.079783	0.821822	0.646928
C183	C	0.662459	-0.060719	0.584607
C184	C	1.162459	0.439281	1.084607
N185	N	0.693545	-0.011469	0.609914
N186	N	1.193545	0.488531	1.109914
H187	H	0.497606	0.303639	0.060470
H188	H	0.997606	0.803639	0.560470
C189	C	0.650474	0.330432	-0.091513
C190	C	1.150474	0.830432	0.408487
N191	N	0.690250	0.315325	-0.096686
N192	N	1.190250	0.815325	0.403314
H193	H	0.651773	-0.076634	0.423673
H194	H	1.151773	0.423366	0.923673
H195	H	0.577552	0.465112	0.147281
H196	H	1.077552	0.965112	0.647281
C197	C	0.596365	0.052538	0.413585
C198	C	1.096365	0.552538	0.913585
N199	N	0.623988	0.107235	0.387447
N200	N	1.123988	0.607235	0.887447
C201	C	0.574346	0.474886	-0.169803
C202	C	1.074346	0.974886	0.330197
N203	N	0.556765	0.495557	-0.234787
N204	N	1.056765	0.995557	0.265213
H205	H	0.524880	-0.001601	0.577155
H206	H	1.024880	0.498399	1.077155
C207	C	0.480349	-0.161830	0.584932
C208	C	0.980349	0.338170	1.084932
N209	N	0.442078	-0.150962	0.610157
N210	N	0.942078	0.349038	1.110157
H211	H	1.176140	-0.324205	-0.000018
H212	H	1.676140	0.175795	0.499982
C213	C	0.509578	-0.001171	0.415383
C214	C	1.009578	0.498829	0.915383
N215	N	0.471825	0.013072	0.390587
N216	N	0.971825	0.513072	0.890587
H217	H	0.819609	0.035946	-0.000044
H218	H	1.319609	0.535946	0.499956
C219	C	0.648988	0.491306	0.089460
C220	C	1.148988	0.991306	0.589460
N221	N	0.688469	0.524628	0.093361
N222	N	1.188469	1.024628	0.593361
H223	H	1.208546	0.105541	-0.000021
H224	H	1.708546	0.605541	0.499979
C225	C	0.488872	0.454524	0.080830
C226	C	0.988872	0.954524	0.580830
N227	N	0.467472	0.474155	0.141999
N228	N	0.967472	0.974155	0.641999
C229	C	0.960274	0.131771	-0.000024
C230	C	1.460274	0.631771	0.499976
N231	N	0.944166	0.195411	-0.000004
N232	N	1.444166	0.695411	0.499996
H233	H	0.497758	0.303089	-0.060442
H234	H	0.997758	0.803089	0.439558
C235	C	0.571956	0.313307	-0.168852
C236	C	1.071956	0.813307	0.331148
N237	N	0.552584	0.285299	-0.232282
N238	N	1.052584	0.785299	0.267718
H239	H	1.057285	0.108213	-0.000030
H240	H	1.557285	0.608213	0.499970
C241	C	1.337693	0.048675	-0.000030
C242	C	1.837693	0.548675	0.499970
N243	N	1.321583	0.112313	-0.000023
N244	N	1.821583	0.612313	0.499977
H245	H	1.434723	0.025108	-0.000032
H246	H	1.934723	0.525108	0.499968
C247	C	1.111521	0.129109	-0.000016
C248	C	1.611521	0.629109	0.499984
N249	N	1.095413	0.192749	-0.000008
N250	N	1.595413	0.692749	0.499992
C251	C	1.419386	-0.273891	-0.000033
C252	C	1.919386	0.226109	0.499967
N253	N	1.435496	-0.337529	-0.000026
N254	N	1.935496	0.162471	0.499974
C255	C	1.313523	-0.272031	-0.000019
C256	C	1.813523	0.227969	0.499981
N257	N	1.287876	-0.334936	-0.000012
N258	N	1.787876	0.165064	0.499988
H259	H	1.084686	-0.322593	-0.000020
H260	H	1.584686	0.177407	0.499980
H261	H	0.496172	0.446713	-0.060798
H262	H	0.996172	0.946713	0.439202
H263	H	0.537546	-0.240997	0.577294
H264	H	1.037546	0.259003	1.077294
H265	H	0.636649	0.479705	-0.084093
H266	H	1.136649	0.979705	0.415907
C267	C	1.030440	-0.343502	0.000007
C268	C	1.530440	0.156498	0.500007
N269	N	1.046546	-0.407143	0.000029
N270	N	1.546546	0.092857	0.500029
H271	H	0.798734	-0.241120	-0.000048
H272	H	1.298734	0.258880	0.499952
C273	C	0.698411	-0.261195	-0.000051
C274	C	1.198411	0.238805	0.499949
N275	N	0.672748	-0.324082	-0.000039
N276	N	1.172748	0.175918	0.499961
H277	H	0.493761	-0.165627	0.423422
H278	H	0.993761	0.334373	0.923422
