data_functionalizedCrystal
_audit_creation_method	'MofGen! by Chris Wilmer'
_symmetry_space_group_name_H-M	'P1'
_symmetry_Int_Tables_number	1
_symmetry_cell_setting	triclinic
loop_
_symmetry_equiv_pos_as_xyz
  x,y,z
_cell_length_a	19.188930
_cell_length_b	19.188930
_cell_length_c	13.596369
_cell_angle_alpha	89.988893
_cell_angle_beta	89.980792
_cell_angle_gamma	83.144779
loop_
_atom_site_label
_atom_site_type_symbol
_atom_site_fract_x
_atom_site_fract_y
_atom_site_fract_z
O1	O	0.926146	0.087169	-0.082119
O2	O	1.426146	0.587169	0.417881
O3	O	0.722834	0.098903	-0.082053
O4	O	1.222834	0.598903	0.417947
O5	O	0.830357	-0.008620	-0.082068
O6	O	1.330357	0.491380	0.417932
O7	O	0.818623	0.194692	-0.082103
O8	O	1.318623	0.694692	0.417897
O9	O	0.830346	-0.008625	0.081515
O10	O	1.330346	0.491375	0.581515
O11	O	0.722824	0.098897	0.081530
O12	O	1.222824	0.598897	0.581530
O13	O	0.926135	0.087163	0.081464
O14	O	1.426135	0.587163	0.581464
Zn15	Zn	0.824478	0.093029	0.107470
Zn16	Zn	1.324478	0.593029	0.607470
Zn17	Zn	0.824492	0.093037	-0.108058
Zn18	Zn	1.324492	0.593037	0.391942
O19	O	0.818612	0.194686	0.081480
O20	O	1.318612	0.694686	0.581480
C21	C	0.696818	0.098520	-0.000252
C22	C	1.196818	0.598520	0.499748
C23	C	0.619313	0.097380	-0.000226
C24	C	1.119313	0.597380	0.499774
C25	C	0.574389	0.160470	-0.000253
C26	C	1.074389	0.660470	0.499747
C27	C	0.501566	0.159399	-0.000263
C28	C	1.001566	0.659399	0.499737
C29	C	0.473669	0.095233	-0.000267
C30	C	0.973669	0.595233	0.499733
C31	C	0.518603	0.032133	-0.000236
C32	C	1.018603	0.532133	0.499764
C33	C	0.591425	0.033207	-0.000215
C34	C	1.091425	0.533207	0.499785
N35	N	0.365693	0.046188	-0.055973
N36	N	0.865693	0.546188	0.444027
N37	N	0.296514	0.045172	-0.055995
N38	N	0.796514	0.545172	0.444005
C39	C	0.254260	0.091994	-0.000327
C40	C	0.754260	0.591994	0.499673
N41	N	0.283798	0.139881	0.055351
N42	N	0.783798	0.639881	0.555351
N43	N	0.352982	0.140899	0.055368
N44	N	0.852982	0.640899	0.555368
C45	C	0.394707	0.094062	-0.000289
C46	C	0.894707	0.594062	0.499711
C47	C	0.130372	0.153928	-0.000363
C48	C	0.630372	0.653928	0.499637
C49	C	0.057547	0.152853	-0.000368
C50	C	0.557547	0.652853	0.499632
C51	C	0.074586	0.025586	-0.000350
C52	C	0.574586	0.525586	0.499650
C53	C	0.147409	0.026662	-0.000336
C54	C	0.647409	0.526662	0.499664
C55	C	0.175298	0.090835	-0.000347
C56	C	0.675298	0.590835	0.499653
C57	C	0.829972	-0.034634	-0.000274
C58	C	1.329972	0.465366	0.499726
C59	C	0.828831	-0.112138	-0.000265
C60	C	1.328831	0.387862	0.499735
C61	C	0.891922	-0.157062	-0.000281
C62	C	1.391922	0.342938	0.499719
C63	C	0.890850	-0.229886	-0.000296
C64	C	1.390850	0.270114	0.499704
C65	C	0.826684	-0.257782	-0.000276
C66	C	1.326684	0.242218	0.499724
C67	C	0.763585	-0.212849	-0.000266
C68	C	1.263585	0.287151	0.499734
C69	C	0.764658	-0.140026	-0.000260
C70	C	1.264658	0.359974	0.499740
N71	N	0.777633	-0.365789	0.055410
N72	N	1.277633	0.134211	0.555410
N73	N	0.776618	-0.434968	0.055407
N74	N	1.276618	0.065032	0.555407
C75	C	0.823446	-0.477191	-0.000295
C76	C	1.323446	0.022809	0.499705
N77	N	0.871339	-0.447624	-0.055981
N78	N	1.371339	0.052376	0.444019
N79	N	0.872356	-0.378439	-0.055974
N80	N	1.372356	0.121561	0.444026
C81	C	0.825513	-0.336745	-0.000283
C82	C	1.325513	0.163255	0.499717
C83	C	0.885379	-0.601079	-0.000329
C84	C	1.385379	-0.101079	0.499671
C85	C	0.884305	-0.673904	-0.000350
C86	C	1.384305	-0.173904	0.499650
C87	C	0.757038	-0.656865	-0.000310
C88	C	1.257038	-0.156865	0.499690
C89	C	0.758114	-0.584042	-0.000298
C90	C	1.258114	-0.084042	0.499702
C91	C	0.822286	-0.556154	-0.000303
C92	C	1.322286	-0.056154	0.499697
C93	C	0.952151	0.087546	-0.000338
C94	C	1.452151	0.587546	0.499662
C95	C	1.029656	0.088687	-0.000370
C96	C	1.529656	0.588687	0.499630
C97	C	0.818997	0.220700	-0.000317
C98	C	1.318997	0.720700	0.499683
C99	C	0.820138	0.298204	-0.000332
C100	C	1.320138	0.798204	0.499668
N101	N	0.824473	0.093024	0.254561
N102	N	1.324473	0.593024	0.754561
N103	N	0.824502	0.093037	-0.255150
N104	N	1.324502	0.593037	0.244850
C105	C	0.824491	0.093038	0.655852
C106	C	1.324491	0.593038	1.155852
C107	C	0.824484	0.093036	0.544201
C108	C	1.324484	0.593036	1.044201
C109	C	0.824482	0.093031	0.455211
C110	C	1.324482	0.593031	0.955211
C111	C	0.824475	0.093029	0.343552
C112	C	1.324475	0.593029	0.843552
H113	H	0.464982	0.210776	-0.000282
H114	H	0.964982	0.710776	0.499718
C115	C	0.953707	-0.723324	-0.000379
C116	C	1.453707	-0.223324	0.499621
H117	H	0.943878	-0.770690	-0.000396
H118	H	1.443878	-0.270690	0.499604
H119	H	0.980025	-0.714905	0.056659
H120	H	1.480025	-0.214905	0.556659
H121	H	0.980029	-0.714875	-0.057438
H122	H	1.480029	-0.214875	0.442562
C123	C	0.196831	-0.042736	-0.000321
C124	C	0.696831	0.457264	0.499679
H125	H	0.244196	-0.032908	-0.000302
H126	H	0.744196	0.467092	0.499698
H127	H	0.188417	-0.069055	-0.057366
H128	H	0.688417	0.430945	0.442634
H129	H	0.188376	-0.069059	0.056731
H130	H	0.688376	0.430941	0.556731
H131	H	0.628003	-0.018171	-0.000194
H132	H	1.128003	0.481829	0.499806
H133	H	0.942228	-0.266470	-0.000313
H134	H	1.442228	0.233530	0.499687
H135	H	0.153080	0.206181	-0.000358
H136	H	0.653080	0.706181	0.499642
H137	H	0.711340	-0.235567	-0.000252
H138	H	1.211340	0.264433	0.499748
H139	H	0.495885	-0.020111	-0.000253
H140	H	0.995885	0.479889	0.499747
H141	H	0.020970	0.204232	-0.000384
H142	H	0.520970	0.704232	0.499616
C143	C	0.686454	-0.687539	-0.000292
C144	C	1.186454	-0.187539	0.499708
H145	H	0.649032	-0.650351	-0.000285
H146	H	1.149032	-0.150351	0.499715
H147	H	0.683384	-0.715605	0.056749
H148	H	1.183384	-0.215605	0.556749
H149	H	0.683396	-0.715580	-0.057348
H150	H	1.183396	-0.215580	0.442652
H151	H	0.706738	-0.547464	-0.000280
H152	H	1.206738	-0.047464	0.499720
C153	C	0.962509	-0.126388	-0.000303
C154	C	1.462509	0.373612	0.499697
H155	H	0.999930	-0.163578	-0.000325
H156	H	1.499930	0.336422	0.499675
H157	H	0.965573	-0.098341	0.056739
H158	H	1.465573	0.401659	0.556739
H159	H	0.965574	-0.098329	-0.057358
H160	H	1.465574	0.401671	0.442642
H161	H	0.597091	0.212725	-0.000264
H162	H	1.097091	0.712725	0.499736
C163	C	0.695256	-0.090608	-0.000234
C164	C	1.195256	0.409392	0.499766
H165	H	0.656885	-0.117649	-0.000219
H166	H	1.156885	0.382351	0.499781
H167	H	0.693033	-0.061832	-0.057272
H168	H	1.193033	0.438168	0.442728
H169	H	0.693027	-0.061860	0.056825
H170	H	1.193027	0.438140	0.556825
C171	C	0.043912	-0.044997	-0.000350
C172	C	0.543912	0.455003	0.499650
H173	H	0.081101	-0.082419	-0.000328
H174	H	0.581101	0.417581	0.499672
H175	H	0.015877	-0.048062	-0.057399
H176	H	0.515877	0.451938	0.442601
H177	H	0.015840	-0.048061	0.056698
H178	H	0.515840	0.451939	0.556698
C179	C	0.955964	-0.570399	-0.000345
C180	C	1.455964	-0.070399	0.499655
H181	H	0.993387	-0.607587	-0.000371
H182	H	1.493387	-0.107587	0.499629
H183	H	0.959026	-0.542357	0.056703
H184	H	1.459026	-0.042357	0.556703
H185	H	0.959031	-0.542334	-0.057394
H186	H	1.459031	-0.042334	0.442606
