data_functionalizedCrystal
_audit_creation_method	'MofGen! by Chris Wilmer'
_symmetry_space_group_name_H-M	'P1'
_symmetry_Int_Tables_number	1
_symmetry_cell_setting	triclinic
loop_
_symmetry_equiv_pos_as_xyz
  x,y,z
_cell_length_a	19.288840
_cell_length_b	17.699092
_cell_length_c	17.766277
_cell_angle_alpha	89.995315
_cell_angle_beta	89.983415
_cell_angle_gamma	83.206192
loop_
_atom_site_label
_atom_site_type_symbol
_atom_site_fract_x
_atom_site_fract_y
_atom_site_fract_z
O1	O	0.921478	0.094327	-0.062717
O2	O	0.719231	0.107083	-0.062691
O3	O	0.826066	-0.009492	-0.062703
O4	O	0.814644	0.210902	-0.062705
O5	O	0.826047	-0.009498	0.062486
O6	O	0.719212	0.107077	0.062498
O7	O	0.921460	0.094321	0.062471
Cu8	Cu	0.820334	0.100698	0.073915
Cu9	Cu	0.820356	0.100705	-0.074135
O10	O	0.814625	0.210896	0.062484
C11	C	0.693344	0.106673	-0.000093
C12	C	0.616238	0.105450	-0.000083
C13	C	0.580044	0.104866	-0.068325
C14	C	0.507596	0.103709	-0.068334
C15	C	0.471346	0.103120	-0.000098
C16	C	0.507548	0.103709	0.068154
C17	C	0.579994	0.104874	0.068161
C18	C	0.361955	0.056941	0.052171
C19	C	0.289511	0.055771	0.052161
C20	C	0.247898	0.099531	-0.000117
C21	C	0.278740	0.144451	-0.052398
C22	C	0.351186	0.145615	-0.052391
C23	C	0.392791	0.101858	-0.000098
C24	C	0.133147	0.097693	-0.068374
C25	C	0.060697	0.096541	-0.068380
C26	C	0.060652	0.096533	0.068110
C27	C	0.133100	0.097693	0.068114
C28	C	0.169344	0.098270	-0.000130
C29	C	0.825646	-0.037692	-0.000110
C30	C	0.824415	-0.121708	-0.000113
C31	C	0.823849	-0.161171	-0.068354
C32	C	0.822688	-0.240112	-0.068355
C33	C	0.822098	-0.279589	-0.000114
C34	C	0.822663	-0.240120	0.068132
C35	C	0.823819	-0.161180	0.068132
C36	C	0.818000	-0.558478	0.068134
C37	C	0.816847	-0.637424	0.068129
C38	C	0.816870	-0.637411	-0.068353
C39	C	0.818025	-0.558470	-0.068353
C40	C	0.818586	-0.519007	-0.000107
C41	C	0.819844	-0.433410	-0.000107
C42	C	0.820846	-0.365186	-0.000113
C43	C	0.947346	0.094731	-0.000128
C44	C	1.024452	0.095954	-0.000143
C45	C	0.815044	0.239096	-0.000111
C46	C	0.816275	0.323111	-0.000113
N47	N	0.820324	0.100693	0.178046
N48	N	0.820372	0.100705	-0.178265
C49	C	0.867645	0.049099	0.217427
C50	C	0.867649	0.049095	0.296229
C51	C	0.820338	0.100699	0.335646
C52	C	0.773008	0.152297	0.296255
C53	C	0.773000	0.152294	0.217455
C54	C	0.811123	0.169661	0.460484
C55	C	0.811135	0.169665	0.539283
C56	C	0.820357	0.100708	0.578693
C57	C	0.829581	0.031744	0.539293
C58	C	0.829574	0.031741	0.460493
C59	C	0.820341	0.100708	0.421092
C60	C	0.867685	0.049106	0.703520
C61	C	0.867685	0.049101	0.782323
C62	C	0.773046	0.152310	0.782348
C63	C	0.773044	0.152308	0.703546
C64	C	0.820367	0.100707	0.664137
H65	H	0.244860	0.180087	-0.094966
O66	O	0.824432	-0.118616	0.141738
H67	H	0.825328	-0.057091	0.130274
O68	O	0.384504	0.194023	-0.108767
H69	H	0.363236	0.254588	-0.101070
H70	H	0.837083	-0.024412	0.428418
O71	O	0.822039	-0.282703	0.141734
H72	H	0.774196	-0.311770	0.145007
O73	O	0.172135	0.098325	0.141725
H74	H	0.211431	0.047286	0.145001
H75	H	0.162657	0.098171	-0.123942
H76	H	0.609463	0.105350	0.123734
H77	H	0.031229	0.096070	-0.123954
O78	O	0.824484	-0.118599	-0.141961
H79	H	0.825389	-0.057077	-0.130500
H80	H	0.906217	0.007086	0.671432
H81	H	0.822230	-0.272240	-0.123924
O82	O	0.818661	-0.515895	-0.141959
H83	H	0.819566	-0.454374	-0.130494
H84	H	0.816410	-0.669550	-0.123922
H85	H	0.906218	0.007083	0.814388
H86	H	0.816365	-0.669564	0.123702
O87	O	0.918696	-0.006554	0.338714
H88	H	0.910748	0.002116	0.400129
H89	H	0.818471	-0.526359	0.123704
H90	H	0.906177	0.007080	0.185342
O91	O	0.468566	0.103166	0.141830
H92	H	0.476284	0.155004	0.174437
H93	H	0.031138	0.096059	0.123669
H94	H	0.837090	-0.024408	0.571379
H95	H	0.734522	0.194324	0.814441
H96	H	0.734513	0.194324	0.671480
O97	O	0.468554	0.103069	-0.141946
H98	H	0.429264	0.154115	-0.145226
O99	O	0.801200	0.244043	0.581777
H100	H	0.794777	0.291993	0.541137
O101	O	0.801181	0.244041	0.417980
H102	H	0.794781	0.291995	0.458612
O103	O	0.721981	0.207962	0.338762
H104	H	0.729941	0.199303	0.400174
H105	H	0.734464	0.194310	0.185390
H106	H	0.609549	0.105335	-0.123895
H107	H	0.264406	0.019192	0.094728
H108	H	0.395830	0.021305	0.094746
