data_functionalizedCrystal
_audit_creation_method	'MofGen! by Chris Wilmer'
_symmetry_space_group_name_H-M	'P1'
_symmetry_Int_Tables_number	1
_symmetry_cell_setting	triclinic
loop_
_symmetry_equiv_pos_as_xyz
  x,y,z
_cell_length_a	13.033748
_cell_length_b	13.032268
_cell_length_c	13.032721
_cell_angle_alpha	103.289627
_cell_angle_beta	103.361838
_cell_angle_gamma	103.297929
loop_
_atom_site_label
_atom_site_type_symbol
_atom_site_fract_x
_atom_site_fract_y
_atom_site_fract_z
Zn1	Zn	1.506748	-0.435246	-0.279639
Zn2	Zn	2.006748	0.064754	0.220361
Zn3	Zn	1.506630	-0.280212	-0.434741
Zn4	Zn	2.006630	0.219788	0.065259
Zn5	Zn	1.351689	-0.280199	-0.279717
Zn6	Zn	1.851689	0.219801	0.220283
Zn7	Zn	1.298873	-0.487944	-0.487472
Zn8	Zn	1.798873	0.012056	0.012528
O9	O	1.415985	-0.370900	-0.370393
O10	O	1.915985	0.129100	0.129607
O11	O	1.658572	-0.392632	-0.278113
O12	O	2.158572	0.107368	0.221887
O13	O	1.508131	-0.128385	-0.392141
O14	O	2.008131	0.371615	0.107859
O15	O	1.394412	-0.278707	-0.127850
O16	O	1.894412	0.221293	0.372150
O17	O	1.658485	-0.278729	-0.392066
O18	O	2.158485	0.221271	0.107934
O19	O	1.508333	-0.392620	-0.127793
O20	O	2.008333	0.107380	0.372207
O21	O	1.394297	-0.128376	-0.278246
O22	O	1.894297	0.371624	0.221754
O23	O	1.192844	-0.329805	-0.329377
O24	O	1.692844	0.170195	0.170623
O25	O	1.304394	-0.632778	-0.481939
O26	O	1.804394	-0.132778	0.018061
O27	O	1.154040	-0.482435	-0.482014
O28	O	1.654040	0.017565	0.017986
O29	O	1.457119	-0.594062	-0.329245
O30	O	1.957119	-0.094062	0.170755
O31	O	1.456917	-0.329827	-0.593593
O32	O	1.956917	0.170173	-0.093593
O33	O	1.304279	-0.482447	-0.632334
O34	O	1.804279	0.017553	-0.132334
C35	C	1.134071	-0.411838	-0.411427
C36	C	1.634071	0.088162	0.088573
C37	C	1.013460	-0.429381	-0.429011
C38	C	1.513460	0.070619	0.070989
C39	C	0.978858	-0.361775	-0.361246
C40	C	1.478858	0.138225	0.138754
C41	C	0.854200	-0.379905	-0.379419
C42	C	1.354200	0.120095	0.120581
C43	C	1.374878	-0.653887	-0.411465
C44	C	1.874878	-0.153887	0.088535
C45	C	1.357361	-0.774479	-0.428968
C46	C	1.857361	-0.274479	0.071032
C47	C	1.425116	-0.809087	-0.361221
C48	C	1.925116	-0.309087	0.138779
C49	C	1.407013	-0.933725	-0.379309
C50	C	1.907013	-0.433725	0.120691
C51	C	1.699000	-0.329803	-0.329199
C52	C	2.199000	0.170197	0.170801
C53	C	1.819603	-0.312290	-0.311645
C54	C	2.319603	0.187710	0.188355
C55	C	1.374880	-0.411876	-0.652338
C56	C	1.874880	0.088124	-0.152338
C57	C	1.357389	-0.429428	-0.772946
C58	C	1.857389	0.070572	-0.272946
C59	C	1.457006	-0.088994	-0.329392
C60	C	1.957006	0.411006	0.170608
C61	C	1.474778	0.031673	-0.311553
C62	C	1.974778	0.531673	0.188447
C63	C	1.425164	-0.361780	-0.807512
C64	C	1.925164	0.138220	-0.307512
C65	C	1.407088	-0.379919	-0.932167
C66	C	1.907088	0.120081	-0.432167
C67	C	1.457277	-0.329784	-0.087346
C68	C	1.957277	0.170216	0.412654
C69	C	1.474873	-0.312262	0.033272
C70	C	1.974873	0.187738	0.533272
H71	H	0.791539	-0.451209	-0.450897
H72	H	1.291539	0.048791	0.049103
H73	H	0.882264	-0.240981	-0.240172
H74	H	1.382264	0.259019	0.259828
H75	H	1.496576	-0.290439	-0.744823
H76	H	1.996576	0.209561	-0.244823
Br77	Br	1.238326	-0.878881	-0.547956
Br78	Br	1.738326	-0.378881	-0.047956
H79	H	1.546289	-0.240916	-0.904040
H80	H	2.046289	0.259084	-0.404040
H81	H	1.285985	-0.500776	-0.835637
H82	H	1.785985	-0.000776	-0.335637
H83	H	1.546189	-0.905687	-0.240151
H84	H	2.046189	-0.405687	0.259849
H85	H	1.041522	-0.290471	-0.289780
H86	H	1.541522	0.209529	0.210220
Br87	Br	0.909025	-0.548218	-0.548146
Br88	Br	1.409025	-0.048218	-0.048146
Br89	Br	1.544116	-0.704686	-0.242197
Br90	Br	2.044116	-0.204686	0.257803
Br91	Br	1.287973	-1.038123	-0.498303
Br92	Br	1.787973	-0.538123	0.001697
H93	H	1.335680	-0.451272	-0.994855
H94	H	1.835680	0.048728	-0.494855
