data_functionalizedCrystal
_audit_creation_method	'MofGen! by Chris Wilmer'
_symmetry_space_group_name_H-M	'P1'
_symmetry_Int_Tables_number	1
_symmetry_cell_setting	triclinic
loop_
_symmetry_equiv_pos_as_xyz
  x,y,z
_cell_length_a	13.033293
_cell_length_b	16.120444
_cell_length_c	16.120297
_cell_angle_alpha	95.615117
_cell_angle_beta	85.311971
_cell_angle_gamma	100.431871
loop_
_atom_site_label
_atom_site_type_symbol
_atom_site_fract_x
_atom_site_fract_y
_atom_site_fract_z
Zn1	Zn	1.543903	-0.208052	-0.638618
Zn2	Zn	1.793903	0.041948	-0.388618
Zn3	Zn	2.043903	0.291948	-0.138618
Zn4	Zn	2.293903	0.541948	0.111382
Zn5	Zn	1.543768	-0.340755	-0.505917
Zn6	Zn	1.793768	-0.090755	-0.255917
Zn7	Zn	2.043768	0.159245	-0.005917
Zn8	Zn	2.293768	0.409245	0.244083
Zn9	Zn	1.378469	-0.216921	-0.482881
Zn10	Zn	1.628469	0.033079	-0.232881
Zn11	Zn	1.878469	0.283079	0.017119
Zn12	Zn	2.128469	0.533079	0.267119
Zn13	Zn	1.359753	-0.365519	-0.627862
Zn14	Zn	1.609753	-0.115519	-0.377862
Zn15	Zn	1.859753	0.134481	-0.127862
Zn16	Zn	2.109753	0.384481	0.122138
O17	O	1.456473	-0.282812	-0.563819
O18	O	1.706473	-0.032812	-0.313819
O19	O	1.956473	0.217188	-0.063819
O20	O	2.206473	0.467188	0.186181
O21	O	1.690131	-0.211580	-0.635157
O22	O	1.940131	0.038420	-0.385157
O23	O	2.190131	0.288420	-0.135157
O24	O	2.440131	0.538420	0.114843
O25	O	1.529617	-0.317676	-0.386650
O26	O	1.779617	-0.067676	-0.136650
O27	O	2.029617	0.182324	0.113350
O28	O	2.279617	0.432324	0.363350
O29	O	1.408303	-0.098019	-0.498400
O30	O	1.658303	0.151981	-0.248400
O31	O	1.908303	0.401981	0.001600
O32	O	2.158303	0.651981	0.251600
O33	O	1.690031	-0.309076	-0.537662
O34	O	1.940031	-0.059076	-0.287662
O35	O	2.190031	0.190924	-0.037662
O36	O	2.440031	0.440924	0.212338
O37	O	1.529847	-0.091503	-0.612820
O38	O	1.779847	0.158497	-0.362820
O39	O	2.029847	0.408497	-0.112820
O40	O	2.279847	0.658497	0.137180
O41	O	1.408172	-0.226696	-0.369726
O42	O	1.658172	0.023304	-0.119726
O43	O	1.908172	0.273304	0.130274
O44	O	2.158172	0.523304	0.380274
O45	O	1.229740	-0.250709	-0.487971
O46	O	1.479740	-0.000709	-0.237971
O47	O	1.729740	0.249291	0.012029
O48	O	1.979740	0.499291	0.262029
O49	O	1.376405	-0.351283	-0.745499
O50	O	1.626405	-0.101283	-0.495499
O51	O	1.876405	0.148717	-0.245499
O52	O	2.126405	0.398717	0.004501
O53	O	1.215990	-0.359883	-0.594487
O54	O	1.465990	-0.109883	-0.344487
O55	O	1.715990	0.140117	-0.094487
O56	O	1.965990	0.390117	0.155513
O57	O	1.511699	-0.235592	-0.753402
O58	O	1.761699	0.014408	-0.503402
O59	O	2.011699	0.264408	-0.253402
O60	O	2.261699	0.514408	-0.003402
O61	O	1.511469	-0.461766	-0.527232
O62	O	1.761469	-0.211766	-0.277232
O63	O	2.011469	0.038234	-0.027232
O64	O	2.261469	0.288234	0.222768
O65	O	1.376275	-0.479960	-0.616825
O66	O	1.626275	-0.229960	-0.366825
O67	O	1.876275	0.020040	-0.116825
O68	O	2.126275	0.270040	0.133175
C69	C	1.184946	-0.308947	-0.537563
C70	C	1.434946	-0.058947	-0.287563
C71	C	1.684946	0.191053	-0.037563
C72	C	1.934946	0.441053	0.212437
C73	C	1.068782	-0.320148	-0.526350
C74	C	1.318782	-0.070148	-0.276350
C75	C	1.568782	0.179852	-0.026350
C76	C	1.818782	0.429852	0.223650
C77	C	1.017031	-0.276987	-0.569672
C78	C	1.267031	-0.026987	-0.319672
C79	C	1.517031	0.223013	-0.069672
C80	C	1.767031	0.473013	0.180328
C81	C	0.896970	-0.288563	-0.558085
C82	C	1.146970	-0.038563	-0.308085
C83	C	1.396970	0.211437	-0.058085
C84	C	1.646970	0.461437	0.191915
C85	C	1.441854	-0.501386	-0.573382
C86	C	1.691854	-0.251386	-0.323382
C87	C	1.941854	-0.001386	-0.073382
C88	C	2.191854	0.248614	0.176618
C89	C	1.435693	-0.594886	-0.577510
C90	C	1.685693	-0.344886	-0.327510
C91	C	1.935693	-0.094886	-0.077510
C92	C	2.185693	0.155114	0.172490
C93	C	1.488676	-0.798693	-0.542609
C94	C	1.738676	-0.548693	-0.292609
C95	C	1.988676	-0.298693	-0.042609
C96	C	2.238676	-0.048693	0.207391
C97	C	1.424464	-0.766062	-0.585057
C98	C	1.674464	-0.516062	-0.335057
C99	C	1.924464	-0.266062	-0.085057
C100	C	2.174464	-0.016062	0.164943
C101	C	1.430714	-0.670810	-0.580856
C102	C	1.680714	-0.420810	-0.330856
C103	C	1.930714	-0.170810	-0.080856
C104	C	2.180714	0.079190	0.169144
C105	C	1.482427	-0.893953	-0.546808
C106	C	1.732427	-0.643953	-0.296808
C107	C	1.982427	-0.393953	-0.046808
C108	C	2.232427	-0.143953	0.203192
C109	C	1.729061	-0.256576	-0.590179
C110	C	1.979061	-0.006576	-0.340179
C111	C	2.229061	0.243424	-0.090179
C112	C	2.479061	0.493424	0.159821
C113	C	1.845222	-0.245396	-0.601412
C114	C	2.095222	0.004604	-0.351412
C115	C	2.345222	0.254604	-0.101412
C116	C	2.595222	0.504604	0.148588
C117	C	1.441980	-0.295211	-0.780425
C118	C	1.691980	-0.045211	-0.530425
C119	C	1.941980	0.204789	-0.280425
C120	C	2.191980	0.454789	-0.030425
C121	C	1.435803	-0.300494	-0.872729
C122	C	1.685803	-0.050494	-0.622729
C123	C	1.935803	0.199506	-0.372729
C124	C	2.185803	0.449506	-0.122729
C125	C	1.471177	-0.063383	-0.554240
C126	C	1.721177	0.186617	-0.304240
C127	C	1.971177	0.436617	-0.054240
C128	C	2.221177	0.686617	0.195760
C129	C	1.477443	0.030125	-0.550158
C130	C	1.727443	0.280125	-0.300158
C131	C	1.977443	0.530125	-0.050158
C132	C	2.227443	0.780125	0.199842
C133	C	1.424490	-0.310126	-1.041727
C134	C	1.674490	-0.060126	-0.791727
C135	C	1.924490	0.189874	-0.541727
C136	C	2.174490	0.439874	-0.291727
C137	C	1.488679	-0.255226	-1.086772
C138	C	1.738679	-0.005226	-0.836772
C139	C	1.988679	0.244774	-0.586772
C140	C	2.238679	0.494774	-0.336772
C141	C	1.482385	-0.260585	-1.180808
C142	C	1.732385	-0.010585	-0.930808
C143	C	1.982385	0.239415	-0.680808
C144	C	2.232385	0.489415	-0.430808
C145	C	1.430783	-0.304768	-0.947682
C146	C	1.680783	-0.054768	-0.697682
C147	C	1.930783	0.195232	-0.447682
C148	C	2.180783	0.445232	-0.197682
C149	C	1.470975	-0.270395	-0.348059
C150	C	1.720975	-0.020395	-0.098059
C151	C	1.970975	0.229605	0.151941
C152	C	2.220975	0.479605	0.401941
C153	C	1.477369	-0.264855	-0.255765
C154	C	1.727369	-0.014855	-0.005765
C155	C	1.977369	0.235145	0.244235
C156	C	2.227369	0.485145	0.494235
H157	H	0.889796	-0.199866	-0.647078
H158	H	1.139796	0.050134	-0.397078
H159	H	1.389796	0.300134	-0.147078
H160	H	1.639796	0.550134	0.102922
H161	H	1.364796	-0.809663	-0.624552
H162	H	1.614796	-0.559663	-0.374552
H163	H	1.864796	-0.309663	-0.124552
H164	H	2.114796	-0.059663	0.125448
O165	O	1.009749	-0.380447	-0.465851
O166	O	1.259749	-0.130447	-0.215851
O167	O	1.509749	0.119553	0.034149
O168	O	1.759749	0.369553	0.284149
H169	H	0.954687	-0.430195	-0.500059
H170	H	1.204687	-0.180195	-0.250059
H171	H	1.454687	0.069805	-0.000059
H172	H	1.704687	0.319805	0.249941
H173	H	1.364813	-0.361148	-1.073783
H174	H	1.614813	-0.111148	-0.823783
H175	H	1.864813	0.138852	-0.573783
H176	H	2.114813	0.388852	-0.323783
O177	O	1.567704	-0.740943	-0.490293
O178	O	1.817704	-0.490943	-0.240293
O179	O	2.067704	-0.240943	0.009707
O180	O	2.317704	0.009057	0.259707
H181	H	1.613787	-0.779537	-0.459845
H182	H	1.863787	-0.529537	-0.209845
H183	H	2.113787	-0.279537	0.040155
H184	H	2.363787	-0.029537	0.290155
H185	H	1.548361	-0.204200	-1.054714
H186	H	1.798361	0.045800	-0.804714
H187	H	2.048361	0.295800	-0.554714
H188	H	2.298361	0.545800	-0.304714
H189	H	1.061610	-0.231461	-0.615336
H190	H	1.311610	0.018539	-0.365336
H191	H	1.561610	0.268539	-0.115336
H192	H	1.811610	0.518539	0.134664
H193	H	0.852396	-0.334087	-0.512412
H194	H	1.102396	-0.084087	-0.262412
H195	H	1.352396	0.165913	-0.012412
H196	H	1.602396	0.415913	0.237588
