data_functionalizedCrystal
_audit_creation_method	'MofGen! by Chris Wilmer'
_symmetry_space_group_name_H-M	'P1'
_symmetry_Int_Tables_number	1
_symmetry_cell_setting	triclinic
loop_
_symmetry_equiv_pos_as_xyz
  x,y,z
_cell_length_a	10.723023
_cell_length_b	10.540539
_cell_length_c	9.198806
_cell_angle_alpha	89.998955
_cell_angle_beta	89.996513
_cell_angle_gamma	84.496520
loop_
_atom_site_label
_atom_site_type_symbol
_atom_site_fract_x
_atom_site_fract_y
_atom_site_fract_z
O1	O	1.657277	0.178041	-0.120870
O2	O	1.294133	0.195085	-0.120876
O3	O	1.483990	0.001852	-0.120871
O4	O	1.467420	0.371274	-0.120875
O5	O	1.483975	0.001852	0.120914
O6	O	1.294118	0.195084	0.120909
O7	O	1.657262	0.178041	0.120915
Cu8	Cu	1.475688	0.186562	0.142989
Cu9	Cu	1.475706	0.186563	-0.142950
O10	O	1.467405	0.371273	0.120910
C11	C	1.247625	0.193844	0.000016
C12	C	1.109069	0.190134	0.000014
C13	C	1.047288	0.188480	0.125265
C14	C	0.904083	0.184645	0.125265
C15	C	1.482739	-0.045450	0.000019
C16	C	1.479022	-0.186397	0.000011
C17	C	1.336564	-0.369750	-0.000534
C18	C	1.340333	-0.223134	0.000011
C19	C	1.545757	-0.248089	0.138083
C20	C	1.541023	-0.394631	0.138199
C21	C	1.543861	-0.395150	-0.136755
C22	C	1.545139	-0.248169	-0.138581
C23	C	1.703769	0.179281	0.000020
C24	C	1.842326	0.182991	0.000013
C25	C	1.468655	0.418576	0.000017
C26	C	1.472373	0.559522	0.000015
N27	N	1.475685	0.186561	0.344103
N28	N	1.475719	0.186554	-0.344064
C29	C	1.555400	0.105071	0.416302
C30	C	1.555419	0.105066	0.583714
H31	H	0.895447	0.184421	-0.107225
N32	N	1.479101	-0.429981	0.267649
N33	N	1.381070	-0.484856	0.259067
H34	H	1.337331	-0.509815	0.350491
N35	N	1.274466	-0.169627	-0.124146
N36	N	1.330259	-0.108152	-0.215769
H37	H	1.283736	-0.070367	-0.303457
N38	N	1.641039	0.017520	0.661569
N39	N	1.715964	-0.059095	0.593742
H40	H	1.776435	-0.120929	0.648728
N41	N	1.487545	-0.434674	-0.268040
N42	N	1.444555	-0.353344	-0.358395
H43	H	1.404767	-0.381256	-0.451109
N44	N	1.042457	0.188336	-0.134529
N45	N	1.067617	0.099396	-0.222798
H46	H	1.020577	0.098124	-0.317825
N47	N	1.113890	0.190271	0.259814
N48	N	1.110140	0.100572	0.348106
H49	H	1.157169	0.101843	0.443140
N50	N	1.390114	0.274105	0.578070
N51	N	1.430697	0.353072	0.493106
H52	H	1.370239	0.414908	0.438103
N53	N	0.837422	0.182879	0.259782
N54	N	0.721185	0.179775	0.259592
H55	H	0.674100	0.178531	0.354598
H56	H	1.499386	-0.205466	0.240831
N57	N	1.390063	0.274065	0.422027
N58	N	1.312192	0.233220	0.507000
H59	H	1.251717	0.295020	0.562032
H60	H	1.281785	-0.398321	-0.099548
H61	H	1.496309	-0.207285	-0.240723
N62	N	1.673514	-0.220080	0.144558
N63	N	1.711393	-0.160584	0.250807
H64	H	1.801621	-0.140794	0.255379
N65	N	1.268100	-0.407542	0.123005
N66	N	1.157481	-0.361744	0.142530
H67	H	1.109134	-0.388423	0.229791
N68	N	1.273980	-0.170726	0.124384
N69	N	1.224749	-0.242450	0.211061
H70	H	1.177886	-0.205439	0.298909
N71	N	1.666151	-0.454862	0.146079
N72	N	1.756691	-0.388630	0.151485
H73	H	1.845062	-0.431161	0.157061
N74	N	1.671978	-0.217820	-0.149045
N75	N	1.715909	-0.149874	-0.054098
H76	H	1.805492	-0.128434	-0.061482
H77	H	1.644036	-0.442428	-0.137682
H78	H	1.623629	0.035301	0.354177
