data_functionalizedCrystal
_audit_creation_method	'MofGen! by Chris Wilmer'
_symmetry_space_group_name_H-M	'P1'
_symmetry_Int_Tables_number	1
_symmetry_cell_setting	triclinic
loop_
_symmetry_equiv_pos_as_xyz
  x,y,z
_cell_length_a	12.827893
_cell_length_b	12.827892
_cell_length_c	12.827885
_cell_angle_alpha	89.970024
_cell_angle_beta	89.980728
_cell_angle_gamma	90.015362
loop_
_atom_site_label
_atom_site_type_symbol
_atom_site_fract_x
_atom_site_fract_y
_atom_site_fract_z
Zn1	Zn	1.597670	-0.415983	-0.590847
Zn2	Zn	2.097670	0.084017	-0.090847
Zn3	Zn	1.597564	-0.590761	-0.416107
Zn4	Zn	2.097564	-0.090761	0.083893
Zn5	Zn	1.422911	-0.416034	-0.416121
Zn6	Zn	1.922911	0.083966	0.083879
Zn7	Zn	1.422896	-0.590683	-0.590807
Zn8	Zn	1.922896	-0.090683	-0.090807
O9	O	1.510260	-0.503365	-0.503471
O10	O	2.010260	-0.003365	-0.003471
O11	O	1.743892	-0.439179	-0.567679
O12	O	2.243892	0.060821	-0.067679
O13	O	1.574357	-0.567637	-0.269873
O14	O	2.074357	-0.067637	0.230127
O15	O	1.446144	-0.269791	-0.439321
O16	O	1.946144	0.230209	0.060679
O17	O	1.743814	-0.567587	-0.439298
O18	O	2.243814	-0.067587	0.060702
O19	O	1.574538	-0.269754	-0.567692
O20	O	2.074538	0.230246	-0.067692
O21	O	1.446041	-0.439266	-0.269883
O22	O	1.946041	0.060734	0.230117
O23	O	1.276673	-0.439190	-0.439282
O24	O	1.776673	0.060810	0.060718
O25	O	1.446118	-0.567455	-0.737048
O26	O	1.946118	-0.067455	-0.237048
O27	O	1.276662	-0.567504	-0.567623
O28	O	1.776662	-0.067504	-0.067623
O29	O	1.574524	-0.439104	-0.737078
O30	O	2.074524	0.060896	-0.237078
O31	O	1.574343	-0.736986	-0.439259
O32	O	2.074343	-0.236986	0.060741
O33	O	1.446016	-0.736929	-0.567610
O34	O	1.946016	-0.236929	-0.067610
C35	C	1.238750	-0.503345	-0.503451
C36	C	1.738750	-0.003345	-0.003451
C37	C	1.122597	-0.503362	-0.503467
C38	C	1.622597	-0.003362	-0.003467
C39	C	1.510195	-0.774875	-0.503451
C40	C	2.010195	-0.274875	-0.003451
C41	C	1.510262	-0.891028	-0.503478
C42	C	2.010262	-0.391028	-0.003478
C43	C	1.070835	-0.566954	-0.566876
C44	C	1.570835	-0.066954	-0.066876
C45	C	0.950784	-0.566973	-0.566895
C46	C	1.450784	-0.066973	-0.066895
C47	C	1.573768	-0.942711	-0.567057
C48	C	2.073768	-0.442711	-0.067057
C49	C	1.573839	-1.062761	-0.567086
C50	C	2.073839	-0.562761	-0.067086
C51	C	1.782830	-0.503386	-0.503491
C52	C	2.282830	-0.003386	-0.003491
C53	C	1.898983	-0.503395	-0.503500
C54	C	2.398983	-0.003395	-0.003500
C55	C	1.510331	-0.503265	-0.776041
C56	C	2.010331	-0.003265	-0.276041
C57	C	1.510362	-0.503222	-0.892194
C58	C	2.010362	-0.003222	-0.392194
C59	C	1.510354	-0.230795	-0.503513
C60	C	2.010354	0.269205	-0.003513
C61	C	1.510394	-0.114642	-0.503531
C62	C	2.010394	0.385358	-0.003531
C63	C	1.573907	-0.439697	-0.943993
C64	C	2.073907	0.060303	-0.443993
C65	C	1.573940	-0.439652	-1.064044
C66	C	2.073940	0.060348	-0.564044
C67	C	1.510249	-0.503390	-0.231961
C68	C	2.010249	-0.003390	0.268039
C69	C	1.510422	-0.503138	-0.115808
C70	C	2.010422	-0.003138	0.384192
H71	H	1.115396	-0.621381	-0.621153
H72	H	1.615396	-0.121381	-0.121153
H73	H	0.906270	-0.621420	-0.621179
H74	H	1.406270	-0.121420	-0.121179
H75	H	1.078036	-0.448927	-0.449198
H76	H	1.578036	0.051073	0.050802
H77	H	1.456026	-1.070203	-0.449091
H78	H	1.956026	-0.570203	0.050909
F79	F	0.957157	-0.432232	-0.432532
F80	F	1.457157	0.067768	0.067468
H81	H	1.628081	-0.898084	-0.621473
H82	H	2.128081	-0.398084	-0.121473
F83	F	1.644967	-0.368632	-0.885796
F84	F	2.144967	0.131368	-0.385796
H85	H	1.628212	-1.107208	-0.621514
H86	H	2.128212	-0.607208	-0.121514
H87	H	1.455941	-0.935657	-0.449072
H88	H	1.955941	-0.435657	0.050928
H89	H	1.628348	-0.385270	-1.108590
H90	H	2.128348	0.114730	-0.608590
H91	H	1.456019	-0.557531	-1.071269
H92	H	1.956019	-0.057531	-0.571269
F93	F	1.439275	-0.574261	-0.950392
F94	F	1.939275	-0.074261	-0.450392
