data_functionalizedCrystal
_audit_creation_method	'MofGen! by Chris Wilmer'
_symmetry_space_group_name_H-M	'P1'
_symmetry_Int_Tables_number	1
_symmetry_cell_setting	triclinic
loop_
_symmetry_equiv_pos_as_xyz
  x,y,z
_cell_length_a	19.805407
_cell_length_b	14.908178
_cell_length_c	19.805399
_cell_angle_alpha	86.675724
_cell_angle_beta	89.982197
_cell_angle_gamma	93.311253
loop_
_atom_site_label
_atom_site_type_symbol
_atom_site_fract_x
_atom_site_fract_y
_atom_site_fract_z
Zn1	Zn	1.019222	-0.359271	-0.367131
Zn2	Zn	1.012622	-0.510147	-0.247410
Zn3	Zn	0.906036	-0.359289	-0.253958
Zn4	Zn	0.899488	-0.510092	-0.360562
O5	O	0.959342	-0.434700	-0.307265
O6	O	1.113062	-0.379300	-0.351258
O7	O	0.998461	-0.490166	-0.153560
O8	O	0.926553	-0.233032	-0.274460
O9	O	1.108213	-0.490148	-0.263299
O10	O	1.009710	-0.233019	-0.357608
O11	O	0.920153	-0.379331	-0.158372
O12	O	0.810451	-0.379277	-0.268091
O13	O	0.915392	-0.490055	-0.456151
O14	O	0.805640	-0.490072	-0.346413
O15	O	1.003361	-0.379247	-0.460977
O16	O	0.992112	-0.636394	-0.256930
O17	O	0.908993	-0.636353	-0.340063
C18	C	0.783487	-0.434671	-0.307250
C19	C	0.708255	-0.434681	-0.307259
C20	C	0.675432	-0.377064	-0.353120
C21	C	0.604743	-0.377069	-0.353123
C22	C	0.566879	-0.434696	-0.307266
C23	C	0.599706	-0.492315	-0.261400
C24	C	0.670394	-0.492305	-0.261395
C25	C	0.314631	-0.492355	-0.261419
C26	C	0.243939	-0.492363	-0.261429
C27	C	0.248980	-0.377120	-0.353147
C28	C	0.319668	-0.377110	-0.353142
C29	C	0.352490	-0.434725	-0.307273
C30	C	0.429139	-0.434718	-0.307270
C31	C	0.490231	-0.434708	-0.307272
C32	C	0.949144	-0.669110	-0.297088
C33	C	0.944843	-0.769391	-0.292756
C34	C	1.023287	-0.957668	-0.371291
C35	C	1.019248	-1.051891	-0.367224
C36	C	0.932724	-1.052064	-0.280558
C37	C	0.936762	-0.957840	-0.284625
C38	C	0.982046	-0.910645	-0.329993
C39	C	0.986088	-0.816420	-0.334056
C40	C	0.899560	-0.816594	-0.247394
C41	C	0.895522	-0.910818	-0.243326
C42	C	1.135883	-0.434729	-0.307281
C43	C	1.211115	-0.434741	-0.307287
C44	C	0.959382	-0.434643	-0.483810
C45	C	0.959400	-0.434619	-0.559044
C46	C	0.969598	-0.199374	-0.317497
C47	C	0.973969	-0.099092	-0.321858
C48	C	1.005206	-0.376918	-0.596902
C49	C	1.005214	-0.376892	-0.667591
C50	C	0.959418	-0.434571	-0.700421
C51	C	0.913607	-0.492274	-0.662558
C52	C	0.913597	-0.492295	-0.591870
C53	C	0.913649	-0.492190	-0.947635
C54	C	0.913665	-0.492167	-1.018328
C55	C	1.005266	-0.376787	-1.023357
C56	C	1.005256	-0.376808	-0.952668
C57	C	0.959443	-0.434507	-0.914811
C58	C	0.959433	-0.434533	-0.838162
C59	C	0.959430	-0.434550	-0.777069
C60	C	0.959343	-0.434691	-0.131410
C61	C	0.959468	-0.434461	-0.056188
H62	H	0.697117	-0.539221	-0.224049
H63	H	0.876318	-0.539235	-0.689294
O64	O	0.346616	-0.548245	-0.216896
C65	C	0.417126	-0.535902	-0.226731
H66	H	0.429815	-0.466310	-0.251998
H67	H	0.434873	-0.589474	-0.260385
C68	C	0.437449	-0.629531	-0.126844
C69	C	0.453034	-0.544054	-0.157874
H70	H	0.459600	-0.634564	-0.084371
H71	H	0.389945	-0.637851	-0.120220
H72	H	0.452238	-0.674166	-0.154896
H73	H	0.438237	-0.499423	-0.129826
H74	H	0.500536	-0.535728	-0.164492
O75	O	0.851479	-0.956527	-0.199242
C76	C	0.815959	-0.894815	-0.163649
H77	H	0.816476	-0.827627	-0.194270
H78	H	0.841211	-0.884814	-0.112701
C79	C	0.741712	-1.014197	-0.114620
C80	C	0.742343	-0.931678	-0.152231
H81	H	0.696304	-1.036937	-0.107574
H82	H	0.765644	-1.055775	-0.138597
H83	H	0.762759	-1.005852	-0.072167
H84	H	0.721304	-0.940027	-0.194686
H85	H	0.718406	-0.890103	-0.128260
O86	O	0.356550	-0.321216	-0.397661
C87	C	0.425980	-0.333547	-0.387810
H88	H	0.432603	-0.403135	-0.362536
H89	H	0.448351	-0.279967	-0.354155
C90	C	0.454519	-0.239923	-0.487696
C91	C	0.462654	-0.325395	-0.456659
H92	H	0.477143	-0.234891	-0.530165
H93	H	0.407743	-0.231613	-0.494332
H94	H	0.473161	-0.195283	-0.459643
H95	H	0.444005	-0.370033	-0.484708
H96	H	0.509428	-0.333713	-0.450030
H97	H	0.222249	-0.330203	-0.390493
H98	H	0.876355	-0.539186	-0.916820
O99	O	0.207259	-0.548369	-0.216813
C100	C	0.251385	-0.599235	-0.176337
H101	H	0.303378	-0.562271	-0.175637
H102	H	0.255936	-0.667803	-0.198056
C103	C	0.159345	-0.657506	-0.104588
C104	C	0.223202	-0.612103	-0.103724
H105	H	0.141960	-0.665448	-0.059797
H106	H	0.129616	-0.623240	-0.131858
H107	H	0.163147	-0.714641	-0.122690
H108	H	0.219399	-0.554965	-0.085630
H109	H	0.252930	-0.646360	-0.076448
H110	H	1.042568	-0.329802	-1.054189
O111	O	1.067199	-0.911855	-0.415452
C112	C	1.051391	-0.934853	-0.481905
H113	H	0.996205	-0.960818	-0.484151
H114	H	1.085329	-0.989485	-0.497274
C115	C	1.130603	-0.819209	-0.527939
C116	C	1.062822	-0.851093	-0.530699
H117	H	1.137657	-0.767545	-0.558039
H118	H	1.141256	-0.803717	-0.483169
H119	H	1.158878	-0.864744	-0.540746
H120	H	1.034549	-0.805563	-0.517885
H121	H	1.052165	-0.866576	-0.575469
H122	H	1.052828	-1.090173	-0.400857
H123	H	0.876290	-0.539272	-0.561047
H124	H	0.876370	-0.539138	-1.045056
H125	H	0.706256	-0.330141	-0.390464
H126	H	0.578022	-0.330154	-0.390469
H127	H	0.865981	-0.778298	-0.213764
O128	O	1.029998	-0.770612	-0.378222
C129	C	1.014180	-0.793612	-0.444671
H130	H	0.958993	-0.819572	-0.446910
H131	H	1.048114	-0.848248	-0.460043
C132	C	1.093393	-0.677978	-0.490718
C133	C	1.025609	-0.709856	-0.493469
H134	H	1.100446	-0.626315	-0.520821
H135	H	1.104052	-0.662484	-0.445950
H136	H	1.121663	-0.723516	-0.503527
H137	H	0.997341	-0.664322	-0.480653
H138	H	1.014946	-0.725340	-0.538237
O139	O	0.888703	-1.098020	-0.236581
C140	C	0.842616	-1.152519	-0.272726
H141	H	0.865850	-1.166550	-0.323440
H142	H	0.794003	-1.116260	-0.281672
C143	C	0.798018	-1.224844	-0.169328
C144	C	0.826557	-1.242083	-0.231614
H145	H	0.788109	-1.280090	-0.143968
H146	H	0.829065	-1.188125	-0.144976
H147	H	0.757510	-1.194626	-0.176793
H148	H	0.867068	-1.272290	-0.224149
H149	H	0.795515	-1.278810	-0.255964
H150	H	0.568872	-0.539231	-0.224059
O151	O	1.049718	-0.320802	-0.565122
C152	C	1.090159	-0.269884	-0.613698
H153	H	1.062579	-0.266743	-0.664218
H154	H	1.140126	-0.302929	-0.619788
C155	C	1.137970	-0.177729	-0.528241
C156	C	1.104092	-0.173864	-0.590289
H157	H	1.146568	-0.118500	-0.513800
H158	H	1.110726	-0.212035	-0.495513
H159	H	1.179605	-0.205270	-0.533324
H160	H	1.062455	-0.146334	-0.585203
H161	H	1.131330	-0.139551	-0.623015
O162	O	1.049616	-0.320738	-0.704396
C163	C	1.013624	-0.262455	-0.747818
H164	H	0.960554	-0.256891	-0.726748
H165	H	1.010089	-0.290320	-0.800182
C166	C	1.115955	-0.175497	-0.778851
C167	C	1.050775	-0.168658	-0.752970
H168	H	1.138872	-0.117640	-0.782033
H169	H	1.140204	-0.214765	-0.749600
H170	H	1.112999	-0.198722	-0.822486
H171	H	1.053732	-0.145445	-0.709334
H172	H	1.026527	-0.129384	-0.782215
H173	H	1.042549	-0.329842	-0.925942
