data_functionalizedCrystal
_audit_creation_method	'MofGen! by Chris Wilmer'
_symmetry_space_group_name_H-M	'P1'
_symmetry_Int_Tables_number	1
_symmetry_cell_setting	triclinic
loop_
_symmetry_equiv_pos_as_xyz
  x,y,z
_cell_length_a	14.908795
_cell_length_b	16.120444
_cell_length_c	14.908308
_cell_angle_alpha	95.986749
_cell_angle_beta	89.788666
_cell_angle_gamma	96.375662
loop_
_atom_site_label
_atom_site_type_symbol
_atom_site_fract_x
_atom_site_fract_y
_atom_site_fract_z
Zn1	Zn	1.328312	-0.293318	-0.602929
Zn2	Zn	1.329259	-0.425040	-0.459348
Zn3	Zn	1.186679	-0.292410	-0.443853
Zn4	Zn	1.169354	-0.441096	-0.601796
O5	O	1.253401	-0.362966	-0.526981
O6	O	1.454633	-0.304452	-0.590841
O7	O	1.317992	-0.400346	-0.331104
O8	O	1.212321	-0.175179	-0.458944
O9	O	1.455328	-0.401227	-0.485353
O10	O	1.316379	-0.175846	-0.575816
O11	O	1.213239	-0.302903	-0.319720
O12	O	1.058185	-0.318473	-0.457846
O13	O	1.182794	-0.428593	-0.728135
O14	O	1.045457	-0.427712	-0.573886
O15	O	1.299580	-0.320022	-0.728967
O16	O	1.301192	-0.544521	-0.484255
O17	O	1.183711	-0.556318	-0.588911
C18	C	1.019100	-0.374737	-0.514062
C19	C	0.918863	-0.379794	-0.508557
C20	C	0.777957	-0.437213	-0.445784
C21	C	0.872139	-0.432464	-0.450955
C22	C	0.871399	-0.331866	-0.560989
C23	C	0.777217	-0.336614	-0.555818
C24	C	0.730499	-0.389290	-0.498214
C25	C	0.636315	-0.394042	-0.493047
C26	C	0.635578	-0.293440	-0.603076
C27	C	0.729760	-0.288692	-0.608248
C28	C	1.240698	-0.580847	-0.538163
C29	C	1.235344	-0.674056	-0.542981
C30	C	1.281383	-0.880371	-0.502194
C31	C	1.225585	-0.844702	-0.551788
C32	C	1.231017	-0.749745	-0.546886
C33	C	1.275953	-0.975336	-0.507094
C34	C	1.488616	-0.351150	-0.539952
C35	C	1.588851	-0.346114	-0.545479
C36	C	1.239149	-0.376200	-0.762185
C37	C	1.233075	-0.381839	-0.862415
C38	C	1.266177	-0.144234	-0.515778
C39	C	1.271622	-0.051023	-0.511003
C40	C	1.343270	-0.279361	-1.051624
C41	C	1.337567	-0.284657	-1.145799
C42	C	1.215961	-0.397722	-1.144941
C43	C	1.221664	-0.392426	-1.050766
C44	C	1.285322	-0.333245	-1.004111
C45	C	1.291029	-0.327954	-0.909935
C46	C	1.169420	-0.441014	-0.909078
C47	C	1.163716	-0.446310	-1.003253
C48	C	1.267653	-0.349721	-0.292693
C49	C	1.273915	-0.343836	-0.192461
H50	H	0.767810	-0.245803	-0.655145
H51	H	1.173736	-0.885478	-0.597928
O52	O	0.918381	-0.478935	-0.400061
C53	C	1.011525	-0.463469	-0.416993
H54	H	1.026366	-0.399813	-0.444026
H55	H	1.032456	-0.514628	-0.468953
C56	C	1.046722	-0.541637	-0.295581
C57	C	1.064950	-0.463450	-0.328776
H58	H	1.079678	-0.541630	-0.241166
H59	H	0.983969	-0.552060	-0.284175
H60	H	1.064165	-0.584262	-0.338889
H61	H	1.047497	-0.420829	-0.285474
H62	H	1.127702	-0.453020	-0.340173
H63	H	0.739918	-0.480110	-0.398888
O64	O	1.113250	-0.493390	-0.862836
C65	C	1.164729	-0.541928	-0.813989
H66	H	1.235650	-0.508121	-0.802127
H67	H	1.168814	-0.605613	-0.854021
C68	C	1.032533	-0.596106	-0.737150
C69	C	1.119638	-0.554581	-0.722573
H70	H	1.004718	-0.603916	-0.680762
H71	H	0.997850	-0.563409	-0.770061
H72	H	1.035950	-0.649173	-0.770512
H73	H	1.116220	-0.501512	-0.689221
H74	H	1.154320	-0.587271	-0.689654
H75	H	1.395107	-0.231177	-1.013638
H76	H	0.596928	-0.254419	-0.645770
O77	O	1.343152	-0.831610	-0.447164
C78	C	1.334893	-0.746285	-0.454472
H79	H	1.264151	-0.739647	-0.479521
H80	H	1.386833	-0.721376	-0.504216
C81	C	1.438155	-0.703851	-0.330653
C82	C	1.351266	-0.695697	-0.361412
H83	H	1.448259	-0.672644	-0.273251
H84	H	1.443723	-0.761336	-0.325731
H85	H	1.481429	-0.683094	-0.372115
H86	H	1.307995	-0.716463	-0.319956
H87	H	1.345692	-0.638214	-0.366325
O88	O	1.352770	-0.270352	-0.864642
C89	C	1.336551	-0.189061	-0.882305
H90	H	1.263185	-0.189912	-0.904004
H91	H	1.382864	-0.167782	-0.938513
C92	C	1.445485	-0.126812	-0.769708
C93	C	1.355374	-0.127856	-0.796352
H94	H	1.457100	-0.089056	-0.716691
H95	H	1.456415	-0.181579	-0.757810
H96	H	1.484069	-0.109082	-0.816556
H97	H	1.316792	-0.145595	-0.749510
H98	H	1.344438	-0.073090	-0.808240
O99	O	1.393954	-0.232278	-1.191818
C100	C	1.451343	-0.178895	-1.130439
H101	H	1.456527	-0.209312	-1.065240
H102	H	1.422641	-0.116303	-1.115339
C103	C	1.539435	-0.126688	-1.251939
C104	C	1.545808	-0.164050	-1.171864
H105	H	1.597704	-0.117527	-1.277493
H106	H	1.500769	-0.162651	-1.293293
H107	H	1.515513	-0.074532	-1.239345
H108	H	1.569718	-0.216209	-1.184462
H109	H	1.584480	-0.128096	-1.130514
O110	O	1.101928	-0.503905	-1.048487
C111	C	1.118173	-0.585201	-1.030866
H112	H	1.156880	-0.581350	-0.964489
H113	H	1.159681	-0.614091	-1.087873
C114	C	0.980020	-0.644909	-1.105801
C115	C	1.027554	-0.640181	-1.024271
H116	H	0.924124	-0.678826	-1.101737
H117	H	0.969077	-0.590139	-1.117676
H118	H	1.014620	-0.668982	-1.153299
H119	H	0.992960	-0.616099	-0.976778
H120	H	1.038490	-0.694948	-1.012388
O121	O	0.591021	-0.445322	-0.437148
C122	C	0.607970	-0.528874	-0.462275
H123	H	0.674155	-0.529164	-0.500784
H124	H	0.550519	-0.562466	-0.507128
C125	C	0.533397	-0.574014	-0.329814
C126	C	0.614691	-0.574370	-0.377105
H127	H	0.537539	-0.602080	-0.277279
H128	H	0.521975	-0.517724	-0.312887
H129	H	0.485530	-0.602006	-0.367201
H130	H	0.662555	-0.546370	-0.339722
H131	H	0.626122	-0.630656	-0.394024
O132	O	0.916926	-0.280766	-0.616918
C133	C	1.010231	-0.286834	-0.610213
H134	H	1.021116	-0.349194	-0.584595
H135	H	1.042745	-0.232982	-0.561182
C136	C	1.040161	-0.205375	-0.735192
C137	C	1.053529	-0.281971	-0.703734
H138	H	1.066871	-0.202372	-0.792879
H139	H	0.977299	-0.201284	-0.739708
H140	H	1.067255	-0.160507	-0.694324
H141	H	1.026425	-0.326837	-0.744595
H142	H	1.116387	-0.286069	-0.699228
H143	H	1.164133	-0.445904	-1.182943
