data_functionalizedCrystal
_audit_creation_method	'MofGen! by Chris Wilmer'
_symmetry_space_group_name_H-M	'P1'
_symmetry_Int_Tables_number	1
_symmetry_cell_setting	triclinic
loop_
_symmetry_equiv_pos_as_xyz
  x,y,z
_cell_length_a	10.540510
_cell_length_b	14.971482
_cell_length_c	14.048226
_cell_angle_alpha	89.994098
_cell_angle_beta	90.006950
_cell_angle_gamma	95.937040
loop_
_atom_site_label
_atom_site_type_symbol
_atom_site_fract_x
_atom_site_fract_y
_atom_site_fract_z
O1	O	-0.165403	1.187869	-0.079150
O2	O	-0.185218	0.927578	-0.079154
O3	O	0.009466	1.063676	-0.079144
O4	O	-0.360087	1.051771	-0.079160
O5	O	0.009478	1.063659	0.079177
O6	O	-0.185206	0.927562	0.079167
O7	O	-0.165391	1.187852	0.079172
Zn8	Zn	-0.175297	1.057704	0.104306
Zn9	Zn	-0.175312	1.057726	-0.104289
O10	O	-0.360075	1.051754	0.079162
C11	C	-0.184327	0.894240	0.000006
C12	C	-0.181674	0.794928	0.000004
C13	C	-0.180418	0.748267	0.086306
C14	C	-0.177905	0.654955	0.086307
C15	C	-0.176657	0.608304	0.000005
C16	C	-0.177909	0.654972	-0.086303
C17	C	-0.180413	0.748283	-0.086303
C18	C	-0.172693	0.460481	-0.086297
C19	C	-0.170191	0.367163	-0.086297
C20	C	-0.170185	0.367153	0.086314
C21	C	-0.172689	0.460464	0.086314
C22	C	-0.173943	0.507125	0.000005
C23	C	-0.407375	1.052650	-0.000001
C24	C	-0.548294	1.055304	-0.000007
C25	C	-0.766825	0.960758	0.000367
C26	C	-0.620261	0.957927	-0.000005
C27	C	-0.592510	1.105162	-0.090410
C28	C	-0.739247	1.107303	-0.090471
C29	C	-0.738985	1.109312	0.089570
C30	C	-0.592696	1.104693	0.090750
C31	C	0.056766	1.062780	0.000016
C32	C	0.197685	1.060126	0.000016
C33	C	-0.166282	1.221190	0.000010
C34	C	-0.168935	1.320502	0.000005
N35	N	-0.175286	1.057696	0.246667
N36	N	-0.175313	1.057741	-0.246649
C37	C	-0.089115	1.117979	0.296490
C38	C	-0.089115	1.117985	0.396147
C39	C	-0.175292	1.057711	0.445981
C40	C	-0.261466	0.997422	0.396151
C41	C	-0.261460	0.997412	0.296495
C42	C	-0.261475	0.997448	0.603865
C43	C	-0.261484	0.997458	0.703528
C44	C	-0.089130	1.118021	0.703517
C45	C	-0.089124	1.118011	0.603861
C46	C	-0.175300	1.057722	0.554039
H47	H	-0.181438	0.786273	-0.156579
H48	H	-0.169176	0.329182	-0.156572
H49	H	-0.331629	0.948341	0.436731
H50	H	-0.173713	0.498444	0.156588
O51	O	0.003825	1.183017	0.449873
H52	H	0.065630	1.144994	0.495284
H53	H	-0.018963	1.167109	0.744089
O54	O	-0.526633	1.198871	0.097904
H55	H	-0.471578	1.206023	0.165311
H56	H	-0.809200	0.922812	0.065201
H57	H	-0.562068	1.070550	-0.157694
O58	O	-0.354380	0.932383	0.242746
H59	H	-0.416156	0.970406	0.197309
H60	H	-0.331656	0.948376	0.744097
H61	H	-0.331645	0.948351	0.563303
H62	H	-0.173715	0.498469	-0.156579
H63	H	-0.176884	0.616982	-0.156572
O64	O	-0.795632	1.068539	0.180349
H65	H	-0.869565	1.012756	0.162647
O66	O	-0.825087	0.910802	-0.085012
H67	H	-0.788120	0.944730	-0.151143
O68	O	-0.181780	0.798582	0.179390
H69	H	-0.180479	0.750456	0.239400
O70	O	0.003864	1.182973	0.242749
H71	H	-0.010603	1.172840	0.165081
O72	O	-0.176564	0.604623	0.179389
H73	H	-0.177873	0.652737	0.239400
H74	H	-0.169164	0.329157	0.156590
O75	O	-0.583238	0.905968	-0.085997
H76	H	-0.612731	0.939504	-0.151668
H77	H	-0.591345	0.918909	0.064793
O78	O	0.003824	1.183015	0.550106
H79	H	0.063758	1.224932	0.601491
O80	O	-0.555233	1.056689	0.179350
H81	H	-0.505202	0.997896	0.158843
H82	H	-0.779868	1.073243	-0.158049
O83	O	-0.768630	1.203772	-0.095927
H84	H	-0.678067	1.248689	-0.098516
H85	H	-0.544306	1.176849	-0.093773
H86	H	-0.760311	1.182422	0.090187
