data_functionalizedCrystal
_audit_creation_method	'MofGen! by Chris Wilmer'
_symmetry_space_group_name_H-M	'P1'
_symmetry_Int_Tables_number	1
_symmetry_cell_setting	triclinic
loop_
_symmetry_equiv_pos_as_xyz
  x,y,z
_cell_length_a	12.784890
_cell_length_b	17.019294
_cell_length_c	11.892095
_cell_angle_alpha	90.016651
_cell_angle_beta	86.513306
_cell_angle_gamma	78.262590
loop_
_atom_site_label
_atom_site_type_symbol
_atom_site_fract_x
_atom_site_fract_y
_atom_site_fract_z
O1	O	1.417109	-0.000569	-0.093913
O2	O	1.107839	0.033026	-0.097193
O3	O	1.270299	-0.098541	-0.084375
O4	O	1.254649	0.130999	-0.106730
O5	O	1.256753	-0.087587	0.102565
O6	O	1.094294	0.043981	0.089748
O7	O	1.403563	0.010385	0.093027
Zn8	Zn	1.246778	0.028922	0.121068
Zn9	Zn	1.264625	0.014489	-0.125234
O10	O	1.241103	0.141953	0.080210
C11	C	1.061479	0.040689	-0.003936
C12	C	0.943521	0.047190	-0.004573
C13	C	0.764995	0.128671	-0.012510
C14	C	0.875826	0.122567	-0.011915
C15	C	0.900378	-0.022089	0.002173
C16	C	0.789547	-0.015986	0.001578
C17	C	0.721859	0.059397	-0.005761
C18	C	0.611025	0.065500	-0.006348
C19	C	0.635579	-0.079156	0.007732
C20	C	0.746410	-0.085259	0.008326
C21	C	1.262666	-0.122242	0.011934
C22	C	1.260089	-0.209182	0.020394
C23	C	1.266265	-0.255993	-0.077532
C24	C	1.263837	-0.337681	-0.069580
C25	C	1.255240	-0.372557	0.036299
C26	C	1.249061	-0.325739	0.134233
C27	C	1.251482	-0.244051	0.126279
C28	C	1.247555	-0.618901	0.065411
C29	C	1.245138	-0.700596	0.073357
C30	C	1.259912	-0.712532	-0.130456
C31	C	1.262338	-0.630843	-0.138400
C32	C	1.256153	-0.584031	-0.040467
C33	C	1.252762	-0.456056	0.044430
C34	C	1.258625	-0.500533	-0.048599
C35	C	1.449923	0.002723	-0.000232
C36	C	1.567882	-0.003779	0.000397
C37	C	1.248737	0.165654	-0.016102
C38	C	1.251314	0.252593	-0.024569
N39	N	1.234605	0.038771	0.289163
N40	N	1.276805	0.004634	-0.293328
C41	C	1.361506	-0.063946	0.535817
C42	C	1.353005	-0.057056	0.653488
C43	C	1.209099	0.059436	0.642178
C44	C	1.217600	0.052547	0.524507
C45	C	1.293807	-0.009146	0.471331
C46	C	1.302312	-0.016031	0.353658
C47	C	1.158401	0.100457	0.342350
C48	C	1.149900	0.107347	0.460021
H49	H	1.268870	-0.375793	-0.149322
C50	C	1.083928	0.160743	0.271418
H51	H	1.037333	0.198473	0.319944
H52	H	1.042861	0.132842	0.227972
H53	H	1.125655	0.188119	0.222587
H54	H	1.269340	-0.602453	-0.224619
C55	C	1.445331	-0.131797	0.477314
H56	H	1.440702	-0.128048	0.397998
H57	H	1.432120	-0.182242	0.501620
H58	H	1.514895	-0.126950	0.496221
C59	C	0.536570	0.148416	-0.014431
H60	H	0.578140	0.188797	-0.018378
H61	H	0.488098	0.157630	0.050231
H62	H	0.497553	0.149977	-0.080156
C63	C	1.266701	-0.764023	-0.238173
H64	H	1.264019	-0.817667	-0.218277
H65	H	1.332016	-0.763295	-0.280357
H66	H	1.208233	-0.742877	-0.282335
C67	C	0.690536	0.211585	-0.020583
H68	H	0.732101	0.251969	-0.024522
H69	H	0.642065	0.220792	0.044079
H70	H	0.651519	0.213151	-0.086309
H71	H	1.364366	-0.066262	0.310363
H72	H	1.147046	0.109660	0.685489
H73	H	0.910943	0.178977	-0.017408
C74	C	1.240771	-0.567422	0.173134
H75	H	1.235319	-0.599897	0.237328
H76	H	1.179523	-0.525099	0.173284
H77	H	1.303305	-0.545519	0.175259
H78	H	1.265616	-0.472132	-0.134806
H79	H	1.238133	-0.728988	0.159581
C80	C	0.974846	-0.105000	0.010244
H81	H	1.047029	-0.098710	0.009636
H82	H	0.966449	-0.137541	-0.052146
H83	H	0.957009	-0.129896	0.078242
C84	C	0.820871	-0.168172	0.016406
H85	H	0.893057	-0.161887	0.015801
H86	H	0.812474	-0.200715	-0.045982
H87	H	0.803027	-0.193063	0.084406
C88	C	1.066084	0.175205	0.518520
H89	H	1.070721	0.171464	0.597836
H90	H	0.996520	0.170375	0.499611
H91	H	1.079320	0.225647	0.494212
C92	C	0.588129	-0.155360	0.015145
H93	H	0.512427	-0.140932	0.013732
H94	H	0.606615	-0.182263	0.083323
H95	H	0.616059	-0.189894	-0.047067
H96	H	1.242055	-0.354141	0.220442
C97	C	1.427472	-0.117333	0.724425
H98	H	1.411492	-0.104400	0.802122
H99	H	1.499822	-0.114759	0.704765
H100	H	1.417027	-0.170035	0.710162
C101	C	1.275720	-0.217636	-0.194001
H102	H	1.279040	-0.257216	-0.251182
H103	H	1.338858	-0.196224	-0.200348
H104	H	1.215075	-0.175812	-0.202334
H105	H	1.246438	-0.205936	0.206021
H106	H	1.245766	-0.484462	0.130638
