data_functionalizedCrystal
_audit_creation_method	'MofGen! by Chris Wilmer'
_symmetry_space_group_name_H-M	'P1'
_symmetry_Int_Tables_number	1
_symmetry_cell_setting	triclinic
loop_
_symmetry_equiv_pos_as_xyz
  x,y,z
_cell_length_a	6.817900
_cell_length_b	11.102188
_cell_length_c	16.305550
_cell_angle_alpha	93.872451
_cell_angle_beta	103.455250
_cell_angle_gamma	108.603875
loop_
_atom_site_label
_atom_site_type_symbol
_atom_site_fract_x
_atom_site_fract_y
_atom_site_fract_z
V1	V	-4.052576	-0.176911	-0.263031
O2	O	-4.012740	0.007398	-0.258024
O3	O	-4.029746	-0.349724	-0.261233
O4	O	-4.003649	-0.174674	-0.377748
O5	O	-4.039018	-0.168864	-0.140702
V6	V	-4.532958	-0.154809	-0.248400
O7	O	-4.320722	-0.225395	-0.295127
O8	O	-4.715009	-0.106325	-0.216304
O9	O	-4.332581	0.018004	-0.250199
O10	O	-4.690191	-0.339118	-0.253407
O11	O	-4.663912	-0.162856	-0.370729
O12	O	-4.358679	-0.157046	-0.133683
C13	C	-3.880985	-0.391837	-0.257083
C14	C	-3.943603	-0.533117	-0.256377
C15	C	-3.930165	-0.581026	-0.178790
C16	C	-3.989024	-0.713775	-0.178130
C17	C	-4.074749	-0.750694	-0.332650
C18	C	-4.015905	-0.617948	-0.333310
C19	C	-4.135615	-0.877181	-0.087116
C20	C	-4.122142	-0.925092	-0.009525
C21	C	-3.947519	-0.861542	0.061179
C22	C	-3.786319	-0.750081	0.054294
C23	C	-3.799778	-0.702175	-0.023298
C24	C	-3.974445	-0.765724	-0.093999
C25	C	-3.869293	-0.454538	-0.424318
C26	C	-3.882737	-0.406630	-0.501911
C27	C	-4.057350	-0.470179	-0.572621
C28	C	-4.218526	-0.581646	-0.565745
C29	C	-4.205083	-0.629554	-0.488152
C30	C	-4.030469	-0.565996	-0.417441
C31	C	-3.847693	-0.168542	-0.405710
C32	C	-3.889143	-0.167857	-0.499492
C33	C	-4.039835	-0.165200	-0.840237
C34	C	-3.802613	-0.157314	-0.799308
C35	C	-3.759604	-0.158553	-0.701814
C36	C	-3.965073	-0.166517	-0.671189
C37	C	-4.150787	-0.292033	-0.721816
C38	C	-4.192545	-0.291323	-0.819365
C39	C	-4.077232	-0.048574	-0.794394
C40	C	-4.029155	-0.047580	-0.696551
C41	C	-3.922835	-0.167266	-0.575651
C42	C	-4.082084	-0.164460	-0.935776
C43	C	-4.144685	0.060110	-0.254346
C44	C	-4.061306	0.201389	-0.255057
C45	C	-4.177977	-0.163182	-0.105717
C46	C	-4.115765	-0.163861	-0.011935
H47	H	-4.133620	-0.819780	-0.395286
H48	H	-4.336329	-0.720320	-0.482557
O49	O	-3.937445	0.077409	-0.812102
H50	H	-3.829477	0.137052	-0.750983
O51	O	-4.223906	-0.045487	-0.668249
H52	H	-4.361573	-0.134543	-0.699017
H53	H	-4.249991	-0.053235	-0.821209
O54	O	-4.406882	-0.650198	-0.642005
H55	H	-4.389166	-0.598151	-0.697112
O56	O	-4.296058	-1.045292	-0.002118
H57	H	-4.224691	-1.119915	0.015766
O58	O	-3.708911	-0.286403	-0.509340
H59	H	-3.699204	-0.205064	-0.463237
O60	O	-3.852183	-0.489531	-0.095815
H61	H	-3.960187	-0.433005	-0.095564
O62	O	-3.759386	-0.268300	-0.841046
H63	H	-3.714719	-0.326733	-0.792158
H64	H	-3.668527	-0.611429	-0.028904
O65	O	-4.323988	-0.945721	-0.163371
H66	H	-4.306293	-0.893676	-0.218480
H67	H	-4.108497	-0.380346	-0.705003
O68	O	-4.424969	-0.305886	-0.856445
H69	H	-4.456502	-0.305479	-0.926329
O70	O	-3.850512	0.075398	-0.651019
H71	H	-3.897035	0.158999	-0.669283
H72	H	-3.936555	-0.900562	0.124355
O73	O	-3.597930	-0.681580	0.130552
H74	H	-3.657058	-0.650634	0.183361
O75	O	-3.680950	-0.386000	-0.348047
H76	H	-3.571113	-0.300456	-0.365869
O77	O	-4.162017	-0.408254	-0.859606
H78	H	-4.277003	-0.496514	-0.846804
H79	H	-4.305486	-0.302400	-0.702903
H80	H	-3.619675	-0.068308	-0.666790
H81	H	-4.068270	-0.431167	-0.635803
H82	H	-3.682980	-0.066643	-0.811672
H83	H	-3.705792	-0.243311	-0.685520
