data_functionalizedCrystal
_audit_creation_method	'MofGen! by Chris Wilmer'
_symmetry_space_group_name_H-M	'P1'
_symmetry_Int_Tables_number	1
_symmetry_cell_setting	triclinic
loop_
_symmetry_equiv_pos_as_xyz
  x,y,z
_cell_length_a	16.120530
_cell_length_b	13.897448
_cell_length_c	16.120297
_cell_angle_alpha	87.126532
_cell_angle_beta	90.128140
_cell_angle_gamma	92.886725
loop_
_atom_site_label
_atom_site_type_symbol
_atom_site_fract_x
_atom_site_fract_y
_atom_site_fract_z
Zn1	Zn	1.247483	0.488690	-0.534571
Zn2	Zn	1.254447	0.642247	-0.395515
Zn3	Zn	1.115472	0.472390	-0.388489
Zn4	Zn	1.108403	0.641358	-0.527485
O5	O	1.181451	0.561171	-0.461515
O6	O	1.364774	0.516253	-0.522031
O7	O	1.241884	0.613265	-0.278218
O8	O	1.133027	0.339575	-0.407892
O9	O	1.369890	0.629070	-0.419868
O10	O	1.230015	0.351550	-0.515218
O11	O	1.139780	0.488472	-0.273055
O12	O	0.998167	0.487611	-0.401021
O13	O	1.120980	0.627556	-0.644790
O14	O	0.992974	0.611751	-0.503140
O15	O	1.223161	0.515392	-0.649997
O16	O	1.235030	0.777106	-0.412996
O17	O	1.127733	0.776454	-0.509954
C18	C	0.965398	0.547817	-0.450550
C19	C	0.872968	0.542128	-0.445878
C20	C	1.181392	0.811781	-0.461488
C21	C	1.181441	0.918999	-0.461508
C22	C	1.170505	0.573193	-0.678409
C23	C	1.165840	0.578316	-0.770837
C24	C	0.703738	0.531719	-0.437357
C25	C	0.660002	0.590698	-0.485734
C26	C	0.565836	0.584907	-0.480993
C27	C	0.797912	0.537509	-0.442097
C28	C	1.398348	0.574579	-0.472524
C29	C	1.490777	0.580293	-0.477215
C30	C	1.181533	0.309586	-0.461562
C31	C	1.181567	0.202375	-0.461581
C32	C	1.181526	1.115302	-0.461564
C33	C	1.181476	1.006065	-0.461535
C34	C	1.157294	0.587646	-0.940062
C35	C	1.205773	0.534418	-0.983829
C36	C	1.201017	0.539609	-1.077991
C37	C	1.162048	0.582456	-0.845890
C38	C	1.192403	0.549130	-0.245467
C39	C	1.197228	0.543745	-0.153048
H40	H	0.693279	0.645540	-0.530713
H41	H	1.250848	0.484948	-0.950580
H42	H	0.670463	0.476881	-0.392381
C43	C	1.096411	0.654479	-0.984971
H44	H	1.101172	0.649249	-1.043285
H45	H	1.041243	0.636154	-0.967949
H46	H	1.109275	0.719276	-0.971403
