data_functionalizedCrystal
_audit_creation_method	'MofGen! by Chris Wilmer'
_symmetry_space_group_name_H-M	'P1'
_symmetry_Int_Tables_number	1
_symmetry_cell_setting	triclinic
loop_
_symmetry_equiv_pos_as_xyz
  x,y,z
_cell_length_a	9.065218
_cell_length_b	8.597304
_cell_length_c	8.140239
_cell_angle_alpha	82.296592
_cell_angle_beta	89.997198
_cell_angle_gamma	85.172810
loop_
_atom_site_label
_atom_site_type_symbol
_atom_site_fract_x
_atom_site_fract_y
_atom_site_fract_z
O1	O	1.960827	0.230168	-0.169189
O2	O	1.531577	0.249048	-0.171862
O3	O	1.754650	0.011261	-0.138202
O4	O	1.737755	0.467955	-0.202849
O5	O	1.754637	0.011258	0.135026
O6	O	1.531565	0.249045	0.101365
O7	O	1.960815	0.230165	0.104039
Zn8	Zn	1.746188	0.239605	0.146083
Zn9	Zn	1.746204	0.239608	-0.213906
O10	O	1.737742	0.467952	0.070378
C11	C	1.476581	0.247232	-0.034992
C12	C	1.312728	0.241807	-0.034225
C13	C	1.752829	-0.047238	0.006689
C14	C	1.747404	-0.221541	0.031352
C15	C	2.015811	0.231981	-0.032835
C16	C	2.179664	0.237406	-0.033613
C17	C	1.739563	0.526450	-0.074516
C18	C	1.744988	0.700754	-0.099190
N19	N	1.746187	0.239601	0.391766
N20	N	1.746216	0.239600	-0.459588
H21	H	1.747065	-0.232424	-0.229832
H22	H	1.745306	-0.288369	0.162002
