data_functionalizedCrystal
_audit_creation_method	'MofGen! by Chris Wilmer'
_symmetry_space_group_name_H-M	'P1'
_symmetry_Int_Tables_number	1
_symmetry_cell_setting	triclinic
loop_
_symmetry_equiv_pos_as_xyz
  x,y,z
_cell_length_a	6.817900
_cell_length_b	11.168130
_cell_length_c	10.773894
_cell_angle_alpha	95.440822
_cell_angle_beta	96.645922
_cell_angle_gamma	108.508653
loop_
_atom_site_label
_atom_site_type_symbol
_atom_site_fract_x
_atom_site_fract_y
_atom_site_fract_z
V1	V	-3.973865	-0.170064	-0.388954
O2	O	-3.936042	0.012947	-0.381539
O3	O	-3.951080	-0.341801	-0.386303
O4	O	-3.890835	-0.165353	-0.558585
O5	O	-3.996704	-0.164722	-0.208065
V6	V	-4.458661	-0.148422	-0.367317
O7	O	-4.232331	-0.217539	-0.436416
O8	O	-4.650393	-0.100947	-0.319854
O9	O	-4.258240	0.023315	-0.369967
O10	O	-4.613881	-0.331433	-0.374731
O11	O	-4.553219	-0.153764	-0.548206
O12	O	-4.318484	-0.153133	-0.197685
C13	C	-3.803433	-0.383732	-0.380170
C14	C	-3.865859	-0.524116	-0.379134
C15	C	-3.912539	-0.602544	-0.487238
C16	C	-3.977060	-0.747639	-0.486169
C17	C	-3.726584	-0.158654	-0.599931
C18	C	-3.740151	-0.155939	-0.738606
C19	C	-3.918928	-0.160645	-0.806469
C20	C	-3.932954	-0.157838	-0.949797
C21	C	-4.069231	0.065240	-0.376097
C22	C	-3.986041	0.205622	-0.377142
C23	C	-4.146080	-0.159836	-0.156333
C24	C	-4.111751	-0.162545	-0.017657
H25	H	-3.945982	-0.727000	-0.284587
H26	H	-3.873649	-0.564388	-0.285791
O27	O	-4.089192	-0.168154	-0.749181
C28	C	-4.336261	-0.287910	-0.626133
C29	C	-4.143455	-0.279579	-0.690976
H30	H	-4.380164	-0.377976	-0.579035
H31	H	-4.473162	-0.291104	-0.699477
H32	H	-4.298095	-0.200753	-0.551803
H33	H	-4.181418	-0.366714	-0.765299
H34	H	-4.006611	-0.276324	-0.617558
O35	O	-3.762783	-0.150383	-1.007170
C36	C	-3.515552	-0.030540	-1.130079
C37	C	-3.708296	-0.038841	-1.065183
H38	H	-3.471413	0.059648	-1.176976
H39	H	-3.553624	-0.117589	-1.204535
H40	H	-3.378825	-0.027498	-1.056680
H41	H	-3.845107	-0.041845	-1.138489
H42	H	-3.670050	0.048205	-0.990704
O43	O	-4.282038	-0.170060	-0.960382
C44	C	-4.529126	-0.289828	-0.837351
C45	C	-4.336304	-0.281487	-0.902181
H46	H	-4.573033	-0.379896	-0.790257
H47	H	-4.666019	-0.293023	-0.910703
H48	H	-4.490978	-0.202673	-0.763020
H49	H	-4.374250	-0.368620	-0.976505
H50	H	-4.199469	-0.278230	-0.828755
O51	O	-3.903214	-0.554305	-0.598492
C52	C	-3.830193	-0.365702	-0.700989
C53	C	-3.840714	-0.420159	-0.574902
H54	H	-3.779621	-0.257238	-0.681959
H55	H	-3.991047	-0.404574	-0.761970
H56	H	-3.711972	-0.394989	-0.752388
H57	H	-3.958841	-0.390894	-0.523399
H58	H	-3.679781	-0.381292	-0.514014
O59	O	-4.024842	-0.828195	-0.596470
C60	C	-4.132929	-1.046268	-0.695981
C61	C	-4.078820	-0.955178	-0.570969
H62	H	-4.176626	-1.148955	-0.675410
H63	H	-3.991652	-1.023849	-0.747779
H64	H	-4.270721	-1.033430	-0.757320
H65	H	-3.941087	-0.967966	-0.509533
H66	H	-4.220208	-0.977621	-0.519271
H67	H	-3.597474	-0.149823	-0.786615
