data_functionalizedCrystal
_audit_creation_method	'MofGen! by Chris Wilmer'
_symmetry_space_group_name_H-M	'P1'
_symmetry_Int_Tables_number	1
_symmetry_cell_setting	triclinic
loop_
_symmetry_equiv_pos_as_xyz
  x,y,z
_cell_length_a	12.827893
_cell_length_b	12.645330
_cell_length_c	12.827885
_cell_angle_alpha	90.029168
_cell_angle_beta	90.019462
_cell_angle_gamma	90.017662
loop_
_atom_site_label
_atom_site_type_symbol
_atom_site_fract_x
_atom_site_fract_y
_atom_site_fract_z
Zn1	Zn	1.597655	-0.421987	0.590855
Zn2	Zn	1.597541	-0.599288	0.416117
Zn3	Zn	1.422896	-0.422039	0.416128
Zn4	Zn	1.422875	-0.599209	0.590817
O5	O	1.510242	-0.510631	0.503479
O6	O	1.743876	-0.445518	0.567686
O7	O	1.574336	-0.575831	0.269883
O8	O	1.446134	-0.273685	0.439326
O9	O	1.743792	-0.575780	0.439308
O10	O	1.574529	-0.273647	0.567697
O11	O	1.446024	-0.445607	0.269891
O12	O	1.276657	-0.445530	0.439290
O13	O	1.446098	-0.575645	0.737058
O14	O	1.276641	-0.575695	0.567633
O15	O	1.574509	-0.445441	0.737086
O16	O	1.574315	-0.747625	0.439271
O17	O	1.445988	-0.747566	0.567623
C18	C	1.238732	-0.510610	0.503459
C19	C	1.122579	-0.510627	0.503476
C20	C	1.070814	-0.575138	0.566886
C21	C	0.950763	-0.575157	0.566904
C22	C	1.510165	-0.786060	0.503465
C23	C	1.510228	-0.903890	0.503493
C24	C	1.429831	-1.071462	0.584488
C25	C	1.429419	-0.948902	0.584228
C26	C	1.480415	-0.948493	0.393362
C27	C	1.479925	-1.071091	0.393854
C28	C	1.620931	-1.070978	0.531736
C29	C	1.620252	-0.948371	0.534144
C30	C	1.782812	-0.510652	0.503500
C31	C	1.898965	-0.510661	0.503509
C32	C	1.510314	-0.510528	0.776050
C33	C	1.510344	-0.510484	0.892203
C34	C	1.510347	-0.234125	0.503517
C35	C	1.510391	-0.116295	0.503533
C36	C	1.510230	-0.510656	0.231969
C37	C	1.510402	-0.510402	0.115817
C38	C	1.573923	-0.445999	1.064046
C39	C	1.573893	-0.446042	0.943995
H40	H	1.078020	-0.455407	0.449206
H41	H	1.115373	-0.630350	0.621164
H42	H	1.680950	-1.099970	0.472773
H43	H	1.628271	-0.390900	0.899473
F44	F	1.649642	-0.910262	0.640084
H45	H	1.448072	-0.918742	0.665889
F46	F	1.453982	-1.109899	0.691578
H47	H	1.455952	-0.565618	0.936718
F48	F	1.439293	-0.582521	1.057588
F49	F	1.554677	-0.910390	0.312365
H50	H	0.906247	-0.630390	0.621189
H51	H	1.348394	-1.102364	0.566042
H52	H	1.400453	-0.917884	0.369038
H53	H	1.628332	-0.390833	1.108599
F54	F	1.322305	-0.910687	0.559810
H55	H	0.943475	-0.455432	0.449214
F56	F	1.374307	-1.108598	0.362625
F57	F	1.553282	-1.109865	0.312320
H58	H	1.683435	-0.917724	0.479474
F59	F	1.656479	-1.111284	0.634920
