data_functionalizedCrystal
_audit_creation_method	'MofGen! by Chris Wilmer'
_symmetry_space_group_name_H-M	'P1'
_symmetry_Int_Tables_number	1
_symmetry_cell_setting	triclinic
loop_
_symmetry_equiv_pos_as_xyz
  x,y,z
_cell_length_a	9.065218
_cell_length_b	10.654550
_cell_length_c	7.540329
_cell_angle_alpha	89.996554
_cell_angle_beta	89.996962
_cell_angle_gamma	84.750408
loop_
_atom_site_label
_atom_site_type_symbol
_atom_site_fract_x
_atom_site_fract_y
_atom_site_fract_z
O1	O	1.959392	0.184158	-0.147487
O2	O	1.530024	0.199263	-0.147489
O3	O	1.754580	0.009010	-0.147477
O4	O	1.734836	0.374410	-0.147499
O5	O	1.754567	0.009008	0.147488
O6	O	1.530011	0.199261	0.147476
O7	O	1.959378	0.184155	0.147478
Cu8	Cu	1.744693	0.191708	0.174410
Cu9	Cu	1.744709	0.191711	-0.174421
O10	O	1.734823	0.374408	0.147466
C11	C	1.475039	0.197810	-0.000007
C12	C	1.311220	0.193469	-0.000008
C13	C	1.753124	-0.037795	0.000005
C14	C	1.748786	-0.177255	0.000002
C15	C	1.881001	-0.256217	0.000002
C16	C	1.876917	-0.387254	-0.000019
C17	C	1.608391	-0.360354	-0.000034
C18	C	1.612477	-0.229320	-0.000025
C19	C	2.032639	-0.582481	-0.103368
C20	C	2.164861	-0.661449	-0.103337
C21	C	2.284719	-0.630803	0.000031
C22	C	2.272361	-0.521192	0.103411
C23	C	2.140137	-0.442232	0.103397
C24	C	2.020284	-0.472876	-0.000013
C25	C	1.456764	-0.034091	0.103338
C26	C	1.324539	0.044872	0.103336
C27	C	1.204668	0.014230	-0.000021
C28	C	1.217012	-0.095383	-0.103375
C29	C	1.349237	-0.174347	-0.103373
C30	C	1.469109	-0.143695	-0.000019
C31	C	2.014364	0.185608	-0.000008
C32	C	2.178183	0.189949	-0.000019
C33	C	1.736279	0.421213	-0.000020
C34	C	1.740616	0.560673	-0.000028
N35	N	1.744693	0.191705	0.419758
N36	N	1.744721	0.191703	-0.419769
H37	H	1.991993	-0.213831	0.000020
H38	H	2.130073	-0.352992	0.187573
C39	C	2.522777	-0.579969	0.195241
C40	C	2.404111	-0.487517	0.217059
H41	H	2.604116	-0.559171	0.265396
H42	H	2.493480	-0.659365	0.231550
H43	H	2.551228	-0.584055	0.073978
H44	H	2.375653	-0.483438	0.338320
H45	H	2.433412	-0.408100	0.180759
H46	H	2.392377	-0.695107	0.000053
H47	H	1.119390	-0.120351	-0.187501
C48	C	2.156541	-0.749784	-0.395722
C49	C	2.178456	-0.781923	-0.216984
H50	H	2.164947	-0.824162	-0.465872
H51	H	2.060650	-0.707153	-0.410527
H52	H	2.229184	-0.696256	-0.431992
H53	H	2.105806	-0.835444	-0.180711
H54	H	2.274360	-0.824573	-0.202170
C55	C	1.229686	-0.305050	-0.307740
C56	C	1.362819	-0.294827	-0.217005
H57	H	1.238080	-0.379424	-0.377900
H58	H	1.151488	-0.308999	-0.224658
H59	H	1.209217	-0.233669	-0.382222
H60	H	1.383282	-0.366204	-0.142513
H61	H	1.441041	-0.290889	-0.300097
C62	C	1.332927	0.133244	0.395687
C63	C	1.310960	0.165361	0.216949
H64	H	1.324550	0.207630	0.465818
H65	H	1.260306	0.079726	0.432002
H66	H	1.428836	0.090610	0.410459
H67	H	1.215046	0.207986	0.202175
H68	H	1.383584	0.218900	0.180623
H69	H	1.935056	-0.607436	-0.187564
H70	H	1.096996	0.078524	0.000009
H71	H	1.497413	-0.402762	-0.000052
H72	H	1.554383	-0.009113	0.187468
