data_functionalizedCrystal
_audit_creation_method	'MofGen! by Chris Wilmer'
_symmetry_space_group_name_H-M	'P1'
_symmetry_Int_Tables_number	1
_symmetry_cell_setting	triclinic
loop_
_symmetry_equiv_pos_as_xyz
  x,y,z
_cell_length_a	6.394989
_cell_length_b	16.992694
_cell_length_c	15.455313
_cell_angle_alpha	87.142206
_cell_angle_beta	87.254133
_cell_angle_gamma	91.417033
loop_
_atom_site_label
_atom_site_type_symbol
_atom_site_fract_x
_atom_site_fract_y
_atom_site_fract_z
O1	O	-0.435072	1.048122	-0.072012
O2	O	-0.430202	0.819790	-0.072038
O3	O	-0.129113	0.937197	-0.072026
O4	O	-0.736160	0.930715	-0.072025
O5	O	-0.146255	0.930482	0.072236
O6	O	-0.447343	0.813075	0.072223
O7	O	-0.452214	1.041407	0.072249
Cu8	Cu	-0.451344	0.926628	0.085408
Cu9	Cu	-0.431071	0.934569	-0.085198
O10	O	-0.753302	0.924000	0.072236
C11	C	-0.432511	0.787158	0.000089
C12	C	-0.413829	0.699930	0.000079
C13	C	-0.594077	0.651470	0.000080
C14	C	-0.576513	0.569510	0.000092
C15	C	-0.378698	0.536010	0.000097
C16	C	-0.198437	0.584476	0.000099
C17	C	-0.216003	0.666434	0.000093
C18	C	-0.305891	0.291692	0.000120
C19	C	-0.288338	0.209727	0.000123
C20	C	-0.666416	0.194766	0.000118
C21	C	-0.683964	0.276728	0.000107
C22	C	-0.503704	0.325186	0.000113
N23	N	-0.360740	0.452233	0.000106
N24	N	-0.521664	0.408961	0.000110
C25	C	-0.059649	0.932558	0.000102
C26	C	0.177240	0.928641	0.000100
C27	C	-0.449904	1.074039	0.000120
C28	C	-0.468586	1.161267	0.000124
N29	N	-0.465602	0.921049	0.205403
N30	N	-0.416798	0.940154	-0.205192
C31	C	-0.337742	0.970946	0.250803
C32	C	-0.348545	0.966733	0.341610
C33	C	-0.487220	0.912628	0.387016
C34	C	-0.615085	0.862725	0.341611
C35	C	-0.604270	0.866934	0.250805
C36	C	-0.533847	0.894461	0.658596
C37	C	-0.544658	0.890257	0.749408
C38	C	-0.278114	0.994265	0.749401
C39	C	-0.267319	0.998472	0.658594
C40	C	-0.395176	0.948567	0.613196
N41	N	-0.498271	0.908323	0.479836
N42	N	-0.384114	0.952869	0.520378
H43	H	-0.069226	0.705890	0.000092
H44	H	-0.224828	1.015007	0.213839
H45	H	-0.244431	1.007363	0.378574
H46	H	-0.723290	0.530057	0.000092
O47	O	-0.153599	1.042699	0.793409
C48	C	0.058302	1.028896	0.771244
H49	H	0.070983	1.001684	0.705315
H50	H	0.123493	0.986790	0.822356
C51	C	0.169007	1.140877	0.848022
C52	C	0.184582	1.107461	0.767044
H53	H	0.246907	1.189338	0.845435
H54	H	0.026246	1.150175	0.862958
H55	H	0.223330	1.105781	0.890607
H56	H	0.130236	1.142552	0.724463
H57	H	0.327338	1.098170	0.752101
H58	H	-0.657592	0.846196	0.786374
H59	H	-0.708384	0.826302	0.213841
O60	O	-0.749836	0.810094	0.385581
C61	C	-0.860400	0.766968	0.326035
H62	H	-0.766762	0.768238	0.261309
H63	H	-1.018977	0.794444	0.316367
C64	C	-1.008461	0.679466	0.440980
C65	C	-0.893444	0.681020	0.361485
H66	H	-1.028854	0.626450	0.462847
H67	H	-0.933978	0.708522	0.481098
H68	H	-1.140596	0.702367	0.432912
H69	H	-0.761303	0.658128	0.369555
H70	H	-0.967905	0.651957	0.321368
H71	H	-0.845045	0.303997	0.000093
H72	H	-0.813173	0.155303	0.000115
O73	O	-0.130707	0.338728	-0.000034
C74	C	-0.002515	0.326702	-0.074736
H75	H	-0.102095	0.302224	-0.126957
H76	H	0.123525	0.283002	-0.057842
C77	C	0.224077	0.435725	-0.044476
C78	C	0.101767	0.405667	-0.108618
H79	H	0.288412	0.484433	-0.065374
H80	H	0.137717	0.443827	0.005854
H81	H	0.329094	0.399302	-0.030404
H82	H	-0.003262	0.442086	-0.122681
H83	H	0.188112	0.397574	-0.158951
H84	H	-0.755159	0.678739	0.000075
H85	H	-0.127245	0.182455	0.000126
O86	O	-0.131897	1.050683	0.614356
C87	C	-0.149253	1.043509	0.524474
H88	H	-0.309613	1.016824	0.511941
H89	H	-0.021856	1.003671	0.499037
C90	C	0.073270	1.158310	0.492973
C91	C	-0.123694	1.125541	0.477580
H92	H	0.089046	1.208909	0.464046
H93	H	0.084971	1.163142	0.553528
H94	H	0.179412	1.125103	0.471776
H95	H	-0.229831	1.158742	0.498787
H96	H	-0.135412	1.120716	0.417027
O97	O	-0.658267	0.845955	0.614639
C98	C	-0.782947	0.797289	0.674191
H99	H	-0.798440	0.826517	0.738913
H100	H	-0.706334	0.737830	0.683864
C101	C	-0.982679	0.749070	0.559253
C102	C	-1.001722	0.784971	0.638744
H103	H	-1.117626	0.741467	0.537388
H104	H	-0.898675	0.781854	0.519131
H105	H	-0.918826	0.699524	0.567325
H106	H	-1.065548	0.834519	0.630670
H107	H	-1.085742	0.752194	0.678865
H108	H	-0.037373	0.557193	0.000115
