data_functionalizedCrystal
_audit_creation_method	'MofGen! by Chris Wilmer'
_symmetry_space_group_name_H-M	'P1'
_symmetry_Int_Tables_number	1
_symmetry_cell_setting	triclinic
loop_
_symmetry_equiv_pos_as_xyz
  x,y,z
_cell_length_a	16.625547
_cell_length_b	12.594516
_cell_length_c	16.625539
_cell_angle_alpha	90.023675
_cell_angle_beta	89.975178
_cell_angle_gamma	89.973331
loop_
_atom_site_label
_atom_site_type_symbol
_atom_site_fract_x
_atom_site_fract_y
_atom_site_fract_z
Zn1	Zn	1.232657	0.423742	-0.456027
Zn2	Zn	1.232550	0.601743	-0.321205
Zn3	Zn	1.097818	0.423779	-0.321197
Zn4	Zn	1.097779	0.601679	-0.455985
O5	O	1.165201	0.512736	-0.388603
O6	O	1.345475	0.447366	-0.438163
O7	O	1.214649	0.578178	-0.208371
O8	O	1.115766	0.274828	-0.339097
O9	O	1.345396	0.578143	-0.339110
O10	O	1.214831	0.274801	-0.438156
O11	O	1.115663	0.447429	-0.208366
O12	O	0.984981	0.447366	-0.339056
O13	O	1.115699	0.578032	-0.568823
O14	O	0.984952	0.578068	-0.438084
O15	O	1.214793	0.447303	-0.568854
O16	O	1.214611	0.750681	-0.339069
O17	O	1.115595	0.750633	-0.438091
C18	C	0.955710	0.512715	-0.388565
C19	C	0.866089	0.512732	-0.388568
C20	C	0.793307	0.512734	-0.388578
C21	C	0.701998	0.512740	-0.388598
C22	C	0.629222	0.512749	-0.388619
C23	C	0.537907	0.512757	-0.388638
C24	C	1.165109	0.789277	-0.388594
C25	C	1.165143	0.907582	-0.388617
C26	C	1.111274	0.976848	-0.442437
C27	C	1.091619	1.047709	-0.368861
C28	C	1.184842	1.047521	-0.462205
C29	C	1.145450	0.976884	-0.315002
C30	C	1.238707	0.976690	-0.408396
C31	C	1.219080	1.047519	-0.334769
C32	C	1.375510	0.512757	-0.388642
C33	C	1.465131	0.512766	-0.388659
C34	C	1.165280	1.235115	-0.388629
C35	C	1.165223	1.116809	-0.388637
C36	C	1.165253	0.512656	-0.598912
C37	C	1.165276	0.512623	-0.688534
C38	C	1.165313	0.512503	-1.016709
C39	C	1.165300	0.512540	-0.925401
C40	C	1.165295	0.512564	-0.852624
C41	C	1.165281	0.512599	-0.761310
C42	C	1.165195	0.512738	-0.179113
C43	C	1.165329	0.512472	-0.089492
H44	H	1.065649	0.945817	-0.487885
H45	H	1.029445	1.078927	-0.352149
C46	C	1.207312	1.089435	-0.546262
H47	H	1.168956	1.065224	-0.584425
H48	H	1.207663	1.164852	-0.545551
H49	H	1.259175	1.064063	-0.560674
H50	H	1.264670	1.078354	-0.289211
C51	C	1.122879	0.935151	-0.230921
H52	H	1.122959	0.859721	-0.231435
H53	H	1.160930	0.959911	-0.192665
H54	H	1.070808	0.960059	-0.216800
C55	C	1.322693	0.934553	-0.431004
H56	H	1.336588	0.958706	-0.483321
H57	H	1.361102	0.959828	-0.393302
H58	H	1.322201	0.859132	-0.430352
