data_functionalizedCrystal
_audit_creation_method	'MofGen! by Chris Wilmer'
_symmetry_space_group_name_H-M	'P1'
_symmetry_Int_Tables_number	1
_symmetry_cell_setting	triclinic
loop_
_symmetry_equiv_pos_as_xyz
  x,y,z
_cell_length_a	18.050589
_cell_length_b	12.759401
_cell_length_c	12.759393
_cell_angle_alpha	89.981433
_cell_angle_beta	89.969379
_cell_angle_gamma	90.027265
loop_
_atom_site_label
_atom_site_type_symbol
_atom_site_fract_x
_atom_site_fract_y
_atom_site_fract_z
Zn1	Zn	-0.295635	1.606157	-0.593990
Zn2	Zn	-0.419845	1.606010	-0.418313
Zn3	Zn	-0.295671	1.430459	-0.418329
Zn4	Zn	-0.419785	1.430406	-0.593954
O5	O	-0.357734	1.518258	-0.506147
O6	O	-0.312121	1.753158	-0.570694
O7	O	-0.403413	1.582683	-0.271294
O8	O	-0.191742	1.453849	-0.441653
O9	O	-0.403378	1.753050	-0.441625
O10	O	-0.191715	1.582934	-0.570710
O11	O	-0.312183	1.453706	-0.271306
O12	O	-0.312125	1.283431	-0.441618
O13	O	-0.403276	1.453759	-0.740980
O14	O	-0.403312	1.283392	-0.570649
O15	O	-0.312063	1.582882	-0.741007
O16	O	-0.523762	1.582632	-0.441591
O17	O	-0.523718	1.453616	-0.570634
C18	C	-0.357716	1.245290	-0.506132
C19	C	-0.357727	1.128514	-0.506151
C20	C	-0.310299	1.073701	-0.573461
C21	C	-0.310313	0.963977	-0.573468
C22	C	-0.405189	0.963888	-0.438851
C23	C	-0.405171	1.073610	-0.438840
C24	C	-0.255525	1.073751	-0.651185
C25	C	-0.255540	0.964027	-0.651191
C26	C	-0.550686	1.518131	-0.506129
C27	C	-0.633232	1.518173	-0.506157
C28	C	-0.832686	1.448083	-0.576306
C29	C	-0.882134	1.422469	-0.480438
C30	C	-0.784362	1.518276	-0.506171
C31	C	-0.881996	1.543942	-0.602050
C32	C	-0.930347	1.518374	-0.506192
C33	C	-0.832723	1.492611	-0.410252
C34	C	-0.832580	1.614129	-0.531929
C35	C	-0.882007	1.588551	-0.435994
C36	C	-0.700264	1.518217	-0.506160
C37	C	-1.014444	1.518433	-0.506193
C38	C	-0.164028	1.518414	-0.506187
C39	C	-0.081482	1.518480	-0.506205
C40	C	-0.357659	1.518331	-0.780180
C41	C	-0.357627	1.518363	-0.896957
C42	C	-0.357752	1.792291	-0.506162
C43	C	-0.357760	1.909068	-0.506169
C44	C	-0.310128	1.585606	-0.951834
C45	C	-0.310101	1.585631	-1.061559
C46	C	-0.405079	1.451166	-1.061518
C47	C	-0.405101	1.451136	-0.951796
C48	C	-0.255296	1.663242	-0.951859
C49	C	-0.255269	1.663267	-1.061583
C50	C	-0.357755	1.518245	-0.233179
C51	C	-0.357578	1.518417	-0.116403
H52	H	-0.197984	1.103537	-0.629530
H53	H	-0.271017	0.934277	-0.732528
H54	H	-0.276189	1.107810	-0.728423
H55	H	-0.443777	1.396376	-0.907119
C56	C	-0.911235	1.573217	-0.711579
N57	N	-0.933255	1.595261	-0.794078
H58	H	-0.443729	1.396430	-1.106181
C59	C	-0.911539	1.313017	-0.451009
N60	N	-0.933685	1.230576	-0.428851
C61	C	-0.803140	1.723541	-0.561406
N62	N	-0.780960	1.805948	-0.583623
C63	C	-0.911085	1.668796	-0.355789
N64	N	-0.932989	1.729232	-0.295375
C65	C	-0.803607	1.463205	-0.300693
N66	N	-0.781675	1.441051	-0.218176
C67	C	-0.177600	1.633852	-0.911653
N68	N	-0.119081	1.611712	-0.881370
H69	H	-0.443817	0.919172	-0.384049
H70	H	-0.275915	1.740507	-0.917823
C71	C	-0.276088	1.773183	-1.101817
N72	N	-0.291771	1.855967	-1.132122
C73	C	-0.457337	1.133900	-0.364783
N74	N	-0.496631	1.179311	-0.308999
C75	C	-0.181697	0.918058	-0.612017
N76	N	-0.126079	0.883432	-0.582513
H77	H	-0.811029	1.388636	-0.635533
C78	C	-0.181431	1.624011	-1.107584
N79	N	-0.125814	1.594455	-1.142233
