data_functionalizedCrystal
_audit_creation_method	'MofGen! by Chris Wilmer'
_symmetry_space_group_name_H-M	'P1'
_symmetry_Int_Tables_number	1
_symmetry_cell_setting	triclinic
loop_
_symmetry_equiv_pos_as_xyz
  x,y,z
_cell_length_a	12.827893
_cell_length_b	14.908520
_cell_length_c	12.827885
_cell_angle_alpha	93.263516
_cell_angle_beta	89.980728
_cell_angle_gamma	93.320575
loop_
_atom_site_label
_atom_site_type_symbol
_atom_site_fract_x
_atom_site_fract_y
_atom_site_fract_z
Zn1	Zn	1.573615	-0.359115	-0.614817
Zn2	Zn	2.073615	0.140885	-0.114817
Zn3	Zn	1.563402	-0.509998	-0.450147
Zn4	Zn	2.063402	-0.009998	0.049853
Zn5	Zn	1.398853	-0.359159	-0.440093
Zn6	Zn	1.898853	0.140841	0.059907
Zn7	Zn	1.388739	-0.509931	-0.624843
Zn8	Zn	1.888739	-0.009931	-0.124843
O9	O	1.481152	-0.434551	-0.532475
O10	O	1.981152	0.065449	-0.032475
O11	O	1.718495	-0.379139	-0.592984
O12	O	2.218495	0.120861	-0.092984
O13	O	1.541533	-0.490036	-0.302580
O14	O	2.041533	0.009964	0.197420
O15	O	1.430542	-0.232908	-0.454867
O16	O	1.930542	0.267092	0.045133
O17	O	1.710992	-0.489993	-0.472002
O18	O	2.210992	0.010007	0.027998
O19	O	1.558939	-0.232876	-0.583236
O20	O	2.058939	0.267124	-0.083236
O21	O	1.420640	-0.379214	-0.295194
O22	O	1.920640	0.120786	0.204806
O23	O	1.251276	-0.379149	-0.464589
O24	O	1.751276	0.120851	0.035411
O25	O	1.413304	-0.489879	-0.769746
O26	O	1.913304	0.010121	-0.269746
O27	O	1.243845	-0.489921	-0.600323
O28	O	1.743845	0.010079	-0.100323
O29	O	1.549132	-0.379074	-0.762380
O30	O	2.049132	0.120926	-0.262380
O31	O	1.531726	-0.636234	-0.481724
O32	O	2.031726	-0.136234	0.018276
O33	O	1.403401	-0.636184	-0.610072
O34	O	1.903401	-0.136184	-0.110072
C35	C	1.209643	-0.434533	-0.532454
C36	C	1.709643	0.065467	-0.032454
C37	C	1.093489	-0.434548	-0.532471
C38	C	1.593489	0.065452	-0.032471
C39	C	1.038049	-0.489447	-0.599545
C40	C	1.538049	0.010553	-0.099545
C41	C	0.917998	-0.489463	-0.599564
C42	C	1.417998	0.010537	-0.099564
C43	C	1.465386	-0.668943	-0.548100
C44	C	1.965386	-0.168943	-0.048100
C45	C	1.458737	-0.769217	-0.554820
C46	C	1.958737	-0.269217	-0.054820
C47	C	1.580004	-0.957632	-0.433905
C48	C	2.080004	-0.457632	0.066095
C49	C	1.573760	-1.051849	-0.440215
C50	C	2.073760	-0.551849	0.059785
C51	C	1.440011	-1.051867	-0.573755
C52	C	1.940011	-0.551867	-0.073755
C53	C	1.446255	-0.957651	-0.567444
C54	C	1.946255	-0.457651	-0.067444
C55	C	1.516253	-0.910537	-0.497516
C56	C	2.016253	-0.410537	0.002484
C57	C	1.522491	-0.816319	-0.491201
C58	C	2.022491	-0.316319	0.008799
C59	C	1.388748	-0.816339	-0.624745
C60	C	1.888748	-0.316339	-0.124745
C61	C	1.382504	-0.910555	-0.631056
C62	C	1.882504	-0.410555	-0.131056
C63	C	1.753721	-0.434569	-0.532497
C64	C	2.253721	0.065431	-0.032497
C65	C	1.869874	-0.434576	-0.532506
C66	C	2.369874	0.065424	-0.032506
C67	C	1.481229	-0.434464	-0.805039
C68	C	1.981229	0.065536	-0.305039
C69	C	1.481262	-0.434427	-0.921190
C70	C	1.981262	0.065573	-0.421190
C71	C	1.497008	-0.199243	-0.516811
C72	C	1.997008	0.300757	-0.016811
C73	C	1.503765	-0.098969	-0.510137
C74	C	2.003765	0.401031	-0.010137
C75	C	1.548481	-0.379587	-0.969329
C76	C	2.048481	0.120413	-0.469329
C77	C	1.548517	-0.379547	-1.089377
C78	C	2.048517	0.120453	-0.589377
C79	C	1.481140	-0.434572	-0.260966
C80	C	1.981140	0.065428	0.239034
C81	C	1.481327	-0.434355	-0.144799
C82	C	1.981327	0.065645	0.355201
H83	H	1.052076	-0.387555	-0.475065
H84	H	1.552076	0.112445	0.024935
H85	H	1.325517	-0.948929	-0.687992
H86	H	1.825517	-0.448929	-0.187992
O87	O	1.326966	-0.770551	-0.686652
O88	O	1.826966	-0.270551	-0.186652
C89	C	1.390030	-0.715944	-0.750531
C90	C	1.890030	-0.215944	-0.250531
H91	H	1.470457	-0.744264	-0.758965
H92	H	1.970457	-0.244264	-0.258965
H93	H	1.352254	-0.714855	-0.830843
H94	H	1.852254	-0.214855	-0.330843
H95	H	1.398375	-0.644556	-0.713442
H96	H	1.898375	-0.144556	-0.213442
O97	O	0.861301	-0.545620	-0.668117
O98	O	1.361301	-0.045620	-0.168117
C99	C	0.929366	-0.596630	-0.730484
C100	C	1.429366	-0.096630	-0.230484
H101	H	1.006966	-0.599765	-0.687942
H102	H	1.506966	-0.099765	-0.187942
H103	H	0.892983	-0.667699	-0.746218
H104	H	1.392983	-0.167699	-0.246218
H105	H	0.943188	-0.563676	-0.807722
H106	H	1.443188	-0.063676	-0.307722
H107	H	1.579483	-0.777959	-0.434260
H108	H	2.079483	-0.277959	0.065740
H109	H	1.606069	-0.332600	-1.130790
H110	H	2.106069	0.167400	-0.630790
H111	H	1.423778	-0.481311	-1.103394
H112	H	1.923778	0.018689	-0.603394
O113	O	1.412677	-0.490534	-0.977931
O114	O	1.912677	0.009466	-0.477931
C115	C	1.429443	-0.580480	-0.957346
C116	C	1.929443	-0.080480	-0.457346
H117	H	1.469392	-0.582439	-0.878205
H118	H	1.969392	-0.082439	-0.378205
H119	H	1.351295	-0.620933	-0.956408
H120	H	1.851295	-0.120933	-0.456408
H121	H	1.481199	-0.610800	-1.020775
H122	H	1.981199	-0.110800	-0.520775
H123	H	1.636991	-0.919271	-0.376960
H124	H	2.136991	-0.419271	0.123040
O125	O	1.372164	-1.097745	-0.641736
O126	O	1.872164	-0.597745	-0.141736
C127	C	1.428027	-1.152134	-0.712944
C128	C	1.928027	-0.652134	-0.212944
H129	H	1.506314	-1.166198	-0.677103
H130	H	2.006314	-0.666198	-0.177103
H131	H	1.381072	-1.218417	-0.731343
H132	H	1.881072	-0.718417	-0.231343
H133	H	1.441865	-1.115769	-0.787964
H134	H	1.941865	-0.615769	-0.287964
H135	H	1.079463	-0.536433	-0.656958
H136	H	1.579463	-0.036433	-0.156958
O137	O	0.926827	-0.378625	-0.463949
O138	O	1.426827	0.121375	0.036051
C139	C	0.986462	-0.429962	-0.399808
C140	C	1.486462	0.070038	0.100192
H141	H	0.998131	-0.498379	-0.441108
H142	H	1.498131	0.001621	0.058892
H143	H	1.065717	-0.393253	-0.383483
H144	H	1.565717	0.106747	0.116517
H145	H	0.943765	-0.439767	-0.322969
H146	H	1.443765	0.060233	0.177031
H147	H	1.625675	-1.090190	-0.388418
H148	H	2.125675	-0.590190	0.111582
H149	H	1.606000	-0.332662	-0.921668
H150	H	2.106000	0.167338	-0.421668
