data_functionalizedCrystal
_audit_creation_method	'MofGen! by Chris Wilmer'
_symmetry_space_group_name_H-M	'P1'
_symmetry_Int_Tables_number	1
_symmetry_cell_setting	triclinic
loop_
_symmetry_equiv_pos_as_xyz
  x,y,z
_cell_length_a	11.169417
_cell_length_b	13.032721
_cell_length_c	11.169409
_cell_angle_alpha	82.853997
_cell_angle_beta	90.019513
_cell_angle_gamma	97.205324
loop_
_atom_site_label
_atom_site_type_symbol
_atom_site_fract_x
_atom_site_fract_y
_atom_site_fract_z
Zn1	Zn	1.774211	-0.415916	0.739152
Zn2	Zn	1.748569	-0.590704	0.563944
Zn3	Zn	1.573487	-0.415980	0.538497
Zn4	Zn	1.547985	-0.590620	0.764578
O5	O	1.661063	-0.503305	0.651543
O6	O	1.938758	-0.439110	0.715919
O7	O	1.725286	-0.567589	0.392628
O8	O	1.621517	-0.269735	0.543824
O9	O	1.919919	-0.567526	0.587195
O10	O	1.768988	-0.269687	0.691244
O11	O	1.596654	-0.439220	0.373932
O12	O	1.402156	-0.439139	0.568478
O13	O	1.578053	-0.567383	0.929146
O14	O	1.383420	-0.567446	0.734579
O15	O	1.744260	-0.439028	0.910466
O16	O	1.700558	-0.736930	0.611849
O17	O	1.553190	-0.736868	0.759254
C18	C	1.349240	-0.503291	0.651527
C19	C	1.215838	-0.503310	0.651552
C20	C	1.621357	-0.774816	0.691098
C21	C	1.604480	-0.890970	0.708060
C22	C	1.669935	-0.942751	0.642744
C23	C	1.652494	-1.062802	0.660274
C24	C	1.974103	-0.503320	0.651560
C25	C	2.107502	-0.503326	0.651567
C26	C	1.661172	-0.503189	0.964569
C27	C	1.661219	-0.503139	1.097961
C28	C	1.700957	-0.230733	0.611859
C29	C	1.717958	-0.114580	0.594948
C30	C	1.661035	-0.503345	0.339724
C31	C	1.661263	-0.503100	0.206289
H32	H	1.738891	-0.898208	0.573851
H33	H	1.786918	-1.070039	0.526051
C34	C	1.559336	-1.122964	0.753358
C35	C	1.454295	-1.198135	0.712170
C36	C	1.361140	-1.258299	0.805252
C37	C	1.373027	-1.243291	0.939523
C38	C	1.478073	-1.168117	0.980718
C39	C	1.571228	-1.107953	0.887636
H40	H	1.445491	-1.209248	0.612769
H41	H	1.283378	-1.313948	0.774756
H42	H	1.304068	-1.287828	1.008428
H43	H	1.486876	-1.157004	1.080119
H44	H	1.648990	-1.052304	0.918132
C45	C	1.511328	-0.951136	0.801140
C46	C	1.406286	-1.026307	0.759952
C47	C	1.313131	-1.086471	0.853034
C48	C	1.325018	-1.071463	0.987305
C49	C	1.430064	-0.996289	1.028500
C50	C	1.523219	-0.936126	0.935418
H51	H	1.397482	-1.037420	0.660551
H52	H	1.235369	-1.142120	0.822538
H53	H	1.256059	-1.116000	1.056210
H54	H	1.438868	-0.985177	1.127901
H55	H	1.600981	-0.880476	0.965914
