data_functionalizedCrystal
_audit_creation_method	'MofGen! by Chris Wilmer'
_symmetry_space_group_name_H-M	'P1'
_symmetry_Int_Tables_number	1
_symmetry_cell_setting	triclinic
loop_
_symmetry_equiv_pos_as_xyz
  x,y,z
_cell_length_a	10.540535
_cell_length_b	14.044220
_cell_length_c	13.101039
_cell_angle_alpha	93.667477
_cell_angle_beta	93.389140
_cell_angle_gamma	91.143740
loop_
_atom_site_label
_atom_site_type_symbol
_atom_site_fract_x
_atom_site_fract_y
_atom_site_fract_z
O1	O	1.705795	-0.128478	0.085161
O2	O	1.337656	-0.141077	0.085176
O3	O	1.516199	0.003244	0.085158
O4	O	1.527252	-0.272799	0.085178
O5	O	1.503391	-0.007128	-0.085270
O6	O	1.324848	-0.151449	-0.085253
O7	O	1.692987	-0.138850	-0.085268
Zn8	Zn	1.506884	-0.146796	-0.112320
Zn9	Zn	1.523759	-0.133130	0.112228
O10	O	1.514444	-0.283171	-0.085250
C11	C	1.283854	-0.145319	-0.000037
C12	C	1.142620	-0.142494	-0.000032
C13	C	1.095296	-0.037122	-0.000043
C14	C	0.948365	-0.034174	-0.000440
C15	C	0.930847	-0.196507	-0.097174
C16	C	1.077833	-0.198753	-0.097245
C17	C	1.092438	-0.188491	0.096571
C18	C	0.945694	-0.183541	0.097837
C19	C	1.504957	0.033405	-0.000056
C20	C	1.490528	0.138728	-0.000057
C21	C	1.746790	-0.134608	-0.000053
C22	C	1.888023	-0.137432	-0.000051
C23	C	1.525686	-0.313332	-0.000034
C24	C	1.540116	-0.418655	-0.000026
N25	N	1.495376	-0.156122	-0.265567
C26	C	1.464148	0.331569	-0.000041
C27	C	1.566490	0.388511	-0.000042
C28	C	1.551812	0.495814	-0.000033
C29	C	1.478824	0.224256	-0.000050
C30	C	1.479720	-0.168819	-0.474608
C31	C	1.550928	-0.111103	-0.525491
C32	C	1.542217	-0.118168	-0.641808
C33	C	1.488430	-0.161756	-0.358280
N34	N	1.535276	-0.123797	0.265475
H35	H	1.138408	0.007580	0.069595
H36	H	0.904730	-0.258543	0.104009
O37	O	1.333493	0.373738	-0.000039
H38	H	1.260778	0.315475	-0.000037
O39	O	1.140589	0.009982	-0.092174
H40	H	1.196657	-0.041330	-0.137958
O41	O	1.640354	-0.038620	-0.467491
H42	H	1.633260	-0.044377	-0.383908
O43	O	1.697161	0.346354	-0.000057
H44	H	1.703498	0.297545	-0.069532
O45	O	1.390317	-0.241309	-0.532607
H46	H	1.397436	-0.235558	-0.616188
H47	H	0.910466	0.002937	-0.070479
O48	O	0.910848	0.026534	0.091742
H49	H	0.997730	0.054047	0.137007
H50	H	1.108362	-0.276252	-0.101390
O51	O	1.118998	-0.157076	-0.193788
H52	H	1.033941	-0.135504	-0.239981
H53	H	0.890804	-0.164448	-0.169737
O54	O	0.877945	-0.297499	-0.101619
H55	H	0.820430	-0.306680	-0.034492
O56	O	1.151581	-0.138994	0.194124
H57	H	1.256431	-0.145524	0.195551
O58	O	0.909771	-0.126518	0.193024
H59	H	0.851760	-0.065243	0.170710
H60	H	1.122532	-0.265962	0.097516
