data_functionalizedCrystal
_audit_creation_method	'MofGen! by Chris Wilmer'
_symmetry_space_group_name_H-M	'P1'
_symmetry_Int_Tables_number	1
_symmetry_cell_setting	triclinic
loop_
_symmetry_equiv_pos_as_xyz
  x,y,z
_cell_length_a	18.215407
_cell_length_b	17.640280
_cell_length_c	18.215399
_cell_angle_alpha	101.224603
_cell_angle_beta	90.019833
_cell_angle_gamma	78.800709
loop_
_atom_site_label
_atom_site_type_symbol
_atom_site_fract_x
_atom_site_fract_y
_atom_site_fract_z
Zn1	Zn	1.184366	-0.314661	0.356963
Zn2	Zn	1.517699	0.018673	0.690296
Zn3	Zn	1.851032	0.352006	1.023629
Zn4	Zn	1.209181	-0.446838	0.209048
Zn5	Zn	1.542514	-0.113505	0.542382
Zn6	Zn	1.875848	0.219829	0.875715
Zn7	Zn	1.061303	-0.314687	0.233905
Zn8	Zn	1.394636	0.018647	0.567239
Zn9	Zn	1.727970	0.351980	0.900572
Zn10	Zn	1.086163	-0.446794	0.332082
Zn11	Zn	1.419496	-0.113461	0.665415
Zn12	Zn	1.752829	0.219873	0.998748
O13	O	1.135253	-0.380745	0.282999
O14	O	1.468586	-0.047412	0.616333
O15	O	1.801920	0.285922	0.949666
O16	O	1.290643	-0.332202	0.337352
O17	O	1.623976	0.001131	0.670685
O18	O	1.957310	0.334465	1.004018
O19	O	1.189546	-0.429337	0.109356
O20	O	1.522879	-0.096004	0.442689
O21	O	1.856213	0.237329	0.776023
O22	O	1.056838	-0.204079	0.271045
O23	O	1.390172	0.129254	0.604378
O24	O	1.723505	0.462587	0.937711
O25	O	1.308875	-0.429312	0.228680
O26	O	1.642208	-0.095979	0.562013
O27	O	1.975542	0.237355	0.895346
O28	O	1.147252	-0.204060	0.361454
O29	O	1.480585	0.129273	0.694788
O30	O	1.813918	0.462606	1.028121
O31	O	1.080901	-0.332246	0.127618
O32	O	1.414234	0.001087	0.460951
O33	O	1.747567	0.334421	0.794285
O34	O	0.961615	-0.332203	0.246918
O35	O	1.294948	0.001130	0.580252
O36	O	1.628282	0.334463	0.913585
O37	O	1.099208	-0.429237	0.438372
O38	O	1.432541	-0.095904	0.771705
O39	O	1.765875	0.237430	1.105039
O40	O	0.979879	-0.429262	0.319048
O41	O	1.313213	-0.095929	0.652381
O42	O	1.646546	0.237404	0.985715
O43	O	1.171357	-0.332159	0.456652
O44	O	1.504691	0.001174	0.789985
O45	O	1.838024	0.334507	1.123319
O46	O	1.213652	-0.557436	0.204553
O47	O	1.546985	-0.224103	0.537887
O48	O	1.880318	0.109230	0.871220
O49	O	1.123271	-0.557404	0.294945
O50	O	1.456604	-0.224071	0.628279
O51	O	1.789937	0.109263	0.961612
C52	C	0.944044	-0.380731	0.282981
C53	C	1.277378	-0.047398	0.616314
C54	C	1.610711	0.285935	0.949648
C55	C	0.862248	-0.380745	0.282987
C56	C	1.195581	-0.047411	0.616320
C57	C	1.528915	0.285922	0.949653
C58	C	1.173871	-0.586099	0.244368
C59	C	1.507205	-0.252765	0.577702
C60	C	1.840538	0.080568	0.911035
C61	C	1.190460	-0.673950	0.227866
C62	C	1.523793	-0.340616	0.561200
C63	C	1.857127	-0.007283	0.894533
C64	C	0.683598	-0.431363	0.320471
C65	C	1.016932	-0.098029	0.653804
C66	C	1.350265	0.235304	0.987137
C67	C	0.606740	-0.431365	0.320479
C68	C	0.940073	-0.098032	0.653813
C69	C	1.273407	0.235302	0.987146
C70	C	0.587662	-0.330142	0.245542
C71	C	0.920996	0.003192	0.578875
C72	C	1.254329	0.336525	0.912208
C73	C	0.664519	-0.330136	0.245538
C74	C	0.997852	0.003198	0.578871
C75	C	1.331185	0.336531	0.912204
C76	C	0.712485	-0.380751	0.283000
C77	C	1.045819	-0.047417	0.616334
C78	C	1.379152	0.285916	0.949667
C79	C	0.558771	-0.380759	0.283013
C80	C	0.892104	-0.047426	0.616346
C81	C	1.225438	0.285908	0.949680
C82	C	0.475438	-0.380761	0.283022
C83	C	0.808771	-0.047428	0.616355
C84	C	1.142104	0.285905	0.949689
C85	C	0.795824	-0.380748	0.282993
C86	C	1.129157	-0.047414	0.616326
C87	C	1.462491	0.285919	0.949659
C88	C	1.009534	-0.962935	0.408631
C89	C	1.342868	-0.629601	0.741964
C90	C	1.676201	-0.296268	1.075297
C91	C	1.025123	-1.045484	0.393101
C92	C	1.358457	-0.712151	0.726435
C93	C	1.691790	-0.378817	1.059768
C94	C	1.119295	-1.045452	0.299071
C95	C	1.452629	-0.712119	0.632405
C96	C	1.785962	-0.378786	0.965738
C97	C	1.103717	-0.962901	0.314596
C98	C	1.437050	-0.629568	0.647929
C99	C	1.770384	-0.296234	0.981262
C100	C	1.048835	-0.921649	0.369375
C101	C	1.382168	-0.588315	0.702709
C102	C	1.715502	-0.254982	1.036042
C103	C	1.143018	-0.921615	0.275340
C104	C	1.476351	-0.588282	0.608674
C105	C	1.809684	-0.254949	0.942007
C106	C	1.127438	-0.839071	0.290861
C107	C	1.460771	-0.505738	0.624194
C108	C	1.794104	-0.172405	0.957527
C109	C	1.072557	-0.797813	0.345636
C110	C	1.405890	-0.464480	0.678970
C111	C	1.739223	-0.131146	1.012303
C112	C	1.033255	-0.839105	0.384896
C113	C	1.366588	-0.505771	0.718229
C114	C	1.699922	-0.172438	1.051563
C115	C	1.197896	-0.962869	0.220557
C116	C	1.531229	-0.629536	0.553890
C117	C	1.864562	-0.296202	0.887223
C118	C	1.237196	-0.921583	0.181301
C119	C	1.570530	-0.588250	0.514635
C120	C	1.903863	-0.254917	0.847968
C121	C	1.221620	-0.839038	0.196825
C122	C	1.554953	-0.505704	0.530159
C123	C	1.888287	-0.172371	0.863492
C124	C	1.166739	-0.797780	0.251601
C125	C	1.500073	-0.464446	0.584935
C126	C	1.833406	-0.131113	0.918268
C127	C	1.260922	-0.797746	0.157566
C128	C	1.594255	-0.464413	0.490899
C129	C	1.927589	-0.131079	0.824233
C130	C	1.245342	-0.715202	0.173086
C131	C	1.578675	-0.381869	0.506420
C132	C	1.912008	-0.048535	0.839753
C133	C	1.151159	-0.715236	0.267122
C134	C	1.484493	-0.381902	0.600455
C135	C	1.817826	-0.048569	0.933788
C136	C	1.327209	-0.380759	0.283018
C137	C	1.660542	-0.047426	0.616352
C138	C	1.993875	0.285908	0.949685
C139	C	1.409009	-0.380765	0.283027
C140	C	1.742342	-0.047432	0.616360
C141	C	2.075675	0.285902	0.949693
C142	C	1.135288	-0.380690	0.474963
C143	C	1.468621	-0.047357	0.808296
C144	C	1.801954	0.285976	1.141629
C145	C	1.135302	-0.380667	0.556766
C146	C	1.468636	-0.047334	0.890099
C147	C	1.801969	0.285999	1.223433
C148	C	1.096504	-0.174589	0.321798
C149	C	1.429837	0.158744	0.655131
C150	C	1.763171	0.492077	0.988464
C151	C	1.079991	-0.086738	0.338331
C152	C	1.413325	0.246595	0.671664
C153	C	1.746658	0.579928	1.004998
C154	C	1.135250	-0.380742	0.091794
C155	C	1.468584	-0.047409	0.425127
C156	C	1.801917	0.285924	0.758460
C157	C	1.135336	-0.380543	0.010033
C158	C	1.468669	-0.047209	0.343366
C159	C	1.802003	0.286124	0.676699
C160	C	1.172878	-0.330072	0.754489
C161	C	1.506212	0.003262	1.087822
C162	C	1.839545	0.336595	1.421155
C163	C	1.172883	-0.330049	0.831352
C164	C	1.506216	0.003285	1.164685
C165	C	1.839550	0.336618	1.498018
C166	C	1.097755	-0.431141	0.812304
C167	C	1.431089	-0.097807	1.145638
C168	C	1.764422	0.235526	1.478971
C169	C	1.097747	-0.431159	0.735444
C170	C	1.431080	-0.097826	1.068777
C171	C	1.764413	0.235508	1.402110
C172	C	1.135313	-0.380626	0.706537
C173	C	1.468646	-0.047292	1.039871
C174	C	1.801979	0.286041	1.373204
C175	C	1.135326	-0.380584	0.860261
C176	C	1.468659	-0.047251	1.193595
C177	C	1.801992	0.286082	1.526928
C178	C	1.135330	-0.380560	0.943600
C179	C	1.468664	-0.047226	1.276933
C180	C	1.801997	0.286107	1.610266
C181	C	1.135307	-0.380649	0.623194
C182	C	1.468641	-0.047316	0.956527
C183	C	1.801974	0.286018	1.289861
H184	H	0.722651	-0.472575	0.350978
H185	H	1.055984	-0.139241	0.684311
H186	H	1.389318	0.194092	1.017644
C187	C	0.574970	-0.487050	0.361692
C188	C	0.908303	-0.153716	0.695025
C189	C	1.241637	0.179617	1.028358
N190	N	0.551042	-0.528996	0.392732
N191	N	0.884375	-0.195663	0.726066
N192	N	1.217709	0.137671	1.059399
C193	C	0.696296	-0.274456	0.204315
C194	C	1.029629	0.058877	0.537648
C195	C	1.362962	0.392211	0.870982
N196	N	0.720230	-0.232519	0.173268
N197	N	1.053564	0.100815	0.506602
N198	N	1.386897	0.434148	0.839935
C199	C	1.056417	-0.486773	0.682694
C200	C	1.389750	-0.153440	1.016027
C201	C	1.723083	0.179894	1.349361
N202	N	1.025286	-0.528658	0.642964
N203	N	1.358619	-0.195324	0.976297
N204	N	1.691953	0.138009	1.309630
C205	C	1.090776	-0.669853	0.327373
C206	C	1.424110	-0.336520	0.660706
C207	C	1.757443	-0.003187	0.994040
N208	N	1.045292	-0.635671	0.372746
N209	N	1.378626	-0.302338	0.706080
N210	N	1.711959	0.030995	1.039413
H211	H	1.059867	-0.730600	0.358267
H212	H	1.393201	-0.397267	0.691600
H213	H	1.726534	-0.063934	1.024934
H214	H	0.548599	-0.288934	0.215039
H215	H	0.881932	0.044399	0.548373
H216	H	1.215266	0.377733	0.881706
C217	C	1.214194	-0.274477	0.722696
C218	C	1.547528	0.058857	1.056029
C219	C	1.880861	0.392190	1.389363
N220	N	1.245312	-0.232598	0.698753
N221	N	1.578645	0.100736	1.032086
N222	N	1.911978	0.434069	1.365420
C223	C	0.972872	-0.793722	0.445147
C224	C	1.306205	-0.460389	0.778481
C225	C	1.639539	-0.127056	1.111814
N226	N	0.927388	-0.759540	0.490520
N227	N	1.260721	-0.426207	0.823854
N228	N	1.594055	-0.092874	1.157187
H229	H	0.993124	-1.079096	0.425081
H230	H	1.326458	-0.745763	0.758414
H231	H	1.659791	-0.412429	1.091747
C232	C	0.949152	-0.917552	0.468882
C233	C	1.282485	-0.584219	0.802215
C234	C	1.615818	-0.250886	1.135549
N235	N	0.903667	-0.883370	0.514255
N236	N	1.237001	-0.550037	0.847589
N237	N	1.570334	-0.216704	1.180922
H238	H	1.203471	-0.288881	0.870391
H239	H	1.536805	0.044452	1.203725
H240	H	1.870138	0.377786	1.537058
H241	H	1.210581	-1.030082	0.207924
H242	H	1.543914	-0.696748	0.541257
H243	H	1.877247	-0.363415	0.874591
C244	C	1.179661	-1.090839	0.238812
C245	C	1.512994	-0.757506	0.572145
C246	C	1.846327	-0.424173	0.905479
N247	N	1.225129	-1.125024	0.193424
N248	N	1.558463	-0.791691	0.526758
N249	N	1.891796	-0.458357	0.860091
C250	C	1.297562	-0.966970	0.121042
C251	C	1.630895	-0.633637	0.454375
C252	C	1.964228	-0.300304	0.787709
N253	N	1.343030	-1.001155	0.075654
N254	N	1.676364	-0.667822	0.408988
N255	N	2.009697	-0.334488	0.742321
H256	H	1.305601	-0.831346	0.112959
H257	H	1.638935	-0.498013	0.446292
H258	H	1.972268	-0.164680	0.779626
C259	C	1.056433	-0.486723	0.844109
C260	C	1.389767	-0.153390	1.177443
C261	C	1.723100	0.179944	1.510776
N262	N	1.025308	-0.528588	0.868064
N263	N	1.358642	-0.195255	1.201397
N264	N	1.691975	0.138078	1.534730
C265	C	1.288581	-0.669785	0.129909
C266	C	1.621914	-0.336452	0.463243
C267	C	1.955247	-0.003118	0.796576
N268	N	1.321150	-0.635577	0.097388
N269	N	1.654483	-0.302244	0.430721
N270	N	1.987816	0.031090	0.764054
