data_functionalizedCrystal
_audit_creation_method	'MofGen! by Chris Wilmer'
_symmetry_space_group_name_H-M	'P1'
_symmetry_Int_Tables_number	1
_symmetry_cell_setting	triclinic
loop_
_symmetry_equiv_pos_as_xyz
  x,y,z
_cell_length_a	19.188933
_cell_length_b	10.654541
_cell_length_c	9.730217
_cell_angle_alpha	90.003041
_cell_angle_beta	90.000010
_cell_angle_gamma	96.185251
loop_
_atom_site_label
_atom_site_type_symbol
_atom_site_fract_x
_atom_site_fract_y
_atom_site_fract_z
O1	O	0.927166	-0.156790	-0.114244
O2	O	1.427166	0.343210	0.385756
O3	O	0.723992	-0.177892	-0.114256
O4	O	1.223992	0.322108	0.385744
O5	O	0.830251	0.015497	-0.114241
O6	O	1.330251	0.515497	0.385759
O7	O	0.820907	-0.350179	-0.114259
O8	O	1.320907	0.149821	0.385741
O9	O	0.830248	0.015499	0.114339
O10	O	1.330248	0.515499	0.614339
O11	O	0.723989	-0.177891	0.114324
O12	O	1.223989	0.322109	0.614324
O13	O	0.927162	-0.156788	0.114337
O14	O	1.427162	0.343212	0.614337
Zn15	Zn	0.825575	-0.167339	0.150622
Zn16	Zn	1.325575	0.332661	0.650622
Zn17	Zn	0.825580	-0.167341	-0.150542
Zn18	Zn	1.325580	0.332659	0.349458
O19	O	0.820903	-0.350178	0.114321
O20	O	1.320903	0.149822	0.614321
C21	C	0.829564	0.062282	0.000048
C22	C	1.329564	0.562282	0.500048
C23	C	0.827512	0.201682	0.000045
C24	C	1.327512	0.701682	0.500045
C25	C	0.697975	-0.177208	0.000032
C26	C	1.197975	0.322792	0.500032
C27	C	0.620457	-0.175155	0.000027
C28	C	1.120457	0.324845	0.500027
N29	N	0.825577	-0.167337	0.356159
N30	N	1.325577	0.332663	0.856159
C31	C	0.067108	-0.160506	-0.124556
C32	C	0.567108	0.339494	0.375444
C33	C	0.139945	-0.162427	-0.124561
C34	C	0.639945	0.337573	0.375439
C35	C	0.176366	-0.163393	0.000037
C36	C	0.676366	0.336607	0.500037
C37	C	0.139947	-0.162405	0.124650
C38	C	0.639947	0.337595	0.624650
C39	C	0.067113	-0.160471	0.124652
C40	C	0.567113	0.339529	0.624652
N41	N	0.285872	-0.237887	0.092778
N42	N	0.785872	0.262113	0.592778
N43	N	0.355062	-0.239727	0.092768
N44	N	0.855062	0.260273	0.592768
C45	C	0.395813	-0.169216	0.000039
C46	C	0.895813	0.330784	0.500039
N47	N	0.364760	-0.096812	-0.092700
N48	N	0.864760	0.403188	0.407300
N49	N	0.295564	-0.094978	-0.092694
N50	N	0.795564	0.405022	0.407306
C51	C	0.255343	-0.165489	0.000049
C52	C	0.755343	0.334511	0.500049
C53	C	0.511202	-0.172278	-0.124572
C54	C	1.011202	0.327722	0.375428
C55	C	0.584041	-0.174192	-0.124572
C56	C	1.084041	0.325808	0.375428
C57	C	0.584041	-0.174182	0.124643
C58	C	1.084041	0.325818	0.624643
C59	C	0.511204	-0.172256	0.124640
C60	C	1.011204	0.327744	0.624640
C61	C	0.474789	-0.171310	0.000028
C62	C	0.974789	0.328690	0.500028
C63	C	0.953179	-0.157473	0.000045
C64	C	1.453179	0.342527	0.500045
C65	C	1.030697	-0.159525	0.000041
C66	C	1.530697	0.340475	0.500041
C67	C	0.821591	-0.396962	0.000029
C68	C	1.321591	0.103038	0.500029
C69	C	0.823643	-0.536362	0.000023
C70	C	1.323643	-0.036362	0.500023
C71	C	0.954573	0.232340	0.000071
C72	C	1.454573	0.732340	0.500071
C73	C	1.017137	0.313157	0.000086
C74	C	1.517137	0.813157	0.500086
C75	C	1.015205	0.444134	0.000082
C76	C	1.515205	0.944134	0.500082
C77	C	0.950702	0.494295	0.000058
C78	C	1.450702	0.994295	0.500058
C79	C	0.888138	0.413478	0.000042
C80	C	1.388138	0.913478	0.500042
C81	C	0.890077	0.282500	0.000051
C82	C	1.390077	0.782500	0.500051
C83	C	0.761079	0.382821	0.000007
C84	C	1.261079	0.882821	0.500007
C85	C	0.763009	0.251843	0.000022
C86	C	1.263009	0.751843	0.500022
C87	C	0.696576	0.432982	-0.000017
C88	C	1.196576	0.932982	0.499983
C89	C	0.634011	0.352164	-0.000022
C90	C	1.134011	0.852164	0.499978
C91	C	0.635945	0.221179	-0.000016
C92	C	1.135945	0.721179	0.499984
C93	C	0.700445	0.171026	0.000006
C94	C	1.200445	0.671026	0.500006
N95	N	0.825583	-0.167334	-0.356078
N96	N	1.325583	0.332666	0.143922
C97	C	0.919708	0.003861	0.356163
C98	C	1.419708	0.503861	0.856163
C99	C	0.966778	0.089456	0.428104
C100	C	1.466778	0.589456	0.928104
C101	C	0.966786	0.089457	0.571984
C102	C	1.466786	0.589457	1.071984
C103	C	0.919716	0.003856	0.643925
C104	C	1.419716	0.503856	1.143925
C105	C	0.872646	-0.081739	0.571984
C106	C	1.372646	0.418261	1.071984
C107	C	0.872645	-0.081733	0.428101
C108	C	1.372645	0.418267	0.928101
C109	C	0.778513	-0.252929	0.571980
C110	C	1.278513	0.247071	1.071980
C111	C	0.778508	-0.252938	0.428100
C112	C	1.278508	0.247062	0.928100
C113	C	0.731443	-0.338530	0.643921
C114	C	1.231443	0.161470	1.143921
C115	C	0.684375	-0.424133	0.571979
C116	C	1.184375	0.075867	1.071979
C117	C	0.684371	-0.424132	0.428091
C118	C	1.184371	0.075868	0.928091
C119	C	0.731438	-0.338533	0.356158
C120	C	1.231438	0.161467	0.856158
H121	H	0.037463	-0.159731	-0.226025
H122	H	0.537463	0.340269	0.273975
F123	F	1.085782	0.259763	0.000105
F124	F	1.585782	0.759763	0.500105
H125	H	0.481551	-0.171504	-0.226038
H126	H	0.981551	0.328496	0.273962
H127	H	0.169596	-0.163233	-0.226026
H128	H	0.669596	0.336767	0.273974
F129	F	1.081792	0.530148	0.000087
F130	F	1.581792	1.030148	0.500087
F131	F	0.731440	-0.338528	0.203028
F132	F	1.231440	0.161472	0.703028
F133	F	1.016869	0.180560	0.351533
F134	F	1.516869	0.680560	0.851533
H135	H	0.949135	0.600945	0.000037
H136	H	1.449135	1.100945	0.500037
F137	F	0.569355	0.135176	-0.000042
F138	F	1.069355	0.635176	0.499958
F139	F	0.702510	0.031630	0.000022
F140	F	1.202510	0.531630	0.500022
F141	F	0.694521	0.572380	-0.000092
F142	F	1.194521	1.072380	0.499908
F143	F	0.622800	-0.175193	0.257251
F144	F	1.122800	0.324807	0.757251
F145	F	0.565370	0.405557	-0.000062
F146	F	1.065370	0.905557	0.499938
H147	H	0.169607	-0.163188	0.226099
H148	H	0.669607	0.336812	0.726099
H149	H	1.005112	0.159161	0.630560
H150	H	1.505112	0.659161	1.130560
F151	F	0.919717	0.003873	0.797056
F152	F	1.419717	0.503873	1.297056
F153	F	0.028360	-0.159430	0.257271
F154	F	0.528360	0.340570	0.757271
H155	H	0.646051	-0.493818	0.630562
H156	H	1.146051	0.006182	1.130562
H157	H	0.613686	-0.174981	-0.226038
H158	H	1.113686	0.325019	0.273962
F159	F	0.956635	0.092943	0.000102
F160	F	1.456635	0.592943	0.500102
H161	H	0.919713	0.003859	0.239008
H162	H	1.419713	0.503859	0.739008
F163	F	0.731447	-0.338523	0.797051
F164	F	1.231447	0.161477	1.297051
F165	F	0.472451	-0.171229	0.257254
F166	F	0.972451	0.328771	0.757254
F167	F	0.634267	-0.515230	0.351536
F168	F	1.134267	-0.015230	0.851536
