data_functionalizedCrystal
_audit_creation_method	'MofGen! by Chris Wilmer'
_symmetry_space_group_name_H-M	'P1'
_symmetry_Int_Tables_number	1
_symmetry_cell_setting	triclinic
loop_
_symmetry_equiv_pos_as_xyz
  x,y,z
_cell_length_a	18.215407
_cell_length_b	19.077068
_cell_length_c	19.077314
_cell_angle_alpha	90.121627
_cell_angle_beta	87.718516
_cell_angle_gamma	92.327501
loop_
_atom_site_label
_atom_site_type_symbol
_atom_site_fract_x
_atom_site_fract_y
_atom_site_fract_z
Zn1	Zn	1.096804	-0.263804	0.408541
Zn2	Zn	1.346804	-0.013804	0.658541
Zn3	Zn	1.596804	0.236196	0.908541
Zn4	Zn	1.846804	0.486196	1.158541
Zn5	Zn	1.096313	-0.386032	0.295748
Zn6	Zn	1.346313	-0.136032	0.545748
Zn7	Zn	1.596313	0.113968	0.795748
Zn8	Zn	1.846313	0.363968	1.045748
Zn9	Zn	0.978476	-0.268542	0.291048
Zn10	Zn	1.228476	-0.018542	0.541048
Zn11	Zn	1.478476	0.231458	0.791048
Zn12	Zn	1.728476	0.481458	1.041048
Zn13	Zn	0.968566	-0.381279	0.413214
Zn14	Zn	1.218566	-0.131279	0.663214
Zn15	Zn	1.468566	0.118721	0.913214
Zn16	Zn	1.718566	0.368721	1.163214
O17	O	1.035040	-0.324914	0.352138
O18	O	1.285040	-0.074914	0.602138
O19	O	1.535040	0.175086	0.852138
O20	O	1.785040	0.425086	1.102138
O21	O	1.199723	-0.280024	0.393590
O22	O	1.449723	-0.030024	0.643590
O23	O	1.699723	0.219976	0.893590
O24	O	1.949723	0.469976	1.143590
O25	O	1.084624	-0.374420	0.196793
O26	O	1.334624	-0.124420	0.446793
O27	O	1.584624	0.125580	0.696793
O28	O	1.834624	0.375580	0.946793
O29	O	0.998526	-0.169580	0.302711
O30	O	1.248526	0.080420	0.552711
O31	O	1.498526	0.330420	0.802711
O32	O	1.748526	0.580420	1.052711
O33	O	1.199362	-0.369825	0.310721
O34	O	1.449362	-0.119825	0.560721
O35	O	1.699362	0.130175	0.810721
O36	O	1.949362	0.380175	1.060721
O37	O	1.085461	-0.166098	0.389033
O38	O	1.335461	0.083902	0.639033
O39	O	1.585461	0.333902	0.889033
O40	O	1.835461	0.583902	1.139033
O41	O	0.998050	-0.288100	0.193340
O42	O	1.248050	-0.038100	0.443340
O43	O	1.498050	0.211900	0.693340
O44	O	1.748050	0.461900	0.943340
O45	O	0.874178	-0.283491	0.307242
O46	O	1.124178	-0.033491	0.557242
O47	O	1.374178	0.216509	0.807242
O48	O	1.624178	0.466509	1.057242
O49	O	0.981634	-0.361723	0.510925
O50	O	1.231634	-0.111723	0.760925
O51	O	1.481634	0.138277	1.010925
O52	O	1.731634	0.388277	1.260925
O53	O	0.866897	-0.366318	0.396997
O54	O	1.116897	-0.116318	0.646997
O55	O	1.366897	0.133682	0.896997
O56	O	1.616897	0.383682	1.146997
O57	O	1.075851	-0.275414	0.507492
O58	O	1.325851	-0.025414	0.757492
O59	O	1.575851	0.224586	1.007492
O60	O	1.825851	0.474586	1.257492
O61	O	1.075014	-0.483735	0.315252
O62	O	1.325014	-0.233735	0.565252
O63	O	1.575014	0.016265	0.815252
O64	O	1.825014	0.266265	1.065252
O65	O	0.981159	-0.480243	0.401554
O66	O	1.231159	-0.230243	0.651554
O67	O	1.481159	0.019757	0.901554
O68	O	1.731159	0.269757	1.151554
C69	C	0.843835	-0.324903	0.352117
C70	C	1.093835	-0.074903	0.602117
C71	C	1.343835	0.175097	0.852117
C72	C	1.593835	0.425097	1.102117
C73	C	0.762035	-0.324914	0.352125
C74	C	1.012035	-0.074914	0.602125
C75	C	1.262035	0.175086	0.852125
C76	C	1.512035	0.425086	1.102125
C77	C	0.570068	-0.368115	0.398807
C78	C	0.820068	-0.118115	0.648807
C79	C	1.070068	0.131885	0.898807
C80	C	1.320068	0.381885	1.148807
C81	C	0.493209	-0.368117	0.398816
C82	C	0.743209	-0.118117	0.648816
C83	C	0.993209	0.131883	0.898816
C84	C	1.243209	0.381883	1.148816
C85	C	0.500762	-0.281725	0.305484
C86	C	0.750762	-0.031725	0.555484
C87	C	1.000762	0.218275	0.805484
C88	C	1.250762	0.468275	1.055484
C89	C	0.577620	-0.281720	0.305479
C90	C	0.827620	-0.031720	0.555479
C91	C	1.077620	0.218280	0.805479
C92	C	1.327620	0.468280	1.055479
C93	C	0.612271	-0.324919	0.352140
C94	C	0.862271	-0.074919	0.602140
C95	C	1.112271	0.175081	0.852140
C96	C	1.362271	0.425081	1.102140
C97	C	0.458554	-0.324926	0.352153
C98	C	0.708554	-0.074926	0.602153
C99	C	0.958554	0.175074	0.852153
C100	C	1.208554	0.425074	1.102153
C101	C	0.375220	-0.324928	0.352163
C102	C	0.625220	-0.074928	0.602163
C103	C	0.875220	0.175072	0.852163
C104	C	1.125220	0.425072	1.102163
C105	C	0.695610	-0.324917	0.352132
C106	C	0.945610	-0.074917	0.602132
C107	C	1.195610	0.175083	0.852132
C108	C	1.445610	0.425083	1.102132
C109	C	1.026977	-0.507485	0.359436
C110	C	1.276977	-0.257485	0.609436
C111	C	1.526977	-0.007485	0.859436
C112	C	1.776977	0.242515	1.109436
C113	C	1.023594	-0.585589	0.362581
C114	C	1.273594	-0.335589	0.612581
C115	C	1.523594	-0.085589	0.862581
C116	C	1.773594	0.164411	1.112581
C117	C	1.070906	-0.624076	0.319164
C118	C	1.320906	-0.374076	0.569164
C119	C	1.570906	-0.124076	0.819164
C120	C	1.820906	0.125924	1.069164
C121	C	1.067728	-0.697462	0.322127
C122	C	1.317728	-0.447462	0.572127
C123	C	1.567728	-0.197462	0.822127
C124	C	1.817728	0.052538	1.072127
C125	C	1.017235	-0.732361	0.368504
C126	C	1.267235	-0.482361	0.618504
C127	C	1.517235	-0.232361	0.868504
C128	C	1.767235	0.017639	1.118504
C129	C	0.969922	-0.693869	0.411926
C130	C	1.219922	-0.443869	0.661926
C131	C	1.469922	-0.193869	0.911926
C132	C	1.719922	0.056131	1.161926
C133	C	0.973103	-0.620483	0.408967
C134	C	1.223103	-0.370483	0.658967
C135	C	1.473103	-0.120483	0.908967
C136	C	1.723103	0.129517	1.158967
C137	C	1.002479	-0.951647	0.382173
C138	C	1.252479	-0.701647	0.632173
C139	C	1.502479	-0.451647	0.882173
C140	C	1.752479	-0.201647	1.132173
C141	C	0.999300	-1.025038	0.385128
C142	C	1.249300	-0.775038	0.635128
C143	C	1.499300	-0.525038	0.885128
C144	C	1.749300	-0.275038	1.135128
C145	C	1.097107	-1.028626	0.295329
C146	C	1.347107	-0.778626	0.545329
C147	C	1.597107	-0.528626	0.795329
C148	C	1.847107	-0.278626	1.045329
C149	C	1.100282	-0.955239	0.292371
C150	C	1.350282	-0.705239	0.542371
C151	C	1.600282	-0.455239	0.792371
C152	C	1.850282	-0.205239	1.042371
C153	C	1.052971	-0.916754	0.335796
C154	C	1.302971	-0.666754	0.585796
C155	C	1.552971	-0.416754	0.835796
C156	C	1.802971	-0.166754	1.085796
N157	N	1.013984	-0.807374	0.371532
N158	N	1.263984	-0.557374	0.621532
N159	N	1.513984	-0.307374	0.871532
N160	N	1.763984	-0.057374	1.121532
N161	N	1.056226	-0.841742	0.332771
N162	N	1.306226	-0.591742	0.582771
N163	N	1.556226	-0.341742	0.832771
N164	N	1.806226	-0.091742	1.082771
C165	C	1.226991	-0.324926	0.352159
C166	C	1.476991	-0.074926	0.602159
C167	C	1.726991	0.175074	0.852159
C168	C	1.976991	0.425074	1.102159
C169	C	1.308790	-0.324931	0.352168
C170	C	1.558790	-0.074931	0.602168
C171	C	1.808790	0.175069	0.852168
C172	C	2.058790	0.425069	1.102168
C173	C	1.027692	-0.317510	0.535418
C174	C	1.277692	-0.067510	0.785418
C175	C	1.527692	0.182490	1.035418
C176	C	1.777692	0.432490	1.285418
C177	C	1.024560	-0.314354	0.613521
C178	C	1.274560	-0.064354	0.863521
C179	C	1.524560	0.185646	1.113521
C180	C	1.774560	0.435646	1.363521
C181	C	1.043153	-0.141629	0.344826
C182	C	1.293153	0.108371	0.594826
C183	C	1.543153	0.358371	0.844826
C184	C	1.793153	0.608371	1.094826
C185	C	1.046611	-0.063524	0.341711
C186	C	1.296611	0.186476	0.591711
C187	C	1.546611	0.436476	0.841711
C188	C	1.796611	0.686476	1.091711
C189	C	1.042404	-0.332239	0.169568
C190	C	1.292404	-0.082239	0.419568
C191	C	1.542404	0.167761	0.669568
C192	C	1.792404	0.417761	0.919568
C193	C	1.045687	-0.335196	0.091458
C194	C	1.295687	-0.085196	0.341458
C195	C	1.545687	0.164804	0.591458
C196	C	1.795687	0.414804	0.841458
C197	C	1.068160	-0.357811	0.652014
C198	C	1.318160	-0.107811	0.902014
C199	C	1.568160	0.142189	1.152014
C200	C	1.818160	0.392189	1.402014
C201	C	1.065219	-0.354838	0.725400
C202	C	1.315219	-0.104838	0.975400
C203	C	1.565219	0.145162	1.225400
C204	C	1.815219	0.395162	1.475400
C205	C	1.018672	-0.308411	0.760291
C206	C	1.268672	-0.058411	1.010291
C207	C	1.518672	0.191589	1.260291
C208	C	1.768672	0.441589	1.510291
C209	C	0.975071	-0.264949	0.721792
C210	C	1.225071	-0.014949	0.971792
C211	C	1.475071	0.235051	1.221792
C212	C	1.725071	0.485051	1.471792
C213	C	0.978017	-0.267919	0.648408
C214	C	1.228017	-0.017919	0.898408
C215	C	1.478017	0.232081	1.148408
C216	C	1.728017	0.482081	1.398408
C217	C	1.005031	-0.294705	0.979574
C218	C	1.255031	-0.044705	1.229574
C219	C	1.505031	0.205295	1.479574
C220	C	1.755031	0.455295	1.729574
C221	C	1.002087	-0.291739	1.052964
C222	C	1.252087	-0.041739	1.302964
C223	C	1.502087	0.208261	1.552964
C224	C	1.752087	0.458261	1.802964
C225	C	1.092236	-0.381628	1.056567
C226	C	1.342236	-0.131628	1.306567
C227	C	1.592236	0.118372	1.556567
C228	C	1.842236	0.368372	1.806567
C229	C	1.095175	-0.384597	0.983181
C230	C	1.345175	-0.134597	1.233181
C231	C	1.595175	0.115403	1.483181
C232	C	1.845175	0.365403	1.733181
C233	C	1.051576	-0.341133	0.944688
C234	C	1.301576	-0.091133	1.194688
C235	C	1.551576	0.158867	1.444688
C236	C	1.801576	0.408867	1.694688
N237	N	1.015662	-0.305372	0.835303
N238	N	1.265662	-0.055372	1.085303
N239	N	1.515662	0.194628	1.335303
N240	N	1.765662	0.444628	1.585303
N241	N	1.054590	-0.344169	0.869678
N242	N	1.304590	-0.094169	1.119678
N243	N	1.554590	0.155831	1.369678
N244	N	1.804590	0.405831	1.619678
H245	H	1.112020	-0.595667	0.281395
H246	H	1.362020	-0.345667	0.531395
H247	H	1.612020	-0.095667	0.781395
H248	H	1.862020	0.154333	1.031395
H249	H	0.472540	-0.246555	0.267493
H250	H	0.722540	0.003445	0.517493
H251	H	0.972540	0.253445	0.767493
H252	H	1.222540	0.503445	1.017493
F253	F	0.622538	-0.235739	0.255810
F254	F	0.872538	0.014261	0.505810
F255	F	1.122538	0.264261	0.755810
F256	F	1.372538	0.514261	1.005810
H257	H	1.135626	-1.059969	0.259976
H258	H	1.385626	-0.809969	0.509976
H259	H	1.635626	-0.559969	0.759976
H260	H	1.885626	-0.309969	1.009976
H261	H	0.958190	-1.053449	0.422907
H262	H	1.208190	-0.803449	0.672907
H263	H	1.458190	-0.553449	0.922907
H264	H	1.708190	-0.303449	1.172907
H265	H	0.458851	-0.403291	0.436818
H266	H	0.708851	-0.153291	0.686818
H267	H	0.958851	0.096709	0.936818
H268	H	1.208851	0.346709	1.186818
H269	H	1.106254	-0.728795	0.286771
H270	H	1.356254	-0.478795	0.536771
H271	H	1.606254	-0.228795	0.786771
H272	H	1.856254	0.021205	1.036771
H273	H	1.141397	-0.926827	0.254607
H274	H	1.391397	-0.676827	0.504607
H275	H	1.641397	-0.426827	0.754607
H276	H	1.891397	-0.176827	1.004607
H277	H	0.942515	-0.232530	0.617067
H278	H	1.192515	0.017470	0.867067
H279	H	1.442515	0.267470	1.117067
H280	H	1.692515	0.517470	1.367067
H281	H	0.969527	-0.259316	0.948243
H282	H	1.219527	-0.009316	1.198243
H283	H	1.469527	0.240684	1.448243
H284	H	1.719527	0.490684	1.698243
H285	H	0.598279	-0.403289	0.436803
H286	H	0.848279	-0.153289	0.686803
H287	H	1.098279	0.096711	0.936803
H288	H	1.348279	0.346711	1.186803
F289	F	0.952126	-0.910697	0.428390
F290	F	1.202126	-0.660697	0.678390
F291	F	1.452126	-0.410697	0.928390
F292	F	1.702126	-0.160697	1.178390
F293	F	0.916187	-0.731012	0.461289
F294	F	1.166187	-0.481012	0.711289
F295	F	1.416187	-0.231012	0.961289
F296	F	1.666187	0.018988	1.211289
H297	H	0.934578	-0.589148	0.444323
H298	H	1.184578	-0.339148	0.694323
H299	H	1.434578	-0.089148	0.944323
H300	H	1.684578	0.160852	1.194323
H301	H	1.106066	-0.395616	0.623611
H302	H	1.356066	-0.145616	0.873611
H303	H	1.606066	0.104384	1.123611
H304	H	1.856066	0.354384	1.373611
F305	F	1.111620	-0.401095	0.766365
F306	F	1.361620	-0.151095	1.016365
F307	F	1.611620	0.098905	1.266365
F308	F	1.861620	0.348905	1.516365
F309	F	1.144717	-0.434010	0.946053
F310	F	1.394717	-0.184010	1.196053
F311	F	1.644717	0.065990	1.446053
F312	F	1.894717	0.315990	1.696053
F313	F	1.138635	-0.427882	1.097538
F314	F	1.388635	-0.177882	1.347538
F315	F	1.638635	0.072118	1.597538
F316	F	1.888635	0.322118	1.847538
H317	H	0.937175	-0.227144	0.750206
H318	H	1.187175	0.022856	1.000206
H319	H	1.437175	0.272856	1.250206
H320	H	1.687175	0.522856	1.500206
H321	H	0.964185	-0.253927	1.081370
H322	H	1.214185	-0.003927	1.331370
H323	H	1.464185	0.246073	1.581370
H324	H	1.714185	0.496073	1.831370
