data_functionalizedCrystal
_audit_creation_method	'MofGen! by Chris Wilmer'
_symmetry_space_group_name_H-M	'P1'
_symmetry_Int_Tables_number	1
_symmetry_cell_setting	triclinic
loop_
_symmetry_equiv_pos_as_xyz
  x,y,z
_cell_length_a	33.428889
_cell_length_b	33.428139
_cell_length_c	33.424847
_cell_angle_alpha	60.004234
_cell_angle_beta	60.008465
_cell_angle_gamma	59.994972
loop_
_atom_site_label
_atom_site_type_symbol
_atom_site_fract_x
_atom_site_fract_y
_atom_site_fract_z
O1	O	0.055565	-0.584504	0.488714
O2	O	0.555565	-0.084504	0.988714
O3	O	0.020982	-0.455083	0.393778
O4	O	0.520982	0.044917	0.893778
O5	O	0.102943	-0.536959	0.393689
O6	O	0.602943	-0.036959	0.893689
O7	O	-0.026396	-0.502628	0.488803
O8	O	0.473604	-0.002628	0.988803
O9	O	0.130140	-0.509767	0.420792
O10	O	0.630140	-0.009767	0.920792
O11	O	0.048179	-0.427891	0.420881
O12	O	0.548179	0.072109	0.920881
O13	O	0.082762	-0.557312	0.515817
O14	O	0.582762	-0.057312	1.015817
Cu15	Cu	0.067954	-0.490119	0.470823
Cu16	Cu	0.567954	0.009881	0.970823
Cu17	Cu	0.035790	-0.522276	0.438771
Cu18	Cu	0.535790	-0.022276	0.938771
O19	O	0.000801	-0.475436	0.515906
O20	O	0.500801	0.024564	1.015906
N21	N	0.090577	-0.467504	0.493370
N22	N	0.590577	0.032496	0.993370
N23	N	0.013171	-0.544895	0.416225
N24	N	0.513171	-0.044895	0.916225
C25	C	0.143377	-0.280390	0.546067
C26	C	0.643377	0.219610	1.046067
C27	C	0.143515	-0.414755	0.680369
C28	C	0.643515	0.085245	1.180369
C29	C	0.143392	-0.414735	0.546069
C30	C	0.643392	0.085265	1.046069
C31	C	0.277766	-0.414702	0.545966
C32	C	0.777766	0.085298	1.045966
C33	C	0.158177	-0.324719	0.560828
C34	C	0.658177	0.175281	1.060828
C35	C	0.158255	-0.399967	0.636038
C36	C	0.658255	0.100033	1.136038
C37	C	0.233434	-0.399936	0.560773
C38	C	0.733434	0.100064	1.060773
C39	C	0.158186	-0.399955	0.560829
C40	C	0.658186	0.100045	1.060829
C41	C	0.124540	-0.223964	0.527278
C42	C	0.624540	0.276036	1.027278
C43	C	0.124565	-0.433545	0.527281
C44	C	0.624565	0.066455	1.027281
C45	C	0.177014	-0.381145	0.579617
C46	C	0.677014	0.118855	1.079617
C47	C	0.359814	-0.400540	0.502735
C48	C	0.859814	0.099460	1.002735
C49	C	0.411105	-0.417624	0.485606
C50	C	0.911105	0.082376	0.985606
C51	C	0.411136	-0.500620	0.517255
C52	C	0.911136	-0.000620	1.017255
C53	C	0.359845	-0.483534	0.534385
C54	C	0.859845	0.016466	1.034385
C55	C	0.136887	-0.198305	0.476855
C56	C	0.636887	0.301695	0.976855
C57	C	0.119761	-0.147011	0.459777
C58	C	0.619761	0.352989	0.959777
C59	C	0.077945	-0.147038	0.543547
C60	C	0.577945	0.352962	1.043547
C61	C	0.095072	-0.198332	0.560625
C62	C	0.595072	0.301668	1.060625
C63	C	0.074134	-0.421169	0.539710
C64	C	0.574134	0.078831	1.039710
C65	C	0.057023	-0.438269	0.522625
C66	C	0.557023	0.061731	1.022625
C67	C	0.140770	-0.480120	0.480694
C68	C	0.640770	0.019880	0.980694
C69	C	0.157883	-0.463020	0.497773
C70	C	0.657883	0.036980	0.997773
C71	C	0.074339	-0.421208	0.762475
C72	C	0.574339	0.078792	1.262475
C73	C	0.057288	-0.438323	0.813768
C74	C	0.557288	0.061677	1.313768
C75	C	0.141075	-0.480183	0.813699
C76	C	0.641075	0.019817	1.313699
C77	C	0.158125	-0.463069	0.762404
C78	C	0.658125	0.036931	1.262404
C79	C	0.124756	-0.433580	0.736794
C80	C	0.624756	0.066420	1.236794
C81	C	0.334186	-0.433494	0.527123
C82	C	0.834186	0.066506	1.027123
C83	C	-0.173769	-0.597444	0.363037
C84	C	0.326231	-0.097444	0.863037
C85	C	-0.039302	-0.597595	0.228856
C86	C	0.460698	-0.097595	0.728856
C87	C	-0.039496	-0.597587	0.363300
C88	C	0.460504	-0.097587	0.863300
C89	C	-0.039512	-0.731889	0.363237
C90	C	0.460488	-0.231889	0.863237
C91	C	-0.129442	-0.612265	0.348329
C92	C	0.370558	-0.112265	0.848329
C93	C	-0.054138	-0.612351	0.273187
C94	C	0.445862	-0.112351	0.773187
C95	C	-0.054257	-0.687554	0.348440
C96	C	0.445743	-0.187554	0.848440
C97	C	-0.054247	-0.612346	0.348477
C98	C	0.445753	-0.112346	0.848477
C99	C	-0.230191	-0.578579	0.381758
C100	C	0.269809	-0.078579	0.881758
C101	C	-0.020722	-0.578803	0.382168
C102	C	0.479278	-0.078803	0.882168
C103	C	-0.073020	-0.631130	0.329609
C104	C	0.426980	-0.131130	0.829609
C105	C	-0.053713	-0.813916	0.406386
C106	C	0.446287	-0.313916	0.906386
C107	C	-0.036654	-0.865210	0.423504
C108	C	0.463346	-0.365210	0.923504
C109	C	0.046338	-0.865293	0.391984
C110	C	0.546338	-0.365293	0.891984
C111	C	0.029278	-0.813999	0.374865
C112	C	0.529278	-0.313999	0.874865
C113	C	-0.255900	-0.590938	0.432169
C114	C	0.244100	-0.090938	0.932169
C115	C	-0.307191	-0.573786	0.449185
C116	C	0.192809	-0.073786	0.949185
C117	C	-0.307060	-0.531922	0.365377
C118	C	0.192940	-0.031922	0.865377
C119	C	-0.255769	-0.549074	0.348360
C120	C	0.244231	-0.049074	0.848360
C121	C	-0.033081	-0.528377	0.369764
C122	C	0.466919	-0.028377	0.869764
C123	C	-0.016014	-0.511306	0.386922
C124	C	0.483986	-0.011306	0.886922
C125	C	0.025770	-0.595083	0.428877
C126	C	0.525770	-0.095083	0.928877
C127	C	0.008703	-0.612156	0.411725
C128	C	0.508703	-0.112156	0.911725
C129	C	-0.032755	-0.528393	0.146761
C130	C	0.467245	-0.028393	0.646761
C131	C	-0.015585	-0.511324	0.095468
C132	C	0.484415	-0.011324	0.595468
C133	C	0.026262	-0.595106	0.095516
C134	C	0.526262	-0.095106	0.595516
C135	C	0.009094	-0.612174	0.146811
C136	C	0.509094	-0.112174	0.646811
C137	C	-0.020417	-0.578816	0.172432
C138	C	0.479583	-0.078816	0.672432
C139	C	-0.020748	-0.788312	0.382068
C140	C	0.479252	-0.288312	0.882068
N141	N	0.436037	-0.467415	0.493101
N142	N	0.936037	0.032585	0.993101
O143	O	0.592642	-0.471896	0.376066
O144	O	1.092642	0.028104	0.876066
O145	O	0.592838	-0.567146	0.505347
O146	O	1.092838	-0.067146	1.005347
O147	O	0.592754	-0.566928	0.423360
O148	O	1.092754	-0.066928	0.923360
O149	O	0.592727	-0.472113	0.458053
O150	O	1.092727	0.027887	0.958053
O151	O	0.511269	-0.539835	0.450606
O152	O	1.011269	-0.039835	0.950606
O153	O	0.511353	-0.540052	0.532594
O154	O	1.011353	-0.040052	1.032594
O155	O	0.511157	-0.444802	0.403312
O156	O	1.011157	0.055198	0.903312
Cu157	Cu	0.503815	-0.489954	0.470441
Cu158	Cu	1.003815	0.010046	0.970441
Cu159	Cu	0.600180	-0.521995	0.438219
Cu160	Cu	1.100180	-0.021995	0.938219
O161	O	0.511242	-0.445020	0.485300
O162	O	1.011242	0.054980	0.985300
N163	N	0.667959	-0.544533	0.415554
N164	N	1.167959	-0.044533	0.915554
N165	N	0.090544	-0.122107	0.493359
N166	N	0.590544	0.377893	0.993359
O167	O	-0.026406	0.034587	0.488773
O168	O	0.473594	0.534587	0.988773
O169	O	0.102877	0.034627	0.393499
O170	O	0.602877	0.534627	0.893499
O171	O	0.020848	0.034591	0.393771
O172	O	0.520848	0.534591	0.893771
O173	O	0.055623	0.034623	0.488500
O174	O	0.555623	0.534623	0.988500
O175	O	0.048051	-0.046899	0.420925
O176	O	0.548051	0.453101	0.920925
O177	O	0.130080	-0.046864	0.420653
O178	O	0.630080	0.453136	0.920653
O179	O	0.000796	-0.046903	0.515927
O180	O	0.500796	0.453097	1.015927
Cu181	Cu	0.067922	-0.054324	0.470769
Cu182	Cu	0.567922	0.445676	0.970769
Cu183	Cu	0.035752	0.042048	0.438656
Cu184	Cu	0.535752	0.542048	0.938656
O185	O	0.082825	-0.046867	0.515655
O186	O	0.582825	0.453133	1.015655
N187	N	0.013123	0.109830	0.416068
N188	N	0.513123	0.609830	0.916068
N189	N	0.090892	-0.467554	0.838649
N190	N	0.590892	0.032446	1.338649
O191	O	0.086330	-0.584488	0.995334
O192	O	0.586330	-0.084488	1.495334
O193	O	-0.008902	-0.455160	0.995379
O194	O	0.491098	0.044840	1.495379
O195	O	-0.008679	-0.537172	0.995355
O196	O	0.491321	-0.037172	1.495355
O197	O	0.086107	-0.502475	0.995358
O198	O	0.586107	-0.002475	1.495358
O199	O	0.018452	-0.509990	0.913868
O200	O	0.518452	-0.009990	1.413868
O201	O	0.018230	-0.427978	0.913891
O202	O	0.518230	0.072022	1.413891
O203	O	0.113461	-0.557306	0.913847
O204	O	0.613461	-0.057306	1.413847
Cu205	Cu	0.068323	-0.490160	0.906429
Cu206	Cu	0.568323	0.009840	1.406429
Cu207	Cu	0.036237	-0.522306	1.002797
Cu208	Cu	0.536237	-0.022306	1.502797
O209	O	0.113239	-0.475293	0.913870
O210	O	0.613239	0.024707	1.413870
N211	N	0.013667	-0.544916	1.070577
N212	N	0.513667	-0.044916	1.570577
C213	C	0.031339	-0.425179	0.394250
C214	C	0.531339	0.074821	0.894250
C215	C	0.132837	-0.526572	0.394139
C216	C	0.632837	-0.026572	0.894139
C217	C	0.072405	-0.587216	0.515344
C218	C	0.572405	-0.087216	1.015344
C219	C	-0.029093	-0.485823	0.515455
C220	C	0.470907	0.014177	1.015455
C221	C	0.552119	-0.566716	0.535258
C222	C	1.052119	-0.066716	1.035258
C223	C	0.552016	-0.566447	0.433726
C224	C	1.052016	-0.066447	0.933726
C225	C	0.551873	-0.445232	0.373402
C226	C	1.051873	0.054768	0.873402
C227	C	0.551980	-0.445502	0.474933
C228	C	1.051980	0.054498	0.974933
C229	C	0.132731	-0.006013	0.393923
C230	C	0.632731	0.493987	0.893923
C231	C	0.031182	-0.006158	0.394293
C232	C	0.531182	0.493842	0.894293
C233	C	-0.029092	-0.006163	0.515469
C234	C	0.470908	0.493837	1.015469
C235	C	0.072491	-0.006119	0.515133
C236	C	0.572491	0.493881	1.015133
C237	C	-0.008451	-0.425276	0.954641
C238	C	0.491549	0.074724	1.454641
C239	C	-0.008170	-0.526833	0.954596
C240	C	0.491830	-0.026833	1.454596
C241	C	0.113010	-0.587190	0.954585
C242	C	0.613010	-0.087190	1.454585
C243	C	0.112735	-0.485627	0.954611
C244	C	0.612735	0.014373	1.454611
H245	H	0.047163	-0.397193	0.741627
H246	H	0.547163	0.102807	1.241627
O247	O	0.148742	-0.631464	0.954548
O248	O	0.648742	-0.131464	1.454548
C249	C	0.190910	-0.631456	0.954558
C250	C	0.690910	-0.131456	1.454558
H251	H	0.190321	-0.592151	0.939141
H252	H	0.690321	-0.092151	1.439141
H253	H	0.191498	-0.648974	0.993649
H254	H	0.691498	-0.148974	1.493649
C255	C	0.237696	-0.709152	0.941522
C256	C	0.737696	-0.209152	1.441522
C257	C	0.236975	-0.660877	0.922583
C258	C	0.736975	-0.160877	1.422583
H259	H	0.266112	-0.727302	0.921800
H260	H	0.766112	-0.227302	1.421800
H261	H	0.209286	-0.709159	0.941517
H262	H	0.709286	-0.209159	1.441517
H263	H	0.238184	-0.723744	0.974098
H264	H	0.738184	-0.223744	1.474098
H265	H	0.236480	-0.646284	0.890010
H266	H	0.736480	-0.146284	1.390010
H267	H	0.265386	-0.660868	0.922582
H268	H	0.765386	-0.160868	1.422582
O269	O	-0.043665	-0.535751	0.954619
O270	O	0.456335	-0.035751	1.454619
C271	C	-0.054931	-0.575427	0.996807
C272	C	0.445069	-0.075427	1.496807
H273	H	-0.022553	-0.598893	1.010894
H274	H	0.477447	-0.098893	1.510894
H275	H	-0.088600	-0.560904	1.026359
H276	H	0.411400	-0.060904	1.526359
C277	C	-0.105258	-0.577862	0.966637
C278	C	0.394742	-0.077862	1.466637
C279	C	-0.065490	-0.606686	0.983937
C280	C	0.434510	-0.106686	1.483937
H281	H	-0.111774	-0.597143	0.958699
H282	H	0.388226	-0.097143	1.458699
H283	H	-0.097670	-0.551131	0.938215
H284	H	0.402330	-0.051131	1.438215
H285	H	-0.133311	-0.565762	0.991267
H286	H	0.366689	-0.065762	1.491267
H287	H	-0.037436	-0.618780	0.959305
H288	H	0.462564	-0.118780	1.459305
H289	H	-0.073074	-0.633420	1.012355
H290	H	0.426926	-0.133420	1.512355
O291	O	-0.230721	-0.537099	0.299407
O292	O	0.269279	-0.037099	0.799407
C293	C	-0.179965	-0.558573	0.291546
C294	C	0.320035	-0.058573	0.791546
H295	H	-0.173012	-0.566313	0.325241
H296	H	0.326988	-0.066313	0.825241
H297	H	-0.165413	-0.594356	0.284715
H298	H	0.334587	-0.094356	0.784715
C299	C	-0.162110	-0.513730	0.205287
C300	C	0.337890	-0.013730	0.705287
C301	C	-0.153570	-0.523232	0.246669
C302	C	0.346430	-0.023232	0.746669
H303	H	-0.145827	-0.491932	0.177603
H304	H	0.354173	0.008068	0.677603
H305	H	-0.196305	-0.499264	0.210582
H306	H	0.303695	0.000736	0.710582
H307	H	-0.149983	-0.543552	0.199600
H308	H	0.350017	-0.043552	0.699600
H309	H	-0.165702	-0.493411	0.252358
H310	H	0.334298	0.006589	0.752358
H311	H	-0.119376	-0.537693	0.241374
H312	H	0.380624	-0.037693	0.741374
H313	H	0.551974	-0.415718	0.482355
H314	H	1.051974	0.084282	0.982355
O315	O	0.022316	-0.006265	0.358830
O316	O	0.522316	0.493735	0.858830
C317	C	0.010791	-0.048479	0.375734
C318	C	0.510791	0.451521	0.875734
H319	H	0.026624	-0.077962	0.406153
H320	H	0.526624	0.422038	0.906153
H321	H	-0.030700	-0.038953	0.390527
H322	H	0.469300	0.461047	0.890527
C323	C	0.013414	-0.031422	0.295766
C324	C	0.513414	0.468578	0.795766
C325	C	0.032864	-0.067635	0.333124
C326	C	0.532864	0.432365	0.833124
H327	H	0.027027	-0.043238	0.269482
H328	H	0.527027	0.456762	0.769482
H329	H	0.021177	-0.002981	0.284377
H330	H	0.521177	0.497019	0.784377
H331	H	-0.021161	-0.023487	0.308100
H332	H	0.478839	0.476513	0.808100
H333	H	0.067437	-0.075565	0.320791
H334	H	0.567437	0.424435	0.820791
H335	H	0.025107	-0.096079	0.344509
H336	H	0.525107	0.403921	0.844509
H337	H	0.142514	-0.478200	0.954606
H338	H	0.642514	0.021800	1.454606
O339	O	0.177149	-0.535375	0.358522
O340	O	0.677149	-0.035375	0.858522
C341	C	0.185903	-0.575020	0.347201
C342	C	0.685903	-0.075020	0.847201
H343	H	0.163014	-0.598566	0.379607
H344	H	0.663014	-0.098566	0.879607
H345	H	0.175366	-0.560463	0.313603
H346	H	0.675366	-0.060463	0.813603
C347	C	0.268733	-0.577264	0.296646
C348	C	0.768733	-0.077264	0.796646
C349	C	0.240623	-0.606186	0.336449
C350	C	0.740623	-0.106186	0.836449
H351	H	0.302486	-0.596487	0.290011
H352	H	0.802486	-0.096487	0.790011
H353	H	0.262835	-0.550553	0.304271
H354	H	0.762835	-0.050553	0.804271
H355	H	0.259946	-0.565134	0.268652
H356	H	0.759946	-0.065134	0.768652
H357	H	0.249405	-0.618309	0.364444
H358	H	0.749405	-0.118309	0.864444
H359	H	0.246523	-0.632899	0.328828
H360	H	0.746523	-0.132899	0.828828
H361	H	0.079796	-0.624394	0.545162
H362	H	0.579796	-0.124394	1.045162
O363	O	-0.073428	-0.477011	0.551042
O364	O	0.426572	0.022989	1.051042
C365	C	-0.103888	-0.428874	0.533335
C366	C	0.396112	0.071126	1.033335
H367	H	-0.080302	-0.405601	0.501862
H368	H	0.419698	0.094399	1.001862
H369	H	-0.128640	-0.429624	0.519742
H370	H	0.371360	0.070376	1.019742
C371	C	-0.164555	-0.435301	0.613528
C372	C	0.335445	0.064699	1.113528
C373	C	-0.135586	-0.406715	0.574874
C374	C	0.364414	0.093285	1.074874
H375	H	-0.184109	-0.421633	0.639152
H376	H	0.315891	0.078367	1.139152
H377	H	-0.144035	-0.467733	0.625458
H378	H	0.355965	0.032267	1.125458
H379	H	-0.185177	-0.435924	0.602194
H380	H	0.314823	0.064076	1.102194
H381	H	-0.114960	-0.406098	0.586207
H382	H	0.385040	0.093902	1.086207
H383	H	-0.156103	-0.374283	0.562948
H384	H	0.343897	0.125717	1.062948
O385	O	-0.044167	-0.380986	0.954634
O386	O	0.455833	0.119014	1.454634
C387	C	-0.086344	-0.381004	0.954650
C388	C	0.413656	0.118996	1.454650
H389	H	-0.075482	-0.410018	0.939214
H390	H	0.424518	0.089982	1.439214
H391	H	-0.112966	-0.389565	0.993746
H392	H	0.387034	0.110435	1.493746
C393	C	-0.124466	-0.294628	0.941664
C394	C	0.375534	0.205372	1.441664
C395	C	-0.111125	-0.330261	0.922702
C396	C	0.388875	0.169739	1.422702
H397	H	-0.139754	-0.263327	0.921959
H398	H	0.360246	0.236673	1.421959
H399	H	-0.096052	-0.294616	0.941655
H400	H	0.403948	0.205384	1.441655
H401	H	-0.146649	-0.301768	0.974244
H402	H	0.353351	0.198232	1.474244
H403	H	-0.088939	-0.323123	0.890125
H404	H	0.411061	0.176877	1.390125
H405	H	-0.139537	-0.330270	0.922705
H406	H	0.360463	0.169730	1.422705
O407	O	0.081285	-0.006091	0.550688
O408	O	0.581285	0.493909	1.050688
C409	C	0.039238	-0.006116	0.592989
C410	C	0.539238	0.493884	1.092989
H411	H	0.005536	0.009300	0.582312
H412	H	0.505536	0.509300	1.082312
H413	H	0.043218	-0.045214	0.619632
H414	H	0.543218	0.454786	1.119632
C415	C	0.074851	0.006913	0.630740
C416	C	0.574851	0.506913	1.130740
C417	C	0.033457	0.025851	0.617627
C418	C	0.533457	0.525851	1.117627
H419	H	0.071286	0.026630	0.645940
H420	H	0.571286	0.526630	1.145940
H421	H	0.103180	0.006928	0.602242
H422	H	0.603180	0.506928	1.102242
H423	H	0.078163	-0.025668	0.652941
H424	H	0.578163	0.474332	1.152941
H425	H	0.030150	0.058429	0.595422
H426	H	0.530150	0.558429	1.095422
H427	H	0.005128	0.025842	0.646122
H428	H	0.505128	0.525842	1.146122
H429	H	-0.066220	-0.006175	0.545378
H430	H	0.433780	0.493825	1.045378
H431	H	0.016234	-0.428240	0.834672
H432	H	0.516234	0.071760	1.334672
H433	H	0.169783	-0.005775	0.363939
H434	H	0.669783	0.494225	0.863939
O435	O	0.173557	-0.508839	0.838501
O436	O	0.673557	-0.008839	1.338501
C437	C	0.221713	-0.516079	0.804836
C438	C	0.721713	-0.016079	1.304836
H439	H	0.221587	-0.510335	0.768281
H440	H	0.721587	-0.010335	1.268281
H441	H	0.236406	-0.488776	0.799375
H442	H	0.736406	0.011224	1.299375
C443	C	0.254795	-0.575683	0.869715
C444	C	0.754795	-0.075683	1.369715
C445	C	0.254640	-0.568632	0.824819
C446	C	0.754640	-0.068632	1.324819
H447	H	0.275107	-0.608099	0.882042
H448	H	0.775107	-0.108099	1.382042
H449	H	0.222351	-0.570804	0.892397
H450	H	0.722351	-0.070804	1.392397
H451	H	0.267038	-0.552927	0.865158
H452	H	0.767038	-0.052927	1.365158
H453	H	0.242392	-0.591383	0.829378
H454	H	0.742392	-0.091383	1.329378
H455	H	0.287082	-0.573516	0.802138
H456	H	0.787082	-0.073516	1.302138
O457	O	0.061295	-0.789109	0.351163
O458	O	0.561295	-0.289109	0.851163
C459	C	0.059351	-0.759440	0.303463
C460	C	0.559351	-0.259440	0.803463
H461	H	0.044750	-0.774876	0.291804
H462	H	0.544750	-0.274876	0.791804
H463	H	0.034046	-0.720550	0.303054
H464	H	0.534046	-0.220550	0.803054
C465	C	0.129071	-0.739752	0.281981
C466	C	0.629071	-0.239752	0.781981
C467	C	0.111141	-0.758713	0.267659
C468	C	0.611141	-0.258713	0.767659
H469	H	0.161016	-0.739301	0.259896
H470	H	0.661016	-0.239301	0.759896
H471	H	0.130379	-0.759739	0.314118
H472	H	0.630379	-0.259739	0.814118
H473	H	0.107978	-0.707346	0.281640
H474	H	0.607978	-0.207346	0.781640
H475	H	0.132230	-0.791121	0.268007
H476	H	0.632230	-0.291121	0.768007
H477	H	0.109837	-0.738731	0.235521
H478	H	0.609837	-0.238731	0.735521
O479	O	0.552205	-0.602345	0.579573
O480	O	1.052205	-0.102345	1.079573
C481	C	0.552210	-0.584698	0.610063
C482	C	1.052210	-0.084698	1.110063
H483	H	0.567596	-0.553223	0.586500
H484	H	1.067596	-0.053223	1.086500
H485	H	0.513128	-0.571122	0.634837
H486	H	1.013128	-0.071122	1.134837
C487	C	0.565327	-0.664935	0.670671
C488	C	1.065327	-0.164935	1.170671
C489	C	0.584228	-0.626279	0.641730
C490	C	1.084228	-0.126279	1.141730
H491	H	0.585076	-0.690584	0.690207
H492	H	1.085076	-0.190584	1.190207
H493	H	0.565322	-0.676824	0.650131
H494	H	1.065322	-0.176824	1.150131
H495	H	0.532759	-0.653615	0.691312
H496	H	1.032759	-0.153615	1.191312
H497	H	0.616793	-0.637597	0.621086
H498	H	1.116793	-0.137597	1.121086
H499	H	0.584239	-0.614392	0.662268
H500	H	1.084239	-0.114392	1.162268
H501	H	0.047002	-0.397168	0.563734
H502	H	0.547002	0.102832	1.063734
O503	O	0.207098	-0.475147	0.737438
O504	O	0.707098	0.024853	1.237438
C505	C	0.219473	-0.500952	0.707757
C506	C	0.719473	-0.000952	1.207757
H507	H	0.190565	-0.518319	0.723233
H508	H	0.690565	-0.018319	1.223233
H509	H	0.221141	-0.474569	0.668892
H510	H	0.721141	0.025431	1.168892
C511	C	0.305292	-0.519989	0.687923
C512	C	0.805292	-0.019989	1.187923
C513	C	0.269788	-0.541323	0.706933
C514	C	0.769788	-0.041323	1.206933
H515	H	0.336329	-0.544890	0.687413
H516	H	0.836329	-0.044890	1.187413
H517	H	0.296955	-0.502602	0.707918
H518	H	0.796955	-0.002602	1.207918
H519	H	0.306676	-0.498003	0.655538
H520	H	0.806676	0.001997	1.155538
H521	H	0.268400	-0.563303	0.739320
H522	H	0.768400	-0.063303	1.239320
H523	H	0.278126	-0.558714	0.686944
H524	H	0.778126	-0.058714	1.186944
H525	H	0.015959	-0.428182	0.532734
H526	H	0.515959	0.071818	1.032734
H527	H	0.552029	-0.596233	0.426301
H528	H	1.052029	-0.096233	0.926301
O529	O	0.173160	-0.508682	0.451961
O530	O	0.673160	-0.008682	0.951961
C531	C	0.202789	-0.482768	0.408940
C532	C	0.702789	0.017232	0.908940
H533	H	0.182965	-0.441733	0.401826
H534	H	0.682965	0.058267	0.901826
H535	H	0.238837	-0.493680	0.413574
H536	H	0.738837	0.006320	0.913574
C537	C	0.237584	-0.545551	0.374032
C538	C	0.737584	-0.045551	0.874032
C539	C	0.213234	-0.495151	0.365292
C540	C	0.713234	0.004849	0.865292
H541	H	0.244030	-0.553191	0.347108
H542	H	0.744030	-0.053191	0.847108
H543	H	0.217624	-0.563011	0.403017
H544	H	0.717624	-0.063011	0.903017
H545	H	0.267622	-0.554639	0.377895
H546	H	0.767622	-0.054639	0.877895
H547	H	0.183195	-0.486066	0.361436
H548	H	0.683195	0.013934	0.861436
H549	H	0.233190	-0.477690	0.336306
H550	H	0.733190	0.022310	0.836306
O551	O	0.206856	-0.474977	0.485731
O552	O	0.706856	0.025023	0.985731
C553	C	0.214816	-0.453575	0.507146
C554	C	0.714816	0.046425	1.007146
H555	H	0.181154	-0.420656	0.514905
H556	H	0.681154	0.079344	1.014905
H557	H	0.221689	-0.481643	0.542911
H558	H	0.721689	0.018357	1.042911
C559	C	0.301045	-0.477181	0.462215
C560	C	0.801045	0.022819	0.962215
C561	C	0.259702	-0.436747	0.471741
C562	C	0.759702	0.063253	0.971741
H563	H	0.328734	-0.466802	0.440377
H564	H	0.828734	0.033198	0.940377
H565	H	0.295683	-0.491602	0.447789
H566	H	0.795683	0.008398	0.947789
H567	H	0.306766	-0.500567	0.492023
H568	H	0.806766	-0.000567	0.992023
H569	H	0.253978	-0.413364	0.441935
H570	H	0.753978	0.086636	0.941935
H571	H	0.265064	-0.422321	0.486162
H572	H	0.765064	0.077679	0.986162
O573	O	0.335028	-0.515611	0.558048
O574	O	0.835028	-0.015611	1.058048
C575	C	0.368679	-0.563442	0.560790
C576	C	0.868679	-0.063442	1.060790
H577	H	0.405224	-0.561478	0.530477
H578	H	0.905224	-0.061478	1.030477
H579	H	0.374170	-0.583023	0.597950
H580	H	0.874170	-0.083023	1.097950
C581	C	0.303770	-0.594302	0.591770
C582	C	0.803770	-0.094302	1.091770
C583	C	0.348653	-0.591890	0.554536
C584	C	0.848653	-0.091890	1.054536
H585	H	0.291417	-0.611852	0.587914
H586	H	0.791417	-0.111852	1.087914
H587	H	0.281098	-0.562079	0.589924
H588	H	0.781098	-0.062079	1.089924
H589	H	0.308352	-0.610619	0.622732
H590	H	0.808352	-0.110619	1.122732
H591	H	0.344070	-0.575568	0.523574
H592	H	0.844070	-0.075568	1.023574
H593	H	0.371324	-0.624112	0.556376
H594	H	0.871324	-0.124112	1.056376
H595	H	0.551811	-0.415327	0.336274
H596	H	1.051811	0.084673	0.836274
H597	H	0.432025	-0.541365	0.523165
H598	H	0.932025	-0.041365	1.023165
H599	H	0.431972	-0.390789	0.465748
H600	H	0.931972	0.109211	0.965748
H601	H	0.160882	-0.219171	0.449698
H602	H	0.660882	0.280829	0.949698
O603	O	0.334963	-0.351917	0.495660
O604	O	0.834963	0.148083	0.995660
C605	C	0.368585	-0.326495	0.470450
C606	C	0.868585	0.173505	0.970450
H607	H	0.405162	-0.352816	0.476345
H608	H	0.905162	0.147184	0.976345
H609	H	0.374008	-0.310549	0.429646
H610	H	0.874008	0.189451	0.929646
C611	C	0.303653	-0.252383	0.482831
C612	C	0.803653	0.247617	0.982831
C613	C	0.348576	-0.284710	0.490074
C614	C	0.848576	0.215290	0.990074
H615	H	0.291310	-0.226606	0.494933
H616	H	0.791310	0.273394	0.994933
H617	H	0.281000	-0.269509	0.499813
H618	H	0.781000	0.230491	0.999813
H619	H	0.308178	-0.239100	0.448827
H620	H	0.808178	0.260900	0.948827
H621	H	0.344050	-0.297996	0.524077
H622	H	0.844050	0.202004	1.024077
H623	H	0.371228	-0.267585	0.473097
H624	H	0.871228	0.232415	0.973097
O625	O	0.131814	-0.122157	0.410778
O626	O	0.631814	0.377843	0.910778
C627	C	0.161486	-0.155781	0.385008
C628	C	0.661486	0.344219	0.885008
H629	H	0.180167	-0.192344	0.409450
H630	H	0.680167	0.307656	0.909450
H631	H	0.137808	-0.161244	0.373974
H632	H	0.637808	0.338756	0.873974
C633	C	0.177705	-0.090829	0.308727
C634	C	0.677705	0.409171	0.808727
C635	C	0.200652	-0.135736	0.338746
C636	C	0.700652	0.364264	0.838746
H637	H	0.201863	-0.078464	0.280189
H638	H	0.701863	0.421536	0.780189
H639	H	0.157712	-0.068175	0.326088
H640	H	0.657712	0.431825	0.826088
H641	H	0.157974	-0.095388	0.299537
H642	H	0.657974	0.404612	0.799537
H643	H	0.220377	-0.131175	0.347940
H644	H	0.720377	0.368825	0.847940
H645	H	0.220649	-0.158388	0.321385
H646	H	0.720649	0.341612	0.821385
H647	H	0.053957	-0.126168	0.570702
H648	H	0.553957	0.373832	1.070702
H649	H	0.085016	-0.219221	0.601683
H650	H	0.585016	0.280779	1.101683
O651	O	-0.068713	-0.890032	0.447063
O652	O	0.431287	-0.390032	0.947063
C653	C	-0.092672	-0.877493	0.415610
C654	C	0.407328	-0.377493	0.915610
H655	H	-0.091449	-0.840263	0.386411
H656	H	0.408551	-0.340263	0.886411
H657	H	-0.073502	-0.906373	0.397250
H658	H	0.426498	-0.406373	0.897250
C659	C	-0.147894	-0.920801	0.481357
C660	C	0.352106	-0.420801	0.981357
C661	C	-0.146396	-0.875073	0.445497
C662	C	0.353604	-0.375073	0.945497
H663	H	-0.181033	-0.919311	0.499792
H664	H	0.318967	-0.419311	0.999792
H665	H	-0.131752	-0.929251	0.502548
H666	H	0.368248	-0.429251	1.002548
H667	H	-0.131917	-0.944863	0.466052
H668	H	0.368083	-0.444863	0.966052
H669	H	-0.162368	-0.851013	0.460802
H670	H	0.337632	-0.351013	0.960802
H671	H	-0.162542	-0.866619	0.424309
H672	H	0.337458	-0.366619	0.924309
H673	H	-0.025639	-0.470264	0.074572
H674	H	0.474361	0.029736	0.574572
H675	H	-0.056788	-0.501226	0.167618
H676	H	0.443212	-0.001226	0.667618
H677	H	0.050281	-0.622271	0.074658
H678	H	0.550281	-0.122271	0.574658
H679	H	-0.057039	-0.501216	0.345698
H680	H	0.442961	-0.001216	0.845698
O681	O	0.021021	-0.661163	0.171725
O682	O	0.521021	-0.161163	0.671725
C683	C	0.003510	-0.682437	0.159127
C684	C	0.503510	-0.182437	0.659127
H685	H	-0.028085	-0.653206	0.144964
H686	H	0.471915	-0.153206	0.644964
H687	H	0.034308	-0.698658	0.129384
H688	H	0.534308	-0.198658	0.629384
C689	C	0.024265	-0.759153	0.222068
C690	C	0.524265	-0.259153	0.722068
C691	C	-0.014544	-0.723251	0.204678
C692	C	0.485456	-0.223251	0.704678
H693	H	0.013130	-0.784330	0.250166
H694	H	0.513130	-0.284330	0.750166
H695	H	0.036064	-0.744821	0.230555
H696	H	0.536064	-0.244821	0.730555
H697	H	0.049926	-0.772665	0.197279
H698	H	0.549926	-0.272665	0.697279
H699	H	-0.040202	-0.709736	0.229465
H700	H	0.459798	-0.209736	0.729465
H701	H	-0.026348	-0.737582	0.196196
H702	H	0.473652	-0.237582	0.696196
O703	O	-0.028033	-0.462306	0.374800
O704	O	0.471967	0.037694	0.874800
C705	C	-0.057664	-0.436527	0.345033
C706	C	0.442336	0.063473	0.845033
H707	H	-0.051105	-0.460997	0.326384
H708	H	0.448895	0.039003	0.826384
H709	H	-0.097857	-0.425407	0.368630
H710	H	0.402143	0.074593	0.868630
C711	C	-0.052653	-0.360279	0.328741
C712	C	0.447347	0.139721	0.828741
C713	C	-0.044594	-0.390332	0.305832
C714	C	0.455406	0.109668	0.805832
H715	H	-0.044593	-0.331782	0.304561
H716	H	0.455407	0.168218	0.804561
H717	H	-0.032692	-0.377646	0.348797
H718	H	0.467308	0.122354	0.848797
H719	H	-0.086148	-0.351017	0.348404
H720	H	0.413852	0.148983	0.848404
H721	H	-0.011099	-0.399598	0.286175
H722	H	0.488901	0.100402	0.786175
H723	H	-0.064550	-0.372965	0.285772
H724	H	0.435450	0.127035	0.785772
H725	H	0.049734	-0.622248	0.452940
H726	H	0.549734	-0.122248	0.952940
O727	O	0.020771	-0.661157	0.423800
O728	O	0.520771	-0.161157	0.923800
C729	C	0.050392	-0.686933	0.453576
C730	C	0.550392	-0.186933	0.953576
H731	H	0.069042	-0.662497	0.447074
H732	H	0.569042	-0.162497	0.947074
H733	H	0.026678	-0.697962	0.493733
H734	H	0.526678	-0.197962	0.993733
C735	C	0.066682	-0.763215	0.448625
C736	C	0.566682	-0.263215	0.948625
C737	C	0.089592	-0.733203	0.440636
C738	C	0.589592	-0.233203	0.940636
H739	H	0.090860	-0.791757	0.440646
H740	H	0.590860	-0.291757	0.940646
H741	H	0.046724	-0.745849	0.428566
H742	H	0.546724	-0.245849	0.928566
H743	H	0.046921	-0.772400	0.482090
H744	H	0.546921	-0.272400	0.982090
H745	H	0.109347	-0.724014	0.407172
H746	H	0.609347	-0.224014	0.907172
H747	H	0.109553	-0.750568	0.460690
H748	H	0.609553	-0.250568	0.960690
H749	H	-0.094449	-0.793002	0.412253
H750	H	0.405551	-0.293002	0.912253
O751	O	0.094948	-0.890224	0.384902
O752	O	0.594948	-0.390224	0.884902
C753	C	0.121473	-0.877713	0.334274
C754	C	0.621473	-0.377713	0.834274
H755	H	0.096311	-0.863591	0.313026
H756	H	0.596311	-0.363591	0.813026
H757	H	0.136213	-0.847964	0.322844
H758	H	0.636213	-0.347964	0.822844
C759	C	0.195428	-0.940653	0.349207
C760	C	0.695428	-0.440653	0.849207
C761	C	0.164525	-0.923312	0.323112
C762	C	0.664525	-0.423312	0.823112
H763	H	0.221986	-0.968780	0.342322
H764	H	0.721986	-0.468780	0.842322
H765	H	0.177559	-0.949081	0.383317
H766	H	0.677559	-0.449081	0.883317
H767	H	0.207707	-0.915858	0.339680
H768	H	0.707707	-0.415858	0.839680
H769	H	0.152242	-0.948104	0.332644
H770	H	0.652242	-0.448104	0.832644
H771	H	0.182393	-0.914889	0.289004
H772	H	0.682393	-0.414889	0.789004
O773	O	-0.231130	-0.619575	0.464677
O774	O	0.268870	-0.119575	0.964677
C775	C	-0.264822	-0.626810	0.512822
C776	C	0.235178	-0.126810	1.012822
H777	H	-0.301362	-0.595856	0.512673
H778	H	0.198638	-0.095856	1.012673
H779	H	-0.270304	-0.663332	0.527505
H780	H	0.229696	-0.163332	1.027505
C781	C	-0.199980	-0.665211	0.545964
C782	C	0.300020	-0.165211	1.045964
C783	C	-0.244858	-0.627190	0.545781
C784	C	0.255142	-0.127190	1.045781
H785	H	-0.187666	-0.665447	0.566295
H786	H	0.312334	-0.165447	1.066295
H787	H	-0.177281	-0.660338	0.513528
H788	H	0.322719	-0.160338	1.013528
H789	H	-0.204555	-0.695641	0.558198
H790	H	0.295445	-0.195641	1.058198
H791	H	-0.240282	-0.596760	0.533541
H792	H	0.259718	-0.096760	1.033541
H793	H	-0.267557	-0.632057	0.578215
H794	H	0.232443	-0.132057	1.078215
H795	H	-0.327887	-0.507903	0.338181
H796	H	0.172113	-0.007903	0.838181
O797	O	0.022614	-0.380848	0.358628
O798	O	0.522614	0.119152	0.858628
C799	C	0.064699	-0.380728	0.316364
C800	C	0.564699	0.119272	0.816364
H801	H	0.098366	-0.409701	0.327102
H802	H	0.598366	0.090299	0.827102
H803	H	0.060737	-0.389260	0.289746
H804	H	0.560737	0.110740	0.789746
C805	C	0.029191	-0.294351	0.278459
C806	C	0.529191	0.205649	0.778459
C807	C	0.070543	-0.329933	0.291648
C808	C	0.570543	0.170067	0.791648
H809	H	0.032796	-0.263018	0.263211
H810	H	0.532796	0.236982	0.763211
H811	H	0.000837	-0.294432	0.306932
H812	H	0.500837	0.205568	0.806932
H813	H	0.025895	-0.301468	0.256280
H814	H	0.525895	0.198532	0.756280
H815	H	0.073835	-0.322820	0.313831
H816	H	0.573835	0.177180	0.813831
H817	H	0.098897	-0.329850	0.263178
H818	H	0.598897	0.170150	0.763178
H819	H	-0.328125	-0.583847	0.490235
H820	H	0.171875	-0.083847	0.990235
