data_functionalizedCrystal
_audit_creation_method	'MofGen! by Chris Wilmer'
_symmetry_space_group_name_H-M	'P1'
_symmetry_Int_Tables_number	1
_symmetry_cell_setting	triclinic
loop_
_symmetry_equiv_pos_as_xyz
  x,y,z
_cell_length_a	13.339070
_cell_length_b	10.654550
_cell_length_c	9.130313
_cell_angle_alpha	89.996220
_cell_angle_beta	90.000326
_cell_angle_gamma	100.057099
loop_
_atom_site_label
_atom_site_type_symbol
_atom_site_fract_x
_atom_site_fract_y
_atom_site_fract_z
O1	O	0.142430	1.715926	-0.121918
O2	O	0.156000	1.355030	-0.121894
O3	O	0.001661	1.494059	-0.121899
O4	O	0.296769	1.576897	-0.121913
O5	O	0.001665	1.494058	0.121700
O6	O	0.156004	1.355029	0.121705
O7	O	0.142434	1.715925	0.121681
Cu8	Cu	0.149219	1.535477	0.143935
Cu9	Cu	0.149215	1.535478	-0.144149
O10	O	0.296773	1.576896	0.121686
C11	C	0.155006	1.307895	-0.000092
C12	C	0.152025	1.167445	-0.000083
C13	C	0.242897	1.118643	-0.000108
C14	C	0.240090	0.986674	-0.000134
C15	C	0.055530	0.952320	-0.000113
C16	C	0.058338	1.084286	-0.000078
C17	C	0.349452	1.138476	-0.000126
C18	C	0.346644	1.006507	-0.000152
C19	C	-0.036124	1.480065	-0.000101
C20	C	-0.148719	1.438355	-0.000104
C21	C	-0.511236	1.762670	-0.000124
C22	C	-0.405449	1.801862	-0.000113
C23	C	-0.341261	1.710989	-0.000111
C24	C	-0.382872	1.580916	-0.000120
C25	C	-0.488670	1.541720	-0.000119
C26	C	-0.318694	1.490039	-0.000106
C27	C	-0.360305	1.359966	-0.000115
C28	C	-0.466093	1.320776	-0.000116
C29	C	-0.530280	1.411650	-0.000117
C30	C	-0.212896	1.529235	-0.000107
C31	C	-0.190329	1.308285	-0.000102
C32	C	-0.296117	1.269093	-0.000113
C33	C	0.334559	1.590890	-0.000116
C34	C	0.447153	1.632600	-0.000122
C35	C	0.143428	1.763060	-0.000125
C36	C	0.146409	1.903510	-0.000144
N37	N	0.149222	1.535485	0.346558
N38	N	0.149204	1.535477	-0.346771
C39	C	0.080904	1.597077	0.423208
C40	C	0.080892	1.597069	0.576545
C41	C	0.217525	1.473877	0.576568
C42	C	0.217531	1.473878	0.423234
C43	C	0.002023	1.668206	0.423195
C44	C	0.002011	1.668198	0.576532
H45	H	0.378848	0.971709	0.105015
H46	H	-0.015659	1.124015	-0.000036
O47	O	-0.101213	1.604958	0.368016
H48	H	-0.118099	1.505281	0.408551
O49	O	-0.095567	1.594849	0.639505
H50	H	-0.078101	1.515277	0.707905
O51	O	-0.045516	0.862630	-0.000115
H52	H	-0.032204	0.762665	-0.000149
H53	H	-0.499968	1.214863	-0.000111
O54	O	0.399825	0.969166	-0.135189
H55	H	0.428075	1.055541	-0.201290
H56	H	-0.255125	1.742907	-0.000102
O57	O	0.404564	1.195969	0.134982
H58	H	0.429320	1.119458	0.201101
O59	O	0.291213	1.407432	0.340569
H60	H	0.248059	1.331365	0.270726
H61	H	0.026722	1.767729	0.375630
O62	O	0.291208	1.407443	0.659266
H63	H	0.279732	1.417796	0.778767
O64	O	0.025033	1.803800	0.631671
H65	H	0.036324	1.870193	0.537061
H66	H	0.383378	1.185588	-0.105300
H67	H	-0.179028	1.635141	-0.000099
O68	O	-0.360567	1.942143	-0.000136
H69	H	-0.422970	1.998749	-0.000160
O70	O	-0.580461	1.860676	-0.000110
H71	H	-0.661014	1.811565	-0.000113
H72	H	-0.330012	1.163185	-0.000119
H73	H	-0.616422	1.379745	-0.000132
H74	H	-0.138068	1.234288	-0.000093
