data_functionalizedCrystal
_audit_creation_method	'MofGen! by Chris Wilmer'
_symmetry_space_group_name_H-M	'P1'
_symmetry_Int_Tables_number	1
_symmetry_cell_setting	triclinic
loop_
_symmetry_equiv_pos_as_xyz
  x,y,z
_cell_length_a	12.759400
_cell_length_b	29.839135
_cell_length_c	29.839125
_cell_angle_alpha	90.015751
_cell_angle_beta	89.989306
_cell_angle_gamma	89.983528
loop_
_atom_site_label
_atom_site_type_symbol
_atom_site_fract_x
_atom_site_fract_y
_atom_site_fract_z
Zn1	Zn	-0.418362	-0.686803	-0.254072
Zn2	Zn	-0.594019	-0.686770	-0.178951
Zn3	Zn	-0.418361	-0.611686	-0.178950
Zn4	Zn	-0.594005	-0.611669	-0.254048
O5	O	-0.506187	-0.649232	-0.216505
O6	O	-0.441670	-0.749666	-0.244118
O7	O	-0.570723	-0.676804	-0.116084
O8	O	-0.271340	-0.621671	-0.188925
O9	O	-0.570725	-0.749642	-0.188927
O10	O	-0.271341	-0.676860	-0.244117
O11	O	-0.441667	-0.621640	-0.116083
O12	O	-0.441654	-0.548817	-0.188901
O13	O	-0.570701	-0.621642	-0.316918
O14	O	-0.570699	-0.548804	-0.244075
O15	O	-0.441657	-0.676843	-0.316936
O16	O	-0.741039	-0.676787	-0.188904
O17	O	-0.741028	-0.621610	-0.244077
C18	C	-0.506176	-0.532510	-0.216486
C19	C	-0.506196	-0.482575	-0.216488
C20	C	-0.439076	-0.172941	-0.245284
C21	C	-0.439078	0.014732	-0.245295
O22	O	-0.381994	0.038988	-0.269758
N23	N	-0.506168	0.038210	-0.216519
C24	C	-0.573258	0.014767	-0.187735
O25	O	-0.630314	0.039043	-0.163256
C26	C	-0.573250	-0.172905	-0.187721
C27	C	-0.506163	-0.196381	-0.216503
C28	C	-0.371994	-0.196417	-0.274063
C29	C	-0.371999	-0.243333	-0.274061
C30	C	-0.439085	-0.266772	-0.245280
C31	C	-0.506167	-0.243296	-0.216501
C32	C	-0.640333	-0.196347	-0.158935
C33	C	-0.640323	-0.243268	-0.158934
C34	C	-0.573236	-0.266744	-0.187715
C35	C	-0.573258	-0.313652	-0.187719
N36	N	-0.506168	-0.337130	-0.216496
C37	C	-0.439081	-0.313690	-0.245277
C38	C	-0.573259	0.113298	-0.187745
C39	C	-0.573262	0.160215	-0.187749
C40	C	-0.439081	0.160177	-0.245309
C41	C	-0.439084	0.113258	-0.245307
C42	C	-0.506169	0.089819	-0.216522
C43	C	-0.439096	-0.412216	-0.245271
C44	C	-0.439109	-0.459136	-0.245269
C45	C	-0.573286	-0.459093	-0.187707
C46	C	-0.573277	-0.412177	-0.187711
C47	C	-0.506174	-0.388740	-0.216495
O48	O	-0.630304	-0.337937	-0.163266
O49	O	-0.382017	-0.337974	-0.269745
C50	C	-0.439072	-0.126026	-0.245285
C51	C	-0.506154	-0.102550	-0.216506
C52	C	-0.573241	-0.125990	-0.187725
C53	C	-0.506158	-0.055632	-0.216510
C54	C	-0.439071	-0.032193	-0.245291
C55	C	-0.371981	-0.055671	-0.274067
C56	C	-0.371986	-0.102586	-0.274066
C57	C	-0.640331	-0.102511	-0.158949
C58	C	-0.640322	-0.055596	-0.158953
C59	C	-0.573236	-0.032156	-0.187734
C60	C	-0.779154	-0.649206	-0.216497
C61	C	-0.895931	-0.649235	-0.216509
C62	C	-0.950704	-0.677959	-0.245272
C63	C	-1.060428	-0.677985	-0.245284
C64	C	-1.060597	-0.620560	-0.187767
C65	C	-0.950875	-0.620533	-0.187757
C66	C	-0.232154	-0.649271	-0.216523
C67	C	-0.115377	-0.649288	-0.216531
C68	C	-0.506177	-0.649244	-0.333684
C69	C	-0.506173	-0.649249	-0.383618
C70	C	-0.506192	0.233590	-0.216524
C71	C	-0.506176	0.183655	-0.216529
C72	C	-0.438804	-0.678023	-0.693274
C73	C	-0.438715	-0.678045	-0.880947
O74	O	-0.381534	-0.702476	-0.905223
N75	N	-0.505892	-0.649309	-0.904404
C76	C	-0.573092	-0.620563	-0.880939
O77	O	-0.630221	-0.596119	-0.905196
C78	C	-0.573175	-0.620539	-0.693267
C79	C	-0.506001	-0.649280	-0.669813
C80	C	-0.371634	-0.706761	-0.669820
C81	C	-0.371662	-0.706757	-0.622905
C82	C	-0.438858	-0.678015	-0.599443
C83	C	-0.506028	-0.649276	-0.622897
C84	C	-0.640369	-0.591791	-0.669803
C85	C	-0.640382	-0.591787	-0.622882
C86	C	-0.573208	-0.620528	-0.599428
C87	C	-0.573252	-0.620529	-0.552520
N88	N	-0.506075	-0.649265	-0.529064
C89	C	-0.438878	-0.678008	-0.552525
C90	C	-0.573045	-0.620579	-0.979469
C91	C	-0.573025	-0.620585	-1.026387
C92	C	-0.438646	-0.678066	-1.026392
C93	C	-0.438672	-0.678062	-0.979474
C94	C	-0.505867	-0.649315	-0.956013
C95	C	-0.438940	-0.677997	-0.453999
C96	C	-0.438977	-0.677992	-0.407080
C97	C	-0.573351	-0.620509	-0.407079
C98	C	-0.573319	-0.620516	-0.453994
C99	C	-0.506106	-0.649262	-0.477453
O100	O	-0.630394	-0.596108	-0.528216
O101	O	-0.381741	-0.702442	-0.528260
C102	C	-0.438777	-0.678027	-0.740190
C103	C	-0.505947	-0.649288	-0.763644
C104	C	-0.573144	-0.620546	-0.740182
C105	C	-0.505927	-0.649295	-0.810561
C106	C	-0.438731	-0.678038	-0.834023
C107	C	-0.371553	-0.706774	-0.810567
C108	C	-0.371580	-0.706770	-0.763651
C109	C	-0.640321	-0.591810	-0.763638
C110	C	-0.640289	-0.591817	-0.810554
C111	C	-0.573093	-0.620559	-0.834015
C112	C	-0.506121	-0.649246	-0.099783
C113	C	-0.505829	-0.649328	-0.049849
H114	H	-0.317368	-0.262442	-0.297498
H115	H	-0.906276	-0.597141	-0.164335
O116	O	-0.306790	-0.173722	-0.302066
C117	C	-0.247571	-0.204512	-0.327454
H118	H	-0.290617	-0.237951	-0.328967
H119	H	-0.236494	-0.190978	-0.362862
H120	H	-0.167717	-0.209506	-0.311062
H121	H	-0.384274	-0.701398	-0.387986
O122	O	-0.373884	-0.481989	-0.273166
C123	C	-0.305918	-0.509121	-0.247638
H124	H	-0.342852	-0.516137	-0.213565
H125	H	-0.291903	-0.542120	-0.265948
H126	H	-0.228043	-0.491047	-0.242758
O127	O	-0.638487	-0.389440	-0.159715
C128	C	-0.697725	-0.420192	-0.134324
H129	H	-0.654690	-0.453642	-0.132800
H130	H	-0.708809	-0.406626	-0.098919
H131	H	-0.777574	-0.425174	-0.150719
H132	H	-1.105345	-0.597193	-0.164357
O133	O	-0.373620	-0.705964	-0.476714
C134	C	-0.314330	-0.731318	-0.445944
H135	H	-0.357390	-0.732858	-0.412502
H136	H	-0.303121	-0.766719	-0.459501
H137	H	-0.234537	-0.714879	-0.440948
H138	H	-0.627903	0.179325	-0.164317
H139	H	-0.384453	0.094147	-0.268743
H140	H	-0.905971	-0.701330	-0.268684
O141	O	-1.113471	-0.705930	-0.273238
C142	C	-1.041443	-0.731247	-0.298620
H143	H	-0.963246	-0.732796	-0.280212
H144	H	-1.073070	-0.766647	-0.303449
H145	H	-1.029771	-0.714770	-0.332723
O146	O	-0.638720	-0.592623	-0.476732
C147	C	-0.743445	-0.602431	-0.465285
H148	H	-0.745653	-0.619700	-0.431224
H149	H	-0.790550	-0.570001	-0.463676
H150	H	-0.778815	-0.625524	-0.491699
H151	H	-0.316959	-0.730160	-0.603813
H152	H	-0.628064	-0.597109	-0.387968
H153	H	-0.384457	0.179269	-0.268743
H154	H	-0.316909	-0.730167	-0.688918
H155	H	-0.627891	0.094218	-0.164303
H156	H	-0.384451	-0.393139	-0.268708
H157	H	-0.694961	-0.177241	-0.135498
H158	H	-0.383971	-0.701465	-0.960381
H159	H	-0.694952	-0.262350	-0.135492
O160	O	-0.705698	-0.563918	-0.833283
C161	C	-0.810418	-0.573725	-0.821828
H162	H	-0.812612	-0.590998	-0.787769
H163	H	-0.857519	-0.541294	-0.820210
H164	H	-0.845803	-0.596814	-0.848242
O165	O	-0.638350	-0.481936	-0.159764
C166	C	-0.623973	-0.528380	-0.165944
H167	H	-0.542948	-0.534798	-0.180721
H168	H	-0.630965	-0.546202	-0.132288
H169	H	-0.686379	-0.541696	-0.189820
H170	H	-0.317361	-0.036578	-0.297503
O171	O	-0.373394	-0.705941	-1.049257
C172	C	-0.387806	-0.699787	-1.095696
H173	H	-0.422230	-0.665115	-1.102092
H174	H	-0.309103	-0.702836	-1.113530
H175	H	-0.443738	-0.726432	-1.109017
O176	O	-0.638321	-0.592627	-1.049098
C177	C	-0.697646	-0.567267	-1.018324
H178	H	-0.654622	-0.565716	-0.984880
H179	H	-0.708845	-0.531869	-1.031871
H180	H	-0.777443	-0.583706	-1.013335
H181	H	-0.694962	-0.036486	-0.135516
O182	O	-0.705656	-0.563951	-0.740803
C183	C	-0.773555	-0.589516	-0.713681
H184	H	-0.736505	-0.623564	-0.706651
H185	H	-0.787668	-0.571208	-0.680688
H186	H	-0.851395	-0.594447	-0.731771
H187	H	-0.694961	-0.121591	-0.135511
O188	O	-0.705516	-0.563814	-0.600075
C189	C	-0.645724	-0.534809	-0.572920
H190	H	-0.562964	-0.532047	-0.587052
H191	H	-0.683721	-0.500230	-0.572388
H192	H	-0.642138	-0.548693	-0.537363
O193	O	-0.638381	-0.592716	-0.956635
C194	C	-0.706278	-0.618277	-0.929508
H195	H	-0.669229	-0.652325	-0.922476
H196	H	-0.720385	-0.599967	-0.896517
H197	H	-0.784121	-0.623210	-0.947596
H198	H	-0.695070	-0.568387	-0.688891
O199	O	-0.306222	-0.734701	-0.740941
C200	C	-0.246934	-0.760075	-0.771717
H201	H	-0.243289	-0.741674	-0.805157
H202	H	-0.164159	-0.764878	-0.758167
H203	H	-0.285408	-0.794190	-0.776715
H204	H	-0.317356	-0.121696	-0.297503
O205	O	-0.306162	-0.734629	-0.833381
C206	C	-0.238315	-0.709058	-0.860522
H207	H	-0.231834	-0.673677	-0.846372
H208	H	-0.157460	-0.725315	-0.861061
H209	H	-0.270788	-0.707506	-0.896079
