data_functionalizedCrystal
_audit_creation_method	'MofGen! by Chris Wilmer'
_symmetry_space_group_name_H-M	'P1'
_symmetry_Int_Tables_number	1
_symmetry_cell_setting	triclinic
loop_
_symmetry_equiv_pos_as_xyz
  x,y,z
_cell_length_a	13.032831
_cell_length_b	13.032721
_cell_length_c	13.033109
_cell_angle_alpha	105.143326
_cell_angle_beta	76.665514
_cell_angle_gamma	90.902885
loop_
_atom_site_label
_atom_site_type_symbol
_atom_site_fract_x
_atom_site_fract_y
_atom_site_fract_z
Zn1	Zn	1.617278	-0.734630	-0.889163
Zn2	Zn	1.577772	-0.883958	-0.728367
Zn3	Zn	1.422834	-0.683803	-0.683331
Zn4	Zn	1.422798	-0.883866	-0.883401
O5	O	1.510171	-0.796564	-0.796066
O6	O	1.758271	-0.775749	-0.889093
O7	O	1.540701	-0.836174	-0.571370
O8	O	1.465176	-0.544325	-0.694198
O9	O	1.729246	-0.885459	-0.770957
O10	O	1.608033	-0.581667	-0.845422
O11	O	1.426868	-0.689121	-0.538281
O12	O	1.276596	-0.689032	-0.688611
O13	O	1.465114	-0.885302	-1.035189
O14	O	1.276569	-0.836017	-0.835602
O15	O	1.607998	-0.775660	-1.039422
O16	O	1.540666	-1.030166	-0.765370
O17	O	1.426807	-1.030099	-0.879272
C18	C	1.238666	-0.757000	-0.756595
C19	C	1.122515	-0.740103	-0.739737
C20	C	1.070723	-0.805383	-0.804863
C21	C	0.950675	-0.787921	-0.787442
C22	C	1.479477	-1.068053	-0.826610
C23	C	1.466445	-1.184217	-0.839728
C24	C	1.517033	-1.236020	-0.789276
C25	C	1.503565	-1.356081	-0.802832
C26	C	1.782736	-0.836284	-0.835691
C27	C	1.898886	-0.853210	-0.852577
C28	C	1.540959	-0.836140	-1.077559
C29	C	1.554079	-0.853005	-1.197515
C30	C	1.541015	-0.524022	-0.765429
C31	C	1.554159	-0.407881	-0.752374
C32	C	1.503607	-0.787765	-1.234624
C33	C	1.517166	-0.805195	-1.358604
C34	C	1.479570	-0.757075	-0.515667
C35	C	1.466686	-0.739946	-0.395708
H36	H	0.906146	-0.719096	-0.718787
H37	H	1.450286	-1.400612	-0.856070
H38	H	1.570317	-1.191490	-0.736051
Cl39	Cl	1.053767	-0.633847	-0.633742
Cl40	Cl	0.967632	-0.959453	-0.958599
Cl41	Cl	1.384436	-0.633802	-1.303060
Cl42	Cl	1.421406	-0.681593	-1.141972
Cl43	Cl	1.636290	-0.959170	-1.290167
H44	H	1.607447	-1.363354	-0.699145
H45	H	1.115259	-0.874196	-0.873521
Cl46	Cl	1.384189	-1.252966	-0.921919
Cl47	Cl	1.599380	-0.911365	-1.451253
