data_functionalizedCrystal
_audit_creation_method	'MofGen! by Chris Wilmer'
_symmetry_space_group_name_H-M	'P1'
_symmetry_Int_Tables_number	1
_symmetry_cell_setting	triclinic
loop_
_symmetry_equiv_pos_as_xyz
  x,y,z
_cell_length_a	19.077105
_cell_length_b	16.120484
_cell_length_c	19.076929
_cell_angle_alpha	95.043638
_cell_angle_beta	90.078300
_cell_angle_gamma	90.738523
loop_
_atom_site_label
_atom_site_type_symbol
_atom_site_fract_x
_atom_site_fract_y
_atom_site_fract_z
Zn1	Zn	1.040321	-0.403234	-0.456940
Zn2	Zn	1.373654	-0.069900	-0.123606
Zn3	Zn	1.706987	0.263433	0.209727
Zn4	Zn	1.039004	-0.537266	-0.344925
Zn5	Zn	1.372338	-0.203932	-0.011592
Zn6	Zn	1.705671	0.129401	0.321741
Zn7	Zn	0.928039	-0.392075	-0.334276
Zn8	Zn	1.261373	-0.058741	-0.000943
Zn9	Zn	1.594706	0.274592	0.332391
Zn10	Zn	0.916844	-0.536756	-0.457657
Zn11	Zn	1.250178	-0.203423	-0.124323
Zn12	Zn	1.583511	0.129911	0.209010
O13	O	0.981052	-0.467333	-0.398449
O14	O	1.314385	-0.133999	-0.065116
O15	O	1.647719	0.199334	0.268217
O16	O	1.138260	-0.425897	-0.446237
O17	O	1.471594	-0.092563	-0.112904
O18	O	1.804927	0.240770	0.220429
O19	O	1.028419	-0.513549	-0.244999
O20	O	1.361752	-0.180216	0.088334
O21	O	1.695085	0.153118	0.421668
O22	O	0.948170	-0.276912	-0.345791
O23	O	1.281503	0.056421	-0.012458
O24	O	1.614836	0.389754	0.320876
O25	O	1.137293	-0.524369	-0.363941
O26	O	1.470627	-0.191036	-0.030608
O27	O	1.803960	0.142297	0.302726
O28	O	1.030662	-0.285111	-0.435911
O29	O	1.363996	0.048222	-0.102578
O30	O	1.697329	0.381556	0.230755
O31	O	0.946893	-0.406878	-0.237175
O32	O	1.280227	-0.073545	0.096158
O33	O	1.613560	0.259789	0.429492
O34	O	0.828440	-0.406384	-0.346486
O35	O	1.161773	-0.073050	-0.013153
O36	O	1.495107	0.260283	0.320180
O37	O	0.929089	-0.523501	-0.556075
O38	O	1.262423	-0.190168	-0.222742
O39	O	1.595756	0.143166	0.110591
O40	O	0.820215	-0.512681	-0.437133
O41	O	1.153548	-0.179347	-0.103800
O42	O	1.486882	0.153986	0.229533
O43	O	1.019807	-0.425403	-0.555548
O44	O	1.353140	-0.092069	-0.222215
O45	O	1.686474	0.241264	0.111118
O46	O	1.017563	-0.653841	-0.364636
O47	O	1.350897	-0.320507	-0.031303
O48	O	1.684230	0.012826	0.302030
O49	O	0.927813	-0.653466	-0.447460
O50	O	1.261146	-0.320133	-0.114126
O51	O	1.594480	0.013200	0.219207
C52	C	0.798887	-0.458267	-0.390732
C53	C	1.132221	-0.124933	-0.057399
C54	C	1.465554	0.208400	0.275934
C55	C	0.720955	-0.454409	-0.387449
C56	C	1.054288	-0.121076	-0.054115
C57	C	1.387622	0.212258	0.279218
C58	C	0.680078	-0.508017	-0.433034
C59	C	1.013411	-0.174683	-0.099700
C60	C	1.346744	0.158650	0.233633
C61	C	0.606852	-0.504381	-0.429951
C62	C	0.940185	-0.171048	-0.096618
C63	C	1.273519	0.162285	0.236716
C64	C	0.574505	-0.447141	-0.381280
C65	C	0.907839	-0.113808	-0.047946
C66	C	1.241172	0.219525	0.285387
C67	C	0.615388	-0.393528	-0.335693
C68	C	0.948721	-0.060194	-0.002359
C69	C	1.282055	0.273139	0.330974
C70	C	0.688612	-0.397160	-0.338779
C71	C	1.021945	-0.063826	-0.005446
C72	C	1.355279	0.269507	0.327888
C73	C	0.355966	-0.430332	-0.366998
C74	C	0.689299	-0.096999	-0.033665
C75	C	1.022633	0.236335	0.299669
C76	C	0.282736	-0.426706	-0.363914
C77	C	0.616070	-0.093372	-0.030580
C78	C	0.949403	0.239961	0.302753
C79	C	0.274205	-0.537558	-0.458173
C80	C	0.607539	-0.204225	-0.124840
C81	C	0.940872	0.129108	0.208493
C82	C	0.347431	-0.541189	-0.461253
C83	C	0.680765	-0.207856	-0.127919
C84	C	1.014098	0.125478	0.205414
C85	C	0.388308	-0.487572	-0.415668
C86	C	0.721641	-0.154239	-0.082335
C87	C	1.054974	0.179094	0.250998
N88	N	0.499657	-0.443426	-0.378126
N89	N	0.832990	-0.110092	-0.044793
N90	N	1.166324	0.223241	0.288541
N91	N	0.463155	-0.491285	-0.418826
N92	N	0.796488	-0.157951	-0.085492
N93	N	1.129821	0.175382	0.247841
C94	C	0.971349	-0.683899	-0.407297
C95	C	1.304682	-0.350566	-0.073964
C96	C	1.638016	-0.017233	0.259369
C97	C	0.967261	-0.776552	-0.411109
C98	C	1.300594	-0.443218	-0.077775
C99	C	1.633928	-0.109885	0.255558
C100	C	0.959801	-0.946189	-0.418082
C101	C	1.293134	-0.612856	-0.084749
C102	C	1.626468	-0.279523	0.248585
C103	C	1.002428	-0.987642	-0.378834
C104	C	1.335762	-0.654309	-0.045500
C105	C	1.669095	-0.320975	0.287833
C106	C	0.998278	-1.082034	-0.382714
C107	C	1.331611	-0.748701	-0.049380
C108	C	1.664944	-0.415368	0.283953
C109	C	0.963951	-0.851789	-0.414203
C110	C	1.297284	-0.518455	-0.080870
C111	C	1.630618	-0.185122	0.252464
C112	C	1.163928	-0.476435	-0.406197
C113	C	1.497261	-0.143101	-0.072864
C114	C	1.830595	0.190232	0.260470
C115	C	1.241859	-0.480313	-0.409499
C116	C	1.575192	-0.146980	-0.076165
C117	C	1.908526	0.186353	0.257168
C118	C	0.973346	-0.475640	-0.582070
C119	C	1.306680	-0.142306	-0.248736
C120	C	1.640013	0.191027	0.084597
C121	C	0.970062	-0.479180	-0.660318
C122	C	1.303396	-0.145846	-0.326984
C123	C	1.636729	0.187487	0.006349
C124	C	0.990812	-0.249922	-0.389583
C125	C	1.324145	0.083411	-0.056250
C126	C	1.657478	0.416745	0.277083
C127	C	0.994971	-0.157274	-0.385805
C128	C	1.328304	0.176059	-0.052472
C129	C	1.661637	0.509392	0.280862
C130	C	0.946512	-0.504636	-1.100802
C131	C	1.279845	-0.171303	-0.767469
C132	C	1.613178	0.162031	-0.434136
C133	C	0.949595	-0.501297	-1.027279
C134	C	1.282928	-0.167964	-0.693946
C135	C	1.616262	0.165369	-0.360613
C136	C	0.998372	-0.448558	-0.990247
C137	C	1.331705	-0.115225	-0.656914
C138	C	1.665038	0.218108	-0.323581
C139	C	1.044063	-0.399149	-1.026742
C140	C	1.377397	-0.065815	-0.693408
C141	C	1.710730	0.267518	-0.360075
C142	C	1.040976	-0.402483	-1.100263
C143	C	1.374309	-0.069150	-0.766930
C144	C	1.707643	0.264183	-0.433596
C145	C	1.012667	-0.433105	-0.770333
C146	C	1.346000	-0.099771	-0.437000
C147	C	1.679333	0.233562	-0.103666
C148	C	1.015752	-0.429775	-0.696807
C149	C	1.349085	-0.096442	-0.363474
C150	C	1.682419	0.236891	-0.030140
C151	C	0.921282	-0.531923	-0.697349
C152	C	1.254616	-0.198590	-0.364016
C153	C	1.587949	0.134743	-0.030683
C154	C	0.918202	-0.535257	-0.770872
C155	C	1.251536	-0.201924	-0.437539
C156	C	1.584869	0.131410	-0.104206
C157	C	0.963891	-0.485844	-0.807360
C158	C	1.297225	-0.152511	-0.474027
C159	C	1.630558	0.180822	-0.140693
N160	N	1.001526	-0.445147	-0.915095
N161	N	1.334859	-0.111813	-0.581762
N162	N	1.668193	0.221520	-0.248429
N163	N	0.960733	-0.489252	-0.882510
N164	N	1.294066	-0.155919	-0.549177
N165	N	1.627400	0.177414	-0.215844
C166	C	0.988771	-0.459000	-0.215543
C167	C	1.322104	-0.125666	0.117790
C168	C	1.655438	0.207667	0.451124
C169	C	0.992201	-0.455232	-0.137292
C170	C	1.325534	-0.121898	0.196042
C171	C	1.658868	0.211435	0.529375
H172	H	0.573572	-0.548035	-0.467070
H173	H	0.906906	-0.214702	-0.133737
H174	H	1.240239	0.118631	0.199596
Br175	Br	0.391326	-0.618879	-0.527305
Br176	Br	0.724659	-0.285546	-0.193972
Br177	Br	1.057992	0.047788	0.139361
H178	H	0.256402	-0.380084	-0.324283
H179	H	0.589736	-0.046751	0.009050
H180	H	0.923069	0.286582	0.342383
Br181	Br	0.893782	-1.005192	-0.478940
Br182	Br	1.227115	-0.671859	-0.145607
Br183	Br	1.560448	-0.338526	0.187726
Br184	Br	0.880316	-0.576220	-1.151053
Br185	Br	1.213649	-0.242886	-0.817720
Br186	Br	1.546982	0.090447	-0.484386
H187	H	0.878484	-0.578203	-0.801019
H188	H	1.211817	-0.244870	-0.467685
H189	H	1.545150	0.088463	-0.134352
H190	H	0.240916	-0.581209	-0.495286
H191	H	0.574250	-0.247876	-0.161953
H192	H	0.907583	0.085458	0.171380
H193	H	0.706409	-0.554630	-0.472665
H194	H	1.039742	-0.221297	-0.139332
H195	H	1.373075	0.112036	0.194002
H196	H	1.042040	-0.952239	-0.342318
H197	H	1.375373	-0.618906	-0.008984
H198	H	1.708706	-0.285573	0.324349
Br199	Br	1.081957	-0.358201	-0.646549
Br200	Br	1.415290	-0.024867	-0.313216
Br201	Br	1.748623	0.308466	0.020117
H202	H	0.389239	-0.386680	-0.329875
H203	H	0.722572	-0.053346	0.003458
H204	H	1.055906	0.279987	0.336792
Br205	Br	0.887580	-0.568343	-0.977760
Br206	Br	1.220913	-0.235009	-0.644427
Br207	Br	1.554247	0.098324	-0.311093
H208	H	0.884084	-0.572152	-0.667633
H209	H	1.217418	-0.238818	-0.334300
H210	H	1.550751	0.094515	-0.000967
H211	H	1.049873	-0.392874	-0.800033
H212	H	1.383207	-0.059540	-0.466699
H213	H	1.716540	0.273793	-0.133366
H214	H	1.083775	-0.356204	-0.996584
H215	H	1.417109	-0.022870	-0.663251
H216	H	1.750442	0.310463	-0.329918
Br217	Br	1.102974	-0.335418	-1.149784
Br218	Br	1.436308	-0.002084	-0.816451
Br219	Br	1.769641	0.331249	-0.483118
H220	H	0.721894	-0.353502	-0.301662
H221	H	1.055227	-0.020169	0.031671
H222	H	1.388561	0.313164	0.365004
Br223	Br	0.571490	-0.315836	-0.269644
Br224	Br	0.904823	0.017497	0.063689
Br225	Br	1.238156	0.350830	0.397023
