data_functionalizedCrystal
_audit_creation_method	'MofGen! by Chris Wilmer'
_symmetry_space_group_name_H-M	'P1'
_symmetry_Int_Tables_number	1
_symmetry_cell_setting	triclinic
loop_
_symmetry_equiv_pos_as_xyz
  x,y,z
_cell_length_a	23.532355
_cell_length_b	23.532407
_cell_length_c	22.610064
_cell_angle_alpha	90.000603
_cell_angle_beta	89.997644
_cell_angle_gamma	97.161912
loop_
_atom_site_label
_atom_site_type_symbol
_atom_site_fract_x
_atom_site_fract_y
_atom_site_fract_z
O1	O	0.755283	-0.068986	-0.049110
O2	O	1.255283	0.431014	0.450890
O3	O	0.589415	-0.079020	-0.049130
O4	O	1.089415	0.420980	0.450870
O5	O	0.677351	0.008929	-0.049108
O6	O	1.177351	0.508929	0.450892
O7	O	0.667347	-0.156936	-0.049131
O8	O	1.167347	0.343064	0.450869
O9	O	0.677335	0.008916	0.049261
O10	O	1.177335	0.508916	0.549261
O11	O	0.589400	-0.079033	0.049239
O12	O	1.089400	0.420967	0.549239
O13	O	0.755267	-0.068999	0.049259
O14	O	1.255267	0.431001	0.549259
Zn15	Zn	0.672331	-0.074018	0.064868
Zn16	Zn	1.172331	0.425982	0.564868
Zn17	Zn	0.672351	-0.074001	-0.064738
Zn18	Zn	1.172351	0.425999	0.435262
O19	O	0.667332	-0.156949	0.049238
O20	O	1.167332	0.343051	0.549238
C21	C	0.568191	-0.078776	0.000052
C22	C	1.068191	0.421224	0.500052
C23	C	0.504972	-0.078022	0.000045
C24	C	1.004972	0.421978	0.500045
C25	C	0.112950	-0.073291	0.053692
C26	C	0.612950	0.426709	0.553692
C27	C	0.053550	-0.072573	0.053694
C28	C	0.553550	0.427427	0.553694
O29	O	0.022825	-0.072189	0.099296
O30	O	0.522825	0.427811	0.599296
N31	N	0.023850	-0.072211	0.000074
N32	N	0.523850	0.427789	0.500074
C33	C	0.053554	-0.072560	-0.053553
C34	C	0.553554	0.427440	0.446447
O35	O	0.022837	-0.072185	-0.099162
O36	O	0.522837	0.427815	0.400838
C37	C	0.112953	-0.073273	-0.053555
C38	C	0.612953	0.426727	0.446445
C39	C	0.142649	-0.073641	0.000069
C40	C	0.642649	0.426359	0.500069
C41	C	0.142646	-0.073659	0.107312
C42	C	0.642646	0.426341	0.607312
C43	C	0.202041	-0.074377	0.107309
C44	C	0.702041	0.425623	0.607309
C45	C	0.231740	-0.074728	0.053687
C46	C	0.731740	0.425272	0.553687
C47	C	0.202044	-0.074360	0.000067
C48	C	0.702044	0.425640	0.500067
C49	C	0.142655	-0.073618	-0.107181
C50	C	0.642655	0.426382	0.392819
C51	C	0.202058	-0.074331	-0.107178
C52	C	0.702058	0.425669	0.392822
C53	C	0.231754	-0.074699	-0.053554
C54	C	0.731754	0.425301	0.446446
C55	C	0.291138	-0.075429	-0.053558
C56	C	0.791138	0.424571	0.446442
N57	N	0.320838	-0.075792	0.000062
N58	N	0.820838	0.424208	0.500062
C59	C	0.291139	-0.075441	0.053685
C60	C	0.791139	0.424559	0.553685
C61	C	-0.071188	-0.071061	-0.053545
C62	C	0.428812	0.428939	0.446455
C63	C	-0.130586	-0.070351	-0.053544
C64	C	0.369414	0.429649	0.446456
C65	C	-0.130585	-0.070364	0.053703
C66	C	0.369415	0.429636	0.553703
C67	C	-0.071186	-0.071077	0.053702
C68	C	0.428814	0.428923	0.553702
C69	C	-0.041488	-0.071423	0.000075
C70	C	0.458512	0.428577	0.500075
C71	C	0.415873	-0.076951	0.053675
C72	C	0.915873	0.423049	0.553675
C73	C	0.475273	-0.077671	0.053668
C74	C	0.975273	0.422329	0.553668
C75	C	0.475267	-0.077656	-0.053579
C76	C	0.975267	0.422344	0.446421
C77	C	0.415872	-0.076938	-0.053572
C78	C	0.915872	0.423062	0.446428
C79	C	0.386177	-0.076583	0.000060
C80	C	0.886177	0.423417	0.500060
O81	O	0.321902	-0.075812	-0.099137
O82	O	0.821902	0.424188	0.400863
O83	O	0.321864	-0.075809	0.099286
O84	O	0.821864	0.424191	0.599286
C85	C	0.677088	0.030139	0.000078
C86	C	1.177088	0.530139	0.500078
C87	C	0.676322	0.093356	0.000082
C88	C	1.176322	0.593356	0.500082
C89	C	0.776491	-0.069244	0.000076
C90	C	1.276491	0.430756	0.500076
C91	C	0.839710	-0.069998	0.000079
C92	C	1.339710	0.430002	0.500079
C93	C	0.667594	-0.178158	0.000050
C94	C	1.167594	0.321842	0.500050
C95	C	0.668360	-0.241375	0.000042
C96	C	1.168360	0.258625	0.500042
N97	N	0.672321	-0.074029	0.153320
N98	N	1.172321	0.425971	0.653320
C99	C	0.723557	0.492468	0.000055
C100	C	1.223557	0.992468	0.500055
C101	C	0.722845	0.551868	0.000051
C102	C	1.222845	1.051868	0.500051
O103	O	0.766632	0.588620	0.000034
O104	O	1.266632	1.088620	0.500034
N105	N	0.670568	0.574484	0.000045
N106	N	1.170568	1.074484	0.500045
C107	C	0.618998	0.537697	0.000038
C108	C	1.118998	1.037697	0.500038
O109	O	0.574467	0.562388	0.000032
O110	O	1.074467	1.062388	0.500032
C111	C	0.619710	0.478298	0.000038
C112	C	1.119710	0.978298	0.500038
C113	C	0.671991	0.455685	0.000050
C114	C	1.171991	0.955685	0.500050
C115	C	0.775834	0.469854	0.000066
C116	C	1.275834	0.969854	0.500066
C117	C	0.776545	0.410458	0.000072
C118	C	1.276545	0.910458	0.500072
C119	C	0.724979	0.373676	0.000067
C120	C	1.224979	0.873676	0.500067
C121	C	0.672703	0.396289	0.000055
C122	C	1.172703	0.896289	0.500055
C123	C	0.568141	0.441512	0.000027
C124	C	1.068141	0.941512	0.500027
C125	C	0.568858	0.382110	0.000026
C126	C	1.068858	0.882110	0.500026
C127	C	0.621139	0.359497	0.000038
C128	C	1.121139	0.859497	0.500038
C129	C	0.621848	0.300110	0.000056
C130	C	1.121848	0.800110	0.500056
N131	N	0.674126	0.277494	0.000061
N132	N	1.174126	0.777494	0.500061
C133	C	0.725691	0.314277	0.000067
C134	C	1.225691	0.814277	0.500067
C135	C	0.617507	0.662439	0.000036
C136	C	1.117507	1.162439	0.500036
C137	C	0.616794	0.721837	0.000040
C138	C	1.116794	1.221837	0.500040
C139	C	0.720642	0.736004	0.000052
C140	C	1.220642	1.236004	0.500052
C141	C	0.721354	0.676605	0.000052
C142	C	1.221354	1.176605	0.500052
C143	C	0.669784	0.639823	0.000042
C144	C	1.169784	1.139823	0.500042
C145	C	0.727181	0.189540	0.000079
C146	C	1.227181	0.689540	0.500079
C147	C	0.727888	0.130138	0.000087
C148	C	1.227888	0.630138	0.500087
C149	C	0.624041	0.115977	0.000072
C150	C	1.124041	0.615977	0.500072
C151	C	0.623334	0.175373	0.000067
C152	C	1.123334	0.675373	0.500067
C153	C	0.674909	0.212154	0.000069
C154	C	1.174909	0.712154	0.500069
O155	O	0.578084	0.263323	0.000070
O156	O	1.078084	0.763323	0.500070
O157	O	0.770216	0.289577	0.000065
O158	O	1.270216	0.789577	0.500065
N159	N	0.672366	-0.073986	-0.153191
N160	N	1.172366	0.426014	0.346809
C161	C	0.711291	-0.035063	0.561971
C162	C	1.211291	0.464937	1.061971
C163	C	0.711294	-0.035059	0.623891
C164	C	1.211294	0.464941	1.123891
O165	O	0.744403	-0.001937	0.655917
O166	O	1.244403	0.498063	1.155917
N167	N	0.672351	-0.073990	0.654857
N168	N	1.172351	0.426010	1.154857
C169	C	0.633399	-0.112923	0.623900
C170	C	1.133399	0.387077	1.123900
O171	O	0.600275	-0.146036	0.655926
O172	O	1.100275	0.353964	1.155926
C173	C	0.633394	-0.112924	0.561982
C174	C	1.133394	0.387076	1.061982
C175	C	0.672343	-0.073995	0.531018
C176	C	1.172343	0.426005	1.031018
C177	C	0.750237	0.003863	0.531007
C178	C	1.250237	0.503863	1.031007
C179	C	0.750234	0.003858	0.469092
C180	C	1.250234	0.503858	0.969092
C181	C	0.711286	-0.035073	0.438139
C182	C	1.211286	0.464927	0.938139
C183	C	0.672340	-0.074000	0.469103
C184	C	1.172340	0.426000	0.969103
C185	C	0.594439	-0.151854	0.531026
C186	C	1.094439	0.348146	1.031026
C187	C	0.594437	-0.151851	0.469103
C188	C	1.094437	0.348149	0.969103
C189	C	0.633386	-0.112922	0.438140
C190	C	1.133386	0.387078	0.938140
C191	C	0.633390	-0.112936	0.376235
C192	C	1.133390	0.387064	0.876235
N193	N	0.672333	-0.074006	0.345268
N194	N	1.172333	0.425994	0.845268
C195	C	0.711281	-0.035074	0.376221
C196	C	1.211281	0.464926	0.876221
C197	C	0.633412	-0.112917	0.753934
C198	C	1.133412	0.387083	1.253934
C199	C	0.633419	-0.112919	0.815852
C200	C	1.133419	0.387081	1.315852
C201	C	0.711314	-0.035055	0.815838
C202	C	1.211314	0.464945	1.315838
C203	C	0.711309	-0.035056	0.753919
C204	C	1.211309	0.464944	1.253919
C205	C	0.672355	-0.073987	0.722968
C206	C	1.172355	0.426013	1.222968
C207	C	0.711273	-0.035088	0.246193
C208	C	1.211273	0.464912	0.746193
C209	C	0.711269	-0.035098	0.184272
C210	C	1.211269	0.464902	0.684272
C211	C	0.633373	-0.112960	0.184292
C212	C	1.133373	0.387040	0.684292
C213	C	0.633379	-0.112953	0.246207
C214	C	1.133379	0.387047	0.746207
C215	C	0.672331	-0.074012	0.277157
C216	C	1.172331	0.425988	0.777157
O217	O	0.600296	-0.146040	0.344169
O218	O	1.100296	0.353960	0.844169
O219	O	0.744395	-0.001962	0.344188
O220	O	1.244395	0.498038	0.844188
H221	H	0.226236	-0.074613	-0.150848
H222	H	0.726236	0.425387	0.349152
H223	H	0.819117	0.392053	0.000079
H224	H	1.319117	0.892053	0.500079
Cl225	Cl	0.545471	-0.200795	0.569939
Cl226	Cl	1.045471	0.299205	1.069939
H227	H	0.601692	-0.144624	0.728736
H228	H	1.101692	0.355376	1.228736
H229	H	-0.047012	-0.071348	-0.097217
H230	H	0.452988	0.428652	0.402783
H231	H	0.391691	-0.076647	-0.097238
H232	H	0.891691	0.423353	0.402762
Cl233	Cl	0.512615	-0.078093	-0.120987
Cl234	Cl	1.012615	0.421907	0.379013
H235	H	-0.154777	-0.070078	0.097366
H236	H	0.345223	0.429922	0.597366
Cl237	Cl	0.512602	-0.078136	0.121087
Cl238	Cl	1.012602	0.421864	0.621087
H239	H	0.601709	-0.144625	0.841058
H240	H	1.101709	0.355375	1.341058
H241	H	0.781953	0.035569	0.556203
H242	H	1.281953	0.535569	1.056203
H243	H	0.763925	0.658198	0.000061
H244	H	1.263925	1.158198	0.500061
H245	H	0.575510	0.632494	0.000033
H246	H	1.075510	1.132494	0.500033
Cl247	Cl	0.840668	0.516085	0.000074
Cl248	Cl	1.340668	1.016085	0.500074
Cl249	Cl	0.584418	-0.161900	0.285131
Cl250	Cl	1.084418	0.338100	0.785131
Cl251	Cl	0.502412	0.469924	0.000008
Cl252	Cl	1.002412	0.969924	0.500008
Cl253	Cl	0.551067	0.750257	0.000036
Cl254	Cl	1.051067	1.250257	0.500036
H255	H	0.526863	0.352164	0.000017
H256	H	1.026863	0.852164	0.500017
Cl257	Cl	0.557608	0.203802	0.000064
Cl258	Cl	1.057608	0.703802	0.500064
H259	H	0.743024	-0.003356	0.728712
H260	H	1.243024	0.496644	1.228712
Cl261	Cl	0.584412	-0.161901	0.145370
Cl262	Cl	1.084412	0.338099	0.645370
Cl263	Cl	0.785467	0.782256	0.000054
Cl264	Cl	1.285467	1.282256	0.500054
H265	H	0.391701	-0.076667	0.097348
H266	H	0.891701	0.423333	0.597348
H267	H	0.582057	0.086018	0.000070
H268	H	1.082057	0.586018	0.500070
H269	H	0.118487	-0.073317	-0.150848
H270	H	0.618487	0.426683	0.349152
Cl271	Cl	0.793617	0.101715	0.000101
Cl272	Cl	1.293617	0.601715	0.500101
Cl273	Cl	0.760238	0.013844	0.145350
Cl274	Cl	1.260238	0.513844	0.645350
Cl275	Cl	-0.167913	-0.069899	-0.120961
Cl276	Cl	0.332087	0.430101	0.379039
H277	H	0.769178	0.219481	0.000078
H278	H	1.269178	0.719481	0.500078
H279	H	0.226215	-0.074674	0.150976
H280	H	0.726215	0.425326	0.650976
H281	H	0.743027	-0.003354	0.841050
H282	H	1.243027	0.496646	1.341050
Cl283	Cl	-0.033860	-0.071539	0.121117
Cl284	Cl	0.466140	0.428461	0.621117
Cl285	Cl	0.105321	-0.073221	0.174733
Cl286	Cl	0.605321	0.426779	0.674733
H287	H	0.742991	-0.003378	0.271385
H288	H	1.242991	0.496622	0.771385
Cl289	Cl	0.545462	-0.200796	0.430197
Cl290	Cl	1.045462	0.299204	0.930197
H291	H	0.781948	0.035559	0.443885
H292	H	1.281948	0.535559	0.943885
