data_functionalizedCrystal
_audit_creation_method	'MofGen! by Chris Wilmer'
_symmetry_space_group_name_H-M	'P1'
_symmetry_Int_Tables_number	1
_symmetry_cell_setting	triclinic
loop_
_symmetry_equiv_pos_as_xyz
  x,y,z
_cell_length_a	25.639242
_cell_length_b	25.639242
_cell_length_c	25.639233
_cell_angle_alpha	90.006304
_cell_angle_beta	90.022166
_cell_angle_gamma	90.001714
loop_
_atom_site_label
_atom_site_type_symbol
_atom_site_fract_x
_atom_site_fract_y
_atom_site_fract_z
Zn1	Zn	0.799343	-0.208277	0.295788
Zn2	Zn	0.799316	-0.295695	0.208371
Zn3	Zn	0.711920	-0.208269	0.208352
Zn4	Zn	0.711914	-0.295676	0.295761
O5	O	0.755623	-0.251979	0.252068
O6	O	0.872505	-0.219884	0.284211
O7	O	0.787714	-0.284103	0.135203
O8	O	0.723530	-0.135105	0.219953
O9	O	0.872485	-0.284110	0.219986
O10	O	0.787760	-0.135111	0.284192
O11	O	0.723504	-0.219871	0.135189
O12	O	0.638754	-0.219852	0.219927
O13	O	0.723521	-0.284077	0.368930
O14	O	0.638750	-0.284070	0.284146
O15	O	0.787755	-0.219866	0.368949
O16	O	0.787709	-0.368858	0.219960
O17	O	0.723495	-0.368844	0.284165
C18	C	0.619781	-0.251959	0.252032
C19	C	0.561667	-0.251963	0.252029
C20	C	0.755648	-0.115606	0.252074
C21	C	0.755659	-0.057492	0.252076
C22	C	0.201311	-0.285473	0.285475
C23	C	0.146706	-0.285476	0.285483
O24	O	0.118475	-0.313943	0.313890
N25	N	0.119384	-0.251994	0.252102
C26	C	0.146669	-0.218502	0.218714
O27	O	0.118416	-0.190022	0.190321
C28	C	0.201273	-0.218496	0.218709
C29	C	0.228592	-0.251985	0.252088
C30	C	0.228630	-0.318959	0.318852
C31	C	0.283230	-0.318956	0.318843
C32	C	0.310512	-0.285468	0.285457
C33	C	0.283192	-0.251982	0.252079
C34	C	0.228557	-0.185002	0.185324
C35	C	0.283164	-0.184999	0.185321
C36	C	0.310483	-0.218488	0.218701
C37	C	0.365074	-0.218492	0.218684
N38	N	0.392396	-0.251974	0.252065
C39	C	0.365115	-0.285463	0.285452
C40	C	0.031999	-0.218515	0.218728
C41	C	-0.022604	-0.218523	0.218730
C42	C	-0.022563	-0.285497	0.285500
C43	C	0.032040	-0.285492	0.285495
C44	C	0.059321	-0.251998	0.252109
C45	C	0.479780	-0.285455	0.285430
C46	C	0.534385	-0.285451	0.285416
C47	C	0.534340	-0.218475	0.218648
C48	C	0.479739	-0.218481	0.218659
C49	C	0.452461	-0.251972	0.252054
O50	O	0.393340	-0.190038	0.190293
O51	O	0.393375	-0.313933	0.313844
C52	C	0.755612	-0.387822	0.252073
C53	C	0.755656	-0.445936	0.252093
C54	C	0.891996	-0.252000	0.252104
C55	C	0.950110	-0.252009	0.252119
C56	C	0.755640	-0.251970	0.388441
C57	C	0.755647	-0.251966	0.446555
C58	C	0.722207	0.302879	0.218644
C59	C	0.722206	0.357484	0.218646
O60	O	0.693755	0.385728	0.190217
N61	N	0.755649	0.384790	0.252091
C62	C	0.789091	0.357490	0.285539
O63	O	0.817536	0.385730	0.313987
C64	C	0.789088	0.302886	0.285539
C65	C	0.755647	0.275583	0.252088
C66	C	0.688768	0.275576	0.185196
C67	C	0.688770	0.220975	0.185193
C68	C	0.722210	0.193678	0.218638
C69	C	0.755648	0.220982	0.252085
C70	C	0.822527	0.275587	0.318990
C71	C	0.822521	0.220980	0.318987
C72	C	0.789080	0.193676	0.285536
C73	C	0.789090	0.139085	0.285527
N74	N	0.755647	0.111778	0.252082
C75	C	0.722207	0.139075	0.218637
C76	C	0.789093	0.472160	0.285538
C77	C	0.789098	0.526763	0.285536
C78	C	0.722213	0.526753	0.218643
C79	C	0.722210	0.472150	0.218643
C80	C	0.755650	0.444854	0.252093
C81	C	0.722213	0.024410	0.218633
C82	C	0.722219	-0.030196	0.218631
C83	C	0.789102	-0.030181	0.285526
C84	C	0.789098	0.024420	0.285526
C85	C	0.755650	0.051714	0.252078
O86	O	0.817525	0.110806	0.313943
O87	O	0.693762	0.110828	0.190199
C88	C	0.755637	-0.251951	0.116225
C89	C	0.755731	-0.251807	0.058111
C90	C	0.789136	-0.218432	0.806934
C91	C	0.789143	-0.218417	0.861538
O92	O	0.817574	-0.189967	0.889788
N93	N	0.755705	-0.251844	0.888837
C94	C	0.722255	-0.285283	0.861530
O95	O	0.693814	-0.313713	0.889764
C96	C	0.722246	-0.285294	0.806926
C97	C	0.755690	-0.251870	0.779630
C98	C	0.822577	-0.185009	0.779637
C99	C	0.822571	-0.185025	0.725037
C100	C	0.789124	-0.218462	0.697733
C101	C	0.755684	-0.251885	0.725029
C102	C	0.688794	-0.318731	0.779619
C103	C	0.688788	-0.318739	0.725012
C104	C	0.722231	-0.285314	0.697716
C105	C	0.722232	-0.285338	0.643125
N106	N	0.755669	-0.251912	0.615825
C107	C	0.789116	-0.218474	0.643129
C108	C	0.722275	-0.285256	0.976200
C109	C	0.722286	-0.285247	1.030803
C110	C	0.789173	-0.218381	1.030807
C111	C	0.789165	-0.218392	0.976204
C112	C	0.755713	-0.251829	0.948901
C113	C	0.789101	-0.218509	0.528464
C114	C	0.789094	-0.218528	0.473859
C115	C	0.722205	-0.285393	0.473859
C116	C	0.722214	-0.285375	0.528459
C117	C	0.755664	-0.251929	0.555761
O118	O	0.693813	-0.313773	0.614840
O119	O	0.817547	-0.190044	0.614889
H120	H	0.556626	-0.312723	0.312598
Cl121	Cl	0.680172	0.561079	0.176599
Cl122	Cl	-0.056870	-0.327592	0.327478
Cl123	Cl	-0.056941	-0.176428	0.176758
H124	H	0.816335	0.548990	0.312769
H125	H	0.054207	-0.191241	0.191537
Cl126	Cl	0.680249	-0.327277	1.065111
Cl127	Cl	0.445495	-0.327560	0.327412
H128	H	0.694987	-0.052424	0.191390
H129	H	0.054280	-0.312760	0.312677
H130	H	0.816326	0.449939	0.312777
Cl131	Cl	0.680164	0.058714	0.176582
Cl132	Cl	0.831145	0.058745	0.327572
H133	H	0.305469	-0.346225	0.346026
Cl134	Cl	0.680221	-0.327300	0.941882
Cl135	Cl	0.646730	-0.360776	0.690692
Cl136	Cl	0.646749	-0.360755	0.813921
Cl137	Cl	0.864613	-0.142998	0.690729
Cl138	Cl	0.194226	-0.142896	0.143361
Cl139	Cl	0.317456	-0.142890	0.143348
Cl140	Cl	0.680173	-0.327398	0.562776
Cl141	Cl	0.194343	-0.361065	0.360830
H142	H	0.457495	-0.191213	0.191478
Cl143	Cl	0.831141	-0.176506	0.439547
H144	H	0.694975	-0.312619	0.451618
H145	H	0.816330	-0.052416	0.312754
H146	H	0.816338	-0.191272	0.550687
H147	H	0.849813	-0.157777	0.801863
Cl148	Cl	0.831219	-0.176343	1.065143
Cl149	Cl	0.831208	-0.176370	0.941894
H150	H	0.556562	-0.191211	0.191464
H151	H	0.661537	0.198749	0.157955
Cl152	Cl	0.646722	0.309882	0.143147
H153	H	0.694979	0.449922	0.191405
Cl154	Cl	0.864568	0.309898	0.361047
H155	H	0.849748	0.198758	0.346231
