data_functionalizedCrystal
_audit_creation_method	'MofGen! by Chris Wilmer'
_symmetry_space_group_name_H-M	'P1'
_symmetry_Int_Tables_number	1
_symmetry_cell_setting	triclinic
loop_
_symmetry_equiv_pos_as_xyz
  x,y,z
_cell_length_a	19.288862
_cell_length_b	18.366186
_cell_length_c	19.288865
_cell_angle_alpha	89.989632
_cell_angle_beta	83.135763
_cell_angle_gamma	89.974265
loop_
_atom_site_label
_atom_site_type_symbol
_atom_site_fract_x
_atom_site_fract_y
_atom_site_fract_z
O1	O	-0.921354	0.060839	-0.086640
O2	O	-0.719093	0.060780	-0.098330
O3	O	-0.826068	0.060797	0.008645
O4	O	-0.814379	0.060822	-0.193615
O5	O	-0.826049	-0.060303	0.008648
O6	O	-0.719075	-0.060320	-0.098327
O7	O	-0.921336	-0.060261	-0.086637
Zn8	Zn	-0.820202	-0.079517	-0.092482
Zn9	Zn	-0.820226	0.080036	-0.092485
O10	O	-0.814361	-0.060277	-0.193612
C11	C	-0.693207	0.000222	-0.097953
C12	C	-0.616104	0.000199	-0.096824
C13	C	-0.571407	0.000216	-0.159593
C14	C	-0.498960	0.000221	-0.158533
C15	C	-0.471213	0.000222	-0.094701
C16	C	-0.515919	0.000201	-0.031924
C17	C	-0.588364	0.000189	-0.032986
C18	C	-0.362957	0.042661	-0.044524
C19	C	-0.290512	0.042677	-0.043464
C20	C	-0.247767	0.000254	-0.091423
C21	C	-0.277473	-0.042175	-0.140453
C22	C	-0.349919	-0.042187	-0.141515
C23	C	-0.392659	0.000234	-0.093542
C24	C	-0.124514	0.000275	-0.153046
C25	C	-0.052066	0.000275	-0.151983
C26	C	-0.069027	0.000262	-0.025373
C27	C	-0.141473	0.000255	-0.026438
C28	C	-0.169212	0.000265	-0.090276
N29	N	-0.820191	-0.188408	-0.092478
C30	C	-0.862178	-0.226484	-0.134502
C31	C	-0.862190	-0.302712	-0.134500
C32	C	-0.820200	-0.340861	-0.092483
C33	C	-0.778210	-0.302776	-0.050451
C34	C	-0.778205	-0.226550	-0.050449
C35	C	-0.757589	-0.461661	-0.090726
C36	C	-0.757592	-0.537886	-0.090733
C37	C	-0.820216	-0.575969	-0.092485
C38	C	-0.882838	-0.537817	-0.094244
C39	C	-0.882833	-0.461591	-0.094242
C40	C	-0.820201	-0.423516	-0.092480
C41	C	-0.862220	-0.696699	-0.134509
C42	C	-0.862232	-0.772928	-0.134502
C43	C	-0.778246	-0.772991	-0.050456
C44	C	-0.778240	-0.696764	-0.050459
C45	C	-0.820225	-0.658622	-0.092489
C46	C	0.052779	0.000286	-0.087016
C47	C	-0.024324	0.000275	-0.088151
C48	C	-0.825683	0.000245	0.034523
C49	C	-0.824554	0.000238	0.111627
N50	N	-0.820244	0.188928	-0.092483
C51	C	-0.814746	0.000276	-0.219490
C52	C	-0.815875	0.000288	-0.296594
C53	C	-0.887322	0.000253	0.156324
C54	C	-0.886261	0.000264	0.228771
C55	C	-0.822429	0.000246	0.256518
C56	C	-0.759652	0.000235	0.211811
C57	C	-0.760715	0.000231	0.139366
C58	C	-0.772243	-0.042188	0.364806
C59	C	-0.771183	-0.042188	0.437250
C60	C	-0.819149	0.000261	0.479963
C61	C	-0.868187	0.042701	0.450225
C62	C	-0.869249	0.042697	0.377779
C63	C	-0.821270	0.000250	0.335072
C64	C	-0.880771	0.000289	0.603216
C65	C	-0.879708	0.000305	0.675664
C66	C	-0.753098	0.000268	0.658703
C67	C	-0.754163	0.000260	0.586257
C68	C	-0.818001	0.000267	0.558518
H69	H	-0.624757	0.000176	0.018129
H70	H	-0.896407	-0.665643	-0.168731
F71	F	-0.687356	0.000241	0.538685
F72	F	-0.906852	-0.185895	-0.179245
H73	H	-0.932752	0.000298	0.580630
F74	F	-0.733565	-0.813588	-0.005731
H75	H	-0.744046	-0.665762	-0.016242
H76	H	-0.707680	0.000222	0.234407
F77	F	-0.600925	0.000225	-0.227535
H78	H	-0.909176	0.077255	0.353569
H79	H	-0.706601	-0.568943	-0.089305
H80	H	-0.930823	0.000321	0.712056
F81	F	-0.685162	0.000253	0.688228
F82	F	-0.039500	0.000257	0.042562
H83	H	-0.147101	0.000272	-0.205027
H84	H	-0.744012	-0.195549	-0.016227
H85	H	-0.933832	-0.568822	-0.095674
F86	F	-0.733524	-0.343378	-0.005731
H87	H	-0.896381	-0.333719	-0.168722
H88	H	-0.907245	0.077268	0.485001
H89	H	-0.896429	-0.803928	-0.168720
F90	F	-0.955265	0.000276	0.126806
H91	H	-0.731250	-0.076741	0.461457
F92	F	-0.690938	-0.421138	-0.088816
F93	F	-0.381532	-0.087344	-0.193692
H94	H	-0.242671	-0.076720	-0.179505
F95	F	-0.953070	0.000281	0.276349
F96	F	-0.721188	-0.087372	0.319354
F97	F	-0.451382	0.000237	-0.225342
H98	H	-0.015674	0.000284	-0.203099
F99	F	-0.189044	0.000241	0.040370
H100	H	-0.933822	-0.430531	-0.095672
H101	H	-0.266331	0.077228	-0.003544
H102	H	-0.397755	0.077211	-0.005468
H103	H	-0.493322	0.000212	0.020048
F104	F	-0.693906	0.000216	0.091794
