data_functionalizedCrystal
_audit_creation_method	'MofGen! by Chris Wilmer'
_symmetry_space_group_name_H-M	'P1'
_symmetry_Int_Tables_number	1
_symmetry_cell_setting	triclinic
loop_
_symmetry_equiv_pos_as_xyz
  x,y,z
_cell_length_a	23.096457
_cell_length_b	18.760492
_cell_length_c	23.096457
_cell_angle_alpha	59.999445
_cell_angle_beta	89.999736
_cell_angle_gamma	59.998463
loop_
_atom_site_label
_atom_site_type_symbol
_atom_site_fract_x
_atom_site_fract_y
_atom_site_fract_z
Zr1	Zr	0.557740	0.780265	-0.076025
O2	O	0.465285	0.928976	-0.168476
O3	O	0.586086	0.631553	-0.047681
O4	O	0.586078	0.780265	-0.168476
O5	O	0.465295	0.780262	0.047600
O6	O	0.681359	0.780267	-0.168479
O7	O	0.465292	0.780263	-0.047681
O8	O	0.681372	0.514247	0.047600
O9	O	0.465282	1.046283	-0.168479
O10	O	0.669278	0.692722	-0.035599
O11	O	0.598173	0.692720	0.035511
O12	O	0.598164	0.867810	-0.106709
O13	O	0.527059	0.867809	-0.035599
Zr14	Zr	0.709705	0.780267	0.075932
Zr15	Zr	0.709701	0.780268	-0.076031
Zr16	Zr	0.557744	0.780264	0.075937
Zr17	Zr	0.557735	0.967356	-0.076031
Zr18	Zr	0.709711	0.593176	0.075937
O19	O	0.681360	0.928979	0.047588
O20	O	0.681354	0.928980	-0.168484
O21	O	0.465290	0.928975	0.047596
O22	O	0.802160	0.631556	0.168382
O23	O	0.802155	0.631557	-0.047689
O24	O	0.586091	0.631552	0.168390
O25	O	0.802150	0.780270	-0.047694
O26	O	0.681367	0.780266	0.168382
O27	O	0.586087	0.780264	0.168386
O28	O	0.802153	0.780269	0.047588
O29	O	0.586070	1.046285	-0.168484
O30	O	0.681375	0.514247	0.168390
O31	O	0.802164	0.514249	0.168386
O32	O	0.802161	0.514250	0.047596
O33	O	0.465285	1.046282	-0.047689
O34	O	0.586073	1.046285	-0.047694
O35	O	0.669281	0.692721	0.106616
O36	O	0.740386	0.692723	0.035506
O37	O	0.669272	0.867812	-0.035604
O38	O	0.598168	0.867810	0.035506
C39	C	0.633729	0.546243	-0.000040
C40	C	0.633732	0.466818	-0.000037
C41	C	0.596597	0.131023	0.037066
C42	C	0.670832	0.131029	-0.037174
C43	C	0.670837	0.205645	-0.037170
C44	C	0.633721	0.242954	-0.000048
C45	C	0.596600	0.205647	0.037069
C46	C	0.707952	0.242964	-0.074293
C47	C	0.707959	0.317585	-0.074291
C48	C	0.670846	0.354890	-0.037165
C49	C	0.633724	0.317578	-0.000045
C50	C	0.596608	0.354887	0.037077
C51	C	0.559489	0.317572	0.074201
C52	C	0.559487	0.242953	0.074196
C53	C	0.670848	0.429509	-0.037159
C54	C	0.596610	0.429512	0.037080
C55	C	0.443642	0.780262	-0.000040
C56	C	0.379131	0.780261	-0.000037
C57	C	0.385946	0.688869	0.037075
C58	C	0.325330	0.688867	0.037078
C59	C	0.257900	0.780263	-0.000045
C60	C	0.251088	0.871667	-0.037159
C61	C	0.311703	0.871666	-0.037155
N62	N	0.135101	0.848294	-0.060458
N63	N	0.077521	0.848289	-0.060460
C64	C	0.075267	0.780272	-0.000058
N65	N	0.132774	0.712245	0.060346
N66	N	0.190360	0.712248	0.060347
C67	C	0.192169	0.780274	-0.000053
C68	C	0.016359	0.688872	0.037061
C69	C	-0.044259	0.688875	0.037066
C70	C	-0.118502	0.871677	-0.037177
C71	C	-0.057884	0.871672	-0.037175
C72	C	0.009544	0.780267	-0.000058
C73	C	0.823803	0.780270	-0.000054
C74	C	0.888314	0.780271	-0.000056
C75	C	0.633718	0.780267	-0.190129
C76	C	0.633716	0.780267	-0.254641
C77	C	0.633716	1.014288	-0.000054
C78	C	0.633713	1.093714	-0.000056
C79	C	0.581233	0.780276	-0.715155
C80	C	0.581233	0.780269	-0.654536
C81	C	0.633723	0.780271	-0.624225
C82	C	0.686228	0.780254	-0.654528
C83	C	0.686231	0.780251	-0.715142
N84	N	0.649614	0.837344	-0.552234
N85	N	0.649606	0.837349	-0.494654
C86	C	0.633719	0.780278	-0.441599
N87	N	0.617825	0.723214	-0.448303
N88	N	0.617829	0.723214	-0.505890
C89	C	0.633726	0.780274	-0.558500
C90	C	0.581220	0.780280	-0.345570
C91	C	0.581225	0.780266	-0.284948
C92	C	0.686217	0.780262	-0.284946
C93	C	0.686215	0.780265	-0.345563
C94	C	0.633713	0.780279	-0.375874
C95	C	0.633727	0.780265	0.190035
C96	C	0.633729	0.780265	0.254548
C97	C	0.823810	0.546247	-0.000047
C98	C	0.888324	0.466824	-0.000047
C99	C	0.633734	0.546243	0.190042
C100	C	0.633738	0.466817	0.254557
C101	C	0.823814	0.546247	0.190036
C102	C	0.888330	0.466823	0.254548
C103	C	0.443631	1.014285	-0.190129
C104	C	0.379115	1.093709	-0.254641
C105	C	0.443635	1.014285	-0.000047
C106	C	0.379122	1.093708	-0.000047
C107	C	0.633711	1.014289	-0.190136
C108	C	0.633707	1.093714	-0.254650
C109	C	0.881502	0.429525	-0.037169
C110	C	0.942114	0.354908	-0.037183
C111	C	1.009546	0.317586	-0.000070
C112	C	1.016367	0.354893	0.037053
C113	C	0.955755	0.429513	0.037063
C114	C	0.670858	0.429519	0.321976
C115	C	0.670859	0.354901	0.382600
C116	C	0.633744	0.317578	0.375804
C117	C	0.596619	0.354883	0.308377
C118	C	0.596615	0.429505	0.247755
C119	C	0.955749	0.429525	0.247725
C120	C	1.016374	0.354908	0.308335
C121	C	1.009578	0.317585	0.375767
C122	C	0.942151	0.354890	0.382589
C123	C	0.881528	0.429511	0.321980
C124	C	0.311696	1.131016	-0.247818
C125	C	0.251071	1.205656	-0.308428
C126	C	0.257867	1.242983	-0.375861
C127	C	0.325294	1.205673	-0.382683
C128	C	0.385917	1.131040	-0.322073
C129	C	0.385943	1.131015	0.037069
C130	C	0.325331	1.205652	0.037067
C131	C	0.257899	1.242977	-0.000048
C132	C	0.251079	1.205667	-0.037169
C133	C	0.311690	1.131036	-0.037170
C134	C	0.670829	1.131014	-0.247831
C135	C	0.670840	1.205633	-0.308444
C136	C	0.633723	1.242955	-0.375875
C137	C	0.596600	1.205648	-0.382693
C138	C	0.596594	1.131026	-0.322081
H139	H	0.738167	0.212589	-0.104521
H140	H	0.936628	0.324490	0.437501
C141	C	1.090536	0.313854	0.300822
H142	H	1.125672	0.264068	0.346573
H143	H	1.095832	0.284741	0.275641
H144	H	1.095858	0.367425	0.275624
H145	H	0.728968	0.780254	-0.629845
H146	H	0.538483	0.780277	-0.629862
H147	H	1.058894	0.256825	-0.000083
H148	H	0.826634	0.459869	0.327545
C149	C	1.076266	0.235506	0.442434
H150	H	1.062567	0.218620	0.483575
H151	H	1.103691	0.177284	0.442434
H152	H	1.103677	0.259989	0.442424
C153	C	1.090543	0.313819	0.077888
H154	H	1.085932	0.346716	0.100001
H155	H	1.115721	0.243363	0.113004
H156	H	1.115734	0.326051	0.045848
C157	C	0.523498	0.780230	-0.378888
H158	H	0.492245	0.780205	-0.352147
H159	H	0.497555	0.838684	-0.426285
H160	H	0.545092	0.721739	-0.378768
C161	C	0.304206	1.089980	-0.173650
H162	H	0.255367	1.122907	-0.178277
H163	H	0.326305	1.019525	-0.148453
H164	H	0.326313	1.102219	-0.148468
C165	C	0.176911	1.246674	-0.300912
H166	H	0.181552	1.213737	-0.252070
H167	H	0.151715	1.317127	-0.323004
H168	H	0.151720	1.234441	-0.323015
H169	H	0.961296	0.459903	0.192823
C170	C	0.191177	1.325064	-0.442525
H171	H	0.150053	1.341922	-0.428797
H172	H	0.191158	1.383301	-0.469957
H173	H	0.191171	1.300592	-0.469941
H174	H	0.936547	0.324542	-0.067413
H175	H	0.330819	1.236075	-0.437593
C176	C	0.807333	0.470571	-0.077997
H177	H	0.772205	0.520351	-0.072676
H178	H	0.802015	0.499689	-0.126831
H179	H	0.802019	0.416991	-0.059665
H180	H	0.961320	0.459872	0.067296
H181	H	0.701069	1.236001	-0.302879
C182	C	0.743943	0.780297	-0.251625
H183	H	0.736417	0.780315	-0.211192
H184	H	0.789267	0.721838	-0.237809
H185	H	0.741745	0.838783	-0.285319
C186	C	0.711677	0.470574	0.329466
H187	H	0.733772	0.437676	0.378305
H188	H	0.746806	0.458348	0.307368
H189	H	0.679624	0.541034	0.307359
H190	H	-0.038704	0.614450	0.067292
H191	H	0.440811	1.100665	-0.327637
C192	C	0.460111	1.089971	0.077899
H193	H	0.455483	1.122894	0.099996
H194	H	0.485303	1.019516	0.113029
H195	H	0.485299	1.102205	0.045857
H196	H	0.330898	1.236017	0.067297
H197	H	0.701092	0.324536	0.437495
C198	C	0.191233	1.325066	-0.000039
H199	H	0.204960	1.341927	0.027389
H200	H	0.163805	1.383298	-0.047327
H201	H	0.163813	1.300603	0.019844
C202	C	0.633759	0.235489	0.442492
H203	H	0.661190	0.218619	0.483616
H204	H	0.586472	0.259939	0.442506
H205	H	0.653642	0.177253	0.442504
C206	C	0.555789	0.470520	0.173596
H207	H	0.561094	0.520312	0.138459
H208	H	0.574124	0.416933	0.168294
H209	H	0.506952	0.499635	0.168282
C210	C	0.090529	0.588334	0.077901
H211	H	0.085904	0.533902	0.100015
H212	H	0.115725	0.584524	0.045869
H213	H	0.115711	0.584543	0.113028
C214	C	0.176901	1.246723	-0.077986
H215	H	0.141786	1.296504	-0.072658
H216	H	0.171568	1.275841	-0.126822
H217	H	0.171582	1.193146	-0.059644
H218	H	0.330879	0.614443	0.067299
C219	C	0.523472	0.780292	-0.251623
H220	H	0.530992	0.780284	-0.211179
H221	H	0.478162	0.838770	-0.285309
H222	H	0.525642	0.721825	-0.237809
H223	H	0.306126	1.100663	-0.067392
C224	C	0.711664	1.089969	-0.173665
H225	H	0.733777	1.122872	-0.178295
H226	H	0.679630	1.102202	-0.148472
H227	H	0.746792	1.019509	-0.148478
C228	C	0.555806	0.313810	0.300911
H229	H	0.561138	0.264017	0.346674
H230	H	0.506968	0.367367	0.275726
H231	H	0.574148	0.284679	0.275734
C232	C	0.633728	1.325046	-0.442541
H233	H	0.661149	1.341917	-0.428816
H234	H	0.653601	1.300597	-0.469969
H235	H	0.586434	1.383281	-0.469961
H236	H	0.728960	0.780262	-0.370236
H237	H	0.566362	1.100665	-0.327643
C238	C	0.555780	0.470548	0.077914
H239	H	0.533671	0.437641	0.100017
H240	H	0.587818	0.458317	0.113038
H241	H	0.520649	0.541008	0.045871
C242	C	0.518660	0.358616	0.115032
H243	H	0.496549	0.325714	0.137138
H244	H	0.550700	0.346388	0.150153
H245	H	0.483531	0.429076	0.082985
C246	C	0.555768	1.246718	-0.456868
H247	H	0.561085	1.296511	-0.491984
H248	H	0.574088	1.193159	-0.462200
H249	H	0.506930	1.275848	-0.462187
H250	H	0.701047	0.100655	-0.067402
H251	H	0.440844	0.614440	0.067294
H252	H	0.529268	0.212563	0.104421
H253	H	0.566379	0.100634	0.067294
H254	H	0.701065	0.459893	-0.067389
C255	C	0.748793	0.358617	-0.115119
H256	H	0.770901	0.325704	-0.137223
H257	H	0.716760	0.429074	-0.150241
H258	H	0.783926	0.346365	-0.083071
H259	H	0.306149	0.946090	-0.067374
C260	C	0.176919	0.972199	-0.077994
H261	H	0.141794	0.959111	-0.072688
H262	H	0.171596	1.009754	-0.059665
H263	H	0.171605	1.009750	-0.126830
H264	H	-0.173403	0.946093	-0.067404
C265	C	-0.065375	0.972201	-0.077825
H266	H	-0.019618	0.959111	-0.072448
H267	H	-0.090575	1.009958	-0.126686
H268	H	-0.090547	1.009550	-0.059355
C269	C	0.523490	0.780279	-0.748491
H270	H	0.531005	0.780283	-0.788933
H271	H	0.525664	0.721814	-0.714810
H272	H	0.478172	0.838759	-0.762310
C273	C	0.743975	0.780248	-0.748474
H274	H	0.775236	0.780253	-0.721745
H275	H	0.769903	0.721782	-0.748377
H276	H	0.722406	0.838727	-0.795868
