data_functionalizedCrystal
_audit_creation_method	'MofGen! by Chris Wilmer'
_symmetry_space_group_name_H-M	'P1'
_symmetry_Int_Tables_number	1
_symmetry_cell_setting	triclinic
loop_
_symmetry_equiv_pos_as_xyz
  x,y,z
_cell_length_a	9.065218
_cell_length_b	9.065215
_cell_length_c	9.130313
_cell_angle_alpha	89.996437
_cell_angle_beta	89.996409
_cell_angle_gamma	85.015291
loop_
_atom_site_label
_atom_site_type_symbol
_atom_site_fract_x
_atom_site_fract_y
_atom_site_fract_z
O1	O	1.960397	0.216357	-0.121800
O2	O	1.531112	0.234103	-0.121802
O3	O	1.754630	0.010587	-0.121794
O4	O	1.736879	0.439873	-0.121807
O5	O	1.754615	0.010581	0.121804
O6	O	1.531097	0.234097	0.121797
O7	O	1.960382	0.216350	0.121799
Cu8	Cu	1.745738	0.225223	0.144041
Cu9	Cu	1.745756	0.225231	-0.144043
O10	O	1.736864	0.439866	0.121792
C11	C	1.476118	0.232394	-0.000002
C12	C	1.312275	0.227295	-0.000003
C13	C	1.752917	-0.044403	0.000003
C14	C	1.747819	-0.208246	-0.000001
C15	C	2.015376	0.218059	-0.000003
C16	C	2.179219	0.223159	-0.000012
C17	C	1.738576	0.494856	-0.000009
C18	C	1.743674	0.658699	-0.000014
N19	N	1.745736	0.225216	0.346663
N20	N	1.745770	0.225225	-0.346666
C21	C	1.844743	0.126286	0.423318
C22	C	1.844758	0.126286	0.576655
C23	C	1.646751	0.324161	0.576668
C24	C	1.646731	0.324152	0.423334
H25	H	1.925377	0.045726	0.639063
H26	H	1.566146	0.404714	0.639109
H27	H	1.925357	0.045725	0.360896
H28	H	1.566100	0.404714	0.360918
