data_functionalizedCrystal
_audit_creation_method	'MofGen! by Chris Wilmer'
_symmetry_space_group_name_H-M	'P1'
_symmetry_Int_Tables_number	1
_symmetry_cell_setting	triclinic
loop_
_symmetry_equiv_pos_as_xyz
  x,y,z
_cell_length_a	10.654549
_cell_length_b	27.732048
_cell_length_c	9.130313
_cell_angle_alpha	89.990549
_cell_angle_beta	89.997498
_cell_angle_gamma	83.563716
loop_
_atom_site_label
_atom_site_type_symbol
_atom_site_fract_x
_atom_site_fract_y
_atom_site_fract_z
O1	O	1.664986	0.067885	-0.121783
O2	O	1.299236	0.074353	-0.121795
O3	O	1.493470	0.000793	-0.121761
O4	O	1.470751	0.141445	-0.121818
O5	O	1.493457	0.000791	0.121838
O6	O	1.299222	0.074351	0.121803
O7	O	1.664973	0.067883	0.121815
Cu8	Cu	1.482096	0.071117	0.144052
Cu9	Cu	1.482112	0.071119	-0.144032
O10	O	1.470738	0.141443	0.121781
C11	C	1.252451	0.073877	0.000003
C12	C	1.113067	0.072456	-0.000000
C13	C	0.900788	0.114429	-0.000011
C14	C	1.031753	0.115767	-0.000021
C15	C	1.063412	0.027804	0.000014
C16	C	0.932450	0.026466	0.000013
C17	C	1.492987	-0.017218	0.000042
C18	C	1.491551	-0.070882	0.000054
C19	C	1.597290	-0.409038	-0.000017
C20	C	1.591962	-0.610731	-0.000038
O21	O	1.688653	-0.641385	-0.000099
N22	N	1.476789	-0.630572	-0.000040
C23	C	1.362940	-0.599986	-0.000047
O24	O	1.264856	-0.621490	-0.000065
C25	C	1.368269	-0.398295	-0.000037
C26	C	1.483450	-0.378457	-0.000020
C27	C	1.712461	-0.389200	-0.000002
C28	C	1.713792	-0.338780	0.000011
C29	C	1.599952	-0.308198	0.000009
C30	C	1.484780	-0.328036	-0.000007
C31	C	1.254421	-0.367710	-0.000055
C32	C	1.255764	-0.317284	-0.000056
C33	C	1.370944	-0.297446	-0.000038
C34	C	1.372271	-0.247034	0.000004
N35	N	1.487444	-0.227193	0.000006
C36	C	1.601284	-0.257775	0.000009
C37	C	1.360150	-0.705878	-0.000050
C38	C	1.358817	-0.756301	-0.000050
C39	C	1.587840	-0.767042	-0.000043
C40	C	1.589171	-0.716618	-0.000033
C41	C	1.475323	-0.686037	-0.000047
C42	C	1.604070	-0.151889	0.000038
C43	C	1.605391	-0.101464	0.000057
C44	C	1.376369	-0.090727	0.000043
C45	C	1.375048	-0.141147	0.000031
C46	C	1.488909	-0.171728	0.000024
O47	O	1.275631	-0.216352	0.000048
O48	O	1.699354	-0.236262	-0.000006
C49	C	1.595959	-0.459459	-0.000031
C50	C	1.480788	-0.479297	-0.000046
C51	C	1.366948	-0.448715	-0.000049
C52	C	1.479455	-0.529720	-0.000046
C53	C	1.593296	-0.560302	-0.000044
C54	C	1.708469	-0.540461	-0.000041
C55	C	1.709800	-0.490040	-0.000028
C56	C	1.251775	-0.468556	-0.000051
C57	C	1.250453	-0.518977	-0.000063
C58	C	1.364294	-0.549559	-0.000060
C59	C	1.711757	0.068359	0.000014
C60	C	1.851141	0.069780	0.000008
C61	C	1.471222	0.159454	-0.000025
C62	C	1.472658	0.213118	-0.000047
N63	N	1.482095	0.071115	0.346675
N64	N	1.482124	0.071117	-0.346655
C65	C	1.568130	0.038556	0.423342
C66	C	1.568142	0.038556	0.576678
C67	C	1.396079	0.103678	0.576668
C68	C	1.396062	0.103675	0.423334
H69	H	0.892028	-0.009895	0.000024
Cl70	Cl	1.287934	0.144610	0.673046
H71	H	1.638181	0.012043	0.360929
Cl72	Cl	1.165637	-0.026645	0.000036
H73	H	1.283683	-0.065818	0.000046
H74	H	1.325996	0.130188	0.360907
H75	H	1.699189	-0.085315	0.000075
H76	H	1.696787	-0.176782	0.000026
Cl77	Cl	1.858599	-0.313848	-0.000009
Cl78	Cl	1.214013	-0.781233	-0.000043
Cl79	Cl	1.854606	-0.465109	-0.000019
Cl80	Cl	1.855596	-0.427637	0.000004
H81	H	1.072168	0.152125	-0.000037
H82	H	1.156652	-0.535124	-0.000064
Cl83	Cl	0.798576	0.168880	-0.000025
Cl84	Cl	1.733975	-0.691685	-0.000013
Cl85	Cl	1.109613	-0.392636	-0.000086
Cl86	Cl	1.217010	-0.667439	-0.000066
H87	H	1.680533	-0.791950	-0.000040
H88	H	1.638198	0.012044	0.639097
H89	H	1.163052	-0.292387	-0.000070
H90	H	1.281258	-0.157300	0.000058
Cl91	Cl	1.851581	-0.578916	-0.000031
H92	H	1.159070	-0.443661	-0.000056
