data_functionalizedCrystal
_audit_creation_method	'MofGen! by Chris Wilmer'
_symmetry_space_group_name_H-M	'P1'
_symmetry_Int_Tables_number	1
_symmetry_cell_setting	triclinic
loop_
_symmetry_equiv_pos_as_xyz
  x,y,z
_cell_length_a	12.594516
_cell_length_b	16.625548
_cell_length_c	16.625539
_cell_angle_alpha	90.020568
_cell_angle_beta	89.976673
_cell_angle_gamma	89.982879
loop_
_atom_site_label
_atom_site_type_symbol
_atom_site_fract_x
_atom_site_fract_y
_atom_site_fract_z
Zn1	Zn	-0.423710	-1.232716	-0.455937
Zn2	Zn	0.076290	-0.732716	0.044063
Zn3	Zn	-0.601711	-1.232635	-0.321116
Zn4	Zn	-0.101711	-0.732635	0.178884
Zn5	Zn	-0.423750	-1.097878	-0.321118
Zn6	Zn	0.076250	-0.597878	0.178882
Zn7	Zn	-0.601650	-1.097864	-0.455906
Zn8	Zn	-0.101650	-0.597864	0.044094
O9	O	-0.512705	-1.165273	-0.388519
O10	O	-0.012705	-0.665273	0.111481
O11	O	-0.447331	-1.345538	-0.438065
O12	O	0.052669	-0.845538	0.061935
O13	O	-0.578147	-1.214731	-0.208284
O14	O	-0.078147	-0.714731	0.291716
O15	O	-0.274799	-1.115805	-0.339016
O16	O	0.225201	-0.615805	0.160984
O17	O	-0.578108	-1.345478	-0.339013
O18	O	-0.078108	-0.845478	0.160987
O19	O	-0.274769	-1.214870	-0.438067
O20	O	0.225231	-0.714870	0.061933
O21	O	-0.447400	-1.115726	-0.208285
O22	O	0.052600	-0.615726	0.291715
O23	O	-0.447341	-0.985044	-0.338985
O24	O	0.052659	-0.485044	0.161015
O25	O	-0.578003	-1.115780	-0.568743
O26	O	-0.078003	-0.615780	-0.068743
O27	O	-0.578043	-0.985033	-0.438014
O28	O	-0.078043	-0.485033	0.061986
O29	O	-0.447271	-1.214856	-0.568766
O30	O	0.052729	-0.714856	-0.068766
O31	O	-0.750649	-1.214717	-0.338983
O32	O	-0.250649	-0.714717	0.161017
O33	O	-0.750604	-1.115701	-0.438012
O34	O	-0.250604	-0.615701	0.061988
C35	C	-0.512690	-0.955782	-0.388497
C36	C	-0.012690	-0.455782	0.111503
C37	C	-0.512709	-0.866161	-0.388506
C38	C	-0.012709	-0.366161	0.111494
C39	C	-0.789246	-1.165220	-0.388511
C40	C	-0.289246	-0.665220	0.111489
C41	C	-0.907552	-1.165272	-0.388535
C42	C	-0.407552	-0.665272	0.111465
C43	C	-0.512626	-1.165326	-0.598828
C44	C	-0.012626	-0.665326	-0.098828
C45	C	-0.512592	-1.165348	-0.688449
C46	C	-0.012592	-0.665348	-0.188449
C47	C	-0.976819	-1.111412	-0.442359
C48	C	-0.476819	-0.611412	0.057641
C49	C	-1.047680	-1.091767	-0.368785
C50	C	-0.547680	-0.591767	0.131215
C51	C	-1.047490	-1.184990	-0.462122
C52	C	-0.547490	-0.684990	0.037878
C53	C	-0.976855	-1.145588	-0.314921
C54	C	-0.476855	-0.645588	0.185079
C55	C	-0.976658	-1.238845	-0.408308
C56	C	-0.476658	-0.738845	0.091692
C57	C	-1.047487	-1.219228	-0.334683
C58	C	-0.547487	-0.719228	0.165317
C59	C	-0.235085	-1.165348	-0.388545
C60	C	0.264915	-0.665348	0.111455
C61	C	-0.116779	-1.165380	-0.388556
C62	C	0.383221	-0.665380	0.111444
C63	C	-0.512721	-1.375582	-0.388542
C64	C	-0.012721	-0.875582	0.111458
C65	C	-0.512728	-1.465203	-0.388552
C66	C	-0.012728	-0.965203	0.111448
C67	C	-0.512716	-0.537986	-0.388541
C68	C	-0.012716	-0.037986	0.111459
C69	C	-0.512711	-0.629294	-0.388529
C70	C	-0.012711	-0.129294	0.111471
C71	C	-0.512713	-0.702071	-0.388523
C72	C	-0.012713	-0.202071	0.111477
C73	C	-0.512707	-0.793385	-0.388512
C74	C	-0.012707	-0.293385	0.111488
C75	C	-0.512473	-1.165385	-1.016625
C76	C	-0.012473	-0.665385	-0.516625
C77	C	-0.512510	-1.165373	-0.925317
C78	C	-0.012510	-0.665373	-0.425317
C79	C	-0.512534	-1.165367	-0.852540
C80	C	-0.012534	-0.665367	-0.352540
C81	C	-0.512568	-1.165354	-0.761226
C82	C	-0.012568	-0.665354	-0.261226
C83	C	-0.512708	-1.165267	-0.179028
C84	C	-0.012708	-0.665267	0.320972
C85	C	-0.512442	-1.165401	-0.089408
C86	C	-0.012442	-0.665401	0.410592
H87	H	-0.945789	-1.065783	-0.487811
H88	H	-0.445789	-0.565783	0.012189
H89	H	-1.078321	-1.264822	-0.289122
H90	H	-0.578321	-0.764822	0.210878
H91	H	-1.078517	-1.201624	-0.524346
H92	H	-0.578517	-0.701624	-0.024346
C93	C	-1.089825	-1.007775	-0.346196
C94	C	-0.589825	-0.507775	0.153804
N95	N	-1.121566	-0.944510	-0.329188
N96	N	-0.621566	-0.444510	0.170812
C97	C	-0.935115	-1.123014	-0.230838
C98	C	-0.435115	-0.623014	0.269162
N99	N	-0.903674	-1.106009	-0.167508
N100	N	-0.403674	-0.606009	0.332492
C101	C	-0.934463	-1.322807	-0.430935
C102	C	-0.434463	-0.822807	0.069065
N103	N	-0.902674	-1.386046	-0.447988
N104	N	-0.402674	-0.886046	0.052012
