data_functionalizedCrystal
_audit_creation_method	'MofGen! by Chris Wilmer'
_symmetry_space_group_name_H-M	'P1'
_symmetry_Int_Tables_number	1
_symmetry_cell_setting	triclinic
loop_
_symmetry_equiv_pos_as_xyz
  x,y,z
_cell_length_a	11.169417
_cell_length_b	29.839131
_cell_length_c	11.169409
_cell_angle_alpha	90.047774
_cell_angle_beta	90.019824
_cell_angle_gamma	90.036108
loop_
_atom_site_label
_atom_site_type_symbol
_atom_site_fract_x
_atom_site_fract_y
_atom_site_fract_z
Zn1	Zn	1.834755	-0.178806	0.678414
Zn2	Zn	1.834557	-0.253948	0.477677
Zn3	Zn	1.634041	-0.178834	0.477748
Zn4	Zn	1.633961	-0.253911	0.678322
O5	O	1.734328	-0.216375	0.578040
O6	O	2.002678	-0.188778	0.651794
O7	O	1.807909	-0.244011	0.309736
O8	O	1.660782	-0.115963	0.504436
O9	O	2.002533	-0.243984	0.504314
O10	O	1.808246	-0.115943	0.651864
O11	O	1.660590	-0.188825	0.309789
O12	O	1.466080	-0.188789	0.504346
O13	O	1.660646	-0.243922	0.846284
O14	O	1.466022	-0.243948	0.651707
O15	O	1.808168	-0.188742	0.846352
O16	O	1.807831	-0.316810	0.504224
O17	O	1.660454	-0.316783	0.651637
C18	C	1.422504	-0.216368	0.578025
C19	C	1.289104	-0.216376	0.578047
C20	C	1.734145	-0.333097	0.577939
C21	C	1.734177	-0.383032	0.577936
C22	C	1.811096	-0.692630	0.654915
C23	C	1.811226	-0.880303	0.654988
O24	O	1.876446	-0.904529	0.720363
N25	N	1.734532	-0.903817	0.578173
C26	C	1.657794	-0.880410	0.501341
O27	O	1.592556	-0.904716	0.436016
C28	C	1.657659	-0.692738	0.501276
C29	C	1.734367	-0.669226	0.578087
C30	C	1.887797	-0.669118	0.731721
C31	C	1.887768	-0.622203	0.731697
C32	C	1.811039	-0.598799	0.654869
C33	C	1.734338	-0.622311	0.578063
C34	C	1.580916	-0.669331	0.424451
C35	C	1.580887	-0.622410	0.424444
C36	C	1.657595	-0.598899	0.501254
C37	C	1.657580	-0.551991	0.501211
N38	N	1.734274	-0.528477	0.578025
C39	C	1.811003	-0.551881	0.654854
C40	C	1.657873	-0.978940	0.501379
C41	C	1.657908	-1.025858	0.501394
C42	C	1.811338	-1.025748	0.655042
C43	C	1.811308	-0.978829	0.655020
C44	C	1.734567	-0.955426	0.578193
C45	C	1.810938	-0.453355	0.654798
C46	C	1.810906	-0.406436	0.654765
C47	C	1.657472	-0.406550	0.501121
C48	C	1.657507	-0.453465	0.501150
C49	C	1.734245	-0.476867	0.577998
O50	O	1.592385	-0.527736	0.435879
O51	O	1.876214	-0.527567	0.720188
C52	C	1.811125	-0.739545	0.654939
C53	C	1.734424	-0.763057	0.578134
C54	C	1.657695	-0.739653	0.501305
C55	C	1.734459	-0.809975	0.578148
C56	C	1.811189	-0.833379	0.654977
C57	C	1.887883	-0.809865	0.731791
C58	C	1.887854	-0.762949	0.731768
C59	C	1.581001	-0.763167	0.424491
C60	C	1.581037	-0.810083	0.424519
C61	C	1.657766	-0.833486	0.501348
C62	C	2.047371	-0.216382	0.578056
C63	C	2.180771	-0.216385	0.578063
C64	C	1.734421	-0.216325	0.891083
C65	C	1.734460	-0.216304	1.024483
C66	C	1.734545	-0.099196	0.578168
C67	C	1.734637	-0.049262	0.578222
C68	C	1.734306	-0.216392	0.266215
C69	C	1.734499	-0.216287	0.132816
H70	H	1.873375	-0.387294	0.717313
H71	H	1.518517	-0.744115	0.361929
H72	H	1.518453	-0.688466	0.361903
H73	H	1.873816	-1.044811	0.717598
C74	C	1.895354	-0.479093	0.739324
C75	C	2.031790	-0.472595	0.729631
C76	C	2.116212	-0.498333	0.814148
C77	C	2.064198	-0.530568	0.908359
C78	C	1.927755	-0.537066	0.918056
C79	C	1.843333	-0.511329	0.833539
H80	H	2.070301	-0.448732	0.659887
H81	H	2.217217	-0.493522	0.806969
H82	H	2.126692	-0.549620	0.970924
H83	H	1.889245	-0.560930	0.987800
H84	H	1.742329	-0.516140	0.840717
C85	C	1.573146	-0.479333	0.416649
C86	C	1.583014	-0.472933	0.280216
C87	C	1.498647	-0.498798	0.195720
C88	C	1.404411	-0.531063	0.247657
C89	C	1.394539	-0.537464	0.384097
C90	C	1.478907	-0.511600	0.468593
H91	H	1.652777	-0.449047	0.241762
H92	H	1.505955	-0.494059	0.094718
H93	H	1.341957	-0.550210	0.185109
H94	H	1.324776	-0.561350	0.422551
H95	H	1.471598	-0.516339	0.569595
H96	H	1.873770	-0.959689	0.717567
C97	C	1.972214	-0.694856	0.816237
C98	C	2.108648	-0.688353	0.806540
C99	C	2.193081	-0.714087	0.891055
C100	C	2.141080	-0.746324	0.985265
C101	C	2.004639	-0.752830	0.994966
C102	C	1.920206	-0.727096	0.910452
H103	H	2.147148	-0.664487	0.736796
H104	H	2.294083	-0.709271	0.883873
H105	H	2.203582	-0.765374	1.047828
H106	H	1.966139	-0.776695	1.064710
H107	H	1.819204	-0.731912	0.917633
H108	H	1.950226	-0.603062	0.794246
C109	C	1.573536	-1.051717	0.416892
C110	C	1.583389	-1.045308	0.280461
C111	C	1.499007	-1.071165	0.195963
C112	C	1.404771	-1.103431	0.247895
C113	C	1.394914	-1.109842	0.384333
C114	C	1.479296	-1.083985	0.468831
H115	H	1.653151	-1.021421	0.242012
H116	H	1.506304	-1.066419	0.094962
H117	H	1.342307	-1.122572	0.185344
H118	H	1.325152	-1.133729	0.422782
H119	H	1.471999	-1.088731	0.569832
H120	H	1.595379	-0.959889	0.438814
H121	H	1.518391	-0.603358	0.361883
C122	C	1.573065	-0.380799	0.416622
C123	C	1.625088	-0.348556	0.322436
C124	C	1.540672	-0.322802	0.237947
C125	C	1.404234	-0.329292	0.247644
C126	C	1.352204	-0.361536	0.341835
C127	C	1.436620	-0.387289	0.426324
H128	H	1.726094	-0.343751	0.315254
H129	H	1.579189	-0.298933	0.168221
H130	H	1.341745	-0.310228	0.185100
H131	H	1.251198	-0.366341	0.349017
H132	H	1.398103	-0.411159	0.496050
H133	H	1.950316	-0.743809	0.794314
C134	C	1.972284	-0.835615	0.816307
C135	C	2.066547	-0.867862	0.764395
C136	C	2.150937	-0.893615	0.848911
C137	C	2.141063	-0.887120	0.985339
C138	C	2.046795	-0.854872	1.037258
C139	C	1.962406	-0.829119	0.952742
H140	H	2.073860	-0.872671	0.663397
H141	H	2.220720	-0.917488	0.810477
H142	H	2.203533	-0.906184	1.047903
H143	H	2.039482	-0.850063	1.138256
H144	H	1.892623	-0.805246	0.991176
H145	H	1.518574	-0.829222	0.361960
