data_functionalizedCrystal
_audit_creation_method	'MofGen! by Chris Wilmer'
_symmetry_space_group_name_H-M	'P1'
_symmetry_Int_Tables_number	1
_symmetry_cell_setting	triclinic
loop_
_symmetry_equiv_pos_as_xyz
  x,y,z
_cell_length_a	27.780882
_cell_length_b	27.780884
_cell_length_c	27.780936
_cell_angle_alpha	90.002203
_cell_angle_beta	120.002161
_cell_angle_gamma	60.000211
loop_
_atom_site_label
_atom_site_type_symbol
_atom_site_fract_x
_atom_site_fract_y
_atom_site_fract_z
O1	O	-0.424593	-0.330212	-0.014321
O2	O	-0.326023	-0.260214	0.014251
O3	O	-0.424589	-0.260213	-0.084318
O4	O	-0.326027	-0.330212	0.084247
O5	O	-0.344530	-0.340273	-0.084318
O6	O	-0.245963	-0.340273	0.014251
O7	O	-0.344533	-0.410272	-0.014321
Cu8	Cu	-0.287938	-0.382583	-0.000035
Cu9	Cu	-0.382618	-0.287903	-0.000035
O10	O	-0.245967	-0.410272	0.084248
C11	C	-0.177734	-0.120429	0.029862
C12	C	-0.211527	-0.056934	0.025772
C13	C	-0.119397	-0.149664	0.030267
C14	C	-0.177731	-0.207597	0.029867
C15	C	-0.211520	-0.237302	0.025783
C16	C	-0.119394	-0.236699	0.030273
C17	C	-0.090568	-0.207595	0.029862
C18	C	-0.031163	-0.237298	0.025772
C19	C	-0.206428	-0.149666	0.030273
C20	C	0.016830	-0.261295	0.022466
C21	C	-0.238829	-0.005636	0.022467
C22	C	-0.238819	-0.261301	0.022482
C23	C	0.077040	-0.291400	0.018321
C24	C	-0.273080	0.058720	0.018322
C25	C	-0.273066	-0.291408	0.018343
C26	C	-0.492829	-0.207602	-0.372394
C27	C	-0.459038	-0.237306	-0.402098
C28	C	-0.551167	-0.149672	-0.401496
C29	C	-0.492829	-0.207602	-0.285228
C30	C	-0.459037	-0.237306	-0.221733
C31	C	-0.551167	-0.149672	-0.314463
C32	C	-0.579994	-0.120437	-0.372393
C33	C	-0.639401	-0.056942	-0.402096
C34	C	-0.464133	-0.236705	-0.314463
C35	C	-0.687395	-0.005645	-0.426092
C36	C	-0.431737	-0.261302	-0.426095
C37	C	-0.431737	-0.261303	-0.170435
C38	C	-0.747606	0.058710	-0.456197
C39	C	-0.397488	-0.291408	-0.456201
C40	C	-0.397487	-0.291408	-0.106080
C41	C	-0.492839	-0.462880	-0.029960
C42	C	-0.459046	-0.433177	-0.025869
C43	C	-0.551179	-0.433776	-0.030369
C44	C	-0.492843	-0.550045	-0.029964
C45	C	-0.459052	-0.613539	-0.025878
C46	C	-0.551182	-0.520809	-0.030373
C47	C	-0.580009	-0.462878	-0.029964
C48	C	-0.639417	-0.433174	-0.025878
C49	C	-0.464145	-0.520810	-0.030368
C50	C	-0.687412	-0.409177	-0.022576
C51	C	-0.431743	-0.409181	-0.022562
C52	C	-0.431752	-0.664836	-0.022575
C53	C	-0.747625	-0.379070	-0.018434
C54	C	-0.397491	-0.379076	-0.018415
C55	C	-0.397504	-0.729191	-0.018432
O56	O	0.234706	-0.410266	-0.014340
O57	O	0.094710	-0.340265	0.014229
O58	O	0.094703	-0.340270	-0.084338
O59	O	0.234713	-0.410261	0.084228
O60	O	0.094701	-0.260209	-0.084343
O61	O	0.094707	-0.260204	0.014225
O62	O	0.234704	-0.330205	-0.014344
Cu63	Cu	0.164705	-0.287894	-0.000060
Cu64	Cu	0.164708	-0.382576	-0.000055
O65	O	0.234710	-0.330200	0.084223
O66	O	-0.344549	0.249048	-0.014343
O67	O	-0.245980	0.080483	0.014226
O68	O	-0.344550	0.179043	-0.084341
O69	O	-0.245978	0.150489	0.084225
O70	O	-0.424607	0.179040	-0.084336
O71	O	-0.326036	0.080481	0.014231
O72	O	-0.424605	0.249046	-0.014337
Cu73	Cu	-0.382630	0.164763	-0.000053
Cu74	Cu	-0.287954	0.164766	-0.000059
O75	O	-0.326034	0.150486	0.084230
O76	O	-0.905273	0.249035	-0.494995
O77	O	-0.765274	0.080471	-0.425001
O78	O	-0.765270	0.179034	-0.424994
O79	O	-0.905277	0.150472	-0.495002
O80	O	-0.765272	0.179036	-0.505055
O81	O	-0.765276	0.080473	-0.505062
O82	O	-0.905275	0.249037	-0.575056
Cu83	Cu	-0.835276	0.164755	-0.547369
Cu84	Cu	-0.835273	0.164753	-0.452688
O85	O	-0.905279	0.150475	-0.575063
O86	O	-0.326022	-0.330217	-0.575063
O87	O	-0.424589	-0.260214	-0.505065
O88	O	-0.326021	-0.260216	-0.505059
O89	O	-0.424590	-0.330215	-0.575069
O90	O	-0.245962	-0.340274	-0.425000
O91	O	-0.344531	-0.340272	-0.425006
O92	O	-0.245963	-0.410275	-0.495003
Cu93	Cu	-0.287937	-0.382584	-0.452694
Cu94	Cu	-0.382615	-0.287905	-0.547374
O95	O	-0.344532	-0.410273	-0.495009
C96	C	-0.090560	-0.550051	0.372323
C97	C	-0.031153	-0.613545	0.402025
C98	C	-0.119387	-0.520816	0.401426
C99	C	-0.177726	-0.462884	0.285158
C100	C	-0.211518	-0.433180	0.221663
C101	C	-0.206421	-0.433782	0.314394
C102	C	-0.177725	-0.462885	0.372324
C103	C	-0.211516	-0.433182	0.402029
C104	C	-0.119388	-0.520815	0.314392
C105	C	-0.238816	-0.409186	0.426026
C106	C	0.016840	-0.664843	0.426021
C107	C	-0.238819	-0.409183	0.170365
C108	C	-0.273065	-0.379081	0.456133
C109	C	0.077051	-0.729197	0.456125
C110	C	-0.273069	-0.379077	0.106010
C111	C	-0.177761	-0.120444	-0.372420
C112	C	-0.211555	-0.056950	-0.402125
C113	C	-0.206457	-0.149681	-0.401521
C114	C	-0.090590	-0.207607	-0.285252
C115	C	-0.031180	-0.237308	-0.221756
C116	C	-0.119419	-0.236712	-0.314485
C117	C	-0.177759	-0.207612	-0.372416
C118	C	-0.211551	-0.237317	-0.402117
C119	C	-0.119420	-0.149677	-0.314489
C120	C	-0.238852	-0.261316	-0.426113
C121	C	-0.238857	-0.005653	-0.426124
C122	C	0.016817	-0.261303	-0.170458
C123	C	-0.273102	-0.291423	-0.456216
C124	C	-0.273109	0.058701	-0.456232
C125	C	0.077031	-0.291405	-0.106103
C126	C	0.507174	-0.462861	0.372301
C127	C	0.540966	-0.433156	0.402003
C128	C	0.535871	-0.520791	0.401406
C129	C	0.420004	-0.462864	0.285137
C130	C	0.360593	-0.433163	0.221641
C131	C	0.448833	-0.520794	0.314373
C132	C	0.507174	-0.550027	0.372304
C133	C	0.540967	-0.613522	0.402009
C134	C	0.448833	-0.433760	0.314370
C135	C	0.568270	-0.664819	0.426008
C136	C	0.568267	-0.409158	0.425999
C137	C	0.312597	-0.409168	0.170343
C138	C	0.602521	-0.729173	0.456115
C139	C	0.602518	-0.379050	0.456103
C140	C	0.252382	-0.379065	0.105988
C141	C	-0.580005	0.194620	-0.372405
C142	C	-0.639410	0.190526	-0.402104
C143	C	-0.551178	0.195024	-0.401510
C144	C	-0.492844	0.194636	-0.285244
C145	C	-0.459054	0.190559	-0.221751
C146	C	-0.464149	0.195039	-0.314481
C147	C	-0.492843	0.194622	-0.372410
C148	C	-0.459052	0.190530	-0.402115
C149	C	-0.551179	0.195037	-0.314476
C150	C	-0.431752	0.187223	-0.426113
C151	C	-0.687401	0.187217	-0.426097
C152	C	-0.431754	0.187264	-0.170455
C153	C	-0.397503	0.183075	-0.456220
C154	C	-0.747610	0.183067	-0.456199
C155	C	-0.397506	0.183131	-0.106101
O156	O	-0.424649	0.249028	-0.575092
O157	O	-0.326070	0.080462	-0.505095
O158	O	-0.424629	0.179018	-0.505082
O159	O	-0.326090	0.150471	-0.575105
O160	O	-0.344563	0.179021	-0.425026
O161	O	-0.246004	0.080465	-0.425039
O162	O	-0.344583	0.249030	-0.495036
Cu163	Cu	-0.287983	0.164748	-0.452728
Cu164	Cu	-0.382670	0.164745	-0.547403
O165	O	-0.246024	0.150474	-0.495049
C166	C	-0.177741	0.134906	0.372299
C167	C	-0.211532	0.138998	0.402004
C168	C	-0.119406	0.134505	0.401398
C169	C	-0.177741	0.134893	0.285133
C170	C	-0.211531	0.138970	0.221639
C171	C	-0.119406	0.134492	0.314364
C172	C	-0.090579	0.134909	0.372293
C173	C	-0.031176	0.139004	0.401992
C174	C	-0.206435	0.134489	0.314370
C175	C	0.016816	0.142313	0.425985
C176	C	-0.238832	0.142304	0.426002
C177	C	-0.238831	0.142265	0.170343
C178	C	0.077024	0.146464	0.456086
C179	C	-0.273080	0.146452	0.456109
C180	C	-0.273079	0.146398	0.105989
H181	H	-0.095271	-0.126190	0.030925
C182	C	0.416234	-0.369457	0.282662
N183	N	0.391680	-0.321024	0.258780
H184	H	-0.253365	-0.386184	0.290920
H185	H	-0.095250	-0.544286	0.449028
C186	C	-0.086828	-0.117965	-0.282781
N187	N	-0.062280	-0.094080	-0.258899
H188	H	-0.575305	-0.544284	-0.031026
H189	H	-0.575285	-0.126200	-0.290985
H190	H	-0.253409	-0.126207	-0.449117
H191	H	-0.253368	-0.126193	0.030932
H192	H	-0.575292	-0.126203	-0.449095
C193	C	-0.583770	-0.369474	-0.031251
N194	N	-0.608317	-0.321044	-0.031913
H195	H	-0.575311	0.195677	-0.449109
H196	H	0.424703	-0.544265	0.290901
H197	H	-0.417178	-0.284297	-0.290989
H198	H	-0.417198	-0.544281	-0.031019
C199	C	-0.086795	-0.552524	0.282682
N200	N	-0.062247	-0.576405	0.258799
H201	H	-0.095282	-0.284313	-0.291012
C202	C	0.599290	-0.552496	0.465710
N203	N	0.647057	-0.576377	0.514141
C204	C	-0.269855	0.133604	0.282663
N205	N	-0.317621	0.132938	0.258781
H206	H	-0.575306	0.195693	-0.291004
H207	H	-0.095283	0.133836	0.290888
H208	H	-0.095280	0.133853	0.448996
H209	H	-0.095269	-0.284298	0.030928
C210	C	-0.400735	0.195932	-0.282773
N211	N	-0.352973	0.196606	-0.258891
