data_functionalizedCrystal
_audit_creation_method	'MofGen! by Chris Wilmer'
_symmetry_space_group_name_H-M	'P1'
_symmetry_Int_Tables_number	1
_symmetry_cell_setting	triclinic
loop_
_symmetry_equiv_pos_as_xyz
  x,y,z
_cell_length_a	19.077105
_cell_length_b	21.295418
_cell_length_c	19.076919
_cell_angle_alpha	87.731568
_cell_angle_beta	89.923776
_cell_angle_gamma	87.723635
loop_
_atom_site_label
_atom_site_type_symbol
_atom_site_fract_x
_atom_site_fract_y
_atom_site_fract_z
Zn1	Zn	1.058254	-0.304535	0.440398
Zn2	Zn	1.391587	0.028798	0.773731
Zn3	Zn	1.724920	0.362131	1.107065
Zn4	Zn	1.062888	-0.405749	0.322885
Zn5	Zn	1.396221	-0.072415	0.656218
Zn6	Zn	1.729555	0.260918	0.989551
Zn7	Zn	0.945472	-0.296103	0.318192
Zn8	Zn	1.278805	0.037231	0.651525
Zn9	Zn	1.612139	0.370564	0.984858
Zn10	Zn	0.940710	-0.405369	0.435637
Zn11	Zn	1.274043	-0.072036	0.768970
Zn12	Zn	1.607376	0.261298	1.102304
O13	O	1.001831	-0.352939	0.379278
O14	O	1.335164	-0.019606	0.712611
O15	O	1.668497	0.313728	1.045945
O16	O	1.157200	-0.321650	0.428766
O17	O	1.490533	0.011684	0.762099
O18	O	1.823867	0.345017	1.095432
O19	O	1.051245	-0.387834	0.223931
O20	O	1.384578	-0.054500	0.557264
O21	O	1.717912	0.278833	0.890598
O22	O	0.960486	-0.209135	0.334431
O23	O	1.293819	0.124198	0.667765
O24	O	1.627153	0.457532	1.001098
O25	O	1.160605	-0.396011	0.342429
O26	O	1.493938	-0.062677	0.675763
O27	O	1.827271	0.270656	1.009096
O28	O	1.043346	-0.215330	0.424216
O29	O	1.376680	0.118003	0.757549
O30	O	1.710013	0.451336	1.090882
O31	O	0.964980	-0.307277	0.220483
O32	O	1.298313	0.026056	0.553817
O33	O	1.631647	0.359389	0.887150
O34	O	0.846509	-0.306909	0.329815
O35	O	1.179842	0.026424	0.663148
O36	O	1.513175	0.359757	0.996482
O37	O	0.952370	-0.395364	0.534600
O38	O	1.285703	-0.062030	0.867933
O39	O	1.619036	0.271303	1.201266
O40	O	0.843010	-0.387187	0.416101
O41	O	1.176343	-0.053853	0.749435
O42	O	1.509677	0.279480	1.082768
O43	O	1.038729	-0.321282	0.538097
O44	O	1.372062	0.012052	0.871431
O45	O	1.705395	0.345385	1.204764
O46	O	1.046627	-0.493785	0.337813
O47	O	1.379961	-0.160452	0.671146
O48	O	1.713294	0.172882	1.004480
O49	O	0.956863	-0.493506	0.420652
O50	O	1.290197	-0.160173	0.753985
O51	O	1.623530	0.173161	1.087318
C52	C	0.819263	-0.346092	0.371933
C53	C	1.152596	-0.012759	0.705266
C54	C	1.485930	0.320574	1.038599
C55	C	0.741159	-0.343179	0.368807
C56	C	1.074492	-0.009845	0.702141
C57	C	1.407826	0.323488	1.035474
C58	C	0.702665	-0.383665	0.412193
C59	C	1.035998	-0.050331	0.745526
C60	C	1.369332	0.283002	1.078860
C61	C	0.629278	-0.380919	0.409259
C62	C	0.962611	-0.047586	0.742593
C63	C	1.295945	0.285748	1.075926
C64	C	0.594386	-0.337690	0.362936
C65	C	0.927719	-0.004357	0.696270
C66	C	1.261053	0.328976	1.029603
C67	C	0.632885	-0.297200	0.319549
C68	C	0.966218	0.036133	0.652882
C69	C	1.299552	0.369467	0.986215
C70	C	0.706271	-0.299943	0.322486
C71	C	1.039604	0.033390	0.655820
C72	C	1.372937	0.366724	0.989153
C73	C	0.375100	-0.324995	0.349344
C74	C	0.708433	0.008338	0.682678
C75	C	1.041766	0.341671	1.016011
C76	C	0.301709	-0.322257	0.346409
C77	C	0.635042	0.011077	0.679742
C78	C	0.968375	0.344410	1.013075
C79	C	0.298107	-0.405975	0.436121
C80	C	0.631440	-0.072642	0.769454
C81	C	0.964773	0.260692	1.102787
C82	C	0.371494	-0.408717	0.439051
C83	C	0.704827	-0.075383	0.772384
C84	C	1.038161	0.257950	1.105718
C85	C	0.409986	-0.368225	0.395666
C86	C	0.743320	-0.034891	0.729000
C87	C	1.076653	0.298442	1.062333
N88	N	0.519373	-0.334884	0.359935
N89	N	0.852706	-0.001551	0.693268
N90	N	1.186039	0.331783	1.026602
N91	N	0.484998	-0.371028	0.398671
N92	N	0.818332	-0.037695	0.732005
N93	N	1.151665	0.295639	1.065338
C94	C	1.001750	-0.516486	0.379241
C95	C	1.335083	-0.183153	0.712574
C96	C	1.668417	0.150180	1.045908
C97	C	1.001779	-0.586456	0.379251
C98	C	1.335112	-0.253123	0.712585
C99	C	1.668445	0.080211	1.045918
C100	C	1.048735	-1.086051	0.336264
C101	C	1.382068	-0.752718	0.669597
C102	C	1.715402	-0.419385	1.002930
C103	C	1.048709	-1.020307	0.336246
C104	C	1.382042	-0.686974	0.669579
C105	C	1.715376	-0.353640	1.002913
C106	C	1.001928	-0.987304	0.379331
C107	C	1.335261	-0.653970	0.712664
C108	C	1.668594	-0.320637	1.045998
C109	C	0.955157	-1.020049	0.422424
C110	C	1.288490	-0.686715	0.755757
C111	C	1.621824	-0.353382	1.089090
C112	C	0.955180	-1.085791	0.422435
C113	C	1.288513	-0.752458	0.755768
C114	C	1.621846	-0.419124	1.089102
N115	N	0.993992	-0.885967	0.440598
N116	N	1.327325	-0.552634	0.773932
N117	N	1.660658	-0.219301	1.107265
N118	N	0.993974	-0.823515	0.440586
N119	N	1.327308	-0.490182	0.773919
N120	N	1.660641	-0.156848	1.107253
C121	C	1.001856	-0.789225	0.379299
C122	C	1.335189	-0.455892	0.712632
C123	C	1.668522	-0.122558	1.045965
N124	N	1.009769	-0.819748	0.318024
N125	N	1.343102	-0.486414	0.651357
N126	N	1.676436	-0.153081	0.984690
N127	N	1.009790	-0.882206	0.318037
N128	N	1.343123	-0.548873	0.651370
N129	N	1.676456	-0.215539	0.984704
C130	C	1.001898	-0.916017	0.379323
C131	C	1.335231	-0.582683	0.712657
C132	C	1.668564	-0.249350	1.045990
C133	C	1.048592	-0.685201	0.336186
C134	C	1.381925	-0.351867	0.669519
C135	C	1.715259	-0.018534	1.002853
C136	C	1.048561	-0.619455	0.336167
C137	C	1.381894	-0.286122	0.669500
C138	C	1.715228	0.047212	1.002833
C139	C	0.955013	-0.619198	0.422351
C140	C	1.288346	-0.285865	0.755684
C141	C	1.621679	0.047469	1.089018
C142	C	0.955040	-0.684942	0.422364
C143	C	1.288373	-0.351609	0.755697
C144	C	1.621707	-0.018275	1.089030
C145	C	1.001834	-0.717939	0.379282
C146	C	1.335167	-0.384606	0.712615
C147	C	1.668500	-0.051273	1.045949
C148	C	1.185112	-0.359813	0.386652
C149	C	1.518445	-0.026480	0.719985
C150	C	1.851778	0.306854	1.053319
C151	C	1.263215	-0.362742	0.389794
C152	C	1.596548	-0.029409	0.723128
C153	C	1.929882	0.303924	1.056461
C154	C	0.994501	-0.359221	0.562558
C155	C	1.327834	-0.025888	0.895891
C156	C	1.661168	0.307446	1.229224
C157	C	0.991377	-0.361898	0.640661
C158	C	1.324711	-0.028564	0.973994
C159	C	1.658044	0.304769	1.307327
C160	C	1.001931	-0.188754	0.379331
C161	C	1.335264	0.144579	0.712664
C162	C	1.668597	0.477912	1.045998
C163	C	1.001973	-0.118788	0.379354
C164	C	1.335306	0.214545	0.712687
C165	C	1.668640	0.547878	1.046020
C166	C	1.009173	-0.346638	0.196713
C167	C	1.342506	-0.013304	0.530046
C168	C	1.675839	0.320029	0.863379
C169	C	1.012432	-0.343789	0.118616
C170	C	1.345766	-0.010455	0.451949
C171	C	1.679099	0.322878	0.785282
C172	C	1.034870	-0.324587	0.679176
C173	C	1.368204	0.008747	1.012509
C174	C	1.701537	0.342080	1.345842
C175	C	1.031927	-0.327099	0.752561
C176	C	1.365260	0.006234	1.085895
C177	C	1.698593	0.339567	1.419228
C178	C	0.985494	-0.366927	0.787431
C179	C	1.318827	-0.033593	1.120764
C180	C	1.652160	0.299740	1.454097
C181	C	0.941996	-0.404239	0.748910
C182	C	1.275329	-0.070906	1.082244
C183	C	1.608663	0.262427	1.415577
C184	C	0.944937	-0.401723	0.675526
C185	C	1.278270	-0.068390	1.008859
C186	C	1.611603	0.264944	1.342192
C187	C	0.971875	-0.378585	1.006711
C188	C	1.305208	-0.045252	1.340044
C189	C	1.638542	0.288082	1.673378
C190	C	0.968939	-0.381100	1.080101
C191	C	1.302273	-0.047766	1.413434
C192	C	1.635606	0.285567	1.746767
C193	C	1.058870	-0.303959	1.083747
C194	C	1.392203	0.029375	1.417080
C195	C	1.725536	0.362708	1.750413
C196	C	1.061809	-0.301449	1.010361
C197	C	1.395142	0.031885	1.343694
C198	C	1.728475	0.365218	1.677027
C199	C	1.018309	-0.338759	0.971847
C200	C	1.351642	-0.005425	1.305180
C201	C	1.684975	0.327908	1.638513
N202	N	0.982485	-0.369497	0.862443
N203	N	1.315819	-0.036164	1.195776
N204	N	1.649152	0.297169	1.529109
N205	N	1.021314	-0.336184	0.896836
N206	N	1.354647	-0.002851	1.230169
N207	N	1.687981	0.330482	1.563503
H208	H	0.399898	-0.443920	0.476771
H209	H	0.733231	-0.110586	0.810104
H210	H	1.066564	0.222747	1.143438
H211	H	1.099622	-0.269019	0.981975
H212	H	1.432955	0.064315	1.315309
H213	H	1.766288	0.397648	1.648642
H214	H	0.931126	-0.413534	1.108489
H215	H	1.264459	-0.080200	1.441822
H216	H	1.597792	0.253133	1.775156
F217	F	0.925578	-0.418294	0.965731
F218	F	1.258911	-0.084961	1.299064
F219	F	1.592245	0.248373	1.632397
F220	F	0.257135	-0.449068	0.482289
F221	F	0.590468	-0.115734	0.815623
F222	F	0.923802	0.217599	1.148956
H223	H	1.086836	-1.112913	0.301181
H224	H	1.420169	-0.779580	0.634514
H225	H	1.753502	-0.446247	0.967848
H226	H	0.917066	-0.993174	0.457503
H227	H	1.250399	-0.659840	0.790836
H228	H	1.583733	-0.326507	1.124170
H229	H	0.917100	-1.112445	0.457526
H230	H	1.250434	-0.779112	0.790860
H231	H	1.583767	-0.445779	1.124193
H232	H	1.067345	-0.296718	0.783917
H233	H	1.400678	0.036615	1.117251
H234	H	1.734012	0.369949	1.450584
H235	H	0.916920	-0.592327	0.457429
H236	H	1.250253	-0.258994	0.790762
H237	H	1.583586	0.074340	1.124095
F238	F	0.892575	-0.446624	0.786023
F239	F	1.225909	-0.113291	1.119356
F240	F	1.559242	0.220042	1.452689
H241	H	1.094284	-0.273582	1.115112
H242	H	1.427617	0.059751	1.448446
H243	H	1.760951	0.393085	1.781779
H244	H	0.909513	-0.432099	0.644167
H245	H	1.242846	-0.098766	0.977501
H246	H	1.576180	0.234568	1.310834
F247	F	1.098389	-0.720321	0.290332
F248	F	1.431723	-0.386988	0.623665
F249	F	1.765056	-0.053654	0.956999
F250	F	0.416057	-0.281898	0.303172
F251	F	0.749390	0.051435	0.636505
F252	F	1.082723	0.384769	0.969838
F253	F	0.739793	-0.429678	0.461493
F254	F	1.073126	-0.096345	0.794827
F255	F	1.406460	0.236989	1.128160
H256	H	1.086789	-0.993647	0.301156
H257	H	1.420123	-0.660314	0.634489
H258	H	1.753456	-0.326981	0.967822
F259	F	0.747238	-0.256851	0.276310
F260	F	1.080572	0.076482	0.609644
F261	F	1.413905	0.409815	0.942977
H262	H	1.072683	-0.292157	0.650790
H263	H	1.406017	0.041177	0.984124
H264	H	1.739350	0.374510	1.317457
F265	F	0.905275	-0.719785	0.468233
F266	F	1.238608	-0.386452	0.801566
F267	F	1.571942	-0.053119	1.134899
F268	F	0.264576	-0.276248	0.297099
F269	F	0.597909	0.057085	0.630432
F270	F	0.931243	0.390418	0.963765
F271	F	0.588313	-0.424009	0.455437
F272	F	0.921646	-0.090676	0.788770
F273	F	1.254980	0.242657	1.122104
F274	F	0.595749	-0.251189	0.270252
F275	F	0.929082	0.082145	0.603586
F276	F	1.262415	0.415478	0.936919
H277	H	1.086638	-0.592800	0.301074
H278	H	1.419971	-0.259466	0.634407
H279	H	1.753305	0.073867	0.967740
