data_functionalizedCrystal
_audit_creation_method	'MofGen! by Chris Wilmer'
_symmetry_space_group_name_H-M	'P1'
_symmetry_Int_Tables_number	1
_symmetry_cell_setting	triclinic
loop_
_symmetry_equiv_pos_as_xyz
  x,y,z
_cell_length_a	12.837943
_cell_length_b	15.995350
_cell_length_c	11.295483
_cell_angle_alpha	94.097343
_cell_angle_beta	85.461227
_cell_angle_gamma	89.160657
loop_
_atom_site_label
_atom_site_type_symbol
_atom_site_fract_x
_atom_site_fract_y
_atom_site_fract_z
O1	O	1.382434	0.212589	-0.098992
O2	O	1.882434	0.712589	0.401008
O3	O	1.080629	0.201836	-0.099000
O4	O	1.580629	0.701836	0.401000
O5	O	1.239781	0.085983	-0.098995
O6	O	1.739781	0.585983	0.401005
O7	O	1.223282	0.328442	-0.098997
O8	O	1.723282	0.828442	0.401003
O9	O	1.225803	0.096142	0.099056
O10	O	1.725803	0.596142	0.599056
O11	O	1.066650	0.211995	0.099051
O12	O	1.566650	0.711995	0.599051
O13	O	1.368455	0.222747	0.099058
O14	O	1.868455	0.722747	0.599058
Cu15	Cu	1.216276	0.218299	0.117138
Cu16	Cu	1.716276	0.718299	0.617138
Cu17	Cu	1.232808	0.206285	-0.117080
Cu18	Cu	1.732808	0.706285	0.382920
O19	O	1.209303	0.338600	0.099053
O20	O	1.709303	0.838600	0.599053
C21	C	1.035019	0.203283	0.000024
C22	C	1.535019	0.703283	0.500024
C23	C	0.919942	0.192449	0.000021
C24	C	1.419942	0.692449	0.500021
C25	C	0.678983	0.322688	0.000037
C26	C	1.178983	0.822688	0.500037
C27	C	0.570857	0.312513	0.000035
C28	C	1.070857	0.812513	0.500035
C29	C	0.595562	0.161925	0.000024
C30	C	1.095562	0.661925	0.500024
C31	C	0.703688	0.172100	0.000026
C32	C	1.203688	0.672100	0.500026
C33	C	0.745394	0.252484	0.000031
C34	C	1.245394	0.752484	0.500031
C35	C	0.853523	0.262658	0.000024
C36	C	1.353523	0.762658	0.500024
C37	C	0.878225	0.112072	0.000021
C38	C	1.378225	0.612072	0.500021
C39	C	0.770100	0.101896	0.000019
C40	C	1.270100	0.601896	0.500019
C41	C	1.232110	0.059813	0.000028
C42	C	1.732110	0.559813	0.500028
C43	C	1.230066	-0.033301	0.000021
C44	C	1.730066	0.466699	0.500021
C45	C	1.222721	-0.371634	0.000025
C46	C	1.722721	0.128366	0.500025
C47	C	1.109407	-0.333266	-0.000422
C48	C	1.609407	0.166734	0.499578
C49	C	1.111421	-0.236390	0.000025
C50	C	1.611421	0.263610	0.500025
C51	C	1.226364	-0.203783	0.000023
C52	C	1.726364	0.296217	0.500023
C53	C	1.274288	-0.234599	0.113118
C54	C	1.774288	0.265401	0.613118
C55	C	1.271434	-0.331457	0.113213
C56	C	1.771434	0.168543	0.613213
C57	C	1.289672	-0.343180	-0.112007
C58	C	1.789672	0.156820	0.387993
C59	C	1.289750	-0.246314	-0.113502
C60	C	1.789750	0.253686	0.386498
C61	C	1.228429	-0.108920	0.000025
C62	C	1.728429	0.391080	0.500025
C63	C	1.220659	-0.466496	0.000031
C64	C	1.720659	0.033504	0.500031
C65	C	1.414065	0.221301	0.000031
C66	C	1.914065	0.721301	0.500031
C67	C	1.529143	0.232134	0.000027
C68	C	2.029143	0.732134	0.500027
C69	C	1.216974	0.364770	0.000027
C70	C	1.716974	0.864770	0.500027
C71	C	1.219019	0.457884	0.000026
C72	C	1.719019	0.957884	0.500026
N73	N	1.204657	0.226748	0.281874
N74	N	1.704657	0.726748	0.781874
N75	N	1.244436	0.197830	-0.281816
N76	N	1.744436	0.697830	0.218184
C77	C	1.328081	0.136958	0.531167
C78	C	1.828081	0.636958	1.031167
C79	C	1.319308	0.143350	0.655831
C80	C	1.819308	0.643350	1.155831
C81	C	1.178331	0.245919	0.655866
C82	C	1.678331	0.745919	1.155866
C83	C	1.187105	0.239527	0.531203
C84	C	1.687105	0.739527	1.031203
C85	C	1.261983	0.185046	0.468858
C86	C	1.761983	0.685046	0.968858
C87	C	1.270762	0.178659	0.344192
C88	C	1.770762	0.678659	0.844192
C89	C	1.129781	0.281223	0.344230
C90	C	1.629781	0.781223	0.844230
C91	C	1.121007	0.287615	0.468893
C92	C	1.621007	0.787615	0.968893
H93	H	0.887477	0.328111	0.000030
H94	H	1.387477	0.828111	0.500030
H95	H	1.389057	0.092603	0.480405
H96	H	1.889057	0.592603	0.980405
F97	F	1.215771	-0.195912	0.223128
F98	F	1.715771	0.304088	0.723128
H99	H	1.373130	0.104191	0.706560
H100	H	1.873130	0.604191	1.206560
F101	F	0.723373	0.408236	0.000027
F102	F	1.223373	0.908236	0.500027
H103	H	1.224700	-0.348675	0.197755
H104	H	1.724700	0.151325	0.697755
F105	F	0.725701	0.016351	0.000018
F106	F	1.225701	0.516351	0.500018
F107	F	1.061459	-0.209256	-0.105941
F108	F	1.561459	0.290744	0.394059
H109	H	1.075962	0.320382	0.293483
H110	H	1.575962	0.820382	0.793483
F111	F	1.249135	-0.379630	-0.224050
F112	F	1.749135	0.120370	0.275950
H113	H	1.117360	0.290270	0.706644
H114	H	1.617360	0.790270	1.206644
F115	F	1.244455	-0.220149	-0.222875
F116	F	1.744455	0.279851	0.277125
H117	H	1.060039	0.331970	0.519669
H118	H	1.560039	0.831970	1.019669
H119	H	0.516788	0.369680	0.000043
H120	H	1.016788	0.869680	0.500043
F121	F	1.379727	-0.364587	0.119931
F122	F	1.879727	0.135413	0.619931
F123	F	0.948915	0.037350	-0.000000
F124	F	1.448915	0.537350	0.500000
F125	F	0.551156	0.076382	0.000033
F126	F	1.051156	0.576382	0.500033
F127	F	1.398972	-0.376030	-0.113005
F128	F	1.898972	0.123970	0.386995
F129	F	1.057671	-0.367648	-0.106431
F130	F	1.557671	0.132352	0.393569
H131	H	1.058612	-0.352322	0.080227
H132	H	1.558612	0.147678	0.580227
F133	F	1.046099	-0.199134	0.106167
F134	F	1.546099	0.300866	0.606167
F135	F	1.399941	-0.217948	-0.122437
F136	F	1.899941	0.282052	0.377563
H137	H	1.358437	-0.213520	0.117323
H138	H	1.858437	0.286480	0.617323
F139	F	1.350456	0.120678	0.277842
F140	F	1.850456	0.620678	0.777842
