data_functionalizedCrystal
_audit_creation_method	'MofGen! by Chris Wilmer'
_symmetry_space_group_name_H-M	'P1'
_symmetry_Int_Tables_number	1
_symmetry_cell_setting	triclinic
loop_
_symmetry_equiv_pos_as_xyz
  x,y,z
_cell_length_a	12.759401
_cell_length_b	29.839131
_cell_length_c	12.759401
_cell_angle_alpha	90.012951
_cell_angle_beta	90.006276
_cell_angle_gamma	90.042945
loop_
_atom_site_label
_atom_site_type_symbol
_atom_site_fract_x
_atom_site_fract_y
_atom_site_fract_z
Zn1	Zn	1.605919	-0.178919	0.593973
Zn2	Zn	2.105919	0.321081	1.093973
Zn3	Zn	1.605773	-0.254025	0.418274
Zn4	Zn	2.105773	0.245975	0.918274
Zn5	Zn	1.430263	-0.178912	0.418309
Zn6	Zn	1.930263	0.321088	0.918309
Zn7	Zn	1.430128	-0.254025	0.593911
Zn8	Zn	1.930128	0.245975	1.093911
O9	O	1.518021	-0.216470	0.506117
O10	O	2.018021	0.283530	1.006117
O11	O	1.752921	-0.188885	0.570678
O12	O	2.252921	0.311115	1.070678
O13	O	1.582487	-0.244058	0.271258
O14	O	2.082487	0.255942	0.771258
O15	O	1.453682	-0.116046	0.441651
O16	O	1.953682	0.383954	0.941651
O17	O	1.752814	-0.244065	0.441593
O18	O	2.252814	0.255935	0.941593
O19	O	1.582735	-0.116051	0.570712
O20	O	2.082735	0.383949	1.070712
O21	O	1.453540	-0.188873	0.271283
O22	O	1.953540	0.311127	0.771283
O23	O	1.283224	-0.188873	0.441591
O24	O	1.783224	0.311127	0.941591
O25	O	1.453451	-0.244065	0.740941
O26	O	1.953451	0.255935	1.240941
O27	O	1.283125	-0.244058	0.570606
O28	O	1.783125	0.255942	1.070606
O29	O	1.582605	-0.188885	0.740986
O30	O	2.082605	0.311115	1.240986
O31	O	1.582356	-0.316892	0.441533
O32	O	2.082356	0.183108	0.941533
O33	O	1.453310	-0.316892	0.570572
O34	O	1.953310	0.183108	1.070572
C35	C	1.245053	-0.216465	0.506096
C36	C	1.745053	0.283535	1.006096
C37	C	1.128277	-0.216473	0.506112
C38	C	1.628277	0.283527	1.006112
C39	C	1.073391	-0.245252	0.573184
C40	C	1.573391	0.254748	1.073184
C41	C	0.963667	-0.245254	0.573205
C42	C	1.463667	0.254746	1.073205
C43	C	0.963724	-0.187697	0.439073
C44	C	1.463724	0.312303	0.939073
C45	C	1.073447	-0.187693	0.439058
C46	C	1.573447	0.312307	0.939058
C47	C	1.517831	-0.333193	0.506065
C48	C	2.017831	0.166807	1.006065
C49	C	1.517846	-0.383127	0.506078
C50	C	2.017846	0.116873	1.006078
C51	C	1.585337	-0.692758	0.439024
C52	C	2.085337	-0.192758	0.939024
C53	C	1.585467	-0.880431	0.439065
C54	C	2.085467	-0.380431	0.939065
O55	O	1.642700	-0.904685	0.382013
O56	O	2.142700	-0.404685	0.882013
N57	N	1.518239	-0.903912	0.506196
N58	N	2.018239	-0.403912	1.006196
C59	C	1.450978	-0.880472	0.573327
C60	C	1.950978	-0.380472	1.073327
O61	O	1.393807	-0.904751	0.630435
O62	O	1.893807	-0.404751	1.130435
C63	C	1.450854	-0.692800	0.573291
C64	C	1.950854	-0.192800	1.073291
C65	C	1.518080	-0.669321	0.506147
C66	C	2.018080	-0.169321	1.006147
C67	C	1.652558	-0.669279	0.371887
C68	C	2.152558	-0.169279	0.871887
C69	C	1.652520	-0.622364	0.371874
C70	C	2.152520	-0.122364	0.871874
C71	C	1.585263	-0.598927	0.438997
C72	C	2.085263	-0.098927	0.938997
C73	C	1.518042	-0.622406	0.506134
C74	C	2.018042	-0.122406	1.006134
C75	C	1.383600	-0.669361	0.640426
C76	C	1.883600	-0.169361	1.140426
C77	C	1.383577	-0.622440	0.640413
C78	C	1.883577	-0.122440	1.140413
C79	C	1.450802	-0.598961	0.573270
C80	C	1.950802	-0.098961	1.073270
C81	C	1.450748	-0.552054	0.573244
C82	C	1.950748	-0.052054	1.073244
N83	N	1.517976	-0.528573	0.506112
N84	N	2.017976	-0.028573	1.006112
C85	C	1.585234	-0.552009	0.438989
C86	C	2.085234	-0.052009	0.938989
C87	C	1.451046	-0.979003	0.573340
C88	C	1.951046	-0.479003	1.073340
C89	C	1.451076	-1.025921	0.573348
C90	C	1.951076	-0.525921	1.073348
C91	C	1.585566	-1.025876	0.439087
C92	C	2.085566	-0.525876	0.939087
C93	C	1.585531	-0.978958	0.439074
C94	C	2.085531	-0.478958	0.939074
C95	C	1.518274	-0.955522	0.506208
C96	C	2.018274	-0.455522	1.006208
C97	C	1.585150	-0.453483	0.438965
C98	C	2.085150	0.046517	0.938965
C99	C	1.585104	-0.406564	0.438954
C100	C	2.085104	0.093436	0.938954
C101	C	1.450618	-0.406612	0.573219
C102	C	1.950618	0.093388	1.073219
C103	C	1.450659	-0.453528	0.573226
C104	C	1.950659	0.046472	1.073226
C105	C	1.517934	-0.476962	0.506096
C106	C	2.017934	0.023038	1.006096
O107	O	1.393553	-0.527771	0.630274
O108	O	1.893553	-0.027771	1.130274
O109	O	1.642412	-0.527723	0.381906
O110	O	2.142412	-0.027723	0.881906
C111	C	1.585374	-0.739673	0.439038
C112	C	2.085374	-0.239673	0.939038
C113	C	1.518154	-0.763152	0.506175
C114	C	2.018154	-0.263152	1.006175
C115	C	1.450896	-0.739716	0.573298
C116	C	1.950896	-0.239716	1.073298
C117	C	1.518183	-0.810070	0.506183
C118	C	2.018183	-0.310070	1.006183
C119	C	1.585441	-0.833507	0.439059
C120	C	2.085441	-0.333507	0.939059
C121	C	1.652669	-0.810025	0.371928
C122	C	2.152669	-0.310025	0.871928
C123	C	1.652632	-0.763110	0.371914
C124	C	2.152632	-0.263110	0.871914
C125	C	1.383668	-0.763197	0.640429
C126	C	1.883668	-0.263197	1.140429
C127	C	1.383710	-0.810112	0.640436
C128	C	1.883710	-0.310112	1.140436
C129	C	1.450967	-0.833549	0.573313
C130	C	1.950967	-0.333549	1.073313
C131	C	1.792054	-0.216476	0.506138
C132	C	2.292054	0.283524	1.006138
C133	C	1.908831	-0.216479	0.506148
C134	C	2.408831	0.283521	1.006148
C135	C	1.518029	-0.216476	0.780150
C136	C	2.018029	0.283524	1.280150
C137	C	1.518033	-0.216478	0.896927
C138	C	2.018033	0.283522	1.396927
C139	C	1.518240	-0.099292	0.506192
C140	C	2.018240	0.400708	1.006192
C141	C	1.518333	-0.049357	0.506224
C142	C	2.018333	0.450643	1.006224
C143	C	1.585162	-0.245209	1.061511
C144	C	2.085162	0.254791	1.561511
C145	C	1.585164	-0.245211	0.951787
C146	C	2.085164	0.254789	1.451787
C147	C	1.450888	-0.187745	0.951796
C148	C	1.950888	0.312255	1.451796
C149	C	1.450882	-0.187746	1.061518
C150	C	1.950882	0.312254	1.561518
C151	C	1.518011	-0.216476	1.233150
C152	C	2.018011	0.283524	1.733150
C153	C	1.518025	-0.216477	1.116373
C154	C	2.018025	0.283523	1.616373
H155	H	0.918983	-0.268687	0.627823
H156	H	1.418983	0.231313	1.127823
H157	H	1.707373	-0.743997	0.317240
H158	H	2.207373	-0.243997	0.817240
H159	H	1.328958	-0.829225	0.695112
H160	H	1.828958	-0.329225	1.195112
H161	H	1.639933	-0.472558	0.384303
H162	H	2.139933	0.027442	0.884303
H163	H	0.919068	-0.164266	0.384478
H164	H	1.419068	0.335734	0.884478
H165	H	1.118030	-0.268685	0.627787
H166	H	1.618030	0.231315	1.127787
H167	H	1.639834	-0.268607	0.907123
H168	H	2.139834	0.231393	1.407123
H169	H	1.118136	-0.164255	0.384440
H170	H	1.618136	0.335745	0.884440
H171	H	1.639846	-0.387449	0.384275
H172	H	2.139846	0.112551	0.884275
H173	H	1.707264	-0.603250	0.317203
H174	H	2.207264	-0.103250	0.817203
H175	H	1.707333	-0.688356	0.317227
H176	H	2.207333	-0.188356	0.817227
H177	H	1.396224	-0.164353	0.907121
H178	H	1.896224	0.335647	1.407121
H179	H	1.640272	-0.959844	0.384401
H180	H	2.140272	-0.459844	0.884401
H181	H	1.396205	-0.164348	1.106188
H182	H	1.896205	0.335652	1.606188
H183	H	1.396324	-1.045033	0.628013
H184	H	1.896324	-0.545033	1.128013
H185	H	1.640330	-1.044966	0.384432
H186	H	2.140330	-0.544966	0.884432
H187	H	1.396276	-0.959925	0.628010
H188	H	1.896276	-0.459925	1.128010
H189	H	1.707430	-0.829116	0.317271
H190	H	2.207430	-0.329116	0.817271
H191	H	1.328853	-0.688470	0.695096
H192	H	1.828853	-0.188470	1.195096
H193	H	1.328810	-0.603361	0.695085
H194	H	1.828810	-0.103361	1.195085
H195	H	1.395923	-0.472645	0.627903
H196	H	1.895923	0.027355	1.127903
H197	H	1.328900	-0.744118	0.695091
H198	H	1.828900	-0.244118	1.195091
H199	H	1.395854	-0.387523	0.627867
H200	H	1.895854	0.112477	1.127867
H201	H	1.639833	-0.268604	1.106170
H202	H	2.139833	0.231396	1.606170
