data_functionalizedCrystal
_audit_creation_method	'MofGen! by Chris Wilmer'
_symmetry_space_group_name_H-M	'P1'
_symmetry_Int_Tables_number	1
_symmetry_cell_setting	triclinic
loop_
_symmetry_equiv_pos_as_xyz
  x,y,z
_cell_length_a	23.532356
_cell_length_b	14.519731
_cell_length_c	13.596369
_cell_angle_alpha	90.005416
_cell_angle_beta	90.002163
_cell_angle_gamma	96.741694
loop_
_atom_site_label
_atom_site_type_symbol
_atom_site_fract_x
_atom_site_fract_y
_atom_site_fract_z
O1	O	-0.074713	1.222950	0.081775
O2	O	0.425287	1.722950	0.581775
O3	O	-0.083492	0.954369	0.081774
O4	O	0.416508	1.454369	0.581774
O5	O	0.003794	1.096783	0.081789
O6	O	0.503794	1.596783	0.581789
O7	O	-0.162000	1.080536	0.081761
O8	O	0.338000	1.580536	0.581761
O9	O	0.003799	1.096769	-0.081794
O10	O	0.503799	1.596769	0.418206
O11	O	-0.083488	0.954355	-0.081809
O12	O	0.416512	1.454355	0.418191
O13	O	-0.074709	1.222936	-0.081808
O14	O	0.425291	1.722936	0.418192
Zn15	Zn	-0.079097	1.088643	-0.107780
Zn16	Zn	0.420903	1.588643	0.392220
Zn17	Zn	-0.079104	1.088662	0.107747
Zn18	Zn	0.420896	1.588662	0.607747
O19	O	-0.161995	1.080522	-0.081822
O20	O	0.338005	1.580522	0.418178
C21	C	-0.083079	0.920008	-0.000017
C22	C	0.416921	1.420008	0.499983
C23	C	-0.081846	0.817643	-0.000016
C24	C	0.418154	1.317643	0.499984
C25	C	-0.080844	0.734511	-0.000012
C26	C	0.419156	1.234511	0.499988
C27	C	-0.079593	0.630217	-0.000011
C28	C	0.420407	1.130217	0.499989
C29	C	-0.078600	0.547090	-0.000011
C30	C	0.421400	1.047090	0.499989
C31	C	-0.077348	0.442790	-0.000009
C32	C	0.422652	0.942790	0.499991
C33	C	-0.183216	1.080935	-0.000034
C34	C	0.316784	1.580935	0.499966
C35	C	-0.246440	1.082157	-0.000045
C36	C	0.253560	1.582157	0.499955
C37	C	-0.638491	1.089836	0.089172
C38	C	-0.138491	1.589836	0.589172
C39	C	-0.697896	1.090997	0.089177
C40	C	-0.197896	1.590997	0.589177
O41	O	-0.728620	1.091636	0.165011
O42	O	-0.228620	1.591636	0.665011
N43	N	-0.727605	1.091566	0.000009
N44	N	-0.227605	1.591566	0.500009
C45	C	-0.697905	1.090982	-0.089170
C46	C	-0.197905	1.590982	0.410830
O47	O	-0.728629	1.091573	-0.165014
O48	O	-0.228629	1.591573	0.334986
C49	C	-0.638500	1.089827	-0.089174
C50	C	-0.138500	1.589827	0.410826
C51	C	-0.608796	1.089249	0.000000
C52	C	-0.108796	1.589249	0.500000
C53	C	-0.608786	1.089259	0.178339
C54	C	-0.108786	1.589259	0.678339
C55	C	-0.549386	1.088096	0.178334
C56	C	-0.049386	1.588096	0.678334
C57	C	-0.519690	1.087509	0.089162
C58	C	-0.019690	1.587509	0.589162
C59	C	-0.549395	1.088086	-0.000005
C60	C	-0.049395	1.588086	0.499995
C61	C	-0.608801	1.089250	-0.178352
C62	C	-0.108801	1.589250	0.321648
C63	C	-0.549393	1.088095	-0.178348
C64	C	-0.049393	1.588095	0.321652
C65	C	-0.519688	1.087517	-0.089174
C66	C	-0.019688	1.587517	0.410826
C67	C	-0.460299	1.086336	-0.089182
C68	C	0.039701	1.586336	0.410818
N69	N	-0.430591	1.085768	-0.000014
N70	N	0.069409	1.585768	0.499986
C71	C	-0.460286	1.086354	0.089158
C72	C	0.039714	1.586354	0.589158
C73	C	-0.822657	1.093409	-0.089155
C74	C	-0.322657	1.593409	0.410845
C75	C	-0.882061	1.094557	-0.089153
C76	C	-0.382061	1.594557	0.410847
C77	C	-0.882048	1.094575	0.089195
C78	C	-0.382048	1.594575	0.589195
C79	C	-0.822644	1.093420	0.089191
C80	C	-0.322644	1.593420	0.589191
C81	C	-0.792949	1.092841	0.000013
C82	C	-0.292949	1.592841	0.500013
C83	C	-0.335541	1.083910	0.089140
C84	C	0.164459	1.583910	0.589140
C85	C	-0.276135	1.082743	0.089127
C86	C	0.223865	1.582743	0.589127
C87	C	-0.276153	1.082731	-0.089219
C88	C	0.223847	1.582731	0.410781
C89	C	-0.335554	1.083893	-0.089207
C90	C	0.164446	1.583893	0.410793
C91	C	-0.365246	1.084486	-0.000019
C92	C	0.134754	1.584486	0.499981
O93	O	-0.429538	1.085700	-0.164978
O94	O	0.070462	1.585700	0.335022
O95	O	-0.429554	1.085775	0.164989
O96	O	0.070446	1.585775	0.664989
C97	C	0.025015	1.096370	0.000003
C98	C	0.525015	1.596370	0.500003
C99	C	0.088239	1.095149	0.000020
C100	C	0.588239	1.595149	0.500020
C101	C	-0.075122	1.257298	-0.000014
C102	C	0.424878	1.757298	0.499986
C103	C	-0.076355	1.359663	-0.000009
C104	C	0.423645	1.859663	0.499991
N105	N	-0.079093	1.088638	-0.254872
N106	N	0.420907	1.588638	0.245128
C107	C	-0.079104	1.088661	-0.656163
C108	C	0.420896	1.588661	-0.156163
C109	C	-0.079103	1.088652	-0.544512
C110	C	0.420897	1.588652	-0.044512
C111	C	-0.079099	1.088650	-0.455521
C112	C	0.420901	1.588650	0.044479
C113	C	-0.079097	1.088640	-0.343863
C114	C	0.420903	1.588640	0.156137
N115	N	-0.079104	1.088675	0.254839
N116	N	0.420896	1.588675	0.754839
H117	H	-0.359709	1.084394	0.161766
H118	H	0.140291	1.584394	0.661766
O119	O	-0.790628	1.092773	-0.185344
O120	O	-0.290628	1.592773	0.314656
H121	H	-0.807043	1.030122	-0.228095
H122	H	-0.307043	1.530122	0.271905
H123	H	-0.906237	1.095049	0.161803
H124	H	-0.406237	1.595049	0.661803
H125	H	-0.798462	1.092947	0.161804
H126	H	-0.298462	1.592947	0.661804
O127	O	-0.517367	1.087482	-0.274539
O128	O	-0.017367	1.587482	0.225461
H129	H	-0.471068	1.086590	-0.259570
H130	H	0.028932	1.586590	0.240430
O131	O	-0.367597	1.084517	-0.185385
O132	O	0.132403	1.584517	0.314615
H133	H	-0.361213	1.021431	-0.228154
H134	H	0.138787	1.521431	0.271846
H135	H	-0.525205	1.087632	0.250948
H136	H	-0.025205	1.587632	0.750948
O137	O	-0.914092	1.095175	-0.185338
O138	O	-0.414092	1.595175	0.314662
H139	H	-0.946169	1.032837	-0.189617
H140	H	-0.446169	1.532837	0.310383
H141	H	-0.632976	1.089730	-0.250967
H142	H	-0.132976	1.589730	0.249033
H143	H	-0.251965	1.082249	-0.161821
H144	H	0.248035	1.582249	0.338179
O145	O	-0.244097	1.082100	0.185311
O146	O	0.255903	1.582100	0.685311
H147	H	-0.274730	1.082704	0.247316
H148	H	0.225270	1.582704	0.747316
H149	H	-0.632958	1.089740	0.250957
H150	H	-0.132958	1.589740	0.750957
