data_functionalizedCrystal
_audit_creation_method	'MofGen! by Chris Wilmer'
_symmetry_space_group_name_H-M	'P1'
_symmetry_Int_Tables_number	1
_symmetry_cell_setting	triclinic
loop_
_symmetry_equiv_pos_as_xyz
  x,y,z
_cell_length_a	6.817900
_cell_length_b	19.551823
_cell_length_c	16.417824
_cell_angle_alpha	95.900051
_cell_angle_beta	103.385545
_cell_angle_gamma	101.663376
loop_
_atom_site_label
_atom_site_type_symbol
_atom_site_fract_x
_atom_site_fract_y
_atom_site_fract_z
V1	V	-4.016479	-0.097245	-0.261547
O2	O	-4.013431	0.004087	-0.256165
O3	O	-3.959177	-0.192257	-0.260146
O4	O	-3.967650	-0.096007	-0.375440
O5	O	-4.004900	-0.092830	-0.140073
V6	V	-4.501316	-0.085094	-0.246971
O7	O	-4.274855	-0.123899	-0.293521
O8	O	-4.693138	-0.058440	-0.214996
O9	O	-4.335412	0.009918	-0.248372
O10	O	-4.621761	-0.186427	-0.252352
O11	O	-4.630292	-0.089510	-0.368445
O12	O	-4.326939	-0.086333	-0.133078
C13	C	-3.802026	-0.215411	-0.256120
C14	C	-3.836459	-0.293087	-0.255733
C15	C	-4.034386	-0.333141	-0.259740
C16	C	-4.066744	-0.406126	-0.259386
C17	C	-3.901155	-0.439052	-0.255007
C18	C	-3.703203	-0.398989	-0.251004
C19	C	-3.670855	-0.326006	-0.251367
C20	C	-3.788127	-0.545424	-0.201894
C21	C	-3.820479	-0.618405	-0.201525
C22	C	-4.000922	-0.664156	-0.253890
C23	C	-4.149036	-0.636916	-0.306614
C24	C	-4.116688	-0.563933	-0.306977
C25	C	-3.936211	-0.518189	-0.254613
C26	C	-4.233947	-0.783350	-0.257514
C27	C	-4.266301	-0.856337	-0.257165
C28	C	-3.902751	-0.849197	-0.248775
C29	C	-3.870407	-0.776212	-0.249133
C30	C	-4.036011	-0.743292	-0.253499
C31	C	-3.812833	-0.092633	-0.403188
C32	C	-3.854134	-0.092249	-0.496298
C33	C	-3.983381	-0.155368	-0.722738
C34	C	-4.022203	-0.155002	-0.810225
C35	C	-3.953789	-0.026966	-0.785767
C36	C	-3.914983	-0.027333	-0.698282
C37	C	-3.929771	-0.091535	-0.666771
C38	C	-4.007399	-0.090803	-0.841742
C39	C	-4.049491	-0.090406	-0.936599
C40	C	-3.887680	-0.091932	-0.571908
C41	C	-4.155904	0.033068	-0.252396
C42	C	-4.100709	0.110742	-0.252788
C43	C	-4.145098	-0.089709	-0.105326
C44	C	-4.083036	-0.090090	-0.012214
H45	H	-3.709233	-0.743598	-0.245865
Cl46	Cl	-3.847563	0.052921	-0.627917
H47	H	-3.641175	-0.508179	-0.159255
Cl48	Cl	-4.242568	-0.291758	-0.265217
Cl49	Cl	-3.935185	0.053741	-0.825388
Cl50	Cl	-4.315587	-0.456491	-0.264424
Cl51	Cl	-4.302869	-0.529691	-0.373260
Cl52	Cl	-4.375892	-0.694423	-0.372447
Cl53	Cl	-4.001981	-0.236079	-0.683127
Cl54	Cl	-4.089605	-0.235252	-0.880582
H55	H	-4.427483	-0.888949	-0.260433
Cl56	Cl	-4.442138	-0.741964	-0.263022
H57	H	-3.767927	-0.876005	-0.245215
H58	H	-3.568383	-0.425802	-0.247441
Cl59	Cl	-3.422012	-0.275649	-0.246328
Cl60	Cl	-3.634298	-0.652641	-0.135234
