data_functionalizedCrystal
_audit_creation_method	'MofGen! by Chris Wilmer'
_symmetry_space_group_name_H-M	'P1'
_symmetry_Int_Tables_number	1
_symmetry_cell_setting	triclinic
loop_
_symmetry_equiv_pos_as_xyz
  x,y,z
_cell_length_a	13.897449
_cell_length_b	13.897448
_cell_length_c	13.897441
_cell_angle_alpha	89.971988
_cell_angle_beta	89.973931
_cell_angle_gamma	90.019497
loop_
_atom_site_label
_atom_site_type_symbol
_atom_site_fract_x
_atom_site_fract_y
_atom_site_fract_z
Zn1	Zn	-1.474690	0.383986	0.545536
Zn2	Zn	-1.141357	0.717319	0.878869
Zn3	Zn	-0.808023	1.050653	1.212203
Zn4	Zn	-1.474579	0.545308	0.384244
Zn5	Zn	-1.141245	0.878641	0.717578
Zn6	Zn	-0.807912	1.211974	1.050911
Zn7	Zn	-1.313379	0.384028	0.384239
Zn8	Zn	-0.980046	0.717361	0.717573
Zn9	Zn	-0.646713	1.050695	1.050906
Zn10	Zn	-1.313356	0.545240	0.545482
Zn11	Zn	-0.980022	0.878574	0.878815
Zn12	Zn	-0.646689	1.211907	1.212149
O13	O	-1.394001	0.464641	0.464875
O14	O	-1.060668	0.797974	0.798209
O15	O	-0.727334	1.131307	1.131542
O16	O	-1.609657	0.405396	0.524165
O17	O	-1.276324	0.738729	0.857498
O18	O	-0.942990	1.072063	1.190832
O19	O	-1.453159	0.523959	0.249262
O20	O	-1.119825	0.857293	0.582595
O21	O	-0.786492	1.190626	0.915929
O22	O	-1.334834	0.249041	0.405656
O23	O	-1.001501	0.582374	0.738989
O24	O	-0.668167	0.915707	1.072322
O25	O	-1.609575	0.523918	0.405665
O26	O	-1.276242	0.857252	0.738998
O27	O	-0.942909	1.190585	1.072332
O28	O	-1.453348	0.249010	0.524160
O29	O	-1.120015	0.582343	0.857493
O30	O	-0.786682	0.915677	1.190826
O31	O	-1.334726	0.405468	0.249258
O32	O	-1.001393	0.738801	0.582592
O33	O	-0.668059	1.072135	0.915925
O34	O	-1.178394	0.405403	0.405604
O35	O	-0.845061	0.738736	0.738937
O36	O	-0.511728	1.072069	1.072270
O37	O	-1.334794	0.523804	0.680471
O38	O	-1.001460	0.857137	1.013804
O39	O	-0.668127	1.190471	1.347138
O40	O	-1.178377	0.523845	0.524068
O41	O	-0.845044	0.857178	0.857401
O42	O	-0.511711	1.190511	1.190735
O43	O	-1.453325	0.405331	0.680510
O44	O	-1.119992	0.738664	1.013844
O45	O	-0.786659	1.071998	1.347177
O46	O	-1.453136	0.680280	0.405613
O47	O	-1.119802	1.013614	0.738946
O48	O	-0.786469	1.346947	1.072279
O49	O	-1.334686	0.680231	0.524073
O50	O	-1.001352	1.013564	0.857407
O51	O	-0.668019	1.346898	1.190740
C52	C	-1.143387	0.464622	0.464830
C53	C	-0.810053	0.797955	0.798163
C54	C	-0.476720	1.131288	1.131497
C55	C	-1.036173	0.464637	0.464834
C56	C	-0.702839	0.797970	0.798167
C57	C	-0.369506	1.131304	1.131500
C58	C	-0.949103	0.464639	0.464846
C59	C	-0.615770	0.797972	0.798179
C60	C	-0.282436	1.131305	1.131512
C61	C	-0.839870	0.464644	0.464870
C62	C	-0.506537	0.797977	0.798203
C63	C	-0.173204	1.131311	1.131536
C64	C	-1.393922	0.715255	0.464859
C65	C	-1.060589	1.048588	0.798192
C66	C	-0.727256	1.381922	1.131525
C67	C	-1.393977	0.822469	0.464884
C68	C	-1.060644	1.155802	0.798217
C69	C	-0.727310	1.489135	1.131551
C70	C	-0.645594	0.464656	0.464910
C71	C	-0.312261	0.797989	0.798243
C72	C	0.021073	1.131323	1.131576
C73	C	-0.752808	0.464653	0.464894
C74	C	-0.419474	0.797986	0.798228
C75	C	-0.086141	1.131319	1.131561
C76	C	-1.394072	1.018764	0.464953
C77	C	-1.060738	1.352097	0.798287
C78	C	-0.727405	1.685430	1.131620
C79	C	-1.394016	0.909531	0.464918
C80	C	-1.060683	1.242865	0.798251
C81	C	-0.727350	1.576198	1.131584
C82	C	-1.394069	0.464555	0.716469
C83	C	-1.060736	0.797889	1.049802
C84	C	-0.727403	1.131222	1.383135
C85	C	-1.394099	0.464519	0.823683
C86	C	-1.060765	0.797852	1.157016
C87	C	-0.727432	1.131186	1.490349
C88	C	-1.394098	1.213048	0.464925
C89	C	-1.060765	1.546381	0.798258
C90	C	-0.727431	1.879714	1.131591
C91	C	-1.394118	1.105834	0.464974
C92	C	-1.060785	1.439167	0.798308
C93	C	-0.727452	1.772500	1.131641
C94	C	-1.393988	0.464656	0.214261
C95	C	-1.060655	0.797989	0.547594
C96	C	-0.727322	1.131322	0.880928
C97	C	-1.394146	0.464420	0.107048
C98	C	-1.060813	0.797754	0.440381
C99	C	-0.727479	1.131087	0.773714
C100	C	-1.394125	0.464454	1.019978
C101	C	-1.060791	0.797787	1.353311
C102	C	-0.727458	1.131120	1.686644
C103	C	-1.394107	0.464493	0.910745
C104	C	-1.060774	0.797826	1.244079
C105	C	-0.727441	1.131159	1.577412
