data_functionalizedCrystal
_audit_creation_method	'MofGen! by Chris Wilmer'
_symmetry_space_group_name_H-M	'P1'
_symmetry_Int_Tables_number	1
_symmetry_cell_setting	triclinic
loop_
_symmetry_equiv_pos_as_xyz
  x,y,z
_cell_length_a	9.065215
_cell_length_b	15.944493
_cell_length_c	7.540329
_cell_angle_alpha	90.002283
_cell_angle_beta	89.997574
_cell_angle_gamma	84.244871
loop_
_atom_site_label
_atom_site_type_symbol
_atom_site_fract_x
_atom_site_fract_y
_atom_site_fract_z
O1	O	1.957477	0.123152	-0.147435
O2	O	1.527952	0.133257	-0.147441
O3	O	1.754489	0.006016	-0.147453
O4	O	1.730941	0.250394	-0.147424
O5	O	1.754475	0.006014	0.147512
O6	O	1.527939	0.133255	0.147524
O7	O	1.957464	0.123150	0.147530
Cu8	Cu	1.742700	0.128203	0.174459
Cu9	Cu	1.742716	0.128205	-0.174371
O10	O	1.730927	0.250392	0.147541
C11	C	1.472982	0.132286	0.000040
C12	C	1.309207	0.129384	0.000037
C13	C	1.753519	-0.025287	0.000022
C14	C	1.750634	-0.118558	-0.000001
C15	C	1.883979	-0.353308	0.000035
C16	C	1.812077	-0.404420	-0.145398
C17	C	1.745287	-0.289319	0.000021
C18	C	1.812032	-0.404398	0.145414
C19	C	1.740133	-0.454268	0.000050
C20	C	1.673424	-0.339202	-0.145532
C21	C	1.673398	-0.339177	0.145411
C22	C	1.601396	-0.390256	-0.000058
C23	C	1.748261	-0.194297	0.000003
C24	C	1.737149	-0.549288	0.000055
C25	C	2.012434	0.124122	0.000044
C26	C	2.176208	0.127024	0.000036
C27	C	1.731896	0.281695	0.000062
C28	C	1.734782	0.374965	0.000073
N29	N	1.742700	0.128201	0.419808
N30	N	1.742728	0.128200	-0.419719
H31	H	1.870654	-0.432921	-0.268351
H32	H	1.614892	-0.310825	-0.268616
H33	H	2.003443	-0.336775	-0.000110
C34	C	1.415234	-0.460174	-0.151074
C35	C	1.440004	-0.412367	-0.000159
H36	H	1.315602	-0.473829	-0.151133
H37	H	1.432620	-0.428538	-0.254390
H38	H	1.480670	-0.510587	-0.150028
H39	H	1.374576	-0.361952	-0.001211
H40	H	1.422603	-0.444005	0.103184
H41	H	1.614872	-0.310660	0.268368
C42	C	2.038993	-0.424543	0.311095
C43	C	1.891118	-0.442849	0.311399
H44	H	2.087819	-0.448276	0.413567
H45	H	2.087254	-0.447760	0.207834
H46	H	2.042190	-0.365175	0.311709
H47	H	1.887921	-0.502217	0.310772
H48	H	1.842845	-0.419635	0.414687
