data_functionalizedCrystal
_audit_creation_method	'MofGen! by Chris Wilmer'
_symmetry_space_group_name_H-M	'P1'
_symmetry_Int_Tables_number	1
_symmetry_cell_setting	triclinic
loop_
_symmetry_equiv_pos_as_xyz
  x,y,z
_cell_length_a	10.489716
_cell_length_b	19.288865
_cell_length_c	18.366186
_cell_angle_alpha	89.988521
_cell_angle_beta	89.991341
_cell_angle_gamma	83.832692
loop_
_atom_site_label
_atom_site_type_symbol
_atom_site_fract_x
_atom_site_fract_y
_atom_site_fract_z
O1	O	1.691866	0.097913	-0.060553
O2	O	1.320458	0.107129	-0.060557
O3	O	1.516894	0.001462	-0.060540
O4	O	1.495430	0.203580	-0.060570
O5	O	1.516860	0.001456	0.060559
O6	O	1.320424	0.107123	0.060543
O7	O	1.691833	0.097907	0.060546
Zn8	Zn	1.506123	0.102514	0.079772
Zn9	Zn	1.506167	0.102522	-0.079782
O10	O	1.495397	0.203574	0.060530
C11	C	1.516186	-0.024422	0.000011
C12	C	1.514113	-0.101539	0.000018
C13	C	1.272925	0.106434	-0.000007
C14	C	1.131340	0.104362	-0.000008
C15	C	1.629373	-0.145468	0.000022
C16	C	1.627425	-0.217928	0.000011
C17	C	1.510211	-0.246456	0.000009
C18	C	1.394936	-0.202517	0.000001
C19	C	1.396887	-0.130059	0.000005
C20	C	1.418056	-0.355359	0.042427
C21	C	1.416110	-0.427816	0.042427
C22	C	1.504189	-0.469942	-0.000007
C23	C	1.594236	-0.439602	-0.042432
C24	C	1.596187	-0.367144	-0.042428
C25	C	1.508083	-0.325024	0.000004
C26	C	1.617345	-0.592441	-0.000016
C27	C	1.615392	-0.664902	-0.000032
C28	C	1.382900	-0.649489	-0.000035
C29	C	1.384856	-0.577030	-0.000026
C30	C	1.502082	-0.548510	-0.000013
C31	C	1.032201	0.169160	-0.000019
C32	C	0.955613	0.134917	0.059697
C33	C	0.955653	0.134907	-0.059697
C34	C	1.056617	0.070146	0.059758
C35	C	1.056662	0.070145	-0.059690
C36	C	0.980124	0.035854	0.000041
C37	C	1.739366	0.098603	-0.000005
C38	C	1.880950	0.100674	-0.000009
C39	C	1.496104	0.229458	-0.000024
C40	C	1.498177	0.306575	-0.000035
N41	N	1.506103	0.102509	0.188663
N42	N	1.506198	0.102522	-0.188673
C43	C	1.593113	0.055743	0.226770
C44	C	1.593121	0.055740	0.302998
C45	C	1.506131	0.102515	0.341115
C46	C	1.419104	0.149285	0.302999
C47	C	1.419090	0.149282	0.226772
C48	C	1.489057	0.165689	0.461867
C49	C	1.489080	0.165693	0.538091
C50	C	1.506167	0.102524	0.576223
C51	C	1.523259	0.039348	0.538120
C52	C	1.523244	0.039345	0.461894
C53	C	1.506136	0.102523	0.423770
C54	C	1.593191	0.055751	0.696985
C55	C	1.593190	0.055747	0.773215
C56	C	1.419180	0.149297	0.773214
C57	C	1.419174	0.149295	0.696986
C58	C	1.506187	0.102523	0.658876
H59	H	1.721286	-0.253702	0.000012
H60	H	0.911498	0.162269	0.110174
C61	C	1.115360	0.033621	0.127058
C62	C	1.203560	-0.022387	0.105836
C63	C	1.257713	-0.056041	0.167812
H64	H	1.049688	0.016796	0.155586
H65	H	1.157962	0.065613	0.154964
H66	H	1.160960	-0.054373	0.077942
H67	H	1.269256	-0.005580	0.077316
H68	H	1.300314	-0.024049	0.195717
H69	H	1.192031	-0.072862	0.196336
H70	H	1.317571	-0.094042	0.153421
C71	C	0.949447	-0.039391	-0.000018
C72	C	1.002883	-0.073371	-0.061988
C73	C	0.974673	-0.142690	-0.062058
H74	H	0.859120	-0.040424	-0.000454
H75	H	0.984417	-0.062335	0.042407
H76	H	0.967908	-0.050433	-0.104402
H77	H	1.093209	-0.072357	-0.061565
H78	H	1.009642	-0.165634	-0.019634
H79	H	0.884345	-0.143716	-0.062492
H80	H	1.010934	-0.165756	-0.104101
C81	C	1.115435	0.033827	-0.127084
C82	C	1.064047	0.068008	-0.189440
C83	C	1.118175	0.034584	-0.251542
H84	H	1.096734	-0.013274	-0.127611
H85	H	1.205720	0.035080	-0.126392
H86	H	0.973782	0.066747	-0.190132
H87	H	1.082746	0.115107	-0.188938
H88	H	1.208460	0.035838	-0.250849
H89	H	1.099470	-0.012515	-0.252061
H90	H	1.083325	0.057775	-0.293857
H91	H	0.911564	0.162276	-0.110175
C92	C	1.324829	0.200100	0.185301
C93	C	1.392518	0.242964	0.141510
C94	C	1.305730	0.289782	0.103289
H95	H	1.272981	0.228024	0.218834
H96	H	1.271898	0.174853	0.155534
H97	H	1.445427	0.268209	0.171274
H98	H	1.444360	0.215059	0.107963
H99	H	1.252799	0.264536	0.073521
H100	H	1.253887	0.317702	0.136827
H101	H	1.351644	0.318867	0.073566
C102	C	1.324597	0.199958	0.344474
C103	C	1.246776	0.162547	0.388273
C104	C	1.159705	0.209203	0.426497
H105	H	1.272646	0.227831	0.310943
H106	H	1.370280	0.229106	0.374236
H107	H	1.201096	0.133412	0.358514
H108	H	1.298690	0.134677	0.421818
H109	H	1.205388	0.238351	0.456259
H110	H	1.107764	0.237074	0.392961
H111	H	1.106901	0.183827	0.456224
C112	C	1.687627	0.004880	0.185527
C113	C	1.763807	-0.036090	0.235222
C114	C	1.850873	-0.082960	0.197254
H115	H	1.740689	0.030062	0.155772
H116	H	1.641943	-0.024317	0.155823
H117	H	1.809488	-0.006897	0.264913
H118	H	1.710780	-0.061287	0.264979
H119	H	1.805189	-0.112157	0.167550
H120	H	1.903925	-0.057772	0.167500
H121	H	1.902563	-0.110768	0.230966
H122	H	1.663977	0.017656	0.334031
H123	H	1.537172	-0.012090	0.569165
C124	C	1.063347	0.244324	0.000195
C125	C	1.011973	0.277939	0.062856
C126	C	1.040657	0.347175	0.063087
H127	H	1.027276	0.267650	-0.041745
H128	H	1.153737	0.245160	-0.000203
H129	H	0.921601	0.277107	0.063247
H130	H	1.048036	0.254634	0.104806
H131	H	1.131047	0.348010	0.062690
H132	H	1.004584	0.370494	0.021145
H133	H	1.005815	0.369989	0.105605
H134	H	1.537157	-0.012094	0.430873
H135	H	1.664038	0.017664	0.665955
C136	C	1.687811	0.004940	0.814460
C137	C	1.764028	-0.036004	0.764766
C138	C	1.851220	-0.082808	0.802736
H139	H	1.642264	-0.024284	0.844212
H140	H	1.740823	0.030195	0.844167
H141	H	1.711022	-0.061257	0.735072
H142	H	1.809603	-0.006799	0.735013
H143	H	1.904233	-0.057553	0.832442
H144	H	1.805663	-0.112028	0.832487
H145	H	1.902952	-0.110590	0.769024
C146	C	1.324666	0.199971	0.814681
C147	C	1.246837	0.162560	0.858475
C148	C	1.159760	0.209216	0.896696
H149	H	1.272721	0.227844	0.781148
H150	H	1.370344	0.229118	0.844446
H151	H	1.201161	0.133425	0.828713
H152	H	1.298745	0.134689	0.892022
H153	H	1.205439	0.238363	0.926461
H154	H	1.107825	0.237087	0.863157
H155	H	1.106951	0.183840	0.926420
H156	H	1.348328	0.187379	0.665957
H157	H	1.475171	0.217135	0.569109
H158	H	1.475120	0.217132	0.430826
H159	H	1.342782	-0.452512	0.076968
C160	C	1.693794	-0.334230	-0.088623
C161	C	1.676518	-0.350711	-0.161952
C162	C	1.766395	-0.320396	-0.204533
H163	H	1.777922	-0.351673	-0.073803
H164	H	1.682334	-0.285038	-0.082592
H165	H	1.687989	-0.399893	-0.167979
H166	H	1.592408	-0.333267	-0.176794
H167	H	1.754934	-0.271203	-0.198502
H168	H	1.850517	-0.337841	-0.189707
H169	H	1.754678	-0.331568	-0.254292
C170	C	1.689672	-0.485349	-0.088613
C171	C	1.623251	-0.522588	-0.138840
C172	C	1.711123	-0.564732	-0.181397
H173	H	1.740441	-0.517099	-0.058115
H174	H	1.743556	-0.456922	-0.113920
H175	H	1.569389	-0.551013	-0.113534
H176	H	1.572487	-0.490856	-0.169354
H177	H	1.765007	-0.536304	-0.206705
H178	H	1.761887	-0.596477	-0.150893
H179	H	1.666069	-0.589998	-0.215485
C180	C	1.744648	-0.561507	-0.000166
C181	C	1.814297	-0.583748	-0.062482
C182	C	1.931566	-0.555260	-0.062652
H183	H	1.792242	-0.576537	0.042012
H184	H	1.729353	-0.512058	-0.000200
H185	H	1.829596	-0.633186	-0.062442
H186	H	1.766742	-0.568718	-0.104670
H187	H	1.916271	-0.505811	-0.062686
H188	H	1.979147	-0.570293	-0.020472
H189	H	1.978832	-0.570341	-0.104936
C190	C	1.259752	-0.529298	-0.000173
C191	C	1.254081	-0.487248	-0.062483
C192	C	1.138841	-0.443276	-0.062651
H193	H	1.255544	-0.500656	0.042009
H194	H	1.189627	-0.556641	-0.000215
H195	H	1.324187	-0.459908	-0.062434
H196	H	1.258268	-0.515871	-0.104675
H197	H	1.068717	-0.470618	-0.062693
H198	H	1.134644	-0.414638	-0.020466
H199	H	1.134974	-0.414744	-0.104930
C200	C	1.322213	-0.309698	0.088445
C201	C	1.197504	-0.319096	0.066325
C202	C	1.109182	-0.277051	0.108701
H203	H	1.336090	-0.262178	0.082405
H204	H	1.333007	-0.322333	0.138240
H205	H	1.186715	-0.306457	0.016542
H206	H	1.183586	-0.366607	0.072367
H207	H	1.119976	-0.289686	0.158496
H208	H	1.123071	-0.229534	0.102658
H209	H	1.024558	-0.283427	0.093703
C210	C	1.267767	-0.233582	-0.000114
C211	C	1.259891	-0.274733	-0.062408
C212	C	1.142764	-0.303368	-0.062537
H213	H	1.199287	-0.197112	-0.000153
H214	H	1.262148	-0.261576	0.042094
H215	H	1.265496	-0.246742	-0.104605
H216	H	1.328342	-0.311215	-0.062382
H217	H	1.137146	-0.331361	-0.020330
H218	H	1.074294	-0.266893	-0.062575
H219	H	1.137410	-0.331297	-0.104800
H220	H	1.709254	-0.700669	-0.000032
H221	H	1.724827	-0.122252	0.000031
H222	H	1.287462	-0.672716	-0.000040
H223	H	1.303026	-0.094291	0.000001
