data_functionalizedCrystal
_audit_creation_method	'MofGen! by Chris Wilmer'
_symmetry_space_group_name_H-M	'P1'
_symmetry_Int_Tables_number	1
_symmetry_cell_setting	triclinic
loop_
_symmetry_equiv_pos_as_xyz
  x,y,z
_cell_length_a	12.594517
_cell_length_b	17.077402
_cell_length_c	17.077396
_cell_angle_alpha	90.029784
_cell_angle_beta	90.010060
_cell_angle_gamma	90.018770
loop_
_atom_site_label
_atom_site_type_symbol
_atom_site_fract_x
_atom_site_fract_y
_atom_site_fract_z
Zn1	Zn	1.627201	-0.312594	0.443638
Zn2	Zn	1.627075	-0.443869	0.312369
Zn3	Zn	1.449210	-0.312612	0.312407
Zn4	Zn	1.449166	-0.443813	0.443614
O5	O	1.538163	-0.378222	0.378007
O6	O	1.776131	-0.330025	0.426219
O7	O	1.603447	-0.426489	0.202527
O8	O	1.472892	-0.202763	0.329841
O9	O	1.776038	-0.426472	0.329776
O10	O	1.603661	-0.202750	0.426256
O11	O	1.472769	-0.330055	0.202555
O12	O	1.300258	-0.330000	0.329818
O13	O	1.472818	-0.426375	0.553464
O14	O	1.300226	-0.426392	0.426215
O15	O	1.603619	-0.329970	0.553482
O16	O	1.603405	-0.553709	0.329753
O17	O	1.472695	-0.553667	0.426178
C18	C	1.538061	-0.582170	0.377976
C19	C	1.538114	-0.669420	0.377989
C20	C	1.261622	-0.378192	0.378019
C21	C	1.143317	-0.378199	0.378043
C22	C	1.606244	-0.710405	0.327834
C23	C	1.606296	-0.792386	0.327854
C24	C	1.538212	-0.833379	0.378025
C25	C	1.470079	-0.792388	0.428186
C26	C	1.470033	-0.710409	0.428169
C27	C	1.470178	-0.963258	0.428215
C28	C	1.470222	-1.045242	0.428231
C29	C	1.606440	-1.045235	0.327900
C30	C	1.606394	-0.963256	0.327884
C31	C	1.538260	-0.922270	0.378043
C32	C	1.074077	-0.430729	0.430372
C33	C	1.003280	-0.359159	0.449684
C34	C	1.003315	-0.449828	0.358713
C35	C	1.074077	-0.306591	0.397392
C36	C	1.074120	-0.397307	0.306388
C37	C	1.003354	-0.325688	0.325673
C38	C	1.815784	-0.378252	0.377996
C39	C	1.934089	-0.378265	0.377991
C40	C	1.538228	-0.378164	0.582751
C41	C	1.538255	-0.378140	0.670001
C42	C	1.538295	-0.173478	0.378056
C43	C	1.538352	-0.086228	0.378076
C44	C	1.538160	-0.378223	0.174059
C45	C	1.538339	-0.378027	0.086810
C46	C	1.606366	-0.327937	0.711002
C47	C	1.606379	-0.327911	0.792982
C48	C	1.538285	-0.378092	0.833961
C49	C	1.470167	-0.428297	0.792954
C50	C	1.470150	-0.428318	0.710975
C51	C	1.470210	-0.428249	0.963825
C52	C	1.470228	-0.428229	1.045809
C53	C	1.606439	-0.327842	1.045831
C54	C	1.606422	-0.327864	0.963852
C55	C	1.538304	-0.378070	0.922852
H56	H	1.661681	-0.677034	0.286975
H57	H	1.414649	-0.825771	0.469039
H58	H	1.414557	-0.677039	0.469011
H59	H	1.661844	-0.287033	0.826361
H60	H	1.105134	-0.475067	0.474681
H61	H	1.661819	-0.287076	0.677643
O62	O	1.404224	-0.477044	1.085657
C63	C	1.389823	-0.582946	1.178244
C64	C	1.464698	-0.527731	1.133148
H65	H	1.438685	-0.623929	1.216663
H66	H	1.341137	-0.618887	1.134901
H67	H	1.334198	-0.546855	1.216595
H68	H	1.520388	-0.563762	1.094796
H69	H	1.513309	-0.491787	1.176533
H70	H	1.661828	-0.929879	0.287026
H71	H	1.661921	-1.078609	0.287061
H72	H	1.414802	-1.078617	0.469100
H73	H	0.972163	-0.343020	0.510258
H74	H	1.661875	-0.287006	0.930490
O75	O	1.403898	-0.923564	0.476969
C76	C	1.268847	-0.932218	0.576525
C77	C	1.343833	-0.977268	0.521341
H78	H	1.220280	-0.975618	0.612425
H79	H	1.213126	-0.893913	0.540489
H80	H	1.317684	-0.893763	0.617554
H81	H	1.295081	-1.015766	0.480301
H82	H	1.399557	-1.015525	0.557425
O83	O	1.111173	-0.234391	0.416980
C84	C	1.264987	-0.153344	0.438934
C85	C	1.223119	-0.235147	0.416756
H86	H	1.355500	-0.153923	0.438744
H87	H	1.235254	-0.136962	0.499824
H88	H	1.235191	-0.108566	0.394593
H89	H	1.252898	-0.279979	0.461044
H90	H	1.252844	-0.251462	0.355846
H91	H	0.972496	-0.281242	0.281398
O92	O	1.672495	-0.279086	1.085776
C93	C	1.732912	-0.234573	1.212080
C94	C	1.658038	-0.289814	1.166936
H95	H	1.721265	-0.243240	1.277705
H96	H	1.714249	-0.171266	1.196027
H97	H	1.818717	-0.248358	1.195919
H98	H	1.572208	-0.276101	1.183073
H99	H	1.676793	-0.353105	1.182993
O100	O	0.966050	-0.522019	0.339270
C101	C	0.812054	-0.602708	0.316695
C102	C	0.854111	-0.520920	0.338733
H103	H	0.721547	-0.601842	0.316237
H104	H	0.841027	-0.647420	0.361399
H105	H	0.842467	-0.619399	0.256073
H106	H	0.823716	-0.504155	0.399336
H107	H	0.825147	-0.476256	0.293979
O108	O	1.111227	-0.416718	0.234168
C109	C	1.115660	-0.513537	0.131525
C110	C	1.073579	-0.491650	0.213327
H111	H	1.085220	-0.574114	0.114644
H112	H	1.206169	-0.513963	0.132399
H113	H	1.086682	-0.468704	0.086947
H114	H	1.102479	-0.536461	0.257952
H115	H	0.983073	-0.491199	0.212389
O116	O	1.404025	-0.477106	0.924117
C117	C	1.268927	-0.576676	0.932742
C118	C	1.343825	-0.521389	0.977808
H119	H	1.220221	-0.612482	0.976131
H120	H	1.317735	-0.617782	0.894383
H121	H	1.213324	-0.540647	0.894338
H122	H	1.399443	-0.557355	1.016254
H123	H	1.294952	-0.480281	1.016117
H124	H	1.414720	-0.469152	0.826326
O125	O	1.672731	-0.832175	0.279302
C126	C	1.816707	-0.924502	0.269032
C127	C	1.741453	-0.879515	0.324069
H128	H	1.872273	-0.962800	0.305204
H129	H	1.865426	-0.881088	0.233259
H130	H	1.768074	-0.962964	0.227878
H131	H	1.790004	-0.841052	0.365271
H132	H	1.692731	-0.922972	0.359788
O133	O	1.403966	-0.477169	0.671266
C134	C	1.268847	-0.576723	0.679891
C135	C	1.343761	-0.521449	0.724957
H136	H	1.220136	-0.612525	0.723281
H137	H	1.317641	-0.617832	0.641527
H138	H	1.213249	-0.540684	0.641492
H139	H	1.399375	-0.557424	0.763398
H140	H	1.294901	-0.480337	0.763272
