data_functionalizedCrystal
_audit_creation_method	'MofGen! by Chris Wilmer'
_symmetry_space_group_name_H-M	'P1'
_symmetry_Int_Tables_number	1
_symmetry_cell_setting	triclinic
loop_
_symmetry_equiv_pos_as_xyz
  x,y,z
_cell_length_a	12.996460
_cell_length_b	12.837943
_cell_length_c	12.837942
_cell_angle_alpha	85.171060
_cell_angle_beta	90.005421
_cell_angle_gamma	89.995743
loop_
_atom_site_label
_atom_site_type_symbol
_atom_site_fract_x
_atom_site_fract_y
_atom_site_fract_z
O1	O	0.085548	-1.402337	0.272142
O2	O	0.418881	-1.069004	0.605476
O3	O	0.752214	-0.735671	0.938809
O4	O	0.085554	-1.099204	0.258699
O5	O	0.418887	-0.765871	0.592033
O6	O	0.752220	-0.432537	0.925366
O7	O	0.085544	-1.244049	0.113854
O8	O	0.418878	-0.910716	0.447187
O9	O	0.752211	-0.577382	0.780521
O10	O	0.085557	-1.257492	0.416988
O11	O	0.418890	-0.924159	0.750321
O12	O	0.752223	-0.590826	1.083654
O13	O	-0.085589	-1.244031	0.113844
O14	O	0.247744	-0.910698	0.447177
O15	O	0.581077	-0.577365	0.780510
O16	O	-0.085580	-1.099186	0.258689
O17	O	0.247753	-0.765853	0.592022
O18	O	0.581087	-0.432520	0.925355
O19	O	-0.085586	-1.402320	0.272132
O20	O	0.247747	-1.068986	0.605465
O21	O	0.581080	-0.735653	0.938799
Cu22	Cu	-0.101209	-1.250751	0.265409
Cu23	Cu	0.232124	-0.917418	0.598743
Cu24	Cu	0.565458	-0.584085	0.932076
Cu25	Cu	0.101176	-1.250772	0.265422
Cu26	Cu	0.434510	-0.917439	0.598755
Cu27	Cu	0.767843	-0.584106	0.932088
O28	O	-0.085577	-1.257475	0.416977
O29	O	0.247756	-0.924141	0.750310
O30	O	0.581090	-0.590808	1.083644
C31	C	-0.000022	-1.239499	0.074780
C32	C	0.333311	-0.906165	0.408113
C33	C	0.666645	-0.572832	0.741446
C34	C	-0.000020	-1.225954	-0.041635
C35	C	0.333313	-0.892621	0.291698
C36	C	0.666647	-0.559288	0.625031
C37	C	-0.000013	-1.060126	0.254153
C38	C	0.333321	-0.726793	0.587486
C39	C	0.666654	-0.393459	0.920819
C40	C	-0.000010	-0.943711	0.240608
C41	C	0.333323	-0.610378	0.573941
C42	C	0.666656	-0.277044	0.907275
N43	N	-0.243556	-1.250744	0.265401
N44	N	0.089777	-0.917411	0.598734
N45	N	0.423110	-0.584078	0.932067
C46	C	-0.663370	-1.250771	0.265423
C47	C	-0.330037	-0.917438	0.598756
C48	C	0.003296	-0.584104	0.932089
C49	C	-0.546565	-1.250761	0.265420
C50	C	-0.213232	-0.917427	0.598753
C51	C	0.120101	-0.584094	0.932086
C52	C	-0.453467	-1.250758	0.265413
C53	C	-0.120134	-0.917425	0.598746
C54	C	0.213200	-0.584092	0.932079
C55	C	-0.336654	-1.250747	0.265408
C56	C	-0.003321	-0.917414	0.598741
C57	C	0.330012	-0.584080	0.932075
N58	N	0.243524	-1.250787	0.265423
N59	N	0.576857	-0.917453	0.598756
N60	N	0.910190	-0.584120	0.932090
C61	C	-0.000018	-1.441398	0.276679
C62	C	0.333316	-1.108064	0.610012
C63	C	0.666649	-0.774731	0.943345
C64	C	-0.000013	-1.557813	0.290223
C65	C	0.333320	-1.224479	0.623556
C66	C	0.666653	-0.891146	0.956890
C67	C	-0.000018	-0.718837	0.403437
C68	C	0.333315	-0.385503	0.736771
C69	C	0.666648	-0.052170	1.070104
C70	C	-0.000017	-0.609454	0.390716
C71	C	0.333316	-0.276121	0.724049
C72	C	0.666650	0.057212	1.057383
C73	C	-0.000014	-0.615562	0.202445
C74	C	0.333320	-0.282228	0.535778
C75	C	0.666653	0.051105	0.869112
C76	C	-0.000015	-0.724944	0.215166
C77	C	0.333318	-0.391611	0.548500
C78	C	0.666652	-0.058277	0.881833
C79	C	-0.000016	-0.776578	0.315666
C80	C	0.333317	-0.443244	0.648999
C81	C	0.666651	-0.109911	0.982332
C82	C	-0.000010	-0.885962	0.328386
C83	C	0.333324	-0.552629	0.661720
C84	C	0.666657	-0.219295	0.995053
C85	C	-0.000014	-0.892067	0.140116
C86	C	0.333319	-0.558734	0.473449
C87	C	0.666653	-0.225401	0.806783
C88	C	-0.000013	-0.782685	0.127395
C89	C	0.333321	-0.449352	0.460728
C90	C	0.666654	-0.116018	0.794061
C91	C	-0.000002	-1.388784	-0.266510
C92	C	0.333332	-1.055450	0.066824
C93	C	0.666665	-0.722117	0.400157
C94	C	0.000000	-1.376062	-0.375892
C95	C	0.333334	-1.042729	-0.042559
C96	C	0.666667	-0.709396	0.290775
C97	C	-0.000007	-1.187791	-0.369785
C98	C	0.333327	-0.854458	-0.036451
C99	C	0.666660	-0.521125	0.296882
C100	C	-0.000009	-1.200513	-0.260402
C101	C	0.333325	-0.867179	0.072931
C102	C	0.666658	-0.533846	0.406264
C103	C	-0.000008	-1.301012	-0.208769
C104	C	0.333326	-0.967679	0.124565
C105	C	0.666659	-0.634345	0.457898
C106	C	-0.000017	-1.313732	-0.099384
C107	C	0.333316	-0.980399	0.233949
C108	C	0.666650	-0.647066	0.567283
C109	C	-0.000017	-1.125462	-0.093279
C110	C	0.333317	-0.792129	0.240054
C111	C	0.666650	-0.458796	0.573388
C112	C	-0.000015	-1.112741	-0.202661
C113	C	0.333319	-0.779408	0.130672
C114	C	0.666652	-0.446074	0.464005
C115	C	-0.000008	-1.262025	0.456051
C116	C	0.333325	-0.928692	0.789385
C117	C	0.666658	-0.595358	1.122718
C118	C	-0.000004	-1.275569	0.572467
C119	C	0.333330	-0.942236	0.905800
C120	C	0.666663	-0.608903	1.239133
H121	H	-0.000012	-0.928000	0.410218
H122	H	0.333321	-0.594667	0.743551
H123	H	0.666655	-0.261334	1.076884
N124	N	0.000001	-1.079406	-0.425490
N125	N	0.333334	-0.746073	-0.092156
N126	N	0.666667	-0.412739	0.241177
H127	H	-0.063439	-1.040455	-0.405135
H128	H	0.269895	-0.707122	-0.071801
H129	H	0.603228	-0.373789	0.261532
H130	H	0.063482	-1.040559	-0.405087
H131	H	0.396815	-0.707225	-0.071753
H132	H	0.730149	-0.373892	0.261580
H133	H	-0.000020	-1.395564	-0.057346
H134	H	0.333313	-1.062231	0.275988
H135	H	0.666647	-0.728897	0.609321
H136	H	-0.000011	-1.470614	-0.224469
H137	H	0.333322	-1.137281	0.108865
H138	H	0.666656	-0.803948	0.442198
H139	H	-0.000017	-0.760878	0.485268
H140	H	0.333316	-0.427544	0.818601
H141	H	0.666649	-0.094211	1.151935
N142	N	0.000009	-1.470729	-0.438172
N143	N	0.333342	-1.137396	-0.104839
N144	N	0.666676	-0.804062	0.228495
H145	H	0.000009	-1.536321	-0.388861
H146	H	0.333343	-1.202988	-0.055527
H147	H	0.666676	-0.869654	0.277806
H148	H	-0.063432	-1.469549	-0.483696
H149	H	0.269901	-1.136215	-0.150362
H150	H	0.603234	-0.802882	0.182971
H151	H	-0.000011	-1.030917	-0.244717
H152	H	0.333322	-0.697583	0.088617
H153	H	0.666655	-0.364250	0.421950
N154	N	-0.000060	-0.547174	0.485383
N155	N	0.333274	-0.213841	0.818716
N156	N	0.666607	0.119492	1.152049
H157	H	-0.000073	-0.596486	0.550975
H158	H	0.333260	-0.263152	0.884308
H159	H	0.666594	0.070181	1.217642
H160	H	0.063370	-0.501648	0.484238
H161	H	0.396704	-0.168315	0.817572
H162	H	0.730037	0.165019	1.150905
N163	N	-0.000020	-1.030791	-0.030994
N164	N	0.333313	-0.697458	0.302339
N165	N	0.666646	-0.364124	0.635672
H166	H	0.063417	-0.987424	-0.048685
H167	H	0.396751	-0.654091	0.284648
H168	H	0.730084	-0.320758	0.617981
H169	H	-0.063504	-0.987501	-0.048732
H170	H	0.269830	-0.654168	0.284602
H171	H	0.603163	-0.320835	0.617935
N172	N	-0.000042	-0.559862	0.094057
N173	N	0.333291	-0.226529	0.427390
N174	N	0.666624	0.106804	0.760724
H175	H	-0.000052	-0.481808	0.099322
H176	H	0.333281	-0.148474	0.432655
H177	H	0.666615	0.184859	0.765989
H178	H	0.063394	-0.580306	0.055164
H179	H	0.396728	-0.246973	0.388498
H180	H	0.730061	0.086361	0.721831
H181	H	-0.000024	-0.740630	0.045571
H182	H	0.333310	-0.407296	0.378904
H183	H	0.666643	-0.073963	0.712237
H184	H	-0.000005	-0.939092	0.068646
H185	H	0.333328	-0.605758	0.401979
H186	H	0.666662	-0.272425	0.735312
