data_functionalizedCrystal
_audit_creation_method	'MofGen! by Chris Wilmer'
_symmetry_space_group_name_H-M	'P1'
_symmetry_Int_Tables_number	1
_symmetry_cell_setting	triclinic
loop_
_symmetry_equiv_pos_as_xyz
  x,y,z
_cell_length_a	14.044220
_cell_length_b	11.026607
_cell_length_c	12.503572
_cell_angle_alpha	85.701682
_cell_angle_beta	93.835250
_cell_angle_gamma	100.887447
loop_
_atom_site_label
_atom_site_type_symbol
_atom_site_fract_x
_atom_site_fract_y
_atom_site_fract_z
O1	O	-1.312909	-0.291527	-0.089196
O2	O	-1.035106	-0.280770	-0.089224
O3	O	-1.150983	-0.107003	-0.089208
O4	O	-1.197032	-0.465294	-0.089211
O5	O	-1.142273	-0.120095	0.089433
O6	O	-1.026395	-0.293861	0.089417
O7	O	-1.304198	-0.304619	0.089445
Cu8	Cu	-1.164501	-0.300436	0.105742
Cu9	Cu	-1.174803	-0.284953	-0.105521
O10	O	-1.188321	-0.478386	0.089429
C11	C	-0.994633	-0.282607	0.000093
C12	C	-0.887011	-0.268562	0.000082
C13	C	-1.138133	-0.067419	0.000110
C14	C	-1.112809	0.070037	0.000104
C15	C	-1.344671	-0.302782	0.000126
C16	C	-1.452293	-0.316826	0.000129
C17	C	-0.689968	-0.242889	0.000104
C18	C	-0.649330	-0.342494	0.000108
C19	C	-0.539689	-0.328209	0.000120
C20	C	-0.799619	-0.257172	0.000092
C21	C	-1.201172	-0.517970	0.000109
C22	C	-1.226496	-0.655425	0.000108
N23	N	-1.157263	-0.311325	0.254334
C24	C	-1.182733	0.136273	0.000109
C25	C	-1.156561	0.278341	0.000103
N26	N	-1.182047	-0.274054	-0.254112
C27	C	-1.146617	-0.327355	0.473447
C28	C	-1.192691	-0.258029	0.526781
C29	C	-1.186767	-0.266948	0.648703
C30	C	-1.152539	-0.318437	0.351514
H31	H	-0.696883	-0.438496	0.000102
C32	C	-1.333555	0.279108	0.000120
N33	N	-1.414190	0.229798	0.000130
H34	H	-1.102726	-0.393402	0.519349
C35	C	-1.005756	0.135511	0.000095
N36	N	-0.925121	0.184824	0.000091
H37	H	-1.236587	-0.191979	0.480874
H38	H	-1.261973	0.087803	0.000124
H39	H	-0.642418	-0.146894	0.000111
H40	H	-1.077316	0.326806	0.000088
