data_functionalizedCrystal
_audit_creation_method	'MofGen! by Chris Wilmer'
_symmetry_space_group_name_H-M	'P1'
_symmetry_Int_Tables_number	1
_symmetry_cell_setting	triclinic
loop_
_symmetry_equiv_pos_as_xyz
  x,y,z
_cell_length_a	11.169417
_cell_length_b	10.685194
_cell_length_c	11.169409
_cell_angle_alpha	94.405531
_cell_angle_beta	90.019513
_cell_angle_gamma	94.378522
loop_
_atom_site_label
_atom_site_type_symbol
_atom_site_fract_x
_atom_site_fract_y
_atom_site_fract_z
Zn1	Zn	1.798363	-0.502272	0.641880
Zn2	Zn	1.782871	-0.713351	0.425794
Zn3	Zn	1.597643	-0.502350	0.441210
Zn4	Zn	1.582283	-0.713250	0.626447
O5	O	1.690290	-0.607806	0.533833
O6	O	1.964257	-0.530282	0.613223
O7	O	1.758245	-0.685437	0.259884
O8	O	1.637180	-0.325740	0.480740
O9	O	1.952875	-0.685361	0.454466
O10	O	1.784648	-0.325682	0.628171
O11	O	1.622159	-0.530415	0.271210
O12	O	1.427656	-0.530317	0.465775
O13	O	1.611001	-0.685188	0.796450
O14	O	1.416371	-0.685264	0.601868
O15	O	1.769754	-0.530183	0.807788
O16	O	1.743351	-0.889938	0.439501
O17	O	1.595979	-0.889863	0.586920
C18	C	1.378466	-0.607789	0.533821
C19	C	1.245065	-0.607812	0.533841
C20	C	1.666350	-0.935691	0.509889
C21	C	1.656218	-1.075961	0.499686
C22	C	2.003331	-0.607824	0.533846
C23	C	2.136730	-0.607831	0.533852
C24	C	1.690392	-0.607666	0.846886
C25	C	1.690436	-0.607606	0.980290
C26	C	1.714356	-0.278640	0.557897
C27	C	1.724611	-0.138370	0.568151
C28	C	1.690264	-0.607854	0.222005
C29	C	1.690478	-0.607558	0.088627
H30	H	1.790919	-1.084491	0.634579
H31	H	1.589897	-1.129848	0.433264
