data_functionalizedCrystal
_audit_creation_method	'MofGen! by Chris Wilmer'
_symmetry_space_group_name_H-M	'P1'
_symmetry_Int_Tables_number	1
_symmetry_cell_setting	triclinic
loop_
_symmetry_equiv_pos_as_xyz
  x,y,z
_cell_length_a	23.096457
_cell_length_b	23.096457
_cell_length_c	14.809374
_cell_angle_alpha	67.427815
_cell_angle_beta	89.998298
_cell_angle_gamma	60.000185
loop_
_atom_site_label
_atom_site_type_symbol
_atom_site_fract_x
_atom_site_fract_y
_atom_site_fract_z
Zr1	Zr	0.565395	0.618510	-0.107930
O2	O	0.482214	0.720765	-0.239250
O3	O	0.590893	0.503404	-0.067678
O4	O	0.603001	0.599979	-0.239264
O5	O	0.460557	0.643288	0.067692
O6	O	0.698282	0.599980	-0.239269
O7	O	0.470106	0.624190	-0.067664
O8	O	0.676622	0.427225	0.067668
O9	O	0.482216	0.816043	-0.239245
O10	O	0.672876	0.555509	-0.050508
O11	O	0.594643	0.569761	0.050510
O12	O	0.608899	0.683466	-0.151511
O13	O	0.530665	0.697718	-0.050492
Zr14	Zr	0.702127	0.648971	0.107940
Zr15	Zr	0.717357	0.618511	-0.107937
Zr16	Zr	0.550165	0.648970	0.107948
Zr17	Zr	0.565398	0.770468	-0.107920
Zr18	Zr	0.702124	0.497013	0.107931
O19	O	0.676629	0.764077	0.067688
O20	O	0.698284	0.720767	-0.239262
O21	O	0.460559	0.764075	0.067699
O22	O	0.785308	0.546717	0.239261
O23	O	0.806963	0.503406	-0.067689
O24	O	0.569238	0.546714	0.239272
O25	O	0.806965	0.624193	-0.067682
O26	O	0.664521	0.667502	0.239274
O27	O	0.569240	0.667501	0.239279
O28	O	0.797416	0.643292	0.067674
O29	O	0.603006	0.816044	-0.239251
O30	O	0.664516	0.451437	0.239261
O31	O	0.785306	0.451438	0.239255
O32	O	0.797411	0.427226	0.067661
O33	O	0.470110	0.840255	-0.067651
O34	O	0.590900	0.840256	-0.067657
O35	O	0.658623	0.584015	0.151521
O36	O	0.736857	0.569763	0.050503
O37	O	0.672879	0.697720	-0.050500
O38	O	0.594646	0.711972	0.050518
C39	C	0.633757	0.443663	-0.000006
C40	C	0.633756	0.379153	-0.000010
C41	C	0.674588	0.341412	-0.052744
C42	C	0.674594	0.280791	-0.052736
C43	C	0.633755	0.257923	-0.000007
C44	C	0.592921	0.295670	0.052738
C45	C	0.592921	0.356285	0.052737
N46	N	0.573867	0.194495	-0.007316
N47	N	0.573868	0.136914	-0.007320
C48	C	0.633754	0.075292	0.000002
N49	N	0.693638	0.073432	0.007309
N50	N	0.693636	0.131020	0.007307
C51	C	0.633751	0.192196	0.000001
C52	C	0.674597	-0.028183	-0.052726
C53	C	0.674605	-0.088807	-0.052710
C54	C	0.592925	-0.073923	0.052757
C55	C	0.592923	-0.013304	0.052749
C56	C	0.633758	0.009565	0.000002
C57	C	0.443680	0.633739	0.000015
C58	C	0.379168	0.633738	0.000018
C59	C	0.382259	0.566947	0.052731
C60	C	0.321643	0.566946	0.052735
C61	C	0.257938	0.633738	0.000007
C62	C	0.254850	0.700539	-0.052708
C63	C	0.315465	0.700539	-0.052702
N64	N	0.141198	0.676885	-0.085809
N65	N	0.083619	0.676880	-0.085812
C66	C	0.075307	0.633743	-0.000010
N67	N	0.126756	0.590598	0.085793
N68	N	0.184341	0.590600	0.085794
C69	C	0.192208	0.633746	-0.000004
C70	C	0.012673	0.566947	0.052712
C71	C	-0.047945	0.566950	0.052719
C72	C	-0.114737	0.700544	-0.052734
C73	C	-0.054119	0.700540	-0.052731
C74	C	0.009583	0.633739	-0.000011
C75	C	0.823842	0.633742	-0.000005
C76	C	0.888354	0.633743	-0.000008
C77	C	0.652811	0.595639	-0.270024
C78	C	0.659277	0.582708	-0.361670
C79	C	0.633765	0.823818	0.000016
C80	C	0.633766	0.888328	0.000020
C81	C	0.630422	0.640418	-0.452632
C82	C	0.637104	0.627055	-0.547354
C83	C	0.614711	0.671842	0.270034
C84	C	0.608245	0.684773	0.361680
C85	C	0.823838	0.443665	-0.000016
C86	C	0.888348	0.379155	-0.000023
C87	C	0.614707	0.481765	0.270023
C88	C	0.608240	0.430185	0.361665
C89	C	0.804788	0.481766	0.270013
C90	C	0.862833	0.430188	0.361651
C91	C	0.462734	0.785715	-0.270003
C92	C	0.404689	0.837293	-0.361641
C93	C	0.443684	0.823816	0.000026
C94	C	0.379174	0.888326	0.000034
C95	C	0.652815	0.785716	-0.270013
C96	C	0.659282	0.837296	-0.361655
C97	C	0.885247	0.341419	-0.052763
C98	C	0.945857	0.280811	-0.052790
C99	C	1.009567	0.257937	-0.000071
C100	C	1.012667	0.295679	0.052670
C101	C	0.952059	0.356290	0.052690
C102	C	0.638599	0.413405	0.457436
C103	C	0.632520	0.364950	0.543552
C104	C	0.596085	0.333273	0.533893
C105	C	0.565721	0.350058	0.438111
C106	C	0.571797	0.398516	0.351998
C107	C	0.930934	0.398526	0.351955
C108	C	0.985480	0.350070	0.438051
C109	C	0.971923	0.333272	0.533842
C110	C	0.903814	0.364939	0.543536
C111	C	0.849269	0.413399	0.457441
C112	C	0.336587	0.868962	-0.351945
C113	C	0.282042	0.917437	-0.438041
C114	C	0.295599	0.934238	-0.533832
C115	C	0.363708	0.902567	-0.543526
C116	C	0.418252	0.854097	-0.457431
C117	C	0.382276	0.926067	0.052764
C118	C	0.321668	0.986689	0.052767
C119	C	0.257957	1.009564	0.000045
C120	C	0.254857	0.971820	-0.052691
C121	C	0.315465	0.911203	-0.052700
C122	C	0.695722	0.868958	-0.351964
C123	C	0.701812	0.917416	-0.438063
C124	C	0.671457	0.934213	-0.533851
C125	C	0.635015	0.902545	-0.543540
C126	C	0.628930	0.854085	-0.457442
H127	H	0.707860	-0.119541	-0.095649
N128	N	-0.057286	0.768772	-0.106602
N129	N	-0.082348	0.805357	-0.199570
H130	H	-0.084588	0.853550	-0.237618
H131	H	0.202976	0.990455	-0.095616
H132	H	-0.166605	0.754927	-0.095667
H133	H	0.536055	0.324259	0.430262
N134	N	0.322740	0.851809	-0.254097
N135	N	0.371438	0.808537	-0.177224
H136	H	0.361654	0.796427	-0.108119
N137	N	0.589888	0.283761	0.621851
N138	N	0.557362	0.255472	0.613224
H139	H	0.552990	0.220501	0.675346
N140	N	-0.044772	0.498710	0.106565
N141	N	-0.011571	0.445856	0.084190
H142	H	-0.009327	0.397659	0.122219
N143	N	0.674311	0.552650	-0.537593
N144	N	0.736595	0.509263	-0.492728
H145	H	0.762873	0.456714	-0.485834
N146	N	0.239871	0.983741	-0.621759
N147	N	0.197295	0.968097	-0.636626
H148	H	0.157933	1.003057	-0.698722
H149	H	1.064549	0.277046	0.095591
N150	N	0.716297	0.364776	-0.106615
N151	N	0.688890	0.429392	-0.176042
H152	H	0.718348	0.445894	-0.214088
N153	N	0.212480	0.949776	-0.428106
N154	N	0.200390	0.934759	-0.342569
H155	H	0.151264	0.957596	-0.335549
H156	H	0.600775	0.699720	-0.460383
N157	N	0.377563	0.919712	-0.641370
N158	N	0.438370	0.891429	-0.650027
H159	H	0.448155	0.903533	-0.719131
H160	H	0.578595	0.744079	-0.646080
H161	H	0.473703	0.828311	-0.465338
N162	N	0.551193	0.272329	0.106594
N163	N	0.514734	0.306040	0.153672
H164	H	0.485264	0.289556	0.191712
N165	N	1.027642	0.283754	0.621780
N166	N	1.033761	0.224846	0.683746
H167	H	1.073116	0.189870	0.745850
N168	N	0.077741	0.498708	0.106563
N169	N	0.080488	0.439076	0.153630
H170	H	0.126441	0.390880	0.191661
N171	N	0.696477	0.508317	-0.351952
N172	N	0.701854	0.497567	-0.428911
H173	H	0.728128	0.445026	-0.422047
H174	H	0.312929	0.880475	-0.095636
H175	H	0.941987	0.412195	0.273965
H176	H	0.434146	0.907448	0.095703
H177	H	0.833377	0.360040	-0.095705
N178	N	0.889961	0.347783	0.641381
N179	N	0.856530	0.398754	0.667101
H180	H	0.846748	0.386633	0.736206
N181	N	0.324781	0.498724	0.106581
N182	N	0.294335	0.491955	0.176005
H183	H	0.296552	0.443773	0.214033
H184	H	0.208612	1.058924	0.000060
N185	N	0.942668	0.242274	-0.106670
N186	N	0.885776	0.262704	-0.153723
H187	H	0.883521	0.235489	-0.191777
N188	N	0.726737	0.851815	-0.254133
N189	N	0.759274	0.880093	-0.245513
H190	H	0.781185	0.867985	-0.176422
N191	N	0.324857	1.025228	0.106642
N192	N	0.381747	1.004786	0.153717
H193	H	0.384003	1.032003	0.191767
N194	N	0.739040	0.949751	-0.428134
N195	N	0.766130	0.934749	-0.342599
H196	H	0.792423	0.957585	-0.335583
N197	N	1.071461	0.195967	-0.000009
N198	N	1.068669	0.162246	-0.047038
H199	H	1.112377	0.118457	-0.046958
H200	H	0.676416	0.973674	-0.603949
H201	H	0.610302	0.916230	-0.621543
H202	H	0.668268	0.439193	0.465320
H203	H	0.954593	0.387008	0.095643
N204	N	0.591702	0.821752	-0.467368
N205	N	0.564604	0.836762	-0.552903
H206	H	0.538310	0.813929	-0.559921
H207	H	0.547076	0.412171	0.274020
N208	N	0.716311	0.242237	-0.106608
N209	N	0.752769	0.262661	-0.153694
H210	H	0.782232	0.235434	-0.191742
N211	N	0.663554	0.347808	0.641373
N212	N	0.727188	0.317611	0.667037
H213	H	0.749109	0.305504	0.736121
N214	N	0.551207	0.394830	0.106615
N215	N	0.514751	0.374404	0.153700
H216	H	0.485289	0.401627	0.191752
N217	N	0.716315	-0.004820	-0.106577
N218	N	0.716309	0.049302	-0.106574
H219	H	0.745774	0.065800	-0.144605
N220	N	0.551228	-0.097298	0.106639
N221	N	0.551242	-0.151427	0.106650
H222	H	0.521798	-0.167944	0.144715
H223	H	0.559670	0.017428	0.095687
N224	N	1.055042	0.317735	0.428116
N225	N	1.067132	0.332736	0.342580
H226	H	1.116258	0.309901	0.335559
H227	H	0.434125	0.512551	0.095654
H228	H	0.202978	0.754922	-0.095638
H229	H	0.312944	0.754931	-0.095625
H230	H	0.793819	0.439172	0.465350
