data_functionalizedCrystal
_audit_creation_method	'MofGen! by Chris Wilmer'
_symmetry_space_group_name_H-M	'P1'
_symmetry_Int_Tables_number	1
_symmetry_cell_setting	triclinic
loop_
_symmetry_equiv_pos_as_xyz
  x,y,z
_cell_length_a	16.120484
_cell_length_b	14.908571
_cell_length_c	14.908308
_cell_angle_alpha	89.824947
_cell_angle_beta	95.986071
_cell_angle_gamma	90.212688
loop_
_atom_site_label
_atom_site_type_symbol
_atom_site_fract_x
_atom_site_fract_y
_atom_site_fract_z
Zn1	Zn	-0.434923	-1.320097	-0.609960
Zn2	Zn	-0.566744	-1.321040	-0.466383
Zn3	Zn	-0.418915	-1.179340	-0.450134
Zn4	Zn	-0.565754	-1.162126	-0.607984
O5	O	-0.496584	-1.245651	-0.533615
O6	O	-0.459523	-1.445636	-0.598542
O7	O	-0.540849	-1.309843	-0.338080
O8	O	-0.304418	-1.204822	-0.465363
O9	O	-0.556371	-1.446329	-0.493056
O10	O	-0.316179	-1.308235	-0.582786
O11	O	-0.432240	-1.205736	-0.326142
O12	O	-0.431280	-1.051643	-0.463446
O13	O	-0.554684	-1.175482	-0.734394
O14	O	-0.539162	-1.038995	-0.579418
O15	O	-0.458562	-1.291543	-0.735846
O16	O	-0.683233	-1.293150	-0.491140
O17	O	-0.682506	-1.176396	-0.595173
C18	C	-0.483377	-1.012801	-0.519455
C19	C	-0.477748	-0.913184	-0.513419
C20	C	-0.713110	-1.233031	-0.544726
C21	C	-0.805747	-1.227712	-0.549515
C22	C	-0.508298	-1.231487	-0.768743
C23	C	-0.513290	-1.225451	-0.868941
C24	C	-0.975358	-1.218005	-0.558276
C25	C	-1.016980	-1.273456	-0.508979
C26	C	-1.111356	-1.268055	-0.513854
C27	C	-0.880972	-1.223405	-0.553403
C28	C	-0.279214	-1.258344	-0.522482
C29	C	-0.186584	-1.263752	-0.517738
C30	C	-0.509843	-1.479410	-0.547832
C31	C	-0.515493	-1.579025	-0.553890
C32	C	-0.579666	-0.712871	-0.622692
C33	C	-0.574380	-0.619272	-0.617025
C34	C	-0.461887	-0.632384	-0.496421
C35	C	-0.467173	-0.725983	-0.502089
C36	C	-0.526065	-0.766223	-0.565226
C37	C	-0.531355	-0.859824	-0.570888
C38	C	-0.418858	-0.872935	-0.450290
C39	C	-0.413572	-0.779335	-0.444622
C40	C	-0.422560	-1.334963	-1.058735
C41	C	-0.427248	-1.329294	-1.152880
C42	C	-0.527348	-1.208443	-1.151376
C43	C	-0.522661	-1.214111	-1.057231
C44	C	-0.470266	-1.277374	-1.010914
C45	C	-0.465583	-1.283046	-0.916769
C46	C	-0.565679	-1.162191	-0.915266
C47	C	-0.570366	-1.156523	-1.009410
C48	C	-0.484858	-1.259815	-0.299402
C49	C	-0.479641	-1.266038	-0.199204
H50	H	-1.010601	-1.166480	-0.604138
H51	H	-0.570005	-1.156937	-1.189103
O52	O	-0.975070	-1.335006	-0.454237
C53	C	-1.032355	-1.385485	-0.409336
H54	H	-1.096432	-1.382859	-0.449594
H55	H	-1.036366	-1.356318	-0.339326
C56	C	-0.924255	-1.486797	-0.351035
C57	C	-1.002954	-1.483579	-0.400484
H58	H	-0.906118	-1.547305	-0.345571
H59	H	-0.885660	-1.452787	-0.381283
H60	H	-0.927608	-1.462487	-0.292699
H61	H	-0.999597	-1.507878	-0.458823
H62	H	-1.041548	-1.517595	-0.370246
O63	O	-0.636788	-0.751925	-0.684138
C64	C	-0.621906	-0.724696	-0.771704
H65	H	-0.554115	-0.702553	-0.771400
H66	H	-0.664725	-0.666360	-0.794195
C67	C	-0.722642	-0.830866	-0.837758
C68	C	-0.639379	-0.803676	-0.837386
H69	H	-0.733424	-0.879582	-0.878276
H70	H	-0.732672	-0.849209	-0.778764
H71	H	-0.758316	-0.782246	-0.856498
H72	H	-0.603707	-0.852293	-0.818635
H73	H	-0.629344	-0.785344	-0.896379
H74	H	-0.365621	-0.746559	-0.393220
O75	O	-0.588473	-0.898874	-0.632340
C76	C	-0.573577	-0.871643	-0.719901
H77	H	-0.505784	-0.849504	-0.719586
H78	H	-0.616391	-0.813304	-0.742396
C79	C	-0.674314	-0.977804	-0.785975
C80	C	-0.591047	-0.950619	-0.785589
H81	H	-0.685093	-1.026518	-0.826495
H82	H	-0.684352	-0.996148	-0.726984
H83	H	-0.709982	-0.929181	-0.804718
H84	H	-0.555380	-0.999239	-0.766835
H85	H	-0.581003	-0.932285	-0.844579
O86	O	-0.626332	-0.567405	-0.672933
C87	C	-0.578811	-0.512503	-0.725511
H88	H	-0.515057	-0.544185	-0.729531
H89	H	-0.570507	-0.443407	-0.693198
C90	C	-0.702543	-0.464160	-0.816229
C91	C	-0.624242	-0.503075	-0.821172
H92	H	-0.730568	-0.458340	-0.875235
H93	H	-0.734560	-0.501145	-0.780804
H94	H	-0.695612	-0.406584	-0.789297
H95	H	-0.631175	-0.560654	-0.848092
H96	H	-0.592227	-0.466099	-0.856603
H97	H	-0.413934	-0.599604	-0.445024
H98	H	-0.375214	-0.916384	-0.403494
O99	O	-0.414563	-1.344403	-0.871804
C100	C	-0.331544	-1.328283	-0.889382
H101	H	-0.324573	-1.255371	-0.910692
H102	H	-0.315202	-1.374309	-0.945836
C103	C	-0.280908	-1.436541	-0.777363
C104	C	-0.272345	-1.346988	-0.803529
H105	H	-0.244391	-1.448083	-0.724407
H106	H	-0.336840	-1.447405	-0.765522
H107	H	-0.267292	-1.474886	-0.824415
H108	H	-0.285972	-1.308645	-0.756482
H109	H	-0.216414	-1.336118	-0.815360
O110	O	-0.371601	-1.396440	-1.013875
C111	C	-0.330519	-1.446075	-1.076275
H112	H	-0.328890	-1.405496	-1.141006
H113	H	-0.365398	-1.511756	-1.091988
C114	C	-0.242727	-1.516226	-0.956265
C115	C	-0.240721	-1.466383	-1.035766
H116	H	-0.187336	-1.528757	-0.931278
H117	H	-0.270406	-1.482789	-0.914225
H118	H	-0.271797	-1.570954	-0.969371
H119	H	-0.211660	-1.411652	-1.022658
H120	H	-0.213034	-1.499812	-1.077804
O121	O	-0.380813	-1.385111	-1.199360
C122	C	-0.326821	-1.333946	-1.247974
H123	H	-0.316264	-1.265367	-1.215049
H124	H	-0.355964	-1.325062	-1.320458
C125	C	-0.255703	-1.466923	-1.288074
C126	C	-0.242731	-1.382696	-1.247632
H127	H	-0.203833	-1.496996	-1.287868
H128	H	-0.292080	-1.501395	-1.255326
H129	H	-0.279991	-1.459509	-1.348474
H130	H	-0.218453	-1.390112	-1.187230
H131	H	-0.206348	-1.348226	-1.280370
O132	O	-0.621358	-1.095195	-1.054460
C133	C	-0.680771	-1.139801	-1.114796
H134	H	-0.688504	-1.211796	-1.090980
H135	H	-0.658728	-1.140094	-1.185012
C136	C	-0.755501	-1.002455	-1.147276
C137	C	-0.765004	-1.090878	-1.118021
H138	H	-0.807460	-0.972275	-1.149269
H139	H	-0.715472	-0.972401	-1.106629
H140	H	-0.737130	-1.002711	-1.205787
H141	H	-0.783365	-1.090621	-1.059507
H142	H	-0.805038	-1.120931	-1.158658
H143	H	-0.604527	-1.115300	-0.876320
