data_functionalizedCrystal
_audit_creation_method	'MofGen! by Chris Wilmer'
_symmetry_space_group_name_H-M	'P1'
_symmetry_Int_Tables_number	1
_symmetry_cell_setting	triclinic
loop_
_symmetry_equiv_pos_as_xyz
  x,y,z
_cell_length_a	10.489746
_cell_length_b	11.792241
_cell_length_c	10.268362
_cell_angle_alpha	89.994572
_cell_angle_beta	90.001649
_cell_angle_gamma	95.632642
loop_
_atom_site_label
_atom_site_type_symbol
_atom_site_fract_x
_atom_site_fract_y
_atom_site_fract_z
O1	O	1.693504	-0.160166	0.108213
O2	O	2.193504	0.339834	0.608213
O3	O	1.322258	-0.175191	0.108235
O4	O	1.822258	0.324809	0.608235
O5	O	1.516890	-0.002532	0.108215
O6	O	2.016890	0.497468	0.608215
O7	O	1.498872	-0.332824	0.108234
O8	O	1.998872	0.167176	0.608234
O9	O	1.516873	-0.002525	-0.108386
O10	O	2.016873	0.497475	0.391614
O11	O	1.322241	-0.175184	-0.108365
O12	O	1.822241	0.324816	0.391635
O13	O	1.693487	-0.160158	-0.108387
O14	O	2.193487	0.339842	0.391613
Cu15	Cu	1.507863	-0.167670	-0.128154
Cu16	Cu	2.007863	0.332330	0.371846
Cu17	Cu	1.507883	-0.167679	0.128002
Cu18	Cu	2.007883	0.332321	0.628002
O19	O	1.498855	-0.332817	-0.108367
O20	O	1.998855	0.167183	0.391633
C21	C	1.274722	-0.174051	-0.000062
C22	C	1.774722	0.325949	0.499938
C23	C	1.133104	-0.170652	-0.000054
C24	C	1.633104	0.329348	0.499946
C25	C	0.980628	-0.058783	-0.000079
C26	C	1.480628	0.441217	0.499921
C27	C	1.057823	-0.114709	-0.106868
C28	C	1.557823	0.385291	0.393132
C29	C	1.057795	-0.114743	0.106684
C30	C	1.557795	0.385257	0.606684
C31	C	0.957970	-0.220580	-0.106963
C32	C	1.457970	0.279420	0.393037
C33	C	0.957937	-0.220598	0.106684
C34	C	1.457937	0.279402	0.606684
C35	C	1.035083	-0.276602	-0.000130
C36	C	1.535083	0.223398	0.499870
C37	C	1.515750	0.039765	-0.000085
C38	C	2.015750	0.539765	0.499915
C39	C	1.512362	0.165788	-0.000084
C40	C	2.012362	0.665788	0.499916
C41	C	1.741023	-0.161298	-0.000087
C42	C	2.241023	0.338702	0.499913
C43	C	1.882641	-0.164697	-0.000086
C44	C	2.382641	0.335303	0.499914
C45	C	1.499995	-0.375115	-0.000064
C46	C	1.999995	0.124885	0.499936
C47	C	1.503383	-0.501138	-0.000057
C48	C	2.003383	-0.001138	0.499943
N49	N	1.507858	-0.167664	-0.308320
N50	N	2.007858	0.332336	0.191680
C51	C	1.506133	0.396517	-0.000062
C52	C	2.006133	0.896517	0.499938
C53	C	1.509594	0.268123	-0.000074
C54	C	2.009594	0.768123	0.499926
C55	C	1.507876	-0.167677	-0.573990
C56	C	2.007876	0.332323	-0.073990
C57	C	1.507862	-0.167673	-0.426152
C58	C	2.007862	0.332327	0.073848
N59	N	1.507898	-0.167677	0.308167
N60	N	2.007898	0.332323	0.808167
H61	H	0.914531	-0.265258	-0.197349
H62	H	1.414531	0.234742	0.302651
H63	H	0.956221	0.033314	-0.000192
H64	H	1.456221	0.533314	0.499808
C65	C	1.249580	-0.059077	-0.228029
C66	C	1.749580	0.440923	0.271971
C67	C	1.116721	-0.054352	-0.228753
C68	C	1.616721	0.445648	0.271247
H69	H	1.285933	-0.021815	-0.303278
H70	H	1.785933	0.478185	0.196722
H71	H	1.285087	-0.022218	-0.152202
H72	H	1.785087	0.477782	0.347798
H73	H	1.267819	-0.136407	-0.228138
H74	H	1.767819	0.363593	0.271862
H75	H	1.098482	0.022978	-0.228635
H76	H	1.598482	0.522978	0.271365
H77	H	1.081202	-0.091208	-0.304600
H78	H	1.581202	0.408792	0.195400
C79	C	0.927886	-0.394340	0.229690
C80	C	1.427886	0.105660	0.729690
C81	C	0.899009	-0.280908	0.228575
C82	C	1.399009	0.219092	0.728575
H83	H	0.891511	-0.431562	0.304953
H84	H	1.391511	0.068438	0.804953
H85	H	0.893542	-0.432075	0.153892
H86	H	1.393542	0.067925	0.653892
H87	H	1.018192	-0.396310	0.231004
H88	H	1.518192	0.103690	0.731004
H89	H	0.808702	-0.278938	0.227252
H90	H	1.308702	0.221062	0.727252
H91	H	0.933347	-0.243163	0.304393
H92	H	1.433347	0.256837	0.804393
H93	H	1.059245	-0.368768	-0.000184
H94	H	1.559245	0.131232	0.499816
C95	C	1.089715	0.059601	0.228341
C96	C	1.589715	0.559601	0.728341
C97	C	1.116650	-0.054371	0.228571
C98	C	1.616650	0.445629	0.728571
H99	H	1.126041	0.096873	0.303590
H100	H	1.626041	0.596873	0.803590
H101	H	1.125255	0.096446	0.152514
H102	H	1.625255	0.596446	0.652514
H103	H	0.999576	0.062776	0.228784
H104	H	1.499576	0.562776	0.728784
H105	H	1.206789	-0.057546	0.228118
H106	H	1.706789	0.442454	0.728118
H107	H	1.081114	-0.091225	0.304418
H108	H	1.581114	0.408775	0.804418
