data_functionalizedCrystal
_audit_creation_method	'MofGen! by Chris Wilmer'
_symmetry_space_group_name_H-M	'P1'
_symmetry_Int_Tables_number	1
_symmetry_cell_setting	triclinic
loop_
_symmetry_equiv_pos_as_xyz
  x,y,z
_cell_length_a	20.919309
_cell_length_b	20.919151
_cell_length_c	17.052862
_cell_angle_alpha	68.130266
_cell_angle_beta	90.671054
_cell_angle_gamma	55.760852
loop_
_atom_site_label
_atom_site_type_symbol
_atom_site_fract_x
_atom_site_fract_y
_atom_site_fract_z
Zr1	Zr	0.617148	0.663459	-0.104986
O2	O	0.519690	0.781017	-0.227194
O3	O	0.651810	0.530561	-0.061503
O4	O	0.665305	0.631577	-0.212058
O5	O	0.490106	0.710499	0.035273
O6	O	0.774724	0.623877	-0.206966
O7	O	0.506196	0.680001	-0.076639
O8	O	0.750585	0.443178	0.062350
O9	O	0.514245	0.891198	-0.234042
O10	O	0.742469	0.585158	-0.046431
O11	O	0.648804	0.613665	0.033288
O12	O	0.664692	0.732598	-0.143971
O13	O	0.571026	0.761105	-0.064252
Zr14	Zr	0.765998	0.699818	0.081622
Zr15	Zr	0.791659	0.651178	-0.096865
Zr16	Zr	0.591488	0.712099	0.073501
Zr17	Zr	0.608465	0.839185	-0.115908
Zr18	Zr	0.774682	0.524092	0.092544
O19	O	0.731336	0.832716	0.038139
O20	O	0.767822	0.763555	-0.215647
O21	O	0.483204	0.850178	0.026592
O22	O	0.863457	0.582260	0.203830
O23	O	0.899942	0.513099	-0.049956
O24	O	0.615325	0.599722	0.192283
O25	O	0.893040	0.652778	-0.058637
O26	O	0.717842	0.731700	0.188694
O27	O	0.608423	0.739400	0.183602
O28	O	0.876951	0.683276	0.053275
O29	O	0.652958	0.881436	-0.227587
O30	O	0.730188	0.481841	0.204223
O31	O	0.868901	0.472079	0.210678
O32	O	0.889298	0.433416	0.068805
O33	O	0.493849	0.929861	-0.092169
O34	O	0.632562	0.920099	-0.085714
O35	O	0.718455	0.630679	0.120607
O36	O	0.812120	0.602172	0.040888
O37	O	0.734343	0.749612	-0.056652
O38	O	0.640677	0.778119	0.023067
C39	C	0.702435	0.461832	0.001980
C40	C	0.706121	0.387232	0.006616
C41	C	0.653436	0.400342	-0.059451
C42	C	0.656906	0.330253	-0.055125
C43	C	0.713057	0.247054	0.015274
C44	C	0.765748	0.233944	0.081345
C45	C	0.762282	0.304032	0.077014
C46	C	0.726250	0.033023	0.031760
C47	C	0.729711	-0.037066	0.036087
C48	C	0.620868	0.059248	-0.100383
C49	C	0.617404	0.129334	-0.104705
C50	C	0.670097	0.116217	-0.038637
C51	C	0.716604	0.175410	0.019699
C52	C	0.666554	0.187859	-0.043066
C53	C	0.473287	0.697000	-0.021840
C54	C	0.399202	0.702213	-0.025287
C55	C	0.404995	0.627702	0.024004
C56	C	0.335382	0.632606	0.020762
C57	C	0.259978	0.712021	-0.031776
C58	C	0.254187	0.786539	-0.081068
C59	C	0.323799	0.781635	-0.077821
C60	C	0.047765	0.730678	-0.044122
C61	C	-0.021848	0.735575	-0.047368
C62	C	0.059351	0.581642	0.054465
C63	C	0.128961	0.576744	0.057703
C64	C	0.123164	0.651263	0.008414
C65	C	0.188822	0.717035	-0.035093
C66	C	0.194319	0.646250	0.011736
C67	C	0.909860	0.666277	-0.001524
C68	C	0.983944	0.661064	0.001923
C69	C	0.723671	0.620796	-0.234943
C70	C	0.734564	0.600147	-0.310715
C71	C	0.680712	0.901445	-0.025344
C72	C	0.677025	0.976045	-0.029980
C73	C	0.602862	0.849797	-0.727971
C74	C	0.592622	0.869201	-0.656781
C75	C	0.628107	0.801939	-0.570261
C76	C	0.673833	0.715270	-0.554938
C77	C	0.684069	0.695864	-0.626135
C78	C	0.709313	0.648007	-0.468426
C79	C	0.755039	0.561338	-0.453103
C80	C	0.765274	0.541936	-0.524294
C81	C	0.729789	0.609197	-0.610813
C82	C	0.699078	0.667412	-0.397229
C83	C	0.780284	0.513480	-0.295393
C84	C	0.790524	0.494076	-0.366583
C85	C	0.659476	0.742481	0.211579
C86	C	0.648583	0.763130	0.287351
C87	C	0.920721	0.446471	0.012137
C88	C	0.998492	0.366657	0.020222
C89	C	0.670338	0.522674	0.225240
C90	C	0.663130	0.468723	0.305649
C91	C	0.888624	0.507313	0.235398
C92	C	0.955501	0.448148	0.319255
C93	C	0.494523	0.855964	-0.258762
C94	C	0.427645	0.915129	-0.342619
C95	C	0.462425	0.916806	-0.035501
C96	C	0.384655	0.996620	-0.043586
C97	C	0.712809	0.840603	-0.248604
C98	C	0.720016	0.894554	-0.329013
C99	C	0.998658	0.320292	-0.021569
C100	C	1.071727	0.245304	-0.013991
C101	C	1.144629	0.216679	0.035384
C102	C	1.144461	0.263051	0.077175
C103	C	1.071393	0.338041	0.069591
C104	C	0.696102	0.452270	0.388997
C105	C	0.689325	0.401589	0.464557
C106	C	0.649582	0.367357	0.456766
C107	C	0.616606	0.383815	0.373409
C108	C	0.623378	0.434500	0.297851
C109	C	1.035807	0.405483	0.317022
C110	C	1.098653	0.349899	0.395808
C111	C	1.081191	0.336977	0.476824
C112	C	1.000876	0.379649	0.479054
C113	C	0.938032	0.435236	0.400270
C114	C	0.347339	0.957802	-0.340387
C115	C	0.284492	1.013408	-0.419173
C116	C	0.301954	1.026334	-0.500190
C117	C	0.382269	0.983658	-0.502420
C118	C	0.445113	0.928058	-0.423635
C119	C	0.384489	1.042990	-0.001803
C120	C	0.311422	1.117992	-0.009402
C121	C	0.238521	1.146619	-0.058779
C122	C	0.238688	1.100245	-0.100567
C123	C	0.311755	1.025248	-0.092973
C124	C	0.759765	0.928771	-0.321194
C125	C	0.766552	0.979455	-0.396739
C126	C	0.733585	0.995926	-0.480103
C127	C	0.693835	0.961703	-0.487920
C128	C	0.687053	0.911015	-0.412375
H129	H	0.614003	0.340935	-0.108923
H130	H	0.769157	0.022332	0.085558
H131	H	0.219102	1.048148	-0.417341
Br132	Br	0.067212	0.480516	0.121355
Br133	Br	0.554100	0.870143	-0.426679
H134	H	0.340105	0.571931	0.060901
H135	H	0.250775	1.071609	-0.564336
H136	H	0.319076	0.842313	-0.117949
H137	H	0.654683	0.883161	-0.418754
Br138	Br	0.039888	0.831811	-0.111016
H139	H	0.192786	0.851202	-0.123841
H140	H	0.443842	1.019690	0.038410
H141	H	0.805184	0.293351	0.130813
Br142	Br	0.899730	0.359125	-0.088586
H143	H	0.396477	0.994190	-0.568393
Br144	Br	1.166489	0.261533	0.583740
Br145	Br	0.590355	0.300769	-0.138607
H146	H	0.311301	1.155739	0.024632
H147	H	0.333106	0.947282	-0.274426
H148	H	1.071269	0.375784	0.103628
Br149	Br	-0.124184	0.843357	-0.118686
H150	H	0.728464	0.480138	0.395357
H151	H	0.255714	0.581591	0.054516
H152	H	1.164043	0.315159	0.393977
H153	H	0.716182	0.388196	0.532422
Br154	Br	0.649090	0.984074	-0.601064
H155	H	0.775437	-0.104812	0.093418
H156	H	0.179030	1.207688	-0.064956
H157	H	0.571692	0.197071	-0.162042
H158	H	1.071848	0.207557	-0.048024
Br159	Br	0.792805	0.062495	0.115240
H160	H	0.739113	1.037202	-0.541609
Br161	Br	0.577221	0.513254	-0.154992
H162	H	0.127420	0.781695	-0.077869
Br163	Br	1.059528	0.423011	0.207082
Br164	Br	0.139742	1.139106	-0.167573
Br165	Br	0.852578	0.376457	-0.345799
H166	H	0.190357	0.512072	0.100468
Br167	Br	0.562672	0.337350	0.362851
H168	H	0.311878	0.987496	-0.126996
Br169	Br	0.637023	0.785031	-0.418032
Br170	Br	0.977191	0.362102	0.589013
Br171	Br	0.820497	1.025894	-0.386110
Br172	Br	0.549360	0.077042	-0.190043
Br173	Br	0.804513	0.906429	-0.208068
H174	H	0.738125	0.593403	-0.668787
Br175	Br	0.841960	0.121030	0.176883
Br176	Br	0.507326	0.519917	0.095301
H177	H	0.619767	0.817743	-0.512298
Br178	Br	0.829047	0.493130	0.403315
H179	H	0.555393	0.939767	-0.669263
Br180	Br	0.827314	0.424314	-0.503498
Br181	Br	0.554694	0.941071	-0.845386
H182	H	1.204120	0.155615	0.041553
Br183	Br	0.828438	0.422191	-0.177978
H184	H	1.203828	0.239733	0.117375
H185	H	0.644074	0.326087	0.518297
Br186	Br	0.578629	0.456818	0.184739
