data_functionalizedCrystal
_audit_creation_method	'MofGen! by Chris Wilmer'
_symmetry_space_group_name_H-M	'P1'
_symmetry_Int_Tables_number	1
_symmetry_cell_setting	triclinic
loop_
_symmetry_equiv_pos_as_xyz
  x,y,z
_cell_length_a	14.853566
_cell_length_b	13.330367
_cell_length_c	16.109304
_cell_angle_alpha	90.001834
_cell_angle_beta	83.548526
_cell_angle_gamma	90.004705
loop_
_atom_site_label
_atom_site_type_symbol
_atom_site_fract_x
_atom_site_fract_y
_atom_site_fract_z
O1	O	1.196191	0.083351	0.108542
O2	O	0.933711	0.083367	0.121473
O3	O	1.072160	0.083359	-0.006013
O4	O	1.057742	0.083359	0.236028
O5	O	1.072140	-0.083488	-0.006016
O6	O	0.933690	-0.083481	0.121471
O7	O	1.196171	-0.083496	0.108539
Cu8	Cu	1.064929	-0.098723	0.115005
Cu9	Cu	1.064953	0.098593	0.115008
O10	O	1.057722	-0.083489	0.236026
C11	C	0.900113	-0.000055	0.120886
C12	C	0.800032	-0.000049	0.119131
N13	N	1.064919	-0.237504	0.115002
C14	C	0.376870	0.090882	0.111708
C15	C	0.376870	-0.091021	0.111706
C16	C	0.470901	-0.091018	0.113354
C17	C	0.517921	-0.000063	0.114181
C18	C	0.470910	0.090888	0.113359
C19	C	0.517918	-0.181968	0.114184
C20	C	0.611955	-0.181968	0.115833
C21	C	0.658978	-0.091013	0.116654
C22	C	0.611961	-0.000058	0.115832
C23	C	0.658981	0.090897	0.116658
C24	C	0.611967	0.181853	0.115830
C25	C	0.517932	0.181844	0.114180
C26	C	0.753012	-0.091003	0.118304
C27	C	0.753021	0.090903	0.118309
C28	C	1.003645	-0.710124	0.171437
C29	C	1.126285	-0.710099	0.058573
C30	C	1.126275	-0.605080	0.058570
C31	C	1.064950	-0.552579	0.115002
C32	C	1.003634	-0.605096	0.171438
C33	C	1.187595	-0.552556	0.002142
C34	C	1.187588	-0.447531	0.002137
C35	C	1.126258	-0.395028	0.058567
C36	C	1.064939	-0.447551	0.115003
C37	C	1.003614	-0.395049	0.171436
C38	C	0.942291	-0.447571	0.227869
C39	C	0.942304	-0.552592	0.227867
C40	C	1.126244	-0.290006	0.058569
C41	C	1.003604	-0.290021	0.171437
C42	C	1.229769	-0.000073	0.109126
C43	C	1.329850	-0.000072	0.110881
C44	C	1.071566	-0.000062	-0.036990
C45	C	1.069813	-0.000056	-0.129288
N46	N	1.064970	0.237375	0.115004
C47	C	1.065776	0.090889	-0.341629
C48	C	1.064121	0.090889	-0.428352
C49	C	1.064104	-0.091017	-0.428352
C50	C	1.065752	-0.091015	-0.341630
C51	C	1.066593	-0.000059	-0.298272
C52	C	1.063289	-0.000062	-0.471716
C53	C	1.061495	-0.000063	-0.565744
C54	C	1.068385	-0.000057	-0.204237
C55	C	1.058316	-0.000065	0.267003
C56	C	1.060069	-0.000065	0.359300
H57	H	0.650262	0.255908	0.116509
C58	C	1.063173	-0.191071	-0.476040
C59	C	1.141619	-0.266121	-0.473462
C60	C	1.140684	-0.366179	-0.521144
C61	C	1.061302	-0.391188	-0.571403
C62	C	0.982850	-0.316136	-0.573983
C63	C	0.983785	-0.216078	-0.526301
H64	H	1.200387	-0.247610	-0.436256
H65	H	1.198760	-0.421738	-0.519234
H66	H	1.060609	-0.465257	-0.606700
H67	H	0.924081	-0.334647	-0.611189
H68	H	0.925709	-0.160519	-0.528211
H69	H	1.176219	-0.752849	0.012631
H70	H	0.479627	-0.256018	0.113516
C71	C	0.325147	-0.191065	0.110798
C72	C	0.250242	-0.216078	0.181802
C73	C	0.198515	-0.316126	0.180894
C74	C	0.221692	-0.391160	0.108981
C75	C	0.296601	-0.366148	0.037971
C76	C	0.348328	-0.266101	0.038880
H77	H	0.233082	-0.160532	0.235041
H78	H	0.143062	-0.334641	0.233460
H79	H	0.183400	-0.465221	0.108308
H80	H	0.313762	-0.421695	-0.015268
H81	H	0.403781	-0.247586	-0.013686
H82	H	0.338587	0.164936	0.111030
H83	H	0.479645	0.255895	0.113505
H84	H	0.953662	-0.247281	0.217388
C85	C	0.804733	-0.191038	0.119230
C86	C	0.781543	-0.266053	0.191154
C87	C	0.833266	-0.366093	0.192085
C88	C	0.908179	-0.391116	0.121093
C89	C	0.931372	-0.316099	0.049163
C90	C	0.879649	-0.216060	0.048232
H91	H	0.726086	-0.247531	0.243712
H92	H	0.816097	-0.421625	0.245332
H93	H	0.946467	-0.465171	0.121782
H94	H	0.986829	-0.334622	-0.003394
H95	H	0.896818	-0.160528	-0.005015
H96	H	1.066412	-0.165081	-0.306327
H97	H	0.791298	0.164970	0.118980
H98	H	0.953713	-0.752889	0.217382
H99	H	0.650226	-0.256030	0.116506
H100	H	1.066458	0.164952	-0.306329
H101	H	1.237529	-0.595306	-0.043800
H102	H	1.063454	0.164948	-0.463649
H103	H	0.892377	-0.595362	0.273814
C104	C	1.193694	-0.232234	-0.003500
C105	C	1.192223	-0.246682	-0.098181
C106	C	1.259676	-0.188912	-0.160255
C107	C	1.328599	-0.116695	-0.127649
C108	C	1.330072	-0.102244	-0.032964
C109	C	1.262619	-0.160013	0.029111
H110	H	1.141200	-0.300145	-0.122322
H111	H	1.258585	-0.199610	-0.230348
H112	H	1.378532	-0.073930	-0.173600
H113	H	1.381095	-0.048781	-0.008822
H114	H	1.263710	-0.149315	0.099203
H115	H	0.892363	-0.404812	0.273821
H116	H	1.237520	-0.404774	-0.043814
