data_functionalizedCrystal
_audit_creation_method	'MofGen! by Chris Wilmer'
_symmetry_space_group_name_H-M	'P1'
_symmetry_Int_Tables_number	1
_symmetry_cell_setting	triclinic
loop_
_symmetry_equiv_pos_as_xyz
  x,y,z
_cell_length_a	19.188925
_cell_length_b	14.750392
_cell_length_c	15.538191
_cell_angle_alpha	72.468439
_cell_angle_beta	65.207321
_cell_angle_gamma	75.766659
loop_
_atom_site_label
_atom_site_type_symbol
_atom_site_fract_x
_atom_site_fract_y
_atom_site_fract_z
O1	O	0.887675	0.079841	0.099485
O2	O	0.680382	0.079837	0.115339
O3	O	0.824379	0.079844	-0.029886
O4	O	0.743678	0.079833	0.244710
O5	O	0.842186	-0.079816	0.006544
O6	O	0.698189	-0.079823	0.151770
O7	O	0.905482	-0.079819	0.135915
Zn8	Zn	0.804663	-0.105170	0.149626
Zn9	Zn	0.781201	0.105188	0.101628
O10	O	0.761484	-0.079826	0.281140
C11	C	0.663403	0.000006	0.133042
C12	C	0.586285	0.000005	0.131504
N13	N	0.820680	-0.248734	0.182383
C14	C	0.005700	0.000005	0.206414
C15	C	0.078157	0.000010	0.207866
C16	C	0.144494	0.000012	0.122654
C17	C	0.138367	0.000033	0.035976
C18	C	0.065909	0.000037	0.034523
N19	N	0.286727	-0.054335	0.073364
N20	N	0.355557	-0.054342	0.074750
C21	C	0.362807	0.000000	0.127024
N22	N	0.298623	0.054336	0.177877
N23	N	0.229786	0.054338	0.176495
C24	C	0.223066	0.000007	0.124219
C25	C	0.447494	-0.000009	0.215270
C26	C	0.519953	0.000002	0.216718
C27	C	0.580163	0.000015	0.044827
C28	C	0.507703	0.000014	0.043379
C29	C	0.441372	-0.000003	0.128605
C30	C	0.720495	-0.600500	-0.022594
C31	C	0.731711	-0.701005	0.000353
C32	C	0.787473	-0.700997	0.114449
C33	C	0.776264	-0.600490	0.091508
C34	C	0.742774	-0.550250	0.022987
C35	C	0.798544	-0.550239	0.137089
C36	C	0.787333	-0.449741	0.114153
C37	C	0.753842	-0.399494	0.045637
C38	C	0.731563	-0.449751	0.000051
C39	C	0.832029	-0.600482	0.205615
C40	C	0.854308	-0.550231	0.251196
C41	C	0.843102	-0.449731	0.228255
C42	C	0.809611	-0.399483	0.159739
C43	C	0.865381	-0.399473	0.273841
C44	C	0.854169	-0.298975	0.250905
C45	C	0.798400	-0.298985	0.136803
C46	C	0.922461	0.000013	0.118212
C47	C	0.999578	0.000021	0.119749
N48	N	0.765192	0.248752	0.068863
C49	C	0.841726	0.000017	-0.046802
C50	C	0.866876	0.000027	-0.151482
C51	C	0.617012	0.000002	-0.438231
C52	C	0.640662	0.000000	-0.536595
C53	C	0.773692	0.000003	-0.559590
C54	C	0.750051	0.000010	-0.461227
C55	C	0.671710	0.000008	-0.400555
C56	C	0.804750	0.000016	-0.423551
C57	C	0.781112	0.000017	-0.325196
C58	C	0.702775	0.000013	-0.264517
C59	C	0.648072	0.000009	-0.302200
C60	C	0.883092	0.000011	-0.484224
C61	C	0.937790	0.000017	-0.446548
C62	C	0.914152	0.000025	-0.348193
C63	C	0.835815	0.000020	-0.287514
C64	C	0.968855	0.000028	-0.310510
C65	C	0.945217	0.000029	-0.212155
C66	C	0.812177	0.000022	-0.189159
C67	C	0.744138	0.000002	0.298056
C68	C	0.718987	-0.000001	0.402735
H69	H	-0.048305	-0.000004	0.275810
N70	N	0.526192	-0.000022	0.305261
N71	N	0.505449	-0.067333	0.377991
H72	H	0.509853	-0.067351	0.440528
H73	H	0.553218	0.000008	-0.388829
N74	N	1.001088	0.000016	-0.173656
N75	N	1.055770	-0.067286	-0.176974
H76	H	1.095231	-0.067302	-0.149781
H77	H	0.872308	-0.258060	0.288025
H78	H	0.693229	-0.559592	-0.078395
N79	N	0.843495	-0.703139	0.229028
N80	N	0.910259	-0.747989	0.215026
H81	H	0.918358	-0.820491	0.231559
H82	H	0.083144	-0.000012	0.278444
H83	H	0.902334	0.000018	-0.564312
N84	N	0.742377	-0.296837	0.022199
N85	N	0.675614	-0.251987	0.036197
H86	H	0.667516	-0.179485	0.019643
H87	H	0.502722	0.000021	-0.027191
N88	N	0.584778	0.000017	-0.575079
N89	N	0.575613	0.067319	-0.642752
H90	H	0.536145	0.067329	-0.669930
N91	N	0.206132	0.000043	-0.051061
N92	N	0.270822	0.000038	-0.049753
H93	H	0.318682	0.000049	-0.111226
H94	H	0.060929	0.000050	-0.036052
N95	N	1.017808	0.000011	-0.508538
N96	N	1.038906	0.000006	-0.596352
H97	H	1.095420	0.000003	-0.640133
N98	N	0.853715	-0.000003	-0.621553
N99	N	0.903121	-0.067299	-0.602904
H100	H	0.959640	-0.067303	-0.646664
N101	N	0.379743	-0.000026	0.302329
N102	N	0.385221	-0.000032	0.379704
H103	H	0.337374	-0.000044	0.441192
H104	H	0.634174	0.000024	-0.024557
N105	N	1.048877	0.000032	-0.372477
N106	N	1.097709	0.000039	-0.338825
H107	H	1.154226	0.000042	-0.382588
H108	H	0.713563	-0.741916	-0.036767
H109	H	0.704297	-0.408843	-0.055750
N110	N	0.764232	-0.247641	0.066770
N111	N	0.796153	-0.258859	-0.018580
H112	H	0.772033	-0.222591	-0.068047
N113	N	0.888512	-0.601540	0.321193
N114	N	0.856625	-0.590311	0.406540
H115	H	0.880783	-0.626546	0.455976
N116	N	0.821675	-0.752335	0.184441
N117	N	0.831680	-0.842065	0.204915
H118	H	0.855838	-0.878323	0.254346
H119	H	0.892641	-0.440394	0.329638
N120	N	0.732150	0.000052	-0.127178
N121	N	0.682751	0.067363	-0.145821
H122	H	0.626234	0.067389	-0.102046
N123	N	0.678626	-0.000007	-0.164044
N124	N	0.705275	-0.067309	-0.109916
H125	H	0.688219	-0.067325	-0.038955
N126	N	0.568042	0.000033	-0.240235
N127	N	0.519205	0.000045	-0.273887
H128	H	0.462686	0.000066	-0.230126
