data_functionalizedCrystal
_audit_creation_method	'MofGen! by Chris Wilmer'
_symmetry_space_group_name_H-M	'P1'
_symmetry_Int_Tables_number	1
_symmetry_cell_setting	triclinic
loop_
_symmetry_equiv_pos_as_xyz
  x,y,z
_cell_length_a	12.759401
_cell_length_b	25.639239
_cell_length_c	12.759393
_cell_angle_alpha	90.036230
_cell_angle_beta	90.018173
_cell_angle_gamma	90.038847
loop_
_atom_site_label
_atom_site_type_symbol
_atom_site_fract_x
_atom_site_fract_y
_atom_site_fract_z
Zn1	Zn	1.606077	-0.208122	0.593941
Zn2	Zn	1.605899	-0.295567	0.418245
Zn3	Zn	1.430380	-0.208148	0.418281
Zn4	Zn	1.430294	-0.295528	0.593886
O5	O	1.518162	-0.251841	0.506088
O6	O	1.753074	-0.219727	0.570643
O7	O	1.582577	-0.283998	0.271228
O8	O	1.453797	-0.134979	0.441621
O9	O	1.752943	-0.283973	0.441559
O10	O	1.582881	-0.134960	0.570678
O11	O	1.453624	-0.219772	0.271255
O12	O	1.283347	-0.219734	0.441567
O13	O	1.453651	-0.283907	0.740914
O14	O	1.283284	-0.283932	0.570584
O15	O	1.582798	-0.219689	0.740955
O16	O	1.582494	-0.368727	0.441505
O17	O	1.453478	-0.368699	0.570549
C18	C	1.245195	-0.251832	0.506074
C19	C	1.128418	-0.251840	0.506093
C20	C	1.517986	-0.387684	0.506040
C21	C	1.518006	-0.445798	0.506055
C22	C	1.073551	-0.285322	0.573160
C23	C	0.963827	-0.285328	0.573172
C24	C	0.963847	-0.218371	0.439039
C25	C	1.073569	-0.218362	0.439033
C26	C	1.128400	-0.318800	0.640220
C27	C	1.073532	-0.352285	0.707292
C28	C	0.963808	-0.352291	0.707303
C29	C	0.908952	-0.318813	0.640242
C30	C	1.585516	-0.806163	0.439010
C31	C	1.585557	-0.860768	0.439024
O32	O	1.642773	-0.889006	0.381967
N33	N	1.518347	-0.888081	0.506158
C34	C	1.451099	-0.860786	0.573289
O35	O	1.393937	-0.889032	0.630394
C36	C	1.451065	-0.806183	0.573280
C37	C	1.518272	-0.778873	0.506134
C38	C	1.652719	-0.778853	0.371870
C39	C	1.652676	-0.724253	0.371855
C40	C	1.585432	-0.696962	0.438980
C41	C	1.518229	-0.724272	0.506119
C42	C	1.383823	-0.778889	0.640416
C43	C	1.383795	-0.724282	0.640401
C44	C	1.451002	-0.696972	0.573256
C45	C	1.450942	-0.642381	0.573228
N46	N	1.518152	-0.615069	0.506094
C47	C	1.585397	-0.642359	0.438970
C48	C	1.451179	-0.975457	0.573306
C49	C	1.451207	-1.030059	0.573311
C50	C	1.585666	-1.030037	0.439046
C51	C	1.585632	-0.975434	0.439037
C52	C	1.518389	-0.948144	0.506172
C53	C	1.585302	-0.527694	0.438943
C54	C	1.585251	-0.473089	0.438930
C55	C	1.450796	-0.473116	0.573198
C56	C	1.450843	-0.527716	0.573207
C57	C	1.518105	-0.555004	0.506076
O58	O	1.393758	-0.614108	0.630258
O59	O	1.642560	-0.614107	0.381885
C60	C	1.792196	-0.251852	0.506103
C61	C	1.908972	-0.251856	0.506109
C62	C	1.518234	-0.251791	0.780122
C63	C	1.518265	-0.251769	0.896898
C64	C	1.518368	-0.115468	0.506159
C65	C	1.518456	-0.057354	0.506190
C66	C	1.518151	-0.251854	0.233121
C67	C	1.518324	-0.251729	0.116345
C68	C	1.451072	-0.285174	1.061466
C69	C	1.451040	-0.285193	0.951742
C70	C	1.585520	-0.218320	0.951785
C71	C	1.585546	-0.218299	1.061507
C72	C	1.383850	-0.318604	1.116304
C73	C	1.316594	-0.352052	1.061425
C74	C	1.316562	-0.352071	0.951701
C75	C	1.383785	-0.318642	0.896855
H76	H	1.217743	-0.318800	0.640216
H77	H	1.329091	-0.801116	0.695088
F78	F	1.724298	-0.807890	0.300423
F79	F	1.312226	-0.695242	0.711860
H80	H	1.396412	-0.953240	0.627972
F81	F	1.724220	-0.695194	0.300401
F82	F	0.792172	-0.318818	0.640266
H83	H	0.919174	-0.191115	0.384440
H84	H	1.396043	-0.450887	0.627847
F85	F	1.657100	-0.182691	1.119916
H86	H	1.640075	-0.549905	0.384280
F87	F	1.383883	-0.318588	1.233081
H88	H	0.919138	-0.379552	0.761924
H89	H	1.118244	-0.191094	0.384429
F90	F	1.245046	-0.387624	1.119796
H91	H	1.639979	-0.450855	0.384249
H92	H	1.640251	-0.191104	0.907121
H93	H	1.118204	-0.379538	0.761897
H94	H	1.261790	-0.379302	0.907021
H95	H	1.640358	-0.953201	0.384362
H96	H	1.640424	-1.052267	0.384394
H97	H	1.396121	-0.549953	0.627886
H98	H	1.383751	-0.318659	0.807510
F99	F	1.379665	-1.059118	0.644764
