data_functionalizedCrystal
_audit_creation_method	'MofGen! by Chris Wilmer'
_symmetry_space_group_name_H-M	'P1'
_symmetry_Int_Tables_number	1
_symmetry_cell_setting	triclinic
loop_
_symmetry_equiv_pos_as_xyz
  x,y,z
_cell_length_a	31.640172
_cell_length_b	20.919309
_cell_length_c	20.919292
_cell_angle_alpha	59.202373
_cell_angle_beta	93.159403
_cell_angle_gamma	62.590278
loop_
_atom_site_label
_atom_site_type_symbol
_atom_site_fract_x
_atom_site_fract_y
_atom_site_fract_z
Zr1	Zr	0.421165	0.700686	-0.111235
O2	O	0.353201	0.834263	-0.218681
O3	O	0.439747	0.567119	-0.074689
O4	O	0.438133	0.700685	-0.213458
O5	O	0.358651	0.700695	0.025448
O6	O	0.507690	0.700671	-0.213444
O7	O	0.354815	0.700698	-0.079911
O8	O	0.510577	0.461747	0.034790
O9	O	0.355763	0.939619	-0.222785
O10	O	0.502303	0.622043	-0.063451
O11	O	0.453255	0.622051	0.015166
O12	O	0.451355	0.779307	-0.148217
O13	O	0.402307	0.779315	-0.069599
Zr14	Zr	0.538217	0.700661	0.056824
Zr15	Zr	0.532100	0.700665	-0.111212
Zr16	Zr	0.427281	0.700682	0.056801
Zr17	Zr	0.425250	0.868717	-0.117782
Zr18	Zr	0.534131	0.532630	0.063370
O19	O	0.519635	0.834227	0.020277
O20	O	0.510938	0.834233	-0.218647
O21	O	0.361898	0.834257	0.020244
O22	O	0.606180	0.567083	0.164269
O23	O	0.597483	0.567089	-0.074656
O24	O	0.448444	0.567113	0.164236
O25	O	0.600731	0.700651	-0.079859
O26	O	0.521249	0.700662	0.159047
O27	O	0.451692	0.700675	0.159032
O28	O	0.604566	0.700648	0.025500
O29	O	0.443942	0.939602	-0.222767
O30	O	0.515439	0.461744	0.168356
O31	O	0.603618	0.461727	0.168374
O32	O	0.598757	0.461731	0.034808
O33	O	0.360625	0.939616	-0.089219
O34	O	0.448804	0.939599	-0.089201
O35	O	0.508027	0.622039	0.093806
O36	O	0.557075	0.622031	0.015188
O37	O	0.506126	0.779295	-0.069578
O38	O	0.457079	0.779303	0.009040
C39	C	0.474580	0.490493	-0.019017
C40	C	0.472845	0.419159	-0.016238
C41	C	0.497632	0.385643	-0.055969
C42	C	0.496003	0.318612	-0.053350
C43	C	0.469586	0.285105	-0.011004
C44	C	0.444799	0.318624	0.028733
C45	C	0.446431	0.385649	0.026118
C46	C	0.463381	0.082731	-0.001052
C47	C	0.461750	0.015704	0.001558
C48	C	0.512955	0.015696	-0.080524
C49	C	0.514582	0.082725	-0.083139
C50	C	0.489798	0.116235	-0.043399
C51	C	0.467919	0.216591	-0.008328
C52	C	0.491467	0.184743	-0.046071
C53	C	0.340927	0.700700	-0.027235
C54	C	0.293832	0.700709	-0.027245
C55	C	0.028421	0.618575	0.017057
C56	C	-0.148564	0.618559	0.017074
O57	O	-0.148831	0.548744	0.054733
N58	N	-0.197288	0.700648	-0.027174
C59	C	-0.201765	0.782748	-0.071425
O60	O	-0.247269	0.852569	-0.109054
C61	C	-0.024780	0.782762	-0.071436
C62	C	0.023943	0.700668	-0.027192
C63	C	0.077142	0.536487	0.061299
C64	C	0.121386	0.536491	0.061291
C65	C	0.116908	0.618584	0.017042
C66	C	0.068186	0.700672	-0.027200
C67	C	-0.029258	0.864861	-0.115682
C68	C	0.014994	0.864857	-0.115679
C69	C	0.063717	0.782762	-0.071435
C70	C	0.107951	0.782770	-0.071457
N71	N	0.156675	0.700681	-0.027209
C72	C	0.161154	0.618588	0.017040
C73	C	-0.294682	0.782734	-0.071418
C74	C	-0.338928	0.782731	-0.071416
C75	C	-0.285724	0.618542	0.017084
C76	C	-0.241478	0.618546	0.017077
C77	C	-0.245958	0.700645	-0.027170
C78	C	0.254065	0.618604	0.017019
C79	C	0.298310	0.618616	0.017005
C80	C	0.245102	0.782804	-0.071492
C81	C	0.200861	0.782793	-0.071481
C82	C	0.205346	0.700685	-0.027219
O83	O	0.108258	0.852548	-0.109089
O84	O	0.206662	0.548776	0.054677
C85	C	-0.015822	0.618570	0.017065
C86	C	-0.064543	0.700658	-0.027176
C87	C	-0.069021	0.782751	-0.071425
C88	C	-0.108789	0.700655	-0.027175
C89	C	-0.104311	0.618562	0.017075
C90	C	-0.055587	0.536472	0.061323
C91	C	-0.011344	0.536477	0.061315
C92	C	-0.117746	0.864840	-0.115673
C93	C	-0.161987	0.864829	-0.115663
C94	C	-0.157508	0.782736	-0.071413
C95	C	0.618454	0.700647	-0.027177
C96	C	0.665550	0.700638	-0.027167
C97	C	0.472040	0.700678	-0.237393
C98	C	0.469443	0.700680	-0.308728
C99	C	0.484802	0.910854	-0.035395
C100	C	0.486536	0.982187	-0.038174
C101	C	0.506543	0.700675	-0.342234
C102	C	0.504104	0.700668	-0.409256
C103	C	0.464564	0.700674	-0.442776
C104	C	0.427462	0.700677	-0.409265
C105	C	0.429903	0.700677	-0.342239
C106	C	0.455278	0.700669	-0.645146
C107	C	0.452839	0.700672	-0.712178
C108	C	0.529482	0.700662	-0.712164
C109	C	0.531917	0.700667	-0.645141
C110	C	0.494818	0.700665	-0.611632
C111	C	0.462069	0.700671	-0.511286
C112	C	0.497315	0.700662	-0.543120
C113	C	0.487342	0.700668	0.182981
C114	C	0.489938	0.700666	0.254317
C115	C	0.613344	0.490466	-0.018988
C116	C	0.658704	0.419124	-0.016199
C117	C	0.482231	0.490487	0.191170
C118	C	0.483093	0.419152	0.265285
C119	C	0.620995	0.490461	0.191199
C120	C	0.668952	0.419117	0.265324
C121	C	0.338387	0.910886	-0.245610
C122	C	0.290430	0.982230	-0.319735
C123	C	0.346038	0.910880	-0.035424
C124	C	0.300677	0.982223	-0.038213
C125	C	0.477151	0.910859	-0.245581
C126	C	0.476289	0.982194	-0.319696
C127	C	0.651415	0.385627	-0.055945
C128	C	0.694032	0.318602	-0.053340
C129	C	0.743937	0.285071	-0.010984
C130	C	0.751225	0.318575	0.028763
C131	C	0.708609	0.385603	0.026153
C132	C	0.512088	0.385646	0.341146
C133	C	0.512897	0.318629	0.410790
C134	C	0.484713	0.285114	0.404573
C135	C	0.455714	0.318626	0.328704
C136	C	0.454903	0.385647	0.259060
C137	C	0.717080	0.385609	0.259096
C138	C	0.762145	0.318583	0.328737
C139	C	0.759081	0.285061	0.404605
C140	C	0.710948	0.318576	0.410831
C141	C	0.665884	0.385605	0.341191
C142	C	0.242302	1.015746	-0.313508
C143	C	0.197237	1.082793	-0.383149
C144	C	0.200301	1.116318	-0.459018
C145	C	0.248435	1.082799	-0.465244
C146	C	0.293498	1.015758	-0.395603
C147	C	0.307966	1.015727	0.001526
C148	C	0.265349	1.082770	-0.001098
C149	C	0.215444	1.116303	-0.043456
C150	C	0.208156	1.082796	-0.083200
C151	C	0.250773	1.015759	-0.080580
C152	C	0.504479	1.015688	-0.313452
C153	C	0.503679	1.082706	-0.383084
C154	C	0.474686	1.116234	-0.458959
C155	C	0.446495	1.082733	-0.465201
C156	C	0.447298	1.015712	-0.395570
H157	H	0.536093	0.110005	-0.117621
H158	H	0.474036	1.170807	-0.515651
H159	H	0.564115	0.700662	-0.617850
C160	C	0.543093	0.422505	0.348005
N161	N	0.566444	0.450268	0.353178
C162	C	0.346438	0.978886	-0.402466
N163	N	0.386311	0.951117	-0.407642
H164	H	0.536513	0.291351	0.472559
H165	H	0.714551	0.412867	0.058524
C166	C	0.423010	0.422487	0.175615
N167	N	0.398987	0.450229	0.112766
C168	C	0.720464	0.422475	0.175647
N169	N	0.723016	0.450242	0.112795
C170	C	0.570292	0.700653	-0.749023
N171	N	0.601034	0.700641	-0.776782
C172	C	0.485616	0.211380	0.481191
N173	N	0.486300	0.155839	0.538903
C174	C	0.414625	1.119592	-0.548671
N175	N	0.390626	1.147347	-0.611541
C176	C	0.540221	-0.021178	-0.124229
N177	N	0.560761	-0.048955	-0.157145
C178	C	0.790811	0.211332	-0.008115
N179	N	0.826115	0.155789	-0.005953
H180	H	0.239797	0.988454	-0.251738
C181	C	0.273378	1.119607	0.042633
N182	N	0.279426	1.147350	0.075574
C183	C	0.550041	0.700668	-0.305368
N184	N	0.582807	0.700658	-0.277600
H185	H	0.432767	0.291328	0.323653
C186	C	0.815086	0.281720	0.321871
N187	N	0.854960	0.253956	0.316697
C188	C	-0.299621	0.873055	-0.120107
N189	N	-0.303343	0.941086	-0.156786
H190	H	0.250924	1.110103	-0.527024
C191	C	0.144296	1.119650	-0.376283
N192	N	0.104422	1.147409	-0.371109
C193	C	0.383971	0.700671	-0.446132
N194	N	0.351213	0.700665	-0.473900
H195	H	0.534314	0.700663	-0.436536
H196	H	0.708460	0.291273	0.472613
H197	H	0.425069	0.700670	-0.617870
C198	C	0.806125	0.281675	0.075358
N199	N	0.847477	0.253874	0.110459
H200	H	0.529510	0.700653	-0.515824
C201	C	0.808658	0.211320	0.481205
N202	N	0.846000	0.155775	0.538898
H203	H	0.161055	0.469641	0.097316
C204	C	0.168570	1.190042	-0.046325
N205	N	0.133267	1.245580	-0.048481
H206	H	0.626697	0.412879	0.346273
H207	H	0.163604	1.170907	-0.515718
C208	C	0.418578	0.700668	-0.548160
N209	N	0.385823	0.700660	-0.575932
C210	C	0.362858	0.978857	0.048122
N211	N	0.404202	0.951096	0.083215
H212	H	0.167518	1.110109	-0.117687
C213	C	0.520519	0.221614	-0.092662
N214	N	0.542396	0.249398	-0.127761
C215	C	0.242746	0.978902	-0.124289
N216	N	0.236697	0.951143	-0.157211
H217	H	0.528088	0.988400	-0.251678
H218	H	0.420638	0.700677	-0.739467
H219	H	0.424340	0.988449	-0.400665
C220	C	0.436136	0.119555	0.042694
N221	N	0.415622	0.147282	0.075656
H222	H	0.519141	0.412924	-0.090457
C223	C	0.415739	0.281764	0.075315
N224	N	0.393848	0.254004	0.110398
H225	H	0.610784	0.412927	-0.090445
C226	C	0.259007	0.528281	0.065703
N227	N	0.262729	0.460250	0.102366
C228	C	-0.187884	0.528236	0.065755
N229	N	-0.147518	0.460211	0.102423
C230	C	0.082080	0.446170	0.109973
N231	N	0.085803	0.378137	0.146630
C232	C	-0.082846	0.955173	-0.164353
N233	N	-0.123210	1.023202	-0.201013
H234	H	0.516186	0.291323	-0.085702
C235	C	0.010059	0.955175	-0.164359
N236	N	0.006342	1.023202	-0.201028
C237	C	0.534690	1.119548	-0.376200
N238	N	0.558047	1.147297	-0.371013
H239	H	0.688088	0.291332	-0.085707
C240	C	-0.050669	0.446170	0.109999
N241	N	-0.046969	0.378158	0.146663
C242	C	0.147263	0.873101	-0.120155
N243	N	0.106896	0.941123	-0.156810
C244	C	-0.215582	0.955146	-0.164340
N245	N	-0.255947	1.023172	-0.200997
H246	H	0.440235	-0.011574	0.036042
H247	H	0.426246	0.412939	0.058470
H248	H	0.446410	0.189302	0.026151
H249	H	0.337983	0.551761	0.053037
C250	C	0.389087	0.700694	-0.305389
N251	N	0.358343	0.700707	-0.277635
H252	H	-0.282085	0.551698	0.053109
H253	H	-0.378598	0.849581	-0.107454
H254	H	0.241465	0.849642	-0.107521
H255	H	-0.121400	0.931692	-0.151709
H256	H	0.028326	0.469627	0.097345
