data_functionalizedCrystal
_audit_creation_method	'MofGen! by Chris Wilmer'
_symmetry_space_group_name_H-M	'P1'
_symmetry_Int_Tables_number	1
_symmetry_cell_setting	triclinic
loop_
_symmetry_equiv_pos_as_xyz
  x,y,z
_cell_length_a	16.974885
_cell_length_b	11.792254
_cell_length_c	16.053802
_cell_angle_alpha	92.583162
_cell_angle_beta	91.069328
_cell_angle_gamma	83.794934
loop_
_atom_site_label
_atom_site_type_symbol
_atom_site_fract_x
_atom_site_fract_y
_atom_site_fract_z
O1	O	1.049691	0.144712	0.001430
O2	O	0.820306	0.162079	-0.014056
O3	O	0.940559	-0.011806	-0.005932
O4	O	0.929437	0.318597	-0.006695
O5	O	0.933940	-0.002275	0.132480
O6	O	0.813687	0.171610	0.124355
O7	O	1.043071	0.154243	0.139842
Zn8	Zn	0.927328	0.164440	0.154074
Zn9	Zn	0.936049	0.151882	-0.028289
O10	O	0.922818	0.328128	0.131717
C11	C	0.787630	0.166008	0.053167
C12	C	0.700127	0.163503	0.047259
C13	C	0.207974	0.148800	0.005851
C14	C	0.290191	0.151155	0.011413
C15	C	0.327683	0.157537	0.089643
C16	C	0.282954	0.161552	0.162316
C17	C	0.200739	0.159189	0.156753
C18	C	0.573183	0.165155	0.114370
C19	C	0.655404	0.167521	0.119927
C20	C	0.662636	0.157122	-0.030977
C21	C	0.580418	0.154766	-0.036532
C22	C	0.535697	0.158776	0.036140
N23	N	0.411722	0.159948	0.095330
N24	N	0.451660	0.156356	0.030453
C25	C	0.936549	-0.049327	0.063226
C26	C	0.934452	-0.175328	0.063084
C27	C	0.932748	-0.277655	0.062966
C28	C	0.930618	-0.406030	0.062814
C29	C	1.075748	0.150314	0.072616
C30	C	1.163250	0.152819	0.078518
C31	C	0.926828	0.365649	0.062557
C32	C	0.928926	0.491650	0.062694
N33	N	0.921382	0.173010	0.278533
N34	N	0.942002	0.143303	-0.152747
C35	C	0.972569	0.099048	0.325685
C36	C	0.968417	0.105054	0.412811
C37	C	0.913081	0.185028	0.452784
C38	C	0.861889	0.258993	0.405625
C39	C	0.866038	0.252981	0.318500
C40	C	0.894958	0.211256	0.712969
C41	C	0.890815	0.217265	0.800101
C42	C	0.997342	0.063324	0.807280
C43	C	1.001489	0.057324	0.720154
C44	C	0.950294	0.131285	0.673003
N45	N	0.908837	0.191171	0.541841
N46	N	0.954535	0.125135	0.583947
H47	H	0.313487	0.166741	0.226012
H48	H	0.164325	0.162473	0.215927
H49	H	1.039022	0.003107	0.845679
N50	N	0.542135	0.148263	-0.116450
N51	N	0.582076	0.144683	-0.181327
H52	H	0.555038	0.140097	-0.237770
H53	H	1.017632	0.033930	0.293146
N54	N	0.813753	0.328551	0.270346
N55	N	0.814817	0.434135	0.280167
H56	H	0.777888	0.487508	0.246159
N57	N	0.834278	0.298960	0.840919
N58	N	0.788568	0.364984	0.798812
H59	H	0.748639	0.422676	0.827639
N60	N	0.708329	0.153029	-0.105197
N61	N	0.781735	0.155140	-0.100224
H62	H	0.814008	0.152247	-0.152645
H63	H	0.816829	0.324106	0.438176
H64	H	1.010097	0.044828	0.451202
N65	N	1.058154	-0.024181	0.679348
N66	N	1.103942	-0.090085	0.721465
H67	H	1.144015	-0.147574	0.692650
H68	H	0.853274	0.271480	0.674585
H69	H	0.177454	0.143612	-0.057852
H70	H	0.326602	0.147876	-0.047761
N71	N	0.693685	0.174090	0.199848
N72	N	0.653745	0.177701	0.264727
H73	H	0.680779	0.182360	0.321169
H74	H	0.536782	0.168403	0.173545
