data_functionalizedCrystal
_audit_creation_method	'MofGen! by Chris Wilmer'
_symmetry_space_group_name_H-M	'P1'
_symmetry_Int_Tables_number	1
_symmetry_cell_setting	triclinic
loop_
_symmetry_equiv_pos_as_xyz
  x,y,z
_cell_length_a	16.959455
_cell_length_b	16.625546
_cell_length_c	16.959447
_cell_angle_alpha	89.967784
_cell_angle_beta	89.985678
_cell_angle_gamma	90.019415
loop_
_atom_site_label
_atom_site_type_symbol
_atom_site_fract_x
_atom_site_fract_y
_atom_site_fract_z
Zn1	Zn	1.208371	-0.321051	-0.446898
Zn2	Zn	1.208288	-0.455899	-0.314715
Zn3	Zn	1.076199	-0.321077	-0.314736
Zn4	Zn	1.076158	-0.455839	-0.446854
O5	O	1.142254	-0.388466	-0.380801
O6	O	1.318970	-0.338954	-0.429374
O7	O	1.190748	-0.438050	-0.204107
O8	O	1.093784	-0.208241	-0.332295
O9	O	1.318909	-0.438026	-0.332260
O10	O	1.190890	-0.208222	-0.429394
O11	O	1.093703	-0.338997	-0.204122
O12	O	0.965583	-0.338939	-0.332252
O13	O	1.093714	-0.437923	-0.557471
O14	O	0.965553	-0.437947	-0.429318
O15	O	1.190850	-0.338895	-0.557503
O16	O	1.190709	-0.568723	-0.332217
O17	O	1.093634	-0.568679	-0.429298
C18	C	0.936888	-0.388440	-0.380783
C19	C	0.849031	-0.388448	-0.380794
C20	C	0.477547	-0.336870	-0.330364
C21	C	0.477564	-0.440129	-0.431283
C22	C	0.560110	-0.440117	-0.431278
C23	C	0.601378	-0.388482	-0.380815
C24	C	0.560100	-0.336859	-0.330356
C25	C	0.601394	-0.491746	-0.481731
C26	C	0.683945	-0.491737	-0.481727
C27	C	0.725215	-0.440097	-0.431267
C28	C	0.683932	-0.388471	-0.380807
C29	C	0.725200	-0.336836	-0.330343
C30	C	0.683918	-0.285205	-0.279886
C31	C	0.601370	-0.285219	-0.279895
C32	C	0.807763	-0.440083	-0.431257
C33	C	0.807753	-0.336824	-0.330335
C34	C	1.142179	-0.597957	-0.380768
C35	C	1.142219	-0.687578	-0.380780
C36	C	1.142357	-1.015754	-0.380862
C37	C	1.142316	-0.924445	-0.380842
C38	C	1.142288	-0.851669	-0.380821
C39	C	1.142248	-0.760355	-0.380801
C40	C	1.348422	-0.388494	-0.380819
C41	C	1.436279	-0.388505	-0.380827
C42	C	1.142287	-0.388400	-0.586969
C43	C	1.142301	-0.388371	-0.674826
C44	C	1.142351	-0.178157	-0.380851
C45	C	1.142392	-0.088536	-0.380873
C46	C	1.091821	-0.439845	-1.046287
C47	C	1.192969	-0.336727	-1.046316
C48	C	1.192948	-0.336744	-0.963770
C49	C	1.142364	-0.388313	-0.922479
C50	C	1.091800	-0.439866	-0.963734
C51	C	1.243517	-0.285199	-0.922509
C52	C	1.243498	-0.285214	-0.839958
C53	C	1.192909	-0.336780	-0.798666
C54	C	1.142343	-0.388334	-0.839925
C55	C	1.091758	-0.439903	-0.798634
C56	C	1.041187	-0.491453	-0.839892
C57	C	1.041211	-0.491431	-0.922441
C58	C	1.192886	-0.336802	-0.716117
C59	C	1.091737	-0.439923	-0.716080
C60	C	1.142267	-0.388475	-0.175435
C61	C	1.142406	-0.388276	-0.087578
H62	H	0.443932	-0.294831	-0.289285
H63	H	0.567788	-0.533790	-0.522810
C64	C	1.247842	-0.280612	-1.091045
C65	C	1.230674	-0.200837	-1.070981
C66	C	1.281215	-0.149119	-1.112166
H67	H	1.240663	-0.287876	-1.146129
H68	H	1.300956	-0.292372	-1.077495
H69	H	1.177573	-0.189081	-1.084537
H70	H	1.237858	-0.193547	-1.015905
H71	H	1.334328	-0.160879	-1.098616
H72	H	1.274032	-0.156391	-1.167248
H73	H	1.269578	-0.094987	-1.098553
C74	C	0.986401	-0.547489	-0.794951
C75	C	1.031132	-0.599168	-0.747534
C76	C	0.980695	-0.650791	-0.706109
H77	H	0.956264	-0.578268	-0.831245
H78	H	0.951987	-0.516668	-0.762706
H79	H	1.065533	-0.629986	-0.779775
H80	H	1.061267	-0.568412	-0.711225
H81	H	0.946280	-0.619970	-0.673865
H82	H	0.950561	-0.681564	-0.742410
H83	H	1.011037	-0.685856	-0.673927
H84	H	0.443959	-0.482173	-0.472364
H85	H	1.050645	-0.481814	-1.079883
C86	C	0.852440	-0.496162	-0.486120
C87	C	0.798631	-0.541374	-0.530325
C88	C	0.839758	-0.593036	-0.580884
H89	H	0.884631	-0.531320	-0.455906
H90	H	0.884641	-0.465375	-0.520656
H91	H	0.766444	-0.572159	-0.495793
H92	H	0.766439	-0.506237	-0.560555
H93	H	0.871959	-0.562249	-0.615421
H94	H	0.871948	-0.628189	-0.550664
H95	H	0.803255	-0.623713	-0.610889
C96	C	0.852698	-0.280792	-0.275629
C97	C	0.933827	-0.291818	-0.286430
C98	C	0.975254	-0.240209	-0.236057
H99	H	0.839241	-0.292474	-0.222469
H100	H	0.839232	-0.226616	-0.287304
H101	H	0.947287	-0.345982	-0.274749
H102	H	0.947308	-0.280131	-0.339579
H103	H	0.961788	-0.186032	-0.247732
H104	H	0.961791	-0.251895	-0.182900
H105	H	1.030304	-0.247677	-0.243383
C106	C	0.986230	-0.547433	-0.967093
C107	C	0.941909	-0.592586	-0.913267
C108	C	0.891248	-0.644177	-0.954375
H109	H	1.016375	-0.582631	-0.999284
H110	H	0.951770	-0.516597	-0.999292
H111	H	0.976363	-0.623420	-0.881082
H112	H	0.911747	-0.557410	-0.881075
H113	H	0.856789	-0.613341	-0.986574
H114	H	0.921400	-0.679370	-0.986564
H115	H	0.861165	-0.674814	-0.917860
H116	H	1.050537	-0.481911	-0.682467
H117	H	0.717550	-0.533777	-0.522813
C118	C	1.298389	-0.229086	-0.967242
C119	C	1.281229	-0.149310	-0.947176
C120	C	1.331768	-0.097595	-0.988366
H121	H	1.291202	-0.236349	-1.022325
H122	H	1.351503	-0.240850	-0.953700
H123	H	1.228128	-0.137549	-0.960724
H124	H	1.288421	-0.142021	-0.892100
H125	H	1.384883	-0.109360	-0.974823
H126	H	1.324578	-0.104866	-1.043447
H127	H	1.320138	-0.043462	-0.974751
C128	C	1.298259	-0.229180	-0.795075
C129	C	1.253500	-0.177519	-0.747701
C130	C	1.303913	-0.125887	-0.706338
H131	H	1.328398	-0.198389	-0.831407
H132	H	1.332672	-0.259995	-0.762808
H133	H	1.219101	-0.146706	-0.779965
H134	H	1.223363	-0.208287	-0.711355
H135	H	1.338326	-0.156702	-0.674071
H136	H	1.334049	-0.095101	-0.742676
H137	H	1.273552	-0.090833	-0.674185
H138	H	0.567751	-0.243185	-0.238815
C139	C	0.728688	-0.229249	-0.224963
C140	C	0.708593	-0.246723	-0.146726
C141	C	0.749831	-0.195204	-0.096110
H142	H	0.715219	-0.175058	-0.236520
H143	H	0.783770	-0.236652	-0.232133
H144	H	0.653524	-0.239313	-0.139560
H145	H	0.722064	-0.300905	-0.135144
H146	H	0.804913	-0.202608	-0.103280
H147	H	0.736359	-0.141016	-0.107674
H148	H	0.736208	-0.207058	-0.043021
H149	H	1.234062	-0.294833	-0.682528
