data_functionalizedCrystal
_audit_creation_method	'MofGen! by Chris Wilmer'
_symmetry_space_group_name_H-M	'P1'
_symmetry_Int_Tables_number	1
_symmetry_cell_setting	triclinic
loop_
_symmetry_equiv_pos_as_xyz
  x,y,z
_cell_length_a	15.455313
_cell_length_b	16.109301
_cell_length_c	16.109298
_cell_angle_alpha	96.539166
_cell_angle_beta	87.330355
_cell_angle_gamma	87.322220
loop_
_atom_site_label
_atom_site_type_symbol
_atom_site_fract_x
_atom_site_fract_y
_atom_site_fract_z
O1	O	0.072066	-1.106773	0.103233
O2	O	0.405399	-0.773439	0.436566
O3	O	0.738732	-0.440106	0.769900
O4	O	0.072078	-0.864711	0.116532
O5	O	0.405411	-0.531378	0.449865
O6	O	0.738745	-0.198044	0.783198
O7	O	0.072078	-0.992393	-0.011149
O8	O	0.405411	-0.659060	0.322184
O9	O	0.738744	-0.325726	0.655518
O10	O	0.072066	-0.979090	0.230914
O11	O	0.405399	-0.645757	0.564247
O12	O	0.738733	-0.312424	0.897580
O13	O	-0.072184	-0.985092	-0.003878
O14	O	0.261149	-0.651758	0.329455
O15	O	0.594482	-0.318425	0.662789
O16	O	-0.072184	-0.857410	0.123803
O17	O	0.261149	-0.524076	0.457136
O18	O	0.594483	-0.190743	0.790470
O19	O	-0.072196	-1.099471	0.110504
O20	O	0.261137	-0.766138	0.443838
O21	O	0.594470	-0.432804	0.777171
Cu22	Cu	-0.085362	-0.977774	0.117818
Cu23	Cu	0.247971	-0.644440	0.451151
Cu24	Cu	0.581304	-0.311107	0.784484
Cu25	Cu	0.085244	-0.986408	0.109218
Cu26	Cu	0.418577	-0.653075	0.442552
Cu27	Cu	0.751911	-0.319742	0.775885
O28	O	-0.072196	-0.971789	0.238185
O29	O	0.261137	-0.638456	0.571518
O30	O	0.594471	-0.305122	0.904852
C31	C	-0.000051	-0.830086	0.119629
C32	C	0.333282	-0.496752	0.452962
C33	C	0.666616	-0.163419	0.786295
C34	C	-0.000046	-0.737791	0.118013
C35	C	0.333287	-0.404457	0.451346
C36	C	0.666621	-0.071124	0.784680
N37	N	-0.205358	-0.971707	0.123865
N38	N	0.127975	-0.638373	0.457199
N39	N	0.461309	-0.305040	0.790532
C40	C	-0.000050	-0.988204	-0.038489
C41	C	0.333283	-0.654871	0.294845
C42	C	0.666617	-0.321538	0.628178
C43	C	-0.000040	-0.986591	-0.130785
C44	C	0.333294	-0.653257	0.202549
C45	C	0.666627	-0.319924	0.535882
C46	C	-0.250752	-1.025969	0.069642
C47	C	0.082581	-0.692636	0.402975
C48	C	0.415914	-0.359303	0.736308
C49	C	-0.341560	-1.021389	0.074223
C50	C	-0.008227	-0.688055	0.407556
C51	C	0.325106	-0.354722	0.740890
C52	C	-0.386972	-0.962549	0.133032
C53	C	-0.053639	-0.629215	0.466366
C54	C	0.279695	-0.295882	0.799699
C55	C	-0.341571	-0.908280	0.187258
C56	C	-0.008238	-0.574947	0.520591
C57	C	0.325095	-0.241613	0.853925
C58	C	-0.250765	-0.912857	0.182672
C59	C	0.082568	-0.579524	0.516006
C60	C	0.415901	-0.246191	0.849339
C61	C	-0.658553	-0.942791	0.152804
C62	C	-0.325220	-0.609458	0.486137
C63	C	0.008113	-0.276124	0.819471
C64	C	-0.749366	-0.938220	0.157388
C65	C	-0.416033	-0.604886	0.490721
C66	C	-0.082699	-0.271553	0.824054
C67	C	-0.749349	-1.051327	0.044351
C68	C	-0.416015	-0.717994	0.377684
C69	C	-0.082682	-0.384661	0.711018
C70	C	-0.658541	-1.055903	0.039774
C71	C	-0.325207	-0.722570	0.373107
C72	C	0.008126	-0.389236	0.706440
C73	C	-0.613148	-1.001632	0.093996
C74	C	-0.279815	-0.668298	0.427330
C75	C	0.053519	-0.334965	0.760663
N76	N	-0.479792	-0.957867	0.137718
N77	N	-0.146459	-0.624533	0.471052
N78	N	0.186874	-0.291200	0.804385
N79	N	-0.520329	-1.006310	0.089306
N80	N	-0.186996	-0.672977	0.422639
N81	N	0.146337	-0.339643	0.755973
N82	N	0.205240	-0.992482	0.103164
N83	N	0.538573	-0.659149	0.436497
N84	N	0.871906	-0.325816	0.769831
C85	C	-0.000065	-1.134097	0.107407
C86	C	0.333268	-0.800763	0.440741
C87	C	0.666601	-0.467430	0.774074
C88	C	-0.000065	-1.226392	0.109022
C89	C	0.333268	-0.893059	0.442356
C90	C	0.666602	-0.559725	0.775689
C91	C	-0.000059	-0.515517	0.190022
C92	C	0.333274	-0.182183	0.523355
C93	C	0.666607	0.151150	0.856688
C94	C	-0.000065	-0.428796	0.188498
C95	C	0.333268	-0.095463	0.521831
C96	C	0.666602	0.237871	0.855164
C97	C	-0.000054	-0.448673	0.037008
C98	C	0.333279	-0.115339	0.370342
C99	C	0.666613	0.217994	0.703675
C100	C	-0.000055	-0.535391	0.038533
C101	C	0.333279	-0.202058	0.371867
C102	C	0.666612	0.131275	0.705200
C103	C	-0.000053	-0.568811	0.115042
C104	C	0.333280	-0.235478	0.448375
C105	C	0.666614	0.097856	0.781709
C106	C	-0.000058	-0.395372	0.111993
C107	C	0.333276	-0.062038	0.445327
C108	C	0.666609	0.271295	0.778660
C109	C	-0.000064	-0.301345	0.110341
C110	C	0.333270	0.031988	0.443674
C111	C	0.666603	0.365321	0.777007
C112	C	-0.000049	-0.662843	0.116695
C113	C	0.333285	-0.329510	0.450029
C114	C	0.666618	0.003824	0.783362
C115	C	0.078580	-0.985302	-0.433816
C116	C	0.411913	-0.651969	-0.100483
C117	C	0.745246	-0.318636	0.232851
C118	C	0.078586	-0.986831	-0.347096
C119	C	0.411919	-0.653497	-0.013763
C120	C	0.745253	-0.320164	0.319570
C121	C	-0.078697	-0.978882	-0.339154
C122	C	0.254637	-0.645549	-0.005821
C123	C	0.587970	-0.312216	0.327512
C124	C	-0.078702	-0.977360	-0.425873
C125	C	0.254632	-0.644027	-0.092540
C126	C	0.587965	-0.310693	0.240793
C127	C	-0.000061	-0.980566	-0.473201
C128	C	0.333272	-0.647233	-0.139868
C129	C	0.666606	-0.313899	0.193465
C130	C	-0.000050	-0.983616	-0.299763
C131	C	0.333284	-0.650283	0.033570
C132	C	0.666617	-0.316950	0.366904
C133	C	-0.000044	-0.985273	-0.205738
C134	C	0.333290	-0.651940	0.127596
C135	C	0.666623	-0.318607	0.460929
C136	C	-0.000067	-0.978911	-0.567233
C137	C	0.333267	-0.645577	-0.233900
C138	C	0.666600	-0.312244	0.099434
C139	C	-0.000067	-0.975978	0.265524
C140	C	0.333267	-0.642645	0.598858
C141	C	0.666600	-0.309311	0.932191
C142	C	-0.000071	-0.977592	0.357820
C143	C	0.333262	-0.644259	0.691153
C144	C	0.666596	-0.310925	1.024487
H145	H	-0.213784	-1.073886	0.021757
H146	H	0.119549	-0.740553	0.355090
H147	H	0.452883	-0.407220	0.688423
Br148	Br	-0.185418	-0.974528	-0.274918
Br149	Br	0.147915	-0.641195	0.058415
Br150	Br	0.481249	-0.307861	0.391748
H151	H	-0.142744	-0.973505	-0.457942
H152	H	0.190589	-0.640172	-0.124608
H153	H	0.523922	-0.306839	0.208725
H154	H	-0.000072	-0.385407	0.249554
H155	H	0.333261	-0.052073	0.582887
H156	H	0.666595	0.281260	0.916221
Br157	Br	-0.403170	-1.095029	0.000630
Br158	Br	-0.069836	-0.761695	0.333964
Br159	Br	0.263497	-0.428362	0.667297
Br160	Br	-0.596954	-0.869141	0.226391
Br161	Br	-0.263621	-0.535808	0.559725
Br162	Br	0.069713	-0.202475	0.893058
Br163	Br	-0.596909	-1.135761	-0.040036
Br164	Br	-0.263575	-0.802427	0.293298
Br165	Br	0.069758	-0.469094	0.626631
H166	H	-0.000061	-0.421451	-0.025282
H167	H	0.333273	-0.088118	0.308051
H168	H	0.666606	0.245216	0.641384
H169	H	-0.786316	-1.095512	0.000204
H170	H	-0.452982	-0.762178	0.333538
H171	H	-0.119649	-0.428845	0.666871
Br172	Br	-0.000060	-0.560870	0.293854
Br173	Br	0.333273	-0.227536	0.627188
Br174	Br	0.666607	0.105797	0.960521
H175	H	-0.378551	-0.860367	0.235139
H176	H	-0.045218	-0.527034	0.568472
H177	H	0.288116	-0.193700	0.901806
H178	H	-0.000052	-0.578786	-0.022528
H179	H	0.333281	-0.245453	0.310806
H180	H	0.666615	0.087881	0.644139
H181	H	-0.786336	-0.890302	0.205280
H182	H	-0.453003	-0.556969	0.538614
H183	H	-0.119670	-0.223636	0.871947
H184	H	-0.213806	-0.868670	0.226826
H185	H	0.119527	-0.535337	0.560159
H186	H	0.452861	-0.202003	0.893492
Br187	Br	0.185306	-0.989656	-0.498045
Br188	Br	0.518639	-0.656322	-0.164712
Br189	Br	0.851972	-0.322989	0.168622
Br190	Br	0.185317	-0.993265	-0.293649
Br191	Br	0.518651	-0.659931	0.039685
Br192	Br	0.851984	-0.326598	0.373018
