data_functionalizedCrystal
_audit_creation_method	'MofGen! by Chris Wilmer'
_symmetry_space_group_name_H-M	'P1'
_symmetry_Int_Tables_number	1
_symmetry_cell_setting	triclinic
loop_
_symmetry_equiv_pos_as_xyz
  x,y,z
_cell_length_a	10.686220
_cell_length_b	12.759400
_cell_length_c	10.686551
_cell_angle_alpha	94.405838
_cell_angle_beta	89.691918
_cell_angle_gamma	94.396325
loop_
_atom_site_label
_atom_site_type_symbol
_atom_site_fract_x
_atom_site_fract_y
_atom_site_fract_z
Zn1	Zn	1.972289	-0.256138	0.562385
Zn2	Zn	1.956061	-0.446298	0.352626
Zn3	Zn	1.746408	-0.283014	0.368703
Zn4	Zn	1.762491	-0.444169	0.578404
O5	O	1.859312	-0.357405	0.465529
O6	O	2.145678	-0.271007	0.521128
O7	O	1.914727	-0.436777	0.179213
O8	O	1.776432	-0.132422	0.394419
O9	O	2.133755	-0.410716	0.367019
O10	O	1.942386	-0.112677	0.536717
O11	O	1.760696	-0.316813	0.191024
O12	O	1.572999	-0.314748	0.409952
O13	O	1.803844	-0.407088	0.751824
O14	O	1.584816	-0.433148	0.564018
O15	O	1.957981	-0.268942	0.740056
O16	O	1.930323	-0.593042	0.382552
O17	O	1.788108	-0.591478	0.548429
C18	C	1.533391	-0.376634	0.490468
C19	C	1.393964	-0.384884	0.501167
C20	C	1.859236	-0.630378	0.465509
C21	C	1.859321	-0.747148	0.465533
C22	C	1.933468	-0.802778	0.379243
C23	C	1.933548	-0.912495	0.379275
C24	C	1.785323	-0.910942	0.551894
C25	C	1.785251	-0.801226	0.551866
C26	C	2.007538	-0.748700	0.292910
C27	C	2.081690	-0.804330	0.206611
C28	C	2.081770	-0.914047	0.206644
C29	C	2.007698	-0.968133	0.292976
C30	C	2.186505	-0.338101	0.440494
C31	C	2.325936	-0.329875	0.429825
C32	C	1.884517	-0.334779	0.792730
C33	C	1.895257	-0.325138	0.932163
C34	C	1.859425	-0.083361	0.465575
C35	C	1.859473	0.033420	0.465594
C36	C	1.834278	-0.379862	0.139596
C37	C	1.823780	-0.389193	0.000145
H38	H	1.374361	-0.276469	0.360559
O39	O	1.336000	-0.448523	0.583778
C40	C	1.139514	-0.515133	0.670026
C41	C	1.204997	-0.443006	0.576442
H42	H	1.033586	-0.510713	0.664108
H43	H	1.172926	-0.488313	0.769302
H44	H	1.163560	-0.599835	0.645886
H45	H	1.180981	-0.358283	0.600466
H46	H	1.171580	-0.469914	0.477193
O47	O	2.153666	-0.968243	0.122841
C48	C	2.157844	-1.102912	-0.047721
C49	C	2.076252	-1.041618	0.047101
H50	H	2.095286	-1.162234	-0.108999
H51	H	2.227803	-1.146394	0.004954
H52	H	2.210851	-1.045419	-0.109376
H53	H	2.023165	-1.099039	0.108780
H54	H	2.006370	-0.998120	-0.005652
H55	H	2.007477	-0.659363	0.292870
H56	H	2.142005	-0.760287	0.136329
H57	H	2.007780	-1.057471	0.293004
O58	O	1.741113	-0.463562	0.942374
C59	C	1.677048	-0.648629	0.906725
C60	C	1.770766	-0.564515	0.972211
H61	H	1.700973	-0.730267	0.930845
H62	H	1.682858	-0.643533	0.800787
H63	H	1.577864	-0.634344	0.940134
H64	H	1.869992	-0.578745	0.938904
H65	H	1.764846	-0.569633	1.078139
O66	O	1.713399	-0.963647	0.635623
C67	C	1.647873	-1.131978	0.712208
C68	C	1.729369	-1.072426	0.617301
H69	H	1.660777	-1.219933	0.697445
H70	H	1.544995	-1.118063	0.697831
H71	H	1.677583	-1.102006	0.811682
H72	H	1.699769	-1.102361	0.517789
H73	H	1.832229	-1.086340	0.631788
H74	H	1.724875	-0.755932	0.622133
H75	H	1.964679	-0.262921	0.980637
