data_functionalizedCrystal
_audit_creation_method	'MofGen! by Chris Wilmer'
_symmetry_space_group_name_H-M	'P1'
_symmetry_Int_Tables_number	1
_symmetry_cell_setting	triclinic
loop_
_symmetry_equiv_pos_as_xyz
  x,y,z
_cell_length_a	19.288862
_cell_length_b	14.586319
_cell_length_c	19.288865
_cell_angle_alpha	90.009016
_cell_angle_beta	96.864237
_cell_angle_gamma	89.979846
loop_
_atom_site_label
_atom_site_type_symbol
_atom_site_fract_x
_atom_site_fract_y
_atom_site_fract_z
O1	O	-0.921348	0.076604	0.086639
O2	O	-0.719088	0.076530	0.098329
O3	O	-0.826062	0.076551	-0.008646
O4	O	-0.814374	0.076583	0.193615
O5	O	-0.826055	-0.075930	-0.008648
O6	O	-0.719080	-0.075951	0.098328
O7	O	-0.921341	-0.075876	0.086637
Cu8	Cu	-0.820210	-0.089836	0.092483
Cu9	Cu	-0.820219	0.090490	0.092484
O10	O	-0.814366	-0.075898	0.193613
C11	C	-0.693207	0.000280	0.097953
C12	C	-0.616104	0.000251	0.096824
N13	N	-0.820209	-0.216668	0.092481
C14	C	-0.571407	0.000272	0.159593
C15	C	-0.498960	0.000278	0.158533
C16	C	-0.471213	0.000280	0.094701
C17	C	-0.515919	0.000253	0.031924
C18	C	-0.588364	0.000238	0.032986
C19	C	-0.362953	0.053716	0.044523
C20	C	-0.290509	0.053736	0.043464
C21	C	-0.247767	0.000320	0.091423
C22	C	-0.277477	-0.053104	0.140453
C23	C	-0.349923	-0.053119	0.141515
C24	C	-0.392659	0.000295	0.093542
C25	C	-0.124514	0.000346	0.153046
C26	C	-0.052066	0.000346	0.151983
C27	C	-0.069026	0.000330	0.025373
C28	C	-0.141473	0.000321	0.026438
C29	C	-0.169212	0.000334	0.090276
C30	C	-0.867593	-0.451665	0.045128
C31	C	-0.867595	-0.547646	0.045126
C32	C	-0.772836	-0.547675	0.139836
C33	C	-0.772831	-0.451695	0.139834
C34	C	-0.820214	-0.403693	0.092480
C35	C	-0.820220	-0.595654	0.092481
C36	C	-0.820222	-0.699721	0.092479
C37	C	-0.820211	-0.299619	0.092481
C38	C	0.052779	0.000360	0.087016
C39	C	-0.024324	0.000346	0.088151
C40	C	-0.825683	0.000308	-0.034523
C41	C	-0.824554	0.000299	-0.111627
N42	N	-0.820225	0.217322	0.092481
C43	C	-0.887322	0.000318	-0.156324
C44	C	-0.886261	0.000332	-0.228771
C45	C	-0.822429	0.000309	-0.256518
C46	C	-0.759652	0.000296	-0.211811
C47	C	-0.760715	0.000291	-0.139366
C48	C	-0.772246	-0.053120	-0.364805
C49	C	-0.771187	-0.053121	-0.437250
C50	C	-0.819149	0.000329	-0.479963
C51	C	-0.868183	0.053767	-0.450225
C52	C	-0.869246	0.053762	-0.377780
C53	C	-0.821269	0.000315	-0.335072
C54	C	-0.880771	0.000364	-0.603216
C55	C	-0.879708	0.000384	-0.675664
C56	C	-0.753098	0.000338	-0.658703
C57	C	-0.754163	0.000328	-0.586257
C58	C	-0.818001	0.000336	-0.558518
C59	C	-0.814746	0.000348	0.219490
C60	C	-0.815875	0.000362	0.296594
H61	H	-0.593988	0.000284	0.211575
O62	O	-0.956172	0.000335	-0.126402
H63	H	-0.959683	0.062481	-0.093789
H64	H	-0.937376	0.000351	-0.265170
H65	H	-0.397748	0.097219	0.005467
H66	H	-0.734246	-0.412633	0.178394
H67	H	-0.462561	0.000293	0.209648
O68	O	-0.918680	-0.399880	-0.005953
H69	H	-0.972803	-0.418265	0.002743
O70	O	-0.720516	-0.110782	-0.318741
H71	H	-0.688252	-0.065748	-0.281343
H72	H	-0.703050	0.000307	-0.549863
H73	H	-0.909169	0.097275	-0.353570
O74	O	-0.684248	0.000306	-0.688620
H75	H	-0.680738	0.062452	-0.721215
H76	H	-0.907238	0.097291	-0.485001
O77	O	-0.485992	0.000255	-0.036922
H78	H	-0.503932	-0.061908	-0.067068
O79	O	-0.039113	0.000326	-0.043478
H80	H	-0.006540	0.062482	-0.046997
O81	O	-0.690806	0.000264	-0.241739
H82	H	-0.660660	0.062405	-0.223768
H83	H	-0.731257	-0.096628	-0.461456
O84	O	-0.693013	0.000255	-0.091150
H85	H	-0.648446	0.000235	-0.122611
O86	O	-0.949621	0.000391	-0.573289
H87	H	-0.993091	0.000424	-0.616544
H88	H	-0.734260	-0.586768	0.178391
O89	O	-0.947411	0.000396	-0.723879
H90	H	-0.991976	0.000390	-0.692416
H91	H	-0.906174	-0.586703	0.006566
H92	H	-0.374110	-0.096622	0.181435
H93	H	-0.624757	0.000221	-0.018129
H94	H	-0.177866	0.000309	-0.024675
O95	O	-0.258473	0.111347	-0.009425
H96	H	-0.271453	0.184575	-0.002066
O97	O	-0.231390	-0.110730	0.192184
H98	H	-0.176024	-0.101758	0.183204
H99	H	-0.147101	0.000343	0.205027
H100	H	-0.015674	0.000358	0.203099
