data_functionalizedCrystal
_audit_creation_method	'MofGen! by Chris Wilmer'
_symmetry_space_group_name_H-M	'P1'
_symmetry_Int_Tables_number	1
_symmetry_cell_setting	triclinic
loop_
_symmetry_equiv_pos_as_xyz
  x,y,z
_cell_length_a	19.805407
_cell_length_b	12.594516
_cell_length_c	19.805399
_cell_angle_alpha	89.979203
_cell_angle_beta	89.980427
_cell_angle_gamma	90.016053
loop_
_atom_site_label
_atom_site_type_symbol
_atom_site_fract_x
_atom_site_fract_y
_atom_site_fract_z
Zn1	Zn	1.034784	-0.423767	-0.382752
Zn2	Zn	1.534784	0.076233	0.117248
Zn3	Zn	1.034720	-0.601760	-0.269577
Zn4	Zn	1.534720	-0.101760	0.230423
Zn5	Zn	0.921599	-0.423796	-0.269576
Zn6	Zn	1.421599	0.076204	0.230424
Zn7	Zn	0.921583	-0.601704	-0.382723
Zn8	Zn	1.421583	-0.101704	0.117277
O9	O	0.978172	-0.512757	-0.326157
O10	O	1.478172	-0.012757	0.173843
O11	O	1.129492	-0.447389	-0.367751
O12	O	1.629492	0.052611	0.132249
O13	O	1.019694	-0.578189	-0.174860
O14	O	1.519694	-0.078189	0.325140
O15	O	0.936647	-0.274846	-0.284601
O16	O	1.436647	0.225154	0.215399
O17	O	1.129445	-0.578160	-0.284602
O18	O	1.629445	-0.078160	0.215398
O19	O	1.019804	-0.274825	-0.367750
O20	O	1.519804	0.225175	0.132250
O21	O	0.936584	-0.447439	-0.174860
O22	O	1.436584	0.052561	0.325140
O23	O	0.826880	-0.447385	-0.284573
O24	O	1.326880	0.052615	0.215427
O25	O	0.936620	-0.578064	-0.477444
O26	O	1.436620	-0.078064	0.022556
O27	O	0.826869	-0.578092	-0.367702
O28	O	1.326869	-0.078092	0.132298
O29	O	1.019788	-0.447335	-0.477464
O30	O	1.519788	0.052665	0.022536
O31	O	1.019678	-0.750698	-0.284574
O32	O	1.519678	-0.250698	0.215426
O33	O	0.936557	-0.750657	-0.367703
O34	O	1.436557	-0.250657	0.132297
C35	C	0.802316	-0.512736	-0.326135
C36	C	1.302316	-0.012736	0.173865
C37	C	0.727084	-0.512753	-0.326142
C38	C	1.227084	-0.012753	0.173858
C39	C	0.691751	-0.580915	-0.369357
C40	C	1.191751	-0.080915	0.130643
C41	C	0.621063	-0.580917	-0.369366
C42	C	1.121063	-0.080917	0.130634
C43	C	0.585708	-0.512762	-0.326157
C44	C	1.085708	-0.012762	0.173843
C45	C	0.621045	-0.444592	-0.282940
C46	C	1.121045	0.055408	0.217060
C47	C	0.691733	-0.444586	-0.282934
C48	C	1.191733	0.055414	0.217066
C49	C	0.335972	-0.444615	-0.282962
C50	C	0.835972	0.055385	0.217038
C51	C	0.265280	-0.444629	-0.282970
C52	C	0.765280	0.055371	0.217030
C53	C	0.265302	-0.580947	-0.369394
C54	C	0.765302	-0.080947	0.130606
C55	C	0.335989	-0.580941	-0.369389
C56	C	0.835989	-0.080941	0.130611
C57	C	0.371321	-0.512768	-0.326175
C58	C	0.871321	-0.012768	0.173825
C59	C	0.447969	-0.512765	-0.326166
C60	C	0.947969	-0.012765	0.173834
C61	C	0.509061	-0.512769	-0.326162
C62	C	1.009061	-0.012769	0.173838
C63	C	0.978127	-0.789298	-0.326150
C64	C	1.478127	-0.289298	0.173850
C65	C	0.978170	-0.907603	-0.326170
C66	C	1.478170	-0.407603	0.173830
C67	C	0.932956	-0.976872	-0.371352
C68	C	1.432956	-0.476872	0.128648
C69	C	0.916467	-1.047728	-0.309590
C70	C	1.416467	-0.547728	0.190410
C71	C	0.994721	-1.047546	-0.387943
C72	C	1.494721	-0.547546	0.112057
C73	C	0.961649	-0.976901	-0.264375
C74	C	1.461649	-0.476901	0.235625
C75	C	1.039931	-0.976712	-0.342770
C76	C	1.539931	-0.476712	0.157230
C77	C	1.023465	-1.047536	-0.280965
C78	C	1.523465	-0.547536	0.219035
C79	C	1.154714	-0.512778	-0.326179
C80	C	1.654714	-0.012778	0.173821
C81	C	1.229946	-0.512787	-0.326189
C82	C	1.729946	-0.012787	0.173811
C83	C	0.978209	-0.512690	-0.502700
C84	C	1.478209	-0.012690	-0.002700
C85	C	0.978226	-0.512661	-0.577932
C86	C	1.478226	-0.012661	-0.077932
C87	C	0.978235	-0.235136	-0.326178
C88	C	1.478235	0.264864	0.173822
C89	C	0.978261	-0.116830	-0.326188
C90	C	1.478261	0.383170	0.173812
C91	C	1.021533	-0.444587	-0.613288
C92	C	1.521533	0.055413	-0.113288
C93	C	1.021539	-0.444556	-0.683976
C94	C	1.521539	0.055444	-0.183976
C95	C	0.978242	-0.512605	-0.719307
C96	C	1.478242	-0.012605	-0.219307
C97	C	0.934931	-0.580683	-0.683947
C98	C	1.434931	-0.080683	-0.183947
C99	C	0.934921	-0.580707	-0.613259
C100	C	1.434921	-0.080707	-0.113259
C101	C	0.934969	-0.580583	-0.969020
C102	C	1.434969	-0.080583	-0.469020
C103	C	0.934984	-0.580556	-1.039712
C104	C	1.434984	-0.080556	-0.539712
C105	C	1.021588	-0.444432	-1.039737
C106	C	1.521588	0.055568	-0.539737
C107	C	1.021578	-0.444457	-0.969050
C108	C	1.521578	0.055543	-0.469050
C109	C	0.978264	-0.512530	-0.933695
C110	C	1.478264	-0.012530	-0.433695
C111	C	0.978256	-0.512561	-0.857046
C112	C	1.478256	-0.012561	-0.357046
C113	C	0.978253	-0.512580	-0.795955
C114	C	1.478253	-0.012580	-0.295955
C115	C	0.978173	-0.512747	-0.150301
C116	C	1.478173	-0.012747	0.349699
C117	C	0.978288	-0.512475	-0.075069
C118	C	1.478288	-0.012475	0.424931
H119	H	0.592298	-0.636423	-0.404556
H120	H	1.092298	-0.136423	0.095444
C121	C	0.582153	-0.369617	-0.235411
C122	C	1.082153	0.130383	0.264589
N123	N	0.552860	-0.313147	-0.199609
N124	N	1.052860	0.186853	0.300391
C125	C	0.942702	-0.935156	-0.193791
C126	C	1.442702	-0.435156	0.306209
N127	N	0.928429	-0.903711	-0.140629
N128	N	1.428429	-0.403711	0.359371
H129	H	0.364771	-0.636444	-0.404572
H130	H	0.864771	-0.136444	0.095428
H131	H	0.899710	-0.636028	-0.940243
H132	H	1.399710	-0.136028	-0.440243
C133	C	1.075171	-1.089199	-0.229298
C134	C	1.575171	-0.589199	0.270702
N135	N	1.114112	-1.120583	-0.190381
N136	N	1.614112	-0.620583	0.309619
C137	C	0.374827	-0.369630	-0.235421
C138	C	0.874827	0.130370	0.264579
N139	N	0.404096	-0.313148	-0.199609
N140	N	0.904096	0.186852	0.300391
H141	H	0.720532	-0.636419	-0.404541
H142	H	1.220532	-0.136419	0.095459
C143	C	0.887297	-0.655528	-0.722813
C144	C	1.387297	-0.155528	-0.222813
N145	N	0.851418	-0.711902	-0.752087
N146	N	1.351418	-0.211902	-0.252087
H147	H	0.236496	-0.389122	-0.247783
H148	H	0.736496	0.110878	0.252217
C149	C	0.881210	-0.934942	-0.422892
C150	C	1.381210	-0.434942	0.077108
N151	N	0.842233	-0.903357	-0.461708
N152	N	1.342233	-0.403357	0.038292
C153	C	1.013583	-1.089468	-0.458507
C154	C	1.513583	-0.589468	0.041493
N155	N	1.027786	-1.121039	-0.511658
N156	N	1.527786	-0.621039	-0.011658
C157	C	1.110412	-0.934521	-0.361765
C158	C	1.610412	-0.434521	0.138235
N159	N	1.163496	-0.902734	-0.376081
N160	N	1.663496	-0.402734	0.123919
H161	H	1.056853	-0.389000	-1.068531
H162	H	1.556853	0.111000	-0.568531
H163	H	0.236527	-0.636453	-0.404584
H164	H	0.736527	-0.136453	0.095416
C165	C	0.845961	-1.089870	-0.290627
C166	C	1.345961	-0.589870	0.209373
N167	N	0.792855	-1.121608	-0.276348
N168	N	1.292855	-0.621608	0.223652
H169	H	0.899649	-0.636130	-0.584473
H170	H	1.399649	-0.136130	-0.084473
C171	C	0.730598	-0.369604	-0.235393
C172	C	1.230598	0.130396	0.264607
N173	N	0.759871	-0.313124	-0.199584
N174	N	1.259871	0.186876	0.300416
H175	H	1.056792	-0.389176	-0.584526
H176	H	1.556792	0.110824	-0.084526
C177	C	0.887347	-0.655412	-1.078575
C178	C	1.387347	-0.155412	-0.578575
N179	N	0.851468	-0.711790	-1.107847
N180	N	1.351468	-0.211790	-0.607847
C181	C	1.069182	-0.369671	-0.722865
C182	C	1.569182	0.130329	-0.222865
N183	N	1.105068	-0.313264	-0.752155
N184	N	1.605068	0.186736	-0.252155
C185	C	1.069205	-0.369593	-0.930189
C186	C	1.569205	0.130407	-0.430189
N187	N	1.105076	-0.313199	-0.900921
N188	N	1.605076	0.186801	-0.400921
