data_functionalizedCrystal
_audit_creation_method	'MofGen! by Chris Wilmer'
_symmetry_space_group_name_H-M	'P1'
_symmetry_Int_Tables_number	1
_symmetry_cell_setting	triclinic
loop_
_symmetry_equiv_pos_as_xyz
  x,y,z
_cell_length_a	6.817900
_cell_length_b	12.840933
_cell_length_c	17.982959
_cell_angle_alpha	81.292846
_cell_angle_beta	102.451857
_cell_angle_gamma	88.345099
loop_
_atom_site_label
_atom_site_type_symbol
_atom_site_fract_x
_atom_site_fract_y
_atom_site_fract_z
V1	V	-3.892983	0.325657	-0.107210
O2	O	-3.888468	0.319009	0.003305
O3	O	-3.840197	0.323861	-0.210803
O4	O	-3.788617	0.467490	-0.106371
O5	O	-3.940405	0.174385	-0.101850
V6	V	-4.384431	0.307511	-0.093895
O7	O	-4.136857	0.365461	-0.136416
O8	O	-4.590754	0.267707	-0.064688
O9	O	-4.214010	0.309307	0.009698
O10	O	-4.506343	0.314159	-0.204410
O11	O	-4.454406	0.458783	-0.099255
O12	O	-4.265590	0.165678	-0.094734
C13	C	-3.685942	0.318834	-0.236031
C14	C	-3.723697	0.318311	-0.320725
C15	C	-3.921292	0.323284	-0.364423
C16	C	-3.956756	0.322799	-0.444003
C17	C	-3.794621	0.317333	-0.479881
C18	C	-3.597010	0.312363	-0.436177
C19	C	-3.561549	0.312856	-0.356600
C20	C	-3.740014	0.310376	-0.757102
C21	C	-3.775491	0.309880	-0.836684
C22	C	-4.135220	0.320319	-0.844504
C23	C	-4.099760	0.320812	-0.764927
C24	C	-3.902153	0.315847	-0.721231
C25	C	-3.863702	0.316376	-0.634942
C26	C	-3.833069	0.316797	-0.566167
C27	C	-3.620159	0.502047	-0.102814
C28	C	-3.616006	0.620179	-0.102813
C29	C	-4.097391	0.131115	-0.098289
C30	C	-4.080395	0.012983	-0.098288
V31	V	-3.875931	0.811821	-0.107215
O32	O	-3.912735	0.963005	-0.101854
O33	O	-3.781713	0.664634	-0.106377
O34	O	-3.821607	0.853653	-0.210806
O35	O	-3.872564	0.772677	0.003299
V36	V	-4.365433	0.849211	-0.093905
O37	O	-4.121743	0.796415	-0.136424
O38	O	-4.569024	0.887303	-0.064700
O39	O	-4.236839	0.985151	-0.094741
O40	O	-4.445819	0.703943	-0.099267
O41	O	-4.485990	0.894271	-0.204420
O42	O	-4.196945	0.796131	0.009689
C43	C	-4.031608	0.314331	0.034922
C44	C	-3.973089	0.314861	0.119615
C45	C	-3.666902	0.861292	-0.236029
C46	C	-3.703322	0.898633	-0.320722
C47	C	-3.728935	0.825569	-0.371912
C48	C	-3.763186	0.860642	-0.451492
C49	C	-3.771810	0.968779	-0.479880
C50	C	-3.746200	1.041849	-0.428683
C51	C	-3.711964	1.006776	-0.349104
C52	C	-4.015584	0.771525	0.034919
C53	C	-3.958439	0.733146	0.119613
C54	C	-3.757352	0.702716	0.155486
C55	C	-3.703627	0.666667	0.235066
C56	C	-3.850995	0.661043	0.278771
C57	C	-4.052099	0.691480	0.242892
C58	C	-4.105818	0.727534	0.163315
H59	H	-4.231790	0.325258	-0.735719
C60	C	-3.683755	1.087163	-0.292801
N61	N	-3.662503	1.147717	-0.250396
C62	C	-3.522645	0.304899	-0.709044
N63	N	-3.358912	0.300770	-0.672843
C64	C	-3.597119	0.303875	-0.876149
N65	N	-3.462777	0.299353	-0.905874
C66	C	-4.214187	0.685277	0.290978
N67	N	-4.336271	0.680597	0.327198
C68	C	-4.327039	0.760992	0.123861
N69	N	-4.493670	0.786190	0.094149
H70	H	-3.753231	1.129897	-0.451808
H71	H	-3.799686	0.997324	-0.544679
C72	C	-3.344181	0.307381	-0.308531
N73	N	-3.180453	0.303260	-0.272327
H74	H	-4.296125	0.324363	-0.880092
C75	C	-3.719472	0.706610	-0.340703
N76	N	-3.712362	0.617008	-0.317203
H77	H	-4.053326	0.327725	-0.335216
C78	C	-4.174123	0.328266	-0.492067
N79	N	-4.337853	0.332384	-0.528269
H80	H	-3.465000	0.307918	-0.465396
H81	H	-3.784027	0.801131	-0.493167
H82	H	-3.637329	0.707294	0.119913
C83	C	-3.482406	0.633180	0.274516
N84	N	-3.315783	0.607955	0.304226
C85	C	-3.791872	0.621370	0.366308
N86	N	-3.747330	0.591483	0.432240
