data_functionalizedCrystal
_audit_creation_method	'MofGen! by Chris Wilmer'
_symmetry_space_group_name_H-M	'P1'
_symmetry_Int_Tables_number	1
_symmetry_cell_setting	triclinic
loop_
_symmetry_equiv_pos_as_xyz
  x,y,z
_cell_length_a	14.628931
_cell_length_b	23.196402
_cell_length_c	23.196402
_cell_angle_alpha	90.003744
_cell_angle_beta	59.999712
_cell_angle_gamma	60.003473
loop_
_atom_site_label
_atom_site_type_symbol
_atom_site_fract_x
_atom_site_fract_y
_atom_site_fract_z
Zr1	Zr	1.000590	-0.075674	0.555356
O2	O	1.191291	-0.167721	0.463298
O3	O	0.809886	-0.047456	0.583577
O4	O	1.000589	-0.167725	0.583567
O5	O	1.000591	0.047418	0.463317
O6	O	1.000591	-0.167728	0.678437
O7	O	1.000589	-0.047452	0.463309
O8	O	0.659459	0.047411	0.678455
O9	O	1.341723	-0.167721	0.463299
O10	O	0.888328	-0.035424	0.666413
O11	O	0.888328	0.035379	0.595619
O12	O	1.112856	-0.106222	0.595607
O13	O	1.112856	-0.035419	0.524813
Zr14	Zr	1.000598	0.075628	0.706676
Zr15	Zr	1.000594	-0.075679	0.706663
Zr16	Zr	1.000594	0.075633	0.555369
Zr17	Zr	1.240512	-0.075674	0.555357
Zr18	Zr	0.760676	0.075628	0.706676
O19	O	1.191302	0.047410	0.678455
O20	O	1.191297	-0.167728	0.678437
O21	O	1.191297	0.047418	0.463317
O22	O	0.809897	0.167675	0.798734
O23	O	0.809891	-0.047464	0.798715
O24	O	0.809891	0.167682	0.583595
O25	O	1.000597	-0.047464	0.798716
O26	O	1.000599	0.167679	0.678465
O27	O	1.000597	0.167682	0.583595
O28	O	1.000599	0.047406	0.798724
O29	O	1.341726	-0.167725	0.583567
O30	O	0.659462	0.167679	0.678465
O31	O	0.659465	0.167675	0.798733
O32	O	0.659462	0.047407	0.798723
O33	O	1.341726	-0.047452	0.463309
O34	O	1.341729	-0.047457	0.583577
O35	O	0.888332	0.106177	0.666425
O36	O	0.888332	0.035374	0.737219
O37	O	1.112860	-0.035424	0.666413
O38	O	1.112860	0.035378	0.595619
C39	C	0.700489	-0.000023	0.631016
C40	C	0.598636	-0.000023	0.631016
C41	C	1.000589	-0.000016	0.441755
C42	C	1.000588	-0.000014	0.377521
C43	C	1.000599	0.189239	0.631032
C44	C	1.000600	0.253472	0.631037
C45	C	0.553227	-0.035145	0.666134
C46	C	0.447956	-0.035146	0.666135
C47	C	1.300699	-0.000023	0.631016
C48	C	1.402552	-0.000023	0.631016
C49	C	1.000589	-0.189284	0.631000
C50	C	1.000588	-0.253518	0.630995
C51	C	1.117798	0.246692	0.594080
C52	C	1.117800	0.307046	0.594070
C53	C	1.000597	0.374181	0.631031
C54	C	0.883384	0.380959	0.667989
C55	C	0.883385	0.320605	0.667993
C56	C	0.910804	0.498116	0.692932
C57	C	0.910808	0.558467	0.692931
C58	C	1.000587	0.560334	0.631019
C59	C	1.090385	0.501836	0.569109
C60	C	1.090387	0.441482	0.569112
C61	C	1.000582	0.439629	0.631031
C62	C	1.117795	0.618994	0.594047
C63	C	1.117792	0.679351	0.594035
C64	C	0.883372	0.753264	0.667961
C65	C	0.883379	0.692907	0.667966
C66	C	1.000594	0.625775	0.631011
C67	C	0.883390	0.036935	0.384306
C68	C	0.883388	0.036938	0.323952
C69	C	1.000591	-0.000022	0.256813
C70	C	1.117804	-0.036973	0.250030
C71	C	1.117802	-0.036969	0.310384
C72	C	1.090383	-0.061932	0.132878
C73	C	1.090380	-0.061938	0.072527
C74	C	1.000601	-0.000033	0.070659
C75	C	0.910803	0.061877	0.129156
C76	C	0.910801	0.061881	0.189511
C77	C	1.000606	-0.000030	0.191365
C78	C	0.883393	0.036923	0.012003
C79	C	0.883396	0.036928	-0.048354
C80	C	1.117815	-0.036990	-0.122275
C81	C	1.117809	-0.036988	-0.061918
C82	C	1.000594	-0.000033	0.005218
C83	C	1.000599	-0.000029	0.820277
C84	C	1.000600	-0.000032	0.884511
C85	C	0.700493	-0.000029	0.820277
C86	C	0.598642	-0.000031	0.884511
C87	C	0.700493	0.189239	0.631032
C88	C	0.598642	0.253473	0.631037
C89	C	0.700498	0.189232	0.820293
C90	C	0.598648	0.253464	0.884532
C91	C	1.300690	-0.189278	0.441739
C92	C	1.402540	-0.253509	0.377500
C93	C	1.300695	-0.000017	0.441755
C94	C	1.402546	-0.000014	0.377521
C95	C	1.300695	-0.189285	0.631000
C96	C	1.402546	-0.253518	0.630995
C97	C	0.550810	-0.036994	0.877715
C98	C	0.455123	-0.037011	0.938064
C99	C	0.407263	-0.000059	1.005207
C100	C	0.455105	0.036905	1.012001
C101	C	0.550797	0.036917	0.951653
C102	C	0.550813	0.320599	0.668000
C103	C	0.455127	0.380960	0.668002
C104	C	0.407264	0.374191	0.631046
C105	C	0.455102	0.307057	0.594078
C106	C	0.550793	0.246699	0.594072
C107	C	0.550818	0.246669	0.951660
C108	C	0.455133	0.307016	1.012025
C109	C	0.407273	0.374156	1.005261
C110	C	0.455112	0.380949	0.938126
C111	C	0.550802	0.320603	0.877763
C112	C	1.450381	-0.246715	0.310372
C113	C	1.546096	-0.307061	0.250007
C114	C	1.593962	-0.374202	0.256771
C115	C	1.546116	-0.380995	0.323906
C116	C	1.450410	-0.320649	0.384269
C117	C	1.450388	0.036942	0.384317
C118	C	1.546102	0.036942	0.323968
C119	C	1.593964	-0.000012	0.256825
C120	C	1.546118	-0.036973	0.250031
C121	C	1.450413	-0.036976	0.310379
C122	C	1.450379	-0.246727	0.667959
C123	C	1.546066	-0.307076	0.667968
C124	C	1.593926	-0.374215	0.631008
C125	C	1.546084	-0.381004	0.594043
C126	C	1.450391	-0.320656	0.594039
H127	H	0.592278	-0.065212	0.696204
H128	H	0.589773	0.326124	0.698095
N129	N	1.398794	-0.076827	0.303049
H130	H	1.415436	-0.114023	0.326435
H131	H	1.443659	-0.100187	0.251343
N132	N	1.244213	0.546586	0.554178
H133	H	1.226432	0.509380	0.559791
H134	H	1.295400	0.541002	0.573578
H135	H	1.671892	-0.423334	0.207614
N136	N	1.398772	-0.174318	0.707824
H137	H	1.443601	-0.179184	0.731241
H138	H	1.302704	-0.147669	0.744978
N139	N	0.546902	0.039810	0.591190
H140	H	0.619865	0.020438	0.539478
H141	H	0.507135	0.091511	0.610628
N142	N	1.244216	-0.076833	0.303066
H143	H	1.226430	-0.071225	0.351488
H144	H	1.295402	-0.057429	0.276379
N145	N	0.602383	0.076787	0.958986
H146	H	0.529360	0.128485	0.985656
H147	H	0.670284	0.071133	0.910547
N148	N	0.756981	0.076778	-0.041034
H149	H	0.774765	0.071172	-0.089455
H150	H	0.705790	0.128462	-0.014340
N151	N	0.403454	0.299768	0.554229
H152	H	0.363735	0.273114	0.573619
H153	H	0.476505	0.273130	0.502532
H154	H	0.408911	-0.065220	0.696199
H155	H	0.837676	0.112282	0.127646
N156	N	1.398784	-0.174305	0.303063
H157	H	1.330893	-0.137100	0.351485
H158	H	1.359161	-0.168714	0.276369
H159	H	0.329344	-0.000074	1.054340
H160	H	0.589723	0.192043	0.563975
N161	N	1.697176	0.000009	0.191744
H162	H	1.663869	0.021048	0.162698
H163	H	1.776565	-0.050055	0.162738
H164	H	1.213239	0.301524	0.563972
N165	N	0.403538	0.453362	0.707878
H166	H	0.448373	0.448485	0.731293
H167	H	0.307470	0.480015	0.745034
N168	N	1.244216	0.174286	0.554251
H169	H	1.318462	0.179153	0.530847
H170	H	1.249373	0.147603	0.517091
H171	H	1.163501	0.393854	0.518703
H172	H	0.441602	0.030045	0.600945
H173	H	1.585036	-0.301516	0.195349
H174	H	0.416192	0.301472	1.066683
H175	H	0.329345	0.423345	0.631056
N176	N	1.244204	0.672039	0.554171
H177	H	1.318453	0.620352	0.530766
H178	H	1.249295	0.695480	0.588109
N179	N	1.187201	-0.128705	0.134902
H180	H	1.242438	-0.120394	0.142527
H181	H	1.243992	-0.167898	0.088686
H182	H	1.585009	-0.301534	0.698068
N183	N	0.602417	0.174258	0.958966
H184	H	0.557587	0.179122	1.010654
H185	H	0.698486	0.147603	0.935529
N186	N	1.597710	-0.453420	0.554181
H187	H	1.665592	-0.490614	0.559794
H188	H	1.637357	-0.459014	0.502495
N189	N	1.597726	-0.076815	0.177611
H190	H	1.665601	-0.071193	0.140418
H191	H	1.524627	-0.057395	0.172029
N192	N	0.304064	0.439240	1.070370
H193	H	0.281031	0.424742	1.113920
H194	H	0.224714	0.468264	1.070344
H195	H	1.585101	-0.435668	0.329405
H196	H	0.416130	0.435623	0.932629
N197	N	0.756957	0.825666	0.707820
H198	H	0.774738	0.862872	0.702209
H199	H	0.705774	0.831261	0.759506
H200	H	0.787949	0.067027	0.329476
H201	H	0.589733	0.326146	0.823107
N202	N	0.756975	0.453367	0.707857
H203	H	0.705738	0.459020	0.759559
H204	H	0.705835	0.458973	0.688418
N205	N	1.398809	-0.327983	0.456670
H206	H	1.443658	-0.379674	0.451789
H207	H	1.302745	-0.304561	0.483319
N208	N	0.403533	-0.076876	0.930718
H209	H	0.307467	-0.042985	0.954115
H210	H	0.420287	-0.114079	0.954085
H211	H	1.411426	0.067039	0.438983
H212	H	1.163492	0.503352	0.518694
N213	N	1.244231	-0.076848	-0.194681
H214	H	1.226450	-0.071243	-0.231887
H215	H	1.295415	-0.128532	-0.200274
N216	N	1.597693	0.076810	0.331305
H217	H	1.552835	0.100223	0.382998
H218	H	1.581047	0.113964	0.307876
N219	N	0.403469	0.076769	1.084420
H220	H	0.476466	0.057393	1.090086
H221	H	0.335567	0.071142	1.121571
N222	N	1.697125	-0.439301	0.631023
H223	H	1.720156	-0.424805	0.660051
H224	H	1.776479	-0.468329	0.580952
N225	N	1.244216	-0.076850	-0.069232
H226	H	1.318466	-0.100267	-0.120921
H227	H	1.249309	-0.114002	-0.045800
N228	N	1.187223	-0.128715	0.009446
H229	H	1.277706	-0.144702	-0.008586
H230	H	1.173489	-0.119283	-0.029027
N231	N	0.756972	0.700216	0.707844
H232	H	0.682722	0.751903	0.731262
H233	H	0.751890	0.676788	0.744998
N234	N	0.813932	0.621565	0.759696
H235	H	0.827550	0.660083	0.750300
H236	H	0.825921	0.607245	0.797820
N237	N	0.813948	0.496111	0.759709
H238	H	0.757068	0.542324	0.798927
H239	H	0.861260	0.456153	0.773485
N240	N	0.756975	0.327915	0.707863
H241	H	0.682724	0.379602	0.731278
H242	H	0.751884	0.304489	0.745020
H243	H	1.411457	-0.326196	0.563935
H244	H	0.589776	-0.067093	0.823049
N245	N	0.756963	0.076794	0.456711
H246	H	0.705720	0.128493	0.462366
H247	H	0.774837	0.071138	0.493878
N248	N	0.813954	0.128649	0.252603
H249	H	0.757072	0.167867	0.242269
H250	H	0.861275	0.142421	0.262724
N251	N	1.244210	-0.076836	0.177616
H252	H	1.295453	-0.128536	0.171961
H253	H	1.295347	-0.057392	0.172004
N254	N	0.756978	0.076781	0.084417
H255	H	0.682730	0.100194	0.079556
H256	H	0.751874	0.113935	0.111071
