data_functionalizedCrystal
_audit_creation_method	'MofGen! by Chris Wilmer'
_symmetry_space_group_name_H-M	'P1'
_symmetry_Int_Tables_number	1
_symmetry_cell_setting	triclinic
loop_
_symmetry_equiv_pos_as_xyz
  x,y,z
_cell_length_a	13.032721
_cell_length_b	19.805407
_cell_length_c	19.805399
_cell_angle_alpha	90.026078
_cell_angle_beta	97.155902
_cell_angle_gamma	82.795889
loop_
_atom_site_label
_atom_site_type_symbol
_atom_site_fract_x
_atom_site_fract_y
_atom_site_fract_z
Zn1	Zn	-0.416105	-1.000532	-0.417060
Zn2	Zn	-0.590864	-0.986081	-0.318245
Zn3	Zn	-0.416130	-0.887344	-0.303874
Zn4	Zn	-0.590804	-0.872949	-0.431374
O5	O	-0.503476	-0.936727	-0.367638
O6	O	-0.439302	-1.093330	-0.403976
O7	O	-0.567721	-0.972960	-0.221625
O8	O	-0.269887	-0.914431	-0.306883
O9	O	-0.567697	-1.082713	-0.331377
O10	O	-0.269869	-0.997589	-0.390041
O11	O	-0.439344	-0.900419	-0.211067
O12	O	-0.439286	-0.790719	-0.320763
O13	O	-0.567595	-0.889897	-0.524189
O14	O	-0.567619	-0.780144	-0.414437
O15	O	-0.439244	-0.983631	-0.513673
O16	O	-0.737096	-0.959002	-0.345257
O17	O	-0.737052	-0.875885	-0.428372
C18	C	-0.503449	-0.760873	-0.367594
C19	C	-0.503463	-0.685640	-0.367594
C20	C	-0.774992	-0.914332	-0.389942
C21	C	-0.891148	-0.904813	-0.399506
C22	C	-0.570412	-0.218349	-0.416376
C23	C	-0.570412	-0.289038	-0.416364
C24	C	-0.503491	-0.329876	-0.367646
C25	C	-0.436574	-0.300021	-0.318933
C26	C	-0.436580	-0.229334	-0.318943
C27	C	-0.436546	-0.585097	-0.318893
C28	C	-0.436543	-0.655789	-0.318888
C29	C	-0.570378	-0.644801	-0.416313
C30	C	-0.570385	-0.574113	-0.416323
C31	C	-0.503472	-0.544265	-0.367608
C32	C	-0.503475	-0.467616	-0.367621
C33	C	-0.503482	-0.406523	-0.367636
C34	C	-0.942921	-0.941730	-0.362677
C35	C	-1.062974	-0.931893	-0.372561
C36	C	-0.230900	-0.959227	-0.345262
C37	C	-0.114744	-0.968816	-0.335727
C38	C	-0.503410	-0.936770	-0.544176
C39	C	-0.503382	-0.936788	-0.619405
C40	C	-0.503499	-0.113267	-0.367674
C41	C	-0.503498	-0.188499	-0.367668
C42	C	-0.436546	-0.985597	-0.649274
C43	C	-0.436516	-0.985607	-0.719960
C44	C	-0.503327	-0.936810	-0.760777
C45	C	-0.570166	-0.887996	-0.730903
C46	C	-0.570190	-0.887984	-0.660218
C47	C	-0.570069	-0.888042	-1.015968
C48	C	-0.570041	-0.888059	-1.086658
C49	C	-0.436394	-0.985665	-1.075711
C50	C	-0.436419	-0.985653	-1.005026
C51	C	-0.503253	-0.936837	-0.975158
C52	C	-0.503284	-0.936827	-0.898512
C53	C	-0.503303	-0.936823	-0.837422
C54	C	-0.503466	-0.936729	-0.191781
C55	C	-0.503200	-0.936865	-0.116528
H56	H	-0.624902	-0.185104	-0.456050
H57	H	-0.382144	-1.025335	-0.616047
H58	H	-1.107523	-0.893004	-0.411415
O59	O	-0.371595	-0.556197	-0.271472
C60	C	-0.320704	-0.538734	-0.152195
C61	C	-0.394314	-0.571504	-0.205839
H62	H	-0.339060	-0.551086	-0.099119
H63	H	-0.236446	-0.559609	-0.157188
H64	H	-0.332158	-0.481198	-0.160573
H65	H	-0.382953	-0.629041	-0.197495
H66	H	-0.478544	-0.550575	-0.200832
O67	O	-0.889940	-0.988174	-0.316319
C68	C	-0.901189	-1.073145	-0.231422
C69	C	-0.961315	-1.020583	-0.283913
H70	H	-0.958869	-1.099351	-0.205198
H71	H	-0.850038	-1.112726	-0.258317
H72	H	-0.850134	-1.046229	-0.191856
H73	H	-1.012426	-1.047439	-0.323494
H74	H	-1.012399	-0.981005	-0.256971
H75	H	-0.382090	-0.333277	-0.279264
H76	H	-0.382089	-0.205032	-0.279282
O77	O	-0.944451	-0.858426	-0.445804
C78	C	-1.112706	-0.806378	-0.497919
C79	C	-1.052474	-0.858924	-0.445450
H80	H	-1.200052	-0.806773	-0.497660
H81	H	-1.091470	-0.753520	-0.484238
H82	H	-1.091175	-0.819976	-0.550741
H83	H	-1.073972	-0.845390	-0.392610
H84	H	-1.073715	-0.911768	-0.459189
O85	O	-0.634898	-0.840660	-0.986848
C86	C	-0.694227	-0.797402	-0.882813
C87	C	-0.620732	-0.851093	-0.915704
H88	H	-0.682815	-0.805827	-0.825290
H89	H	-0.675865	-0.744327	-0.895139
H90	H	-0.778477	-0.802332	-0.903673
H91	H	-0.536458	-0.846226	-0.894863
H92	H	-0.639184	-0.904146	-0.903382
O93	O	-0.635445	-0.317926	-0.463746
C94	C	-0.768238	-0.299564	-0.560359
C95	C	-0.694619	-0.266762	-0.506747
H96	H	-0.816114	-0.258211	-0.595131
H97	H	-0.720378	-0.336608	-0.591909
H98	H	-0.822775	-0.328159	-0.533692
H99	H	-0.640066	-0.238131	-0.533359
H100	H	-0.742543	-0.229755	-0.475200
H101	H	-0.624875	-0.540866	-0.455996
O102	O	-0.371563	-1.033088	-0.748868
C103	C	-0.238967	-1.129882	-0.730547
C104	C	-0.312494	-1.076156	-0.697724
H105	H	-0.191175	-1.164708	-0.689211
H106	H	-0.286893	-1.161365	-0.767569
H107	H	-0.184346	-1.103313	-0.759165
H108	H	-0.367129	-1.102670	-0.669070
H109	H	-0.264503	-1.044677	-0.660740
O110	O	-1.061724	-1.015173	-0.289292
C111	C	-1.028148	-1.050803	-0.171446
C112	C	-1.088275	-0.998267	-0.223963
H113	H	-1.049575	-1.037145	-0.118614
H114	H	-1.049489	-1.103648	-0.185079
H115	H	-0.940798	-1.050484	-0.171766
H116	H	-1.175638	-0.998524	-0.223671
H117	H	-1.066847	-0.945447	-0.210311
H118	H	-0.624561	-0.848263	-0.764141
H119	H	-0.624865	-0.669112	-0.455978
H120	H	-0.624449	-0.848320	-1.119889
O121	O	-0.635226	-0.840549	-0.631314
C122	C	-0.767769	-0.743725	-0.649626
C123	C	-0.694182	-0.797415	-0.682447
H124	H	-0.815438	-0.708828	-0.690951
H125	H	-0.822493	-0.770254	-0.621057
H126	H	-0.719791	-0.712315	-0.612561
H127	H	-0.742075	-0.828841	-0.719543
H128	H	-0.639454	-0.770844	-0.710974
H129	H	-0.382043	-0.689039	-0.279215
H130	H	-0.382017	-1.025390	-0.971797
O131	O	-0.371493	-1.033014	-1.104832
C132	C	-0.312254	-1.076319	-1.208876
C133	C	-0.385785	-1.022649	-1.175986
H134	H	-0.323799	-1.067966	-1.266410
H135	H	-0.227969	-1.071389	-1.188103
H136	H	-0.330611	-1.129371	-1.196462
H137	H	-0.367522	-0.969573	-1.188388
H138	H	-0.470048	-1.027639	-1.196761
