data_functionalizedCrystal
_audit_creation_method	'MofGen! by Chris Wilmer'
_symmetry_space_group_name_H-M	'P1'
_symmetry_Int_Tables_number	1
_symmetry_cell_setting	triclinic
loop_
_symmetry_equiv_pos_as_xyz
  x,y,z
_cell_length_a	9.065215
_cell_length_b	16.109295
_cell_length_c	7.540329
_cell_angle_alpha	89.999525
_cell_angle_beta	90.002426
_cell_angle_gamma	95.763058
loop_
_atom_site_label
_atom_site_type_symbol
_atom_site_fract_x
_atom_site_fract_y
_atom_site_fract_z
O1	O	1.957447	-0.121894	0.147448
O2	O	2.457447	0.378106	0.647448
O3	O	1.527919	-0.131896	0.147455
O4	O	2.027919	0.368104	0.647455
O5	O	1.754487	-0.005954	0.147454
O6	O	2.254487	0.494046	0.647454
O7	O	1.730879	-0.247836	0.147449
O8	O	2.230879	0.252164	0.647449
O9	O	1.754474	-0.005952	-0.147512
O10	O	2.254474	0.494048	0.352488
O11	O	1.527906	-0.131894	-0.147510
O12	O	2.027906	0.368106	0.352490
O13	O	1.957434	-0.121892	-0.147517
O14	O	2.457434	0.378108	0.352483
Cu15	Cu	1.742669	-0.126893	-0.174446
Cu16	Cu	2.242669	0.373107	0.325554
Cu17	Cu	1.742685	-0.126895	0.174384
Cu18	Cu	2.242685	0.373105	0.674384
O19	O	1.730866	-0.247834	-0.147516
O20	O	2.230866	0.252166	0.352484
C21	C	1.472949	-0.130934	-0.000027
C22	C	1.972949	0.369066	0.499973
C23	C	1.309176	-0.128062	-0.000024
C24	C	1.809176	0.371938	0.499976
C25	C	1.753526	0.025029	-0.000025
C26	C	2.253526	0.525029	0.499975
C27	C	1.750663	0.117347	-0.000012
C28	C	2.250663	0.617347	0.499988
C29	C	1.878445	0.338638	0.000052
C30	C	2.378445	0.838638	0.500052
C31	C	1.875744	0.425380	0.000081
C32	C	2.375744	0.925380	0.500081
C33	C	1.606934	0.407569	0.000076
C34	C	2.106934	0.907569	0.500076
C35	C	1.609636	0.320829	0.000060
C36	C	2.109636	0.820829	0.500060
C37	C	1.745396	0.286367	0.000038
C38	C	2.245396	0.786367	0.500038
C39	C	1.739992	0.459848	0.000084
C40	C	2.239992	0.959848	0.500084
C41	C	1.737063	0.553897	0.000116
C42	C	2.237063	1.053897	0.500116
C43	C	1.748327	0.192312	0.000010
C44	C	2.248327	0.692312	0.500010
C45	C	2.012404	-0.122854	-0.000032
C46	C	2.512404	0.377146	0.499968
C47	C	2.176177	-0.125726	-0.000023
C48	C	2.676177	0.374274	0.499977
C49	C	1.731837	0.721184	0.000009
C50	C	2.231837	1.221184	0.500009
C51	C	1.734726	0.628868	0.000134
C52	C	2.234726	1.128868	0.500134
N53	N	1.742668	-0.126891	-0.419795
N54	N	2.242668	0.373109	0.080205
N55	N	1.742697	-0.126890	0.419732
N56	N	2.242697	0.373110	0.919732
H57	H	1.988990	0.310582	0.000038
H58	H	2.488990	0.810582	0.500038
C59	C	1.463276	0.263327	0.000040
C60	C	1.963276	0.763327	0.500040
H61	H	1.382035	0.296273	0.000029
H62	H	1.882035	0.796273	0.500029
H63	H	1.458746	0.229114	0.102893
H64	H	1.958746	0.729114	0.602893
H65	H	1.458747	0.229125	-0.102842
H66	H	1.958747	0.729125	0.397158
C67	C	2.022097	0.482875	0.000084
C68	C	2.522097	0.982875	0.500084
H69	H	2.103332	0.449925	0.000056
H70	H	2.603332	0.949925	0.500056
H71	H	2.026641	0.517078	0.102952
H72	H	2.526641	1.017078	0.602952
H73	H	2.026623	0.517087	-0.102783
H74	H	2.526623	1.017087	0.397217
C75	C	1.457610	0.445482	0.000075
C76	C	1.957610	0.945482	0.500075
H77	H	1.475053	0.504627	0.000067
H78	H	1.975053	1.004627	0.500067
H79	H	1.402824	0.427605	0.102928
H80	H	1.902824	0.927605	0.602928
H81	H	1.402836	0.427610	-0.102807
H82	H	1.902836	0.927610	0.397193
