data_functionalizedCrystal
_audit_creation_method	'MofGen! by Chris Wilmer'
_symmetry_space_group_name_H-M	'P1'
_symmetry_Int_Tables_number	1
_symmetry_cell_setting	triclinic
loop_
_symmetry_equiv_pos_as_xyz
  x,y,z
_cell_length_a	12.811438
_cell_length_b	11.792241
_cell_length_c	11.295483
_cell_angle_alpha	94.123059
_cell_angle_beta	80.460799
_cell_angle_gamma	84.117944
loop_
_atom_site_label
_atom_site_type_symbol
_atom_site_fract_x
_atom_site_fract_y
_atom_site_fract_z
O1	O	1.411389	0.133557	-0.251431
O2	O	1.744723	0.466890	0.081902
O3	O	2.078056	0.800223	0.415235
O4	O	1.103540	0.152734	-0.218191
O5	O	1.436874	0.486067	0.115142
O6	O	1.770207	0.819400	0.448475
O7	O	1.264935	-0.022101	-0.235610
O8	O	1.598268	0.311232	0.097724
O9	O	1.931601	0.644566	0.431057
O10	O	1.249995	0.308391	-0.234013
O11	O	1.583328	0.641725	0.099320
O12	O	1.916661	0.975058	0.432653
O13	O	1.250759	-0.006768	-0.036029
O14	O	1.584092	0.326565	0.297304
O15	O	1.917426	0.659898	0.630638
O16	O	1.089364	0.168066	-0.018611
O17	O	1.422698	0.501399	0.314723
O18	O	1.756031	0.834733	0.648056
O19	O	1.397214	0.148889	-0.051851
O20	O	1.730547	0.482223	0.281483
O21	O	2.063880	0.815556	0.614816
Cu22	Cu	1.241995	0.159878	-0.017008
Cu23	Cu	1.575328	0.493211	0.316326
Cu24	Cu	1.908661	0.826544	0.649659
Cu25	Cu	1.258759	0.141745	-0.253035
Cu26	Cu	1.592092	0.475078	0.080299
Cu27	Cu	1.925426	0.808412	0.413632
O28	O	1.235819	0.323724	-0.034433
O29	O	1.569152	0.657057	0.298901
O30	O	1.902486	0.990391	0.632234
C31	C	1.057041	0.159795	-0.114146
C32	C	1.390374	0.493129	0.219188
C33	C	1.723708	0.826462	0.552521
C34	C	0.939607	0.157980	-0.101465
C35	C	1.272940	0.491313	0.231868
C36	C	1.606274	0.824647	0.565201
C37	C	0.766363	0.163779	0.025191
C38	C	1.099696	0.497113	0.358524
C39	C	1.433030	0.830446	0.691858
C40	C	0.876702	0.165486	0.013282
C41	C	1.210035	0.498819	0.346616
C42	C	1.543369	0.832152	0.679949
C43	C	0.892166	0.148770	-0.204312
C44	C	1.225499	0.482104	0.129021
C45	C	1.558832	0.815437	0.462354
C46	C	0.781827	0.147064	-0.192404
C47	C	1.115160	0.480397	0.140930
C48	C	1.448493	0.813730	0.474263
C49	C	0.718929	0.154567	-0.077648
C50	C	1.052262	0.487900	0.255685
C51	C	1.385596	0.821233	0.589019
C52	C	0.608589	0.152852	-0.065741
C53	C	0.941922	0.486185	0.267593
C54	C	1.275256	0.819518	0.600926
C55	C	0.624053	0.136144	-0.283334
C56	C	0.957387	0.469478	0.049999
C57	C	1.290720	0.802811	0.383333
C58	C	0.734393	0.137851	-0.295243
C59	C	1.067726	0.471184	0.038091
C60	C	1.401059	0.804518	0.371424
C61	C	1.256908	-0.056716	-0.135718
C62	C	1.590242	0.276617	0.197615
C63	C	1.923575	0.609951	0.530948
C64	C	1.254099	-0.182701	-0.135416
C65	C	1.587433	0.150632	0.197917
C66	C	1.920766	0.483965	0.531250
C67	C	1.248935	-0.413362	-0.134879
C68	C	1.582269	-0.080029	0.198455
C69	C	1.915602	0.253304	0.531788
C70	C	1.251805	-0.285006	-0.135178
C71	C	1.585138	0.048328	0.198156
C72	C	1.918471	0.381661	0.531489
C73	C	1.443713	0.141827	-0.155899
C74	C	1.777046	0.475161	0.177434
C75	C	2.110380	0.808494	0.510767
C76	C	1.561147	0.143642	-0.168587
C77	C	1.894481	0.476975	0.164746
C78	C	2.227814	0.810309	0.498079
C79	C	1.243845	0.358339	-0.134327
C80	C	1.577179	0.691672	0.199007
C81	C	1.910512	1.025005	0.532340
C82	C	1.246655	0.484323	-0.134637
C83	C	1.579989	0.817657	0.198697
C84	C	1.913322	1.150990	0.532030
N85	N	1.230211	0.172630	0.149001
N86	N	1.563544	0.505964	0.482334
N87	N	1.896878	0.839297	0.815667
N88	N	1.270551	0.128983	-0.419044
N89	N	1.603884	0.462317	-0.085710
N90	N	1.937218	0.795650	0.247623
C91	C	1.355375	0.037119	0.384782
C92	C	1.688708	0.370452	0.718115
C93	C	2.022042	0.703786	1.051449
C94	C	1.346478	0.046764	0.510406
C95	C	1.679811	0.380098	0.843739
C96	C	2.013144	0.713431	1.177072
C97	C	1.203515	0.201560	0.525875
C98	C	1.536848	0.534894	0.859208
C99	C	1.870181	0.868227	1.192542
C100	C	1.212412	0.191915	0.400251
C101	C	1.545745	0.525248	0.733584
C102	C	1.879079	0.858582	1.066918
C103	C	1.288346	0.109693	0.329709
C104	C	1.621679	0.443026	0.663042
C105	C	1.955012	0.776359	0.996375
C106	C	1.297247	0.100054	0.204082
C107	C	1.630581	0.433387	0.537415
C108	C	1.963914	0.766720	0.870749
C109	C	1.154280	0.254843	0.219554
C110	C	1.487613	0.588177	0.552887
C111	C	1.820947	0.921510	0.886220
C112	C	1.145383	0.264489	0.345178
C113	C	1.478716	0.597822	0.678511
C114	C	1.812049	0.931155	1.011844
H115	H	0.557378	0.158969	0.027699
H116	H	0.890711	0.492302	0.361033
H117	H	1.224045	0.825635	0.694366
Cl118	Cl	0.564412	0.124600	-0.412625
Cl119	Cl	0.897745	0.457933	-0.079292
Cl120	Cl	1.231079	0.791267	0.254042
H121	H	1.359079	0.033107	0.146647
H122	H	1.692412	0.366441	0.479980
H123	H	2.025746	0.699774	0.813313
H124	H	1.083556	0.331430	0.402628
H125	H	1.416889	0.664763	0.735961
H126	H	1.750223	0.998096	1.069295
Cl127	Cl	1.070018	0.346089	0.150307
Cl128	Cl	1.403351	0.679422	0.483640
Cl129	Cl	1.736684	1.012756	0.816974
Cl130	Cl	1.450843	-0.066232	0.296097
Cl131	Cl	1.784176	0.267102	0.629431
Cl132	Cl	2.117510	0.600435	0.962764
H133	H	0.715150	0.169895	0.118630
H134	H	1.048483	0.503229	0.451963
H135	H	1.381816	0.836562	0.785296
H136	H	0.915317	0.172991	0.097025
H137	H	1.248651	0.506324	0.430358
H138	H	1.581984	0.839658	0.763692
H139	H	0.785618	0.131747	-0.388673
H140	H	1.118951	0.465080	-0.055340
H141	H	1.452285	0.798414	0.277993
H142	H	0.943394	0.142672	-0.297741
H143	H	1.276727	0.476005	0.035593
H144	H	1.610061	0.809338	0.368926
Cl145	Cl	1.108050	0.304907	0.614570
Cl146	Cl	1.441383	0.638241	0.947903
Cl147	Cl	1.774716	0.971574	1.281236
Cl148	Cl	1.430745	-0.044478	0.579637
Cl149	Cl	1.764078	0.288856	0.912971
Cl150	Cl	2.097411	0.622189	1.246304
