data_functionalizedCrystal
_audit_creation_method	'MofGen! by Chris Wilmer'
_symmetry_space_group_name_H-M	'P1'
_symmetry_Int_Tables_number	1
_symmetry_cell_setting	triclinic
loop_
_symmetry_equiv_pos_as_xyz
  x,y,z
_cell_length_a	17.077404
_cell_length_b	19.121063
_cell_length_c	17.077396
_cell_angle_alpha	87.591200
_cell_angle_beta	90.018362
_cell_angle_gamma	92.466911
loop_
_atom_site_label
_atom_site_type_symbol
_atom_site_fract_x
_atom_site_fract_y
_atom_site_fract_z
Zn1	Zn	1.186695	-0.279652	0.457130
Zn2	Zn	1.520029	0.053682	0.790463
Zn3	Zn	1.853362	0.387015	1.123797
Zn4	Zn	1.180991	-0.397108	0.331455
Zn5	Zn	1.514325	-0.063775	0.664788
Zn6	Zn	1.847658	0.269558	0.998121
Zn7	Zn	1.055426	-0.279672	0.325881
Zn8	Zn	1.388759	0.053662	0.659215
Zn9	Zn	1.722093	0.386995	0.992548
Zn10	Zn	1.049786	-0.397062	0.462679
Zn11	Zn	1.383120	-0.063729	0.796012
Zn12	Zn	1.716453	0.269605	1.129345
O13	O	1.118225	-0.338373	0.394286
O14	O	1.451558	-0.005040	0.727620
O15	O	1.784891	0.328293	1.060953
O16	O	1.295785	-0.295243	0.440469
O17	O	1.629118	0.038090	0.773802
O18	O	1.962452	0.371423	1.107136
O19	O	1.164308	-0.381558	0.220870
O20	O	1.497641	-0.048225	0.554203
O21	O	1.830975	0.285109	0.887536
O22	O	1.077587	-0.181384	0.338637
O23	O	1.410920	0.151949	0.671971
O24	O	1.744253	0.485282	1.005304
O25	O	1.291594	-0.381538	0.348136
O26	O	1.624928	-0.048205	0.681469
O27	O	1.958261	0.285128	1.014803
O28	O	1.174030	-0.181370	0.435065
O29	O	1.507363	0.151964	0.768398
O30	O	1.840696	0.485297	1.101732
O31	O	1.072056	-0.295278	0.216775
O32	O	1.405389	0.038056	0.550108
O33	O	1.738723	0.371389	0.883442
O34	O	0.944832	-0.295233	0.344018
O35	O	1.278165	0.038101	0.677351
O36	O	1.611498	0.371434	1.010684
O37	O	1.067974	-0.381460	0.571788
O38	O	1.401308	-0.048126	0.905122
O39	O	1.734641	0.285207	1.238455
O40	O	0.940688	-0.381479	0.444522
O41	O	1.274021	-0.048146	0.777855
O42	O	1.607355	0.285188	1.111189
O43	O	1.168561	-0.295199	0.567712
O44	O	1.501894	0.038135	0.901045
O45	O	1.835227	0.371468	1.234378
O46	O	1.158839	-0.495387	0.353517
O47	O	1.492173	-0.162053	0.686850
O48	O	1.825506	0.171280	1.020183
O49	O	1.062443	-0.495353	0.449926
O50	O	1.395777	-0.162019	0.783260
O51	O	1.729110	0.171314	1.116593
C52	C	0.914278	-0.338353	0.394268
C53	C	1.247611	-0.005020	0.727601
C54	C	1.580945	0.328313	1.060934
C55	C	0.827028	-0.338362	0.394279
C56	C	1.160361	-0.005029	0.727613
C57	C	1.493694	0.328305	1.060946
C58	C	0.788217	-0.293508	0.442437
C59	C	1.121550	0.039825	0.775771
C60	C	1.454883	0.373159	1.109104
C61	C	0.706236	-0.293512	0.442441
C62	C	1.039569	0.039821	0.775775
C63	C	1.372903	0.373154	1.109108
C64	C	0.663068	-0.338375	0.394290
C65	C	0.996401	-0.005042	0.727624
C66	C	1.329734	0.328292	1.060957
C67	C	0.701884	-0.383231	0.346127
C68	C	1.035218	-0.049898	0.679460
C69	C	1.368551	0.283436	1.012793
C70	C	0.783864	-0.383222	0.346119
C71	C	1.117197	-0.049889	0.679453
C72	C	1.450530	0.283444	1.012786
C73	C	0.531014	-0.383247	0.346147
C74	C	0.864347	-0.049913	0.679480
C75	C	1.197680	0.283420	1.012814
C76	C	0.449029	-0.383257	0.346155
C77	C	0.782362	-0.049923	0.679489
C78	C	1.115695	0.283410	1.012822
C79	C	0.453386	-0.293537	0.442469
C80	C	0.786719	0.039796	0.775802
C81	C	1.120052	0.373130	1.109136
C82	C	0.535365	-0.293528	0.442462
C83	C	0.868698	0.039805	0.775795
C84	C	1.202032	0.373138	1.109128
C85	C	0.574176	-0.338385	0.394299
C86	C	0.907509	-0.005052	0.727632
C87	C	1.240843	0.328281	1.060965
C88	C	1.109432	-0.520854	0.402945
C89	C	1.442765	-0.187520	0.736279
C90	C	1.776098	0.145813	1.069612
C91	C	1.105742	-0.598919	0.406676
C92	C	1.439075	-0.265586	0.740009
C93	C	1.772408	0.067747	1.073343
C94	C	1.154235	-0.635589	0.358275
C95	C	1.487569	-0.302256	0.691608
C96	C	1.820902	0.031077	1.024942
C97	C	1.150770	-0.708941	0.361788
C98	C	1.484103	-0.375607	0.695122
C99	C	1.817436	-0.042274	1.028455
C100	C	1.098806	-0.745620	0.413699
C101	C	1.432139	-0.412287	0.747033
C102	C	1.765473	-0.078954	1.080366
C103	C	1.050310	-0.708945	0.462106
C104	C	1.383644	-0.375612	0.795439
C105	C	1.716977	-0.042279	1.128772
C106	C	1.053780	-0.635596	0.458596
C107	C	1.387114	-0.302262	0.791929
C108	C	1.720447	0.031071	1.125263
C109	C	1.085819	-0.967090	0.426810
C110	C	1.419152	-0.633756	0.760143
C111	C	1.752486	-0.300423	1.093476
C112	C	1.082351	-1.040445	0.430314
C113	C	1.415684	-0.707111	0.763648
C114	C	1.749017	-0.373778	1.096981
C115	C	1.182812	-1.040435	0.329998
C116	C	1.516145	-0.707101	0.663331
C117	C	1.849478	-0.373768	0.996664
C118	C	1.186274	-0.967084	0.326489
C119	C	1.519607	-0.633750	0.659822
C120	C	1.852941	-0.300417	0.993156
C121	C	1.137781	-0.930415	0.374898
C122	C	1.471115	-0.597082	0.708232
C123	C	1.804448	-0.263748	1.041565
C124	C	1.095260	-0.820597	0.417290
C125	C	1.428594	-0.487264	0.750623
C126	C	1.761927	-0.153930	1.083957
C127	C	1.141331	-0.855440	0.371311
C128	C	1.474665	-0.522106	0.704644
C129	C	1.807998	-0.188773	1.037978
C130	C	1.322968	-0.338394	0.394305
C131	C	1.656301	-0.005061	0.727639
C132	C	1.989635	0.328273	1.060972
C133	C	1.410217	-0.338403	0.394314
C134	C	1.743551	-0.005069	0.727647
C135	C	2.076884	0.328264	1.060980
C136	C	1.118275	-0.338322	0.599028
C137	C	1.451608	-0.004988	0.932361
C138	C	1.784941	0.328345	1.265695
C139	C	1.118296	-0.338300	0.686277
C140	C	1.451629	-0.004966	1.019610
C141	C	1.784963	0.328367	1.352944
C142	C	1.127074	-0.155180	0.385610
C143	C	1.460407	0.178153	0.718944
C144	C	1.793740	0.511486	1.052277
C145	C	1.130844	-0.077115	0.381913
C146	C	1.464178	0.256219	0.715247
C147	C	1.797511	0.589552	1.048580
C148	C	1.118223	-0.338374	0.190338
C149	C	1.451556	-0.005041	0.523672
C150	C	1.784889	0.328292	0.857005
C151	C	1.118363	-0.338198	0.103081
C152	C	1.451696	-0.004865	0.436414
C153	C	1.785030	0.328468	0.769747
C154	C	1.170673	-0.293380	0.725145
C155	C	1.504007	0.039954	1.058479
C156	C	1.837340	0.373287	1.391812
C157	C	1.170684	-0.293356	0.807125
C158	C	1.504017	0.039977	1.140458
C159	C	1.837351	0.373310	1.473792
C160	C	1.118320	-0.338257	0.850234
C161	C	1.451654	-0.004924	1.183568
C162	C	1.784987	0.328410	1.516901
C163	C	1.065937	-0.383179	0.811360
C164	C	1.399271	-0.049845	1.144694
C165	C	1.732604	0.283488	1.478027
C166	C	1.065924	-0.383198	0.729382
C167	C	1.399257	-0.049865	1.062716
C168	C	1.732590	0.283469	1.396049
C169	C	1.065971	-0.383136	0.982228
C170	C	1.399304	-0.049803	1.315562
C171	C	1.732638	0.283530	1.648895
C172	C	1.065985	-0.383118	1.064212
C173	C	1.399319	-0.049785	1.397546
C174	C	1.732652	0.283548	1.730879
C175	C	1.170731	-0.293295	1.059971
C176	C	1.504065	0.040039	1.393304
C177	C	1.837398	0.373372	1.726638
C178	C	1.170718	-0.293314	0.977993
C179	C	1.504051	0.040019	1.311326
C180	C	1.837384	0.373353	1.644660
C181	C	1.118335	-0.338237	0.939125
C182	C	1.451669	-0.004904	1.272458
C183	C	1.785002	0.328430	1.605791
H184	H	0.562611	-0.419772	0.306926
H185	H	0.895944	-0.086439	0.640259
H186	H	1.229278	0.246894	0.973592
Cl187	Cl	1.251614	-0.920977	0.261238
Cl188	Cl	1.584947	-0.587644	0.594571
Cl189	Cl	1.918280	-0.254310	0.927904
Cl190	Cl	0.984988	-0.755057	0.527370
Cl191	Cl	1.318322	-0.421724	0.860704
Cl192	Cl	1.651655	-0.088391	1.194037
Cl193	Cl	1.024855	-0.921002	0.487666
Cl194	Cl	1.358188	-0.587668	0.821000
Cl195	Cl	1.691521	-0.254335	1.154333
H196	H	1.183643	-0.825573	0.329048
H197	H	1.516977	-0.492239	0.662381
H198	H	1.850310	-0.158906	0.995715
H199	H	1.014293	-0.605740	0.498010
H200	H	1.347626	-0.272406	0.831343
H201	H	1.680960	0.060927	1.164677
H202	H	1.213382	-0.256716	1.091622
H203	H	1.546715	0.076618	1.424955
H204	H	1.880048	0.409951	1.758288
Cl205	Cl	0.842477	-0.237109	0.502977
Cl206	Cl	1.175810	0.096224	0.836311
Cl207	Cl	1.509144	0.429558	1.169644
H208	H	0.413883	-0.419788	0.306947
H209	H	0.747216	-0.086455	0.640280
H210	H	1.080550	0.246879	0.973614
H211	H	0.815463	-0.419747	0.306903
H212	H	1.148796	-0.086413	0.640237
H213	H	1.482129	0.246920	0.973570
Cl214	Cl	1.029936	-0.866715	0.482547
Cl215	Cl	1.363269	-0.533382	0.815880
Cl216	Cl	1.696602	-0.200048	1.149214
H217	H	1.222293	-1.070298	0.290587
H218	H	1.555626	-0.736965	0.623920
H219	H	1.888959	-0.403632	0.957253
Cl220	Cl	1.017010	-1.086556	0.495569
Cl221	Cl	1.350343	-0.753222	0.828902
Cl222	Cl	1.683676	-0.419889	1.162235
H223	H	1.023299	-0.419735	0.846467
H224	H	1.356633	-0.086402	1.179800
H225	H	1.689966	0.246932	1.513133
H226	H	1.196546	-0.605729	0.316000
H227	H	1.529880	-0.272396	0.649334
H228	H	1.863213	0.060937	0.982667
H229	H	1.190258	-0.738794	0.322374
H230	H	1.523591	-0.405461	0.655708
H231	H	1.856925	-0.072127	0.989041
Cl232	Cl	1.000073	-0.439669	0.680519
Cl233	Cl	1.333406	-0.106336	1.013852
Cl234	Cl	1.666739	0.226998	1.347185
H235	H	1.213316	-0.256819	0.690051
H236	H	1.546650	0.076515	1.023385
H237	H	1.879983	0.409848	1.356718
Cl238	Cl	1.236566	-0.236914	0.855986
Cl239	Cl	1.569900	0.096419	1.189319
Cl240	Cl	1.903233	0.429753	1.522653
H241	H	1.023345	-0.419679	1.099310
H242	H	1.356678	-0.086345	1.432643
H243	H	1.690011	0.246988	1.765977
Cl244	Cl	1.236552	-0.236871	0.923799
Cl245	Cl	1.569885	0.096462	1.257132
Cl246	Cl	1.903218	0.429796	1.590466
H247	H	0.674640	-0.256989	0.481658
H248	H	1.007973	0.076344	0.814992
H249	H	1.341306	0.409677	1.148325
H250	H	0.570510	-0.257001	0.481675
H251	H	0.903844	0.076332	0.815008
H252	H	1.237177	0.409665	1.148342
Cl253	Cl	0.404595	-0.237143	0.503014
Cl254	Cl	0.737929	0.096190	0.836348
Cl255	Cl	1.071262	0.429523	1.169681
Cl256	Cl	0.647616	-0.439626	0.285589
Cl257	Cl	0.980949	-0.106293	0.618923
Cl258	Cl	1.314282	0.227041	0.952256
Cl259	Cl	1.000117	-0.439611	0.933366
Cl260	Cl	1.333450	-0.106278	1.266700
Cl261	Cl	1.666784	0.227056	1.600033
