data_functionalizedCrystal
_audit_creation_method	'MofGen! by Chris Wilmer'
_symmetry_space_group_name_H-M	'P1'
_symmetry_Int_Tables_number	1
_symmetry_cell_setting	triclinic
loop_
_symmetry_equiv_pos_as_xyz
  x,y,z
_cell_length_a	10.540539
_cell_length_b	15.944551
_cell_length_c	9.016244
_cell_angle_alpha	89.996810
_cell_angle_beta	89.994699
_cell_angle_gamma	84.012115
loop_
_atom_site_label
_atom_site_type_symbol
_atom_site_fract_x
_atom_site_fract_y
_atom_site_fract_z
O1	O	1.684281	0.118370	-0.123274
O2	O	1.314716	0.129523	-0.123293
O3	O	1.509591	0.001731	-0.123269
O4	O	1.489407	0.246161	-0.123297
O5	O	1.509562	0.001734	0.123411
O6	O	1.314688	0.129525	0.123388
O7	O	1.684253	0.118372	0.123407
Cu8	Cu	1.499468	0.123949	0.145921
Cu9	Cu	1.499502	0.123946	-0.145807
O10	O	1.489378	0.246164	0.123384
C11	C	1.267411	0.128688	0.000046
C12	C	1.126497	0.126185	0.000039
C13	C	1.508739	-0.029566	0.000071
C14	C	1.506227	-0.122827	0.000072
C15	C	0.944375	0.030298	0.000626
C16	C	1.090959	0.032835	0.000054
C17	C	1.064229	0.171108	-0.140828
C18	C	0.917728	0.167922	-0.140930
C19	C	0.917181	0.169824	0.139592
C20	C	1.064151	0.170684	0.141438
C21	C	1.379430	-0.338440	0.000045
C22	C	1.438296	-0.399105	0.121677
C23	C	1.501682	-0.293580	0.000060
C24	C	1.438353	-0.399091	-0.121531
C25	C	1.497283	-0.458519	0.000043
C26	C	1.560582	-0.353017	0.121792
C27	C	1.560622	-0.352996	-0.121525
C28	C	1.619577	-0.413643	0.000136
C29	C	1.504213	-0.198563	0.000072
C30	C	1.494762	-0.553535	0.000042
C31	C	1.731559	0.119207	0.000065
C32	C	1.872473	0.121710	0.000062
C33	C	1.490231	0.277461	0.000040
C34	C	1.492743	0.370722	0.000029
N35	N	1.499453	0.123951	0.351108
N36	N	1.499526	0.123937	-0.350993
C37	C	1.394894	0.192082	0.586128
C38	C	1.395120	0.192337	0.414237
C39	C	1.631905	0.143889	0.413450
C40	C	1.631333	0.144372	0.585395
C41	C	1.472882	0.035659	0.585659
C42	C	1.469829	0.036231	0.413705
H43	H	0.916281	-0.006580	0.101649
H44	H	1.386576	-0.419520	0.224501
H45	H	1.711623	0.096739	0.626986
N46	N	0.878144	0.131914	0.273545
N47	N	0.959846	0.102976	0.365722
H48	H	0.932279	0.076193	0.460320
H49	H	1.134043	-0.002512	0.101034
N50	N	1.143980	-0.011823	-0.126820
N51	N	1.224359	-0.074515	-0.110317
H52	H	1.261805	-0.106057	-0.199927
H53	H	0.869036	0.237251	0.140536
H54	H	1.721141	-0.446196	0.000210
H55	H	1.277955	-0.305737	0.000161
H56	H	1.085649	0.239662	-0.146076
H57	H	1.087450	0.238743	0.149936
H58	H	0.889981	0.134718	-0.246221
N59	N	1.373490	-0.424665	-0.250544
N60	N	1.414013	-0.408984	-0.376774
H61	H	1.368197	-0.427042	-0.467886
H62	H	1.296667	0.180340	0.372089
N63	N	1.625382	-0.327545	0.250924
N64	N	1.637725	-0.251322	0.271797
H65	H	1.683486	-0.233329	0.362997
H66	H	1.296130	0.180269	0.627518
N67	N	1.559237	-0.030437	0.359845
N68	N	1.627167	-0.075217	0.449030
H69	H	1.690328	-0.122299	0.410997
H70	H	1.612297	-0.332559	-0.224355
N71	N	1.415950	0.273775	0.640315
N72	N	1.507681	0.282028	0.725041
H73	H	1.522557	0.339723	0.763314
N74	N	1.354319	0.011881	0.640085
N75	N	1.252851	0.057252	0.613694
H76	H	1.169106	0.040468	0.652124
N77	N	1.416386	0.274514	0.362621
N78	N	1.431119	0.331855	0.453588
H79	H	1.446118	0.389901	0.417137
N80	N	1.662084	0.223769	0.359424
N81	N	1.760570	0.228281	0.283859
H82	H	1.781881	0.284698	0.245707
H83	H	1.549184	-0.015061	0.626321
N84	N	1.660791	0.225168	0.635666
N85	N	1.681626	0.280809	0.543763
H86	H	1.702430	0.337874	0.579259
N87	N	1.118179	0.131987	-0.272370
N88	N	1.174466	0.174155	-0.363514
H89	H	1.212566	0.146529	-0.456421
N90	N	1.347597	0.017280	0.362591
N91	N	1.282477	0.068145	0.280363
H92	H	1.196149	0.054764	0.244254
H93	H	1.711617	0.095612	0.372555
N94	N	0.856388	0.252138	-0.148947
N95	N	0.874988	0.304165	-0.049634
H96	H	0.831668	0.363641	-0.055302
N97	N	0.907101	-0.015771	-0.125381
N98	N	0.827812	0.018428	-0.215597
H99	H	0.801483	-0.014105	-0.304593
H100	H	1.105548	0.137866	0.245651
