data_functionalizedCrystal
_audit_creation_method	'MofGen! by Chris Wilmer'
_symmetry_space_group_name_H-M	'P1'
_symmetry_Int_Tables_number	1
_symmetry_cell_setting	triclinic
loop_
_symmetry_equiv_pos_as_xyz
  x,y,z
_cell_length_a	16.109301
_cell_length_b	14.971486
_cell_length_c	14.586319
_cell_angle_alpha	89.995999
_cell_angle_beta	90.000787
_cell_angle_gamma	96.462195
loop_
_atom_site_label
_atom_site_type_symbol
_atom_site_fract_x
_atom_site_fract_y
_atom_site_fract_z
O1	O	1.103274	-0.114970	0.076183
O2	O	1.436607	0.218363	0.409516
O3	O	1.769941	0.551696	0.742849
O4	O	0.861230	-0.129278	0.076197
O5	O	1.194563	0.204055	0.409531
O6	O	1.527897	0.537388	0.742864
O7	O	0.988739	0.008085	0.076183
O8	O	1.322073	0.341418	0.409517
O9	O	1.655406	0.674752	0.742850
O10	O	0.975765	-0.252334	0.076197
O11	O	1.309098	0.081000	0.409530
O12	O	1.642431	0.414333	0.742864
O13	O	0.988731	0.008087	-0.076298
O14	O	1.322064	0.341421	0.257036
O15	O	1.655397	0.674754	0.590369
O16	O	0.861221	-0.129276	-0.076283
O17	O	1.194554	0.204057	0.257050
O18	O	1.527888	0.537390	0.590383
O19	O	1.103265	-0.114968	-0.076298
O20	O	1.436599	0.218365	0.257035
O21	O	1.769932	0.551698	0.590369
Cu22	Cu	0.982242	-0.122122	-0.090213
Cu23	Cu	1.315576	0.211211	0.243120
Cu24	Cu	1.648909	0.544545	0.576453
Cu25	Cu	0.982253	-0.122124	0.090113
Cu26	Cu	1.315586	0.211209	0.423446
Cu27	Cu	1.648919	0.544542	0.756779
O28	O	0.975756	-0.252332	-0.076284
O29	O	1.309089	0.081002	0.257050
O30	O	1.642422	0.414335	0.590383
C31	C	0.830250	-0.128698	-0.000041
C32	C	1.163583	0.204636	0.333292
C33	C	1.496917	0.537969	0.666626
C34	C	0.737952	-0.126960	-0.000036
C35	C	1.071286	0.206373	0.333298
C36	C	1.404619	0.539707	0.666631
C37	C	0.515777	-0.204428	-0.000042
C38	C	0.849110	0.128905	0.333291
C39	C	1.182443	0.462238	0.666624
C40	C	0.429054	-0.202789	-0.000048
C41	C	0.762387	0.130544	0.333285
C42	C	1.095721	0.463878	0.666618
C43	C	0.448725	-0.039812	-0.000053
C44	C	0.782059	0.293521	0.333280
C45	C	1.115392	0.626855	0.666614
C46	C	0.535446	-0.041452	-0.000054
C47	C	0.868779	0.291881	0.333280
C48	C	1.202113	0.625214	0.666613
C49	C	0.568969	-0.123763	-0.000044
C50	C	0.902302	0.209570	0.333290
C51	C	1.235636	0.542903	0.666623
C52	C	0.395526	-0.120483	-0.000049
C53	C	0.728859	0.212850	0.333284
C54	C	1.062193	0.546184	0.666618
C55	C	0.301498	-0.118705	-0.000055
C56	C	0.634831	0.214629	0.333278
C57	C	0.968164	0.547962	0.666611
C58	C	0.663003	-0.125542	-0.000039
C59	C	0.996337	0.207791	0.333295
C60	C	1.329670	0.541124	0.666628
C61	C	0.988155	0.041410	-0.000057
C62	C	1.321488	0.374743	0.333276
C63	C	1.654821	0.708077	0.666610
C64	C	0.986416	0.140705	-0.000056
C65	C	1.319749	0.474038	0.333277
C66	C	1.653083	0.807371	0.666611
C67	C	1.134245	-0.115549	-0.000057
C68	C	1.467579	0.217784	0.333276
C69	C	1.800912	0.551118	0.666609
C70	C	1.226543	-0.117286	-0.000057
C71	C	1.559876	0.216047	0.333277
C72	C	1.893209	0.549380	0.666610
C73	C	0.976340	-0.285657	-0.000042
C74	C	1.309674	0.047677	0.333292
C75	C	1.643007	0.381010	0.666625
C76	C	0.978079	-0.384951	-0.000037
C77	C	1.311413	-0.051618	0.333297
C78	C	1.644746	0.281716	0.666630
N79	N	0.982241	-0.122120	-0.217045
N80	N	1.315574	0.211214	0.116288
N81	N	1.648908	0.544547	0.449622
C82	C	1.061324	0.198038	-0.000061
C83	C	1.394658	0.531371	0.333272
C84	C	1.727991	0.864705	0.666606
C85	C	1.059685	0.291335	-0.000052
C86	C	1.393019	0.624668	0.333281
C87	C	1.726352	0.958002	0.666615
C88	C	0.983137	0.327297	-0.000044
C89	C	1.316471	0.660630	0.333289
C90	C	1.649804	0.993964	0.666623
C91	C	0.908223	0.269956	-0.000036
C92	C	1.241557	0.603290	0.333297
C93	C	1.574890	0.936623	0.666631
C94	C	0.909863	0.176661	-0.000039
C95	C	1.243196	0.509994	0.333295
C96	C	1.576530	0.843328	0.666628
C97	C	0.904811	0.464414	-0.000032
C98	C	1.238144	0.797747	0.333301
C99	C	1.571478	1.131081	0.666634
C100	C	0.903171	0.557716	-0.000031
C101	C	1.236504	0.891049	0.333302
C102	C	1.569838	1.224382	0.666635
C103	C	1.054633	0.579088	-0.000046
C104	C	1.387967	0.912421	0.333288
C105	C	1.721300	1.245755	0.666621
C106	C	1.056273	0.485793	-0.000048
C107	C	1.389606	0.819126	0.333285
C108	C	1.722940	1.152459	0.666618
C109	C	0.981359	0.428458	-0.000042
C110	C	1.314692	0.761792	0.333291
C111	C	1.648025	1.095125	0.666625
C112	C	1.038721	-0.061316	-0.452058
C113	C	1.372054	0.272018	-0.118725
C114	C	1.705388	0.605351	0.214609
C115	C	1.038723	-0.061314	-0.548039
C116	C	1.372057	0.272020	-0.214706
C117	C	1.705390	0.605353	0.118628
C118	C	0.925775	-0.182927	-0.548036
C119	C	1.259108	0.150407	-0.214703
C120	C	1.592441	0.483740	0.118631
C121	C	0.925769	-0.182924	-0.452056
C122	C	1.259102	0.150410	-0.118723
C123	C	1.592436	0.483743	0.214610
C124	C	0.982247	-0.122119	-0.404070
C125	C	1.315580	0.211214	-0.070737
C126	C	1.648913	0.544547	0.262597
C127	C	0.982255	-0.122120	-0.596031
C128	C	1.315588	0.211213	-0.262697
C129	C	1.648922	0.544547	0.070636
C130	C	0.982257	-0.122118	-0.700098
C131	C	1.315590	0.211215	-0.366764
C132	C	1.648924	0.544549	-0.033431
C133	C	0.982244	-0.122120	-0.299996
C134	C	1.315577	0.211213	0.033337
C135	C	1.648910	0.544547	0.366671
N136	N	0.982261	-0.122120	0.216945
N137	N	1.315594	0.211214	0.550278
N138	N	1.648927	0.544547	0.883611
H139	H	0.421420	0.027203	-0.000067
H140	H	0.754753	0.360536	0.333267
H141	H	1.088087	0.693870	0.666600
H142	H	0.843807	0.417734	-0.000025
H143	H	1.177141	0.751067	0.333308
H144	H	1.510474	1.084401	0.666642
H145	H	1.084707	-0.011804	-0.412989
H146	H	1.418041	0.321530	-0.079656
H147	H	1.751374	0.654863	0.253677
H148	H	1.084709	-0.011801	-0.587108
H149	H	1.418042	0.321533	-0.253775
H150	H	1.751375	0.654866	0.079558
H151	H	0.578758	0.024239	-0.000057
H152	H	0.912092	0.357572	0.333276
H153	H	1.245425	0.690906	0.666609
H154	H	1.123658	0.168766	-0.000073
H155	H	1.456992	0.502099	0.333260
H156	H	1.790325	0.835432	0.666593
H157	H	1.120683	0.338013	-0.000058
H158	H	1.454017	0.671346	0.333275
H159	H	1.787350	1.004680	0.666609
H160	H	0.848865	0.129980	-0.000034
H161	H	1.182198	0.463314	0.333299
H162	H	1.515531	0.796647	0.666632
H163	H	1.118605	0.456516	-0.000061
H164	H	1.451939	0.789849	0.333272
H165	H	1.785272	1.123183	0.666605
H166	H	0.879793	-0.232434	-0.587116
H167	H	1.213126	0.100900	-0.253783
H168	H	1.546460	0.434233	0.079550
H169	H	1.115632	0.625774	-0.000048
H170	H	1.448965	0.959108	0.333286
H171	H	1.782298	1.292441	0.666619
H172	H	0.385748	-0.268475	-0.000049
H173	H	0.719081	0.064859	0.333284
H174	H	1.052414	0.398192	0.666618
H175	H	0.840839	0.586992	-0.000040
H176	H	1.174172	0.920326	0.333294
H177	H	1.507505	1.253659	0.666627
H178	H	0.543068	-0.271451	-0.000041
H179	H	0.876401	0.061882	0.333292
H180	H	1.209734	0.395215	0.666626
H181	H	0.845896	0.299244	-0.000024
H182	H	1.179230	0.632577	0.333310
H183	H	1.512563	0.965910	0.666643
H184	H	0.879777	-0.232438	-0.412982
H185	H	1.213110	0.100895	-0.079649
H186	H	1.546444	0.434229	0.253685
