data_functionalizedCrystal
_audit_creation_method	'MofGen! by Chris Wilmer'
_symmetry_space_group_name_H-M	'P1'
_symmetry_Int_Tables_number	1
_symmetry_cell_setting	triclinic
loop_
_symmetry_equiv_pos_as_xyz
  x,y,z
_cell_length_a	25.639242
_cell_length_b	12.827892
_cell_length_c	12.827885
_cell_angle_alpha	90.029786
_cell_angle_beta	90.030023
_cell_angle_gamma	90.010920
loop_
_atom_site_label
_atom_site_type_symbol
_atom_site_fract_x
_atom_site_fract_y
_atom_site_fract_z
Zn1	Zn	0.799350	-0.416107	0.591148
Zn2	Zn	0.799297	-0.590884	0.416409
Zn3	Zn	0.711915	-0.416144	0.416389
Zn4	Zn	0.711907	-0.590793	0.591076
O5	O	0.755617	-0.503482	0.503756
O6	O	0.872508	-0.439314	0.568007
O7	O	0.787687	-0.567759	0.270170
O8	O	0.723538	-0.269903	0.439594
O9	O	0.872470	-0.567722	0.439627
O10	O	0.787777	-0.269876	0.567988
O11	O	0.723487	-0.439378	0.270156
O12	O	0.638748	-0.439289	0.439523
O13	O	0.723526	-0.567567	0.737322
O14	O	0.638743	-0.567603	0.567865
O15	O	0.787770	-0.439226	0.737375
O16	O	0.787680	-0.737108	0.439556
O17	O	0.723474	-0.737041	0.567884
C18	C	0.755585	-0.774992	0.503737
C19	C	0.755619	-0.891145	0.503764
C20	C	0.619775	-0.503441	0.503685
C21	C	0.561661	-0.503449	0.503679
C22	C	0.787427	-0.942929	0.440334
C23	C	0.787463	-1.062979	0.440361
C24	C	0.201304	-0.570407	0.570520
C25	C	0.146699	-0.570413	0.570536
O26	O	0.118468	-0.627292	0.627306
N27	N	0.119378	-0.503511	0.503824
C28	C	0.146664	-0.436590	0.437098
O29	O	0.118412	-0.379685	0.380356
C30	C	0.201268	-0.436580	0.437088
C31	C	0.228586	-0.503494	0.503797
C32	C	0.228622	-0.637315	0.637224
C33	C	0.283223	-0.637309	0.637206
C34	C	0.310505	-0.570396	0.570483
C35	C	0.283186	-0.503488	0.503779
C36	C	0.228553	-0.369655	0.370368
C37	C	0.283160	-0.369649	0.370364
C38	C	0.310478	-0.436563	0.437073
C39	C	0.365069	-0.436570	0.437038
N40	N	0.392390	-0.503472	0.503750
C41	C	0.365108	-0.570385	0.570473
C42	C	0.031994	-0.436617	0.437126
C43	C	-0.022609	-0.436632	0.437131
C44	C	-0.022570	-0.570454	0.570570
C45	C	0.032034	-0.570443	0.570560
C46	C	0.059315	-0.503519	0.503839
C47	C	0.479773	-0.570370	0.570429
C48	C	0.534379	-0.570362	0.570402
C49	C	0.534335	-0.436537	0.436967
C50	C	0.479734	-0.436548	0.436989
C51	C	0.452455	-0.503468	0.503729
O52	O	0.393335	-0.379717	0.380300
O53	O	0.393368	-0.627272	0.627215
C54	C	0.891990	-0.503524	0.503827
C55	C	0.950104	-0.503542	0.503858
C56	C	0.755653	-0.503382	0.776326
C57	C	0.755668	-0.503339	0.892479
C58	C	0.755664	-0.230912	0.503797
C59	C	0.755685	-0.114759	0.503815
C60	C	0.755612	-0.503507	0.232246
C61	C	0.755698	-0.503255	0.116093
C62	C	0.787462	-0.439819	0.944290
C63	C	0.787478	-0.439774	1.064341
H64	H	0.814635	-0.898388	0.386013
H65	H	0.728448	-1.070234	0.558118
H66	H	0.728457	-0.557680	0.936999
H67	H	-0.044847	-0.382155	0.382799
C68	C	0.823677	-0.367175	0.884992
C69	C	0.812319	-0.263740	0.911453
C70	C	0.845666	-0.196791	0.856840
H71	H	0.858834	-0.382320	0.902796
H72	H	0.818839	-0.376769	0.812184
H73	H	0.817162	-0.254151	0.984246
H74	H	0.777169	-0.248564	0.893646
H75	H	0.840828	-0.206384	0.784031
H76	H	0.880821	-0.211944	0.874649
H77	H	0.837961	-0.126603	0.874779
C78	C	0.823775	-1.122536	0.368098
C79	C	0.816616	-1.229767	0.382540
C80	C	0.850073	-1.284666	0.316015
H81	H	0.816198	-1.104910	0.297793
H82	H	0.858908	-1.104675	0.383496
H83	H	0.781491	-1.247621	0.367135
H84	H	0.824197	-1.247425	0.452832
H85	H	0.885205	-1.266804	0.331413
H86	H	0.842492	-1.267030	0.245713
H87	H	0.845223	-1.357427	0.325811
C88	C	0.719425	-0.950660	0.576266
C89	C	0.749058	-1.013244	0.643250
C90	C	0.715734	-1.068091	0.710046
H91	H	0.699452	-0.902725	0.616158
H92	H	0.696696	-0.993367	0.536242
H93	H	0.771778	-0.970541	0.683270
H94	H	0.769030	-1.061199	0.603387
H95	H	0.693005	-1.110797	0.670022
H96	H	0.695762	-1.020148	0.749930
H97	H	0.735834	-1.110568	0.755496
C98	C	0.563944	-0.643052	0.642951
C99	C	0.528359	-0.701628	0.701407
C100	C	0.555573	-0.768586	0.768259
H101	H	0.585230	-0.688630	0.603012
H102	H	0.585251	-0.603152	0.688602
H103	H	0.507061	-0.741525	0.655762
H104	H	0.507072	-0.656077	0.741368
H105	H	0.576881	-0.728686	0.813910
H106	H	0.576858	-0.814158	0.728311
H107	H	0.531434	-0.808331	0.807936
H108	H	0.814699	-0.385396	1.108897
H109	H	0.457569	-0.624860	0.624777
C110	C	0.312784	-0.709992	0.709758
C111	C	0.277195	-0.768563	0.768208
C112	C	0.304403	-0.835519	0.835070
H113	H	0.334072	-0.755573	0.669828
H114	H	0.334089	-0.670090	0.755413
H115	H	0.255899	-0.808461	0.722559
H116	H	0.255906	-0.723009	0.808160
H117	H	0.325708	-0.795618	0.880725
H118	H	0.325691	-0.881094	0.795131
H119	H	0.280261	-0.875261	0.874743
C120	C	0.312684	-0.296953	0.297798
C121	C	0.277068	-0.238383	0.239366
C122	C	0.304245	-0.171421	0.172495
H123	H	0.334005	-0.251371	0.337722
H124	H	0.333953	-0.336851	0.252132
H125	H	0.255807	-0.198489	0.285026
H126	H	0.255746	-0.283938	0.199421
H127	H	0.325515	-0.211318	0.126830
H128	H	0.325565	-0.125846	0.212428
H129	H	0.280084	-0.131680	0.132835
C130	C	0.719486	-0.575835	1.056561
C131	C	0.749101	-0.642772	0.993887
C132	C	0.715761	-0.709637	0.939012
H133	H	0.699538	-0.615758	1.104480
H134	H	0.696735	-0.535859	1.013914
H135	H	0.771843	-0.682744	1.036531
H136	H	0.769049	-0.602878	0.945949
H137	H	0.693010	-0.669661	0.896364
H138	H	0.695814	-0.749553	0.986938
H139	H	0.735849	-0.755055	0.896474
C140	C	0.198980	-0.709801	0.709800
C141	C	0.167665	-0.650735	0.776919
C142	C	0.140361	-0.717483	0.843797
H143	H	0.177624	-0.755316	0.669874
H144	H	0.223061	-0.749622	0.749580
H145	H	0.143586	-0.610932	0.737143
H146	H	0.189008	-0.605222	0.816867
H147	H	0.164442	-0.757304	0.883577
H148	H	0.119008	-0.762995	0.803863
H149	H	0.119114	-0.677417	0.889351
C150	C	0.061517	-0.363925	0.364551
C151	C	0.025898	-0.305366	0.306116
C152	C	0.053072	-0.238403	0.239241
H153	H	0.082835	-0.318337	0.404472
H154	H	0.082788	-0.403821	0.318888
H155	H	0.004635	-0.265473	0.351773
H156	H	0.004578	-0.350927	0.266174
H157	H	0.074343	-0.278299	0.193577
H158	H	0.074389	-0.192821	0.279170
H159	H	0.028909	-0.198669	0.199577
H160	H	0.054273	-0.624929	0.624882
C161	C	-0.052224	-0.642924	0.643153
C162	C	-0.083535	-0.583825	0.710251
C163	C	-0.110856	-0.650543	0.777132
H164	H	-0.073585	-0.688432	0.603228
H165	H	-0.028153	-0.682755	0.682948
H166	H	-0.107603	-0.544013	0.670460
H167	H	-0.062187	-0.538320	0.750198
H168	H	-0.086784	-0.690374	0.816927
H169	H	-0.132213	-0.696048	0.737199
H170	H	-0.132100	-0.610454	0.822672
C171	C	0.198887	-0.297195	0.297769
C172	C	0.167538	-0.356303	0.230664
C173	C	0.140215	-0.289594	0.163740
H174	H	0.177553	-0.251667	0.337662
H175	H	0.222957	-0.257386	0.257982
H176	H	0.143471	-0.396094	0.270447
H177	H	0.188859	-0.401828	0.190748
H178	H	0.164285	-0.249786	0.123953
H179	H	0.118883	-0.244070	0.203642
H180	H	0.118945	-0.329689	0.118195
H181	H	0.457491	-0.382063	0.382667
H182	H	0.556558	-0.382061	0.382639
