data_functionalizedCrystal
_audit_creation_method	'MofGen! by Chris Wilmer'
_symmetry_space_group_name_H-M	'P1'
_symmetry_Int_Tables_number	1
_symmetry_cell_setting	triclinic
loop_
_symmetry_equiv_pos_as_xyz
  x,y,z
_cell_length_a	19.077105
_cell_length_b	18.050589
_cell_length_c	19.076919
_cell_angle_alpha	87.724745
_cell_angle_beta	89.923776
_cell_angle_gamma	87.724731
loop_
_atom_site_label
_atom_site_type_symbol
_atom_site_fract_x
_atom_site_fract_y
_atom_site_fract_z
Zn1	Zn	1.058247	-0.359281	0.440438
Zn2	Zn	1.062879	-0.478689	0.322938
Zn3	Zn	0.945466	-0.349333	0.318231
Zn4	Zn	0.940701	-0.478241	0.435691
O5	O	1.001823	-0.416386	0.379325
O6	O	1.157193	-0.379472	0.428809
O7	O	1.051237	-0.457554	0.223983
O8	O	0.960482	-0.246731	0.334459
O9	O	1.160596	-0.467201	0.342482
O10	O	1.043342	-0.254040	0.424244
O11	O	0.964973	-0.362516	0.220524
O12	O	0.846502	-0.362082	0.329856
O13	O	0.952361	-0.466437	0.534652
O14	O	0.843002	-0.456790	0.416153
O15	O	1.038722	-0.379038	0.538140
O16	O	1.046617	-0.582551	0.337879
O17	O	0.956853	-0.582222	0.420717
C18	C	0.819256	-0.408308	0.371979
C19	C	0.741152	-0.404871	0.368853
C20	C	0.702657	-0.452635	0.412244
C21	C	0.629270	-0.449396	0.409310
C22	C	0.594379	-0.398396	0.362981
C23	C	0.632879	-0.350627	0.319588
C24	C	0.706264	-0.353863	0.322526
C25	C	0.375093	-0.383419	0.349388
C26	C	0.301702	-0.380188	0.346452
C27	C	0.298098	-0.478956	0.436175
C28	C	0.371485	-0.482191	0.439105
C29	C	0.409979	-0.434419	0.395715
N30	N	0.519366	-0.395085	0.359980
N31	N	0.484990	-0.437727	0.398721
C32	C	1.001739	-0.609334	0.379310
C33	C	1.001766	-0.691882	0.379329
C34	C	0.952999	-0.891182	0.424363
C35	C	0.938449	-0.937256	0.359556
C36	C	1.001835	-0.843016	0.379341
C37	C	1.016419	-0.944025	0.444157
C38	C	1.001900	-0.989004	0.379358
C39	C	0.987253	-0.887999	0.314499
C40	C	1.065250	-0.894768	0.399145
C41	C	1.050726	-0.940818	0.334295
C42	C	1.001796	-0.758915	0.379332
C43	C	1.001939	-1.073102	0.379360
C44	C	1.185104	-0.424496	0.386700
C45	C	1.263207	-0.427952	0.389843
C46	C	0.994493	-0.423797	0.562605
C47	C	0.991370	-0.426955	0.640709
C48	C	1.001926	-0.222686	0.379356
C49	C	1.001970	-0.140143	0.379369
C50	C	1.009165	-0.408952	0.196759
C51	C	1.012425	-0.405591	0.118661
C52	C	1.034863	-0.382937	0.679219
C53	C	1.031920	-0.385901	0.752605
C54	C	0.985486	-0.432888	0.787479
C55	C	0.941988	-0.476908	0.748964
C56	C	0.944928	-0.473940	0.675579
C57	C	0.971867	-0.446642	1.006761
C58	C	0.968931	-0.449609	1.080151
C59	C	1.058863	-0.358601	1.083787
C60	C	1.061802	-0.355639	1.010401
C61	C	1.018301	-0.399657	0.971892
N62	N	0.982478	-0.435921	0.862492
N63	N	1.021307	-0.396619	0.896881
H64	H	0.597931	-0.488291	0.444643
H65	H	0.884851	-0.956052	0.342820
N66	N	0.971723	-0.857370	0.245727
N67	N	0.969158	-0.788601	0.234628
H68	H	0.958184	-0.766966	0.186060
N69	N	1.102564	-0.968001	0.286487
N70	N	1.111317	-1.036239	0.279077
H71	H	1.147924	-1.055440	0.245311
H72	H	1.028729	-0.968523	0.498964
H73	H	1.072677	-0.344677	0.650829
N74	N	1.103299	-0.313634	1.123111
N75	N	1.168465	-0.321092	1.117525
H76	H	1.199849	-0.289330	1.145296
N77	N	0.407112	-0.534293	0.486432
N78	N	0.372733	-0.576936	0.525171
H79	H	0.397894	-0.613736	0.558595
N80	N	0.927430	-0.491593	0.967425
N81	N	0.884303	-0.461822	0.924683
H82	H	0.852915	-0.493569	0.896900
H83	H	0.931117	-0.487874	1.108544
H84	H	0.904177	-0.515163	0.777365
N85	N	1.076349	-0.340949	0.791952
N86	N	1.073718	-0.343602	0.857474
H87	H	1.105097	-0.311852	0.885264
N88	N	0.745599	-0.305086	0.278201
N89	N	0.811121	-0.307982	0.280829
H90	H	0.838902	-0.273531	0.249525
N91	N	0.414403	-0.334620	0.305068
N92	N	0.406041	-0.265933	0.309509
H93	H	0.433806	-0.231466	0.278204
H94	H	1.099616	-0.317380	0.982011
H95	H	0.909504	-0.509777	0.644225
H96	H	0.731060	-0.494167	0.449968
N97	N	0.258767	-0.527746	0.480488
N98	N	0.193245	-0.524854	0.477861
H99	H	0.165466	-0.559313	0.509160
H100	H	0.604465	-0.309099	0.281869
N101	N	0.266071	-0.328086	0.299121
N102	N	0.300447	-0.285436	0.260384
H103	H	0.275284	-0.248641	0.226958
H104	H	0.911645	-0.869387	0.462377
H105	H	1.118835	-0.875974	0.415910
