data_functionalizedCrystal
_audit_creation_method	'MofGen! by Chris Wilmer'
_symmetry_space_group_name_H-M	'P1'
_symmetry_Int_Tables_number	1
_symmetry_cell_setting	triclinic
loop_
_symmetry_equiv_pos_as_xyz
  x,y,z
_cell_length_a	15.298708
_cell_length_b	16.120444
_cell_length_c	15.296720
_cell_angle_alpha	101.987061
_cell_angle_beta	107.326883
_cell_angle_gamma	102.067954
loop_
_atom_site_label
_atom_site_type_symbol
_atom_site_fract_x
_atom_site_fract_y
_atom_site_fract_z
Zn1	Zn	1.319515	-0.167170	-0.291254
Zn2	Zn	1.819515	0.332830	0.208746
Zn3	Zn	1.338850	-0.279830	-0.143239
Zn4	Zn	1.838850	0.220170	0.356761
Zn5	Zn	1.190927	-0.167225	-0.162638
Zn6	Zn	1.690927	0.332775	0.337362
Zn7	Zn	1.152537	-0.339399	-0.329497
Zn8	Zn	1.652537	0.160601	0.170503
O9	O	1.250457	-0.238406	-0.231657
O10	O	1.750457	0.261594	0.268343
O11	O	1.453867	-0.157161	-0.247496
O12	O	1.953867	0.342839	0.252504
O13	O	1.343386	-0.239986	-0.014037
O14	O	1.843386	0.260014	0.485963
O15	O	1.215959	-0.048014	-0.171813
O16	O	1.715959	0.451986	0.328187
O17	O	1.468072	-0.239932	-0.138750
O18	O	1.968072	0.260068	0.361250
O19	O	1.310432	-0.047973	-0.266306
O20	O	1.810432	0.452027	0.233694
O21	O	1.234707	-0.157256	-0.028289
O22	O	1.734707	0.342744	0.471711
O23	O	1.054047	-0.215018	-0.208896
O24	O	1.554047	0.284982	0.291104
O25	O	1.150529	-0.341459	-0.456199
O26	O	1.650529	0.158541	0.043801
O27	O	1.025842	-0.341513	-0.331486
O28	O	1.525842	0.158487	0.168514
O29	O	1.273207	-0.214923	-0.428102
O30	O	1.773207	0.285077	0.071898
O31	O	1.306161	-0.406937	-0.175832
O32	O	1.806161	0.093063	0.324168
O33	O	1.169277	-0.450702	-0.312675
O34	O	1.669277	0.049298	0.187325
C35	C	1.005774	-0.284736	-0.276446
C36	C	1.505774	0.215264	0.223554
C37	C	0.901091	-0.304581	-0.295631
C38	C	1.401091	0.195419	0.204369
C39	C	0.664597	-0.096829	-0.094785
C40	C	1.164597	0.403171	0.405215
C41	C	0.762951	-0.078179	-0.076760
C42	C	1.262951	0.421821	0.423240
C43	C	0.797491	-0.134778	-0.131476
C44	C	1.297491	0.365222	0.368524
C45	C	0.733667	-0.210030	-0.204220
C46	C	1.233667	0.289970	0.295780
C47	C	0.635303	-0.228678	-0.222251
C48	C	1.135303	0.271322	0.277749
C49	C	0.768197	-0.266627	-0.258943
C50	C	1.268197	0.233373	0.241057
C51	C	0.704373	-0.341879	-0.331687
C52	C	1.204373	0.158121	0.168313
C53	C	0.606018	-0.360524	-0.349714
C54	C	1.106018	0.139476	0.150286
C55	C	0.571478	-0.303925	-0.294999
C56	C	1.071478	0.196075	0.205001
C57	C	0.866561	-0.247979	-0.240912
C58	C	1.366561	0.252021	0.259088
C59	C	0.837267	-0.379828	-0.368378
C60	C	1.337267	0.120172	0.131622
C61	C	0.738913	-0.398478	-0.386403
C62	C	1.238913	0.101522	0.113597
C63	C	1.235673	-0.459726	-0.246314
C64	C	1.735673	0.040274	0.253686
C65	C	1.229429	-0.554398	-0.252601
C66	C	1.729429	-0.054398	0.247399
C67	C	1.283043	-0.748215	-0.199207
C68	C	1.783043	-0.248215	0.300793
C69	C	1.218044	-0.727714	-0.264085
C70	C	1.718044	-0.227714	0.235915
C71	C	1.224381	-0.631272	-0.257693
C72	C	1.724381	-0.131272	0.242307
C73	C	1.276708	-0.844666	-0.205597
C74	C	1.776708	-0.344666	0.294403
C75	C	1.496096	-0.191896	-0.186693
C76	C	1.996096	0.308104	0.313307
C77	C	1.600773	-0.172076	-0.167532
C78	C	2.100773	0.327924	0.332468
C79	C	1.205428	-0.284829	-0.477274
C80	C	1.705428	0.215171	0.022726
C81	C	1.186240	-0.304612	-0.581941
C82	C	1.686240	0.195388	-0.081941
C83	C	1.265321	-0.016221	-0.216958
C84	C	1.765321	0.483779	0.283042
C85	C	1.271655	0.078462	-0.210694
C86	C	1.771655	0.578462	0.289306
C87	C	1.387645	-0.096859	-0.818466
C88	C	1.887645	0.403141	-0.318466
C89	C	1.405680	-0.078272	-0.720125
C90	C	1.905680	0.421728	-0.220125
C91	C	1.350821	-0.134855	-0.685574
C92	C	1.850821	0.365145	-0.185574
C93	C	1.277926	-0.210029	-0.749374
C94	C	1.777926	0.289971	-0.249374
C95	C	1.259894	-0.228621	-0.847724
C96	C	1.759894	0.271379	-0.347724
C97	C	1.223070	-0.266618	-0.714832
C98	C	1.723070	0.233382	-0.214832
C99	C	1.150174	-0.341791	-0.778632
C100	C	1.650174	0.158209	-0.278632
C101	C	1.132146	-0.360380	-0.876973
C102	C	1.632146	0.139620	-0.376973
C103	C	1.187005	-0.303797	-0.911524
C104	C	1.687005	0.196203	-0.411524
C105	C	1.241101	-0.248025	-0.616482
C106	C	1.741101	0.251975	-0.116482
C107	C	1.113350	-0.379788	-0.645740
C108	C	1.613350	0.120212	-0.145740
C109	C	1.095316	-0.398374	-0.744082
C110	C	1.595316	0.101626	-0.244082
C111	C	1.295369	-0.192092	0.013019
C112	C	1.795369	0.307908	0.513019
C113	C	1.314756	-0.172034	0.117735
C114	C	1.814756	0.327966	0.617735
H115	H	0.554053	-0.421794	-0.408954
H116	H	1.054053	0.078206	0.091046
H117	H	0.865388	-0.425914	-0.412936
H118	H	1.365388	0.074086	0.087064
Br119	Br	1.383717	-0.656751	-0.098634
Br120	Br	1.883717	-0.156751	0.401366
Br121	Br	1.504607	0.023743	-0.633546
Br122	Br	2.004607	0.523743	-0.133546
Br123	Br	1.117361	-0.819179	-0.364662
Br124	Br	1.617361	-0.319179	0.135338
H125	H	1.300453	-0.186818	-0.564545
H126	H	1.800453	0.313182	-0.064545
Br127	Br	0.849562	0.023950	0.021951
Br128	Br	1.349562	0.523950	0.521951
Br129	Br	1.162535	-0.329022	-1.044991
Br130	Br	1.662535	0.170978	-0.544991
H131	H	1.365509	-0.119718	-0.605499
H132	H	1.865509	0.380282	-0.105499
H133	H	1.432308	-0.050801	-0.846607
H134	H	1.932308	0.449199	-0.346607
H135	H	1.072797	-0.421597	-0.928916
H136	H	1.572797	0.078403	-0.428916
H137	H	0.636463	-0.050751	-0.050248
H138	H	1.136463	0.449249	0.449752
Br139	Br	0.996388	-0.500392	-0.830677
Br140	Br	1.496388	-0.000392	-0.330677
Br141	Br	0.652286	-0.500608	-0.485117
Br142	Br	1.152286	-0.000608	0.014883
Br143	Br	0.953168	-0.145854	-0.142192
Br144	Br	1.453168	0.354146	0.357808
Br145	Br	0.437992	-0.329231	-0.319461
Br146	Br	0.937992	0.170769	0.180539
H147	H	0.877577	-0.119588	-0.116797
H148	H	1.377577	0.380412	0.383203
Br149	Br	1.038902	-0.456590	-0.598858
Br150	Br	1.538902	0.043410	-0.098858
