data_functionalizedCrystal
_audit_creation_method	'MofGen! by Chris Wilmer'
_symmetry_space_group_name_H-M	'P1'
_symmetry_Int_Tables_number	1
_symmetry_cell_setting	triclinic
loop_
_symmetry_equiv_pos_as_xyz
  x,y,z
_cell_length_a	17.699104
_cell_length_b	12.503572
_cell_length_c	17.699083
_cell_angle_alpha	93.515225
_cell_angle_beta	83.287266
_cell_angle_gamma	86.486892
loop_
_atom_site_label
_atom_site_type_symbol
_atom_site_fract_x
_atom_site_fract_y
_atom_site_fract_z
O1	O	-1.008441	0.089365	-0.091398
O2	O	-0.508441	0.589365	0.408602
O3	O	-0.788064	0.089358	-0.103834
O4	O	-0.288064	0.589358	0.396166
O5	O	-0.904478	0.089353	0.012572
O6	O	-0.404478	0.589353	0.512572
O7	O	-0.892027	0.089371	-0.207804
O8	O	-0.392027	0.589371	0.292196
O9	O	-0.895723	-0.089289	0.003803
O10	O	-0.395723	0.410711	0.503803
O11	O	-0.779309	-0.089283	-0.112603
O12	O	-0.279309	0.410717	0.387397
O13	O	-0.999685	-0.089276	-0.100167
O14	O	-0.499685	0.410724	0.399833
Cu15	Cu	-0.888698	-0.105591	-0.107186
Cu16	Cu	-0.388698	0.394409	0.392814
Cu17	Cu	-0.899052	0.105673	-0.096815
Cu18	Cu	-0.399052	0.605673	0.403185
O19	O	-0.883272	-0.089270	-0.216573
O20	O	-0.383272	0.410730	0.283427
C21	C	-0.755490	0.000037	-0.107770
C22	C	-0.255490	0.500037	0.392230
C23	C	-0.671472	0.000034	-0.106426
C24	C	-0.171472	0.500034	0.393574
C25	C	-0.146602	0.000039	-0.167169
C26	C	0.353398	0.500039	0.332831
C27	C	-0.225546	0.000044	-0.168428
C28	C	0.274454	0.500044	0.331572
C29	C	-0.274163	0.000039	-0.100093
C30	C	0.225837	0.500039	0.399907
C31	C	-0.243833	0.000040	-0.030494
C32	C	0.256167	0.500040	0.469506
C33	C	-0.164891	0.000043	-0.029236
C34	C	0.335109	0.500043	0.470764
C35	C	-0.562199	0.000030	-0.035568
C36	C	-0.062199	0.500030	0.464432
C37	C	-0.641146	0.000024	-0.036832
C38	C	-0.141146	0.500024	0.463168
C39	C	-0.622853	0.000031	-0.174760
C40	C	-0.122853	0.500031	0.325240
C41	C	-0.543911	0.000034	-0.173502
C42	C	-0.043911	0.500034	0.326498
C43	C	-0.513589	0.000041	-0.103903
C44	C	-0.013589	0.500041	0.396097
C45	C	-0.427989	0.000038	-0.102539
C46	C	0.072011	0.500038	0.397461
C47	C	-0.359761	0.000035	-0.101457
C48	C	0.140239	0.500035	0.398543
N49	N	-0.881421	-0.254183	-0.114479
N50	N	-0.381421	0.245817	0.385521
C51	C	-0.870716	-0.473298	-0.125214
C52	C	-0.370716	0.026702	0.374786
C53	C	-0.917037	-0.526627	-0.078783
C54	C	-0.417037	-0.026627	0.421217
C55	C	-0.911080	-0.648550	-0.084756
C56	C	-0.411080	-0.148550	0.415244
C57	C	-0.876672	-0.351364	-0.119242
C58	C	-0.376672	0.148636	0.380758
C59	C	-0.032260	0.000043	-0.096231
C60	C	0.467740	0.500043	0.403769
C61	C	-0.116277	0.000037	-0.097576
C62	C	0.383723	0.500037	0.402424
C63	C	-0.899654	0.000032	0.036385
C64	C	-0.399654	0.500032	0.536385
C65	C	-0.898316	0.000031	0.120403
C66	C	-0.398316	0.500031	0.620403
N67	N	-0.906335	0.254265	-0.089516
N68	N	-0.406335	0.754265	0.410484
C69	C	-0.888095	0.000053	-0.240386
C70	C	-0.388095	0.500053	0.259614
C71	C	-0.889434	0.000060	-0.324403
C72	C	-0.389434	0.500060	0.175597
C73	C	-0.966648	0.000032	0.169019
C74	C	-0.466648	0.500032	0.669019
C75	C	-0.965387	0.000041	0.247963
C76	C	-0.465387	0.500041	0.747963
C77	C	-0.895791	0.000042	0.278289
C78	C	-0.395791	0.500042	0.778289
C79	C	-0.827453	0.000045	0.229667
C80	C	-0.327453	0.500045	0.729667
C81	C	-0.828716	0.000043	0.150725
C82	C	-0.328716	0.500043	0.650725
C83	C	-0.822358	0.000054	0.548031
C84	C	-0.322358	0.500054	1.048031
C85	C	-0.821100	0.000052	0.626979
C86	C	-0.321100	0.500052	1.126979
C87	C	-0.959029	0.000052	0.645269
C88	C	-0.459029	0.500052	1.145269
C89	C	-0.960292	0.000050	0.566327
C90	C	-0.460292	0.500050	1.066327
C91	C	-0.891955	0.000058	0.517712
C92	C	-0.391955	0.500058	1.017712
C93	C	-0.893324	0.000050	0.432112
C94	C	-0.393324	0.500050	0.932112
C95	C	-0.894421	0.000043	0.363887
C96	C	-0.394421	0.500043	0.863887
H97	H	-0.250232	0.000056	-0.225097
H98	H	0.249768	0.500056	0.274903
F99	F	-0.749628	0.000065	0.496301
F100	F	-0.249628	0.500065	0.996301
F101	F	-0.974943	-0.466623	-0.021188
F102	F	-0.474943	0.033377	0.478812
H103	H	-0.770787	0.000053	0.254365
H104	H	-0.270787	0.500053	0.754365
H105	H	-0.764424	0.000051	0.651666
H106	H	-0.264424	0.500051	1.151666
F107	F	-1.040722	0.000020	0.136751
F108	F	-0.540722	0.500020	0.636751
F109	F	-1.031760	0.000047	0.697015
F110	F	-0.531760	0.500047	1.197015
F111	F	-0.132618	0.000041	0.044835
F112	F	0.367382	0.500041	0.544835
H113	H	-0.826591	-0.519203	-0.169449
H114	H	-0.326591	-0.019203	0.330551
H115	H	-0.537520	0.000032	0.021103
H116	H	-0.037520	0.500032	0.521103
H117	H	-0.504330	0.000033	-0.229147
H118	H	-0.004330	0.500033	0.270853
H119	H	-0.773072	0.000043	0.111142
H120	H	-0.273072	0.500043	0.611142
H121	H	-1.021030	0.000039	0.287543
H122	H	-0.521030	0.500039	0.787543
F123	F	-1.034365	0.000050	0.534056
F124	F	-0.534365	0.500050	1.034056
H125	H	-0.107022	0.000035	-0.222816
H126	H	0.392978	0.500035	0.277184
H127	H	-0.647551	0.000030	-0.231431
H128	H	-0.147551	0.500030	0.268569
F129	F	-0.295578	0.000038	0.042233
F130	F	0.204422	0.500038	0.542233
F131	F	-0.692887	0.000020	0.035903
F132	F	-0.192887	0.500020	0.535903
