data_functionalizedCrystal
_audit_creation_method	'MofGen! by Chris Wilmer'
_symmetry_space_group_name_H-M	'P1'
_symmetry_Int_Tables_number	1
_symmetry_cell_setting	triclinic
loop_
_symmetry_equiv_pos_as_xyz
  x,y,z
_cell_length_a	11.792254
_cell_length_b	11.792241
_cell_length_c	14.750522
_cell_angle_alpha	104.120060
_cell_angle_beta	104.119860
_cell_angle_gamma	84.196007
loop_
_atom_site_label
_atom_site_type_symbol
_atom_site_fract_x
_atom_site_fract_y
_atom_site_fract_z
O1	O	1.529016	0.177752	0.079829
O2	O	1.198678	0.193770	0.079831
O3	O	1.371862	0.020589	0.079823
O4	O	1.355832	0.350933	0.079837
O5	O	1.327614	-0.023648	-0.079836
O6	O	1.154430	0.149533	-0.079828
O7	O	1.484769	0.133515	-0.079830
Zn8	Zn	1.312574	0.134501	-0.105178
Zn9	Zn	1.370872	0.192785	0.105180
O10	O	1.311585	0.306696	-0.079822
C11	C	1.134263	0.170643	0.000002
C12	C	1.008250	0.167623	0.000003
C13	C	1.348731	-0.043820	-0.000006
C14	C	1.345717	-0.169834	-0.000005
C15	C	0.905915	0.165170	0.000007
C16	C	0.777529	0.162102	0.000007
C17	C	1.340178	-0.400542	0.000011
C18	C	1.343256	-0.272159	0.000002
C19	C	1.549184	0.156643	0.000001
C20	C	1.675198	0.159665	0.000007
C21	C	1.334716	0.371106	0.000009
C22	C	1.337732	0.497122	0.000015
N23	N	1.272796	0.094722	-0.248742
C24	C	1.521662	0.343679	-0.600510
C25	C	1.493814	0.315788	-0.701015
C26	C	1.355315	0.177183	-0.701005
C27	C	1.383147	0.205067	-0.600499
C28	C	1.466322	0.288315	-0.550259
C29	C	1.327807	0.149702	-0.550247
C30	C	1.355642	0.177580	-0.449749
C31	C	1.438816	0.260822	-0.399503
C32	C	1.494157	0.316192	-0.449761
C33	C	1.244639	0.066449	-0.600489
C34	C	1.189299	0.011084	-0.550238
C35	C	1.217127	0.038967	-0.449738
C36	C	1.300301	0.122209	-0.399491
C37	C	1.161786	-0.016403	-0.399480
C38	C	1.189621	0.011475	-0.298982
C39	C	1.328135	0.150087	-0.298993
N40	N	1.410660	0.232554	0.248743
H41	H	1.395852	0.217888	-0.258085
H42	H	1.094073	-0.084192	-0.440400
C43	C	1.097791	-0.080463	-0.605502
H44	H	1.068819	-0.109441	-0.561178
H45	H	1.034991	-0.045165	-0.644715
H46	H	1.133115	-0.143272	-0.644697
C47	C	1.263824	0.085621	-0.756274
H48	H	1.255166	0.076952	-0.823325
H49	H	1.288993	0.012676	-0.739788
H50	H	1.190853	0.110766	-0.739815
C51	C	1.128744	-0.049418	-0.243702
H52	H	1.075213	-0.102980	-0.288016
H53	H	1.185794	-0.090460	-0.204482
H54	H	1.087648	0.007624	-0.204513
H55	H	1.589379	0.411480	-0.559602
C56	C	1.554692	0.376690	-0.756293
H57	H	1.526213	0.348159	-0.823342
H58	H	1.538645	0.458773	-0.739840
H59	H	1.636787	0.360684	-0.739809
C60	C	1.469449	0.291485	-0.288957
H61	H	1.526918	0.348983	-0.266235
H62	H	1.401102	0.321231	-0.266222
H63	H	1.499251	0.223149	-0.266214
C64	C	1.585653	0.407760	-0.394491
H65	H	1.614633	0.436740	-0.438810
H66	H	1.550323	0.470551	-0.355294
H67	H	1.648465	0.372462	-0.355280
H68	H	1.221986	0.043746	-0.682321
