data_functionalizedCrystal
_audit_creation_method	'MofGen! by Chris Wilmer'
_symmetry_space_group_name_H-M	'P1'
_symmetry_Int_Tables_number	1
_symmetry_cell_setting	triclinic
loop_
_symmetry_equiv_pos_as_xyz
  x,y,z
_cell_length_a	18.215407
_cell_length_b	18.215405
_cell_length_c	18.215399
_cell_angle_alpha	89.969030
_cell_angle_beta	89.980650
_cell_angle_gamma	90.025333
loop_
_atom_site_label
_atom_site_type_symbol
_atom_site_fract_x
_atom_site_fract_y
_atom_site_fract_z
Zn1	Zn	1.125068	-0.292980	-0.416103
Zn2	Zn	1.458402	0.040353	-0.082769
Zn3	Zn	1.791735	0.373687	0.250564
Zn4	Zn	1.124978	-0.416052	-0.293031
Zn5	Zn	1.458311	-0.082719	0.040303
Zn6	Zn	1.791645	0.250615	0.373636
Zn7	Zn	1.002002	-0.293005	-0.293050
Zn8	Zn	1.335335	0.040328	0.040283
Zn9	Zn	1.668669	0.373662	0.373617
Zn10	Zn	1.001967	-0.416010	-0.416056
Zn11	Zn	1.335300	-0.082677	-0.082722
Zn12	Zn	1.668634	0.250656	0.250611
O13	O	1.063504	-0.354512	-0.354560
O14	O	1.396837	-0.021179	-0.021226
O15	O	1.730170	0.312155	0.312107
O16	O	1.228041	-0.309313	-0.399788
O17	O	1.561374	0.024020	-0.066455
O18	O	1.894707	0.357354	0.266878
O19	O	1.108642	-0.399758	-0.190049
O20	O	1.441975	-0.066424	0.143284
O21	O	1.775308	0.266909	0.476618
O22	O	1.018380	-0.190017	-0.309401
O23	O	1.351713	0.143316	0.023933
O24	O	1.685046	0.476649	0.357266
O25	O	1.227974	-0.399733	-0.309368
O26	O	1.561307	-0.066400	0.023965
O27	O	1.894641	0.266933	0.357299
O28	O	1.108796	-0.189999	-0.399807
O29	O	1.442129	0.143334	-0.066474
O30	O	1.775463	0.476668	0.266860
O31	O	1.018292	-0.309355	-0.190063
O32	O	1.351625	0.023978	0.143270
O33	O	1.684959	0.357311	0.476604
O34	O	0.899013	-0.309315	-0.309355
O35	O	1.232346	0.024019	0.023978
O36	O	1.565680	0.357352	0.357311
O37	O	1.018320	-0.399662	-0.519046
O38	O	1.351653	-0.066329	-0.185713
O39	O	1.684986	0.267005	0.147621
O40	O	0.898987	-0.399686	-0.399727
O41	O	1.232321	-0.066353	-0.066394
O42	O	1.565654	0.266980	0.266940
O43	O	1.108762	-0.309272	-0.519081
O44	O	1.442095	0.024061	-0.185747
O45	O	1.775429	0.357394	0.147586
O46	O	1.108608	-0.519031	-0.309322
O47	O	1.441941	-0.185698	0.024011
O48	O	1.775274	0.147636	0.357344
O49	O	1.018232	-0.519000	-0.399708
O50	O	1.351565	-0.185667	-0.066375
O51	O	1.684899	0.147667	0.266958
C52	C	0.872298	-0.354499	-0.354539
C53	C	1.205631	-0.021166	-0.021205
C54	C	1.538964	0.312167	0.312128
C55	C	0.790499	-0.354512	-0.354547
C56	C	1.123832	-0.021178	-0.021214
C57	C	1.457165	0.312155	0.312120
C58	C	0.602311	-0.401642	-0.401544
C59	C	0.935644	-0.068309	-0.068211
C60	C	1.268977	0.265025	0.265122
C61	C	0.525452	-0.401644	-0.401554
C62	C	0.858785	-0.068311	-0.068220
C63	C	1.192118	0.265022	0.265113
C64	C	0.525449	-0.307395	-0.307591
C65	C	0.858782	0.025938	0.025742
C66	C	1.192116	0.359272	0.359076
C67	C	0.602306	-0.307390	-0.307586
C68	C	0.935640	0.025944	0.025747
C69	C	1.268973	0.359277	0.359081
C70	C	0.640735	-0.354517	-0.354562
C71	C	0.974068	-0.021184	-0.021228
C72	C	1.307402	0.312149	0.312105
C73	C	0.487019	-0.354525	-0.354576
C74	C	0.820352	-0.021192	-0.021242
C75	C	1.153686	0.312142	0.312091
C76	C	0.403685	-0.354527	-0.354585
C77	C	0.737019	-0.021194	-0.021252
C78	C	1.070352	0.312140	0.312081
C79	C	0.724074	-0.354514	-0.354553
C80	C	1.057407	-0.021181	-0.021220
C81	C	1.390741	0.312152	0.312113
C82	C	1.063426	-0.545718	-0.354524
C83	C	1.396759	-0.212385	-0.021191
C84	C	1.730093	0.120948	0.312142
C85	C	1.063460	-0.627517	-0.354534
C86	C	1.396794	-0.294184	-0.021200
C87	C	1.730127	0.039150	0.312133
C88	C	1.110629	-0.815702	-0.307556
C89	C	1.443963	-0.482369	0.025777
C90	C	1.777296	-0.149036	0.359110
C91	C	1.110662	-0.892561	-0.307574
C92	C	1.443996	-0.559228	0.025759
C93	C	1.777329	-0.225895	0.359092
C94	C	1.016473	-0.892569	-0.401616
C95	C	1.349806	-0.559236	-0.068283
C96	C	1.683139	-0.225902	0.265051
C97	C	1.016444	-0.815712	-0.401601
C98	C	1.349777	-0.482378	-0.068268
C99	C	1.683111	-0.149045	0.265065
C100	C	1.063521	-0.777280	-0.354567
C101	C	1.396854	-0.443947	-0.021234
C102	C	1.730188	-0.110614	0.312099
C103	C	1.063583	-0.930997	-0.354600
C104	C	1.396916	-0.597663	-0.021266
C105	C	1.730249	-0.264330	0.312067
C106	C	1.063618	-1.014330	-0.354619
C107	C	1.396951	-0.680997	-0.021286
C108	C	1.730285	-0.347664	0.312047
C109	C	1.063487	-0.693942	-0.354548
C110	C	1.396820	-0.360608	-0.021215
C111	C	1.730154	-0.027275	0.312118
C112	C	1.255457	-0.354525	-0.354581
C113	C	1.588790	-0.021192	-0.021248
C114	C	1.922123	0.312142	0.312085
C115	C	1.337256	-0.354531	-0.354591
C116	C	1.670589	-0.021197	-0.021257
C117	C	2.003922	0.312136	0.312076
C118	C	1.063547	-0.354460	-0.546513
C119	C	1.396880	-0.021126	-0.213179
C120	C	1.730214	0.312207	0.120154
C121	C	1.063565	-0.354437	-0.628312
C122	C	1.396899	-0.021104	-0.294978
C123	C	1.730232	0.312229	0.038355
C124	C	1.063602	-0.162559	-0.354611
C125	C	1.396935	0.170774	-0.021278
C126	C	1.730269	0.504108	0.312055
C127	C	1.063644	-0.080760	-0.354633
C128	C	1.396977	0.252573	-0.021300
C129	C	1.730310	0.585907	0.312033
C130	C	1.110686	-0.307308	-0.893389
C131	C	1.444019	0.026025	-0.560055
C132	C	1.777353	0.359359	-0.226722
C133	C	1.110677	-0.307328	-0.816530
C134	C	1.444011	0.026005	-0.483196
C135	C	1.777344	0.359339	-0.149863
C136	C	1.016505	-0.401460	-0.816483
C137	C	1.349838	-0.068127	-0.483150
C138	C	1.683171	0.265206	-0.149817
C139	C	1.016518	-0.401444	-0.893341
C140	C	1.349851	-0.068110	-0.560008
C141	C	1.683184	0.265223	-0.226674
C142	C	1.063607	-0.354363	-0.931791
C143	C	1.396941	-0.021030	-0.598458
C144	C	1.730274	0.312303	-0.265125
C145	C	1.063586	-0.354400	-0.778075
C146	C	1.396919	-0.021067	-0.444742
C147	C	1.730252	0.312267	-0.111409
C148	C	1.063576	-0.354422	-0.694742
C149	C	1.396909	-0.021088	-0.361408
C150	C	1.730242	0.312245	-0.028075
C151	C	1.063618	-0.354342	-1.015130
C152	C	1.396951	-0.021009	-0.681797
C153	C	1.730285	0.312325	-0.348464
C154	C	1.063503	-0.354511	-0.163353
C155	C	1.396836	-0.021177	0.169980
C156	C	1.730170	0.312156	0.503313
C157	C	1.063627	-0.354326	-0.081555
C158	C	1.396961	-0.020992	0.251778
C159	C	1.730294	0.312341	0.585112
H160	H	0.494170	-0.440017	-0.439813
H161	H	0.827503	-0.106684	-0.106480
H162	H	1.160837	0.226650	0.226854
C163	C	0.964702	-0.453239	-0.774181
C164	C	1.298035	-0.119905	-0.440847
C165	C	1.631369	0.213428	-0.107514
N166	N	0.925680	-0.492237	-0.742319
N167	N	1.259014	-0.158903	-0.408986
N168	N	1.592347	0.174430	-0.075652
C169	C	0.964634	-0.773445	-0.453335
C170	C	1.297967	-0.440112	-0.120001
C171	C	1.631300	-0.106778	0.213332
N172	N	0.925618	-0.741610	-0.492305
N173	N	1.258952	-0.408276	-0.158972
N174	N	1.592285	-0.074943	0.174362
H175	H	1.149014	-0.269012	-0.785265
H176	H	1.482347	0.064322	-0.451932
H177	H	1.815681	0.397655	-0.118599
C178	C	0.964724	-0.453209	-0.935587
C179	C	1.298057	-0.119876	-0.602253
C180	C	1.631390	0.213457	-0.268920
N181	N	0.925715	-0.492199	-0.967406
N182	N	1.259048	-0.158865	-0.634073
N183	N	1.592381	0.174468	-0.300739
C184	C	1.162491	-0.255524	-0.935681
C185	C	1.495825	0.077809	-0.602348
C186	C	1.829158	0.411142	-0.269015
N187	N	1.201515	-0.216522	-0.967534
N188	N	1.534849	0.116812	-0.634201
N189	N	1.868182	0.450145	-0.300868
H190	H	0.494151	-0.269026	-0.269344
H191	H	0.827484	0.064307	0.063989
H192	H	1.160818	0.397640	0.397323
H193	H	0.633597	-0.440015	-0.439797
H194	H	0.966930	-0.106681	-0.106464
H195	H	1.300264	0.226652	0.226870
C196	C	0.644576	-0.255546	-0.255898
C197	C	0.977909	0.077787	0.077435
C198	C	1.311243	0.411121	0.410768
N199	N	0.676414	-0.216498	-0.216970
N200	N	1.009747	0.116835	0.116363
N201	N	1.343080	0.450168	0.449697
H202	H	1.149023	-0.923841	-0.269294
H203	H	1.482357	-0.590508	0.064039
H204	H	1.815690	-0.257174	0.397372
C205	C	0.964682	-0.934851	-0.453342
C206	C	1.298015	-0.601517	-0.120009
C207	C	1.631349	-0.268184	0.213325
N208	N	0.925669	-0.966697	-0.492300
N209	N	1.259002	-0.633363	-0.158967
N210	N	1.592336	-0.300030	0.174366
C211	C	1.162420	-0.773431	-0.255822
C212	C	1.495753	-0.440097	0.077511
C213	C	1.829086	-0.106764	0.410845
N214	N	1.201432	-0.741594	-0.216856
N215	N	1.534765	-0.408260	0.116478
N216	N	1.868098	-0.074927	0.449811
