data_functionalizedCrystal
_audit_creation_method	'MofGen! by Chris Wilmer'
_symmetry_space_group_name_H-M	'P1'
_symmetry_Int_Tables_number	1
_symmetry_cell_setting	triclinic
loop_
_symmetry_equiv_pos_as_xyz
  x,y,z
_cell_length_a	16.109318
_cell_length_b	11.792254
_cell_length_c	15.186229
_cell_angle_alpha	89.996078
_cell_angle_beta	90.000224
_cell_angle_gamma	83.833580
loop_
_atom_site_label
_atom_site_type_symbol
_atom_site_fract_x
_atom_site_fract_y
_atom_site_fract_z
O1	O	1.103813	0.145978	-0.073156
O2	O	1.437147	0.479311	0.260178
O3	O	1.770480	0.812645	0.593511
O4	O	0.861839	0.164113	-0.073174
O5	O	1.195173	0.497446	0.260160
O6	O	1.528506	0.830779	0.593493
O7	O	0.988693	-0.010175	-0.073158
O8	O	1.322026	0.323158	0.260175
O9	O	1.655360	0.656491	0.593509
O10	O	0.976960	0.320266	-0.073171
O11	O	1.310293	0.653599	0.260162
O12	O	1.643627	0.986933	0.593495
O13	O	0.988684	-0.010178	0.073299
O14	O	1.322018	0.323156	0.406633
O15	O	1.655351	0.656489	0.739966
O16	O	0.861831	0.164110	0.073284
O17	O	1.195164	0.497443	0.406617
O18	O	1.528498	0.830777	0.739950
O19	O	1.103805	0.145976	0.073302
O20	O	1.437138	0.479309	0.406635
O21	O	1.770472	0.812642	0.739968
Zn22	Zn	0.982817	0.155042	0.096546
Zn23	Zn	1.316150	0.488376	0.429879
Zn24	Zn	1.649483	0.821709	0.763213
Zn25	Zn	0.982828	0.155046	-0.096418
Zn26	Zn	1.316161	0.488379	0.236915
Zn27	Zn	1.649494	0.821712	0.570249
O28	O	0.976951	0.320263	0.073286
O29	O	1.310285	0.653597	0.406619
O30	O	1.643618	0.986930	0.739953
C31	C	0.830857	0.163373	0.000053
C32	C	1.164190	0.496707	0.333386
C33	C	1.497524	0.830040	0.666720
C34	C	0.738552	0.161161	0.000046
C35	C	1.071885	0.494494	0.333380
C36	C	1.405219	0.827827	0.666713
C37	C	0.439449	0.154016	-0.079772
C38	C	0.772782	0.487349	0.253561
C39	C	1.106116	0.820682	0.586895
C40	C	0.526180	0.156087	-0.079777
C41	C	0.859513	0.489420	0.253556
C42	C	1.192847	0.822754	0.586889
C43	C	0.526190	0.156069	0.079898
C44	C	0.859523	0.489402	0.413232
C45	C	1.192856	0.822736	0.746565
C46	C	0.439461	0.153989	0.079903
C47	C	0.772794	0.487323	0.413236
C48	C	1.106127	0.820656	0.746570
C49	C	0.396092	0.152969	0.000065
C50	C	0.729426	0.486302	0.333399
C51	C	1.062759	0.819635	0.666732
C52	C	0.569552	0.157120	0.000055
C53	C	0.902885	0.490453	0.333388
C54	C	1.236219	0.823786	0.666722
C55	C	0.663590	0.159366	0.000050
C56	C	0.996923	0.492699	0.333383
C57	C	1.330256	0.826032	0.666716
C58	C	0.302049	0.150720	0.000070
C59	C	0.635382	0.484054	0.333404
C60	C	0.968715	0.817387	0.666737
C61	C	0.987950	-0.052461	0.000070
C62	C	1.321283	0.280873	0.333404
C63	C	1.654616	0.614206	0.666737
C64	C	0.985737	-0.178455	0.000069
C65	C	1.319071	0.154879	0.333403
C66	C	1.652404	0.488212	0.666736
C67	C	0.983940	-0.280776	0.000066
C68	C	1.317273	0.052558	0.333399
C69	C	1.650607	0.385891	0.666733
C70	C	0.981692	-0.409143	0.000058
C71	C	1.315026	-0.075809	0.333391
C72	C	1.648359	0.257524	0.666725
C73	C	1.134787	0.146715	0.000073
C74	C	1.468121	0.480048	0.333407
C75	C	1.801454	0.813381	0.666740
C76	C	1.227092	0.148928	0.000074
C77	C	1.560426	0.482261	0.333408
C78	C	1.893759	0.815594	0.666741
C79	C	0.977695	0.362549	0.000056
C80	C	1.311028	0.695882	0.333389
C81	C	1.644361	1.029216	0.666722
C82	C	0.979907	0.488543	0.000051
C83	C	1.313240	0.821876	0.333384
C84	C	1.646574	1.155209	0.666718
N85	N	0.982815	0.155040	0.228239
N86	N	1.316148	0.488373	0.561572
N87	N	1.649482	0.821706	0.894905
N88	N	0.982836	0.155040	-0.228111
N89	N	1.316169	0.488373	0.105223
N90	N	1.649503	0.821706	0.438556
C91	C	1.039005	0.077891	0.453968
C92	C	1.372338	0.411224	0.787302
C93	C	1.705672	0.744558	1.120635
C94	C	1.039008	0.077888	0.546158
C95	C	1.372341	0.411222	0.879491
C96	C	1.705674	0.744555	1.212825
C97	C	0.926640	0.232192	0.546153
C98	C	1.259973	0.565525	0.879487
C99	C	1.593306	0.898859	1.212820
C100	C	0.926634	0.232188	0.453965
C101	C	1.259967	0.565522	0.787299
C102	C	1.593301	0.898855	1.120632
C103	C	0.982821	0.155039	0.407875
C104	C	1.316155	0.488372	0.741209
C105	C	1.649488	0.821706	1.074542
C106	C	0.982830	0.155040	0.592253
C107	C	1.316163	0.488373	0.925586
C108	C	1.649496	0.821707	1.258920
C109	C	0.982832	0.155038	0.692209
C110	C	1.316165	0.488371	1.025542
C111	C	1.649499	0.821704	1.358876
C112	C	0.982818	0.155040	0.307913
C113	C	1.316151	0.488373	0.641246
C114	C	1.649485	0.821706	0.974579
H115	H	0.404141	0.153183	-0.144781
H116	H	0.737474	0.486516	0.188552
H117	H	1.070808	0.819850	0.521886
H118	H	0.561478	0.156938	-0.144789
H119	H	0.894811	0.490272	0.188545
H120	H	1.228144	0.823605	0.521878
N121	N	0.570469	0.157130	0.161459
N122	N	0.903803	0.490463	0.494792
N123	N	1.237136	0.823796	0.828125
N124	N	0.568084	0.076950	0.214926
N125	N	0.901417	0.410284	0.548260
N126	N	1.234751	0.743617	0.881593
H127	H	0.599351	0.077708	0.272533
H128	H	0.932684	0.411041	0.605867
H129	H	1.266018	0.744374	0.939200
H130	H	1.084755	0.015070	0.416444
H131	H	1.418088	0.348403	0.749777
H132	H	1.751422	0.681736	1.083111
H133	H	1.084757	0.015066	0.583685
H134	H	1.418090	0.348399	0.917018
H135	H	1.751423	0.681733	1.250351
H136	H	0.404159	0.153136	0.144920
H137	H	0.737492	0.486469	0.478253
H138	H	1.070826	0.819802	0.811587
H139	H	0.880894	0.295007	0.583689
H140	H	1.214228	0.628340	0.917022
H141	H	1.547561	0.961673	1.250356
H142	H	0.880878	0.295012	0.416434
H143	H	1.214212	0.628345	0.749767
H144	H	1.547545	0.961679	1.083100
