data_functionalizedCrystal
_audit_creation_method	'MofGen! by Chris Wilmer'
_symmetry_space_group_name_H-M	'P1'
_symmetry_Int_Tables_number	1
_symmetry_cell_setting	triclinic
loop_
_symmetry_equiv_pos_as_xyz
  x,y,z
_cell_length_a	18.215407
_cell_length_b	18.215405
_cell_length_c	18.215399
_cell_angle_alpha	89.967040
_cell_angle_beta	89.985195
_cell_angle_gamma	90.019398
loop_
_atom_site_label
_atom_site_type_symbol
_atom_site_fract_x
_atom_site_fract_y
_atom_site_fract_z
Zn1	Zn	1.125050	-0.293082	-0.416063
Zn2	Zn	1.625050	0.206918	0.083937
Zn3	Zn	1.124965	-0.416159	-0.292991
Zn4	Zn	1.624965	0.083841	0.207009
Zn5	Zn	1.001989	-0.293099	-0.293015
Zn6	Zn	1.501989	0.206901	0.206985
Zn7	Zn	1.001949	-0.416100	-0.416020
Zn8	Zn	1.501949	0.083900	0.083980
O9	O	1.063488	-0.354610	-0.354522
O10	O	1.563488	0.145390	0.145478
O11	O	1.228023	-0.309426	-0.399745
O12	O	1.728023	0.190574	0.100255
O13	O	1.108633	-0.399866	-0.190010
O14	O	1.608633	0.100134	0.309990
O15	O	1.018366	-0.190112	-0.309365
O16	O	1.518366	0.309888	0.190635
O17	O	1.227960	-0.399850	-0.309325
O18	O	1.727960	0.100150	0.190675
O19	O	1.108778	-0.190100	-0.399768
O20	O	1.608778	0.309900	0.100232
O21	O	1.018283	-0.309454	-0.190027
O22	O	1.518283	0.190546	0.309973
O23	O	0.898999	-0.309397	-0.309324
O24	O	1.398999	0.190603	0.190676
O25	O	1.018297	-0.399750	-0.519010
O26	O	1.518297	0.100250	-0.019010
O27	O	0.898970	-0.399766	-0.399695
O28	O	1.398970	0.100234	0.100305
O29	O	1.108739	-0.309369	-0.519042
O30	O	1.608739	0.190631	-0.019042
O31	O	1.108594	-0.519135	-0.309283
O32	O	1.608594	-0.019135	0.190717
O33	O	1.018214	-0.519092	-0.399672
O34	O	1.518214	-0.019092	0.100328
C35	C	0.872282	-0.354577	-0.354508
C36	C	1.372282	0.145423	0.145492
C37	C	0.790483	-0.354581	-0.354519
C38	C	1.290483	0.145419	0.145481
C39	C	0.525452	-0.307617	-0.401679
C40	C	1.025452	0.192383	0.098321
C41	C	0.602311	-0.307605	-0.401677
C42	C	1.102311	0.192395	0.098323
C43	C	0.602265	-0.401627	-0.307381
C44	C	1.102265	0.098373	0.192619
C45	C	0.525408	-0.401642	-0.307388
C46	C	1.025408	0.098358	0.192612
C47	C	0.487003	-0.354633	-0.354536
C48	C	0.987003	0.145367	0.145464
C49	C	0.640719	-0.354606	-0.354527
C50	C	1.140719	0.145394	0.145473
C51	C	0.724053	-0.354593	-0.354524
C52	C	1.224053	0.145407	0.145476
C53	C	0.403664	-0.354646	-0.354540
C54	C	0.903664	0.145354	0.145460
C55	C	1.063410	-0.545816	-0.354487
C56	C	1.563410	-0.045816	0.145513
C57	C	1.063445	-0.627615	-0.354496
C58	C	1.563445	-0.127615	0.145504
C59	C	1.110616	-0.815807	-0.307517
C60	C	1.610616	-0.315807	0.192483
C61	C	1.110649	-0.892666	-0.307535
C62	C	1.610649	-0.392666	0.192465
C63	C	1.016455	-0.892661	-0.401580
C64	C	1.516455	-0.392661	0.098420
C65	C	1.016426	-0.815803	-0.401565
C66	C	1.516426	-0.315803	0.098435
C67	C	1.063505	-0.777378	-0.354530
C68	C	1.563505	-0.277378	0.145470
C69	C	1.063567	-0.931094	-0.354562
C70	C	1.563567	-0.431094	0.145438
C71	C	1.063602	-1.014428	-0.354582
C72	C	1.563602	-0.514428	0.145418
C73	C	1.063471	-0.694039	-0.354511
C74	C	1.563471	-0.194039	0.145489
C75	C	1.255441	-0.354643	-0.354537
C76	C	1.755441	0.145357	0.145463
C77	C	1.337240	-0.354657	-0.354543
C78	C	1.837240	0.145343	0.145457
C79	C	1.063523	-0.354551	-0.546475
C80	C	1.563523	0.145449	-0.046475
C81	C	1.063538	-0.354526	-0.628274
C82	C	1.563538	0.145474	-0.128274
C83	C	1.063586	-0.162657	-0.354574
C84	C	1.563586	0.337343	0.145426
C85	C	1.063628	-0.080858	-0.354596
C86	C	1.563628	0.419142	0.145404
C87	C	1.016532	-0.307417	-0.816478
C88	C	1.516532	0.192583	-0.316478
C89	C	1.016545	-0.307402	-0.893337
C90	C	1.516545	0.192598	-0.393337
C91	C	1.110631	-0.401547	-0.893308
C92	C	1.610631	0.098453	-0.393308
C93	C	1.110614	-0.401565	-0.816451
C94	C	1.610614	0.098435	-0.316451
C95	C	1.063566	-0.354496	-0.778038
C96	C	1.563566	0.145504	-0.278038
C97	C	1.063596	-0.354463	-0.931754
C98	C	1.563596	0.145537	-0.431754
C99	C	1.063610	-0.354447	-1.015088
C100	C	1.563610	0.145553	-0.515088
C101	C	1.063550	-0.354512	-0.694699
C102	C	1.563550	0.145488	-0.194699
C103	C	1.063496	-0.354615	-0.163316
C104	C	1.563496	0.145385	0.336684
C105	C	1.063624	-0.354433	-0.081517
C106	C	1.563624	0.145567	0.418483
H107	H	0.633613	-0.269321	-0.440066
H108	H	1.133613	0.230679	0.059934
H109	H	0.978222	-0.269090	-0.785204
H110	H	1.478222	0.230910	-0.285204
Br111	Br	1.174480	-0.465423	-0.945445
Br112	Br	1.674480	0.034577	-0.445445
H113	H	1.149011	-0.923951	-0.269254
H114	H	1.649011	-0.423951	0.230746
Br115	Br	0.952698	-0.243519	-0.945503
Br116	Br	1.452698	0.256481	-0.445503
H117	H	0.978123	-0.923955	-0.439874
H118	H	1.478123	-0.423955	0.060126
H119	H	1.148916	-0.439905	-0.785152
H120	H	1.648916	0.060095	-0.285152
Br121	Br	0.654390	-0.465419	-0.243396
Br122	Br	1.154390	0.034581	0.256604
H123	H	0.494186	-0.269339	-0.440070
H124	H	0.994186	0.230661	0.059930
H125	H	0.494102	-0.439932	-0.268998
H126	H	0.994102	0.060068	0.231002
Br127	Br	0.952492	-0.763645	-0.465379
Br128	Br	1.452492	-0.263645	0.034621
H129	H	1.148952	-0.784523	-0.269219
H130	H	1.648952	-0.284523	0.230781
