data_functionalizedCrystal
_audit_creation_method	'MofGen! by Chris Wilmer'
_symmetry_space_group_name_H-M	'P1'
_symmetry_Int_Tables_number	1
_symmetry_cell_setting	triclinic
loop_
_symmetry_equiv_pos_as_xyz
  x,y,z
_cell_length_a	16.120484
_cell_length_b	19.077241
_cell_length_c	19.076919
_cell_angle_alpha	90.113904
_cell_angle_beta	95.046610
_cell_angle_gamma	84.670961
loop_
_atom_site_label
_atom_site_type_symbol
_atom_site_fract_x
_atom_site_fract_y
_atom_site_fract_z
Zn1	Zn	-0.303890	-1.044776	-0.453016
Zn2	Zn	-0.053890	-0.794776	-0.203016
Zn3	Zn	0.196110	-0.544776	0.046984
Zn4	Zn	0.446110	-0.294776	0.296984
Zn5	Zn	-0.438041	-1.043450	-0.341006
Zn6	Zn	-0.188041	-0.793450	-0.091006
Zn7	Zn	0.061959	-0.543450	0.158994
Zn8	Zn	0.311959	-0.293450	0.408994
Zn9	Zn	-0.303449	-0.932011	-0.330776
Zn10	Zn	-0.053449	-0.682011	-0.080776
Zn11	Zn	0.196551	-0.432011	0.169224
Zn12	Zn	0.446551	-0.182011	0.419224
Zn13	Zn	-0.449207	-0.920773	-0.454199
Zn14	Zn	-0.199207	-0.670773	-0.204199
Zn15	Zn	0.050793	-0.420773	0.045801
Zn16	Zn	0.300793	-0.170773	0.295801
O17	O	-0.373647	-0.985252	-0.394750
O18	O	-0.123647	-0.735252	-0.144750
O19	O	0.126353	-0.485252	0.105250
O20	O	0.376353	-0.235252	0.355250
O21	O	-0.317197	-1.143133	-0.441944
O22	O	-0.067197	-0.893133	-0.191944
O23	O	0.182803	-0.643133	0.058056
O24	O	0.432803	-0.393133	0.308056
O25	O	-0.415330	-1.032816	-0.241120
O26	O	-0.165330	-0.782816	0.008880
O27	O	0.084670	-0.532816	0.258880
O28	O	0.334670	-0.282816	0.508880
O29	O	-0.186365	-0.952228	-0.342215
O30	O	0.063635	-0.702228	-0.092215
O31	O	0.313635	-0.452228	0.157785
O32	O	0.563635	-0.202228	0.407785
O33	O	-0.415758	-1.142159	-0.359651
O34	O	-0.165758	-0.892159	-0.109651
O35	O	0.084242	-0.642159	0.140349
O36	O	0.334242	-0.392159	0.390349
O37	O	-0.186689	-1.035076	-0.432024
O38	O	0.063311	-0.785076	-0.182024
O39	O	0.313311	-0.535076	0.067976
O40	O	0.563311	-0.285076	0.317976
O41	O	-0.316446	-0.950942	-0.233603
O42	O	-0.066446	-0.700942	0.016397
O43	O	0.183554	-0.450942	0.266397
O44	O	0.433554	-0.200942	0.516397
O45	O	-0.327272	-0.831987	-0.343362
O46	O	-0.077272	-0.581987	-0.093362
O47	O	0.172728	-0.331987	0.156638
O48	O	0.422728	-0.081987	0.406638
O49	O	-0.434788	-0.933074	-0.552572
O50	O	-0.184788	-0.683074	-0.302572
O51	O	0.065212	-0.433074	-0.052572
O52	O	0.315212	-0.183074	0.197428
O53	O	-0.434360	-0.823730	-0.434041
O54	O	-0.184360	-0.573730	-0.184041
O55	O	0.065640	-0.323730	0.065959
O56	O	0.315640	-0.073730	0.315959
O57	O	-0.328024	-1.024178	-0.551703
O58	O	-0.078024	-0.774178	-0.301703
O59	O	0.171976	-0.524178	-0.051703
O60	O	0.421976	-0.274178	0.198297
O61	O	-0.556666	-1.021918	-0.360798
O62	O	-0.306666	-0.771918	-0.110798
O63	O	-0.056666	-0.521918	0.139202
O64	O	0.193334	-0.271918	0.389202
O65	O	-0.564869	-0.931788	-0.443961
O66	O	-0.314869	-0.681788	-0.193961
O67	O	-0.064869	-0.431788	0.056039
O68	O	0.185131	-0.181788	0.306039
C69	C	-0.381981	-0.802310	-0.387720
C70	C	-0.131981	-0.552310	-0.137720
C71	C	0.118019	-0.302310	0.112280
C72	C	0.368019	-0.052310	0.362280
C73	C	-0.385567	-0.724045	-0.384730
C74	C	-0.135567	-0.474045	-0.134730
C75	C	0.114433	-0.224045	0.115270
C76	C	0.364433	0.025955	0.365270
C77	C	-0.336025	-0.687777	-0.426243
C78	C	-0.086025	-0.437777	-0.176243
C79	C	0.163975	-0.187777	0.073757
C80	C	0.413975	0.062223	0.323757
C81	C	-0.339390	-0.614239	-0.423428
C82	C	-0.089390	-0.364239	-0.173428
C83	C	0.160610	-0.114239	0.076572
C84	C	0.410610	0.135761	0.326572
C85	C	-0.392302	-0.576970	-0.379102
C86	C	-0.142302	-0.326970	-0.129102
C87	C	0.107698	-0.076970	0.120898
C88	C	0.357698	0.173030	0.370898
C89	C	-0.441846	-0.613243	-0.337584
C90	C	-0.191846	-0.363243	-0.087584
C91	C	0.058154	-0.113243	0.162416
C92	C	0.308154	0.136757	0.412416
C93	C	-0.438476	-0.686780	-0.340397
C94	C	-0.188476	-0.436780	-0.090397
C95	C	0.061524	-0.186780	0.159603
C96	C	0.311524	0.063220	0.409603
C97	C	-0.407871	-0.356984	-0.366086
C98	C	-0.157871	-0.106984	-0.116086
C99	C	0.092129	0.143016	0.133914
C100	C	0.342129	0.393016	0.383914
C101	C	-0.411239	-0.283442	-0.363278
C102	C	-0.161239	-0.033442	-0.113278
C103	C	0.088761	0.216558	0.136722
C104	C	0.338761	0.466558	0.386722
C105	C	-0.308781	-0.284443	-0.449121
C106	C	-0.058781	-0.034443	-0.199121
C107	C	0.191219	0.215557	0.050879
C108	C	0.441219	0.465557	0.300879
C109	C	-0.305420	-0.357981	-0.451933
C110	C	-0.055420	-0.107981	-0.201933
C111	C	0.194580	0.142019	0.048067
C112	C	0.444580	0.392019	0.298067
C113	C	-0.354960	-0.394248	-0.410412
C114	C	-0.104960	-0.144248	-0.160412
C115	C	0.145040	0.105752	0.089588
C116	C	0.395040	0.355752	0.339588
N117	N	-0.395745	-0.501802	-0.376225
N118	N	-0.145745	-0.251802	-0.126225
N119	N	0.104255	-0.001802	0.123775
N120	N	0.354255	0.248198	0.373775
N121	N	-0.351512	-0.469415	-0.413286
N122	N	-0.101512	-0.219415	-0.163286
N123	N	0.148488	0.030585	0.086714
N124	N	0.398488	0.280585	0.336714
C125	C	-0.591141	-0.975508	-0.403634
C126	C	-0.341141	-0.725508	-0.153634
C127	C	-0.091141	-0.475508	0.096366
C128	C	0.158859	-0.225508	0.346366
C129	C	-0.684184	-0.971403	-0.407461
C130	C	-0.434184	-0.721403	-0.157461
C131	C	-0.184184	-0.471403	0.092539
C132	C	0.065816	-0.221403	0.342539
C133	C	-0.854535	-0.963911	-0.414462
C134	C	-0.604535	-0.713911	-0.164462
C135	C	-0.354535	-0.463911	0.085538
C136	C	-0.104535	-0.213911	0.335538
C137	C	-0.891913	-1.006719	-0.375053
C138	C	-0.641913	-0.756719	-0.125053
C139	C	-0.391913	-0.506719	0.124947
C140	C	-0.141913	-0.256719	0.374947
C141	C	-0.986702	-1.002551	-0.378949
C142	C	-0.736702	-0.752551	-0.128949
C143	C	-0.486702	-0.502551	0.121051
C144	C	-0.236702	-0.252551	0.371051
C145	C	-0.759737	-0.968079	-0.410568
C146	C	-0.509737	-0.718079	-0.160568
C147	C	-0.259737	-0.468079	0.089432
C148	C	-0.009737	-0.218079	0.339432
C149	C	-0.155304	-0.995053	-0.385846
C150	C	0.094696	-0.745053	-0.135846
C151	C	0.344696	-0.495053	0.114154
C152	C	0.594696	-0.245053	0.364154
C153	C	-0.062259	-0.999230	-0.382052
C154	C	0.187741	-0.749230	-0.132052
C155	C	0.437741	-0.499230	0.117948
C156	C	0.687741	-0.249230	0.367948
C157	C	-0.382701	-0.977520	-0.578400
C158	C	-0.132701	-0.727520	-0.328400
C159	C	0.117299	-0.477520	-0.078400
C160	C	0.367299	-0.227520	0.171600
C161	C	-0.386559	-0.974225	-0.656660
C162	C	-0.136559	-0.724225	-0.406660
C163	C	0.113441	-0.474225	-0.156660
C164	C	0.363441	-0.224225	0.093340
C165	C	-0.365276	-0.168909	-0.401801
C166	C	-0.115276	0.081091	-0.151801
C167	C	0.134724	0.331091	0.098199
C168	C	0.384724	0.581091	0.348199
C169	C	-0.361697	-0.247174	-0.404792
C170	C	-0.111697	0.002826	-0.154792
C171	C	0.138303	0.252826	0.095208
C172	C	0.388303	0.502826	0.345208
C173	C	-0.332788	-1.020108	-0.692976
C174	C	-0.082788	-0.770108	-0.442976
C175	C	0.167212	-0.520108	-0.192976
C176	C	0.417212	-0.270108	0.057024
C177	C	-0.336410	-1.017004	-0.766510
C178	C	-0.086410	-0.767004	-0.516510
C179	C	0.163590	-0.517004	-0.266510
C180	C	0.413590	-0.267004	-0.016510
C181	C	-0.393808	-0.968019	-0.803727
C182	C	-0.143808	-0.718019	-0.553727
C183	C	0.106192	-0.468019	-0.303727
C184	C	0.356192	-0.218019	-0.053727
C185	C	-0.447581	-0.922131	-0.767406
C186	C	-0.197581	-0.672131	-0.517406
C187	C	0.052419	-0.422131	-0.267406
C188	C	0.302419	-0.172131	-0.017406
C189	C	-0.443954	-0.925233	-0.693873
C190	C	-0.193954	-0.675233	-0.443873
C191	C	0.056046	-0.425233	-0.193873
C192	C	0.306046	-0.175233	0.056127
C193	C	-0.410612	-0.953654	-1.023695
C194	C	-0.160612	-0.703654	-0.773695
C195	C	0.089388	-0.453654	-0.523695
C196	C	0.339388	-0.203654	-0.273695
C197	C	-0.414237	-0.950557	-1.097233
C198	C	-0.164237	-0.700557	-0.847233
C199	C	0.085763	-0.450557	-0.597233
C200	C	0.335763	-0.200557	-0.347233
C201	C	-0.303064	-1.045428	-1.096331
C202	C	-0.053064	-0.795428	-0.846331
C203	C	0.196936	-0.545428	-0.596331
C204	C	0.446936	-0.295428	-0.346331
C205	C	-0.299446	-1.048529	-1.022797
C206	C	-0.049446	-0.798529	-0.772797
C207	C	0.200554	-0.548529	-0.522797
C208	C	0.450554	-0.298529	-0.272797
C209	C	-0.353216	-1.002638	-0.986483
C210	C	-0.103216	-0.752638	-0.736483
C211	C	0.146784	-0.502638	-0.486483
C212	C	0.396784	-0.252638	-0.236483
N213	N	-0.397514	-0.964846	-0.878890
N214	N	-0.147514	-0.714846	-0.628890
N215	N	0.102486	-0.464846	-0.378890
N216	N	0.352486	-0.214846	-0.128890
N217	N	-0.349505	-1.005808	-0.911320
N218	N	-0.099505	-0.755808	-0.661320
N219	N	0.150495	-0.505808	-0.411320
N220	N	0.400495	-0.255808	-0.161320
C221	C	-0.364566	-0.992998	-0.211813
C222	C	-0.114566	-0.742998	0.038187
C223	C	0.135434	-0.492998	0.288187
C224	C	0.385434	-0.242998	0.538187
C225	C	-0.360466	-0.996440	-0.133548
C226	C	-0.110466	-0.746440	0.116452
C227	C	0.139534	-0.496440	0.366452
C228	C	0.389534	-0.246440	0.616452
H229	H	-0.292940	-0.718116	-0.462340
H230	H	-0.042940	-0.468116	-0.212340
H231	H	0.207060	-0.218116	0.037660
H232	H	0.457060	0.031884	0.287660
Br233	Br	-0.233616	-0.408555	-0.512098
Br234	Br	0.016384	-0.158555	-0.262098
Br235	Br	0.266384	0.091445	-0.012098
Br236	Br	0.516384	0.341445	0.237902
H237	H	-0.852725	-1.046498	-0.338387
H238	H	-0.602725	-0.796498	-0.088387
H239	H	-0.352725	-0.546498	0.161613
H240	H	-0.102725	-0.296498	0.411613
Br241	Br	-0.492137	-0.884071	-1.147741
Br242	Br	-0.242137	-0.634071	-0.897741
Br243	Br	0.007863	-0.384071	-0.647741
Br244	Br	0.257863	-0.134071	-0.397741
Br245	Br	-0.272152	-0.565021	-0.479771
Br246	Br	-0.022152	-0.315021	-0.229771
Br247	Br	0.227848	-0.065021	0.020229
Br248	Br	0.477848	0.184979	0.270229
H249	H	-0.893720	-0.924135	-0.451124
H250	H	-0.643720	-0.674135	-0.201124
H251	H	-0.393720	-0.424135	0.048876
H252	H	-0.143720	-0.174135	0.298876
Br253	Br	-0.263469	-1.079307	-0.815796
Br254	Br	-0.013469	-0.829307	-0.565796
Br255	Br	0.236531	-0.579307	-0.315796
Br256	Br	0.486531	-0.329307	-0.065796
Br257	Br	-0.254893	-1.086595	-0.642475
Br258	Br	-0.004893	-0.836595	-0.392475
Br259	Br	0.245107	-0.586595	-0.142475
Br260	Br	0.495107	-0.336595	0.107525
Br261	Br	-0.241551	-0.235220	-0.505467
Br262	Br	0.008449	0.014780	-0.255467
Br263	Br	0.258449	0.264780	-0.005467
Br264	Br	0.508449	0.514780	0.244533
H265	H	-0.454408	-0.916296	-0.994137
H266	H	-0.204408	-0.666296	-0.744137
H267	H	0.045592	-0.416296	-0.494137
H268	H	0.295592	-0.166296	-0.244137
Br269	Br	-0.221548	-1.115012	-0.972293
Br270	Br	0.028452	-0.865012	-0.722293
Br271	Br	0.278452	-0.615012	-0.472293
Br272	Br	0.528452	-0.365012	-0.222293
H273	H	-0.494313	-0.882245	-0.797714
H274	H	-0.244313	-0.632245	-0.547714
H275	H	0.005687	-0.382245	-0.297714
H276	H	0.255687	-0.132245	-0.047714
H277	H	-0.259286	-1.082789	-1.125907
H278	H	-0.009286	-0.832789	-0.875907
H279	H	0.240714	-0.582789	-0.625907
H280	H	0.490714	-0.332789	-0.375907
H281	H	-0.454331	-0.253100	-0.327183
H282	H	-0.204331	-0.003100	-0.077183
H283	H	0.045669	0.246900	0.172817
H284	H	0.295669	0.496900	0.422817
H285	H	-0.487732	-0.887863	-0.664305
H286	H	-0.237732	-0.637863	-0.414305
H287	H	0.012268	-0.387863	-0.164305
H288	H	0.262268	-0.137863	0.085695
H289	H	-0.448211	-0.386504	-0.332278
H290	H	-0.198211	-0.136504	-0.082278
H291	H	0.051789	0.113496	0.167722
H292	H	0.301789	0.363496	0.417722
H293	H	-0.484924	-0.582893	-0.301490
H294	H	-0.234924	-0.332893	-0.051490
H295	H	0.015076	-0.082893	0.198510
H296	H	0.265076	0.167107	0.448510
H297	H	-0.478818	-0.716309	-0.306592
H298	H	-0.228818	-0.466309	-0.056592
H299	H	0.021182	-0.216309	0.193408
H300	H	0.271182	0.033691	0.443408
