data_functionalizedCrystal
_audit_creation_method	'MofGen! by Chris Wilmer'
_symmetry_space_group_name_H-M	'P1'
_symmetry_Int_Tables_number	1
_symmetry_cell_setting	triclinic
loop_
_symmetry_equiv_pos_as_xyz
  x,y,z
_cell_length_a	12.645331
_cell_length_b	12.645330
_cell_length_c	16.625539
_cell_angle_alpha	90.026386
_cell_angle_beta	90.013841
_cell_angle_gamma	90.011881
loop_
_atom_site_label
_atom_site_type_symbol
_atom_site_fract_x
_atom_site_fract_y
_atom_site_fract_z
Zn1	Zn	1.620748	-0.422059	0.455775
Zn2	Zn	2.120748	0.077941	0.955775
Zn3	Zn	1.620652	-0.599345	0.320947
Zn4	Zn	2.120652	-0.099345	0.820947
Zn5	Zn	1.443469	-0.422094	0.320972
Zn6	Zn	1.943469	0.077906	0.820972
Zn7	Zn	1.443460	-0.599279	0.455753
Zn8	Zn	1.943460	-0.099279	0.955753
O9	O	1.532082	-0.510694	0.388362
O10	O	2.032082	-0.010694	0.888362
O11	O	1.769083	-0.445590	0.437889
O12	O	2.269083	0.054410	0.937889
O13	O	1.597111	-0.575875	0.208118
O14	O	2.097111	-0.075875	0.708118
O15	O	1.467030	-0.273742	0.338873
O16	O	1.967030	0.226258	0.838873
O17	O	1.769012	-0.575841	0.338832
O18	O	2.269012	-0.075841	0.838832
O19	O	1.597276	-0.273716	0.437913
O20	O	2.097276	0.226284	0.937913
O21	O	1.466936	-0.445649	0.208136
O22	O	1.966936	0.054351	0.708136
O23	O	1.295121	-0.445584	0.338852
O24	O	1.795121	0.054416	0.838852
O25	O	1.467015	-0.575728	0.568588
O26	O	1.967015	-0.075728	1.068588
O27	O	1.295114	-0.575761	0.437875
O28	O	1.795114	-0.075761	0.937875
O29	O	1.597268	-0.445525	0.568605
O30	O	2.097268	0.054475	1.068605
O31	O	1.597103	-0.747684	0.338810
O32	O	2.097103	-0.247684	0.838810
O33	O	1.466921	-0.747635	0.437851
O34	O	1.966921	-0.247635	0.937851
C35	C	1.256653	-0.510670	0.388364
C36	C	1.756653	-0.010670	0.888364
C37	C	1.138823	-0.510685	0.388384
C38	C	1.638823	-0.010685	0.888384
C39	C	0.971290	-0.593029	0.450354
C40	C	1.471290	-0.093029	0.950354
C41	C	1.093850	-0.592763	0.450614
C42	C	1.593850	-0.092763	0.950614
C43	C	1.094334	-0.399031	0.411601
C44	C	1.594334	0.100969	0.911601
C45	C	0.971736	-0.399533	0.412038
C46	C	1.471736	0.100467	0.912038
C47	C	0.971583	-0.539098	0.302999
C48	C	1.471583	-0.039098	0.802999
C49	C	1.094189	-0.541539	0.303460
C50	C	1.594189	-0.041539	0.803460
C51	C	1.532029	-0.786124	0.388343
C52	C	2.032029	-0.286124	0.888343
C53	C	1.532104	-0.903954	0.388361
C54	C	2.032104	-0.403954	0.888361
C55	C	1.613869	-1.071505	0.325928
C56	C	2.113869	-0.571505	0.825928
C57	C	1.614136	-0.948944	0.326081
C58	C	2.114136	-0.448944	0.826081
C59	C	1.562400	-0.948338	0.473351
C60	C	2.062400	-0.448338	0.973351
C61	C	1.563049	-1.070936	0.473020
C62	C	2.063049	-0.570936	0.973020
C63	C	1.420009	-1.071280	0.366642
C64	C	1.920009	-0.571280	0.866642
C65	C	1.420547	-0.948675	0.364736
C66	C	1.920547	-0.448675	0.864736
C67	C	1.808588	-0.510719	0.388360
C68	C	2.308588	-0.010719	0.888360
C69	C	1.926418	-0.510730	0.388359
C70	C	2.426418	-0.010730	0.888359
C71	C	1.532151	-0.510615	0.598671
C72	C	2.032151	-0.010615	1.098671
C73	C	1.532181	-0.510582	0.688292
C74	C	2.032181	-0.010582	1.188292
C75	C	1.532165	-0.234189	0.388399
C76	C	2.032165	0.265811	0.888399
C77	C	1.532200	-0.116359	0.388414
C78	C	2.032200	0.383641	0.888414
C79	C	1.532075	-0.510696	0.178871
C80	C	2.032075	-0.010696	0.678871
C81	C	1.532251	-0.510431	0.089250
C82	C	2.032251	-0.010431	0.589250
C83	C	1.532230	-0.510463	1.016468
C84	C	2.032230	-0.010463	1.516468
C85	C	1.532213	-0.510499	0.925159
C86	C	2.032213	-0.010499	1.425159
C87	C	1.532206	-0.510523	0.852383
C88	C	2.032206	-0.010523	1.352383
C89	C	1.532188	-0.510558	0.761068
C90	C	2.032188	-0.010558	1.261068
H91	H	0.943156	-0.375472	0.474440
H92	H	1.443156	0.124528	0.974440
C93	C	1.133645	-0.313945	0.352486
C94	C	1.633645	0.186055	0.852486
N95	N	1.163241	-0.249863	0.307950
N96	N	1.663241	0.250137	0.807950
C97	C	0.931451	-0.705258	0.430920
C98	C	1.431451	-0.205258	0.930920
N99	N	0.901435	-0.789792	0.416281
N100	N	1.401435	-0.289792	0.916281
H101	H	0.942051	-0.336017	0.368954
H102	H	1.442051	0.163983	0.868954
C103	C	1.133498	-0.567437	0.536067
C104	C	1.633498	-0.067437	1.036067
N105	N	1.163360	-0.548373	0.600436
N106	N	1.663360	-0.048373	1.100436
C107	C	1.382794	-1.113160	0.284372
C108	C	1.882794	-0.613160	0.784372
N109	N	1.354775	-1.144704	0.222402
N110	N	1.854775	-0.644704	0.722402
C111	C	1.389675	-0.909487	0.280245
C112	C	1.889675	-0.409487	0.780245
N113	N	1.366424	-0.879960	0.216607
N114	N	1.866424	-0.379960	0.716607
H115	H	1.125054	-0.374531	0.473328
H116	H	1.625054	0.125469	0.973328
H117	H	0.940495	-0.574498	0.513235
H118	H	1.440495	-0.074498	1.013235
H119	H	0.940669	-0.619127	0.281897
H120	H	1.440669	-0.119127	0.781897
H121	H	1.124803	-0.485945	0.254790
H122	H	1.624803	0.014055	0.754790
H123	H	1.356414	-0.918061	0.406912
H124	H	1.856414	-0.418061	0.906912
C125	C	1.133513	-0.652525	0.279791
C126	C	1.633513	-0.152525	0.779791
N127	N	1.163152	-0.736112	0.261960
N128	N	1.663152	-0.236112	0.761960
C129	C	0.932369	-0.458120	0.240594
C130	C	1.432369	0.041880	0.740594
N131	N	0.902826	-0.397125	0.193597
N132	N	1.402826	0.102875	0.693597
C133	C	1.486189	-1.111018	0.538068
C134	C	1.986189	-0.611018	1.038068
N135	N	1.428308	-1.141203	0.587067
N136	N	1.928308	-0.641203	1.087067
C137	C	1.588489	-0.908407	0.240952
C138	C	2.088489	-0.408407	0.740952
N139	N	1.569162	-0.877880	0.176830
N140	N	2.069162	-0.377880	0.676830
H141	H	1.643479	-0.917551	0.492102
H142	H	2.143479	-0.417551	0.992102
H143	H	1.645054	-1.099450	0.491463
H144	H	2.145054	-0.599450	0.991463
H145	H	1.595151	-1.101056	0.262725
H146	H	2.095151	-0.601056	0.762725
C147	C	1.725523	-1.113040	0.345150
C148	C	2.225523	-0.613040	0.845150
N149	N	1.809618	-1.144335	0.359626
N150	N	2.309618	-0.644335	0.859626
H151	H	1.697231	-0.919538	0.340481
H152	H	2.197231	-0.419538	0.840481
H153	H	1.359159	-1.100287	0.412154
H154	H	1.859159	-0.600287	0.912154
C155	C	1.134490	-0.704622	0.430960
C156	C	1.634490	-0.204622	0.930960
N157	N	1.165094	-0.788879	0.416160
N158	N	1.665094	-0.288879	0.916160
C159	C	1.484492	-0.908957	0.537936
C160	C	1.984492	-0.408957	1.037936
N161	N	1.425812	-0.879292	0.586580
N162	N	1.925812	-0.379292	1.086580
