data_functionalizedCrystal
_audit_creation_method	'MofGen! by Chris Wilmer'
_symmetry_space_group_name_H-M	'P1'
_symmetry_Int_Tables_number	1
_symmetry_cell_setting	triclinic
loop_
_symmetry_equiv_pos_as_xyz
  x,y,z
_cell_length_a	10.723024
_cell_length_b	10.723024
_cell_length_c	9.798715
_cell_angle_alpha	89.998022
_cell_angle_beta	89.996609
_cell_angle_gamma	84.467869
loop_
_atom_site_label
_atom_site_type_symbol
_atom_site_fract_x
_atom_site_fract_y
_atom_site_fract_z
O1	O	1.657187	0.175024	-0.113478
O2	O	1.294035	0.191778	-0.113483
O3	O	1.483988	0.001825	-0.113475
O4	O	1.467234	0.364977	-0.113486
O5	O	1.483974	0.001824	0.113507
O6	O	1.294021	0.191777	0.113499
O7	O	1.657173	0.175024	0.113504
Zn8	Zn	1.475595	0.183401	0.149540
Zn9	Zn	1.475613	0.183401	-0.149519
O10	O	1.467220	0.364977	0.113496
C11	C	1.247528	0.190558	0.000008
C12	C	1.108974	0.186911	0.000006
C13	C	1.033991	0.293198	0.000002
C14	C	0.890788	0.289431	0.000001
C15	C	1.482762	-0.044675	0.000014
C16	C	1.479114	-0.183229	0.000009
C17	C	1.585401	-0.258212	0.000009
C18	C	1.581634	-0.401415	0.000004
C19	C	1.703680	0.176243	0.000010
C20	C	1.842234	0.179891	0.000003
C21	C	1.468447	0.411477	0.000004
C22	C	1.472094	0.550031	-0.000000
N23	N	1.475591	0.183399	0.353640
N24	N	1.475627	0.183393	-0.353619
C25	C	1.555347	0.103292	0.421420
C26	C	1.555367	0.103288	0.578582
H27	H	0.826355	0.380421	-0.000008
O28	O	1.394022	0.265264	0.422994
C29	C	1.227582	0.432547	0.408261
C30	C	1.319876	0.339882	0.329553
H31	H	1.167629	0.492918	0.332749
H32	H	1.164597	0.378290	0.475133
H33	H	1.282266	0.495095	0.475187
H34	H	1.265294	0.277311	0.262553
H35	H	1.382861	0.394217	0.262768
H36	H	1.672624	-0.465848	0.000009
H37	H	1.381099	-0.385544	0.000010
H38	H	1.407345	0.251984	0.588102
H39	H	1.075814	0.386984	0.000007
H40	H	0.906659	0.088896	-0.000002
O41	O	1.059034	0.075049	-0.000235
C42	C	0.927941	-0.060407	-0.117786
C43	C	0.984432	0.066310	-0.117698
H44	H	0.867592	-0.067503	-0.212730
H45	H	1.006619	-0.139899	-0.117872
H46	H	0.867718	-0.067594	-0.022751
H47	H	1.044642	0.073619	-0.212716
H48	H	0.905694	0.145740	-0.117540
H49	H	1.385328	-0.225051	-0.000001
O50	O	1.697401	-0.208538	-0.000055
C51	C	1.922334	-0.249567	0.000016
C52	C	1.795578	-0.305984	0.000061
H53	H	2.001744	-0.328325	0.000139
H54	H	1.929623	-0.189341	-0.095001
H55	H	1.929468	-0.189254	0.094983
H56	H	1.788358	-0.366354	-0.094842
H57	H	1.788344	-0.366138	0.095140
H58	H	1.623611	0.034707	0.363100
O59	O	1.636774	0.021291	0.647961
C60	C	1.707367	-0.195139	0.692005
C61	C	1.615121	-0.102412	0.613321
H62	H	1.689875	-0.295173	0.664049
H63	H	1.807575	-0.178383	0.663945
H64	H	1.692884	-0.180499	0.806360
H65	H	1.629489	-0.116997	0.498948
H66	H	1.514946	-0.119191	0.641494
