data_functionalizedCrystal
_audit_creation_method	'MofGen! by Chris Wilmer'
_symmetry_space_group_name_H-M	'P1'
_symmetry_Int_Tables_number	1
_symmetry_cell_setting	triclinic
loop_
_symmetry_equiv_pos_as_xyz
  x,y,z
_cell_length_a	8.497374
_cell_length_b	18.215407
_cell_length_c	18.215405
_cell_angle_alpha	89.974667
_cell_angle_beta	89.985971
_cell_angle_gamma	90.003703
loop_
_atom_site_label
_atom_site_type_symbol
_atom_site_fract_x
_atom_site_fract_y
_atom_site_fract_z
Zn1	Zn	0.891978	1.124955	0.293103
Zn2	Zn	0.628155	1.124898	0.416139
Zn3	Zn	0.628196	1.001922	0.293092
Zn4	Zn	0.891878	1.001853	0.416133
O5	O	0.760052	1.063407	0.354617
O6	O	0.857006	1.227931	0.309431
O7	O	0.407398	1.108590	0.399814
O8	O	0.663247	1.018295	0.190109
O9	O	0.663177	1.227890	0.399825
O10	O	0.857046	1.108687	0.190117
O11	O	0.407429	1.018240	0.309412
O12	O	0.663149	0.898929	0.309406
O13	O	1.112653	1.018178	0.399816
O14	O	0.856875	0.898878	0.399805
O15	O	1.112727	1.108620	0.309426
O16	O	0.663079	1.108523	0.519122
O17	O	0.856835	1.018123	0.519118
C18	C	0.760007	0.872201	0.354604
C19	C	0.760025	0.790402	0.354616
C20	C	0.860771	0.602201	0.401761
C21	C	0.860791	0.525342	0.401763
C22	C	0.659367	0.525365	0.307486
C23	C	0.659357	0.602222	0.307481
C24	C	0.760056	0.640638	0.354622
C25	C	0.760086	0.486922	0.354630
C26	C	0.760107	0.403589	0.354632
C27	C	0.760038	0.723977	0.354619
C28	C	0.759976	1.063329	0.545823
C29	C	0.759996	1.063363	0.627622
C30	C	1.171532	1.063401	0.354618
C31	C	1.350176	1.063403	0.354626
C32	C	0.760098	1.255360	0.354630
C33	C	0.760118	1.337159	0.354636
C34	C	0.760163	1.063505	0.162664
C35	C	0.760210	1.063547	0.080865
C36	C	0.659293	1.110545	0.815793
C37	C	0.659332	1.110578	0.892652
C38	C	0.860924	1.016363	0.892688
C39	C	0.860892	1.016334	0.815831
C40	C	0.760068	1.063424	0.777385
C41	C	0.760138	1.063486	0.931101
C42	C	0.760180	1.063521	1.014435
C43	C	0.760028	1.063390	0.694046
H44	H	0.577379	0.494077	0.269106
O45	O	0.561288	0.639532	0.261766
C46	C	0.293081	0.663020	0.225818
C47	C	0.403949	0.620734	0.277645
H48	H	0.165851	0.647826	0.238627
H49	H	0.310241	0.724559	0.233914
H50	H	0.321094	0.647942	0.166502
H51	H	0.376004	0.635751	0.336981
H52	H	0.386769	0.559205	0.269486
O53	O	0.958840	0.488085	0.447520
C54	C	1.227060	0.464544	0.483413
C55	C	1.116189	0.506795	0.431558
H56	H	1.354301	0.479644	0.470516
H57	H	1.199251	0.479645	0.542745
H58	H	1.209698	0.403016	0.475332
H59	H	1.133489	0.568332	0.439573
H60	H	1.144025	0.491633	0.372245
H61	H	0.943009	0.978023	0.923999
O62	O	0.561314	1.156359	0.778561
C63	C	0.361301	1.249780	0.786641
C64	C	0.472209	1.197944	0.828895
H65	H	0.289207	1.283404	0.827318
H66	H	0.433716	1.288267	0.750631
H67	H	0.278792	1.216002	0.750684
H68	H	0.554740	1.231663	0.864892
H69	H	0.399696	1.159455	0.864859
H70	H	0.577273	1.148950	0.923921
O71	O	0.958841	0.970488	0.778630
C72	C	1.158868	0.877076	0.786769
C73	C	1.047997	0.928939	0.828990
H74	H	1.231003	0.843481	0.827467
H75	H	1.086422	0.838564	0.750851
H76	H	1.241341	0.910831	0.750724
H77	H	0.965503	0.895243	0.865076
H78	H	1.120542	0.967453	0.864862
H79	H	0.942771	0.633477	0.440145
