data_functionalizedCrystal
_audit_creation_method	'MofGen! by Chris Wilmer'
_symmetry_space_group_name_H-M	'P1'
_symmetry_Int_Tables_number	1
_symmetry_cell_setting	triclinic
loop_
_symmetry_equiv_pos_as_xyz
  x,y,z
_cell_length_a	16.992694
_cell_length_b	16.992695
_cell_length_c	16.053802
_cell_angle_alpha	92.741074
_cell_angle_beta	87.249047
_cell_angle_gamma	90.668223
loop_
_atom_site_label
_atom_site_type_symbol
_atom_site_fract_x
_atom_site_fract_y
_atom_site_fract_z
O1	O	1.053959	0.163815	-0.069325
O2	O	0.825560	0.161983	-0.069350
O3	O	0.938844	0.048699	-0.069331
O4	O	0.940676	0.277099	-0.069344
O5	O	0.932607	0.054907	0.069527
O6	O	0.819323	0.168191	0.069508
O7	O	1.047722	0.170023	0.069533
Zn8	Zn	0.932532	0.170093	0.091567
Zn9	Zn	0.940750	0.161913	-0.091384
O10	O	0.934438	0.283307	0.069514
C11	C	0.793082	0.162731	0.000076
C12	C	0.705597	0.155702	0.000067
C13	C	0.659607	0.223520	0.000064
C14	C	0.577405	0.216911	0.000076
C15	C	0.541197	0.142484	0.000085
C16	C	0.587193	0.074661	0.000091
C17	C	0.669393	0.081270	0.000085
C18	C	0.295881	0.115090	0.000109
C19	C	0.213676	0.108486	0.000112
C20	C	0.203893	0.250737	0.000099
C21	C	0.286095	0.257339	0.000088
C22	C	0.332084	0.189517	0.000098
N23	N	0.457174	0.135727	0.000094
N24	N	0.416105	0.196275	0.000094
C25	C	0.933370	0.022443	0.000098
C26	C	0.926341	-0.065042	0.000097
C27	C	0.994158	-0.111032	0.000105
C28	C	0.987550	-0.193233	0.000096
C29	C	0.913123	-0.229442	0.000086
C30	C	0.845300	-0.183446	0.000075
C31	C	0.851910	-0.101246	0.000078
C32	C	0.885729	-0.474757	0.000071
C33	C	0.879124	-0.556962	0.000071
C34	C	1.021375	-0.566745	0.000091
C35	C	1.027978	-0.484543	0.000099
C36	C	0.960155	-0.438554	0.000083
N37	N	0.906366	-0.313465	0.000079
N38	N	0.966913	-0.354533	0.000084
C39	C	1.080201	0.169275	0.000105
C40	C	1.167685	0.176304	0.000109
C41	C	0.939913	0.309563	0.000084
C42	C	0.946942	0.397047	0.000079
N43	N	0.926930	0.175675	0.216427
N44	N	0.946358	0.156325	-0.216243
C45	C	0.975152	0.127492	0.260129
C46	C	0.971241	0.131404	0.347535
C47	C	0.919110	0.183504	0.391237
C48	C	0.870883	0.231689	0.347529
C49	C	0.874791	0.227772	0.260125
C50	C	0.902039	0.200593	0.652644
C51	C	0.898136	0.204508	0.740055
C52	C	0.998493	0.104222	0.740054
C53	C	1.002400	0.100313	0.652648
C54	C	0.954169	0.148494	0.608948
N55	N	0.915113	0.187507	0.480580
N56	N	0.958163	0.144487	0.519606
H57	H	0.184198	0.047875	0.000119
H58	H	0.689081	0.284126	0.000056
C59	C	1.032499	0.070177	0.212064
N60	N	1.075692	0.027003	0.175864
H61	H	0.333316	0.059864	0.000118
C62	C	1.109853	-0.444720	0.000111
N63	N	1.171523	-0.414725	0.000124
C64	C	0.763429	-0.223278	0.000070
N65	N	0.701761	-0.253278	0.000072
H66	H	0.539963	0.272136	0.000072
H67	H	0.315571	0.317945	0.000071
H68	H	0.166440	0.305954	0.000092
C69	C	0.547361	-0.007210	0.000102
N70	N	0.517360	-0.068877	0.000108
C71	C	1.076035	-0.071211	0.000117
N72	N	1.137706	-0.041219	0.000122
H73	H	1.037759	0.064994	0.775643
H74	H	0.828433	0.274107	0.383117
C75	C	0.849092	0.253703	0.604585
N76	N	0.809248	0.293748	0.568384
H77	H	0.706838	0.026046	0.000087
C78	C	1.062155	-0.243819	0.000119
N79	N	1.118350	-0.281920	0.000140
H80	H	1.044848	0.057889	0.617067
C81	C	0.797245	-0.596790	0.000053
N82	N	0.735577	-0.626789	0.000039
C83	C	0.811121	-0.424180	0.000050
N84	N	0.754923	-0.386082	0.000032
H85	H	0.796685	-0.063801	0.000071
H86	H	0.855683	0.246937	0.775633
H87	H	1.010506	0.092170	0.383116
C88	C	0.821749	0.280784	0.212053
N89	N	0.781797	0.320715	0.175847
H90	H	1.076592	-0.604198	0.000102
