data_functionalizedCrystal
_audit_creation_method	'MofGen! by Chris Wilmer'
_symmetry_space_group_name_H-M	'P1'
_symmetry_Int_Tables_number	1
_symmetry_cell_setting	triclinic
loop_
_symmetry_equiv_pos_as_xyz
  x,y,z
_cell_length_a	14.908783
_cell_length_b	14.908520
_cell_length_c	17.077396
_cell_angle_alpha	93.268321
_cell_angle_beta	86.680280
_cell_angle_gamma	96.791586
loop_
_atom_site_label
_atom_site_type_symbol
_atom_site_fract_x
_atom_site_fract_y
_atom_site_fract_z
Zn1	Zn	1.363049	-0.280613	-0.526464
Zn2	Zn	1.354208	-0.431994	-0.402351
Zn3	Zn	1.211675	-0.289367	-0.388040
Zn4	Zn	1.202909	-0.440658	-0.526401
O5	O	1.282960	-0.360658	-0.460814
O6	O	1.488545	-0.293404	-0.516015
O7	O	1.335269	-0.413112	-0.290605
O8	O	1.239124	-0.161536	-0.400439
O9	O	1.482050	-0.404623	-0.424830
O10	O	1.350338	-0.155105	-0.502139
O11	O	1.230551	-0.308324	-0.280091
O12	O	1.083843	-0.316726	-0.400378
O13	O	1.224183	-0.419391	-0.636256
O14	O	1.077403	-0.427879	-0.502032
O15	O	1.341838	-0.301806	-0.636302
O16	O	1.326769	-0.559813	-0.424769
O17	O	1.215610	-0.566179	-0.515909
C18	C	1.047779	-0.374193	-0.449646
C19	C	0.947166	-0.380005	-0.444888
C20	C	0.764857	-0.275273	-0.531059
C21	C	0.670322	-0.280731	-0.526591
C22	C	0.663561	-0.396374	-0.431480
C23	C	0.758096	-0.390916	-0.435948
C24	C	0.808740	-0.330365	-0.485740
C25	C	0.903276	-0.324912	-0.490212
C26	C	0.896514	-0.440550	-0.395097
C27	C	0.801979	-0.446007	-0.390629
C28	C	1.269303	-0.595838	-0.471903
C29	C	1.263544	-0.696445	-0.476678
C30	C	1.368589	-0.878798	-0.390832
C31	C	1.363180	-0.973326	-0.395316
C32	C	1.247323	-0.980031	-0.490132
C33	C	1.252731	-0.885503	-0.485648
C34	C	1.313366	-0.834889	-0.435996
C35	C	1.318769	-0.740360	-0.431509
C36	C	1.202917	-0.747066	-0.526329
C37	C	1.197508	-0.841594	-0.530812
C38	C	1.519060	-0.347071	-0.472026
C39	C	1.619671	-0.341280	-0.476804
C40	C	1.283019	-0.360588	-0.665558
C41	C	1.283044	-0.360558	-0.752807
C42	C	1.296695	-0.124558	-0.449699
C43	C	1.302548	-0.023946	-0.444963
C44	C	1.344309	-0.299327	-0.793822
C45	C	1.344321	-0.299296	-0.875802
C46	C	1.283073	-0.360502	-0.916765
C47	C	1.221801	-0.421736	-0.875744
C48	C	1.221785	-0.421762	-0.793766
C49	C	1.221841	-0.421680	-1.046613
C50	C	1.221858	-0.421655	-1.128598
C51	C	1.344377	-0.299214	-1.128650
C52	C	1.344361	-0.299240	-1.046671
C53	C	1.283090	-0.360475	-1.005656
C54	C	1.282958	-0.360659	-0.256866
C55	C	1.283123	-0.360424	-0.169613
H56	H	0.932253	-0.485416	-0.358201
C57	C	1.435278	-0.823121	-0.336216
H58	H	1.467395	-0.862811	-0.309961
H59	H	1.402782	-0.788293	-0.298601
H60	H	1.476815	-0.783919	-0.366398
H61	H	1.171935	-0.471531	-1.013220
H62	H	1.394264	-0.249352	-1.162048
H63	H	0.760732	-0.495304	-0.350087
C64	C	1.423921	-1.021623	-0.345632
H65	H	1.460800	-0.977938	-0.315416
H66	H	1.461232	-1.056173	-0.379304
H67	H	1.387199	-1.060545	-0.311508
C68	C	1.154482	-0.488975	-1.173656
H69	H	1.117980	-0.525440	-1.137488
H70	H	1.186817	-0.526414	-1.209138
H71	H	1.117066	-0.456596	-1.202130
C72	C	1.180631	-1.035716	-0.544741
H73	H	1.185319	-1.098302	-0.540937
H74	H	1.194722	-1.019415	-0.597384
H75	H	1.120700	-1.023795	-0.529579
H76	H	1.368138	-0.699151	-0.391077
C77	C	0.607847	-0.462972	-0.376711
H78	H	0.647520	-0.495000	-0.350355
H79	H	0.568691	-0.504578	-0.406804
H80	H	0.572966	-0.430419	-0.339174
H81	H	1.171888	-0.471614	-0.760371
C82	C	1.411733	-0.231916	-1.001613
H83	H	1.448220	-0.195437	-1.037779
H84	H	1.449149	-0.264284	-0.973136
H85	H	1.379386	-0.194477	-0.966132
H86	H	1.148144	-0.882816	-0.571240
C87	C	1.142172	-0.698765	-0.576013
H88	H	1.154078	-0.635218	-0.566237
H89	H	1.080471	-0.717825	-0.562332
H90	H	1.154504	-0.713443	-0.630128
H91	H	1.394211	-0.249438	-0.909193
C92	C	1.411679	-0.231996	-0.748769
H93	H	1.448161	-0.195518	-0.784940
H94	H	1.449101	-0.264356	-0.720292
H95	H	1.379331	-0.194557	-0.713290
H96	H	0.806093	-0.225974	-0.571606
C97	C	1.154427	-0.489063	-0.920798
H98	H	1.117932	-0.525529	-0.884627
H99	H	1.186765	-0.526501	-0.956280
H100	H	1.117005	-0.456691	-0.949272
H101	H	0.634597	-0.235868	-0.563493
C102	C	0.958985	-0.258307	-0.544978
H103	H	0.919306	-0.226272	-0.571322
H104	H	0.993872	-0.290846	-0.582514
H105	H	0.998134	-0.216695	-0.514878
