data_functionalizedCrystal
_audit_creation_method	'MofGen! by Chris Wilmer'
_symmetry_space_group_name_H-M	'P1'
_symmetry_Int_Tables_number	1
_symmetry_cell_setting	triclinic
loop_
_symmetry_equiv_pos_as_xyz
  x,y,z
_cell_length_a	16.120490
_cell_length_b	21.295417
_cell_length_c	16.120297
_cell_angle_alpha	87.131911
_cell_angle_beta	89.870317
_cell_angle_gamma	87.121864
loop_
_atom_site_label
_atom_site_type_symbol
_atom_site_fract_x
_atom_site_fract_y
_atom_site_fract_z
Zn1	Zn	1.247403	-0.318967	0.534501
Zn2	Zn	1.580736	0.014366	0.867835
Zn3	Zn	1.914070	0.347700	1.201168
Zn4	Zn	1.254340	-0.419177	0.395433
Zn5	Zn	1.587673	-0.085844	0.728766
Zn6	Zn	1.921006	0.247490	1.062100
Zn7	Zn	1.115394	-0.308324	0.388424
Zn8	Zn	1.448727	0.025009	0.721757
Zn9	Zn	1.782061	0.358342	1.055090
Zn10	Zn	1.108296	-0.418591	0.527406
Zn11	Zn	1.441629	-0.085258	0.860739
Zn12	Zn	1.774962	0.248075	1.194073
O13	O	1.181358	-0.366265	0.461441
O14	O	1.514691	-0.032932	0.794774
O15	O	1.848025	0.300402	1.128108
O16	O	1.364689	-0.336959	0.521956
O17	O	1.698023	-0.003626	0.855290
O18	O	2.031356	0.329708	1.188623
O19	O	1.241782	-0.400263	0.278138
O20	O	1.575116	-0.066930	0.611471
O21	O	1.908449	0.266403	0.944805
O22	O	1.132973	-0.221651	0.407837
O23	O	1.466306	0.111683	0.741170
O24	O	1.799639	0.445016	1.074504
O25	O	1.369786	-0.410583	0.419784
O26	O	1.703119	-0.077250	0.753117
O27	O	2.036453	0.256084	1.086450
O28	O	1.229959	-0.229470	0.515160
O29	O	1.563293	0.103864	0.848493
O30	O	1.896626	0.437197	1.181826
O31	O	1.139699	-0.318820	0.272988
O32	O	1.473033	0.014513	0.606322
O33	O	1.806366	0.347846	0.939655
O34	O	0.998086	-0.318252	0.400957
O35	O	1.331419	0.015081	0.734290
O36	O	1.664753	0.348414	1.067624
O37	O	1.120875	-0.409585	0.644712
O38	O	1.454208	-0.076251	0.978046
O39	O	1.787541	0.257082	1.311379
O40	O	0.992871	-0.399265	0.503067
O41	O	1.326204	-0.065932	0.836400
O42	O	1.659538	0.267402	1.169733
O43	O	1.223076	-0.336391	0.649925
O44	O	1.556409	-0.003058	0.983258
O45	O	1.889743	0.330276	1.316592
O46	O	1.234899	-0.507185	0.412904
O47	O	1.568232	-0.173851	0.746237
O48	O	1.901566	0.159482	1.079570
O49	O	1.127601	-0.506754	0.509863
O50	O	1.460934	-0.173421	0.843197
O51	O	1.794268	0.159912	1.176530
C52	C	0.965306	-0.357541	0.450482
C53	C	1.298639	-0.024207	0.783815
C54	C	1.631973	0.309126	1.117148
C55	C	0.872877	-0.353824	0.445813
C56	C	1.206210	-0.020491	0.779146
C57	C	1.539544	0.312842	1.112480
C58	C	0.659911	-0.385537	0.485659
C59	C	0.993244	-0.052204	0.818993
C60	C	1.326577	0.281129	1.152326
C61	C	0.703653	-0.347045	0.437288
C62	C	1.036987	-0.013712	0.770621
C63	C	1.370320	0.319622	1.103955
C64	C	0.797818	-0.350818	0.442033
C65	C	1.131151	-0.017485	0.775366
C66	C	1.464485	0.315848	1.108699
C67	C	0.565737	-0.381765	0.480916
C68	C	0.899071	-0.048432	0.814249
C69	C	1.232404	0.284902	1.147582
C70	C	1.181254	-0.529811	0.461393
C71	C	1.514588	-0.196477	0.794727
C72	C	1.847921	0.136856	1.128060
C73	C	1.181284	-0.599780	0.461405
C74	C	1.514618	-0.266447	0.794738
C75	C	1.847951	0.066886	1.128071
C76	C	1.231753	-0.636661	0.517324
C77	C	1.565086	-0.303328	0.850657
C78	C	1.898420	0.030005	1.183991
C79	C	1.231781	-0.702406	0.517346
C80	C	1.565115	-0.369072	0.850679
C81	C	1.898448	-0.035739	1.184013
C82	C	1.181351	-0.731267	0.461434
C83	C	1.514684	-0.397933	0.794768
C84	C	1.848017	-0.064600	1.128101
C85	C	1.130872	-0.694377	0.405511
C86	C	1.464205	-0.361044	0.738844
C87	C	1.797539	-0.027710	1.072177
C88	C	1.130839	-0.628634	0.405496
C89	C	1.464172	-0.295301	0.738829
C90	C	1.797506	0.038033	1.072163
N91	N	1.178760	-0.831630	0.388343
N92	N	1.512093	-0.498296	0.721676
N93	N	1.845427	-0.164963	1.055009
N94	N	1.178796	-0.894083	0.388359
N95	N	1.512129	-0.560750	0.721693
N96	N	1.845463	-0.227416	1.055026
C97	C	1.181446	-0.929346	0.461477
C98	C	1.514779	-0.596013	0.794810
C99	C	1.848112	-0.262680	1.128144
N100	N	1.184074	-0.899798	0.534579
N101	N	1.517407	-0.566465	0.867913
N102	N	1.850741	-0.233131	1.201246
N103	N	1.184042	-0.837339	0.534562
N104	N	1.517376	-0.504005	0.867895
N105	N	1.850709	-0.170672	1.201229
C106	C	1.181380	-0.802553	0.461445
C107	C	1.514714	-0.469220	0.794778
C108	C	1.848047	-0.135887	1.128111
C109	C	1.231947	-1.037515	0.517425
C110	C	1.565281	-0.704182	0.850758
C111	C	1.898614	-0.370849	1.184091
C112	C	1.231970	-1.103261	0.517448
C113	C	1.565303	-0.769928	0.850781
C114	C	1.898637	-0.436594	1.184114
C115	C	1.131065	-1.095231	0.405605
C116	C	1.464399	-0.761897	0.738939
C117	C	1.797732	-0.428564	1.072272
C118	C	1.131038	-1.029487	0.405589
C119	C	1.464372	-0.696153	0.738923
C120	C	1.797705	-0.362820	1.072256
C121	C	1.181484	-1.000633	0.461498
C122	C	1.514817	-0.667300	0.794831
C123	C	1.848150	-0.333966	1.128165
C124	C	1.398254	-0.375023	0.472443
C125	C	1.731587	-0.041690	0.805777
C126	C	2.064920	0.291643	1.139110
C127	C	1.490682	-0.378756	0.477132
C128	C	1.824015	-0.045423	0.810465
C129	C	2.157348	0.287911	1.143799
C130	C	1.170410	-0.374110	0.678335
C131	C	1.503743	-0.040776	1.011668
C132	C	1.837076	0.292557	1.345001
C133	C	1.165744	-0.377453	0.770762
C134	C	1.499078	-0.044119	1.104095
C135	C	1.832411	0.289214	1.437428
C136	C	1.181484	-0.202082	0.461508
C137	C	1.514817	0.131251	0.794841
C138	C	1.848151	0.464585	1.128175
C139	C	1.181538	-0.132117	0.461536
C140	C	1.514871	0.201216	0.794870
C141	C	1.848204	0.534550	1.128203
C142	C	1.192312	-0.358407	0.245394
C143	C	1.525645	-0.025074	0.578727
C144	C	1.858978	0.308260	0.912060
C145	C	1.197138	-0.354893	0.152975
C146	C	1.530472	-0.021560	0.486308
C147	C	1.863805	0.311774	0.819642
C148	C	1.157196	-0.383541	0.939986
C149	C	1.490529	-0.050208	1.273319
C150	C	1.823862	0.283126	1.606652
C151	C	1.205684	-0.348807	0.983756
C152	C	1.539018	-0.015473	1.317089
C153	C	1.872351	0.317860	1.650423
C154	C	1.200928	-0.352194	1.077918
C155	C	1.534261	-0.018861	1.411252
C156	C	1.867595	0.314472	1.744585
C157	C	1.161951	-0.380154	0.845815
C158	C	1.495284	-0.046821	1.179148
C159	C	1.828618	0.286512	1.512482
H160	H	0.670382	-0.311257	0.392313
H161	H	1.003716	0.022076	0.725646
H162	H	1.337049	0.355409	1.058979
H163	H	1.250768	-0.316525	0.950511
H164	H	1.584102	0.016809	1.283844
H165	H	1.917435	0.350142	1.617178
H166	H	1.112115	-0.415820	0.973229
H167	H	1.445449	-0.082487	1.306562
H168	H	1.778782	0.250846	1.639896
H169	H	1.273021	-1.014022	0.562952
H170	H	1.606354	-0.680689	0.896285
H171	H	1.939687	-0.347355	1.229618
H172	H	0.693180	-0.421323	0.530631
H173	H	1.026513	-0.087989	0.863964
H174	H	1.359846	0.245344	1.197297
H175	H	1.272826	-0.613171	0.562850
H176	H	1.606160	-0.279838	0.896184
H177	H	1.939493	0.053496	1.229517
H178	H	1.272871	-0.732440	0.562892
H179	H	1.606205	-0.399107	0.896225
H180	H	1.939538	-0.065773	1.229558
H181	H	1.089809	-0.717880	0.359989
H182	H	1.423142	-0.384546	0.693322
H183	H	1.756476	-0.051213	1.026655
H184	H	1.089741	-0.598604	0.359959
H185	H	1.423074	-0.265271	0.693292
H186	H	1.756407	0.068062	1.026626
H187	H	1.089998	-1.118728	0.360086
H188	H	1.423332	-0.785395	0.693419
H189	H	1.756665	-0.452062	1.026752
H190	H	1.273067	-1.133289	0.562988
H191	H	1.606400	-0.799956	0.896321
H192	H	1.939734	-0.466622	1.229655
H193	H	1.089946	-0.999456	0.360051
H194	H	1.423279	-0.666123	0.693384
H195	H	1.756612	-0.332789	1.026718
