data_functionalizedCrystal
_audit_creation_method	'MofGen! by Chris Wilmer'
_symmetry_space_group_name_H-M	'P1'
_symmetry_Int_Tables_number	1
_symmetry_cell_setting	triclinic
loop_
_symmetry_equiv_pos_as_xyz
  x,y,z
_cell_length_a	8.559649
_cell_length_b	18.266242
_cell_length_c	8.597275
_cell_angle_alpha	82.302528
_cell_angle_beta	102.375283
_cell_angle_gamma	89.990407
loop_
_atom_site_label
_atom_site_type_symbol
_atom_site_fract_x
_atom_site_fract_y
_atom_site_fract_z
O1	O	-2.119309	0.064233	-0.053141
O2	O	-1.655367	0.059131	0.027759
O3	O	-1.896474	0.076161	-0.242257
O4	O	-1.878202	0.047203	0.216875
O5	O	-1.896433	-0.045600	-0.242265
O6	O	-1.655326	-0.062631	0.027751
O7	O	-2.119268	-0.057528	-0.053148
Zn8	Zn	-1.887290	-0.079412	-0.012700
Zn9	Zn	-1.887345	0.081014	-0.012690
O10	O	-1.878160	-0.074559	0.216868
C11	C	-1.595912	-0.002137	0.033886
C12	C	-1.418817	-0.003288	0.052135
N13	N	-1.887264	-0.188898	-0.012709
C14	C	-1.994063	-0.219669	-0.132224
C15	C	-1.994073	-0.296313	-0.132232
C16	C	-1.887300	-0.342186	-0.012701
C17	C	-1.780481	-0.311406	0.106825
C18	C	-1.780463	-0.234762	0.106821
N19	N	-1.869162	-0.471415	0.128356
N20	N	-1.869188	-0.544222	0.128354
C21	C	-1.887345	-0.573109	-0.012683
N22	N	-1.905505	-0.526437	-0.153727
N23	N	-1.905487	-0.453622	-0.153724
C24	C	-1.887307	-0.425294	-0.012683
C25	C	-1.994160	-0.686986	-0.132217
C26	C	-1.994159	-0.763632	-0.132226
C27	C	-1.780575	-0.778724	0.106844
C28	C	-1.780568	-0.702079	0.106840
C29	C	-1.887369	-0.656214	-0.012689
C30	C	-1.178723	0.003739	-0.059276
C31	C	-1.355818	0.004891	-0.077525
C32	C	-1.894494	0.018955	-0.300496
C33	C	-1.888635	0.029904	-0.474015
N34	N	-1.887383	0.190502	-0.012695
C35	C	-1.880141	-0.017351	0.275106
C36	C	-1.886000	-0.028295	0.448625
H37	H	-1.437366	0.012777	-0.202493
C38	C	-1.885398	-0.158514	-0.567418
C39	C	-1.888998	-0.106870	-0.461585
H40	H	-1.887255	-0.207022	-0.511983
H41	H	-1.790500	-0.153235	-0.607865
H42	H	-1.976017	-0.150317	-0.654167
H43	H	-1.798372	-0.115064	-0.374841
H44	H	-1.983907	-0.112152	-0.421113
C45	C	-2.025586	-0.587025	-0.349472
C46	C	-2.111595	-0.636540	-0.263505
H47	H	-2.098106	-0.555875	-0.430485
H48	H	-1.958410	-0.613854	-0.397980
H49	H	-1.961932	-0.557757	-0.278252
H50	H	-2.175242	-0.665812	-0.334724
H51	H	-2.178800	-0.609709	-0.214996
H52	H	-2.081023	-0.182328	-0.229555
C53	C	-1.148716	-0.013048	0.206893
C54	C	-1.308732	-0.013929	0.220855
H55	H	-1.080758	-0.019621	0.311053
H56	H	-1.128446	0.032994	0.150098
H57	H	-1.128418	-0.051928	0.150079
H58	H	-1.329033	0.024955	0.277659
H59	H	-1.329010	-0.059976	0.277674
H60	H	-1.886414	0.088103	-0.540532
H61	H	-2.081044	-0.321372	-0.229560
H62	H	-1.693493	-0.209709	0.204146
C63	C	-1.685694	-0.435599	0.212994
C64	C	-1.663118	-0.361826	0.238221
H65	H	-1.613238	-0.466724	0.294120
H66	H	-1.666749	-0.441702	0.110537
H67	H	-1.792402	-0.448403	0.217244
H68	H	-1.556413	-0.349020	0.233959
H69	H	-1.682050	-0.355719	0.340705
H70	H	-2.081123	-0.788684	-0.229558
H71	H	-1.693632	-0.816072	0.204164
C72	C	-1.569473	-0.724698	0.343154
C73	C	-1.663188	-0.668252	0.238232
H74	H	-1.497009	-0.703813	0.424276
H75	H	-1.511099	-0.750921	0.284831
H76	H	-1.636757	-0.757634	0.391533
H77	H	-1.595904	-0.635318	0.189845
H78	H	-1.721565	-0.642017	0.296564
