data_functionalizedCrystal
_audit_creation_method	'MofGen! by Chris Wilmer'
_symmetry_space_group_name_H-M	'P1'
_symmetry_Int_Tables_number	1
_symmetry_cell_setting	triclinic
loop_
_symmetry_equiv_pos_as_xyz
  x,y,z
_cell_length_a	12.759395
_cell_length_b	12.759394
_cell_length_c	12.759393
_cell_angle_alpha	90.032294
_cell_angle_beta	90.019818
_cell_angle_gamma	90.015598
loop_
_atom_site_label
_atom_site_type_symbol
_atom_site_fract_x
_atom_site_fract_y
_atom_site_fract_z
Zn1	Zn	1.606255	-0.418183	0.594013
Zn2	Zn	1.606149	-0.593902	0.418331
Zn3	Zn	1.430557	-0.418240	0.418348
Zn4	Zn	1.430545	-0.593823	0.593968
O5	O	1.518377	-0.506037	0.506165
O6	O	1.753262	-0.441502	0.570720
O7	O	1.582817	-0.570657	0.271312
O8	O	1.453913	-0.271211	0.441677
O9	O	1.753184	-0.570602	0.441647
O10	O	1.582998	-0.271170	0.570737
O11	O	1.453810	-0.441599	0.271325
O12	O	1.283534	-0.441522	0.441633
O13	O	1.453893	-0.570467	0.740995
O14	O	1.283526	-0.570522	0.570661
O15	O	1.582986	-0.441425	0.741028
O16	O	1.582806	-0.740913	0.441604
O17	O	1.453790	-0.740855	0.570644
C18	C	1.245409	-0.506021	0.506145
C19	C	1.128632	-0.506039	0.506161
C20	C	0.909279	-0.371847	0.640816
C21	C	0.964186	-0.304729	0.708114
C22	C	1.073907	-0.304711	0.708096
C23	C	1.128724	-0.371821	0.640775
C24	C	1.073818	-0.438939	0.573477
C25	C	0.964094	-0.438947	0.573500
C26	C	1.073726	-0.573157	0.438863
C27	C	0.964004	-0.573171	0.438874
C28	C	1.128543	-0.640267	0.371542
C29	C	1.073636	-0.707381	0.304237
C30	C	0.963908	-0.707395	0.304257
C31	C	0.909097	-0.640289	0.371576
C32	C	1.518314	-0.779005	0.506140
C33	C	1.518383	-0.895781	0.506164
C34	C	1.652827	-0.895788	0.371895
C35	C	1.720077	-0.950653	0.304773
C36	C	1.720138	-1.060374	0.304802
C37	C	1.652945	-1.115234	0.371962
C38	C	1.585696	-1.060370	0.439084
C39	C	1.585639	-0.950646	0.439046
C40	C	1.451258	-1.060363	0.573356
C41	C	1.451190	-0.950641	0.573324
C42	C	1.384065	-1.115222	0.640516
C43	C	1.316809	-1.060358	0.707635
C44	C	1.316749	-0.950630	0.707602
C45	C	1.383940	-0.895777	0.640446
C46	C	1.792410	-0.506054	0.506186
C47	C	1.909187	-0.506062	0.506196
C48	C	1.518450	-0.505931	0.780199
C49	C	1.518482	-0.505886	0.896975
C50	C	1.518469	-0.232004	0.506214
C51	C	1.518508	-0.115227	0.506234
C52	C	1.518364	-0.506067	0.233198
C53	C	1.518536	-0.505816	0.116422
C54	C	1.585710	-0.438687	0.951856
C55	C	1.585735	-0.438649	1.061580
C56	C	1.451300	-0.573018	1.061533
C57	C	1.451271	-0.573049	0.951811
C58	C	1.663328	-0.361114	0.951884
C59	C	1.663353	-0.361076	1.061609
H60	H	1.118277	-0.762021	0.249435
F61	F	0.905480	-0.778841	0.232635
H62	H	1.641559	-0.279750	0.922129
H63	H	1.396578	-0.627697	1.106194
F64	F	1.383784	-1.231997	0.640197
H65	H	1.218066	-0.371810	0.640776
H66	H	1.653011	-1.204575	0.371988
F67	F	1.652998	-0.779013	0.372090
H68	H	1.118612	-0.250060	0.762897
H69	H	1.383891	-0.806436	0.640407
H70	H	1.217884	-0.640253	0.371538
H71	H	1.740599	-0.390282	0.917850
H72	H	0.819756	-0.640282	0.371586
H73	H	1.774787	-0.905976	0.250094
H74	H	1.774904	-1.105045	0.250150
H75	H	0.819938	-0.371832	0.640815
H76	H	1.262110	-1.105033	0.762316
H77	H	1.261990	-0.905965	0.762265
H78	H	1.396524	-0.627765	0.907131
H79	H	1.634239	-0.283767	1.095657
F80	F	0.905838	-0.233316	0.779765
H81	H	1.744723	-0.382868	1.091389
