data_functionalizedCrystal
_audit_creation_method	'MofGen! by Chris Wilmer'
_symmetry_space_group_name_H-M	'P1'
_symmetry_Int_Tables_number	1
_symmetry_cell_setting	triclinic
loop_
_symmetry_equiv_pos_as_xyz
  x,y,z
_cell_length_a	19.188879
_cell_length_b	19.188925
_cell_length_c	17.666332
_cell_angle_alpha	90.000135
_cell_angle_beta	89.982473
_cell_angle_gamma	96.866687
loop_
_atom_site_label
_atom_site_type_symbol
_atom_site_fract_x
_atom_site_fract_y
_atom_site_fract_z
O1	O	-0.087155	0.926126	0.062981
O2	O	-0.098894	0.722812	0.062981
O3	O	0.008634	0.830354	0.062957
O4	O	-0.194683	0.818583	0.063005
O5	O	0.008644	0.830357	-0.062940
O6	O	-0.098883	0.722814	-0.062916
O7	O	-0.087145	0.926128	-0.062916
Cu8	Cu	-0.093013	0.824471	-0.074411
Cu9	Cu	-0.093026	0.824468	0.074476
O10	O	-0.194672	0.818585	-0.062892
C11	C	-0.098509	0.696802	0.000032
C12	C	-0.097370	0.619297	0.000031
C13	C	-0.152835	0.057517	0.000046
C14	C	-0.153912	0.130340	0.000050
C15	C	-0.090818	0.175286	0.000034
C16	C	-0.026643	0.147403	0.000033
C17	C	-0.025568	0.074582	0.000036
N18	N	-0.045137	0.295972	-0.042833
N19	N	-0.046162	0.365149	-0.042837
C20	C	-0.094052	0.394694	0.000026
N21	N	-0.140889	0.352448	0.042885
N22	N	-0.139865	0.283264	0.042886
C23	C	-0.091976	0.254250	0.000031
C24	C	-0.159390	0.501532	0.000037
C25	C	-0.160464	0.574356	0.000046
C26	C	-0.033194	0.591419	0.000021
C27	C	-0.032122	0.518595	0.000020
C28	C	-0.095222	0.473656	0.000024
C29	C	-0.220689	0.818959	0.000062
C30	C	-0.298195	0.820086	0.000081
C31	C	-0.334572	0.820634	-0.068549
C32	C	-0.407395	0.821712	-0.068563
C33	C	-0.443837	0.822255	0.000058
C34	C	-0.407452	0.821703	0.068698
C35	C	-0.334631	0.820619	0.068709
N36	N	-0.552860	0.863691	0.051121
N37	N	-0.622037	0.864723	0.051106
C38	C	-0.663241	0.825522	0.000029
N39	N	-0.632656	0.785259	-0.051044
N40	N	-0.563472	0.784230	-0.051031
C41	C	-0.522799	0.823431	0.000054
C42	C	-0.778581	0.827238	-0.068620
C43	C	-0.851406	0.828311	-0.068631
C44	C	-0.851461	0.828310	0.068631
C45	C	-0.778638	0.827229	0.068640
C46	C	-0.742202	0.826697	0.000012
C47	C	0.034651	0.829980	0.000004
C48	C	0.112157	0.828854	-0.000009
C49	C	-0.087529	0.952138	0.000034
C50	C	-0.088669	1.029642	0.000041
N51	N	-0.093029	0.824467	0.179196
N52	N	-0.093003	0.824478	-0.179131
C53	C	-0.045509	0.872171	0.218795
C54	C	-0.045508	0.872177	0.298043
C55	C	-0.093020	0.824467	0.337688
C56	C	-0.140550	0.776759	0.298079
C57	C	-0.140554	0.776759	0.218833
N58	N	-0.101948	0.762658	0.462115
N59	N	-0.101940	0.762661	0.537395
C60	C	-0.093010	0.824466	0.576452
N61	N	-0.084076	0.886271	0.537384
N62	N	-0.084081	0.886268	0.462097
C63	C	-0.093021	0.824462	0.423617
C64	C	-0.045486	0.872181	0.701980
C65	C	-0.045490	0.872188	0.781229
C66	C	-0.140528	0.776764	0.781264
C67	C	-0.140528	0.776763	0.702017
C68	C	-0.093003	0.824471	0.662380
H69	H	-0.210770	0.464940	0.000042
H70	H	-0.006810	0.911026	0.330290
H71	H	-0.179252	0.737911	0.186591
F72	F	-0.191118	0.725984	0.340273
H73	H	-0.748914	0.826798	-0.124502
F74	F	0.033956	0.639249	0.000014
F75	F	-0.219993	0.009693	0.000058
H76	H	-0.437020	0.822145	-0.124451
F77	F	0.005091	0.922959	0.659795
H78	H	-0.749019	0.826788	0.124526
F79	F	-0.191099	0.725991	0.823454
F80	F	-0.890122	0.828883	-0.141681
H81	H	-0.881132	0.828744	0.124504
F82	F	0.005086	0.922968	0.823376
F83	F	-0.446236	0.822284	0.141729
H84	H	-0.179221	0.737914	0.669773
H85	H	-0.006813	0.911019	0.186525
H86	H	-0.304911	0.820200	-0.124432
F87	F	0.036174	0.488928	0.000016
F88	F	-0.222209	0.160013	0.000055
H89	H	0.024728	0.184003	0.000022
F90	F	-0.295915	0.820036	0.141758
H91	H	0.026685	0.051888	0.000032
H92	H	-0.212718	0.597049	0.000057
