data_functionalizedCrystal
_audit_creation_method	'MofGen! by Chris Wilmer'
_symmetry_space_group_name_H-M	'P1'
_symmetry_Int_Tables_number	1
_symmetry_cell_setting	triclinic
loop_
_symmetry_equiv_pos_as_xyz
  x,y,z
_cell_length_a	18.215407
_cell_length_b	29.839131
_cell_length_c	18.215399
_cell_angle_alpha	89.968708
_cell_angle_beta	89.980650
_cell_angle_gamma	90.041868
loop_
_atom_site_label
_atom_site_type_symbol
_atom_site_fract_x
_atom_site_fract_y
_atom_site_fract_z
Zn1	Zn	1.124984	-0.178851	-0.416101
Zn2	Zn	1.124858	-0.253981	-0.293028
Zn3	Zn	1.001917	-0.178866	-0.293048
Zn4	Zn	1.001847	-0.253955	-0.416053
O5	O	1.063402	-0.216413	-0.354558
O6	O	1.227951	-0.188821	-0.399787
O7	O	1.108526	-0.244034	-0.190047
O8	O	1.018325	-0.115997	-0.309400
O9	O	1.227859	-0.244019	-0.309366
O10	O	1.108741	-0.115986	-0.399806
O11	O	1.018203	-0.188847	-0.190061
O12	O	0.898924	-0.188822	-0.309354
O13	O	1.018204	-0.243975	-0.519044
O14	O	0.898872	-0.243990	-0.399725
O15	O	1.108673	-0.188796	-0.519079
O16	O	1.108458	-0.316844	-0.309320
O17	O	1.018082	-0.316826	-0.399705
C18	C	0.872195	-0.216405	-0.354537
C19	C	0.790396	-0.216413	-0.354545
C20	C	1.063269	-0.333136	-0.354521
C21	C	1.063279	-0.383070	-0.354530
C22	C	0.602195	-0.245184	-0.401542
C23	C	0.525336	-0.245185	-0.401551
C24	C	0.525360	-0.187650	-0.307589
C25	C	0.602218	-0.187647	-0.307584
C26	C	0.640633	-0.216416	-0.354560
C27	C	0.486917	-0.216421	-0.354574
C28	C	0.403583	-0.216422	-0.354583
C29	C	0.723972	-0.216415	-0.354551
C30	C	1.110546	-0.692711	-0.307563
C31	C	1.110637	-0.880384	-0.307591
O32	O	1.150719	-0.904646	-0.267629
N33	N	1.063554	-0.903855	-0.354613
C34	C	1.016449	-0.880405	-0.401635
O35	O	0.976410	-0.904676	-0.441636
C36	C	1.016362	-0.692733	-0.401609
C37	C	1.063443	-0.669264	-0.354579
C38	C	1.157623	-0.669241	-0.260536
C39	C	1.157597	-0.622326	-0.260527
C40	C	1.110494	-0.598880	-0.307544
C41	C	1.063417	-0.622349	-0.354570
C42	C	0.969262	-0.669285	-0.448634
C43	C	0.969246	-0.622363	-0.448625
C44	C	1.016326	-0.598894	-0.401595
C45	C	1.016288	-0.551987	-0.401577
N46	N	1.063370	-0.528516	-0.354554
C47	C	1.110473	-0.551962	-0.307538
C48	C	1.016497	-0.978936	-0.401644
C49	C	1.016517	-1.025854	-0.401649
C50	C	1.110706	-1.025829	-0.307606
C51	C	1.110681	-0.978910	-0.307598
C52	C	1.063579	-0.955465	-0.354622
C53	C	1.110414	-0.453436	-0.307521
C54	C	1.110382	-0.406516	-0.307514
C55	C	1.016197	-0.406546	-0.401559
C56	C	1.016226	-0.453461	-0.401564
C57	C	1.063341	-0.476905	-0.354543
O58	O	0.976232	-0.527696	-0.441523
O59	O	1.150518	-0.527684	-0.267554
C60	C	1.110572	-0.739626	-0.307572
C61	C	1.063495	-0.763095	-0.354598
C62	C	1.016392	-0.739649	-0.401615
C63	C	1.063515	-0.810013	-0.354604
C64	C	1.110618	-0.833459	-0.307587
C65	C	1.157701	-0.809988	-0.260565
C66	C	1.157675	-0.763072	-0.260555
C67	C	0.969309	-0.763120	-0.448637
C68	C	0.969339	-0.810036	-0.448642
C69	C	1.016442	-0.833482	-0.401625
C70	C	1.255354	-0.216421	-0.354579
C71	C	1.337153	-0.216425	-0.354589
C72	C	1.063445	-0.216381	-0.546511
C73	C	1.063463	-0.216368	-0.628310
C74	C	1.063555	-0.099235	-0.354610
C75	C	1.063620	-0.049300	-0.354633
C76	C	1.110597	-0.187597	-0.893387
C77	C	1.110588	-0.187609	-0.816528
C78	C	1.016389	-0.245073	-0.816481
C79	C	1.016402	-0.245063	-0.893339
C80	C	1.063505	-0.216322	-0.931789
C81	C	1.063483	-0.216345	-0.778073
C82	C	1.063473	-0.216358	-0.694739
C83	C	1.063516	-0.216309	-1.015128
C84	C	1.063401	-0.216412	-0.163351
C85	C	1.063525	-0.216299	-0.081553
H86	H	0.494043	-0.268610	-0.439810
H87	H	1.148951	-0.164195	-0.924691
O88	O	0.639448	-0.159687	-0.261872
C89	C	0.631368	-0.102601	-0.168706
C90	C	0.589114	-0.134250	-0.220419
H91	H	0.590691	-0.082020	-0.135189
H92	H	0.667294	-0.123175	-0.130115
H93	H	0.667409	-0.079155	-0.202575
H94	H	0.553033	-0.157702	-0.186610
H95	H	0.553234	-0.113648	-0.259012
H96	H	0.633470	-0.268609	-0.439794
H97	H	0.977843	-0.387448	-0.439837
O98	O	1.156189	-0.383789	-0.261804
C99	C	1.249581	-0.388724	-0.168495
C100	C	1.197756	-0.414517	-0.220233
H101	H	1.283190	-0.413556	-0.134860
H102	H	1.288081	-0.366732	-0.202277
H103	H	1.215793	-0.366784	-0.130008
H104	H	1.231484	-0.436481	-0.258730
H105	H	1.159254	-0.436481	-0.186405
H106	H	0.494073	-0.164228	-0.269342
H107	H	1.148781	-0.472519	-0.269233
O108	O	0.970654	-0.272945	-0.779015
C109	C	0.928913	-0.298445	-0.660592
C110	C	0.980735	-0.266851	-0.702928
H111	H	0.937056	-0.293535	-0.599068
H112	H	0.869568	-0.290552	-0.675644
H113	H	0.941786	-0.334663	-0.675728
H114	H	0.967928	-0.230621	-0.687814
H115	H	1.040065	-0.274782	-0.687872
H116	H	1.149018	-0.959804	-0.269302
H117	H	1.195984	-0.688327	-0.222250
O118	O	1.203408	-0.599601	-0.214826
C119	C	1.296811	-0.604546	-0.121529
C120	C	1.244972	-0.630333	-0.173260
H121	H	1.330418	-0.629381	-0.087899
H122	H	1.335312	-0.582557	-0.155316
H123	H	1.263035	-0.582602	-0.083038
H124	H	1.278689	-0.652301	-0.211761
H125	H	1.206469	-0.652293	-0.139427
O126	O	1.156484	-1.048678	-0.262047
C127	C	1.198322	-1.120953	-0.220465
C128	C	1.146425	-1.095130	-0.272073
H129	H	1.190197	-1.158514	-0.228542
H130	H	1.257646	-1.111703	-0.233508
H131	H	1.185505	-1.111755	-0.161094
H132	H	1.159176	-1.104314	-0.331461
H133	H	1.087116	-1.104382	-0.258967
O134	O	0.970754	-1.048580	-0.447398
C135	C	0.877303	-1.043640	-0.540647
C136	C	0.929102	-1.017850	-0.488880
H137	H	0.843603	-1.018806	-0.574188
H138	H	0.911041	-1.065557	-0.579214
H139	H	0.838881	-1.065654	-0.506819
H140	H	0.967535	-0.995810	-0.522649
H141	H	0.895319	-0.995961	-0.450311
O142	O	0.970760	-0.273018	-0.930678
C143	C	0.960815	-0.333646	-1.017447
C144	C	1.012580	-0.302021	-0.975194
H145	H	0.994604	-0.357097	-1.053460
H146	H	0.927159	-0.354220	-0.976794
H147	H	0.922349	-0.313010	-1.053405
H148	H	1.051090	-0.322622	-0.939235
H149	H	1.046184	-0.281446	-1.015886
O150	O	0.970409	-0.476281	-0.447139
C151	C	0.871103	-0.529333	-0.456972
C152	C	0.922927	-0.503515	-0.405267
H153	H	0.832711	-0.551365	-0.423140
H154	H	0.837378	-0.504532	-0.490557
H155	H	0.904896	-0.551238	-0.495507
H156	H	0.889191	-0.481609	-0.366688
H157	H	0.956654	-0.528340	-0.371734
O158	O	1.203481	-0.740347	-0.214850
C159	C	1.296874	-0.745292	-0.121543
C160	C	1.245044	-0.771079	-0.173281
H161	H	1.330479	-0.770127	-0.087910
H162	H	1.335378	-0.723302	-0.155324
H163	H	1.263092	-0.723350	-0.083054
H164	H	1.278766	-0.793045	-0.211780
H165	H	1.206538	-0.793041	-0.139455
O166	O	0.970839	-0.956145	-0.447401
C167	C	0.960832	-0.903131	-0.546726
C168	C	1.012627	-0.928918	-0.494968
H169	H	0.994595	-0.881104	-0.585186
H170	H	0.927201	-0.927951	-0.580382
H171	H	0.922343	-0.881222	-0.512886
H172	H	1.051159	-0.950827	-0.528751
H173	H	1.046206	-0.904073	-0.461310
O174	O	0.923506	-0.692005	-0.494393
C175	C	0.830065	-0.687058	-0.587650
C176	C	0.881860	-0.661272	-0.535874
H177	H	0.796369	-0.662222	-0.621190
H178	H	0.863806	-0.708974	-0.626217
H179	H	0.791638	-0.709074	-0.553829
H180	H	0.920297	-0.639232	-0.569635
H181	H	0.848073	-0.639385	-0.497305
O182	O	0.923594	-0.599568	-0.494383
C183	C	0.913609	-0.546544	-0.593697
C184	C	0.965393	-0.572339	-0.541937
H185	H	0.947382	-0.524516	-0.632146
H186	H	0.879979	-0.571359	-0.627363
H187	H	0.875119	-0.524637	-0.559857
H188	H	1.003927	-0.594247	-0.575720
H189	H	0.998971	-0.547500	-0.508268
O190	O	1.203452	-0.832838	-0.214980
C191	C	1.245232	-0.905113	-0.173342
C192	C	1.193383	-0.879289	-0.224996
H193	H	1.237098	-0.942674	-0.181411
H194	H	1.304570	-0.895873	-0.186345
H195	H	1.232377	-0.895905	-0.113983
H196	H	1.206172	-0.888483	-0.284372
H197	H	1.134061	-0.888531	-0.211929
H198	H	0.930994	-0.829140	-0.486939
O199	O	1.156253	-0.159638	-0.779262
C200	C	1.192085	-0.083220	-0.755843
C201	C	1.140309	-0.114849	-0.798075
H202	H	1.179223	-0.047002	-0.771050
H203	H	1.183990	-0.088121	-0.694295
H204	H	1.251414	-0.091128	-0.770957
H205	H	1.080960	-0.106961	-0.783023
H206	H	1.148467	-0.109942	-0.859612
H207	H	0.930953	-0.744034	-0.486924
