data_functionalizedCrystal
_audit_creation_method	'MofGen! by Chris Wilmer'
_symmetry_space_group_name_H-M	'P1'
_symmetry_Int_Tables_number	1
_symmetry_cell_setting	triclinic
loop_
_symmetry_equiv_pos_as_xyz
  x,y,z
_cell_length_a	21.395362
_cell_length_b	11.169416
_cell_length_c	11.169409
_cell_angle_alpha	89.969184
_cell_angle_beta	89.956700
_cell_angle_gamma	90.026221
loop_
_atom_site_label
_atom_site_type_symbol
_atom_site_fract_x
_atom_site_fract_y
_atom_site_fract_z
Zn1	Zn	0.957944	-0.477202	-0.679283
Zn2	Zn	0.957885	-0.677942	-0.478605
Zn3	Zn	0.853160	-0.477327	-0.478538
Zn4	Zn	0.853166	-0.677897	-0.679171
O5	O	0.905539	-0.577592	-0.578899
O6	O	1.045614	-0.503797	-0.652738
O7	O	0.943966	-0.651401	-0.310647
O8	O	0.867083	-0.309361	-0.505186
O9	O	1.045571	-0.651280	-0.505301
O10	O	0.944067	-0.309269	-0.652673
O11	O	0.867025	-0.504011	-0.310597
O12	O	0.765483	-0.503967	-0.505077
O13	O	0.867092	-0.651203	-0.847135
O14	O	0.765487	-0.651325	-0.652481
O15	O	0.944072	-0.503753	-0.847218
O16	O	0.943971	-0.845886	-0.505192
O17	O	0.867034	-0.845853	-0.652546
C18	C	0.742751	-0.577656	-0.578760
C19	C	0.673110	-0.577712	-0.578729
C20	C	0.640415	-0.654543	-0.655367
C21	C	0.574980	-0.654513	-0.655421
C22	C	0.542242	-0.577665	-0.578814
C23	C	0.574944	-0.500819	-0.502171
C24	C	0.640378	-0.500843	-0.502128
C25	C	0.438516	-0.568034	-0.470767
C26	C	0.373083	-0.568020	-0.470808
C27	C	0.340421	-0.577587	-0.578947
C28	C	0.373200	-0.587194	-0.687049
C29	C	0.438634	-0.587217	-0.687006
C30	C	0.471289	-0.577631	-0.578853
C31	C	0.236774	-0.654390	-0.655650
C32	C	0.171337	-0.654352	-0.655705
C33	C	0.171303	-0.500665	-0.502445
C34	C	0.236738	-0.500696	-0.502400
C35	C	0.269470	-0.577565	-0.579001
C36	C	0.905514	-0.889417	-0.578890
C37	C	0.905561	-1.022817	-0.578926
C38	C	1.068962	-0.577529	-0.579040
C39	C	1.138603	-0.577502	-0.579100
C40	C	0.905589	-0.577459	-0.891942
C41	C	0.905610	-0.577402	-1.025342
C42	C	0.905581	-0.264550	-0.578935
C43	C	0.905599	-0.131150	-0.578950
C44	C	0.905525	-0.577638	-0.267075
C45	C	0.905625	-0.577356	-0.133675
H46	H	0.346399	-0.560204	-0.382785
Cl47	Cl	0.277842	-0.404107	-0.406045
H48	H	0.548355	-0.717078	-0.717833
H49	H	0.465320	-0.595037	-0.775026
Cl50	Cl	0.681560	-0.751172	-0.751671
Cl51	Cl	0.479569	-0.556010	-0.334807
Cl52	Cl	0.533789	-0.404205	-0.405872
H53	H	0.346608	-0.594983	-0.775106
H54	H	0.263425	-0.716975	-0.718029
Cl55	Cl	0.681482	-0.404247	-0.405774
H56	H	0.144718	-0.716915	-0.718121
H57	H	0.144648	-0.438088	-0.440076
