data_functionalizedCrystal
_audit_creation_method	'MofGen! by Chris Wilmer'
_symmetry_space_group_name_H-M	'P1'
_symmetry_Int_Tables_number	1
_symmetry_cell_setting	triclinic
loop_
_symmetry_equiv_pos_as_xyz
  x,y,z
_cell_length_a	19.077068
_cell_length_b	19.077267
_cell_length_c	19.076919
_cell_angle_alpha	85.333063
_cell_angle_beta	94.470751
_cell_angle_gamma	90.063967
loop_
_atom_site_label
_atom_site_type_symbol
_atom_site_fract_x
_atom_site_fract_y
_atom_site_fract_z
Zn1	Zn	-0.337166	-1.047524	-0.369401
Zn2	Zn	-0.450316	-1.047437	-0.256249
Zn3	Zn	-0.328092	-0.934761	-0.255885
Zn4	Zn	-0.450276	-0.924869	-0.378825
O5	O	-0.391462	-0.988648	-0.315090
O6	O	-0.355990	-1.145999	-0.350599
O7	O	-0.430322	-1.036593	-0.157395
O8	O	-0.230808	-0.953896	-0.266847
O9	O	-0.439120	-1.145935	-0.267467
O10	O	-0.237474	-1.036742	-0.350246
O11	O	-0.340525	-0.953811	-0.157128
O12	O	-0.340486	-0.834963	-0.275985
O13	O	-0.439052	-0.937037	-0.476380
O14	O	-0.430254	-0.827695	-0.366309
O15	O	-0.355951	-1.027150	-0.469456
O16	O	-0.548798	-1.027002	-0.276605
O17	O	-0.548769	-0.936952	-0.366662
C18	C	-0.384381	-0.805793	-0.322130
C19	C	-0.381370	-0.727565	-0.325160
C20	C	-0.423161	-0.690783	-0.283230
C21	C	-0.420332	-0.617280	-0.286086
C22	C	-0.375707	-0.580559	-0.330868
C23	C	-0.333914	-0.617346	-0.372803
C24	C	-0.336748	-0.690848	-0.369950
C25	C	-0.362603	-0.360735	-0.344052
C26	C	-0.359772	-0.287228	-0.346900
C27	C	-0.446190	-0.287166	-0.260184
C28	C	-0.449016	-0.360670	-0.257332
C29	C	-0.407226	-0.397450	-0.299269
N30	N	-0.372813	-0.505427	-0.333787
N31	N	-0.410125	-0.472581	-0.296354
C32	C	-0.574322	-0.980913	-0.322710
C33	C	-0.652553	-0.977667	-0.325991
C34	C	-0.689301	-1.023059	-0.280681
C35	C	-0.762808	-1.020010	-0.283771
C36	C	-0.799566	-0.971565	-0.332168
C37	C	-0.762813	-0.926171	-0.377483
C38	C	-0.689307	-0.929223	-0.374396
C39	C	-1.019404	-0.957407	-0.346429
C40	C	-1.092915	-0.954356	-0.349511
C41	C	-1.092905	-1.048197	-0.255799
C42	C	-1.019398	-1.051243	-0.252714
C43	C	-0.982652	-1.005851	-0.298031
N44	N	-0.874702	-0.968446	-0.335327
N45	N	-0.907518	-1.008974	-0.294876
C46	C	-0.207890	-0.996432	-0.307455
C47	C	-0.129663	-0.999749	-0.304201
C48	C	-0.398509	-0.981000	-0.499254
C49	C	-0.401512	-0.977740	-0.577734
C50	C	-0.398562	-0.172218	-0.308012
C51	C	-0.401563	-0.250446	-0.304970
C52	C	-0.359658	-1.023124	-0.611000
C53	C	-0.362477	-1.020053	-0.684740
C54	C	-0.407153	-0.971602	-0.725213
C55	C	-0.449008	-0.926213	-0.691942
C56	C	-0.446186	-0.929281	-0.618203
C57	C	-0.420231	-0.957392	-0.946136
C58	C	-0.423052	-0.954329	-1.019879
C59	C	-0.336519	-1.048169	-1.012673
C60	C	-0.333703	-1.051235	-0.938933
C61	C	-0.375556	-1.005844	-0.905668
N62	N	-0.410037	-0.968463	-0.800587
N63	N	-0.372668	-1.008980	-0.830295
C64	C	-0.384394	-0.996309	-0.131639
C65	C	-0.381198	-0.999713	-0.053146
H66	H	-0.454362	-0.587335	-0.251943
H67	H	-0.989491	-0.920446	-0.383326
H68	H	-0.297584	-0.587443	-0.409268
C69	C	-0.803244	-0.872881	-0.430717
H70	H	-0.852284	-0.877557	-0.426062
H71	H	-0.793382	-0.881670	-0.477265
H72	H	-0.789013	-0.826530	-0.421655
H73	H	-0.302716	-0.720795	-0.404093
H74	H	-0.485382	-0.886760	-0.724901
H75	H	-0.792725	-1.056973	-0.246875
H76	H	-0.989472	-1.090691	-0.213305
H77	H	-0.659388	-0.892261	-0.411293
H78	H	-0.459496	-0.720676	-0.246761
C79	C	-0.290480	-1.098089	-1.049266
H80	H	-0.298553	-1.089321	-1.098978
H81	H	-0.302146	-1.145442	-1.035792
H82	H	-0.242329	-1.090290	-1.035609
C83	C	-1.133328	-1.098129	-0.205960
H84	H	-1.182370	-1.089378	-0.214732
H85	H	-1.119098	-1.090340	-0.158402
H86	H	-1.123462	-1.145481	-0.214011
H87	H	-1.122841	-0.914914	-0.388934
C88	C	-0.498102	-0.401057	-0.208070
H89	H	-0.522589	-0.368623	-0.183510
H90	H	-0.471057	-0.432135	-0.175116
H91	H	-0.530950	-0.427323	-0.235197
H92	H	-0.480214	-0.257212	-0.226043
C93	C	-0.310510	-1.076418	-0.566486
H94	H	-0.285982	-1.103001	-0.596863
H95	H	-0.337514	-1.107141	-0.537659
H96	H	-0.277699	-1.051985	-0.537484
C97	C	-0.472196	-0.901028	-1.064399
H98	H	-0.496714	-0.874430	-1.034027
H99	H	-0.505006	-0.925453	-1.093403
H100	H	-0.445180	-0.870310	-1.093224
C101	C	-0.316441	-1.069979	-0.721330
H102	H	-0.289437	-1.099280	-0.686665
H103	H	-0.285831	-1.043165	-0.749855
H104	H	-0.345659	-1.098305	-0.750037
C105	C	-0.492243	-0.879376	-0.581610
H106	H	-0.519264	-0.850089	-0.616274
H107	H	-0.463045	-0.851044	-0.552896
H108	H	-0.522848	-0.906213	-0.553093
H109	H	-0.323427	-0.257333	-0.383365
H110	H	-0.297325	-1.090692	-0.905985
H111	H	-0.659378	-1.062506	-0.241268
H112	H	-0.454321	-0.920441	-0.919061
H113	H	-0.328576	-0.390673	-0.378201
