data_functionalizedCrystal
_audit_creation_method	'MofGen! by Chris Wilmer'
_symmetry_space_group_name_H-M	'P1'
_symmetry_Int_Tables_number	1
_symmetry_cell_setting	triclinic
loop_
_symmetry_equiv_pos_as_xyz
  x,y,z
_cell_length_a	13.897449
_cell_length_b	12.645330
_cell_length_c	12.645323
_cell_angle_alpha	90.026844
_cell_angle_beta	90.020445
_cell_angle_gamma	90.018972
loop_
_atom_site_label
_atom_site_type_symbol
_atom_site_fract_x
_atom_site_fract_y
_atom_site_fract_z
Zn1	Zn	1.474700	-0.421974	0.599408
Zn2	Zn	1.474595	-0.599268	0.422148
Zn3	Zn	1.313390	-0.422023	0.422157
Zn4	Zn	1.313371	-0.599200	0.599368
O5	O	1.394014	-0.510616	0.510770
O6	O	1.609668	-0.445501	0.575908
O7	O	1.453174	-0.575805	0.273802
O8	O	1.334840	-0.273669	0.445690
O9	O	1.609590	-0.575758	0.445676
O10	O	1.453354	-0.273633	0.575916
O11	O	1.334738	-0.445584	0.273808
O12	O	1.178406	-0.445518	0.445651
O13	O	1.334807	-0.575641	0.747721
O14	O	1.178392	-0.575689	0.575847
O15	O	1.453335	-0.445434	0.747750
O16	O	1.453156	-0.747606	0.445636
O17	O	1.334705	-0.747556	0.575839
C18	C	1.143399	-0.510602	0.510746
C19	C	1.036186	-0.510622	0.510761
C20	C	0.839890	-0.510625	0.510789
C21	C	0.949123	-0.510620	0.510770
C22	C	1.393943	-0.786046	0.510755
C23	C	1.394002	-0.903876	0.510785
C24	C	1.319792	-1.071453	0.592947
C25	C	1.319412	-0.948893	0.592683
C26	C	1.366483	-0.948475	0.399063
C27	C	1.366030	-1.071073	0.399562
C28	C	1.496184	-1.070962	0.539437
C29	C	1.495558	-0.948355	0.541880
C30	C	1.645607	-0.510631	0.510795
C31	C	1.752821	-0.510638	0.510806
C32	C	1.394081	-0.510525	0.787276
C33	C	1.394110	-0.510486	0.905106
C34	C	1.394111	-0.234111	0.510808
C35	C	1.394152	-0.116281	0.510825
C36	C	1.394002	-0.510631	0.235341
C37	C	1.394161	-0.510371	0.117511
C38	C	1.319548	-0.592382	0.949969
C39	C	1.319286	-0.592074	1.072529
C40	C	1.366931	-0.398588	1.073009
C41	C	1.366361	-0.399128	0.950410
C42	C	1.496099	-0.539371	0.950294
C43	C	1.495582	-0.541769	1.072900
H44	H	1.336629	-0.918736	0.675524
N45	N	1.568724	-0.909901	0.472315
N46	N	1.583736	-0.812730	0.464759
H47	H	1.635406	-0.785573	0.415618
N48	N	1.225479	-1.110185	0.569479
N49	N	1.155746	-1.083544	0.625915
H50	H	1.089137	-1.110896	0.609336
H51	H	1.516119	-0.624038	1.101984
H52	H	1.244406	-0.573469	0.919159
H53	H	1.291444	-1.099767	0.375323
H54	H	1.336285	-0.674953	1.102619
H55	H	1.417840	-1.100731	0.336288
H56	H	1.243728	-0.572896	1.101857
N57	N	1.568983	-0.472396	1.111327
N58	N	1.547644	-0.398350	1.172485
H59	H	1.599481	-0.349348	1.199627
N60	N	1.272849	-0.368463	0.914545
N61	N	1.208461	-0.346814	0.980058
H62	H	1.142416	-0.325156	0.954735
H63	H	1.243770	-0.919661	0.573728
N64	N	1.340586	-0.696717	0.912969
N65	N	1.279668	-0.746283	0.859684
H66	H	1.294527	-0.819971	0.833543
H67	H	1.418325	-0.336005	0.920732
H68	H	1.418926	-0.919317	0.336203
N69	N	1.565806	-0.464570	0.913893
N70	N	1.651913	-0.473500	0.941042
H71	H	1.701139	-0.420671	0.915329
N72	N	1.273891	-0.910071	0.368113
N73	N	1.228011	-0.849868	0.428142
H74	H	1.162617	-0.822744	0.406289
H75	H	1.551584	-1.099951	0.479623
N76	N	1.527670	-1.109662	0.639896
N77	N	1.475284	-1.171123	0.691629
H78	H	1.497512	-1.198458	0.762582
N79	N	1.432986	-0.319913	1.109583
N80	N	1.442397	-0.303380	1.206501
H81	H	1.489050	-0.247819	1.232338
N82	N	1.521585	-0.911778	0.645026
N83	N	1.465600	-0.853167	0.695507
H84	H	1.483978	-0.827329	0.768355
H85	H	1.293224	-0.373693	1.103712
N86	N	1.527272	-0.639925	0.911502
N87	N	1.536877	-0.654445	0.814295
H88	H	1.558886	-0.725464	0.786895
N89	N	1.341253	-1.108331	0.697202
N90	N	1.341543	-1.205288	0.716402
H91	H	1.356725	-1.231330	0.790032
