data_functionalizedCrystal
_audit_creation_method	'MofGen! by Chris Wilmer'
_symmetry_space_group_name_H-M	'P1'
_symmetry_Int_Tables_number	1
_symmetry_cell_setting	triclinic
loop_
_symmetry_equiv_pos_as_xyz
  x,y,z
_cell_length_a	11.792241
_cell_length_b	15.072220
_cell_length_c	11.792241
_cell_angle_alpha	90.001222
_cell_angle_beta	84.193416
_cell_angle_gamma	90.008318
loop_
_atom_site_label
_atom_site_type_symbol
_atom_site_fract_x
_atom_site_fract_y
_atom_site_fract_z
O1	O	1.506923	0.073697	0.155560
O2	O	1.176582	0.073717	0.171593
O3	O	1.349769	0.073700	-0.001594
O4	O	1.333736	0.073714	0.328747
O5	O	1.349726	-0.073865	-0.001584
O6	O	1.176539	-0.073848	0.171603
O7	O	1.506880	-0.073868	0.155570
Zn8	Zn	1.341702	-0.097287	0.163588
Zn9	Zn	1.341759	0.097136	0.163575
O10	O	1.333693	-0.073851	0.328757
C11	C	1.134269	-0.000063	0.170591
C12	C	1.008255	-0.000055	0.167576
N13	N	1.341672	-0.229976	0.163596
C14	C	0.777543	-0.000080	0.162034
C15	C	0.905928	-0.000066	0.165113
C16	C	1.341757	-0.589178	0.163571
C17	C	1.248773	-0.551561	0.255925
C18	C	1.248989	-0.448736	0.256266
C19	C	1.341714	-0.410973	0.163583
C20	C	1.460301	-0.448271	0.190178
C21	C	1.459781	-0.551129	0.190835
C22	C	1.317207	-0.551281	0.044353
C23	C	1.314495	-0.448417	0.045130
C24	C	1.341697	-0.310260	0.163588
C25	C	1.341781	-0.689891	0.163569
C26	C	1.549192	-0.000086	0.156572
C27	C	1.675206	-0.000088	0.159587
C28	C	1.348740	-0.000082	-0.043880
C29	C	1.345726	-0.000081	-0.169894
N30	N	1.341798	0.229825	0.163559
C31	C	1.340183	-0.000066	-0.400606
C32	C	1.343262	-0.000074	-0.272221
C33	C	1.334721	-0.000067	0.371043
C34	C	1.337736	-0.000062	0.497057
H35	H	1.160865	-0.423520	0.240313
H36	H	1.385008	-0.575606	-0.024383
H37	H	1.377765	-0.422715	-0.026872
H38	H	1.160365	-0.576318	0.240224
H39	H	1.264312	-0.577397	0.343881
H40	H	1.531173	-0.576010	0.126260
O41	O	1.269861	-0.416115	0.373428
H42	H	1.279850	-0.473807	0.430062
O43	O	1.488287	-0.582896	0.306033
H44	H	1.488206	-0.656527	0.307643
O45	O	1.554196	-0.415874	0.103497
H46	H	1.517247	-0.372738	0.040393
O47	O	1.489471	-0.414152	0.304076
H48	H	1.419700	-0.370642	0.341916
O49	O	1.205074	-0.585662	0.010731
H50	H	1.165585	-0.630150	0.078627
H51	H	1.227257	-0.424040	0.024964
