data_functionalizedCrystal
_audit_creation_method	'MofGen! by Chris Wilmer'
_symmetry_space_group_name_H-M	'P1'
_symmetry_Int_Tables_number	1
_symmetry_cell_setting	triclinic
loop_
_symmetry_equiv_pos_as_xyz
  x,y,z
_cell_length_a	15.944551
_cell_length_b	14.853567
_cell_length_c	13.330367
_cell_angle_alpha	89.996055
_cell_angle_beta	89.995989
_cell_angle_gamma	96.433166
loop_
_atom_site_label
_atom_site_type_symbol
_atom_site_fract_x
_atom_site_fract_y
_atom_site_fract_z
O1	O	0.109653	-1.196229	0.083357
O2	O	0.122716	-0.933752	0.083374
O3	O	-0.006082	-1.072158	0.083356
O4	O	0.238451	-1.057823	0.083375
O5	O	-0.006062	-1.072137	-0.083491
O6	O	0.122737	-0.933731	-0.083473
O7	O	0.109673	-1.196207	-0.083491
Cu8	Cu	0.116207	-1.064967	-0.098716
Cu9	Cu	0.116183	-1.064992	0.098600
O10	O	0.238472	-1.057802	-0.083472
C11	C	0.122135	-0.900154	-0.000047
C12	C	0.120361	-0.800072	-0.000041
C13	C	-0.037367	-1.071552	-0.000068
C14	C	-0.130615	-1.069768	-0.000068
C15	C	0.110255	-1.229806	-0.000067
C16	C	0.112029	-1.329887	-0.000067
C17	C	-0.345572	-0.979713	-0.000049
C18	C	-0.406532	-1.021521	-0.082317
C19	C	-0.301344	-1.066541	-0.000060
C20	C	-0.406536	-1.021563	0.082181
C21	C	-0.466260	-1.063416	-0.000048
C22	C	-0.361076	-1.108372	-0.082397
C23	C	-0.361074	-1.108402	0.082175
C24	C	-0.422017	-1.150273	-0.000113
C25	C	-0.206340	-1.068338	-0.000068
C26	C	-0.561263	-1.061626	-0.000048
C27	C	0.269756	-1.058407	-0.000046
C28	C	0.363004	-1.060191	-0.000039
N29	N	0.116224	-1.064956	-0.237498
C30	C	0.036354	-0.387646	-0.000070
C31	C	0.189369	-0.366169	-0.000057
C32	C	0.191037	-0.460201	-0.000054
C33	C	0.115362	-0.517960	-0.000057
C34	C	0.038019	-0.481687	-0.000064
C35	C	0.268379	-0.496480	-0.000037
C36	C	0.270050	-0.590517	-0.000033
C37	C	0.194374	-0.648278	-0.000043
C38	C	0.117028	-0.612000	-0.000051
C39	C	0.041353	-0.669759	-0.000054
C40	C	-0.035994	-0.633483	-0.000069
C41	C	-0.037657	-0.539448	-0.000074
C42	C	0.196036	-0.742313	-0.000038
C43	C	0.043018	-0.763800	-0.000048
C44	C	0.167206	-1.119682	-0.710110
C45	C	0.065126	-1.010330	-0.710100
C46	C	0.065139	-1.010316	-0.605081
C47	C	0.116185	-1.064988	-0.552572
C48	C	0.167218	-1.119673	-0.605082
C49	C	0.014100	-0.955640	-0.552564
C50	C	0.014111	-0.955625	-0.447539
C51	C	0.065162	-1.010293	-0.395028
C52	C	0.116198	-1.064979	-0.447544
C53	C	0.167244	-1.119650	-0.395035
C54	C	0.218285	-1.174332	-0.447549
C55	C	0.218270	-1.174340	-0.552571
C56	C	0.065178	-1.010285	-0.290007
C57	C	0.167257	-1.119641	-0.290007
N58	N	0.116159	-1.065011	0.237381
H59	H	-0.312344	-0.907643	-0.000126
H60	H	-0.100629	-0.509903	-0.000110
Br61	Br	-0.004105	-0.936101	-0.218742
Br62	Br	0.371074	-0.418091	-0.000011
H63	H	0.259843	-1.218850	-0.404783
H64	H	-0.340911	-1.145103	0.151725
Br65	Br	-0.327683	-1.169522	-0.198447
Br66	Br	0.375018	-0.639741	-0.000013
Br67	Br	-0.004151	-0.936140	-0.781362
H68	H	0.259011	-0.771845	-0.000027
Br69	Br	0.236546	-1.193834	-0.218753
Br70	Br	0.287537	-1.248541	-0.623845
H71	H	-0.027450	-0.911099	-0.404791
H72	H	-0.455095	-1.222407	-0.000165
H73	H	-0.027466	-0.911137	-0.595324
Br74	Br	-0.440107	-0.960342	0.198094
H75	H	-0.426673	-0.984788	-0.151864
H76	H	-0.018607	-0.810822	-0.000054
H77	H	0.208765	-1.164200	-0.752871
H78	H	-0.097609	-0.680523	-0.000065
Br79	Br	-0.068612	-0.338419	-0.000099
Br80	Br	0.292066	-0.287782	-0.000034
