data_functionalizedCrystal
_audit_creation_method	'MofGen! by Chris Wilmer'
_symmetry_space_group_name_H-M	'P1'
_symmetry_Int_Tables_number	1
_symmetry_cell_setting	triclinic
loop_
_symmetry_equiv_pos_as_xyz
  x,y,z
_cell_length_a	12.645331
_cell_length_b	18.101397
_cell_length_c	12.645323
_cell_angle_alpha	89.967526
_cell_angle_beta	89.977324
_cell_angle_gamma	90.019444
loop_
_atom_site_label
_atom_site_type_symbol
_atom_site_fract_x
_atom_site_fract_y
_atom_site_fract_z
Zn1	Zn	1.620711	-0.294844	-0.599390
Zn2	Zn	1.620584	-0.418694	-0.422107
Zn3	Zn	1.443425	-0.294869	-0.422135
Zn4	Zn	1.443399	-0.418646	-0.599322
O5	O	1.532030	-0.356763	-0.510738
O6	O	1.769041	-0.311283	-0.575890
O7	O	1.597042	-0.402299	-0.273763
O8	O	1.467007	-0.191233	-0.445688
O9	O	1.768948	-0.402275	-0.445641
O10	O	1.597258	-0.191214	-0.575917
O11	O	1.466884	-0.311325	-0.273784
O12	O	1.295075	-0.311278	-0.445622
O13	O	1.466961	-0.402193	-0.747679
O14	O	1.295055	-0.402217	-0.575801
O15	O	1.597232	-0.311236	-0.747729
O16	O	1.597016	-0.522321	-0.445575
O17	O	1.466838	-0.522285	-0.575774
C18	C	1.256600	-0.356746	-0.510708
C19	C	1.138770	-0.356756	-0.510720
C20	C	1.531939	-0.549174	-0.510687
C21	C	1.531997	-0.631488	-0.510701
C22	C	0.971183	-0.299283	-0.429276
C23	C	1.093743	-0.299432	-0.428917
C24	C	1.094244	-0.434770	-0.480190
C25	C	0.971646	-0.434456	-0.479635
C26	C	0.971622	-0.336957	-0.623008
C27	C	1.094228	-0.335215	-0.622384
C28	C	1.532132	-0.930579	-0.510797
C29	C	1.613808	-0.899245	-0.428660
C30	C	1.614091	-0.813627	-0.428873
C31	C	1.532065	-0.782196	-0.510748
C32	C	1.562356	-0.813201	-0.622490
C33	C	1.562988	-0.898846	-0.622043
C34	C	1.419948	-0.899087	-0.482160
C35	C	1.420502	-0.813438	-0.479666
C36	C	1.532026	-0.698337	-0.510728
C37	C	1.532175	-1.014438	-0.510826
C38	C	1.808535	-0.356781	-0.510770
C39	C	1.926365	-0.356789	-0.510783
C40	C	1.532108	-0.356706	-0.787244
C41	C	1.532141	-0.356682	-0.905074
C42	C	1.532150	-0.163601	-0.510813
C43	C	1.532201	-0.081287	-0.510845
C44	C	1.449935	-0.413633	-1.072607
C45	C	1.450150	-0.413915	-0.950047
C46	C	1.643839	-0.377863	-0.949590
C47	C	1.643388	-0.378220	-1.072188
C48	C	1.503705	-0.278231	-1.072287
C49	C	1.501213	-0.278701	-0.949680
C50	C	1.532013	-0.356767	-0.235309
C51	C	1.532185	-0.356583	-0.117479
H52	H	1.123847	-0.241582	-0.448055
H53	H	0.940729	-0.281063	-0.650770
H54	H	1.696454	-0.920714	-0.447390
H55	H	1.706748	-0.338471	-1.101874
H56	H	1.595140	-0.792667	-0.346018
H57	H	0.940334	-0.312246	-0.346603
H58	H	1.123336	-0.277805	-0.645405
H59	H	1.667529	-0.435497	-1.100788
H60	H	1.595085	-0.919890	-0.345557
H61	H	1.697191	-0.793084	-0.447820
H62	H	0.942640	-0.378842	-0.683738
H63	H	1.706764	-0.337625	-0.920462
H64	H	1.359094	-0.919351	-0.541984
H65	H	1.668394	-0.434540	-0.918890
H66	H	1.468552	-0.471356	-1.103415
H67	H	1.423673	-0.258923	-1.103195
H68	H	1.419013	-0.262727	-0.920584
H69	H	1.644990	-0.918766	-0.646300
H70	H	1.468951	-0.472001	-0.920722
H71	H	0.941998	-0.478752	-0.536411
H72	H	1.124883	-0.374044	-0.686362
H73	H	1.506106	-0.919571	-0.685350
H74	H	1.504687	-0.792840	-0.685334
H75	H	1.556744	-0.233948	-0.919067
H76	H	1.123411	-0.478761	-0.537692
H77	H	1.563612	-0.235726	-1.101308
H78	H	1.643440	-0.791694	-0.647158
H79	H	1.123020	-0.312540	-0.345755
H80	H	0.941723	-0.241259	-0.448208
H81	H	1.392393	-0.920749	-0.402091
H82	H	0.942999	-0.451274	-0.397592
H83	H	1.124898	-0.451877	-0.399029
H84	H	1.397662	-0.793181	-0.397433
H85	H	1.356374	-0.792050	-0.535110
H86	H	1.366861	-0.400505	-1.102083
H87	H	1.367322	-0.400660	-0.919947
