data_functionalizedCrystal
_audit_creation_method	'MofGen! by Chris Wilmer'
_symmetry_space_group_name_H-M	'P1'
_symmetry_Int_Tables_number	1
_symmetry_cell_setting	triclinic
loop_
_symmetry_equiv_pos_as_xyz
  x,y,z
_cell_length_a	13.635800
_cell_length_b	27.923496
_cell_length_c	17.982626
_cell_angle_alpha	100.753940
_cell_angle_beta	102.445917
_cell_angle_gamma	81.036054
loop_
_atom_site_label
_atom_site_type_symbol
_atom_site_fract_x
_atom_site_fract_y
_atom_site_fract_z
V1	V	1.861061	-0.067593	-0.238035
O2	O	1.869389	0.002768	-0.233009
O3	O	1.826637	-0.133564	-0.236884
O4	O	1.775551	-0.066764	-0.341633
O5	O	1.920829	-0.064494	-0.127534
V6	V	2.112145	-0.059152	-0.224761
O7	O	1.971242	-0.086109	-0.267155
O8	O	2.227062	-0.040636	-0.195641
O9	O	2.034966	0.006819	-0.225912
O10	O	2.162516	-0.129513	-0.229787
O11	O	2.111076	-0.062251	-0.335262
O12	O	2.086052	-0.059981	-0.121163
V13	V	2.361061	-0.067593	-0.238035
O14	O	2.369389	0.002768	-0.233009
O15	O	2.326637	-0.133564	-0.236884
O16	O	2.275551	-0.066764	-0.341633
O17	O	2.420829	-0.064494	-0.127534
V18	V	2.612145	-0.059152	-0.224761
O19	O	2.471242	-0.086109	-0.267155
O20	O	2.727062	-0.040636	-0.195641
O21	O	2.534966	0.006819	-0.225912
O22	O	2.662516	-0.129513	-0.229787
O23	O	2.611076	-0.062251	-0.335262
O24	O	2.586052	-0.059981	-0.121163
C25	C	1.748633	-0.149639	-0.233252
C26	C	1.760722	-0.203573	-0.233001
C27	C	1.924147	-0.540505	-0.235348
C28	C	1.969623	-0.743212	-0.234442
O29	O	2.050657	-0.771534	-0.237606
N30	N	1.886926	-0.766079	-0.230505
C31	C	1.792852	-0.738267	-0.226801
O32	O	1.723554	-0.762369	-0.223440
C33	C	1.747376	-0.535561	-0.227713
C34	C	1.830081	-0.512696	-0.231642
C35	C	2.006846	-0.517640	-0.239277
C36	C	1.995478	-0.466966	-0.239500
C37	C	1.901412	-0.439157	-0.235793
C38	C	1.818714	-0.462022	-0.231864
C39	C	1.653301	-0.507750	-0.224014
C40	C	1.641938	-0.457071	-0.224244
C41	C	1.724644	-0.434206	-0.228173
C42	C	1.713280	-0.383539	-0.228380
N43	N	1.795977	-0.360672	-0.232316
C44	C	1.890043	-0.388481	-0.236023
C45	C	1.816734	-0.844690	-0.226320
C46	C	1.828103	-0.895366	-0.226091
C47	C	2.004873	-0.900308	-0.233733
C48	C	1.993505	-0.849631	-0.233957
C49	C	1.899431	-0.821823	-0.230257
C50	C	1.866163	-0.282061	-0.236489
C51	C	1.854788	-0.231382	-0.236708
C52	C	1.678018	-0.226444	-0.229070
C53	C	1.689393	-0.277119	-0.228847
C54	C	1.783473	-0.304926	-0.232559
O55	O	1.632276	-0.355187	-0.225226
O56	O	1.959322	-0.364371	-0.239400
C57	C	1.935515	-0.591179	-0.235126
C58	C	1.852817	-0.614045	-0.231197
C59	C	1.758751	-0.586236	-0.227490
C60	C	1.864186	-0.664721	-0.230967
C61	C	1.958252	-0.692530	-0.234674
C62	C	2.040949	-0.669662	-0.238610
C63	C	2.029581	-0.618988	-0.238833
C64	C	1.676054	-0.609103	-0.223554
C65	C	1.687429	-0.659777	-0.223331
C66	C	1.781495	-0.687586	-0.227038
C67	C	1.683468	-0.064429	-0.366869
C68	C	1.654128	-0.064187	-0.451564
C69	C	1.944641	0.022892	-0.229542
C70	C	1.922169	0.076825	-0.229798
C71	C	2.009808	-0.062318	-0.095923
C72	C	2.028768	-0.062556	-0.011227
C73	C	2.183468	-0.064429	-0.366869
C74	C	2.154128	-0.064187	-0.451564
C75	C	1.646489	-0.108530	-0.502544
C76	C	1.618936	-0.108310	-0.582126
C77	C	1.599014	-0.063748	-0.610727
C78	C	1.606657	-0.019403	-0.559741
C79	C	1.634217	-0.019623	-0.480161
C80	C	1.948670	-0.065101	0.024669
C81	C	1.966493	-0.065331	0.104248
C82	C	2.064417	-0.063019	0.147930
C83	C	2.144520	-0.060473	0.112029
C84	C	2.126695	-0.060240	0.032452
C85	C	2.216408	-0.061412	0.432956
C86	C	2.234228	-0.061646	0.512538
C87	C	2.056207	-0.066503	0.504752
C88	C	2.038382	-0.066270	0.425175
C89	C	2.118485	-0.063721	0.389282
C90	C	2.099157	-0.063471	0.302993
C91	C	2.083746	-0.063272	0.234217
C92	C	2.248633	-0.149639	-0.233252
C93	C	2.260722	-0.203573	-0.233001
C94	C	2.444641	0.022892	-0.229542
C95	C	2.422169	0.076825	-0.229798
C96	C	2.509808	-0.062318	-0.095923
C97	C	2.528768	-0.062556	-0.011227
C98	C	2.354788	-0.231382	-0.236708
C99	C	2.366156	-0.282059	-0.236484
C100	C	2.283459	-0.304926	-0.232548
C101	C	2.189385	-0.277114	-0.228843
C102	C	2.178016	-0.226438	-0.229073
C103	C	2.500596	0.104633	-0.226093
C104	C	2.479497	0.155311	-0.226321
C105	C	2.379969	0.178178	-0.230259
C106	C	2.301538	0.150365	-0.233961
C107	C	2.322638	0.099690	-0.233728
C108	C	2.448655	-0.065094	0.024657
C109	C	2.466454	-0.065313	0.104239
C110	C	2.564369	-0.062997	0.147934
C111	C	2.644487	-0.060458	0.112045
C112	C	2.626686	-0.060236	0.032465
H113	H	1.922142	-0.212767	-0.239904
H114	H	2.292731	-0.346190	-0.232361
H115	H	1.662703	-0.144819	-0.479269
Br116	Br	2.132535	-0.938059	-0.238766
H117	H	2.581642	0.086022	-0.222887
Br118	Br	2.050345	-0.188702	-0.224036
H119	H	2.368921	-0.066979	-0.010910
Br120	Br	1.715860	-0.926389	-0.220737
H121	H	2.724209	-0.058572	0.147634
H122	H	1.640428	0.016487	-0.438657
Br123	Br	2.235401	-0.056778	-0.016263
H124	H	1.620075	-0.678389	-0.220126
Br125	Br	1.608568	-0.168498	-0.651305
Br126	Br	2.585953	0.193045	-0.221295
H127	H	2.122058	-0.295740	-0.225638
H128	H	1.576570	-0.063576	-0.675528
Br129	Br	2.351350	0.246953	-0.230572
Br130	Br	1.689052	-0.806958	-0.221295
H131	H	1.958645	-0.068154	0.389612
Br132	Br	2.216187	0.061955	-0.238757
Br133	Br	2.166471	0.181408	-0.239299
H134	H	2.281635	-0.059335	0.403741
Br135	Br	1.579610	0.041071	-0.598569
Br136	Br	2.357710	-0.068762	0.152927
Br137	Br	2.735429	-0.056799	-0.016226
H138	H	2.578852	-0.063185	0.212730
H139	H	1.942770	-0.304696	-0.239513
H140	H	2.062825	-0.448354	-0.242704
H141	H	1.901270	-0.067409	0.133469
Br142	Br	1.541050	-0.538767	-0.218670
Br143	Br	2.134521	-0.555371	-0.244310
Br144	Br	1.815771	-0.068244	-0.034607
H145	H	2.060853	-0.831017	-0.237155
Br146	Br	2.467034	-0.200360	-0.242056
H147	H	1.990984	-0.068576	0.533986
Br148	Br	2.277416	-0.057333	0.171311
Br149	Br	1.514258	-0.419335	-0.219227
H150	H	1.622045	-0.295737	-0.225653
Br151	Br	2.168613	-0.707413	-0.243634
Br152	Br	2.367132	-0.058510	0.571820
Br153	Br	1.550364	-0.188693	-0.224028
H154	H	2.096930	-0.600376	-0.242031
H155	H	1.599454	-0.586465	-0.220536
H156	H	2.442764	-0.304697	-0.239499
