data_functionalizedCrystal
_audit_creation_method	'MofGen! by Chris Wilmer'
_symmetry_space_group_name_H-M	'P1'
_symmetry_Int_Tables_number	1
_symmetry_cell_setting	triclinic
loop_
_symmetry_equiv_pos_as_xyz
  x,y,z
_cell_length_a	21.295417
_cell_length_b	21.295420
_cell_length_c	12.827885
_cell_angle_alpha	89.977525
_cell_angle_beta	90.038100
_cell_angle_gamma	89.975452
loop_
_atom_site_label
_atom_site_type_symbol
_atom_site_fract_x
_atom_site_fract_y
_atom_site_fract_z
Zn1	Zn	-0.250679	-0.962335	0.590877
Zn2	Zn	0.249321	-0.462335	1.090877
Zn3	Zn	-0.355961	-0.962243	0.416112
Zn4	Zn	0.144039	-0.462243	0.916112
Zn5	Zn	-0.250699	-0.857064	0.416141
Zn6	Zn	0.249301	-0.357064	0.916141
Zn7	Zn	-0.355903	-0.857028	0.590803
Zn8	Zn	0.144097	-0.357028	1.090803
O9	O	-0.303310	-0.909668	0.503483
O10	O	0.196690	-0.409668	1.003483
O11	O	-0.264661	-1.050412	0.567714
O12	O	0.235339	-0.550412	1.067714
O13	O	-0.342030	-0.948268	0.269880
O14	O	0.157970	-0.448268	0.769880
O15	O	-0.162607	-0.871082	0.439364
O16	O	0.337393	-0.371082	0.939364
O17	O	-0.342011	-1.050345	0.439315
O18	O	0.157989	-0.550345	0.939315
O19	O	-0.162592	-0.948424	0.567742
O20	O	0.337408	-0.448424	1.067742
O21	O	-0.264694	-0.870993	0.269901
O22	O	0.235306	-0.370993	0.769901
O23	O	-0.264638	-0.768970	0.439291
O24	O	0.235362	-0.268970	0.939291
O25	O	-0.341912	-0.871020	0.737049
O26	O	0.158088	-0.371020	1.237049
O27	O	-0.341932	-0.768943	0.567614
O28	O	0.158068	-0.268943	1.067614
O29	O	-0.264605	-0.948389	0.737104
O30	O	0.235395	-0.448389	1.237104
O31	O	-0.444043	-0.948233	0.439242
O32	O	0.055957	-0.448233	0.939242
O33	O	-0.444000	-0.870931	0.567586
O34	O	0.056000	-0.370931	1.067586
C35	C	-0.303281	-0.746116	0.503448
C36	C	0.196719	-0.246116	1.003448
C37	C	-0.303284	-0.676148	0.503458
C38	C	0.196716	-0.176148	1.003458
C39	C	-0.466862	-0.909585	0.503426
C40	C	0.033138	-0.409585	1.003426
C41	C	-0.536830	-0.909607	0.503436
C42	C	-0.036830	-0.409607	1.003436
C43	C	-0.263107	-0.176724	0.570440
C44	C	0.236893	0.323276	1.070440
C45	C	-0.263104	-0.242467	0.570443
C46	C	0.236896	0.257533	1.070443
C47	C	-0.303310	-0.275308	0.503486
C48	C	0.196690	0.224692	1.003486
C49	C	-0.343534	-0.242402	0.436542
C50	C	0.156466	0.257598	0.936542
C51	C	-0.343540	-0.176661	0.436549
C52	C	0.156460	0.323339	0.936549
N53	N	-0.308065	-0.378501	0.411986
N54	N	0.191935	0.121499	0.911986
N55	N	-0.308055	-0.440953	0.411982
N56	N	0.191945	0.059047	0.911982
C57	C	-0.303295	-0.473383	0.503462
C58	C	0.196705	0.026617	1.003462
N59	N	-0.298533	-0.441003	0.594948
N60	N	0.201467	0.058997	1.094948
N61	N	-0.298539	-0.378545	0.594951
N62	N	0.201461	0.121455	1.094951
C63	C	-0.303308	-0.346594	0.503472
C64	C	0.196692	0.153406	1.003472
C65	C	-0.263075	-0.577567	0.570410
C66	C	0.236925	-0.077567	1.070410
C67	C	-0.263077	-0.643311	0.570414
C68	C	0.236923	-0.143311	1.070414
C69	C	-0.343503	-0.643245	0.436504
C70	C	0.156497	-0.143245	0.936504
C71	C	-0.343504	-0.577502	0.436509
C72	C	0.156496	-0.077502	0.936509
C73	C	-0.303287	-0.544667	0.503461
C74	C	0.196713	-0.044667	1.003461
C75	C	-0.569698	-0.949894	0.436675
C76	C	-0.069698	-0.449894	0.936675
C77	C	-0.635440	-0.949923	0.436699
C78	C	-0.135440	-0.449923	0.936699
C79	C	-0.668313	-0.909655	0.503472
C80	C	-0.168313	-0.409655	1.003472
C81	C	-0.635437	-0.869366	0.570245
C82	C	-0.135437	-0.369366	1.070245
C83	C	-0.569696	-0.869342	0.570227
C84	C	-0.069696	-0.369342	1.070227
N85	N	-0.771572	-0.854588	0.511427
N86	N	-0.271572	-0.354588	1.011427
N87	N	-0.834023	-0.854612	0.511438
N88	N	-0.334023	-0.354612	1.011438
C89	C	-0.866387	-0.909726	0.503532
C90	C	-0.366387	-0.409726	1.003532
N91	N	-0.833940	-0.964815	0.495594
N92	N	-0.333940	-0.464815	0.995594
N93	N	-0.771483	-0.964790	0.495578
N94	N	-0.271483	-0.464790	0.995578
C95	C	-0.739598	-0.909677	0.503499
C96	C	-0.239598	-0.409677	1.003499
C97	C	-0.970541	-0.950048	0.436793
C98	C	-0.470541	-0.450048	0.936793
C99	C	-1.036284	-0.950078	0.436824
C100	C	-0.536284	-0.450078	0.936824
C101	C	-1.036279	-0.869515	0.570365
C102	C	-0.536279	-0.369515	1.070365
C103	C	-0.970537	-0.869490	0.570339
C104	C	-0.470537	-0.369490	1.070339
C105	C	-0.937671	-0.909755	0.503548
C106	C	-0.437671	-0.409755	1.003548
C107	C	-0.139120	-0.909768	0.503564
C108	C	0.360880	-0.409768	1.003564
C109	C	-0.069152	-0.909810	0.503599
C110	C	0.430848	-0.409810	1.003599
C111	C	-0.303250	-0.909710	0.776054
C112	C	0.196750	-0.409710	1.276054
C113	C	-0.303224	-0.909729	0.892207
C114	C	0.196776	-0.409729	1.392207
C115	C	-0.303332	-0.073858	0.503511
C116	C	0.196668	0.426142	1.003511
C117	C	-0.303322	-0.143826	0.503501
C118	C	0.196678	0.356174	1.003501
C119	C	-0.303325	-0.909661	0.231974
C120	C	0.196675	-0.409661	0.731974
C121	C	-0.303174	-0.909765	0.115821
C122	C	0.196826	-0.409765	0.615821
C123	C	-0.264962	-0.948017	0.944019
C124	C	0.235038	-0.448017	1.444019
C125	C	-0.264935	-0.948037	1.064069
C126	C	0.235065	-0.448037	1.564069
H127	H	-0.230361	-0.149994	0.624962
H128	H	0.269639	0.350006	1.124962
C129	C	-0.220732	-0.992282	0.883881
C130	C	0.279268	-0.492282	1.383881
N131	N	-0.187417	-1.025624	0.838587
N132	N	0.312583	-0.525624	1.338587
H133	H	-0.230328	-0.550831	0.624926
H134	H	0.269672	-0.050831	1.124926
C135	C	-0.387758	-0.278529	0.362886
C136	C	0.112242	0.221471	0.862886
N137	N	-0.421070	-0.305740	0.307406
N138	N	0.078930	0.194260	0.807406
C139	C	-0.347430	-0.865476	1.055636
C140	C	0.152570	-0.365476	1.555636
N141	N	-0.380764	-0.832117	1.010298
N142	N	0.119236	-0.332117	1.510298
C143	C	-0.387732	-0.679367	0.362853
C144	C	0.112268	-0.179367	0.862853
N145	N	-0.421047	-0.706577	0.307379
N146	N	0.078953	-0.206577	0.807379
H147	H	-0.232179	-0.980820	1.108626
H148	H	0.267821	-0.480820	1.608626
H149	H	-0.943780	-0.982836	0.382411
H150	H	-0.443780	-0.482836	0.882411
H151	H	-0.230353	-0.269258	0.624952
H152	H	0.269647	0.230742	1.124952
H153	H	-0.376250	-0.550716	0.381995
H154	H	0.123750	-0.050716	0.881995
H155	H	-0.376289	-0.149875	0.382037
H156	H	0.123711	0.350125	0.882037
H157	H	-0.335957	-0.876959	0.936726
H158	H	0.164043	-0.376959	1.436726
H159	H	-0.230330	-0.670096	0.624932
H160	H	0.269670	-0.170096	1.124932
C161	C	-0.671602	-0.994240	0.363249
C162	C	-0.171602	-0.494240	0.863249
N163	N	-0.698838	-1.027619	0.307924
N164	N	-0.198838	-0.527619	0.807924
C165	C	-0.533550	-0.994181	0.363192
C166	C	-0.033550	-0.494181	0.863192
N167	N	-0.506322	-1.027535	0.307838
N168	N	-0.006322	-0.527535	0.807838
H169	H	-0.662206	-0.836580	0.624614
H170	H	-0.162206	-0.336580	1.124614
H171	H	-0.542934	-0.836535	0.624593
H172	H	-0.042934	-0.336535	1.124593
H173	H	-1.063044	-0.982888	0.382462
H174	H	-0.563044	-0.482888	0.882462
H175	H	-0.943774	-0.836682	0.624698
H176	H	-0.443774	-0.336682	1.124698
C177	C	-1.072435	-0.825220	0.643818
C178	C	-0.572435	-0.325220	1.143818
N179	N	-1.099671	-0.791857	0.699147
N180	N	-0.599671	-0.291857	1.199147
