data_functionalizedCrystal
_audit_creation_method	'MofGen! by Chris Wilmer'
_symmetry_space_group_name_H-M	'P1'
_symmetry_Int_Tables_number	1
_symmetry_cell_setting	triclinic
loop_
_symmetry_equiv_pos_as_xyz
  x,y,z
_cell_length_a	14.971491
_cell_length_b	17.019294
_cell_length_c	13.448316
_cell_angle_alpha	86.114424
_cell_angle_beta	89.991393
_cell_angle_gamma	83.504855
loop_
_atom_site_label
_atom_site_type_symbol
_atom_site_fract_x
_atom_site_fract_y
_atom_site_fract_z
O1	O	1.186689	0.102820	-0.091537
O2	O	0.926259	0.115127	-0.092583
O3	O	1.063739	-0.005853	-0.082223
O4	O	1.049209	0.223800	-0.101897
O5	O	1.063721	-0.005860	0.083161
O6	O	0.926242	0.115119	0.072801
O7	O	1.186672	0.102813	0.073847
Cu8	Cu	1.056455	0.108965	0.088425
Cu9	Cu	1.056476	0.108974	-0.107161
O10	O	1.049192	0.223792	0.063487
C11	C	0.892927	0.114572	-0.009843
C12	C	0.793634	0.112920	-0.009699
C13	C	0.365956	0.105798	-0.099262
C14	C	0.459252	0.107348	-0.099391
C15	C	0.505887	0.108123	-0.009303
C16	C	0.459221	0.107342	0.080920
C17	C	0.365927	0.105787	0.081048
C18	C	0.653675	0.110585	0.080646
C19	C	0.746975	0.112141	0.080518
C20	C	0.747000	0.112145	-0.099794
C21	C	0.653706	0.110591	-0.099665
C22	C	0.607047	0.109810	-0.009442
C23	C	1.063179	-0.035246	0.002985
C24	C	1.061526	-0.122818	0.010481
C25	C	1.060761	-0.163951	-0.076148
C26	C	1.059202	-0.246234	-0.069102
C27	C	1.058414	-0.287383	0.024574
C28	C	1.059177	-0.246244	0.111209
C29	C	1.060729	-0.163962	0.104162
C30	C	1.053720	-0.535821	0.050363
C31	C	1.052170	-0.618109	0.057404
C32	C	1.052193	-0.618094	-0.122909
C33	C	1.053751	-0.535811	-0.129948
C34	C	1.054509	-0.494678	-0.043313
C35	C	1.056823	-0.371490	0.031779
C36	C	1.056093	-0.410572	-0.050518
C37	C	1.220004	0.103368	-0.008895
C38	C	1.319296	0.105019	-0.009046
C39	C	1.049752	0.253186	-0.021723
C40	C	1.051405	0.340758	-0.029225
N41	N	1.056447	0.108959	0.225990
N42	N	1.056490	0.108975	-0.244725
C43	C	1.117342	0.055411	0.282616
C44	C	1.117348	0.055410	0.386719
C45	C	1.056462	0.108962	0.434194
C46	C	0.995561	0.162512	0.377561
C47	C	0.995552	0.162508	0.273460
C48	C	0.995586	0.162517	0.594541
C49	C	0.995596	0.162522	0.698649
C50	C	1.117382	0.055419	0.707800
C51	C	1.117373	0.055416	0.603699
C52	C	1.056472	0.108967	0.547073
H53	H	0.327992	0.105172	-0.172623
N54	N	0.794644	0.112929	-0.191964
N55	N	0.752996	0.112238	-0.272393
H56	H	0.786646	0.112794	-0.337487
H57	H	1.058530	-0.279753	0.187483
N58	N	0.318276	0.105002	0.173210
N59	N	0.320369	0.160737	0.228798
H60	H	0.286717	0.160180	0.293892
N61	N	1.179617	0.000752	0.555214
N62	N	1.234014	-0.047033	0.605779
H63	H	1.277990	-0.085628	0.571537
N64	N	1.179520	0.000678	0.444553
N65	N	1.151180	-0.048337	0.506820
H66	H	1.195082	-0.087009	0.547658
H67	H	1.166926	0.011807	0.243969
H68	H	0.497199	0.107968	0.154271
H69	H	0.946015	0.206128	0.737297
N70	N	0.606073	0.109781	-0.191686
N71	N	0.562339	0.053348	-0.206961
H72	H	0.528699	0.052772	-0.271952
N73	N	0.506925	0.108143	-0.191538
N74	N	0.550687	0.164561	-0.216492
H75	H	0.584361	0.165116	-0.281571
H76	H	0.615686	0.109959	0.154114
H77	H	1.166969	0.011816	0.753911
N78	N	0.933368	0.217220	0.536712
N79	N	0.879012	0.265033	0.579109
H80	H	0.835074	0.303669	0.538268
H81	H	0.784941	0.112777	0.153875
H82	H	1.061407	-0.130454	-0.152429
N83	N	0.933351	0.217219	0.215629
N84	N	0.934480	0.290135	0.220998
H85	H	0.890547	0.328776	0.180157
N86	N	1.054486	-0.493814	0.138857
N87	N	0.991287	-0.495804	0.199393
H88	H	0.991828	-0.466135	0.261897
H89	H	0.945982	0.206112	0.416221
H90	H	1.058582	-0.279721	-0.139644
H91	H	1.051575	-0.651592	-0.193442
N92	N	1.054557	-0.493793	-0.225644
N93	N	1.053872	-0.530529	-0.302986
H94	H	1.054443	-0.500855	-0.370574
N95	N	1.051360	-0.660130	0.153105
N96	N	1.052032	-0.623396	0.230449
H97	H	1.051458	-0.653073	0.298035
N98	N	1.061501	-0.121954	0.192661
N99	N	1.060794	-0.158700	0.276295
H100	H	1.061333	-0.129033	0.338802
N101	N	1.056909	-0.368532	-0.146195
N102	N	1.120798	-0.329824	-0.169609
H103	H	1.121378	-0.300125	-0.237181
N104	N	1.056029	-0.413513	0.127473
N105	N	1.056717	-0.376783	0.204819
H106	H	1.056152	-0.406462	0.272404
