data_functionalizedCrystal
_audit_creation_method	'MofGen! by Chris Wilmer'
_symmetry_space_group_name_H-M	'P1'
_symmetry_Int_Tables_number	1
_symmetry_cell_setting	triclinic
loop_
_symmetry_equiv_pos_as_xyz
  x,y,z
_cell_length_a	29.839134
_cell_length_b	29.839131
_cell_length_c	29.839125
_cell_angle_alpha	90.017709
_cell_angle_beta	90.021980
_cell_angle_gamma	90.036281
loop_
_atom_site_label
_atom_site_type_symbol
_atom_site_fract_x
_atom_site_fract_y
_atom_site_fract_z
Zn1	Zn	0.686720	-0.178978	0.254125
Zn2	Zn	1.186720	0.321022	0.754125
Zn3	Zn	0.686652	-0.254090	0.178995
Zn4	Zn	1.186652	0.245910	0.678995
Zn5	Zn	0.611602	-0.178968	0.178995
Zn6	Zn	1.111602	0.321032	0.678995
Zn7	Zn	0.611550	-0.254075	0.254083
Zn8	Zn	1.111550	0.245925	0.754083
O9	O	0.649131	-0.216528	0.216549
O10	O	1.149131	0.283472	0.716549
O11	O	0.749578	-0.188952	0.244176
O12	O	1.249578	0.311048	0.744176
O13	O	0.676690	-0.244127	0.116128
O14	O	1.176690	0.255873	0.616128
O15	O	0.621617	-0.116102	0.188978
O16	O	1.121617	0.383898	0.688978
O17	O	0.749528	-0.244137	0.188979
O18	O	1.249528	0.255863	0.688979
O19	O	0.676805	-0.116109	0.244176
O20	O	1.176805	0.383891	0.744176
O21	O	0.621551	-0.188935	0.116127
O22	O	1.121551	0.311065	0.616127
O23	O	0.548728	-0.188921	0.188938
O24	O	1.048728	0.311079	0.688938
O25	O	0.621528	-0.244111	0.316956
O26	O	1.121528	0.255889	0.816956
O27	O	0.548690	-0.244101	0.244105
O28	O	1.048690	0.255899	0.744105
O29	O	0.676755	-0.188937	0.316987
O30	O	1.176755	0.311063	0.816987
O31	O	0.676639	-0.316955	0.188938
O32	O	1.176639	0.183045	0.688938
O33	O	0.621462	-0.316944	0.244105
O34	O	1.121462	0.183056	0.744105
C35	C	0.532408	-0.216509	0.216517
C36	C	1.032408	0.283491	0.716517
C37	C	0.482474	-0.216511	0.216514
C38	C	0.982474	0.283489	0.716514
C39	C	0.649050	-0.333250	0.216527
C40	C	1.149050	0.166750	0.716527
C41	C	0.649056	-0.383185	0.216533
C42	C	1.149056	0.116815	0.716533
C43	C	0.172820	-0.245303	0.245240
C44	C	0.672820	0.254697	0.745240
C45	C	-0.014853	-0.245315	0.245260
C46	C	0.485147	0.254685	0.745260
O47	O	-0.039127	-0.269774	0.269665
O48	O	0.460873	0.230226	0.769665
N49	N	-0.038311	-0.216544	0.216583
N50	N	0.461689	0.283456	0.716583
C51	C	-0.014848	-0.187766	0.187902
C52	C	0.485152	0.312234	0.687902
O53	O	-0.039107	-0.163291	0.163514
O54	O	0.460893	0.336709	0.663514
C55	C	0.172824	-0.187751	0.187884
C56	C	0.672824	0.312249	0.687884
C57	C	0.196280	-0.216527	0.216560
C58	C	0.696280	0.283473	0.716560
C59	C	0.196276	-0.274076	0.273913
C60	C	0.696276	0.225924	0.773913
C61	C	0.243191	-0.274075	0.273906
C62	C	0.743191	0.225925	0.773906
C63	C	0.266651	-0.245299	0.245226
C64	C	0.766651	0.254701	0.745226
C65	C	0.243195	-0.216526	0.216553
C66	C	0.743195	0.283474	0.716553
C67	C	0.196286	-0.158971	0.159205
C68	C	0.696286	0.341029	0.659205
C69	C	0.243207	-0.158969	0.159204
C70	C	0.743207	0.341031	0.659204
C71	C	0.266663	-0.187745	0.187880
C72	C	0.766663	0.312255	0.687880
C73	C	0.313570	-0.187749	0.187865
C74	C	0.813570	0.312251	0.687865
N75	N	0.337029	-0.216520	0.216542
N76	N	0.837029	0.283480	0.716542
C77	C	0.313569	-0.245295	0.245222
C78	C	0.813569	0.254705	0.745222
C79	C	-0.113379	-0.187776	0.187912
C80	C	0.386621	0.312224	0.687912
C81	C	-0.160297	-0.187780	0.187916
C82	C	0.339703	0.312220	0.687916
C83	C	-0.160298	-0.245329	0.245275
C84	C	0.339702	0.254671	0.745275
C85	C	-0.113380	-0.245327	0.245269
C86	C	0.386620	0.254673	0.745269
C87	C	-0.089921	-0.216547	0.216589
C88	C	0.410079	0.283453	0.716589
C89	C	0.412095	-0.245290	0.245205
C90	C	0.912095	0.254710	0.745205
C91	C	0.459014	-0.245287	0.245194
C92	C	0.959014	0.254713	0.745194
C93	C	0.459012	-0.187736	0.187837
C94	C	0.959012	0.312264	0.687837
C95	C	0.412096	-0.187740	0.187846
C96	C	0.912096	0.312260	0.687846
C97	C	0.388639	-0.216519	0.216534
C98	C	0.888639	0.283481	0.716534
O99	O	0.337873	-0.163299	0.163477
O100	O	0.837873	0.336701	0.663477
O101	O	0.337836	-0.269759	0.269613
O102	O	0.837836	0.230241	0.769613
C103	C	0.125905	-0.245304	0.245247
C104	C	0.625905	0.254696	0.745247
C105	C	0.102449	-0.216531	0.216574
C106	C	0.602449	0.283469	0.716574
C107	C	0.125909	-0.187755	0.187893
C108	C	0.625909	0.312245	0.687893
C109	C	0.055531	-0.216535	0.216577
C110	C	0.555531	0.283465	0.716577
C111	C	0.032071	-0.245310	0.245258
C112	C	0.532071	0.254690	0.745258
C113	C	0.055529	-0.274082	0.273934
C114	C	0.555529	0.225918	0.773934
C115	C	0.102445	-0.274080	0.273927
C116	C	0.602445	0.225920	0.773927
C117	C	0.102451	-0.158984	0.159217
C118	C	0.602451	0.341016	0.659217
C119	C	0.055535	-0.158989	0.159226
C120	C	0.555535	0.341011	0.659226
C121	C	0.032075	-0.187764	0.187906
C122	C	0.532075	0.312236	0.687906
C123	C	0.677914	-0.692821	0.187866
C124	C	1.177914	-0.192821	0.687866
C125	C	0.677969	-0.880494	0.187883
C126	C	1.177969	-0.380494	0.687883
O127	O	0.702441	-0.904753	0.163493
O128	O	1.202441	-0.404753	0.663493
N129	N	0.649224	-0.903970	0.216583
N130	N	1.149224	-0.403970	0.716583
C131	C	0.620465	-0.880524	0.245283
C132	C	1.120465	-0.380524	0.745283
O133	O	0.596020	-0.904798	0.269698
O134	O	1.096020	-0.404798	0.769698
C135	C	0.620412	-0.692852	0.245268
C136	C	1.120412	-0.192852	0.745268
C137	C	0.649156	-0.669379	0.216563
C138	C	1.149156	-0.169379	0.716563
C139	C	0.706656	-0.669348	0.159164
C140	C	1.206656	-0.169348	0.659164
C141	C	0.706640	-0.622433	0.159158
C142	C	1.206640	-0.122433	0.659158
C143	C	0.677882	-0.598990	0.187854
C144	C	1.177882	-0.098990	0.687854
C145	C	0.649140	-0.622463	0.216557
C146	C	1.149140	-0.122463	0.716557
C147	C	0.591656	-0.669407	0.273969
C148	C	1.091656	-0.169407	0.773969
C149	C	0.591646	-0.622486	0.273964
C150	C	1.091646	-0.122486	0.773964
C151	C	0.620390	-0.599013	0.245259
C152	C	1.120390	-0.099013	0.745259
C153	C	0.620367	-0.552106	0.245248
C154	C	1.120367	-0.052106	0.745248
N155	N	0.649112	-0.528630	0.216548
N156	N	1.149112	-0.028630	0.716548
C157	C	0.677869	-0.552072	0.187851
C158	C	1.177869	-0.052072	0.687851
C159	C	0.620494	-0.979055	0.245289
C160	C	1.120494	-0.479055	0.745289
C161	C	0.620507	-1.025973	0.245292
C162	C	1.120507	-0.525973	0.745292
C163	C	0.678012	-1.025939	0.187893
C164	C	1.178012	-0.525939	0.687893
C165	C	0.677996	-0.979021	0.187887
C166	C	1.177996	-0.479021	0.687887
C167	C	0.649239	-0.955579	0.216589
C168	C	1.149239	-0.455579	0.716589
C169	C	0.677834	-0.453547	0.187841
C170	C	1.177834	0.046453	0.687841
C171	C	0.677814	-0.406627	0.187836
C172	C	1.177814	0.093373	0.687836
C173	C	0.620311	-0.406664	0.245237
C174	C	1.120311	0.093336	0.745237
C175	C	0.620329	-0.453580	0.245240
C176	C	1.120329	0.046420	0.745240
C177	C	0.649094	-0.477020	0.216540
C178	C	1.149094	0.022980	0.716540
O179	O	0.595912	-0.527818	0.269629
O180	O	1.095912	-0.027818	0.769629
O181	O	0.702318	-0.527791	0.163447
O182	O	1.202318	-0.027791	0.663447
C183	C	0.677930	-0.739737	0.187872
C184	C	1.177930	-0.239737	0.687872
C185	C	0.649188	-0.763210	0.216574
C186	C	1.149188	-0.263210	0.716574
C187	C	0.620430	-0.739767	0.245271
C188	C	1.120430	-0.239767	0.745271
C189	C	0.649200	-0.810128	0.216578
C190	C	1.149200	-0.310128	0.716578
C191	C	0.677958	-0.833570	0.187881
C192	C	1.177958	-0.333570	0.687881
C193	C	0.706703	-0.810094	0.159181
C194	C	1.206703	-0.310094	0.659181
C195	C	0.706687	-0.763179	0.159175
C196	C	1.206687	-0.263179	0.659175
C197	C	0.591685	-0.763243	0.273971
C198	C	1.091685	-0.263243	0.773971
C199	C	0.591703	-0.810158	0.273974
C200	C	1.091703	-0.310158	0.773974
C201	C	0.620461	-0.833601	0.245277
C202	C	1.120461	-0.333601	0.745277
C203	C	0.766309	-0.216547	0.216582
C204	C	1.266309	0.283453	0.716582
C205	C	0.816244	-0.216555	0.216596
C206	C	1.316244	0.283445	0.716596
C207	C	0.649143	-0.216524	0.333728
C208	C	1.149143	0.283476	0.833728
C209	C	0.649148	-0.216522	0.383662
C210	C	1.149148	0.283478	0.883662
C211	C	0.649225	-0.099349	0.216582
C212	C	1.149225	0.400651	0.716582
C213	C	0.649265	-0.049415	0.216595
C214	C	1.149265	0.450585	0.716595
C215	C	0.649145	-0.216499	0.099827
C216	C	1.149145	0.283501	0.599827
C217	C	0.649227	-0.216374	0.049893
C218	C	1.149227	0.283626	0.549893
C219	C	0.677935	-0.187718	0.693325
C220	C	1.177935	0.312282	1.193325
C221	C	0.677957	-0.187680	0.880998
C222	C	1.177957	0.312320	1.380998
O223	O	0.702399	-0.163232	0.905279
O224	O	1.202399	0.336768	1.405279
N225	N	0.649208	-0.216402	0.904448
N226	N	1.149208	0.283598	1.404448
C227	C	0.620449	-0.245133	0.880976
C228	C	1.120449	0.254867	1.380976
O229	O	0.595993	-0.269559	0.905228
O230	O	1.095993	0.230441	1.405228
C231	C	0.620424	-0.245169	0.693304
C232	C	1.120424	0.254831	1.193304
C233	C	0.649179	-0.216448	0.669857
C234	C	1.149179	0.283552	1.169857
C235	C	0.706687	-0.158999	0.669877
C236	C	1.206687	0.341001	1.169877
C237	C	0.706683	-0.159011	0.622962
C238	C	1.206683	0.340989	1.122962
C239	C	0.677927	-0.187741	0.599494
C240	C	1.177927	0.312259	1.099494
C241	C	0.649175	-0.216460	0.622941
C242	C	1.149175	0.283540	1.122941
C243	C	0.591663	-0.273898	0.669833
C244	C	1.091663	0.226102	1.169833
C245	C	0.591659	-0.273903	0.622912
C246	C	1.091659	0.226097	1.122912
C247	C	0.620414	-0.245183	0.599465
C248	C	1.120414	0.254817	1.099465
C249	C	0.620415	-0.245202	0.552558
C250	C	1.120415	0.254798	1.052558
N251	N	0.649164	-0.216480	0.529108
N252	N	1.149164	0.283520	1.029108
C253	C	0.677920	-0.187749	0.552576
C254	C	1.177920	0.312251	1.052576
C255	C	0.620464	-0.245113	0.979507
C256	C	1.120464	0.254887	1.479507
C257	C	0.620471	-0.245105	1.026425
C258	C	1.120471	0.254895	1.526425
C259	C	0.677979	-0.187650	1.026443
C260	C	1.177979	0.312350	1.526443
C261	C	0.677974	-0.187661	0.979524
C262	C	1.177974	0.312339	1.479524
C263	C	0.649214	-0.216391	0.956057
C264	C	1.149214	0.283609	1.456057
C265	C	0.677910	-0.187776	0.454050
C266	C	1.177910	0.312224	0.954050
C267	C	0.677904	-0.187792	0.407130
C268	C	1.177904	0.312208	0.907130
C269	C	0.620395	-0.245244	0.407116
C270	C	1.120395	0.254756	0.907116
C271	C	0.620401	-0.245230	0.454032
C272	C	1.120401	0.254770	0.954032
C273	C	0.649161	-0.216493	0.477497
C274	C	1.149161	0.283507	0.977497
O275	O	0.595982	-0.269633	0.528248
O276	O	1.095982	0.230367	1.028248
O277	O	0.702366	-0.163320	0.528316
O278	O	1.202366	0.336680	1.028316
C279	C	0.677939	-0.187706	0.740240
C280	C	1.177939	0.312294	1.240240
C281	C	0.649187	-0.216425	0.763688
C282	C	1.149187	0.283575	1.263688
C283	C	0.620431	-0.245155	0.740219
C284	C	1.120431	0.254845	1.240219
C285	C	0.649194	-0.216417	0.810605
C286	C	1.149194	0.283583	1.310605
C287	C	0.677950	-0.187686	0.834074
C288	C	1.177950	0.312314	1.334074
C289	C	0.706699	-0.158964	0.810624
C290	C	1.206699	0.341036	1.310624
C291	C	0.706695	-0.158976	0.763708
C292	C	1.206695	0.341024	1.263708
C293	C	0.591682	-0.273877	0.763669
C294	C	1.091682	0.226123	1.263669
C295	C	0.591689	-0.273864	0.810585
C296	C	1.091689	0.226136	1.310585
C297	C	0.620445	-0.245133	0.834053
C298	C	1.120445	0.254867	1.334053
H299	H	0.393001	-0.268723	0.268566
H300	H	0.893001	0.231277	0.768566
H301	H	0.597076	-0.959972	0.268661
H302	H	1.097076	-0.459972	0.768661
C303	C	0.484815	-0.276941	0.276740
C304	C	0.984815	0.223059	0.776740
C305	C	0.478328	-0.328007	0.272984
C306	C	0.978328	0.171993	0.772984
C307	C	0.504126	-0.359660	0.304530
C308	C	1.004126	0.140340	0.804530
C309	C	0.536411	-0.340246	0.339832
C310	C	1.036411	0.159754	0.839832
C311	C	0.542899	-0.289178	0.343590
C312	C	1.042899	0.210822	0.843590
C313	C	0.517101	-0.257525	0.312044
C314	C	1.017101	0.242475	0.812044
H315	H	0.454428	-0.342380	0.246849
H316	H	0.954428	0.157620	0.746849
H317	H	0.499323	-0.397464	0.301747
H318	H	0.999323	0.102536	0.801747
H319	H	0.555508	-0.363677	0.363184
H320	H	1.055508	0.136323	0.863184
H321	H	0.566799	-0.274804	0.369725
H322	H	1.066799	0.225196	0.869725
H323	H	0.521904	-0.219721	0.314827
H324	H	1.021904	0.280279	0.814827
H325	H	0.597097	-1.045080	0.268662
H326	H	1.097097	-0.545080	0.768662
H327	H	0.478121	-0.164309	0.164485
H328	H	0.978121	0.335691	0.664485
C329	C	0.709534	-0.156195	0.381339
C330	C	1.209534	0.343805	0.881339
C331	C	0.744789	-0.175673	0.349094
C332	C	1.244789	0.324327	0.849094
C333	C	0.776417	-0.144077	0.323304
C334	C	1.276417	0.355923	0.823304
C335	C	0.772790	-0.093004	0.329759
C336	C	1.272790	0.406996	0.829759
C337	C	0.737534	-0.073524	0.362005
C338	C	1.237534	0.426476	0.862005
C339	C	0.705906	-0.105119	0.387795
C340	C	1.205906	0.394881	0.887795
H341	H	0.747475	-0.213483	0.344315
H342	H	1.247475	0.286517	0.844315
H343	H	0.802516	-0.158498	0.299433
H344	H	1.302516	0.341502	0.799433
H345	H	0.796203	-0.069615	0.310668
H346	H	1.296203	0.430385	0.810668
H347	H	0.734848	-0.035714	0.366784
H348	H	1.234848	0.464286	0.866784
H349	H	0.679807	-0.090698	0.411666
H350	H	1.179807	0.409302	0.911666
H351	H	0.730115	-0.135573	0.829740
H352	H	1.230115	0.364427	1.329740
C353	C	0.588824	-0.276721	0.953701
C354	C	1.088824	0.223279	1.453701
C355	C	0.537758	-0.273046	0.960152
C356	C	1.037758	0.226954	1.460152
C357	C	0.506118	-0.304656	0.934351
C358	C	1.006118	0.195344	1.434351
C359	C	0.525544	-0.339942	0.902099
C360	C	1.025544	0.160058	1.402099
C361	C	0.576613	-0.343619	0.895646
C362	C	1.076613	0.156381	1.395646
C363	C	0.608253	-0.312009	0.921447
C364	C	1.108253	0.187991	1.421447
H365	H	0.523375	-0.246923	0.984029
H366	H	1.023375	0.253077	1.484029
H367	H	0.468313	-0.301934	0.939128
H368	H	0.968313	0.198066	1.439128
H369	H	0.502122	-0.363342	0.882999
H370	H	1.002122	0.136658	1.382999
H371	H	0.590996	-0.369742	0.871769
H372	H	1.090996	0.130258	1.371769
H373	H	0.646058	-0.314732	0.916670
H374	H	1.146058	0.185268	1.416670
C375	C	0.738292	-0.695129	0.127593
C376	C	1.238292	-0.195129	0.627593
C377	C	0.734655	-0.688691	0.076518
C378	C	1.234655	-0.188691	0.576518
C379	C	0.766291	-0.714468	0.044942
C380	C	1.266291	-0.214468	0.544942
C381	C	0.801564	-0.746681	0.064440
C382	C	1.301564	-0.246681	0.564440
C383	C	0.805202	-0.753120	0.115517
C384	C	1.305202	-0.253120	0.615517
C385	C	0.773566	-0.727344	0.147094
C386	C	1.273566	-0.227344	0.647094
H387	H	0.708543	-0.664844	0.062082
H388	H	1.208543	-0.164844	0.562082
H389	H	0.763597	-0.709701	0.007131
H390	H	1.263597	-0.209701	0.507131
H391	H	0.824982	-0.765762	0.041066
H392	H	1.324982	-0.265762	0.541066
H393	H	0.831314	-0.776968	0.129954
H394	H	1.331314	-0.276968	0.629954
H395	H	0.776259	-0.732110	0.184904
H396	H	1.276259	-0.232110	0.684904
C397	C	0.738324	-0.127380	0.737921
C398	C	1.238324	0.372620	1.237921
C399	C	0.734696	-0.076307	0.744382
C400	C	1.234696	0.423693	1.244382
C401	C	0.766326	-0.044708	0.718599
C402	C	1.266326	0.455292	1.218599
C403	C	0.801583	-0.064181	0.686354
C404	C	1.301583	0.435819	1.186354
C405	C	0.805212	-0.115256	0.679891
C406	C	1.305212	0.384744	1.179891
C407	C	0.773582	-0.146856	0.705674
C408	C	1.273582	0.353144	1.205674
H409	H	0.708596	-0.061889	0.768253
H410	H	1.208596	0.438111	1.268253
H411	H	0.763640	-0.006898	0.723383
H412	H	1.263640	0.493102	1.223383
H413	H	0.824997	-0.040790	0.667267
H414	H	1.324997	0.459210	1.167267
H415	H	0.831312	-0.129674	0.656020
H416	H	1.331312	0.370326	1.156020
H417	H	0.776269	-0.184665	0.700890
H418	H	1.276269	0.315335	1.200890
H419	H	-0.094285	-0.268759	0.268619
H420	H	0.405715	0.231241	0.768619
H421	H	0.121538	-0.297512	0.297278
H422	H	0.621538	0.202488	0.797278
H423	H	0.262305	-0.135529	0.135852
H424	H	0.762305	0.364471	0.635852
C425	C	0.588775	-0.276831	0.479820
C426	C	1.088775	0.223169	0.979820
C427	C	0.553515	-0.257360	0.512062
C428	C	1.053515	0.242640	1.012062
C429	C	0.521884	-0.288960	0.537843
C430	C	1.021884	0.211040	1.037843
C431	C	0.525514	-0.340033	0.531381
C432	C	1.025514	0.159967	1.031381
C433	C	0.560776	-0.359507	0.499137
C434	C	1.060776	0.140493	0.999137
C435	C	0.592406	-0.327906	0.473356
C436	C	1.092406	0.172094	0.973356
H437	H	0.550826	-0.219550	0.516847
H438	H	1.050826	0.280450	1.016847
H439	H	0.495781	-0.274544	0.561712
H440	H	0.995781	0.225456	1.061712
H441	H	0.502099	-0.363425	0.550466
H442	H	1.002099	0.136575	1.050466
H443	H	0.563464	-0.397316	0.494353
H444	H	1.063464	0.102684	0.994353
H445	H	0.618509	-0.342323	0.449487
H446	H	1.118509	0.157677	0.949487
H447	H	0.262285	-0.297506	0.297258
H448	H	0.762285	0.202494	0.797258
H449	H	0.177180	-0.297509	0.297271
H450	H	0.677180	0.202491	0.797271
C451	C	0.170490	-0.127315	0.127665
C452	C	0.670490	0.372685	0.627665
C453	C	0.138207	-0.146724	0.092357
C454	C	0.638207	0.353276	0.592357
C455	C	0.112409	-0.115067	0.060815
C456	C	0.612409	0.384933	0.560815
C457	C	0.118895	-0.064001	0.064581
C458	C	0.618895	0.435999	0.564581
C459	C	0.151179	-0.044590	0.099889
C460	C	0.651179	0.455410	0.599889
C461	C	0.176976	-0.076247	0.131431
C462	C	0.676976	0.423753	0.631431
H463	H	0.133405	-0.184528	0.089569
H464	H	0.633405	0.315472	0.589569
H465	H	0.088511	-0.129436	0.034678
H466	H	0.588511	0.370564	0.534678
H467	H	0.099798	-0.040567	0.041232
H468	H	0.599798	0.459433	0.541232
H469	H	0.155981	-0.006786	0.102678
H470	H	0.655981	0.493214	0.602678
H471	H	0.200875	-0.061878	0.157569
H472	H	0.700875	0.438122	0.657569
C473	C	0.560029	-0.305483	0.695624
C474	C	1.060029	0.194517	1.195624
C475	C	0.524781	-0.285991	0.727868
C476	C	1.024781	0.214009	1.227868
C477	C	0.493143	-0.317574	0.753660
C478	C	0.993143	0.182426	1.253660
C479	C	0.496753	-0.368650	0.747210
C480	C	0.996753	0.131350	1.247210
C481	C	0.532003	-0.388144	0.714964
C482	C	1.032003	0.111856	1.214964
C483	C	0.563641	-0.356561	0.689172
C484	C	1.063641	0.143439	1.189172
H485	H	0.522107	-0.248180	0.732644
H486	H	1.022107	0.251820	1.232644
H487	H	0.467049	-0.303143	0.777530
H488	H	0.967049	0.196857	1.277530
H489	H	0.473333	-0.392029	0.766303
H490	H	0.973333	0.107971	1.266303
H491	H	0.534676	-0.425955	0.710188
H492	H	1.034676	0.074045	1.210188
H493	H	0.589735	-0.370992	0.665302
H494	H	1.089735	0.129008	1.165302
C495	C	0.588842	-0.276702	1.052212
C496	C	1.088842	0.223298	1.552212
C497	C	0.608278	-0.311975	1.084466
C498	C	1.108278	0.188025	1.584466
C499	C	0.576646	-0.343571	1.110250
C500	C	1.076646	0.156429	1.610250
C501	C	0.525578	-0.339893	1.103781
C502	C	1.025578	0.160107	1.603781
C503	C	0.506139	-0.304619	1.071526
C504	C	1.006139	0.195381	1.571526
C505	C	0.537771	-0.273023	1.045741
C506	C	1.037771	0.226977	1.545741
H507	H	0.646085	-0.314698	1.089256
H508	H	1.146085	0.185302	1.589256
H509	H	0.591036	-0.369683	1.134128
H510	H	1.091036	0.130317	1.634128
H511	H	0.502162	-0.363282	1.122868
H512	H	1.002162	0.136718	1.622868
H513	H	0.468333	-0.301895	1.066735
H514	H	0.968333	0.198105	1.566735
H515	H	0.523381	-0.246910	1.021863
H516	H	1.023381	0.253090	1.521863
H517	H	0.568248	-0.688511	0.297342
H518	H	1.068248	-0.188511	0.797342
C519	C	-0.186109	-0.276981	0.276826
C520	C	0.313891	0.223019	0.776826
C521	C	-0.237717	-0.276980	0.276828
C522	C	0.262283	0.223020	0.776828
C523	C	-0.263531	-0.308627	0.308380
C524	C	0.236469	0.191373	0.808380
C525	C	-0.237736	-0.340276	0.339929
C526	C	0.262264	0.159724	0.839929
C527	C	-0.186126	-0.340278	0.339928
C528	C	0.313874	0.159722	0.839928
C529	C	-0.160312	-0.308631	0.308376
C530	C	0.339688	0.191369	0.808376
H531	H	-0.256814	-0.253551	0.253472
H532	H	0.243186	0.246449	0.753472
H533	H	-0.301736	-0.308625	0.308380
H534	H	0.198264	0.191375	0.808380
H535	H	-0.256845	-0.363703	0.363285
H536	H	0.243155	0.136297	0.863285
H537	H	-0.167029	-0.363708	0.363284
H538	H	0.332971	0.136292	0.863284
H539	H	-0.122106	-0.308633	0.308376
H540	H	0.377894	0.191367	0.808376
C541	C	0.029718	-0.305734	0.305484
C542	C	0.529718	0.194266	0.805484
C543	C	-0.002571	-0.340973	0.285956
C544	C	0.497429	0.159027	0.785956
C545	C	-0.028386	-0.372621	0.317506
C546	C	0.471614	0.127379	0.817506
C547	C	-0.021911	-0.369031	0.368584
C548	C	0.478089	0.130969	0.868584
C549	C	0.010380	-0.333790	0.388114
C550	C	0.510380	0.166210	0.888114
C551	C	0.036194	-0.302142	0.356565
C552	C	0.536194	0.197858	0.856565
H553	H	-0.007366	-0.343632	0.248143
H554	H	0.492634	0.156368	0.748143
H555	H	-0.052289	-0.398709	0.303048
H556	H	0.447711	0.101291	0.803048
H557	H	-0.041020	-0.392459	0.391939
H558	H	0.458980	0.107541	0.891939
H559	H	0.015174	-0.331131	0.425928
H560	H	0.515174	0.168869	0.925928
H561	H	0.060098	-0.276055	0.371023
H562	H	0.560098	0.223945	0.871023
C563	C	0.709435	-0.380808	0.156260
C564	C	1.209435	0.119192	0.656260
C565	C	0.705809	-0.387288	0.105185
C566	C	1.205809	0.112712	0.605185
C567	C	0.737430	-0.361471	0.073611
C568	C	1.237430	0.138529	0.573611
C569	C	0.772677	-0.329173	0.093111
C570	C	1.272677	0.170827	0.593111
C571	C	0.776305	-0.322692	0.144188
C572	C	1.276305	0.177308	0.644188
C573	C	0.744684	-0.348509	0.175762
C574	C	1.244684	0.151491	0.675762
H575	H	0.679716	-0.411197	0.090748
H576	H	1.179716	0.088803	0.590748
H577	H	0.734745	-0.366269	0.035800
H578	H	1.234745	0.133731	0.535800
H579	H	0.796085	-0.310062	0.069737
H580	H	1.296085	0.189938	0.569737
H581	H	0.802398	-0.298782	0.158625
H582	H	1.302398	0.201218	0.658625
H583	H	0.747370	-0.343711	0.213573
H584	H	1.247370	0.156289	0.713573
H585	H	-0.179390	-0.164352	0.164561
H586	H	0.320610	0.335648	0.664561
H587	H	-0.094283	-0.164339	0.164556
H588	H	0.405717	0.335661	0.664556
C589	C	0.588712	-0.479405	0.276814
C590	C	1.088712	0.020595	0.776814
C591	C	0.553467	-0.511708	0.257319
C592	C	1.053467	-0.011708	0.757319
C593	C	0.521855	-0.537530	0.288897
C594	C	1.021855	-0.037530	0.788897
C595	C	0.525487	-0.531050	0.339971
C596	C	1.025487	-0.031050	0.839971
C597	C	0.560733	-0.498746	0.359469
C598	C	1.060733	0.001254	0.859469
C599	C	0.592346	-0.472924	0.327891
C600	C	1.092346	0.027076	0.827891
H601	H	0.550777	-0.516506	0.219508
H602	H	1.050777	-0.016506	0.719508
H603	H	0.495763	-0.561444	0.274463
H604	H	0.995763	-0.061444	0.774463
H605	H	0.502086	-0.550166	0.363348
H606	H	1.002086	-0.050166	0.863348
H607	H	0.563424	-0.493948	0.397280
H608	H	1.063424	0.006052	0.897280
H609	H	0.618437	-0.449010	0.342325
H610	H	1.118437	0.050990	0.842325
H611	H	0.568229	-0.603402	0.297337
H612	H	1.068229	-0.103402	0.797337
H613	H	0.730117	-0.829189	0.135814
H614	H	1.230117	-0.329189	0.635814
H615	H	0.701258	-0.472626	0.164472
H616	H	1.201258	0.027374	0.664472
H617	H	0.036441	-0.135556	0.135871
H618	H	0.536441	0.364444	0.635871
H619	H	0.392998	-0.164309	0.164496
H620	H	0.892998	0.335691	0.664496
H621	H	0.596895	-0.387570	0.268600
H622	H	1.096895	0.112430	0.768600
H623	H	0.121547	-0.135551	0.135861
H624	H	0.621547	0.364449	0.635861
H625	H	0.730093	-0.744071	0.135801
H626	H	1.230093	-0.244071	0.635801
H627	H	0.596984	-0.268637	0.388000
H628	H	1.096984	0.231363	0.888000
H629	H	0.730047	-0.603324	0.135785
H630	H	1.230047	-0.103324	0.635785
H631	H	0.568292	-0.829266	0.297349
H632	H	1.068292	-0.329266	0.797349
H633	H	0.701402	-0.959912	0.164514
H634	H	1.201402	-0.459912	0.664514
C635	C	0.709648	-1.051731	0.156328
C636	C	1.209648	-0.551731	0.656328
C637	C	0.709660	-1.103339	0.156338
C638	C	1.209660	-0.603339	0.656338
C639	C	0.741298	-1.129134	0.124778
C640	C	1.241298	-0.629134	0.624778
C641	C	0.772923	-1.103320	0.093208
C642	C	1.272923	-0.603320	0.593208
C643	C	0.772911	-1.051709	0.093197
C644	C	1.272911	-0.551709	0.593197
C645	C	0.741274	-1.025915	0.124757
C646	C	1.241274	-0.525915	0.624757
H647	H	0.686249	-1.122450	0.179709
H648	H	1.186249	-0.622450	0.679709
H649	H	0.741306	-1.167339	0.124786
H650	H	1.241306	-0.667339	0.624786
H651	H	0.796342	-1.122415	0.069845
H652	H	1.296342	-0.622415	0.569845
H653	H	0.796323	-1.032598	0.069826
H654	H	1.296323	-0.532598	0.569826
H655	H	0.741266	-0.987709	0.124748
H656	H	1.241266	-0.487709	0.624748
C657	C	0.560048	-0.737462	0.305539
C658	C	1.060048	-0.237462	0.805539
C659	C	0.508982	-0.743970	0.301814
C660	C	1.008982	-0.243970	0.801814
C661	C	0.477341	-0.718192	0.333384
C662	C	0.977341	-0.218192	0.833384
C663	C	0.496765	-0.685906	0.368678
C664	C	0.996765	-0.185906	0.868678
C665	C	0.547833	-0.679396	0.372404
C666	C	1.047833	-0.179396	0.872404
C667	C	0.579475	-0.705174	0.340835
C668	C	1.079475	-0.205174	0.840835
H669	H	0.494601	-0.767872	0.275686
H670	H	0.994601	-0.267872	0.775686
H671	H	0.439536	-0.723012	0.330625
H672	H	0.939536	-0.223012	0.830625
H673	H	0.473342	-0.666823	0.392047
H674	H	0.973342	-0.166823	0.892047
H675	H	0.562215	-0.655494	0.398532
H676	H	1.062215	-0.155494	0.898532
H677	H	0.617279	-0.700355	0.343593
H678	H	1.117279	-0.200355	0.843593
C679	C	0.709547	-0.156168	0.479858
C680	C	1.209547	0.343832	0.979858
C681	C	0.760614	-0.159850	0.473416
C682	C	1.260614	0.340150	0.973416
C683	C	0.792253	-0.128245	0.499224
C684	C	1.292253	0.371755	0.999224
C685	C	0.772826	-0.092958	0.531474
C686	C	1.272826	0.407042	1.031474
C687	C	0.721756	-0.089274	0.537918
C688	C	1.221756	0.410726	1.037918
C689	C	0.690117	-0.120879	0.512110
C690	C	1.190117	0.379121	1.012110
H691	H	0.774997	-0.185973	0.449540
H692	H	1.274997	0.314027	0.949540
H693	H	0.830058	-0.130972	0.494453
H694	H	1.330058	0.369028	0.994453
H695	H	0.796247	-0.069562	0.550579
H696	H	1.296247	0.430438	1.050579
H697	H	0.707373	-0.063151	0.561794
H698	H	1.207373	0.436849	1.061794
H699	H	0.652312	-0.118152	0.516881
H700	H	1.152312	0.381848	1.016881
H701	H	0.730097	-0.135623	0.603875
H702	H	1.230097	0.364377	1.103875
H703	H	0.730104	-0.135601	0.688980
H704	H	1.230104	0.364399	1.188980
H705	H	0.701388	-0.164274	0.960437
H706	H	1.201388	0.335726	1.460437
H707	H	0.701393	-0.164257	1.045559
H708	H	1.201393	0.335743	1.545559
H709	H	0.568233	-0.297294	0.603808
H710	H	1.068233	0.202706	1.103808
H711	H	0.568274	-0.297256	0.829671
H712	H	1.068274	0.202744	1.329671
H713	H	0.568265	-0.297274	0.744566
H714	H	1.068265	0.202726	1.244566
