data_functionalizedCrystal
_audit_creation_method	'MofGen! by Chris Wilmer'
_symmetry_space_group_name_H-M	'P1'
_symmetry_Int_Tables_number	1
_symmetry_cell_setting	triclinic
loop_
_symmetry_equiv_pos_as_xyz
  x,y,z
_cell_length_a	16.959455
_cell_length_b	19.120786
_cell_length_c	19.120904
_cell_angle_alpha	89.866497
_cell_angle_beta	92.417981
_cell_angle_gamma	92.461932
loop_
_atom_site_label
_atom_site_type_symbol
_atom_site_fract_x
_atom_site_fract_y
_atom_site_fract_z
Zn1	Zn	1.175686	-0.296106	-0.384560
Zn2	Zn	1.509020	0.037227	-0.051227
Zn3	Zn	1.842353	0.370561	0.282107
Zn4	Zn	1.176074	-0.408350	-0.262319
Zn5	Zn	1.509407	-0.075017	0.071014
Zn6	Zn	1.842740	0.258316	0.404347
Zn7	Zn	1.049380	-0.291118	-0.267329
Zn8	Zn	1.382713	0.042215	0.066004
Zn9	Zn	1.716046	0.375548	0.399338
Zn10	Zn	1.038083	-0.413306	-0.379505
Zn11	Zn	1.371417	-0.079972	-0.046172
Zn12	Zn	1.704750	0.253361	0.287161
O13	O	1.109806	-0.352220	-0.323428
O14	O	1.443139	-0.018887	0.009905
O15	O	1.776472	0.314447	0.343238
O16	O	1.286347	-0.311009	-0.368363
O17	O	1.619680	0.022324	-0.035030
O18	O	1.953014	0.355658	0.298304
O19	O	1.164157	-0.388638	-0.164879
O20	O	1.497491	-0.055305	0.168454
O21	O	1.830824	0.278029	0.501787
O22	O	1.070700	-0.193670	-0.287092
O23	O	1.404033	0.139664	0.046241
O24	O	1.737366	0.472997	0.379575
O25	O	1.286632	-0.393474	-0.278553
O26	O	1.619965	-0.060141	0.054780
O27	O	1.953298	0.273192	0.388113
O28	O	1.163497	-0.197334	-0.373221
O29	O	1.496830	0.135999	-0.039888
O30	O	1.830163	0.469333	0.293446
O31	O	1.071075	-0.302508	-0.168560
O32	O	1.404409	0.030825	0.164773
O33	O	1.737742	0.364158	0.498107
O34	O	0.937272	-0.307313	-0.282191
O35	O	1.270605	0.026020	0.051143
O36	O	1.603938	0.359353	0.384476
O37	O	1.051447	-0.401920	-0.478280
O38	O	1.384780	-0.068587	-0.144947
O39	O	1.718114	0.264747	0.188386
O40	O	0.928972	-0.397084	-0.364606
O41	O	1.262306	-0.063751	-0.031273
O42	O	1.595639	0.269583	0.302060
O43	O	1.152543	-0.315814	-0.481994
O44	O	1.485877	0.017519	-0.148660
O45	O	1.819210	0.350853	0.184673
O46	O	1.153204	-0.507118	-0.273652
O47	O	1.486537	-0.173785	0.059681
O48	O	1.819870	0.159549	0.393014
O49	O	1.051823	-0.510759	-0.359748
O50	O	1.385156	-0.177425	-0.026415
O51	O	1.718489	0.155908	0.306918
C52	C	0.904442	-0.352196	-0.323394
C53	C	1.237776	-0.018862	0.009939
C54	C	1.571109	0.314471	0.343273
C55	C	0.816585	-0.352203	-0.323395
C56	C	1.149919	-0.018870	0.009938
C57	C	1.483252	0.314464	0.343271
C58	C	0.445248	-0.395114	-0.276644
C59	C	0.778581	-0.061781	0.056690
C60	C	1.111915	0.271552	0.390023
C61	C	0.444960	-0.309388	-0.370296
C62	C	0.778293	0.023946	-0.036963
C63	C	1.111626	0.357279	0.296371
C64	C	0.527507	-0.309375	-0.370280
C65	C	0.860840	0.023958	-0.036946
C66	C	1.194174	0.357291	0.296387
C67	C	0.568928	-0.352234	-0.323445
C68	C	0.902262	-0.018901	0.009888
C69	C	1.235595	0.314433	0.343222
C70	C	0.527803	-0.395105	-0.276627
C71	C	0.861136	-0.061772	0.056706
C72	C	1.194470	0.271562	0.390040
C73	C	0.568638	-0.266511	-0.417102
C74	C	0.901972	0.066823	-0.083768
C75	C	1.235305	0.400156	0.249565
C76	C	0.651190	-0.266497	-0.417087
C77	C	0.984524	0.066836	-0.083754
C78	C	1.317857	0.400170	0.249579
C79	C	0.692614	-0.309353	-0.370249
C80	C	1.025947	0.023981	-0.036916
C81	C	1.359281	0.357314	0.296418
C82	C	0.651483	-0.352225	-0.323428
C83	C	0.984817	-0.018891	0.009905
C84	C	1.318150	0.314442	0.343238
C85	C	0.692905	-0.395083	-0.276594
C86	C	1.026238	-0.061750	0.056739
C87	C	1.359572	0.271583	0.390073
C88	C	0.651776	-0.437952	-0.229769
C89	C	0.985109	-0.104619	0.103564
C90	C	1.318443	0.228715	0.436897
C91	C	0.569226	-0.437960	-0.229788
C92	C	0.902560	-0.104627	0.103545
C93	C	1.235893	0.228706	0.436878
C94	C	0.775164	-0.309344	-0.370230
C95	C	1.108497	0.023989	-0.036897
C96	C	1.441830	0.357322	0.296437
C97	C	0.775460	-0.395074	-0.276577
C98	C	1.108793	-0.061740	0.056756
C99	C	1.442126	0.271593	0.390089
C100	C	1.101350	-0.534378	-0.315624
C101	C	1.434684	-0.201045	0.017710
C102	C	1.768017	0.132289	0.351043
C103	C	1.097804	-0.612307	-0.312308
C104	C	1.431137	-0.278973	0.021025
C105	C	1.764471	0.054360	0.354359
C106	C	1.144413	-0.650767	-0.355630
C107	C	1.477746	-0.317433	-0.022296
C108	C	1.811080	0.015900	0.311037
C109	C	1.141078	-0.723989	-0.352516
C110	C	1.474411	-0.390656	-0.019182
C111	C	1.807744	-0.057323	0.314151
C112	C	1.091137	-0.758750	-0.306076
C113	C	1.424470	-0.425417	0.027257
C114	C	1.757804	-0.092084	0.360591
C115	C	1.044523	-0.720285	-0.262753
C116	C	1.377856	-0.386952	0.070581
C117	C	1.711190	-0.053618	0.403914
C118	C	1.047855	-0.647064	-0.265871
C119	C	1.381188	-0.313731	0.067463
C120	C	1.714521	0.019603	0.400796
C121	C	1.078659	-0.979738	-0.294419
C122	C	1.411992	-0.646405	0.038914
C123	C	1.745325	-0.313071	0.372247
C124	C	1.075332	-1.052964	-0.291303
C125	C	1.408666	-0.719631	0.042030
C126	C	1.741999	-0.386297	0.375364
C127	C	1.171886	-1.056663	-0.381067
C128	C	1.505220	-0.723330	-0.047734
C129	C	1.838553	-0.389997	0.285599
C130	C	1.175217	-0.983441	-0.384178
C131	C	1.508551	-0.650107	-0.050845
C132	C	1.841884	-0.316774	0.282488
C133	C	1.128600	-0.944982	-0.340858
C134	C	1.461933	-0.611649	-0.007524
C135	C	1.795267	-0.278315	0.325809
C136	C	1.087728	-0.833595	-0.302890
C137	C	1.421062	-0.500262	0.030443
C138	C	1.754395	-0.166929	0.363776
C139	C	1.132005	-0.870138	-0.344047
C140	C	1.465338	-0.536805	-0.010714
C141	C	1.798672	-0.203472	0.322619
C142	C	1.315971	-0.352245	-0.323463
C143	C	1.649304	-0.018912	0.009870
C144	C	1.982638	0.314422	0.343203
C145	C	1.403826	-0.352256	-0.323478
C146	C	1.737160	-0.018922	0.009855
C147	C	2.070493	0.314411	0.343189
C148	C	1.100692	-0.359976	-0.506286
C149	C	1.434025	-0.026643	-0.172952
C150	C	1.767359	0.306690	0.160381
C151	C	1.096808	-0.363281	-0.584208
C152	C	1.430141	-0.029948	-0.250875
C153	C	1.763475	0.303385	0.082458
C154	C	1.118315	-0.169352	-0.331279
C155	C	1.451648	0.163982	0.002054
C156	C	1.784982	0.497315	0.335388
C157	C	1.121941	-0.091424	-0.334625
C158	C	1.455275	0.241909	-0.001291
C159	C	1.788608	0.575243	0.332042
C160	C	1.147616	-0.320005	-0.622751
C161	C	1.480950	0.013328	-0.289418
C162	C	1.814283	0.346661	0.043915
C163	C	1.143957	-0.323108	-0.695968
C164	C	1.477291	0.010225	-0.362635
C165	C	1.810624	0.343558	-0.029302
C166	C	1.089494	-0.369491	-0.730641
C167	C	1.422827	-0.036158	-0.397307
C168	C	1.756161	0.297175	-0.063974
C169	C	1.038680	-0.412769	-0.692093
C170	C	1.372014	-0.079436	-0.358759
C171	C	1.705347	0.253898	-0.025426
C172	C	1.042336	-0.409662	-0.618877
C173	C	1.375669	-0.076329	-0.285544
C174	C	1.709002	0.257005	0.047789
C175	C	1.075820	-0.381112	-0.951607
C176	C	1.409153	-0.047778	-0.618274
C177	C	1.742487	0.285555	-0.284941
C178	C	1.072170	-0.384217	-1.024828
C179	C	1.405503	-0.050884	-0.691495
C180	C	1.738837	0.282450	-0.358161
C181	C	1.177447	-0.294555	-1.028698
C182	C	1.510780	0.038778	-0.695365
C183	C	1.844113	0.372112	-0.362032
C184	C	1.181100	-0.291455	-0.955481
C185	C	1.514434	0.041878	-0.622148
C186	C	1.847767	0.375212	-0.288815
C187	C	1.130284	-0.334730	-0.916940
C188	C	1.463617	-0.001397	-0.583606
C189	C	1.796951	0.331937	-0.250273
C190	C	1.085754	-0.372666	-0.805480
C191	C	1.419088	-0.039332	-0.472147
C192	C	1.752421	0.294001	-0.138813
C193	C	1.134020	-0.331552	-0.842102
C194	C	1.467354	0.001782	-0.508769
C195	C	1.800687	0.335115	-0.175435
C196	C	1.118932	-0.344444	-0.141285
C197	C	1.452265	-0.011110	0.192049
C198	C	1.785599	0.322223	0.525382
C199	C	1.122978	-0.340941	-0.063371
C200	C	1.456311	-0.007608	0.269963
C201	C	1.789645	0.325726	0.603296
H202	H	0.411229	-0.274498	-0.408430
H203	H	0.744562	0.058835	-0.075097
H204	H	1.077895	0.392168	0.258236
Br205	Br	0.513405	-0.496135	-0.166248
Br206	Br	0.846738	-0.162801	0.167086
Br207	Br	1.180071	0.170532	0.500419
H208	H	1.041413	-0.410434	-0.833719
H209	H	1.374747	-0.077101	-0.500385
H210	H	1.708080	0.256233	-0.167052
Br211	Br	1.015382	-0.927553	-0.235635
Br212	Br	1.348715	-0.594220	0.097698
Br213	Br	1.682048	-0.260887	0.431031
H214	H	1.179038	-0.755300	-0.387787
H215	H	1.512371	-0.421967	-0.054454
H216	H	1.845705	-0.088634	0.278879
Br217	Br	1.255021	-0.228507	-0.908430
Br218	Br	1.588354	0.104827	-0.575097
Br219	Br	1.921687	0.438160	-0.241764
H220	H	1.172664	-0.841834	-0.381861
H221	H	1.505997	-0.508501	-0.048528
H222	H	1.839330	-0.175168	0.284805
H223	H	1.215883	-0.955140	-0.421993
H224	H	1.549216	-0.621807	-0.088660
H225	H	1.882549	-0.288473	0.244674
H226	H	0.534906	-0.231622	-0.455236
H227	H	0.868240	0.101711	-0.121903
H228	H	1.201573	0.435045	0.211431
H229	H	1.218817	-0.259322	-1.060087
H230	H	1.552151	0.074011	-0.726753
H231	H	1.885484	0.407345	-0.393420
H232	H	1.185333	-0.287870	-0.727347
H233	H	1.518666	0.045463	-0.394013
H234	H	1.851999	0.378797	-0.060680
Br235	Br	0.831669	-0.453236	-0.213007
Br236	Br	1.165002	-0.119903	0.120327
Br237	Br	1.498336	0.213431	0.453660
Br238	Br	0.976735	-0.767460	-0.199736
Br239	Br	1.310068	-0.434126	0.133598
Br240	Br	1.643401	-0.100793	0.466931
Br241	Br	0.998247	-0.447167	-1.071884
Br242	Br	1.331581	-0.113834	-0.738550
Br243	Br	1.664914	0.219500	-0.405217
H244	H	0.684671	-0.231590	-0.455214
H245	H	1.018004	0.101743	-0.121881
H246	H	1.351337	0.435076	0.211452
H247	H	0.685512	-0.472851	-0.191640
H248	H	1.018845	-0.139518	0.141693
H249	H	1.352179	0.193815	0.475026
Br250	Br	0.973374	-0.468392	-0.566568
Br251	Br	1.306708	-0.135059	-0.233235
Br252	Br	1.640041	0.198275	0.100098
Br253	Br	0.389435	-0.453286	-0.213094
Br254	Br	0.722768	-0.119952	0.120239
Br255	Br	1.056102	0.213381	0.453572
H256	H	0.808647	-0.274443	-0.408355
H257	H	1.141980	0.058891	-0.075022
H258	H	1.475314	0.392224	0.258312
H259	H	1.185083	-0.622469	-0.393443
H260	H	1.518417	-0.289136	-0.060109
H261	H	1.851750	0.044197	0.273224
H262	H	1.209839	-1.087984	-0.416337
H263	H	1.543172	-0.754651	-0.083004
H264	H	1.876505	-0.421318	0.250329
H265	H	1.034453	-0.416360	-0.920235
H266	H	1.367786	-0.083026	-0.586902
H267	H	1.701119	0.250307	-0.253568
H268	H	0.994332	-0.450532	-0.720329
H269	H	1.327665	-0.117199	-0.386996
H270	H	1.660999	0.216134	-0.053662
H271	H	1.034661	-1.081264	-0.253486
H272	H	1.367994	-0.747931	0.079848
H273	H	1.701328	-0.414597	0.413181
H274	H	1.009900	-0.615750	-0.230595
H275	H	1.343233	-0.282417	0.102739
H276	H	1.676566	0.050917	0.436072
H277	H	1.178361	-0.293784	-0.813869
H278	H	1.511694	0.039549	-0.480535
H279	H	1.845028	0.372883	-0.147202
H280	H	1.047069	-0.861906	-0.265077
H281	H	1.380402	-0.528572	0.068256
H282	H	1.713736	-0.195239	0.401590
H283	H	1.191969	-0.282238	-0.594526
H284	H	1.525302	0.051096	-0.261193
H285	H	1.858635	0.384429	0.072140
