data_functionalizedCrystal
_audit_creation_method	'MofGen! by Chris Wilmer'
_symmetry_space_group_name_H-M	'P1'
_symmetry_Int_Tables_number	1
_symmetry_cell_setting	triclinic
loop_
_symmetry_equiv_pos_as_xyz
  x,y,z
_cell_length_a	10.654543
_cell_length_b	10.654550
_cell_length_c	9.130313
_cell_angle_alpha	90.002598
_cell_angle_beta	90.002448
_cell_angle_gamma	95.516448
loop_
_atom_site_label
_atom_site_type_symbol
_atom_site_fract_x
_atom_site_fract_y
_atom_site_fract_z
O1	O	-1.667842	0.176363	0.121627
O2	O	-1.302362	0.193178	0.121663
O3	O	-1.493505	0.002031	0.121650
O4	O	-1.476699	0.367510	0.121639
O5	O	-1.493497	0.002016	-0.121949
O6	O	-1.302354	0.193163	-0.121936
O7	O	-1.667834	0.176348	-0.121972
Cu8	Cu	-1.485094	0.184754	-0.144197
Cu9	Cu	-1.485102	0.184772	0.143887
O10	O	-1.476691	0.367495	-0.121959
C11	C	-1.255560	0.191938	-0.000132
C12	C	-1.116116	0.188249	-0.000118
C13	C	-1.036631	0.300793	-0.000123
C14	C	-0.905609	0.297319	-0.000144
C15	C	-0.933573	0.068749	-0.000149
C16	C	-1.064591	0.072224	-0.000138
C17	C	-0.714635	0.177595	-0.000167
C18	C	-0.854077	0.181301	-0.000150
C19	C	-1.492267	-0.044774	-0.000145
C20	C	-1.488575	-0.184217	-0.000130
N21	N	-1.485109	0.184775	0.346510
C22	C	-1.477929	0.414300	-0.000162
C23	C	-1.481621	0.553744	-0.000166
C24	C	-1.369079	0.633232	-0.000152
C25	C	-1.372555	0.764253	-0.000128
C26	C	-1.601126	0.736284	-0.000141
C27	C	-1.597648	0.605266	-0.000153
N28	N	-1.485096	0.184742	-0.346819
C29	C	-1.569901	0.100286	0.576503
C30	C	-1.569905	0.100299	0.423166
C31	C	-1.400296	0.269234	0.423198
C32	C	-1.400287	0.269214	0.576533
H33	H	-0.840896	0.388964	-0.000152
H34	H	-1.638959	0.031526	0.360739
H35	H	-1.331247	0.338012	0.360776
N36	N	-1.308803	0.360307	0.659235
H37	H	-1.323863	0.449631	0.632580
H38	H	-1.321704	0.347364	0.767976
H39	H	-1.129313	-0.019428	-0.000138
H40	H	-1.078578	0.395268	-0.000117
H41	H	-1.274603	0.591287	-0.000167
N42	N	-0.877999	-0.056387	-0.000179
H43	H	-0.782937	-0.041514	-0.000186
H44	H	-0.906995	-0.105689	0.090123
H45	H	-1.638956	0.031502	0.638906
N46	N	-1.251172	0.849988	-0.000107
H47	H	-1.177147	0.797463	-0.000116
H48	H	-1.247636	0.904965	-0.090403
N49	N	-1.719034	0.519514	-0.000172
H50	H	-1.769606	0.536196	0.090127
H51	H	-1.769503	0.536239	-0.090537
H52	H	-1.695591	0.778250	-0.000145
