data_functionalizedCrystal
_audit_creation_method	'MofGen! by Chris Wilmer'
_symmetry_space_group_name_H-M	'P1'
_symmetry_Int_Tables_number	1
_symmetry_cell_setting	triclinic
loop_
_symmetry_equiv_pos_as_xyz
  x,y,z
_cell_length_a	16.625547
_cell_length_b	12.594516
_cell_length_c	16.625539
_cell_angle_alpha	89.976862
_cell_angle_beta	89.978691
_cell_angle_gamma	90.011753
loop_
_atom_site_label
_atom_site_type_symbol
_atom_site_fract_x
_atom_site_fract_y
_atom_site_fract_z
Zn1	Zn	1.232712	-0.423762	-0.456019
Zn2	Zn	1.732712	0.076238	0.043981
Zn3	Zn	1.232649	-0.601757	-0.321194
Zn4	Zn	1.732649	-0.101757	0.178806
Zn5	Zn	1.097882	-0.423793	-0.321190
Zn6	Zn	1.597882	0.076207	0.178810
Zn7	Zn	1.097870	-0.601698	-0.455974
Zn8	Zn	1.597870	-0.101698	0.044026
O9	O	1.165278	-0.512752	-0.388594
O10	O	1.665278	-0.012752	0.111406
O11	O	1.345536	-0.447385	-0.438155
O12	O	1.845536	0.052615	0.061845
O13	O	1.214751	-0.578187	-0.208361
O14	O	1.714751	-0.078187	0.291639
O15	O	1.115800	-0.274843	-0.339092
O16	O	1.615800	0.225157	0.160908
O17	O	1.345490	-0.578157	-0.339100
O18	O	1.845490	-0.078157	0.160900
O19	O	1.214859	-0.274820	-0.438151
O20	O	1.714859	0.225180	0.061849
O21	O	1.115738	-0.447438	-0.208358
O22	O	1.615738	0.052562	0.291642
O23	O	0.985048	-0.447381	-0.339049
O24	O	1.485048	0.052619	0.160951
O25	O	1.115778	-0.578057	-0.568813
O26	O	1.615778	-0.078057	-0.068813
O27	O	0.985039	-0.578087	-0.438074
O28	O	1.485039	-0.078087	0.061926
O29	O	1.214846	-0.447327	-0.568846
O30	O	1.714846	0.052673	-0.068846
O31	O	1.214738	-0.750695	-0.339056
O32	O	1.714738	-0.250695	0.160944
O33	O	1.115716	-0.750652	-0.438078
O34	O	1.615716	-0.250652	0.061922
C35	C	0.955787	-0.512732	-0.388556
C36	C	1.455787	-0.012732	0.111444
C37	C	0.866166	-0.512748	-0.388559
C38	C	1.366166	-0.012748	0.111441
C39	C	0.793384	-0.512751	-0.388569
C40	C	1.293384	-0.012751	0.111431
C41	C	0.702075	-0.512756	-0.388589
C42	C	1.202075	-0.012756	0.111411
C43	C	0.629299	-0.512766	-0.388610
C44	C	1.129299	-0.012766	0.111390
C45	C	0.537985	-0.512773	-0.388629
C46	C	1.037985	-0.012773	0.111371
C47	C	1.165241	-0.789293	-0.388580
C48	C	1.665241	-0.289293	0.111420
C49	C	1.165299	-0.907599	-0.388601
C50	C	1.665299	-0.407599	0.111399
C51	C	1.219219	-0.976837	-0.334801
C52	C	1.719219	-0.476837	0.165199
C53	C	1.238918	-1.047541	-0.408397
C54	C	1.738918	-0.547541	0.091603
C55	C	1.145700	-1.047693	-0.315052
C56	C	1.645700	-0.547693	0.184948
C57	C	1.185035	-0.976745	-0.462236
C58	C	1.685035	-0.476745	0.037764
C59	C	1.091783	-0.976891	-0.368842
C60	C	1.591783	-0.476891	0.131158
C61	C	1.111454	-1.047563	-0.442489
C62	C	1.611454	-0.547563	0.057511
C63	C	1.375587	-0.512774	-0.388633
C64	C	1.875587	-0.012774	0.111367
C65	C	1.465208	-0.512783	-0.388650
C66	C	1.965208	-0.012783	0.111350
C67	C	1.165318	-0.512682	-0.598903
C68	C	1.665318	-0.012682	-0.098903
C69	C	1.165335	-0.512652	-0.688525
C70	C	1.665335	-0.012652	-0.188525
C71	C	1.165338	-0.235132	-0.388626
C72	C	1.665338	0.264868	0.111374
C73	C	1.165363	-0.116826	-0.388640
C74	C	1.665363	0.383174	0.111360
C75	C	1.165348	-0.512629	-0.761307
C76	C	1.665348	-0.012629	-0.261307
C77	C	1.165367	-0.512589	-0.852616
C78	C	1.665367	-0.012589	-0.352616
C79	C	1.165386	-0.512552	-0.925392
C80	C	1.665386	-0.012552	-0.425392
C81	C	1.165406	-0.512513	-1.016706
C82	C	1.665406	-0.012513	-0.516706
C83	C	1.165285	-0.512746	-0.179104
C84	C	1.665285	-0.012746	0.320896
C85	C	1.165425	-0.512476	-0.089483
C86	C	1.665425	-0.012476	0.410517
H87	H	1.301116	-1.078578	-0.425131
H88	H	1.801116	-0.578578	0.074869
O89	O	1.056988	-1.084261	-0.496793
O90	O	1.556988	-0.584261	0.003207
C91	C	0.979730	-1.046692	-0.476469
C92	C	1.479730	-0.546692	0.023531
H93	H	0.985561	-0.971798	-0.438430
H94	H	1.485561	-0.471798	0.061570
H95	H	0.944886	-1.027711	-0.533739
H96	H	1.444886	-0.527711	-0.033739
H97	H	0.946272	-1.110187	-0.440804
H98	H	1.446272	-0.610187	0.059196
O99	O	1.273732	-0.939828	-0.280662
O100	O	1.773732	-0.439828	0.219338
C101	C	1.351191	-0.975849	-0.301811
C102	C	1.851191	-0.475849	0.198189
H103	H	1.352676	-0.995646	-0.368697
H104	H	1.852676	-0.495646	0.131303
H105	H	1.397177	-0.911084	-0.288397
H106	H	1.897177	-0.411084	0.211603
H107	H	1.366356	-1.049940	-0.265442
H108	H	1.866356	-0.549940	0.234558
O109	O	1.204956	-0.939556	-0.536424
O110	O	1.704956	-0.439556	-0.036424
C111	C	1.204694	-0.827615	-0.535504
C112	C	1.704694	-0.327615	-0.035504
H113	H	1.213692	-0.798362	-0.471254
H114	H	1.713692	-0.298362	0.028746
H115	H	1.255522	-0.796629	-0.575126
H116	H	1.755522	-0.296629	-0.075126
H117	H	1.144657	-0.797337	-0.559387
H118	H	1.644657	-0.297337	-0.059387
O119	O	1.017629	-0.939877	-0.348714
O120	O	1.517629	-0.439877	0.151286
C121	C	0.997154	-0.975986	-0.271077
C122	C	1.497154	-0.475986	0.228923
H123	H	1.054319	-0.995852	-0.236351
H124	H	1.554319	-0.495852	0.263649
H125	H	0.962531	-0.911249	-0.237958
H126	H	1.462531	-0.411249	0.262042
H127	H	0.958056	-1.050055	-0.276140
H128	H	1.458056	-0.550055	0.223860
H129	H	1.129098	-1.078856	-0.252837
H130	H	1.629098	-0.578856	0.247163
