data_functionalizedCrystal
_audit_creation_method	'MofGen! by Chris Wilmer'
_symmetry_space_group_name_H-M	'P1'
_symmetry_Int_Tables_number	1
_symmetry_cell_setting	triclinic
loop_
_symmetry_equiv_pos_as_xyz
  x,y,z
_cell_length_a	11.792254
_cell_length_b	12.837943
_cell_length_c	10.268362
_cell_angle_alpha	89.995737
_cell_angle_beta	89.996395
_cell_angle_gamma	90.486231
loop_
_atom_site_label
_atom_site_type_symbol
_atom_site_fract_x
_atom_site_fract_y
_atom_site_fract_z
O1	O	-0.295225	1.377127	-0.108251
O2	O	0.204775	1.877127	0.391749
O3	O	-0.280641	1.075239	-0.108260
O4	O	0.219359	1.575239	0.391740
O5	O	-0.123506	1.233502	-0.108262
O6	O	0.376494	1.733502	0.391738
O7	O	-0.452361	1.218864	-0.108250
O8	O	0.047639	1.718864	0.391750
O9	O	-0.123512	1.233485	0.108339
O10	O	0.376488	1.733485	0.608339
O11	O	-0.280647	1.075222	0.108340
O12	O	0.219353	1.575222	0.608340
O13	O	-0.295231	1.377110	0.108349
O14	O	0.204769	1.877110	0.608349
Cu15	Cu	-0.287940	1.226164	0.128122
Cu16	Cu	0.212060	1.726164	0.628122
Cu17	Cu	-0.287933	1.226184	-0.128033
Cu18	Cu	0.212067	1.726184	0.371967
O19	O	-0.452367	1.218847	0.108351
O20	O	0.047633	1.718847	0.608351
C21	C	-0.275718	1.036582	0.000039
C22	C	0.224282	1.536582	0.500039
C23	C	-0.261024	0.921422	0.000035
C24	C	0.238976	1.421422	0.500035
C25	C	-0.437669	0.681463	0.000060
C26	C	0.062331	1.181463	0.500060
C27	C	-0.423869	0.573259	0.000057
C28	C	0.076131	1.073259	0.500057
C29	C	-0.219623	0.596808	0.000036
C30	C	0.280377	1.096808	0.500036
C31	C	-0.233423	0.705012	0.000038
C32	C	0.266577	1.205012	0.500038
C33	C	-0.342450	0.747335	0.000048
C34	C	0.157550	1.247335	0.500048
C35	C	-0.356250	0.855541	0.000042
C36	C	0.143750	1.355541	0.500042
C37	C	-0.152005	0.879087	0.000030
C38	C	0.347995	1.379087	0.500030
C39	C	-0.138204	0.770883	0.000027
C40	C	0.361796	1.270883	0.500027
C41	C	-0.494748	1.219777	0.000052
C42	C	0.005252	1.719777	0.500052
C43	C	-0.621041	1.222537	0.000056
C44	C	-0.121041	1.722537	0.500056
C45	C	-0.723605	1.224780	0.000049
C46	C	-0.223605	1.724780	0.500049
C47	C	-0.852276	1.227584	0.000034
C48	C	-0.352276	1.727584	0.500034
C49	C	-0.081125	1.232571	0.000034
C50	C	0.418875	1.732571	0.500034
C51	C	0.045168	1.229811	0.000021
C52	C	0.545168	1.729811	0.500021
C53	C	-0.300155	1.415767	0.000047
C54	C	0.199845	1.915767	0.500047
C55	C	-0.314849	1.530927	0.000043
C56	C	0.185151	2.030927	0.500043
N57	N	-0.287945	1.226158	0.308288
N58	N	0.212055	1.726158	0.808288
C59	C	-0.287947	1.226165	0.426130
C60	C	0.212053	1.726165	0.926130
C61	C	-0.287939	1.226177	0.573968
C62	C	0.212061	1.726177	1.073968
N63	N	-0.287927	1.226192	0.691801
N64	N	0.212073	1.726192	1.191801
H65	H	-0.049437	0.736408	0.000034
H66	H	0.450563	1.236408	0.500034
H67	H	-0.526443	0.715924	0.000066
H68	H	-0.026443	1.215924	0.500066
O69	O	-0.462095	0.896781	0.000224
O70	O	0.037905	1.396781	0.500224
C71	C	-0.476196	0.958641	0.112420
C72	C	0.023804	1.458641	0.612420
H73	H	-0.389598	0.985072	0.149809
H74	H	0.110402	1.485072	0.649809
H75	H	-0.521271	0.911126	0.190979
H76	H	-0.021271	1.411126	0.690979
C77	C	-0.654054	1.022230	0.032427
C78	C	-0.154054	1.522230	0.532427
C79	C	-0.547692	1.054701	0.078343
C80	C	-0.047692	1.554701	0.578343
H81	H	-0.698161	1.081482	0.011411
H82	H	-0.198161	1.581482	0.511411
H83	H	-0.644557	0.980552	-0.043159
H84	H	-0.144557	1.480552	0.456841
H85	H	-0.691602	0.982634	0.097901
H86	H	-0.191602	1.482634	0.597901
H87	H	-0.510142	1.094285	0.012865
H88	H	-0.010142	1.594285	0.512865
H89	H	-0.557185	1.096388	0.153918
H90	H	-0.057185	1.596388	0.653918
H91	H	-0.501406	0.519629	0.000069
H92	H	-0.001406	1.019629	0.500069
H93	H	-0.130858	0.562328	0.000135
H94	H	0.369142	1.062328	0.500135
H95	H	-0.074470	0.932733	0.000012
H96	H	0.425530	1.432733	0.500012
