data_functionalizedCrystal
_audit_creation_method	'MofGen! by Chris Wilmer'
_symmetry_space_group_name_H-M	'P1'
_symmetry_Int_Tables_number	1
_symmetry_cell_setting	triclinic
loop_
_symmetry_equiv_pos_as_xyz
  x,y,z
_cell_length_a	13.897449
_cell_length_b	13.897448
_cell_length_c	19.805399
_cell_angle_alpha	89.974981
_cell_angle_beta	89.979867
_cell_angle_gamma	90.018519
loop_
_atom_site_label
_atom_site_type_symbol
_atom_site_fract_x
_atom_site_fract_y
_atom_site_fract_z
Zn1	Zn	1.474672	-0.384016	-0.382742
Zn2	Zn	1.808005	-0.050683	-0.049408
Zn3	Zn	2.141338	0.282651	0.283925
Zn4	Zn	1.474575	-0.545322	-0.269559
Zn5	Zn	1.807908	-0.211989	0.063775
Zn6	Zn	2.141241	0.121345	0.397108
Zn7	Zn	1.313370	-0.384045	-0.269565
Zn8	Zn	1.646703	-0.050712	0.063768
Zn9	Zn	1.980037	0.282622	0.397101
Zn10	Zn	1.313342	-0.545273	-0.382704
Zn11	Zn	1.646676	-0.211940	-0.049371
Zn12	Zn	1.980009	0.121394	0.283962
O13	O	1.393990	-0.464664	-0.326143
O14	O	1.727323	-0.131331	0.007191
O15	O	2.060656	0.202003	0.340524
O16	O	1.609640	-0.405422	-0.367741
O17	O	1.942974	-0.072089	-0.034407
O18	O	2.276307	0.261245	0.298926
O19	O	1.453162	-0.523961	-0.174843
O20	O	1.786495	-0.190627	0.158490
O21	O	2.119828	0.142706	0.491824
O22	O	1.334819	-0.249059	-0.284597
O23	O	1.668152	0.084274	0.048736
O24	O	2.001486	0.417607	0.382070
O25	O	1.609569	-0.523933	-0.284586
O26	O	1.942903	-0.190599	0.048748
O27	O	2.276236	0.142734	0.382081
O28	O	1.453327	-0.249038	-0.367747
O29	O	1.786660	0.084295	-0.034414
O30	O	2.119993	0.417629	0.298919
O31	O	1.334725	-0.405471	-0.174848
O32	O	1.668058	-0.072138	0.158486
O33	O	2.001392	0.261195	0.491819
O34	O	1.178385	-0.405424	-0.284561
O35	O	1.511718	-0.072090	0.048773
O36	O	1.845051	0.261243	0.382106
O37	O	1.334772	-0.523849	-0.477426
O38	O	1.668105	-0.190516	-0.144093
O39	O	2.001439	0.142817	0.189241
O40	O	1.178364	-0.523877	-0.367683
O41	O	1.511698	-0.190544	-0.034350
O42	O	1.845031	0.142789	0.298983
O43	O	1.453300	-0.405374	-0.477453
O44	O	1.786633	-0.072041	-0.144120
O45	O	2.119967	0.261292	0.189213
O46	O	1.453135	-0.680297	-0.284549
O47	O	1.786468	-0.346964	0.048784
O48	O	2.119802	-0.013630	0.382118
O49	O	1.334678	-0.680261	-0.367677
O50	O	1.668012	-0.346928	-0.034343
O51	O	2.001345	-0.013594	0.298990
C52	C	1.143375	-0.464649	-0.326119
C53	C	1.476709	-0.131316	0.007214
C54	C	1.810042	0.202018	0.340548
C55	C	1.036161	-0.464666	-0.326125
C56	C	1.369495	-0.131333	0.007208
C57	C	1.702828	0.202001	0.340542
C58	C	1.393919	-0.715278	-0.326123
C59	C	1.727253	-0.381945	0.007210
C60	C	2.060586	-0.048612	0.340544
C61	C	1.393977	-0.822492	-0.326137
C62	C	1.727311	-0.489159	0.007196
C63	C	2.060644	-0.155826	0.340529
C64	C	0.949092	-0.464669	-0.326136
C65	C	1.282425	-0.131336	0.007197
C66	C	1.615758	0.201997	0.340531
C67	C	0.839859	-0.464676	-0.326157
C68	C	1.173192	-0.131343	0.007177
C69	C	1.506526	0.201991	0.340510
C70	C	1.394079	-1.018787	-0.326180
C71	C	1.727412	-0.685454	0.007154
C72	C	2.060745	-0.352121	0.340487
C73	C	1.394020	-0.909555	-0.326158
C74	C	1.727353	-0.576221	0.007175
C75	C	2.060686	-0.242888	0.340509
C76	C	1.645583	-0.464680	-0.326167
C77	C	1.978916	-0.131346	0.007167
C78	C	2.312249	0.201987	0.340500
C79	C	1.752797	-0.464686	-0.326177
C80	C	2.086130	-0.131353	0.007156
C81	C	2.419463	0.201980	0.340490
C82	C	1.394044	-0.464603	-0.502685
C83	C	1.727377	-0.131270	-0.169352
C84	C	2.060710	0.202063	0.163981
C85	C	1.394067	-0.464577	-0.577917
C86	C	1.727400	-0.131244	-0.244584
C87	C	2.060733	0.202089	0.088749
C88	C	1.394087	-0.213071	-0.326177
C89	C	1.727420	0.120262	0.007156
C90	C	2.060753	0.453596	0.340490
C91	C	1.394128	-0.105857	-0.326192
C92	C	1.727461	0.227476	0.007142
C93	C	2.060795	0.560810	0.340475
C94	C	1.455786	-0.402884	-0.613277
C95	C	1.789119	-0.069551	-0.279944
C96	C	2.122452	0.263782	0.053390
C97	C	1.455796	-0.402856	-0.683965
C98	C	1.789129	-0.069523	-0.350632
C99	C	2.122462	0.263810	-0.017299
C100	C	1.394091	-0.464527	-0.719293
C101	C	1.727424	-0.131194	-0.385960
C102	C	2.060757	0.202140	-0.052626
C103	C	1.332365	-0.526223	-0.683928
C104	C	1.665698	-0.192889	-0.350595
C105	C	1.999032	0.140444	-0.017262
C106	C	1.332351	-0.526245	-0.613241
C107	C	1.665684	-0.192912	-0.279908
C108	C	1.999018	0.140422	0.053425
C109	C	1.332420	-0.526133	-0.969002
C110	C	1.665753	-0.192799	-0.635669
C111	C	1.999086	0.140534	-0.302335
C112	C	1.332440	-0.526108	-1.039694
C113	C	1.665774	-0.192774	-0.706361
C114	C	1.999107	0.140559	-0.373027
C115	C	1.455864	-0.402744	-1.039726
C116	C	1.789197	-0.069411	-0.706393
C117	C	2.122531	0.263923	-0.373059
C118	C	1.455850	-0.402766	-0.969039
C119	C	1.789183	-0.069433	-0.635706
C120	C	2.122517	0.263900	-0.302372
C121	C	1.394121	-0.464458	-0.933680
C122	C	1.727455	-0.131125	-0.600347
C123	C	2.060788	0.202209	-0.267014
C124	C	1.394110	-0.464486	-0.857032
C125	C	1.727443	-0.131153	-0.523699
C126	C	2.060777	0.202180	-0.190365
C127	C	1.394106	-0.464504	-0.795940
C128	C	1.727440	-0.131171	-0.462607
C129	C	2.060773	0.202162	-0.129273
C130	C	1.393991	-0.464655	-0.150287
C131	C	1.727325	-0.131322	0.183047
C132	C	2.060658	0.202012	0.516380
C133	C	1.394155	-0.464409	-0.075055
C134	C	1.727488	-0.131076	0.258278
C135	C	2.060822	0.202258	0.591612
H136	H	1.506036	-0.352668	-0.584518
H137	H	1.839369	-0.019335	-0.251185
H138	H	2.172703	0.313999	0.082148
H139	H	1.282084	-0.576472	-0.584452
H140	H	1.615417	-0.243139	-0.251119
H141	H	1.948750	0.090195	0.082214
H142	H	1.506056	-0.352622	-0.712752
H143	H	1.839389	-0.019289	-0.379419
H144	H	2.172722	0.314045	-0.046085
H145	H	1.506100	-0.352551	-0.940279
H146	H	1.839433	-0.019218	-0.606945
H147	H	2.172766	0.314115	-0.273612
H148	H	1.506123	-0.352508	-1.068523
H149	H	1.839457	-0.019175	-0.735190
H150	H	2.172790	0.314158	-0.401857
F151	F	1.266762	-0.591749	-1.077291
F152	F	1.600095	-0.258415	-0.743958
F153	F	1.933428	0.074918	-0.410624
F154	F	1.266722	-0.591791	-0.931380
F155	F	1.600056	-0.258457	-0.598046
F156	F	1.933389	0.074876	-0.264713
F157	F	1.266690	-0.591853	-0.721529
F158	F	1.600024	-0.258520	-0.388195
F159	F	1.933357	0.074813	-0.054862
