data_functionalizedCrystal
_audit_creation_method	'MofGen! by Chris Wilmer'
_symmetry_space_group_name_H-M	'P1'
_symmetry_Int_Tables_number	1
_symmetry_cell_setting	triclinic
loop_
_symmetry_equiv_pos_as_xyz
  x,y,z
_cell_length_a	17.917603
_cell_length_b	16.704494
_cell_length_c	17.917559
_cell_angle_alpha	59.771936
_cell_angle_beta	90.240464
_cell_angle_gamma	60.540889
loop_
_atom_site_label
_atom_site_type_symbol
_atom_site_fract_x
_atom_site_fract_y
_atom_site_fract_z
Zr1	Zr	0.799210	0.791003	-0.095279
O2	O	0.688470	0.956893	-0.221925
O3	O	0.827137	0.625112	-0.051442
O4	O	0.842138	0.775870	-0.206921
O5	O	0.668487	0.818073	0.050496
O6	O	0.970202	0.763934	-0.200787
O7	O	0.673470	0.806135	-0.066446
O8	O	0.943369	0.494256	0.077336
O9	O	0.695319	1.087752	-0.227627
O10	O	0.941895	0.684439	-0.034225
O11	O	0.842603	0.702256	0.048470
O12	O	0.860264	0.879754	-0.134586
O13	O	0.760972	0.897570	-0.051891
Zr14	Zr	0.995511	0.791008	0.101013
Zr15	Zr	1.003459	0.771968	-0.085497
Zr16	Zr	0.791262	0.810044	0.091231
Zr17	Zr	0.810134	0.999708	-0.104373
Zr18	Zr	0.984587	0.582303	0.110107
O19	O	0.967584	0.956900	0.057176
O20	O	0.978885	0.929827	-0.208016
O21	O	0.677169	0.983966	0.043267
O22	O	1.106251	0.625119	0.227659
O23	O	1.117552	0.598046	-0.037533
O24	O	0.815836	0.652185	0.213750
O25	O	1.126234	0.763938	-0.044762
O26	O	0.952583	0.806142	0.212655
O27	O	0.824519	0.818077	0.206521
O28	O	1.121251	0.775877	0.072180
O29	O	0.857669	1.072621	-0.219852
O30	O	0.937052	0.509390	0.225586
O31	O	1.099402	0.494260	0.233361
O32	O	1.105719	0.479125	0.085111
O33	O	0.689002	1.102887	-0.079377
O34	O	0.851352	1.087756	-0.071602
O35	O	0.934457	0.702258	0.140320
O36	O	1.033749	0.684441	0.057625
O37	O	0.952118	0.879756	-0.042736
O38	O	0.852826	0.897573	0.039959
C39	C	0.883697	0.529948	0.014243
C40	C	0.879060	0.441347	0.018103
C41	C	0.974029	0.256238	-0.060969
C42	C	0.969674	0.172989	-0.057344
C43	C	0.866002	0.191593	0.028985
C44	C	0.870356	0.274842	0.025359
C45	C	0.924370	0.307162	-0.019620
C46	C	0.928719	0.390419	-0.023251
C47	C	0.825052	0.409015	0.063083
C48	C	0.820698	0.325766	0.066708
C49	C	0.641877	0.814816	-0.009369
C50	C	0.555169	0.822897	-0.013521
C51	C	0.396428	0.837658	-0.021105
C52	C	0.398286	0.744358	0.026837
C53	C	0.309958	0.752571	0.022617
C54	C	0.484763	0.829447	-0.016887
C55	C	1.152844	0.767195	0.015103
C56	C	1.239552	0.759114	0.019255
C57	C	0.907302	0.767189	-0.230428
C58	C	0.910676	0.759106	-0.309606
C59	C	0.911024	1.052064	-0.008509
C60	C	0.915662	1.140665	-0.012370
C61	C	0.877864	0.837660	-0.539670
C62	C	0.916856	0.744357	-0.454594
C63	C	0.913416	0.752566	-0.373916
C64	C	0.881302	0.829453	-0.620357
C65	C	0.887419	0.814822	0.236162
C66	C	0.884045	0.822906	0.315340
C67	C	1.139180	0.506137	0.026478
C68	C	1.221251	0.409455	0.034492
C69	C	0.873755	0.553764	0.247537
C70	C	0.865744	0.473247	0.330576
C71	C	1.129238	0.529954	0.259773
C72	C	1.207936	0.441355	0.346964
C73	C	0.665483	1.052058	-0.254039
C74	C	0.586786	1.140656	-0.341230
C75	C	0.655541	1.075874	-0.020744
C76	C	0.573470	1.172556	-0.028758
C77	C	0.920966	1.028247	-0.241803
C78	C	0.928977	1.108765	-0.324842
C79	C	1.211846	0.364051	-0.009698
C80	C	1.288955	0.273218	-0.002186
C81	C	1.375467	0.227787	0.049520
C82	C	1.384870	0.273200	0.093710
C83	C	1.307763	0.364036	0.086193
C84	C	0.909928	0.435437	0.417525
C85	C	0.902397	0.359795	0.495555
C86	C	0.850687	0.321958	0.486635
C87	C	0.806497	0.359775	0.399677
C88	C	0.814023	0.435422	0.321649
C89	C	1.296731	0.390447	0.344745
C90	C	1.370684	0.307210	0.426663
C91	C	1.355839	0.274876	0.510801
C92	C	1.267035	0.325792	0.513018
C93	C	1.193084	0.409034	0.431100
C94	C	0.497991	1.191574	-0.339011
C95	C	0.424039	1.274838	-0.420931
C96	C	0.438884	1.307176	-0.505068
C97	C	0.527688	1.256254	-0.507285
C98	C	0.601638	1.172998	-0.425367
C99	C	0.582875	1.217969	0.015423
C100	C	0.505769	1.308822	0.007891
C101	C	0.419258	1.354256	-0.043818
C102	C	0.409854	1.308839	-0.088005
C103	C	0.486960	1.217993	-0.080477
C104	C	0.980695	1.146578	-0.315893
C105	C	0.988240	1.222220	-0.393908
C106	C	0.944062	1.260055	-0.480873
C107	C	0.892343	1.222235	-0.489820
C108	C	0.884803	1.146587	-0.411805
H109	H	1.010112	0.131527	-0.091013
O110	O	0.344452	1.442468	-0.050994
C111	C	0.371318	1.472815	-0.000922
H112	H	0.440648	1.397701	0.054025
H113	H	0.319182	1.498690	0.032952
H114	H	0.375848	1.546591	-0.049253
H115	H	0.764395	0.328957	0.392429
H116	H	0.938386	0.329012	0.566352
O117	O	0.849567	1.258965	-0.574340
C118	C	0.914505	1.227962	-0.616135
H119	H	0.978423	1.214349	-0.584108
H120	H	0.885245	1.297987	-0.692681
H121	H	0.932355	1.146484	-0.605413
H122	H	0.653310	1.180985	0.057536
O123	O	1.311001	0.421948	0.262943
C124	C	1.226699	0.506358	0.191103
H125	H	1.170745	0.500675	0.218099
H126	H	1.229698	0.493661	0.134070
H127	H	1.211486	0.592993	0.163047
O128	O	0.813785	0.159892	0.072930
C129	C	0.844281	0.117368	0.165702
H130	H	0.918278	0.087172	0.186402
H131	H	0.838542	0.043673	0.210353
H132	H	0.800683	0.186869	0.175370
H133	H	1.120785	0.450474	0.432920
O134	O	1.026353	0.287822	-0.104791
C135	C	0.971136	0.403921	-0.176863
H136	H	0.897887	0.431982	-0.198386
H137	H	0.996604	0.419636	-0.237710
H138	H	0.974266	0.454025	-0.152772
O139	O	1.450420	0.139445	0.056991
C140	C	1.496277	0.046830	0.149997
H141	H	1.477791	0.078419	0.195065
H142	H	1.572832	0.000038	0.164163
H143	H	1.475292	-0.012856	0.165972
O144	O	0.479369	0.641775	0.079642
C145	C	0.526396	0.637614	0.146210
H146	H	0.500631	0.727114	0.121705
H147	H	0.602299	0.587843	0.157290
H148	H	0.514288	0.594519	0.213462
O149	O	0.367147	1.388060	-0.584727
C150	C	0.399279	1.405667	-0.659471
H151	H	0.472550	1.377481	-0.637817
H152	H	0.354954	1.499193	-0.718570
H153	H	0.396315	1.354568	-0.682466
O154	O	0.542147	1.287427	-0.588983
C155	C	0.588078	1.192893	-0.592196
H156	H	0.625907	1.112293	-0.519427
H157	H	0.638759	1.196932	-0.629664
H158	H	0.536713	1.193014	-0.630093
H159	H	0.776724	0.299435	0.103333
O160	O	1.023707	1.109905	-0.231487
C161	C	1.070952	1.159530	-0.240338
H162	H	1.085451	1.186134	-0.307748
H163	H	1.137882	1.095769	-0.180791
H164	H	1.027729	1.236814	-0.239631
H165	H	0.479288	1.181021	-0.116453
H166	H	0.952816	0.658313	-0.442348
O167	O	0.771083	0.471986	0.237261
C168	C	0.723817	0.422380	0.246131
H169	H	0.755704	0.341143	0.318079
H170	H	0.728030	0.402310	0.193545
H171	H	0.649498	0.483571	0.233942
H172	H	1.455318	0.236197	0.135808
H173	H	0.844566	0.260361	0.550179
H174	H	0.784613	0.450491	0.096748
O175	O	1.038350	1.259155	-0.385332
C176	C	0.982124	1.377657	-0.433773
H177	H	0.920479	1.413912	-0.489171
H178	H	1.021990	1.414040	-0.466934
H179	H	0.958438	1.400843	-0.384387
H180	H	1.442986	0.265760	0.424842
H181	H	1.315433	0.400994	0.122184
O182	O	0.315324	0.940212	-0.073840
C183	C	0.243923	0.925675	-0.066353
H184	H	0.270485	0.836765	-0.044210
H185	H	0.187168	0.990097	-0.135575
H186	H	0.216378	0.938407	-0.013220
O187	O	0.834957	0.940220	-0.554124
C188	C	0.841046	0.925675	-0.469173
H189	H	0.852752	0.841331	-0.415244
H190	H	0.775071	0.997102	-0.476051
H191	H	0.900235	0.926830	-0.447531
H192	H	1.141412	0.401038	-0.051813
O193	O	0.951552	1.333428	-0.556577
C194	C	1.043817	1.283941	-0.550147
H195	H	1.088622	1.215414	-0.475121
H196	H	1.058164	1.351356	-0.580149
H197	H	1.059273	1.245037	-0.589970
H198	H	0.513443	1.345786	0.043878
H199	H	0.339406	1.345845	-0.130106
H200	H	0.952035	0.466236	0.424804
H201	H	0.485886	1.165250	-0.270510
H202	H	1.416063	0.207093	0.577496
H203	H	0.673937	1.131540	-0.427184
O204	O	0.834485	1.110021	-0.420672
C205	C	0.797131	1.159625	-0.514158
H206	H	0.793382	1.240863	-0.557968
H207	H	0.725845	1.179692	-0.528642
H208	H	0.841957	1.098434	-0.531461
H209	H	0.972698	0.416736	-0.059878
H210	H	0.351738	1.316286	-0.419108
H211	H	1.281280	0.236254	-0.038173
O212	O	1.252782	0.294204	0.594832
C213	C	1.337102	0.209831	0.666648
H214	H	1.390423	0.165457	0.641806
H215	H	1.330115	0.145713	0.727031
H216	H	1.358949	0.250096	0.689182
