data_functionalizedCrystal
_audit_creation_method	'MofGen! by Chris Wilmer'
_symmetry_space_group_name_H-M	'P1'
_symmetry_Int_Tables_number	1
_symmetry_cell_setting	triclinic
loop_
_symmetry_equiv_pos_as_xyz
  x,y,z
_cell_length_a	23.532407
_cell_length_b	23.532409
_cell_length_c	11.892095
_cell_angle_alpha	93.867696
_cell_angle_beta	86.130854
_cell_angle_gamma	82.849119
loop_
_atom_site_label
_atom_site_type_symbol
_atom_site_fract_x
_atom_site_fract_y
_atom_site_fract_z
O1	O	0.758916	0.065479	-0.093855
O2	O	0.593054	0.075481	-0.093887
O3	O	0.680986	-0.012452	-0.093871
O4	O	0.670984	0.153412	-0.093870
O5	O	0.673655	-0.005131	0.094135
O6	O	0.585723	0.082801	0.094119
O7	O	0.751585	0.072799	0.094151
Zn8	Zn	0.667490	0.078963	0.123985
Zn9	Zn	0.677149	0.069318	-0.123721
O10	O	0.663653	0.160732	0.094136
C11	C	0.677066	-0.030008	0.000129
C12	C	0.676300	-0.093225	0.000121
C13	C	0.568173	0.078886	0.000112
C14	C	0.504956	0.078120	0.000099
C15	C	0.677037	-0.370461	-0.102367
C16	C	0.677749	-0.311060	-0.102367
O17	O	0.681536	-0.283729	-0.189521
N18	N	0.674105	-0.277368	0.000117
C19	C	0.669754	-0.303079	0.102607
O20	O	0.666721	-0.268967	0.189778
C21	C	0.669047	-0.362479	0.102606
C22	C	0.672686	-0.396168	0.000116
C23	C	0.680676	-0.404149	-0.204850
C24	C	0.679964	-0.463545	-0.204849
C25	C	0.675612	-0.489252	-0.102366
C26	C	0.671973	-0.455564	0.000116
C27	C	0.664701	-0.388189	0.205096
C28	C	0.663994	-0.447594	0.205086
C29	C	0.667633	-0.481283	0.102595
C30	C	0.666908	-0.540667	0.102599
N31	N	0.670553	-0.574359	0.000116
C32	C	0.674904	-0.548652	-0.102367
C33	C	0.671241	-0.178336	0.102602
C34	C	0.671945	-0.118937	0.102604
C35	C	0.679940	-0.126922	-0.102371
C36	C	0.679233	-0.186322	-0.102372
C37	C	0.674886	-0.212029	0.000118
C38	C	0.673407	-0.673388	-0.102358
C39	C	0.672691	-0.732788	-0.102349
C40	C	0.664699	-0.724798	0.102626
C41	C	0.665411	-0.665402	0.102617
C42	C	0.669768	-0.639699	0.000115
O43	O	0.663125	-0.568038	0.189709
O44	O	0.677945	-0.582772	-0.189523
C45	C	0.105851	0.125355	0.000151
C46	C	0.046451	0.124644	0.000158
O47	O	0.009705	0.168432	0.000199
N48	N	0.023824	0.072368	0.000156
C49	C	0.060601	0.020800	0.000158
O50	O	0.035901	-0.023731	0.000158
C51	C	0.120000	0.021512	0.000159
C52	C	0.142624	0.073791	0.000150
C53	C	0.128475	0.177630	0.000143
C54	C	0.187872	0.178341	0.000134
C55	C	0.224644	0.126777	0.000133
C56	C	0.202020	0.074502	0.000141
C57	C	0.156776	-0.030055	0.000170
C58	C	0.216179	-0.029339	0.000172
C59	C	0.238802	0.022941	0.000162
C60	C	0.298189	0.023649	0.000131
N61	N	0.320816	0.075925	0.000133
C62	C	0.284043	0.127489	0.000134
C63	C	-0.064141	0.019308	0.000157
C64	C	-0.123539	0.018595	0.000148
C65	C	-0.137685	0.122440	0.000150
C66	C	-0.078286	0.123152	0.000151
C67	C	-0.041515	0.071585	0.000160
C68	C	0.408781	0.128978	0.000114
C69	C	0.468183	0.129684	0.000100
C70	C	0.482325	0.025840	0.000104
C71	C	0.422928	0.025133	0.000112
C72	C	0.386156	0.076707	0.000121
O73	O	0.334970	-0.020116	0.000094
O74	O	0.308751	0.172013	0.000149
C75	C	0.776466	0.069394	0.000150
C76	C	0.839683	0.070160	0.000155
C77	C	0.667573	0.178288	0.000133
C78	C	0.668340	0.241505	0.000134
N79	N	0.660901	0.085545	0.293038
N80	N	0.683742	0.062731	-0.292774
C81	C	0.729587	0.016897	0.529698
C82	C	0.724985	0.021502	0.648039
C83	C	0.647096	0.099356	0.648064
C84	C	0.651697	0.094751	0.529723
C85	C	0.692944	0.053521	0.470544
C86	C	0.697548	0.048919	0.352201
C87	C	0.619656	0.126770	0.352227
C88	C	0.615055	0.131375	0.470568
H89	H	0.676955	-0.652468	-0.185825
H90	H	0.731134	0.015349	0.304019
H91	H	0.683482	-0.105981	-0.185818
O92	O	0.769669	-0.023197	0.472381
C93	C	0.846468	-0.099903	0.484841
C94	C	0.801091	-0.054530	0.549891
H95	H	0.871894	-0.125240	0.547480
H96	H	0.824227	-0.130424	0.429472
H97	H	0.876906	-0.077602	0.429401
H98	H	0.770641	-0.076782	0.605394
H99	H	0.823371	-0.024012	0.605189
H100	H	0.682931	-0.490971	-0.288308
H101	H	0.512276	-0.016142	0.000099
H102	H	-0.141952	-0.023976	0.000138
H103	H	0.589821	0.156594	0.304050
O104	O	0.606951	0.139340	0.705516
C105	C	0.506329	0.174632	0.741717
C106	C	0.551734	0.129312	0.676599
H107	H	0.461677	0.166548	0.718344
H108	H	0.509287	0.171624	0.836471
H109	H	0.514418	0.219306	0.718485
H110	H	0.543675	0.084618	0.699736
H111	H	0.548765	0.132371	0.581861
O112	O	0.666929	-0.203355	0.202099
C113	C	0.612106	-0.259012	0.321089
C114	C	0.616930	-0.230725	0.208357
H115	H	0.571679	-0.281138	0.326196
H116	H	0.651403	-0.292087	0.326269
H117	H	0.609649	-0.224714	0.394304
H118	H	0.619371	-0.264982	0.135079
H119	H	0.577634	-0.197638	0.203277
O120	O	0.134791	-0.080834	-0.000017
C121	C	0.079720	-0.145704	-0.097360
C122	C	0.104593	-0.088184	-0.097305
H123	H	0.055289	-0.151659	-0.175997
H124	H	0.116196	-0.182454	-0.097427
H125	H	0.049226	-0.145563	-0.018640
H126	H	0.135079	-0.088269	-0.176011
H127	H	0.068088	-0.051460	-0.097179
H128	H	0.660454	-0.468520	0.288548
H129	H	-0.167637	0.164427	0.000156
O130	O	0.490256	0.180418	0.000034
C131	C	0.575487	0.227545	0.000063
C132	C	0.550570	0.170051	0.000117
H133	H	0.624253	0.219184	0.000154
H134	H	0.563419	0.249948	-0.078639
H135	H	0.557225	0.256076	0.078722
H136	H	0.568818	0.141476	-0.078489
H137	H	0.562633	0.147694	0.078871
H138	H	0.754823	-0.008321	0.696200
H139	H	-0.034204	-0.022687	0.000154
H140	H	0.246116	-0.071332	0.000179
H141	H	0.581470	0.164943	0.518765
O142	O	0.401041	-0.025698	0.000156
C143	C	0.421352	-0.128625	0.000078
C144	C	0.446208	-0.071098	0.000044
H145	H	0.457858	-0.165347	-0.000037
H146	H	0.390858	-0.128532	0.078783
H147	H	0.396935	-0.134585	-0.078577
H148	H	0.470653	-0.065102	0.078646
H149	H	0.476672	-0.071218	-0.078714
O150	O	0.684791	-0.379211	-0.304458
C151	C	0.642477	-0.361237	-0.479680
C152	C	0.637753	-0.389480	-0.366883
H153	H	0.604459	-0.369540	-0.530194
H154	H	0.642320	-0.312982	-0.462214
H155	H	0.684180	-0.380317	-0.530174
H156	H	0.596055	-0.370446	-0.316333
H157	H	0.637943	-0.437735	-0.384429
O158	O	0.676255	-0.765432	-0.202014
C159	C	0.684217	-0.767067	-0.405320
C160	C	0.680201	-0.730035	-0.292537
H161	H	0.687397	-0.738462	-0.478537
H162	H	0.723956	-0.800498	-0.410524
H163	H	0.644228	-0.789656	-0.410389
H164	H	0.720161	-0.707409	-0.287392
H165	H	0.640438	-0.696639	-0.287381
H166	H	0.682195	-0.213748	-0.185829
H167	H	0.668971	-0.091510	0.186062
H168	H	0.662426	-0.637968	0.186073
O169	O	0.661072	-0.355439	0.304631
C170	C	0.607924	-0.277013	0.423611
C171	C	0.611954	-0.314065	0.310849
H172	H	0.568221	-0.243546	0.428665
H173	H	0.604659	-0.305572	0.496885
H174	H	0.647938	-0.254467	0.428730
H175	H	0.571950	-0.336617	0.305621
H176	H	0.615246	-0.285477	0.237629
H177	H	0.661153	-0.745739	0.186064
H178	H	0.378848	0.170975	0.000125
H179	H	0.206286	0.220912	0.000126
H180	H	0.098540	0.219623	0.000148
H181	H	-0.059871	0.165723	0.000150
