data_functionalizedCrystal
_audit_creation_method	'MofGen! by Chris Wilmer'
_symmetry_space_group_name_H-M	'P1'
_symmetry_Int_Tables_number	1
_symmetry_cell_setting	triclinic
loop_
_symmetry_equiv_pos_as_xyz
  x,y,z
_cell_length_a	10.654541
_cell_length_b	15.995292
_cell_length_c	9.730217
_cell_angle_alpha	89.999943
_cell_angle_beta	89.999932
_cell_angle_gamma	83.976272
loop_
_atom_site_label
_atom_site_type_symbol
_atom_site_fract_x
_atom_site_fract_y
_atom_site_fract_z
O1	O	1.666266	0.117594	-0.114237
O2	O	2.166266	0.617594	0.385763
O3	O	1.300637	0.128801	-0.114248
O4	O	1.800637	0.628801	0.385752
O5	O	1.493484	0.001365	-0.114244
O6	O	1.993484	0.501365	0.385756
O7	O	1.473418	0.245031	-0.114241
O8	O	1.973418	0.745031	0.385759
O9	O	1.493478	0.001364	0.114336
O10	O	1.993478	0.501364	0.614336
O11	O	1.300631	0.128800	0.114332
O12	O	1.800631	0.628800	0.614332
O13	O	1.666260	0.117593	0.114343
O14	O	2.166260	0.617593	0.614343
Zn15	Zn	1.483444	0.123196	0.150629
Zn16	Zn	1.983444	0.623196	0.650629
Zn17	Zn	1.483452	0.123198	-0.150535
Zn18	Zn	1.983452	0.623198	0.349465
O19	O	1.473412	0.245029	0.114339
O20	O	1.973412	0.745029	0.614339
C21	C	1.253847	0.127978	0.000040
C22	C	1.753847	0.627978	0.500040
C23	C	1.114436	0.125518	0.000036
C24	C	1.614436	0.625518	0.500036
C25	C	1.492664	-0.029836	0.000042
C26	C	1.992664	0.470164	0.500042
C27	C	1.490216	-0.122803	0.000032
C28	C	1.990216	0.377197	0.500032
C29	C	1.084427	0.277902	0.000021
C30	C	1.584427	0.777902	0.500021
C31	C	1.003929	0.352935	0.000008
C32	C	1.503929	0.852935	0.500008
C33	C	0.872942	0.350618	0.000006
C34	C	1.372942	0.850618	0.500006
C35	C	0.822451	0.273260	0.000022
C36	C	1.322451	0.773260	0.500022
C37	C	0.902949	0.198227	0.000035
C38	C	1.402949	0.698227	0.500035
C39	C	1.033938	0.200552	0.000033
C40	C	1.533938	0.700552	0.500033
C41	C	0.932958	0.045844	0.000060
C42	C	1.432958	0.545844	0.500060
C43	C	1.063946	0.048159	0.000052
C44	C	1.563946	0.548159	0.500052
C45	C	0.882468	-0.031514	0.000076
C46	C	1.382468	0.468486	0.500076
C47	C	0.962966	-0.106549	0.000079
C48	C	1.462966	0.393451	0.500079
C49	C	1.093960	-0.104228	0.000079
C50	C	1.593960	0.395772	0.500079
C51	C	1.144443	-0.026873	0.000065
C52	C	1.644443	0.473127	0.500065
C53	C	1.481215	-0.460594	0.000044
C54	C	1.981215	0.039406	0.500044
C55	C	1.620407	-0.436474	0.000559
C56	C	2.120407	0.063526	0.500559
C57	C	1.623052	-0.339783	0.000039
C58	C	2.123052	0.160217	0.500039
C59	C	1.485681	-0.293012	0.000039
C60	C	1.985681	0.206988	0.500039
C61	C	1.416095	-0.322516	-0.130490
C62	C	1.916095	0.177484	0.369510
C63	C	1.414420	-0.419316	-0.130594
C64	C	1.914420	0.080684	0.369406
C65	C	1.411570	-0.419191	0.129344
C66	C	1.911570	0.080809	0.629344
C67	C	1.416729	-0.322669	0.131065
C68	C	1.916729	0.177331	0.631065
C69	C	1.488198	-0.198301	0.000031
C70	C	1.988198	0.301699	0.500031
C71	C	1.478694	-0.555304	0.000042
C72	C	1.978694	-0.055304	0.500042
C73	C	1.713050	0.118416	0.000051
C74	C	2.213050	0.618416	0.500051
C75	C	1.852460	0.120877	0.000047
C76	C	2.352460	0.620877	0.500047
C77	C	1.474232	0.276230	0.000050
C78	C	1.974232	0.776230	0.500050
C79	C	1.476680	0.369198	0.000051
C80	C	1.976680	0.869198	0.500051
N81	N	1.483448	0.123195	0.356166
N82	N	1.983448	0.623195	0.856166
N83	N	1.483458	0.123193	-0.356071
N84	N	1.983458	0.623193	0.143929
C85	C	1.654284	0.010383	0.356160
C86	C	2.154284	0.510383	0.856160
C87	C	1.739710	-0.046020	0.428097
C88	C	2.239710	0.453980	0.928097
C89	C	1.739723	-0.046020	0.571976
C90	C	2.239723	0.453980	1.071976
C91	C	1.654297	0.010387	0.643923
C92	C	2.154297	0.510387	1.143923
C93	C	1.568871	0.066790	0.571986
C94	C	2.068871	0.566790	1.071986
C95	C	1.568870	0.066786	0.428103
C96	C	2.068870	0.566786	0.928103
C97	C	1.398032	0.179596	0.571992
C98	C	1.898032	0.679596	1.071992
C99	C	1.398023	0.179602	0.428112
C100	C	1.898023	0.679602	0.928112
C101	C	1.312607	0.236004	0.643938
C102	C	1.812607	0.736004	1.143938
C103	C	1.227185	0.292412	0.572001
C104	C	1.727185	0.792412	1.072001
C105	C	1.227176	0.292411	0.428113
C106	C	1.727176	0.792411	0.928113
C107	C	1.312597	0.236006	0.356175
C108	C	1.812597	0.736006	0.856175
H109	H	1.191082	0.279797	-0.000008
H110	H	1.691082	0.779797	0.499992
F111	F	1.179624	-0.184091	0.000103
F112	F	1.679624	0.315909	0.500103
H113	H	1.045053	0.415919	-0.000001
H114	H	1.545053	0.915919	0.499999
F115	F	0.787268	0.430475	0.000004
F116	F	1.287268	0.930475	0.500004
H117	H	0.715793	0.271380	0.000038
H118	H	1.215793	0.771380	0.500038
F119	F	1.312614	0.235999	0.797068
F120	F	1.812614	0.735999	1.297068
H121	H	1.809260	-0.091948	0.369506
H122	H	2.309260	0.408052	0.869506
F123	F	0.743059	-0.033978	0.000082
F124	F	1.243059	0.466022	0.500082
H125	H	1.251098	-0.024977	0.000048
H126	H	1.751098	0.475023	0.500048
F127	F	1.690534	-0.472660	0.122912
F128	F	2.190534	0.027340	0.622912
F129	F	0.909222	-0.188869	0.000107
F130	F	1.409222	0.311131	0.500107
F131	F	1.312601	0.236002	0.203045
F132	F	1.812601	0.736002	0.703045
F133	F	1.694260	-0.314498	0.122353
F134	F	2.194260	0.185502	0.622353
F135	F	1.830636	-0.106055	0.648538
F136	F	2.330636	0.393945	1.148538
H137	H	1.673762	-0.465182	-0.092520
H138	H	2.173762	0.034818	0.407480
H139	H	1.309115	-0.433776	0.130223
H140	H	1.809115	0.066224	0.630223
F141	F	1.694708	-0.315306	-0.122473
F142	F	2.194708	0.184694	0.377527
H143	H	1.654303	0.010376	0.761077
H144	H	2.154303	0.510376	1.261077
F145	F	1.477424	-0.454004	-0.258123
F146	F	1.977424	0.045996	0.241877
H147	H	1.312363	-0.434458	-0.136508
H148	H	1.812363	0.065542	0.363492
H149	H	1.315008	-0.291235	-0.135342
H150	H	1.815008	0.208765	0.364658
H151	H	1.464422	-0.302174	-0.227628
H152	H	1.964422	0.197826	0.272372
H153	H	1.157632	0.338331	0.630589
H154	H	1.657632	0.838331	1.130589
F155	F	1.468489	-0.455846	0.258659
F156	F	1.968489	0.044154	0.758659
F157	F	1.482948	-0.298013	0.257284
F158	F	1.982948	0.201987	0.757284
F159	F	1.285669	-0.280338	0.141370
F160	F	1.785669	0.219662	0.641370
F161	F	1.654293	0.010387	0.203030
F162	F	2.154293	0.510387	0.703030
F163	F	1.136245	0.352441	0.351564
F164	F	1.636245	0.852441	0.851564
