data_functionalizedCrystal
_audit_creation_method	'MofGen! by Chris Wilmer'
_symmetry_space_group_name_H-M	'P1'
_symmetry_Int_Tables_number	1
_symmetry_cell_setting	triclinic
loop_
_symmetry_equiv_pos_as_xyz
  x,y,z
_cell_length_a	8.559649
_cell_length_b	14.586319
_cell_length_c	16.109301
_cell_angle_alpha	90.005214
_cell_angle_beta	103.379927
_cell_angle_gamma	89.996820
loop_
_atom_site_label
_atom_site_type_symbol
_atom_site_fract_x
_atom_site_fract_y
_atom_site_fract_z
O1	O	2.120141	-0.076224	0.028207
O2	O	1.654914	-0.076230	-0.014732
O3	O	1.900308	-0.076218	0.128583
O4	O	1.874747	-0.076237	-0.115108
O5	O	1.900291	0.076263	0.128584
O6	O	1.654897	0.076250	-0.014731
O7	O	2.120124	0.076257	0.028208
Cu8	Cu	1.887509	0.090176	0.006738
Cu9	Cu	1.887529	-0.090150	0.006737
O10	O	1.874730	0.076244	-0.115107
C11	C	1.595374	0.000009	-0.017985
C12	C	1.417989	0.000007	-0.027671
N13	N	1.887506	0.217008	0.006740
N14	N	1.887544	-0.216982	0.006743
C15	C	2.179664	0.000015	0.031461
C16	C	2.357049	0.000011	0.041147
C17	C	1.899264	0.000023	0.159492
C18	C	1.896160	0.000024	0.251590
C19	C	1.996202	0.452020	0.070183
C20	C	1.996207	0.548001	0.070186
C21	C	1.778837	0.547999	-0.056704
C22	C	1.778826	0.452020	-0.056702
C23	C	1.887518	0.404033	0.006741
C24	C	1.887533	0.595994	0.006742
C25	C	1.887537	0.700061	0.006744
C26	C	1.887512	0.299959	0.006741
C27	C	1.875774	0.000001	-0.146016
C28	C	1.878878	-0.000006	-0.238114
C29	C	2.034553	0.000012	0.482679
C30	C	2.031624	0.000004	0.569213
C31	C	1.740473	0.000004	0.530789
C32	C	1.743404	0.000005	0.444257
C33	C	1.890449	0.000013	0.420205
C34	C	1.884589	0.000005	0.593271
C35	C	1.881412	-0.000003	0.687094
C36	C	1.893627	0.000020	0.326376
H37	H	1.334449	-0.000003	-0.094004
H38	H	1.690313	0.412946	-0.108364
H39	H	2.154287	0.000017	0.463099
H40	H	1.440580	0.000012	0.107476
H41	H	2.084706	0.587070	0.121847
N42	N	2.113388	0.400250	0.138618
H43	H	2.184118	0.360414	0.111352
H44	H	2.182130	0.445268	0.178796
N45	N	2.187050	0.000002	0.636596
H46	H	2.280640	0.000008	0.608225
H47	H	2.192169	0.056527	0.673342
H48	H	1.620755	-0.000002	0.550384
H49	H	1.690344	0.587080	-0.108358
N50	N	1.587970	0.000000	0.376866
H51	H	1.494373	0.000001	0.405232
H52	H	1.582843	0.056525	0.340129
