data_functionalizedCrystal
_audit_creation_method	'MofGen! by Chris Wilmer'
_symmetry_space_group_name_H-M	'P1'
_symmetry_Int_Tables_number	1
_symmetry_cell_setting	triclinic
loop_
_symmetry_equiv_pos_as_xyz
  x,y,z
_cell_length_a	16.625547
_cell_length_b	16.625546
_cell_length_c	18.215399
_cell_angle_alpha	90.029595
_cell_angle_beta	90.023440
_cell_angle_gamma	90.022405
loop_
_atom_site_label
_atom_site_type_symbol
_atom_site_fract_x
_atom_site_fract_y
_atom_site_fract_z
Zn1	Zn	1.232669	-0.321008	0.416190
Zn2	Zn	1.482669	-0.071008	0.666190
Zn3	Zn	1.732669	0.178992	0.916190
Zn4	Zn	1.982669	0.428992	1.166190
Zn5	Zn	1.232576	-0.455849	0.293121
Zn6	Zn	1.482576	-0.205849	0.543121
Zn7	Zn	1.732576	0.044151	0.793121
Zn8	Zn	1.982576	0.294151	1.043121
Zn9	Zn	1.097835	-0.321034	0.293128
Zn10	Zn	1.347835	-0.071034	0.543128
Zn11	Zn	1.597835	0.178966	0.793128
Zn12	Zn	1.847835	0.428966	1.043128
Zn13	Zn	1.097802	-0.455802	0.416137
Zn14	Zn	1.347802	-0.205802	0.666137
Zn15	Zn	1.597802	0.044198	0.916137
Zn16	Zn	1.847802	0.294198	1.166137
O17	O	1.165220	-0.388423	0.354644
O18	O	1.415220	-0.138423	0.604644
O19	O	1.665220	0.111577	0.854644
O20	O	1.915220	0.361577	1.104644
O21	O	1.345489	-0.338904	0.399884
O22	O	1.595489	-0.088904	0.649884
O23	O	1.845489	0.161096	0.899884
O24	O	2.095489	0.411096	1.149884
O25	O	1.214677	-0.437996	0.190138
O26	O	1.464677	-0.187996	0.440138
O27	O	1.714677	0.062004	0.690138
O28	O	1.964677	0.312004	0.940138
O29	O	1.115774	-0.208198	0.309478
O30	O	1.365774	0.041802	0.559478
O31	O	1.615774	0.291802	0.809478
O32	O	1.865774	0.541802	1.059478
O33	O	1.345421	-0.437971	0.309465
O34	O	1.595421	-0.187971	0.559465
O35	O	1.845421	0.062029	0.809465
O36	O	2.095421	0.312029	1.059465
O37	O	1.214836	-0.208179	0.399891
O38	O	1.464836	0.041821	0.649891
O39	O	1.714836	0.291821	0.899891
O40	O	1.964836	0.541821	1.149891
O41	O	1.115683	-0.338948	0.190143
O42	O	1.365683	-0.088948	0.440143
O43	O	1.615683	0.161052	0.690143
O44	O	1.865683	0.411052	0.940143
O45	O	0.984998	-0.338903	0.309427
O46	O	1.234998	-0.088903	0.559427
O47	O	1.484998	0.161097	0.809427
O48	O	1.734998	0.411097	1.059427
O49	O	1.115718	-0.437891	0.519128
O50	O	1.365718	-0.187891	0.769128
O51	O	1.615718	0.062109	1.019128
O52	O	1.865718	0.312109	1.269128
O53	O	0.984974	-0.437916	0.399801
O54	O	1.234974	-0.187916	0.649801
O55	O	1.484974	0.062084	0.899801
O56	O	1.734974	0.312084	1.149801
O57	O	1.214804	-0.338858	0.519167
O58	O	1.464804	-0.088858	0.769167
O59	O	1.714804	0.161142	1.019167
O60	O	1.964804	0.411142	1.269167
O61	O	1.214645	-0.568675	0.309414
O62	O	1.464645	-0.318675	0.559414
O63	O	1.714645	-0.068675	0.809414
O64	O	1.964645	0.181325	1.059414
O65	O	1.115627	-0.568641	0.399794
O66	O	1.365627	-0.318641	0.649794
O67	O	1.615627	-0.068641	0.899794
O68	O	1.865627	0.181359	1.149794
C69	C	0.955730	-0.388408	0.354609
C70	C	1.205730	-0.138408	0.604609
C71	C	1.455730	0.111592	0.854609
C72	C	1.705730	0.361592	1.104609
C73	C	0.866108	-0.388420	0.354612
C74	C	1.116108	-0.138420	0.604612
C75	C	1.366108	0.111580	0.854612
C76	C	1.616108	0.361580	1.104612
C77	C	0.793326	-0.388422	0.354621
C78	C	1.043326	-0.138422	0.604621
C79	C	1.293326	0.111578	0.854621
C80	C	1.543326	0.361578	1.104621
C81	C	0.702018	-0.388426	0.354639
C82	C	0.952018	-0.138426	0.604639
C83	C	1.202018	0.111574	0.854639
C84	C	1.452018	0.361574	1.104639
C85	C	0.629241	-0.388434	0.354658
C86	C	0.879241	-0.138434	0.604658
C87	C	1.129241	0.111566	0.854658
C88	C	1.379241	0.361566	1.104658
C89	C	0.537927	-0.388439	0.354676
C90	C	0.787927	-0.138439	0.604676
C91	C	1.037927	0.111561	0.854676
C92	C	1.287927	0.361561	1.104676
C93	C	1.165144	-0.597914	0.354613
C94	C	1.415144	-0.347914	0.604613
C95	C	1.665144	-0.097914	0.854613
C96	C	1.915144	0.152086	1.104613
C97	C	1.165185	-0.687535	0.354625
C98	C	1.415185	-0.437535	0.604625
C99	C	1.665185	-0.187535	0.854625
C100	C	1.915185	0.062465	1.104625
C101	C	1.165326	-1.015711	0.354701
C102	C	1.415326	-0.765711	0.604701
C103	C	1.665326	-0.515711	0.854701
C104	C	1.915326	-0.265711	1.104701
C105	C	1.165284	-0.924402	0.354682
C106	C	1.415284	-0.674402	0.604682
C107	C	1.665284	-0.424402	0.854682
C108	C	1.915284	-0.174402	1.104682
C109	C	1.165255	-0.851626	0.354663
C110	C	1.415255	-0.601626	0.604663
C111	C	1.665255	-0.351626	0.854663
C112	C	1.915255	-0.101626	1.104663
C113	C	1.165215	-0.760312	0.354644
C114	C	1.415215	-0.510312	0.604644
C115	C	1.665215	-0.260312	0.854644
C116	C	1.915215	-0.010312	1.104644
C117	C	1.375529	-0.388440	0.354679
C118	C	1.625529	-0.138440	0.604679
C119	C	1.875529	0.111560	0.854679
C120	C	2.125529	0.361560	1.104679
C121	C	1.465150	-0.388447	0.354695
C122	C	1.715150	-0.138447	0.604695
C123	C	1.965150	0.111553	0.854695
C124	C	2.215150	0.361553	1.104695
C125	C	1.165268	-0.388366	0.546597
C126	C	1.415268	-0.138366	0.796597
C127	C	1.665268	0.111634	1.046597
C128	C	1.915268	0.361634	1.296597
C129	C	1.165288	-0.388342	0.628396
C130	C	1.415288	-0.138342	0.878396
C131	C	1.665288	0.111658	1.128396
C132	C	1.915288	0.361658	1.378396
C133	C	1.165319	-0.178114	0.354691
C134	C	1.415319	0.071886	0.604691
C135	C	1.665319	0.321886	0.854691
C136	C	1.915319	0.571886	1.104691
C137	C	1.165361	-0.088493	0.354711
C138	C	1.415361	0.161507	0.604711
C139	C	1.665361	0.411507	0.854711
C140	C	1.915361	0.661507	1.104711
C141	C	1.165220	-0.388422	0.163438
C142	C	1.415220	-0.138422	0.413438
C143	C	1.665220	0.111578	0.663438
C144	C	1.915220	0.361578	0.913438
C145	C	1.165356	-0.388219	0.081639
C146	C	1.415356	-0.138219	0.331639
C147	C	1.665356	0.111781	0.581639
C148	C	1.915356	0.361781	0.831639
C149	C	1.216912	-0.336706	0.893475
C150	C	1.466912	-0.086706	1.143475
C151	C	1.716912	0.163294	1.393475
C152	C	1.966912	0.413294	1.643475
C153	C	1.216903	-0.336728	0.816616
C154	C	1.466903	-0.086728	1.066616
C155	C	1.716903	0.163272	1.316616
C156	C	1.966903	0.413272	1.566616
C157	C	1.113729	-0.439861	0.816566
C158	C	1.363729	-0.189861	1.066566
C159	C	1.613729	0.060139	1.316566
C160	C	1.863729	0.310139	1.566566
C161	C	1.113743	-0.439842	0.893423
C162	C	1.363743	-0.189842	1.143423
C163	C	1.613743	0.060158	1.393423
C164	C	1.863743	0.310158	1.643423
C165	C	1.165334	-0.388260	0.931876
C166	C	1.415334	-0.138260	1.181876
C167	C	1.665334	0.111740	1.431876
C168	C	1.915334	0.361740	1.681876
C169	C	1.165310	-0.388301	0.778160
C170	C	1.415310	-0.138301	1.028160
C171	C	1.665310	0.111699	1.278160
C172	C	1.915310	0.361699	1.528160
C173	C	1.165299	-0.388325	0.694826
C174	C	1.415299	-0.138325	0.944826
C175	C	1.665299	0.111675	1.194826
C176	C	1.915299	0.361675	1.444826
C177	C	1.165346	-0.388237	1.015215
C178	C	1.415346	-0.138237	1.265215
C179	C	1.665346	0.111763	1.515215
C180	C	1.915346	0.361763	1.765215
H181	H	1.258920	-0.294704	0.924781
H182	H	1.508920	-0.044704	1.174781
H183	H	1.758920	0.205296	1.424781
H184	H	2.008920	0.455296	1.674781
H185	H	1.258904	-0.294748	0.785354
H186	H	1.508904	-0.044748	1.035354
H187	H	1.758904	0.205252	1.285354
H188	H	2.008904	0.455252	1.535354
H189	H	1.071741	-0.481829	0.924690
H190	H	1.321741	-0.231829	1.174690
H191	H	1.571741	0.018171	1.424690
H192	H	1.821741	0.268171	1.674690
H193	H	1.071725	-0.481856	0.785248
H194	H	1.321725	-0.231856	1.035248
H195	H	1.571725	0.018144	1.285248
H196	H	1.821725	0.268144	1.535248
