data_functionalizedCrystal
_audit_creation_method	'MofGen! by Chris Wilmer'
_symmetry_space_group_name_H-M	'P1'
_symmetry_Int_Tables_number	1
_symmetry_cell_setting	triclinic
loop_
_symmetry_equiv_pos_as_xyz
  x,y,z
_cell_length_a	6.394989
_cell_length_b	11.026607
_cell_length_c	9.482900
_cell_angle_alpha	78.636152
_cell_angle_beta	99.609925
_cell_angle_gamma	97.541864
loop_
_atom_site_label
_atom_site_type_symbol
_atom_site_fract_x
_atom_site_fract_y
_atom_site_fract_z
O1	O	0.853991	1.642134	-0.120874
O2	O	0.753816	1.287297	-0.120878
O3	O	0.501733	1.469752	-0.120877
O4	O	1.106074	1.459679	-0.120875
O5	O	0.553199	1.432696	0.120915
O6	O	0.805282	1.250240	0.120914
O7	O	0.905458	1.605077	0.120919
Cu8	Cu	0.860069	1.424275	0.142994
Cu9	Cu	0.799204	1.468099	-0.142954
O10	O	1.157541	1.422622	0.120918
C11	C	0.761069	1.223275	0.000017
C12	C	0.705977	1.087719	0.000015
C13	C	0.858092	1.016240	0.000015
C14	C	0.801156	0.876135	0.000013
N15	N	0.902881	1.393461	0.344114
C16	C	1.210376	1.443143	0.000015
C17	C	1.448899	1.449231	0.000011
C18	C	0.898204	1.669100	0.000020
C19	C	0.953294	1.804657	0.000012
N20	N	0.756380	1.498923	-0.344074
C21	C	0.811817	1.459002	0.416313
C22	C	0.847457	1.433372	0.583731
H23	H	0.628755	0.833618	-0.000025
O24	O	1.041155	1.294018	0.426388
H25	H	0.972820	1.202824	0.397294
H26	H	1.030476	1.058766	0.000024
O27	O	0.618143	1.598390	0.573649
H28	H	0.454703	1.575620	0.602781
O29	O	1.181656	0.860963	0.000009
H30	H	1.190545	0.962172	-0.000001
H31	H	0.951802	1.358277	0.645855
H32	H	0.533588	1.045197	-0.000023
O33	O	0.673517	1.558430	0.334036
H34	H	0.667200	1.562944	0.215451
