data_functionalizedCrystal
_audit_creation_method	'MofGen! by Chris Wilmer'
_symmetry_space_group_name_H-M	'P1'
_symmetry_Int_Tables_number	1
_symmetry_cell_setting	triclinic
loop_
_symmetry_equiv_pos_as_xyz
  x,y,z
_cell_length_a	14.853569
_cell_length_b	14.853559
_cell_length_c	15.186229
_cell_angle_alpha	89.996359
_cell_angle_beta	89.998535
_cell_angle_gamma	96.366491
loop_
_atom_site_label
_atom_site_type_symbol
_atom_site_fract_x
_atom_site_fract_y
_atom_site_fract_z
O1	O	1.196355	-0.117713	0.073184
O2	O	1.529688	0.215620	0.406517
O3	O	1.863022	0.548953	0.739851
O4	O	0.933895	-0.131733	0.073194
O5	O	1.267228	0.201600	0.406527
O6	O	1.600562	0.534933	0.739861
O7	O	1.072140	0.006507	0.073188
O8	O	1.405473	0.339840	0.406521
O9	O	1.738806	0.673174	0.739854
O10	O	1.058110	-0.255954	0.073190
O11	O	1.391444	0.077380	0.406523
O12	O	1.724777	0.410713	0.739857
O13	O	1.072139	0.006515	-0.073270
O14	O	1.405472	0.339849	0.260064
O15	O	1.738805	0.673182	0.593397
O16	O	0.933894	-0.131725	-0.073263
O17	O	1.267227	0.201608	0.260070
O18	O	1.600561	0.534942	0.593403
O19	O	1.196354	-0.117705	-0.073273
O20	O	1.529687	0.215628	0.260060
O21	O	1.863020	0.548962	0.593393
Zn22	Zn	1.065124	-0.124714	-0.096522
Zn23	Zn	1.398457	0.208620	0.236812
Zn24	Zn	1.731790	0.541953	0.570145
Zn25	Zn	1.065125	-0.124725	0.096442
Zn26	Zn	1.398458	0.208609	0.429776
Zn27	Zn	1.731792	0.541942	0.763109
O28	O	1.058109	-0.255945	-0.073267
O29	O	1.391443	0.077388	0.260066
O30	O	1.724776	0.410721	0.593400
C31	C	0.900306	-0.131094	-0.000033
C32	C	1.233639	0.202240	0.333300
C33	C	1.566973	0.535573	0.666633
C34	C	0.800222	-0.129189	-0.000029
C35	C	1.133556	0.204144	0.333304
C36	C	1.466889	0.537477	0.666637
C37	C	0.763848	-0.046178	-0.000027
C38	C	1.097182	0.287155	0.333306
C39	C	1.430515	0.620489	0.666640
C40	C	0.742554	-0.210411	-0.000035
C41	C	1.075887	0.122922	0.333298
C42	C	1.409221	0.456255	0.666631
C43	C	0.648520	-0.208625	-0.000036
C44	C	0.981853	0.124708	0.333297
C45	C	1.315186	0.458042	0.666630
C46	C	0.612146	-0.125614	-0.000034
C47	C	0.945479	0.207720	0.333299
C48	C	1.278812	0.541053	0.666633
C49	C	0.669806	-0.044389	-0.000031
C50	C	1.003139	0.288944	0.333303
C51	C	1.336472	0.622278	0.666636
C52	C	0.590853	-0.289848	-0.000049
C53	C	0.924186	0.043485	0.333285
C54	C	1.257519	0.376819	0.666618
C55	C	0.496812	-0.288065	-0.000051
C56	C	0.830146	0.045269	0.333283
C57	C	1.163479	0.378602	0.666616
C58	C	0.460437	-0.205053	-0.000042
C59	C	0.793770	0.128281	0.333291
C60	C	1.127104	0.461614	0.666625
C61	C	0.518103	-0.123825	-0.000038
C62	C	0.851437	0.209509	0.333296
C63	C	1.184770	0.542842	0.666629
C64	C	0.481729	-0.040813	-0.000035
C65	C	0.815062	0.292520	0.333298
C66	C	1.148396	0.625853	0.666631
C67	C	0.539394	0.040416	-0.000025
C68	C	0.872727	0.373749	0.333309
C69	C	1.206061	0.707082	0.666642
C70	C	0.633430	0.038623	-0.000022
C71	C	0.966764	0.371957	0.333311
C72	C	1.300097	0.705290	0.666645
C73	C	0.366401	-0.203260	-0.000045
C74	C	0.699734	0.130073	0.333289
C75	C	1.033067	0.463406	0.666622
C76	C	0.387687	-0.039024	-0.000039
C77	C	0.721020	0.294309	0.333294
C78	C	1.054353	0.627642	0.666628
C79	C	1.071505	0.040100	-0.000039
C80	C	1.404838	0.373433	0.333294
C81	C	1.738172	0.706767	0.666627
C82	C	1.069604	0.140184	-0.000034
C83	C	1.402937	0.473517	0.333299
C84	C	1.736271	0.806851	0.666632
C85	C	1.229943	-0.118345	-0.000044
C86	C	1.563276	0.214989	0.333289
C87	C	1.896610	0.548322	0.666623
C88	C	1.330027	-0.120249	-0.000042
C89	C	1.663360	0.213084	0.333291
C90	C	1.996693	0.546418	0.666624
C91	C	1.058744	-0.289538	-0.000038
C92	C	1.392077	0.043795	0.333295
C93	C	1.725411	0.377128	0.666628
C94	C	1.060645	-0.389622	-0.000037
C95	C	1.393978	-0.056289	0.333296
C96	C	1.727311	0.277044	0.666629
C97	C	1.061541	0.563355	0.079800
C98	C	1.394874	0.896688	0.413133
C99	C	1.728208	1.230021	0.746467
C100	C	1.061540	0.563358	-0.079873
C101	C	1.394873	0.896692	0.253460
C102	C	1.728206	1.230025	0.586793
C103	C	1.063333	0.469325	-0.079874
C104	C	1.396666	0.802658	0.253459
C105	C	1.730000	1.135992	0.586793
C106	C	1.064229	0.422302	-0.000037
C107	C	1.397562	0.755635	0.333297
C108	C	1.730896	1.088969	0.666630
C109	C	1.063332	0.469312	0.079802
C110	C	1.396665	0.802646	0.413135
C111	C	1.729998	1.135979	0.746468
C112	C	1.064221	0.422307	-0.159711
C113	C	1.397555	0.755640	0.173622
C114	C	1.730888	1.088973	0.506956
C115	C	1.066014	0.328267	-0.159715
C116	C	1.399347	0.661601	0.173618
C117	C	1.732680	0.994934	0.506952
C118	C	1.066916	0.281244	-0.079877
C119	C	1.400250	0.614577	0.253457
C120	C	1.733583	0.947910	0.586790
C121	C	1.066020	0.328260	-0.000035
C122	C	1.399353	0.661593	0.333298
C123	C	1.732687	0.994926	0.666632
C124	C	1.066916	0.281237	0.079802
C125	C	1.400249	0.614570	0.413136
C126	C	1.733583	0.947903	0.746469
C127	C	1.066026	0.328252	0.159645
C128	C	1.399359	0.661585	0.492978
C129	C	1.732693	0.994919	0.826312
C130	C	1.064234	0.422288	0.159640
C131	C	1.397568	0.755622	0.492974
C132	C	1.730901	1.088955	0.826307
C133	C	1.068708	0.187207	-0.079872
C134	C	1.402041	0.520540	0.253462
C135	C	1.735375	0.853874	0.586795
C136	C	1.068707	0.187194	0.079804
C137	C	1.402040	0.520528	0.413137
C138	C	1.735373	0.853861	0.746471
N139	N	1.065127	-0.124726	0.228135
N140	N	1.398460	0.208608	0.561468
N141	N	1.731793	0.541941	0.894802
N142	N	1.065129	-0.124706	-0.228214
N143	N	1.398463	0.208628	0.105119
N144	N	1.731796	0.541961	0.438452
C145	C	1.126460	-0.063631	0.453855
C146	C	1.459793	0.269702	0.787188
C147	C	1.793126	0.603035	1.120522
C148	C	1.126462	-0.063629	0.546045
C149	C	1.459796	0.269704	0.879378
C150	C	1.793129	0.603038	1.212711
C151	C	1.003793	-0.185806	0.546059
C152	C	1.337127	0.147527	0.879393
C153	C	1.670460	0.480860	1.212726
C154	C	1.003796	-0.185812	0.453871
C155	C	1.337129	0.147521	0.787205
C156	C	1.670462	0.480854	1.120538
C157	C	1.065128	-0.124720	0.407771
C158	C	1.398461	0.208614	0.741105
C159	C	1.731795	0.541947	1.074438
C160	C	1.065128	-0.124711	0.592149
C161	C	1.398461	0.208622	0.925482
C162	C	1.731795	0.541955	1.258816
C163	C	1.065130	-0.124709	0.692105
C164	C	1.398464	0.208624	1.025439
C165	C	1.731797	0.541957	1.358772
C166	C	1.065127	-0.124723	0.307809
C167	C	1.398460	0.208611	0.641142
C168	C	1.731794	0.541944	0.974476
H169	H	0.810803	0.019956	-0.000015
H170	H	1.144136	0.353290	0.333319
H171	H	1.477469	0.686623	0.666652
H172	H	1.063487	0.460599	-0.224710
H173	H	1.396820	0.793932	0.108623
H174	H	1.730154	1.127266	0.441956
H175	H	0.772176	-0.277995	-0.000043
H176	H	1.105509	0.055338	0.333290
H177	H	1.438842	0.388671	0.666623
H178	H	1.060804	0.601649	-0.144873
H179	H	1.394137	0.934983	0.188460
H180	H	1.727471	1.268316	0.521793
H181	H	1.069412	0.148929	-0.144878
H182	H	1.402746	0.482262	0.188455
H183	H	1.736079	0.815595	0.521788
H184	H	0.358079	0.028574	-0.000032
H185	H	0.691412	0.361908	0.333301
H186	H	1.024746	0.695241	0.666634
H187	H	0.509766	0.108003	-0.000017
H188	H	0.843099	0.441337	0.333316
H189	H	1.176433	0.774670	0.666650
H190	H	0.953857	-0.235545	0.583603
H191	H	1.287190	0.097788	0.916936
H192	H	1.620523	0.431121	1.250269
H193	H	1.066749	0.289953	0.224649
H194	H	1.400082	0.623286	0.557982
H195	H	1.733416	0.956619	0.891315
H196	H	0.620476	-0.357431	-0.000056
H197	H	0.953809	-0.024098	0.333277
H198	H	1.287143	0.309235	0.666610
H199	H	0.680389	0.104755	-0.000015
H200	H	1.013722	0.438089	0.333318
H201	H	1.347055	0.771422	0.666652
H202	H	1.066742	0.289996	-0.224728
H203	H	1.400075	0.623329	0.108606
H204	H	1.733408	0.956663	0.441939
H205	H	1.063509	0.460576	0.224644
H206	H	1.396842	0.793910	0.557977
H207	H	1.730175	1.127243	0.891310
H208	H	1.060820	0.601639	0.144806
H209	H	1.394153	0.934972	0.478139
H210	H	1.727486	1.268306	0.811473
H211	H	1.176401	-0.013887	0.416323
H212	H	1.509735	0.319446	0.749656
H213	H	1.843068	0.652779	1.082989
H214	H	1.176405	-0.013886	0.583563
H215	H	1.509739	0.319447	0.916897
H216	H	1.843072	0.652780	1.250230
H217	H	0.449869	-0.354207	-0.000058
H218	H	0.783202	-0.020873	0.333275
H219	H	1.116536	0.312460	0.666609
H220	H	0.319454	-0.269396	-0.000061
H221	H	0.652788	0.063938	0.333272
H222	H	0.986121	0.397271	0.666606
H223	H	1.069441	0.148915	0.144818
H224	H	1.402774	0.482249	0.478152
H225	H	1.736107	0.815582	0.811485
H226	H	0.953852	-0.235562	0.416347
H227	H	1.287185	0.097771	0.749681
H228	H	1.620518	0.431104	1.083014
