data_functionalizedCrystal
_audit_creation_method	'MofGen! by Chris Wilmer'
_symmetry_space_group_name_H-M	'P1'
_symmetry_Int_Tables_number	1
_symmetry_cell_setting	triclinic
loop_
_symmetry_equiv_pos_as_xyz
  x,y,z
_cell_length_a	18.215407
_cell_length_b	19.076808
_cell_length_c	18.215399
_cell_angle_alpha	92.328322
_cell_angle_beta	90.019833
_cell_angle_gamma	92.323864
loop_
_atom_site_label
_atom_site_type_symbol
_atom_site_fract_x
_atom_site_fract_y
_atom_site_fract_z
Zn1	Zn	1.113298	-0.280216	0.404332
Zn2	Zn	1.108261	-0.397924	0.276316
Zn3	Zn	0.990230	-0.280239	0.281279
Zn4	Zn	0.985252	-0.397885	0.399343
O5	O	1.049260	-0.339066	0.340318
O6	O	1.215614	-0.295837	0.387362
O7	O	1.092578	-0.382339	0.173989
O8	O	1.010746	-0.181739	0.301767
O9	O	1.211913	-0.382316	0.293309
O10	O	1.101164	-0.181722	0.392174
O11	O	1.005861	-0.295876	0.177635
O12	O	0.886585	-0.295838	0.296929
O13	O	1.002263	-0.382250	0.502990
O14	O	0.882928	-0.382272	0.383670
O15	O	1.096338	-0.295799	0.506656
O16	O	1.087752	-0.496415	0.288471
O17	O	0.997378	-0.496386	0.378858
C18	C	0.858054	-0.339054	0.340297
C19	C	0.776255	-0.339065	0.340305
C20	C	1.041498	-0.521940	0.332601
C21	C	1.038245	-0.600174	0.329324
C22	C	0.586173	-0.384142	0.385409
C23	C	0.509314	-0.384145	0.385418
C24	C	0.513098	-0.294002	0.295242
C25	C	0.589956	-0.293996	0.295237
C26	C	0.626491	-0.339071	0.340319
C27	C	0.472775	-0.339078	0.340333
C28	C	0.389441	-0.339080	0.340343
C29	C	0.709830	-0.339068	0.340311
C30	C	1.083757	-0.636859	0.374893
C31	C	1.080698	-0.710369	0.371815
C32	C	1.032129	-0.747192	0.323165
C33	C	0.986612	-0.710501	0.277594
C34	C	0.989668	-0.636993	0.280676
C35	C	1.017940	-0.967045	0.308900
C36	C	1.014889	-1.040558	0.305820
C37	C	1.108974	-1.040420	0.400043
C38	C	1.112029	-0.966911	0.403117
C39	C	1.066510	-0.930227	0.357549
N40	N	1.029002	-0.822330	0.320016
N41	N	1.069633	-0.855090	0.360702
C42	C	1.241212	-0.339078	0.340339
C43	C	1.323011	-0.339084	0.340348
C44	C	1.049307	-0.339017	0.532273
C45	C	1.049327	-0.338996	0.614072
C46	C	1.057072	-0.155477	0.348081
C47	C	1.060401	-0.077243	0.351389
C48	C	1.049258	-0.339063	0.149111
C49	C	1.049389	-0.338886	0.067320
C50	C	1.098330	-0.293939	0.804178
C51	C	1.098340	-0.293919	0.881038
C52	C	1.000380	-0.383945	0.877209
C53	C	1.000368	-0.383961	0.800351
C54	C	1.049347	-0.338959	0.763838
C55	C	1.049369	-0.338923	0.917555
C56	C	1.049379	-0.338901	1.000890
C57	C	1.049336	-0.338980	0.680498
H58	H	0.615918	-0.420843	0.422120
H59	H	0.476491	-0.420845	0.422136
H60	H	0.960505	-0.420585	0.906948
O61	O	0.967810	-1.076358	0.258477
C62	C	1.007970	-1.118878	0.209211
H63	H	1.066856	-1.096676	0.205650
H64	H	1.008181	-1.174574	0.229629
C65	C	0.899686	-1.147350	0.136996
C66	C	0.972009	-1.120077	0.132618
H67	H	0.877502	-1.148093	0.089750
H68	H	0.872628	-1.118705	0.170189
H69	H	0.899871	-1.193761	0.154014
H70	H	0.971822	-1.073665	0.115609
H71	H	0.999066	-1.148714	0.099420
O72	O	0.952757	-0.427764	0.761270
C73	C	0.909522	-0.467472	0.809977
H74	H	0.939568	-0.469902	0.864668
H75	H	0.854726	-0.441694	0.819231
C76	C	0.858822	-0.539406	0.709632
C77	C	0.895729	-0.542394	0.776802
H78	H	0.850311	-0.585620	0.689168
H79	H	0.887948	-0.512652	0.676816
H80	H	0.813163	-0.517920	0.717353
H81	H	0.941391	-0.563871	0.769079
H82	H	0.866610	-0.569153	0.809616
O83	O	0.477490	-0.250286	0.251471
C84	C	0.401008	-0.259942	0.261156
H85	H	0.388215	-0.314292	0.282871
H86	H	0.380983	-0.218243	0.302180
C87	C	0.377507	-0.186646	0.160314
C88	C	0.361794	-0.253402	0.186979
H89	H	0.353317	-0.182609	0.114559
H90	H	0.429034	-0.180138	0.153790
H91	H	0.360819	-0.151904	0.194508
H92	H	0.378490	-0.288142	0.152790
H93	H	0.310268	-0.259915	0.193495
H94	H	1.138210	-0.257294	0.774451
O95	O	0.629013	-0.250189	0.251365
C96	C	0.580288	-0.210399	0.211584
H97	H	0.524276	-0.239228	0.207771
H98	H	0.574390	-0.156975	0.240878
C99	C	0.679484	-0.164750	0.138391
C100	C	0.610692	-0.200161	0.133702
H101	H	0.698240	-0.158432	0.090351
H102	H	0.712312	-0.191556	0.165194
H103	H	0.674560	-0.120234	0.162806
H104	H	0.615618	-0.244680	0.109296
H105	H	0.577865	-0.173363	0.106894
H106	H	1.123310	-0.606883	0.414506
O107	O	1.124888	-0.745922	0.416179
C108	C	1.109514	-0.727942	0.490270
H109	H	1.083432	-0.674597	0.494010
H110	H	1.069957	-0.769334	0.513300
C111	C	1.213425	-0.789965	0.530447
C112	C	1.181396	-0.724443	0.535042
H113	H	1.257763	-0.787810	0.558066
H114	H	1.223781	-0.802081	0.480531
H115	H	1.180453	-0.824452	0.549638
H116	H	1.214363	-0.689959	0.515843
H117	H	1.171047	-0.712321	0.584956
O118	O	1.159132	-0.931179	0.450481
C119	C	1.142277	-0.949123	0.523062
H120	H	1.082640	-0.969372	0.525880
H121	H	1.179948	-0.991751	0.540544
C122	C	1.226789	-0.858919	0.571462
C123	C	1.153539	-0.883784	0.574925
H124	H	1.233738	-0.818616	0.603455
H125	H	1.238146	-0.846831	0.522563
H126	H	1.258172	-0.894449	0.586029
H127	H	1.122157	-0.848258	0.560349
H128	H	1.142176	-0.895865	0.623823
O129	O	1.153074	-1.076091	0.444386
C130	C	1.109374	-1.118629	0.490080
H131	H	1.052329	-1.096518	0.495495
H132	H	1.104533	-1.174354	0.464987
C133	C	1.215296	-1.146843	0.559927
C134	C	1.145235	-1.119683	0.566582
H135	H	1.237417	-1.147496	0.607116
H136	H	1.244739	-1.118186	0.529140
H137	H	1.211252	-1.193278	0.539013
H138	H	1.149280	-1.073246	0.587487
H139	H	1.115793	-1.148332	0.597374
H140	H	0.980878	-0.937182	0.271795
H141	H	0.947063	-0.740488	0.237985
O142	O	0.945429	-0.601463	0.236338
C143	C	0.901891	-0.649725	0.192750
H144	H	0.929860	-0.702099	0.188028
H145	H	0.845659	-0.657577	0.219324
C146	C	0.858158	-0.556760	0.121418
C147	C	0.892514	-0.621086	0.115613
H148	H	0.852371	-0.539093	0.073837
H149	H	0.887488	-0.524245	0.150785
H150	H	0.811302	-0.563312	0.143566
H151	H	0.939372	-0.614531	0.093474
H152	H	0.863191	-0.653599	0.086240
H153	H	1.138226	-0.257258	0.913880
