data_functionalizedCrystal
_audit_creation_method	'MofGen! by Chris Wilmer'
_symmetry_space_group_name_H-M	'P1'
_symmetry_Int_Tables_number	1
_symmetry_cell_setting	triclinic
loop_
_symmetry_equiv_pos_as_xyz
  x,y,z
_cell_length_a	21.395362
_cell_length_b	14.908520
_cell_length_c	21.395355
_cell_angle_alpha	93.280325
_cell_angle_beta	89.956060
_cell_angle_gamma	93.337688
loop_
_atom_site_label
_atom_site_type_symbol
_atom_site_fract_x
_atom_site_fract_y
_atom_site_fract_z
Zn1	Zn	0.943513	-0.358891	-0.368965
Zn2	Zn	0.937386	-0.509736	-0.270231
Zn3	Zn	0.838727	-0.358933	-0.264168
Zn4	Zn	0.832667	-0.509755	-0.374937
O5	O	0.888073	-0.434329	-0.319575
O6	O	1.030380	-0.378876	-0.355906
O7	O	0.924270	-0.489742	-0.181749
O8	O	0.857727	-0.232679	-0.273033
O9	O	1.025878	-0.489701	-0.283367
O10	O	0.934713	-0.232649	-0.350027
O11	O	0.851786	-0.378948	-0.177295
O12	O	0.750244	-0.378966	-0.278823
O13	O	0.847399	-0.489733	-0.461822
O14	O	0.745792	-0.489773	-0.360205
O15	O	0.928838	-0.378894	-0.457435
O16	O	0.918395	-0.635987	-0.289157
O17	O	0.841458	-0.636001	-0.366084
C18	C	0.725284	-0.434377	-0.319504
C19	C	0.655641	-0.434419	-0.319490
C20	C	0.620623	-0.492193	-0.361808
C21	C	0.555188	-0.492171	-0.361835
C22	C	0.524774	-0.434384	-0.319533
C23	C	0.559800	-0.376599	-0.277212
C24	C	0.625234	-0.376616	-0.277190
C25	C	0.421340	-0.427116	-0.262837
C26	C	0.355907	-0.427105	-0.262858
C27	C	0.322956	-0.434325	-0.319600
C28	C	0.355444	-0.441575	-0.376324
C29	C	0.420877	-0.441593	-0.376302
C30	C	0.453823	-0.434358	-0.319552
C31	C	0.216986	-0.492079	-0.361951
C32	C	0.151550	-0.492050	-0.361979
C33	C	0.156163	-0.376483	-0.277350
C34	C	0.221598	-0.376506	-0.277327
C35	C	0.252005	-0.434309	-0.319627
C36	C	0.878621	-0.668729	-0.328940
C37	C	0.874634	-0.769006	-0.332968
C38	C	0.947340	-0.957362	-0.260497
C39	C	0.943596	-1.051582	-0.264279
C40	C	0.863407	-1.051666	-0.344317
C41	C	0.867151	-0.957446	-0.340535
C42	C	0.909118	-0.910298	-0.298623
C43	C	0.912858	-0.816077	-0.294838
C44	C	0.832672	-0.816163	-0.374879
C45	C	0.828929	-0.910382	-0.378661
C46	C	1.051498	-0.434282	-0.319647
C47	C	1.121141	-0.434262	-0.319677
C48	C	0.888126	-0.434311	-0.482998
C49	C	0.888148	-0.434303	-0.552639
C50	C	0.897580	-0.199014	-0.310187
C51	C	0.901631	-0.098737	-0.306187
C52	C	0.930552	-0.376587	-0.583068
C53	C	0.930553	-0.376548	-0.648502
C54	C	0.888156	-0.434242	-0.683505
C55	C	0.845745	-0.491962	-0.653068
C56	C	0.845741	-0.491992	-0.587635
C57	C	0.879933	-0.515477	-0.790423
C58	C	0.879941	-0.515447	-0.855855
C59	C	0.888164	-0.434146	-0.885322
C60	C	0.896392	-0.352872	-0.849348
C61	C	0.896388	-0.352902	-0.783915
C62	C	0.888155	-0.434214	-0.754456
C63	C	0.930570	-0.376383	-0.986702
C64	C	0.930566	-0.376343	-1.052137
C65	C	0.845761	-0.491764	-1.056701
C66	C	0.845762	-0.491797	-0.991267
C67	C	0.888170	-0.434107	-0.956272
C68	C	0.888059	-0.434282	-0.156786
C69	C	0.888169	-0.434036	-0.087135
H70	H	0.328616	-0.447453	-0.422529
O71	O	0.521095	-0.548343	-0.402860
C72	C	0.442304	-0.670187	-0.416033
C73	C	0.480858	-0.606615	-0.369505
H74	H	0.409772	-0.717328	-0.389083
H75	H	0.413342	-0.628884	-0.447194
H76	H	0.475294	-0.711456	-0.446273
H77	H	0.447913	-0.565332	-0.339224
H78	H	0.509827	-0.647969	-0.338386
O79	O	0.980824	-1.097185	-0.227269
C80	C	1.086292	-1.125844	-0.198184
C81	C	1.044196	-1.074137	-0.240125
H82	H	1.137536	-1.107244	-0.208573
H83	H	1.076109	-1.107343	-0.146895
H84	H	1.076391	-1.201285	-0.208065
H85	H	1.054073	-0.998685	-0.230300
H86	H	1.054387	-1.092714	-0.291400
O87	O	0.246430	-0.548244	-0.403105
C88	C	0.234949	-0.662897	-0.487027
C89	C	0.201527	-0.599323	-0.440463
H90	H	0.198660	-0.704225	-0.517233
H91	H	0.267284	-0.621596	-0.518213
H92	H	0.263653	-0.709983	-0.460069
H93	H	0.172790	-0.552225	-0.467369
H94	H	0.169229	-0.640681	-0.409276
O95	O	0.452509	-0.448496	-0.431363
C96	C	0.529233	-0.379620	-0.498895
C97	C	0.493466	-0.371707	-0.436511
H98	H	0.562345	-0.317537	-0.503083
H99	H	0.557362	-0.442342	-0.500366
H100	H	0.494432	-0.384818	-0.539444
H101	H	0.528223	-0.366473	-0.395927
H102	H	0.465327	-0.308998	-0.435094
H103	H	0.645376	-0.539259	-0.396253
O104	O	0.953676	-0.770414	-0.254112
C105	C	1.032791	-0.780279	-0.175099
C106	C	0.986601	-0.832101	-0.221204
H107	H	1.059414	-0.830131	-0.148471
H108	H	1.067333	-0.736119	-0.202104
H109	H	1.005784	-0.736214	-0.140556
H110	H	1.013555	-0.876215	-0.255757
H111	H	0.952060	-0.876205	-0.194157
H112	H	0.794762	-0.948783	-0.412786
O113	O	0.988065	-0.911655	-0.219699
C114	C	1.019644	-0.882793	-0.111998
C115	C	0.973493	-0.934628	-0.158135
H116	H	1.007872	-0.901333	-0.062213
H117	H	1.069440	-0.901240	-0.123750
H118	H	1.015763	-0.807372	-0.115878
H119	H	0.977318	-1.010060	-0.154280
H120	H	0.923717	-0.916106	-0.146370
H121	H	0.811223	-0.538933	-0.681571
O122	O	0.822659	-1.097613	-0.384974
C123	C	0.781389	-1.242807	-0.426297
C124	C	0.827554	-1.190884	-0.380216
H125	H	0.785340	-1.318225	-0.422476
H126	H	0.731588	-1.224447	-0.414489
H127	H	0.793095	-1.224177	-0.476079
H128	H	0.815906	-1.209485	-0.330419
H129	H	0.877342	-1.209247	-0.392078
O130	O	0.795606	-0.770305	-0.411892
C131	C	0.765801	-0.625193	-0.441507
C132	C	0.807826	-0.677014	-0.399568
H133	H	0.775657	-0.549759	-0.431549
H134	H	0.776045	-0.643598	-0.492797
H135	H	0.714551	-0.643868	-0.431193
H136	H	0.859089	-0.658368	-0.409826
H137	H	0.797529	-0.658605	-0.348291
O138	O	0.971702	-0.320604	-0.548980
C139	C	1.009220	-0.269398	-0.446151
C140	C	0.962606	-0.332876	-0.484683
H141	H	1.001873	-0.279284	-0.394159
H142	H	1.059126	-0.285191	-0.459627
H143	H	1.001141	-0.196671	-0.456148
H144	H	0.970628	-0.405624	-0.474707
H145	H	0.912716	-0.317005	-0.471201
H146	H	0.965095	-0.329338	-1.076911
H147	H	0.653745	-0.329567	-0.242729
H148	H	0.123040	-0.539095	-0.396443
H149	H	0.811208	-0.538991	-0.562859
H150	H	0.131401	-0.329427	-0.242909
O151	O	0.971807	-0.320454	-0.677973
C152	C	1.055905	-0.205952	-0.666544
C153	C	1.009228	-0.269445	-0.633093
H154	H	1.086162	-0.164682	-0.630273
H155	H	1.087034	-0.247314	-0.698841
H156	H	1.029037	-0.158810	-0.695288
H157	H	1.036044	-0.316600	-0.604315
H158	H	0.978099	-0.228027	-0.600833
H159	H	0.903086	-0.286726	-0.754629
H160	H	0.250110	-0.329465	-0.242864
O161	O	0.904258	-0.273893	-0.877987
C162	C	0.860422	-0.172782	-0.947786
C163	C	0.851430	-0.262235	-0.915382
H164	H	0.817724	-0.163337	-0.978038
H165	H	0.866260	-0.114668	-0.910858
H166	H	0.903968	-0.174147	-0.978487
H167	H	0.807882	-0.260957	-0.884683
H168	H	0.845628	-0.320310	-0.952342
H169	H	0.811236	-0.538801	-0.966492
H170	H	0.965097	-0.329404	-0.958207
H171	H	0.811235	-0.538731	-1.085199
O172	O	0.872028	-0.594465	-0.890725
C173	C	0.911365	-0.740139	-0.916627
C174	C	0.920391	-0.650698	-0.877094
H175	H	0.950467	-0.785621	-0.905630
H176	H	0.864212	-0.774841	-0.905105
H177	H	0.912757	-0.726140	-0.968452
H178	H	0.919030	-0.664619	-0.825257
H179	H	0.967538	-0.616023	-0.888669
O180	O	0.324450	-0.420016	-0.207704
C181	C	0.331815	-0.405704	-0.095158
C182	C	0.367517	-0.413706	-0.157575
H183	H	0.366618	-0.400619	-0.054612
H184	H	0.303751	-0.342919	-0.093664
H185	H	0.298635	-0.467720	-0.090990
H186	H	0.400729	-0.351737	-0.161784
H187	H	0.395540	-0.476528	-0.159042
O188	O	0.453412	-0.420230	-0.207752
C189	C	0.524384	-0.489131	-0.140172
C190	C	0.488108	-0.497035	-0.202577
H191	H	0.552435	-0.551227	-0.135962
H192	H	0.557614	-0.426424	-0.138685
H193	H	0.489919	-0.483913	-0.099644
H194	H	0.522526	-0.502288	-0.243140
H195	H	0.454870	-0.559729	-0.204010
O196	O	0.872017	-0.594430	-0.761756
C197	C	0.915820	-0.695676	-0.692034
C198	C	0.924871	-0.606224	-0.724431
H199	H	0.958551	-0.705249	-0.661859
H200	H	0.872309	-0.694334	-0.661281
H201	H	0.909914	-0.753704	-0.729019
H202	H	0.930804	-0.548147	-0.687489
H203	H	0.968370	-0.607643	-0.755196
O204	O	0.530359	-0.320382	-0.236095
C205	C	0.541837	-0.205795	-0.152130
C206	C	0.575258	-0.269406	-0.198670
H207	H	0.578122	-0.164578	-0.121851
H208	H	0.513168	-0.158616	-0.179044
H209	H	0.509469	-0.247154	-0.121010
H210	H	0.607657	-0.228120	-0.229801
H211	H	0.603887	-0.316588	-0.171717
