data_functionalizedCrystal
_audit_creation_method	'MofGen! by Chris Wilmer'
_symmetry_space_group_name_H-M	'P1'
_symmetry_Int_Tables_number	1
_symmetry_cell_setting	triclinic
loop_
_symmetry_equiv_pos_as_xyz
  x,y,z
_cell_length_a	27.440280
_cell_length_b	23.196402
_cell_length_c	23.196402
_cell_angle_alpha	90.003332
_cell_angle_beta	60.004222
_cell_angle_gamma	60.002021
loop_
_atom_site_label
_atom_site_type_symbol
_atom_site_fract_x
_atom_site_fract_y
_atom_site_fract_z
Zr1	Zr	0.533377	-0.075658	0.555448
O2	O	0.635039	-0.167705	0.463404
O3	O	0.431715	-0.047441	0.583654
O4	O	0.533375	-0.167709	0.583659
O5	O	0.533380	0.047432	0.463407
O6	O	0.533373	-0.167711	0.678531
O7	O	0.533379	-0.047437	0.463398
O8	O	0.351522	0.047425	0.678522
O9	O	0.715232	-0.167703	0.463416
O10	O	0.473528	-0.035408	0.666498
O11	O	0.473531	0.035394	0.595702
O12	O	0.593222	-0.106205	0.595709
O13	O	0.593225	-0.035403	0.524913
Zr14	Zr	0.533375	0.075646	0.706771
Zr15	Zr	0.533373	-0.075661	0.706758
Zr16	Zr	0.533379	0.075649	0.555461
Zr17	Zr	0.661274	-0.075656	0.555468
Zr18	Zr	0.405478	0.075644	0.706751
O19	O	0.635037	0.047429	0.678565
O20	O	0.635034	-0.167709	0.678547
O21	O	0.635042	0.047434	0.463422
O22	O	0.431713	0.167692	0.798815
O23	O	0.431710	-0.047446	0.798797
O24	O	0.431718	0.167697	0.583672
O25	O	0.533372	-0.047445	0.798812
O26	O	0.533377	0.167696	0.678560
O27	O	0.533379	0.167698	0.583688
O28	O	0.533373	0.047425	0.798820
O29	O	0.715229	-0.167706	0.583687
O30	O	0.351523	0.167694	0.678532
O31	O	0.351521	0.167691	0.798803
O32	O	0.351519	0.047423	0.798793
O33	O	0.715233	-0.047435	0.463426
O34	O	0.715230	-0.047438	0.583697
O35	O	0.473530	0.106193	0.666510
O36	O	0.473527	0.035391	0.737306
O37	O	0.593222	-0.035406	0.666516
O38	O	0.593224	0.035396	0.595721
C39	C	0.373396	-0.000008	0.631085
C40	C	0.319100	-0.000009	0.631077
C41	C	0.533380	-0.000002	0.441844
C42	C	0.533382	-0.000001	0.377609
C43	C	0.533379	0.189255	0.631125
C44	C	0.533379	0.253489	0.631131
C45	C	-0.017644	-0.036958	0.668084
C46	C	-0.068668	-0.036956	0.668090
O47	O	-0.095075	-0.068365	0.699540
N48	N	-0.094182	0.000001	0.631135
C49	C	-0.068676	0.036963	0.594177
O50	O	-0.095064	0.068398	0.562744
C51	C	-0.017656	0.036965	0.594175
C52	C	0.007861	0.000000	0.631127
C53	C	0.007873	-0.073919	0.705033
C54	C	0.058894	-0.073922	0.705026
C55	C	0.084399	-0.036963	0.668068
C56	C	0.058882	-0.000002	0.631119
C57	C	0.007846	0.073932	0.557221
C58	C	0.058869	0.073931	0.557223
C59	C	0.084386	0.036966	0.594175
C60	C	0.135408	0.036953	0.594154
N61	N	0.160923	-0.000003	0.631109
C62	C	0.135418	-0.036962	0.668067
C63	C	-0.175821	0.036958	0.594184
C64	C	-0.226836	0.036952	0.594182
C65	C	-0.226825	-0.036966	0.668096
C66	C	-0.175806	-0.036964	0.668095
C67	C	-0.150306	0.000001	0.631140
C68	C	0.242567	-0.036965	0.668047
C69	C	0.293595	-0.036967	0.668034
C70	C	0.293577	0.036954	0.594122
C71	C	0.242556	0.036953	0.594132
C72	C	0.217051	-0.000008	0.631100
O73	O	0.161846	0.068349	0.562722
O74	O	0.161806	-0.068384	0.699501
C75	C	0.693357	-0.000004	0.631134
C76	C	0.747652	-0.000003	0.631142
C77	C	0.533374	-0.189268	0.631093
C78	C	0.533373	-0.253501	0.631088
C79	C	0.595856	0.246709	0.594183
C80	C	0.595857	0.307063	0.594172
C81	C	0.533378	0.374197	0.631124
C82	C	0.470892	0.380975	0.668074
C83	C	0.470893	0.320621	0.668077
C84	C	0.485509	0.498132	0.693020
C85	C	0.485511	0.558484	0.693018
C86	C	0.533372	0.560351	0.631112
C87	C	0.581244	0.501853	0.569208
C88	C	0.581245	0.441498	0.569212
C89	C	0.533370	0.439645	0.631124
C90	C	0.595855	0.619011	0.594149
C91	C	0.595853	0.679368	0.594137
C92	C	0.470886	0.753280	0.668045
C93	C	0.470890	0.692923	0.668051
C94	C	0.533376	0.625792	0.631104
C95	C	0.533386	-0.052269	0.347432
C96	C	0.533380	-0.052269	0.287081
C97	C	0.533383	-0.000006	0.256901
C98	C	0.533375	0.052271	0.287087
C99	C	0.533374	0.052274	0.347441
C100	C	0.573540	0.016281	0.137534
C101	C	0.573545	0.016273	0.077178
C102	C	0.533382	-0.000009	0.070751
C103	C	0.493223	-0.016300	0.124681
C104	C	0.493222	-0.016298	0.185035
C105	C	0.533383	-0.000002	0.191457
C106	C	0.533379	-0.052280	-0.024865
C107	C	0.533368	-0.052276	-0.085215
C108	C	0.533370	0.052262	-0.085212
C109	C	0.533374	0.052260	-0.024859
C110	C	0.533381	-0.000015	0.005309
C111	C	0.533372	-0.000010	0.820375
C112	C	0.533371	-0.000012	0.884610
C113	C	0.373391	-0.000012	0.820350
C114	C	0.319094	-0.000015	0.884577
C115	C	0.373398	0.189253	0.631101
C116	C	0.319103	0.253486	0.631098
C117	C	0.373394	0.189249	0.820366
C118	C	0.319097	0.253481	0.884599
C119	C	0.693358	-0.189261	0.441852
C120	C	0.747655	-0.253493	0.377620
C121	C	0.693361	0.000000	0.441869
C122	C	0.747658	0.000002	0.377642
C123	C	0.693354	-0.189265	0.631118
C124	C	0.747649	-0.253498	0.631121
C125	C	0.293596	-0.036978	0.877778
C126	C	0.242585	-0.036994	0.938120
C127	C	0.217070	-0.000042	1.005260
C128	C	0.242573	0.036922	1.012058
C129	C	0.293586	0.036934	0.951717
C130	C	0.293605	0.320613	0.668058
C131	C	0.242596	0.380972	0.668052
C132	C	0.217083	0.374203	0.631091
C133	C	0.242586	0.307069	0.594127
C134	C	0.293597	0.246711	0.594129
C135	C	0.293598	0.246686	0.951724
C136	C	0.242588	0.307033	1.012082
C137	C	0.217074	0.374173	1.005314
C138	C	0.242579	0.380966	0.938182
C139	C	0.293592	0.320620	0.877825
C140	C	0.773160	-0.246699	0.310495
C141	C	0.824186	-0.307045	0.250137
C142	C	0.849702	-0.374185	0.256905
C143	C	0.824195	-0.380978	0.324037
C144	C	0.773173	-0.320632	0.384394
C145	C	0.773162	0.036960	0.384441
C146	C	0.824187	0.036959	0.324099
C147	C	0.849704	0.000005	0.256959
C148	C	0.824198	-0.036957	0.250161
C149	C	0.773177	-0.036960	0.310502
C150	C	0.773147	-0.246706	0.668089
C151	C	0.824156	-0.307054	0.668106
C152	C	0.849670	-0.374193	0.631149
C153	C	0.824168	-0.380984	0.594179
C154	C	0.773156	-0.320636	0.594168
H155	H	0.314371	-0.067071	0.698124
H156	H	0.175546	0.423356	0.631096
H157	H	0.752402	-0.326176	0.564060
H158	H	0.221805	0.301568	0.564034
H159	H	0.221806	-0.067061	0.698151
H160	H	0.533382	-0.094844	-0.000300
H161	H	0.606248	0.029534	0.033270
H162	H	0.221838	0.435630	0.698156
H163	H	0.533383	-0.094833	0.262507
H164	H	0.891247	-0.423317	0.207752
H165	H	0.221791	0.067007	1.066732
H166	H	0.221826	-0.067095	0.932571
H167	H	0.221787	0.067043	0.564034
H168	H	0.533370	0.094838	0.372012
H169	H	0.844914	-0.301511	0.698209
H170	H	0.752381	-0.192044	0.698183
H171	H	-0.155057	0.067056	0.564084
H172	H	0.314351	0.192056	0.564034
H173	H	0.606204	0.029599	0.142784
H174	H	-0.012890	-0.104014	0.735131
H175	H	0.079665	-0.104019	0.735117
H176	H	0.314341	0.067038	0.957263
H177	H	0.844976	-0.435650	0.329539
H178	H	-0.155033	-0.067063	0.698184
H179	H	0.620218	0.503369	0.518798
H180	H	0.446534	0.606109	0.743425
H181	H	0.314363	0.192023	0.957248
H182	H	0.314354	0.067042	0.564031
H183	H	0.221827	0.301490	1.066739
H184	H	0.175537	0.423305	1.054467
H185	H	0.752414	-0.067053	0.304956
H186	H	0.533390	-0.094832	0.371995
H187	H	0.314370	-0.067078	0.823114
H188	H	0.752389	0.067057	0.439105
H189	H	0.844945	0.067061	0.329648
H190	H	0.175530	-0.000057	1.054388
H191	H	0.314373	0.326138	0.698156
H192	H	0.752407	-0.326172	0.439049
H193	H	0.891248	0.000013	0.207831
H194	H	0.420015	0.326147	0.698166
H195	H	0.844982	-0.067044	0.195487
H196	H	-0.247601	-0.067058	0.698190
H197	H	0.221799	0.435639	0.932682
H198	H	0.891207	-0.423326	0.631164
H199	H	0.460522	-0.029560	0.228944
H200	H	0.314347	0.326161	0.823171
H201	H	0.844946	-0.301501	0.195481
H202	H	-0.247600	0.067044	0.564083
H203	H	0.752388	-0.192035	0.304971
H204	H	-0.012922	0.104033	0.527132
H205	H	0.079629	0.104032	0.527128
H206	H	0.446527	0.496625	0.743433
H207	H	0.844949	-0.435656	0.564090
H208	H	0.533376	0.094826	0.262512
H209	H	0.646735	0.301542	0.564081
H210	H	0.646738	0.192051	0.564096
H211	H	0.620222	0.393871	0.518807
H212	H	0.420021	0.435640	0.698159
H213	H	0.646735	0.564349	0.564062
H214	H	0.460521	-0.029563	0.119450
H215	H	0.420014	0.807941	0.698128
H216	H	0.646732	0.673841	0.564045
H217	H	0.420014	0.698448	0.698142
H218	H	0.533369	0.094818	-0.109782
H219	H	0.533368	-0.094837	-0.109783
H220	H	0.533374	0.094819	-0.000290
