data_functionalizedCrystal
_audit_creation_method	'MofGen! by Chris Wilmer'
_symmetry_space_group_name_H-M	'P1'
_symmetry_Int_Tables_number	1
_symmetry_cell_setting	triclinic
loop_
_symmetry_equiv_pos_as_xyz
  x,y,z
_cell_length_a	10.540539
_cell_length_b	19.288865
_cell_length_c	18.366186
_cell_angle_alpha	90.011479
_cell_angle_beta	90.006974
_cell_angle_gamma	83.830870
loop_
_atom_site_label
_atom_site_type_symbol
_atom_site_fract_x
_atom_site_fract_y
_atom_site_fract_z
O1	O	-1.683714	-0.097883	-0.060525
O2	O	-1.314095	-0.107106	-0.060535
O3	O	-1.509585	-0.001436	-0.060515
O4	O	-1.488224	-0.203554	-0.060544
O5	O	-1.509552	-0.001430	0.060584
O6	O	-1.314062	-0.107100	0.060565
O7	O	-1.683681	-0.097878	0.060575
Zn8	Zn	-1.498866	-0.102488	0.079797
Zn9	Zn	-1.498910	-0.102495	-0.079757
O10	O	-1.488191	-0.203548	0.060555
C11	C	-1.266791	-0.106411	0.000014
C12	C	-1.125889	-0.104342	0.000011
C13	C	-1.508881	0.024448	0.000037
C14	C	-1.506818	0.101566	0.000043
C15	C	-1.730985	-0.098572	0.000024
C16	C	-1.871887	-0.100641	0.000023
C17	C	-0.944230	-0.025053	0.000305
C18	C	-1.090801	-0.027151	0.000024
C19	C	-1.063408	-0.141493	-0.069145
C20	C	-0.916922	-0.138859	-0.069196
C21	C	-0.916361	-0.140423	0.068517
C22	C	-1.063327	-0.141134	0.069423
C23	C	-1.488895	-0.229432	0.000002
C24	C	-1.490958	-0.306549	-0.000010
N25	N	-1.498846	-0.102483	0.188688
C26	C	-1.621522	0.145496	0.000050
C27	C	-1.619584	0.217956	0.000038
C28	C	-1.502935	0.246482	0.000035
C29	C	-1.388215	0.202542	0.000024
C30	C	-1.390157	0.130083	0.000028
C31	C	-1.411223	0.355384	0.042451
C32	C	-1.409286	0.427841	0.042451
C33	C	-1.496941	0.469968	0.000018
C34	C	-1.586555	0.439630	-0.042405
C35	C	-1.588496	0.367172	-0.042401
C36	C	-1.500816	0.325051	0.000030
C37	C	-1.609552	0.592469	0.000011
C38	C	-1.607609	0.664930	-0.000005
C39	C	-1.376237	0.649513	-0.000012
C40	C	-1.378183	0.577054	-0.000003
C41	C	-1.494844	0.548536	0.000012
N42	N	-1.498941	-0.102495	-0.188648
C43	C	-1.585437	-0.055716	0.226797
C44	C	-1.585445	-0.055713	0.303025
C45	C	-1.498874	-0.102489	0.341141
C46	C	-1.412267	-0.149260	0.303022
C47	C	-1.412253	-0.149257	0.226796
C48	C	-1.481882	-0.165663	0.461892
C49	C	-1.481905	-0.165667	0.538117
C50	C	-1.498910	-0.102498	0.576248
C51	C	-1.515919	-0.039322	0.538146
C52	C	-1.515905	-0.039319	0.461919
C53	C	-1.498879	-0.102497	0.423795
C54	C	-1.585514	-0.055723	0.697012
C55	C	-1.585514	-0.055719	0.773241
C56	C	-1.412342	-0.149273	0.773238
C57	C	-1.412336	-0.149271	0.697010
C58	C	-1.498930	-0.102497	0.658902
H59	H	-0.916310	0.005444	0.049902
H60	H	-1.339841	0.321089	0.077008
C61	C	-1.751583	0.308402	0.062302
C62	C	-1.745674	0.266258	0.000051
H63	H	-1.829423	0.338222	0.062307
H64	H	-1.747519	0.279822	0.104524
H65	H	-1.681823	0.335754	0.062286
H66	H	-1.815430	0.238903	0.000070
H67	H	-1.749751	0.294842	-0.042182
H68	H	-1.704544	0.569249	0.000020
H69	H	-1.468013	-0.217107	0.430851
H70	H	-1.529766	0.012117	0.569191
C71	C	-1.251837	0.275078	-0.062231
C72	C	-1.259993	0.233896	0.000021
H73	H	-1.172678	0.294437	-0.062231
H74	H	-1.257409	0.247123	-0.104452
H75	H	-1.319884	0.311611	-0.062220
H76	H	-1.191952	0.197360	0.000008
H77	H	-1.254409	0.261854	0.042253
C78	C	-1.617100	0.523254	-0.139349
C79	C	-1.682913	0.485923	-0.089058
H80	H	-1.676589	0.551831	-0.168151
H81	H	-1.563475	0.551692	-0.114085
H82	H	-1.566618	0.491555	-0.169927
H83	H	-1.733388	0.517622	-0.058477
H84	H	-1.736560	0.457483	-0.114324
H85	H	-1.656023	-0.017632	0.804270
C86	C	-1.193564	0.094622	-0.062230
C87	C	-1.264063	0.081791	0.000026
H88	H	-1.115715	0.064810	-0.062226
H89	H	-1.241425	0.085898	-0.104448
H90	H	-1.175722	0.141859	-0.062228
H91	H	-1.281913	0.034555	0.000022
H92	H	-1.216191	0.090510	0.042256
H93	H	-0.867716	-0.194374	-0.072342
C94	C	-1.170568	-0.232356	0.015960
C95	C	-1.094313	-0.217111	0.075048
H96	H	-1.189686	-0.279265	0.019426
H97	H	-1.247614	-0.201902	0.016549
H98	H	-1.126106	-0.226249	-0.028170
H99	H	-1.138779	-0.223213	0.119177
H100	H	-1.017255	-0.247574	0.074465
C101	C	-0.891103	-0.250726	0.130326
C102	C	-0.850931	-0.215689	0.069143
H103	H	-0.850710	-0.297192	0.130705
H104	H	-0.868821	-0.227326	0.173222
H105	H	-0.981025	-0.251432	0.128538
H106	H	-0.761010	-0.214979	0.070934
H107	H	-0.873204	-0.239096	0.026237
C108	C	-1.427644	0.036341	0.376243
C109	C	-1.534552	0.030125	0.420044
H110	H	-1.439148	0.079213	0.350391
H111	H	-1.353757	0.035310	0.405998
H112	H	-1.417537	-0.001281	0.342625
H113	H	-1.544653	0.067744	0.453666
H114	H	-1.608459	0.031162	0.390286
H115	H	-1.284778	0.541284	-0.000004
H116	H	-1.716517	0.122282	0.000060
C117	C	-1.239535	-0.163436	0.858974
C118	C	-1.317177	-0.200690	0.815126
H119	H	-1.180787	-0.195180	0.884839
H120	H	-1.194048	-0.134288	0.829249
H121	H	-1.291119	-0.135583	0.892580
H122	H	-1.265594	-0.228539	0.781516
H123	H	-1.362669	-0.229849	0.844854
H124	H	-1.661460	0.342474	-0.076945
H125	H	-1.133216	0.002282	-0.049628
H126	H	-1.701019	0.700698	-0.000003
C127	C	-1.756676	0.036755	0.704670
C128	C	-1.680680	-0.004303	0.655118
H129	H	-1.815421	0.068502	0.678806
H130	H	-1.802169	0.007603	0.734387
H131	H	-1.703975	0.062015	0.734414
H132	H	-1.733381	-0.029567	0.625377
H133	H	-1.635184	0.024852	0.625388
C134	C	-1.234243	0.408908	0.126316
C135	C	-1.310786	0.461185	0.089081
H136	H	-1.173428	0.429494	0.155101
H137	H	-1.286235	0.384068	0.156906
H138	H	-1.191139	0.377717	0.092191
H139	H	-1.353898	0.492374	0.123207
H140	H	-1.258787	0.486036	0.058489
H141	H	-1.281259	0.672738	-0.000018
C142	C	-1.756607	0.036758	0.234464
C143	C	-1.680605	-0.004295	0.184910
H144	H	-1.815352	0.068506	0.208601
H145	H	-1.802100	0.007602	0.264176
H146	H	-1.703910	0.062016	0.264212
H147	H	-1.733302	-0.029557	0.155165
H148	H	-1.635110	0.024865	0.155184
H149	H	-1.341777	-0.187345	0.334060
C150	C	-1.241182	-0.241747	0.704665
C151	C	-1.317165	-0.200687	0.655115
H152	H	-1.182429	-0.273492	0.678800
H153	H	-1.195698	-0.212595	0.734407
H154	H	-1.293890	-0.267009	0.734385
H155	H	-1.264458	-0.175422	0.625399
H156	H	-1.362652	-0.229843	0.625361
H157	H	-1.655960	-0.017627	0.334059
C158	C	-0.929057	-0.037224	0.142395
C159	C	-0.874735	-0.106673	0.139320
H160	H	-0.903426	-0.016380	0.186115
H161	H	-0.901176	-0.012433	0.101769
H162	H	-1.019411	-0.035763	0.141397
H163	H	-0.784380	-0.108135	0.140312
H164	H	-0.902608	-0.131471	0.179957
H165	H	-1.341738	-0.187341	0.195767
H166	H	-1.468063	-0.217109	0.569134
C167	C	-0.849875	0.075147	-0.042789
C168	C	-0.904385	0.015946	-0.066258
H169	H	-0.825271	0.100454	-0.083884
H170	H	-0.910417	0.103870	-0.014813
H171	H	-0.776955	0.061264	-0.013763
H172	H	-0.977312	0.029829	-0.095279
H173	H	-0.843839	-0.012782	-0.094245
C174	C	-0.989264	-0.082163	-0.180328
C175	C	-0.879675	-0.101792	-0.138966
H176	H	-0.966273	-0.059275	-0.223399
H177	H	-1.028841	-0.122475	-0.192968
H178	H	-1.046992	-0.051417	-0.152670
H179	H	-0.821951	-0.132542	-0.166622
H180	H	-0.840079	-0.061474	-0.126327
C181	C	-1.178033	-0.152181	0.181026
C182	C	-1.119396	-0.104498	0.138497
H183	H	-1.212645	-0.129564	0.223671
H184	H	-1.244488	-0.169563	0.153869
H185	H	-1.116725	-0.189751	0.194391
H186	H	-1.180706	-0.066930	0.125128
H187	H	-1.052934	-0.087106	0.165660
H188	H	-1.134053	0.002081	0.049599
H189	H	-1.084498	-0.198181	-0.071727
H190	H	-1.106585	-0.115690	-0.120606
