data_functionalizedCrystal
_audit_creation_method	'MofGen! by Chris Wilmer'
_symmetry_space_group_name_H-M	'P1'
_symmetry_Int_Tables_number	1
_symmetry_cell_setting	triclinic
loop_
_symmetry_equiv_pos_as_xyz
  x,y,z
_cell_length_a	15.944551
_cell_length_b	23.532357
_cell_length_c	15.021413
_cell_angle_alpha	89.998468
_cell_angle_beta	89.997174
_cell_angle_gamma	83.163515
loop_
_atom_site_label
_atom_site_type_symbol
_atom_site_fract_x
_atom_site_fract_y
_atom_site_fract_z
O1	O	1.113891	0.073444	-0.073950
O2	O	1.613891	0.573444	0.426050
O3	O	0.869262	0.082500	-0.073974
O4	O	1.369262	0.582500	0.426026
O5	O	0.998975	-0.004933	-0.073943
O6	O	1.498975	0.495067	0.426057
O7	O	0.984178	0.160877	-0.073981
O8	O	1.484178	0.660877	0.426019
O9	O	0.998954	-0.004921	0.074121
O10	O	1.498954	0.495079	0.574121
O11	O	0.869242	0.082512	0.074090
O12	O	1.369242	0.582512	0.574090
O13	O	1.113870	0.073456	0.074114
O14	O	1.613870	0.573456	0.574114
Zn15	Zn	0.991552	0.077986	0.097611
Zn16	Zn	1.491552	0.577986	0.597611
Zn17	Zn	0.991580	0.077970	-0.097470
Zn18	Zn	1.491580	0.577970	0.402530
O19	O	0.984157	0.160889	0.074083
O20	O	1.484157	0.660889	0.574083
C21	C	0.837961	0.082130	0.000056
C22	C	1.337961	0.582130	0.500056
C23	C	0.744725	0.081003	0.000047
C24	C	1.244725	0.581003	0.500047
C25	C	0.998595	-0.026145	0.000092
C26	C	1.498595	0.473855	0.500092
C27	C	0.997482	-0.089368	0.000100
C28	C	1.497482	0.410632	0.500100
C29	C	0.530363	0.024114	0.000078
C30	C	1.030363	0.524114	0.500078
C31	C	0.469123	0.050525	-0.072932
C32	C	0.969123	0.550525	0.427068
C33	C	0.574017	0.078964	0.000058
C34	C	1.074017	0.578964	0.500058
C35	C	0.469125	0.050550	0.073048
C36	C	0.969125	0.550550	0.573048
C37	C	0.409121	0.076990	0.000073
C38	C	0.909121	0.576990	0.500073
C39	C	0.514005	0.105390	-0.073011
C40	C	1.014005	0.605390	0.426989
C41	C	0.514014	0.105408	0.073034
C42	C	1.014014	0.605408	0.573034
C43	C	0.452791	0.131859	0.000006
C44	C	0.952791	0.631859	0.500006
C45	C	0.669009	0.080099	0.000049
C46	C	1.169009	0.580099	0.500049
C47	C	0.314130	0.075859	0.000076
C48	C	0.814130	0.575859	0.500076
C49	C	0.990507	-0.481413	-0.080659
C50	C	1.490507	0.018587	0.419341
C51	C	0.989449	-0.540817	-0.080664
C52	C	1.489449	-0.040817	0.419336
O53	O	0.988883	-0.571541	-0.149304
O54	O	1.488883	-0.071541	0.350696
N55	N	0.988913	-0.570523	0.000045
N56	N	1.488913	-0.070523	0.500045
C57	C	0.989427	-0.540822	0.080764
C58	C	1.489427	-0.040822	0.580764
O59	O	0.988873	-0.571544	0.149413
O60	O	1.488873	-0.071544	0.649413
C61	C	0.990479	-0.481419	0.080768
C62	C	1.490479	0.018581	0.580768
C63	C	0.991023	-0.451716	0.000054
C64	C	1.491023	0.048284	0.500054
C65	C	0.991050	-0.451710	-0.161366
C66	C	1.491050	0.048290	0.338634
C67	C	0.992110	-0.392311	-0.161360
C68	C	1.492110	0.107689	0.338640
C69	C	0.992626	-0.362614	-0.080647
C70	C	1.492626	0.137386	0.419353
C71	C	0.992082	-0.392317	0.000060
C72	C	1.492082	0.107683	0.500060
C73	C	0.990986	-0.451719	0.161486
C74	C	1.490986	0.048281	0.661486
C75	C	0.992037	-0.392312	0.161484
C76	C	1.492037	0.107688	0.661484
C77	C	0.992582	-0.362609	0.080770
C78	C	1.492582	0.137391	0.580770
C79	C	0.993658	-0.303221	0.080778
C80	C	1.493658	0.196779	0.580778
N81	N	0.994193	-0.273515	0.000070
N82	N	1.494193	0.226485	0.500070
C83	C	0.993677	-0.303211	-0.080643
C84	C	1.493677	0.196789	0.419357
C85	C	0.987217	-0.665572	0.080749
C86	C	1.487217	-0.165572	0.580749
C87	C	0.986171	-0.724975	0.080746
C88	C	1.486171	-0.224975	0.580746
C89	C	0.986192	-0.724965	-0.080682
C90	C	1.486192	-0.224965	0.419318
C91	C	0.987243	-0.665562	-0.080678
C92	C	1.487243	-0.165562	0.419322
C93	C	0.987752	-0.635866	0.000040
C94	C	1.487752	-0.135866	0.500040
C95	C	0.995903	-0.178469	-0.080626
C96	C	1.495903	0.321531	0.419374
C97	C	0.996966	-0.119064	-0.080613
C98	C	1.496966	0.380936	0.419387
C99	C	0.996940	-0.119079	0.080815
C100	C	1.496940	0.380921	0.580815
C101	C	0.995882	-0.178478	0.080803
C102	C	1.495882	0.321522	0.580803
C103	C	0.995360	-0.208172	0.000075
C104	C	1.495360	0.291828	0.500075
O105	O	0.994221	-0.272459	0.149384
O106	O	1.494221	0.227541	0.649384
O107	O	0.994220	-0.272481	-0.149280
O108	O	1.494220	0.227519	0.350720
C109	C	1.145171	0.073826	0.000083
C110	C	1.645171	0.573826	0.500083
C111	C	1.238407	0.074953	0.000085
C112	C	1.738407	0.574953	0.500085
C113	C	0.984538	0.182101	0.000046
C114	C	1.484538	0.682101	0.500046
C115	C	0.985650	0.245324	0.000032
C116	C	1.485650	0.745324	0.500032
N117	N	0.991540	0.077997	0.230748
N118	N	1.491540	0.577997	0.730748
N119	N	0.991599	0.077954	-0.230608
N120	N	1.491599	0.577954	0.269392
C121	C	0.931552	0.118407	0.470417
C122	C	1.431552	0.618407	0.970417
C123	C	1.007356	0.129464	0.529756
C124	C	1.507356	0.629464	1.029756
C125	C	0.991562	0.077983	0.412355
C126	C	1.491562	0.577983	0.912355
C127	C	0.915778	0.066939	0.529758
C128	C	1.415778	0.566939	1.029758
C129	C	0.991576	0.077971	0.587779
C130	C	1.491576	0.577971	1.087779
C131	C	1.067404	0.089065	0.470387
C132	C	1.567404	0.589065	0.970387
C133	C	0.975776	0.026518	0.470384
C134	C	1.475776	0.526518	0.970384
C135	C	1.051635	0.037553	0.529696
C136	C	1.551635	0.537553	1.029696
C137	C	0.991552	0.077992	0.311298
C138	C	1.491552	0.577992	0.811298
C139	C	0.991594	0.077961	0.688834
C140	C	1.491594	0.577961	1.188834
H141	H	0.564091	-0.021407	-0.000002
H142	H	1.064091	0.478593	0.499998
H143	H	0.992439	-0.368135	0.227216
H144	H	1.492439	0.131865	0.727216
H145	H	0.990544	-0.475892	0.227213
H146	H	1.490544	0.024108	0.727213
H147	H	1.020721	0.172981	0.555835
H148	H	1.520721	0.672981	1.055835
H149	H	0.992550	-0.368132	-0.227086
H150	H	1.492550	0.131868	0.272914
F151	F	0.990501	-0.483307	-0.247279
F152	F	1.490501	0.016693	0.252721
H153	H	0.419237	0.177427	-0.000045
H154	H	0.919237	0.677427	0.499955
F155	F	0.540055	0.135713	0.153702
F156	F	1.040055	0.635713	0.653702
H157	H	0.997411	-0.094883	-0.146343
H158	H	1.497411	0.405117	0.353657
H159	H	0.995447	-0.202664	0.146526
H160	H	1.495447	0.297336	0.646526
H161	H	0.880854	0.152620	0.444390
H162	H	1.380854	0.652620	0.944390
H163	H	0.962388	-0.016985	0.444285
H164	H	1.462388	0.483015	0.944285
F165	F	0.985607	-0.756581	0.166652
F166	F	1.485607	-0.256581	0.666652
F167	F	0.987821	-0.633955	-0.166584
F168	F	1.487821	-0.133955	0.333416
F169	F	0.443124	0.020222	0.153724
F170	F	0.943124	0.520222	0.653724
F171	F	1.151200	0.101333	0.436447
F172	F	1.651200	0.601333	0.936447
F173	F	0.997491	-0.087463	0.166711
F174	F	1.497491	0.412537	0.666711
F175	F	0.995348	-0.210062	-0.166545
F176	F	1.495348	0.289938	0.333455
F177	F	1.118045	-0.007139	0.563508
F178	F	1.618045	0.492861	1.063508
F179	F	0.832002	0.054736	0.563847
F180	F	1.332002	0.554736	1.063847
F181	F	0.985637	-0.756580	-0.166585
F182	F	1.485637	-0.256580	0.333415
H183	H	0.449223	0.027321	-0.134646
H184	H	0.949223	0.527321	0.365354
F185	F	0.539875	0.135684	-0.153778
F186	F	1.039875	0.635684	0.346222
H187	H	0.987634	-0.641397	0.146484
H188	H	1.487634	-0.141397	0.646484
