data_functionalizedCrystal
_audit_creation_method	'MofGen! by Chris Wilmer'
_symmetry_space_group_name_H-M	'P1'
_symmetry_Int_Tables_number	1
_symmetry_cell_setting	triclinic
loop_
_symmetry_equiv_pos_as_xyz
  x,y,z
_cell_length_a	15.297475
_cell_length_b	12.594516
_cell_length_c	15.296720
_cell_angle_alpha	80.350397
_cell_angle_beta	88.382886
_cell_angle_gamma	80.315126
loop_
_atom_site_label
_atom_site_type_symbol
_atom_site_fract_x
_atom_site_fract_y
_atom_site_fract_z
Zn1	Zn	1.253520	-0.828411	0.726651
Zn2	Zn	1.278805	-0.981681	0.580176
Zn3	Zn	1.132389	-0.768614	0.554888
Zn4	Zn	1.107029	-0.971218	0.701304
O5	O	1.192936	-0.887481	0.640755
O6	O	1.379456	-0.878146	0.728412
O7	O	1.280577	-0.932770	0.454246
O8	O	1.148489	-0.627612	0.577697
O9	O	1.398033	-0.990753	0.620797
O10	O	1.237483	-0.671544	0.703891
O11	O	1.173006	-0.776231	0.435666
O12	O	1.006443	-0.766086	0.553119
O13	O	1.105267	-0.972920	0.827242
O14	O	0.987811	-0.914938	0.660691
O15	O	1.212893	-0.868001	0.845864
O16	O	1.255987	-1.129227	0.596219
O17	O	1.129784	-1.121540	0.685212
C18	C	0.965343	-0.832888	0.601411
C19	C	0.867974	-0.809563	0.584600
C20	C	0.554863	-1.054200	0.760906
C21	C	0.646346	-1.076123	0.776698
C22	C	0.701757	-1.009485	0.728675
C23	C	0.665677	-0.920920	0.664857
C24	C	0.574185	-0.899000	0.649058
C25	C	0.721080	-0.854285	0.616828
C26	C	0.684999	-0.765720	0.553010
C27	C	0.593516	-0.743803	0.537214
C28	C	0.538105	-0.810441	0.585237
C29	C	0.812571	-0.876205	0.632626
C30	C	0.831894	-0.721004	0.520779
C31	C	0.740410	-0.699081	0.504987
C32	C	1.192898	-1.164009	0.640732
C33	C	1.192957	-1.282334	0.640766
C34	C	1.261655	-1.355756	0.592437
C35	C	1.269218	-1.445079	0.676082
C36	C	1.185495	-1.403844	0.557192
C37	C	1.200553	-1.370115	0.724459
C38	C	1.116802	-1.328856	0.605509
C39	C	1.124325	-1.418150	0.689203
C40	C	1.421417	-0.942287	0.680253
C41	C	1.518783	-0.965642	0.697084
C42	C	1.153430	-0.925964	0.869224
C43	C	1.136596	-0.942363	0.966585
C44	C	1.192994	-0.609881	0.640800
C45	C	1.193019	-0.491585	0.640820
C46	C	1.232338	-0.849083	0.413182
C47	C	1.249342	-0.832424	0.315852
C48	C	1.313289	-0.770095	1.279811
C49	C	1.329112	-0.754690	1.188337
C50	C	1.280984	-0.801606	1.132895
C51	C	1.217031	-0.863931	1.168935
C52	C	1.201212	-0.879344	1.260418
C53	C	1.168907	-0.910856	1.113502
C54	C	1.104954	-0.973181	1.149542
C55	C	1.089137	-0.988590	1.241017
C56	C	1.137265	-0.941674	1.296459
C57	C	1.184726	-0.895443	1.022018
C58	C	1.072649	-1.004692	1.002626
C59	C	1.056826	-1.020097	1.094100
H60	H	0.564144	-0.671697	0.485241
H61	H	0.776247	-1.027340	0.741537
H62	H	0.711020	-0.626971	0.453025
C63	C	1.099760	-1.468616	0.454379
C64	C	1.176931	-1.424684	0.461751
H65	H	1.094483	-1.481487	0.395459
H66	H	1.049640	-1.418655	0.468260
H67	H	1.102830	-1.535513	0.494412
H68	H	1.173858	-1.357783	0.421723
H69	H	1.227064	-1.474648	0.447860
H70	H	0.509741	-1.108453	0.799993
C71	C	0.990307	-1.493966	0.690510
C72	C	1.045920	-1.455068	0.744477
H73	H	0.941904	-1.516754	0.724637
H74	H	1.022740	-1.554079	0.667093
H75	H	0.968550	-1.437435	0.643208
H76	H	1.067682	-1.511602	0.791776
H77	H	1.013482	-1.394949	0.767908
H78	H	0.841939	-0.948315	0.684588
H79	H	1.004755	-1.070842	1.123457
C80	C	0.417570	-0.694537	0.501720
C81	C	0.437541	-0.786341	0.567878
H82	H	0.355485	-0.679658	0.491010
H83	H	0.448023	-0.708273	0.448746
H84	H	0.435647	-0.633416	0.520544
H85	H	0.419471	-0.847464	0.549051
H86	H	0.407077	-0.772611	0.620863
C87	C	1.364714	-1.495100	0.803425
C88	C	1.356196	-1.512970	0.716380
H89	H	1.418418	-1.536998	0.828296
H90	H	1.315993	-1.516386	0.837833
H91	H	1.365523	-1.419796	0.803175
H92	H	1.355381	-1.588273	0.716630
H93	H	1.404930	-1.491690	0.681963
H94	H	0.675717	-1.148235	0.828656
H95	H	1.352473	-0.731909	1.324960
H96	H	1.033460	-1.042898	0.957484
C97	C	0.980711	-0.685682	0.495336
C98	C	0.892793	-0.647745	0.467989
H99	H	1.018309	-0.640454	0.462750
H100	H	0.997926	-0.758576	0.485001
H101	H	0.985525	-0.683725	0.556804
H102	H	0.887978	-0.649709	0.406522
H103	H	0.875573	-0.574832	0.478317
H104	H	1.206814	-1.354804	0.795206
C105	C	1.419780	-1.378155	0.574486
C106	C	1.340078	-1.318607	0.537327
H107	H	1.468193	-1.355214	0.540469
H108	H	1.420643	-1.453753	0.574556
H109	H	1.424562	-1.365865	0.633634
H110	H	1.335293	-1.330904	0.478181
H111	H	1.339214	-1.242991	0.537248
H112	H	1.293871	-0.789060	1.058413
H113	H	1.052398	-1.278530	0.575641
H114	H	1.236796	-0.844697	0.992684
C115	C	1.438299	-0.648248	1.216700
C116	C	1.399400	-0.686179	1.148723
H117	H	1.481689	-0.605944	1.192241
H118	H	1.465625	-0.708666	1.258162
H119	H	1.393962	-0.604393	1.245790
H120	H	1.443736	-0.730041	1.119638
H121	H	1.372074	-0.625752	1.107246
C122	C	1.136907	-1.070343	1.431349
C123	C	1.119874	-0.958609	1.397013
H124	H	1.126166	-1.080794	1.493426
H125	H	1.197005	-1.098810	1.420427
H126	H	1.099088	-1.107201	1.403488
H127	H	1.157697	-0.921752	1.424869
H128	H	1.059766	-0.930129	1.407943
C129	C	0.979936	-1.095024	1.212657
C130	C	1.018843	-1.057102	1.280634
H131	H	0.936536	-1.137314	1.237115
H132	H	1.024260	-1.138880	1.183570
H133	H	0.952613	-1.034592	1.171191
H134	H	1.046172	-1.117534	1.322097
H135	H	0.974511	-1.013244	1.309736
