data_functionalizedCrystal
_audit_creation_method	'MofGen! by Chris Wilmer'
_symmetry_space_group_name_H-M	'P1'
_symmetry_Int_Tables_number	1
_symmetry_cell_setting	triclinic
loop_
_symmetry_equiv_pos_as_xyz
  x,y,z
_cell_length_a	14.971486
_cell_length_b	19.188930
_cell_length_c	14.048226
_cell_angle_alpha	89.988446
_cell_angle_beta	89.998499
_cell_angle_gamma	83.379455
loop_
_atom_site_label
_atom_site_type_symbol
_atom_site_fract_x
_atom_site_fract_y
_atom_site_fract_z
O1	O	1.186466	0.090988	-0.079062
O2	O	1.519800	0.424321	0.254271
O3	O	1.853133	0.757655	0.587604
O4	O	0.926009	0.101884	-0.079090
O5	O	1.259342	0.435217	0.254244
O6	O	1.592675	0.768550	0.587577
O7	O	1.063754	-0.005196	-0.079057
O8	O	1.397087	0.328138	0.254277
O9	O	1.730420	0.661471	0.587610
O10	O	1.048721	0.198067	-0.079095
O11	O	1.382055	0.531401	0.254238
O12	O	1.715388	0.864734	0.587571
O13	O	1.063737	-0.005202	0.079265
O14	O	1.397071	0.328131	0.412598
O15	O	1.730404	0.661465	0.745931
O16	O	0.925992	0.101878	0.079232
O17	O	1.259326	0.435211	0.412565
O18	O	1.592659	0.768544	0.745898
O19	O	1.186450	0.090982	0.079259
O20	O	1.519783	0.424315	0.412592
O21	O	1.853117	0.757648	0.745926
Zn22	Zn	1.056218	0.096429	0.104382
Zn23	Zn	1.389552	0.429762	0.437716
Zn24	Zn	1.722885	0.763095	0.771049
Zn25	Zn	1.056240	0.096437	-0.104213
Zn26	Zn	1.389573	0.429770	0.229121
Zn27	Zn	1.722907	0.763104	0.562454
O28	O	1.048705	0.198061	0.079226
O29	O	1.382038	0.531394	0.412559
O30	O	1.715371	0.864728	0.745893
C31	C	0.892678	0.101393	0.000068
C32	C	1.226012	0.434727	0.333401
C33	C	1.559345	0.768060	0.666735
C34	C	0.793389	0.099933	0.000058
C35	C	1.126722	0.433266	0.333392
C36	C	1.460056	0.766600	0.666725
C37	C	0.735831	0.162839	0.000048
C38	C	1.069165	0.496173	0.333381
C39	C	1.402498	0.829506	0.666714
C40	C	0.642539	0.161463	0.000062
C41	C	0.975872	0.494796	0.333396
C42	C	1.309206	0.828130	0.666729
C43	C	0.606806	0.097180	0.000080
C44	C	0.940140	0.430513	0.333414
C45	C	1.273473	0.763847	0.666747
C46	C	0.664371	0.034269	0.000094
C47	C	0.997705	0.367602	0.333427
C48	C	1.331038	0.700936	0.666761
C49	C	0.757662	0.035646	0.000086
C50	C	1.090995	0.368979	0.333420
C51	C	1.424328	0.702312	0.666753
C52	C	0.469924	0.031403	0.000108
C53	C	0.803257	0.364737	0.333441
C54	C	1.136591	0.698070	0.666774
C55	C	0.376627	0.030026	0.000113
C56	C	0.709961	0.363359	0.333447
C57	C	1.043294	0.696693	0.666780
C58	C	0.354801	0.157221	0.000083
C59	C	0.688135	0.490554	0.333417
C60	C	1.021468	0.823887	0.666750
C61	C	0.448092	0.158598	0.000076
C62	C	0.781425	0.491931	0.333409
C63	C	1.114758	0.825264	0.666742
C64	C	0.505650	0.095686	0.000088
C65	C	0.838984	0.429020	0.333421
C66	C	1.172317	0.762353	0.666754
C67	C	1.063259	-0.031211	0.000107
C68	C	1.396592	0.302122	0.333440
C69	C	1.729925	0.635455	0.666774
C70	C	1.061797	-0.108721	0.000115
C71	C	1.395131	0.224613	0.333448
C72	C	1.728464	0.557946	0.666782
C73	C	1.142622	-0.153384	0.000128
C74	C	1.475955	0.179949	0.333461
C75	C	1.809288	0.513282	0.666795
C76	C	1.141249	-0.226213	0.000112
C77	C	1.474582	0.107121	0.333446
C78	C	1.807916	0.440454	0.666779
C79	C	1.059047	-0.254374	0.000103
C80	C	1.392380	0.078960	0.333437
C81	C	1.725714	0.412293	0.666770
C82	C	0.978212	-0.209700	0.000085
C83	C	1.311545	0.123633	0.333418
C84	C	1.644879	0.456967	0.666751
C85	C	0.979587	-0.136874	0.000091
C86	C	1.312921	0.196460	0.333424
C87	C	1.646254	0.529793	0.666757
N88	N	0.996208	-0.362583	0.053976
N89	N	1.329541	-0.029250	0.387310
N90	N	1.662875	0.304084	0.720643
N91	N	0.994907	-0.431766	0.053973
N92	N	1.328240	-0.098433	0.387306
N93	N	1.661574	0.234901	0.720640
C94	C	1.054899	-0.473796	0.000084
C95	C	1.388232	-0.140462	0.333417
C96	C	1.721565	0.192871	0.666750
N97	N	1.116254	-0.444031	-0.053790
N98	N	1.449587	-0.110697	0.279543
N99	N	1.782921	0.222636	0.612876
N100	N	1.117558	-0.374842	-0.053782
N101	N	1.450891	-0.041508	0.279551
N102	N	1.784224	0.291825	0.612884
C103	C	1.057547	-0.333341	0.000096
C104	C	1.390880	-0.000008	0.333430
C105	C	1.724213	0.333326	0.666763
C106	C	1.134240	-0.597429	0.000078
C107	C	1.467573	-0.264095	0.333412
C108	C	1.800907	0.069238	0.666745
C109	C	1.132864	-0.670258	0.000057
C110	C	1.466197	-0.336925	0.333391
C111	C	1.799530	-0.003591	0.666724
C112	C	0.969825	-0.653744	0.000039
C113	C	1.303158	-0.320411	0.333372
C114	C	1.636491	0.012923	0.666706
C115	C	0.971203	-0.580916	0.000051
C116	C	1.304537	-0.247583	0.333384
C117	C	1.637870	0.085750	0.666717
C118	C	1.053413	-0.552763	0.000075
C119	C	1.386747	-0.219430	0.333408
C120	C	1.720080	0.113903	0.666742
C121	C	1.219780	0.091472	0.000100
C122	C	1.553114	0.424805	0.333433
C123	C	1.886447	0.758139	0.666766
C124	C	1.319070	0.092932	0.000103
C125	C	1.652403	0.426266	0.333436
C126	C	1.985736	0.759599	0.666770
C127	C	1.049200	0.224077	0.000061
C128	C	1.382533	0.557410	0.333394
C129	C	1.715867	0.890743	0.666727
C130	C	1.050661	0.301586	0.000046
C131	C	1.383994	0.634919	0.333380
C132	C	1.717328	0.968253	0.666713
N133	N	1.056210	0.096422	0.246743
N134	N	1.389543	0.429756	0.580076
N135	N	1.722877	0.763089	0.913410
N136	N	1.056256	0.096437	-0.246573
N137	N	1.389589	0.429771	0.086760
N138	N	1.722922	0.763104	0.420093
C139	C	1.117223	0.049027	0.296576
C140	C	1.450556	0.382361	0.629909
C141	C	1.783889	0.715694	0.963242
C142	C	1.117229	0.049027	0.396233
C143	C	1.450562	0.382360	0.729567
C144	C	1.783895	0.715694	1.062900
C145	C	1.056226	0.096426	0.446057
C146	C	1.389559	0.429759	0.779390
C147	C	1.722892	0.763092	1.112723
C148	C	0.995207	0.143823	0.396217
C149	C	1.328540	0.477156	0.729550
C150	C	1.661873	0.810490	1.062884
C151	C	0.995197	0.143819	0.296561
C152	C	1.328530	0.477153	0.629894
C153	C	1.661864	0.810486	0.963228
C154	C	0.995233	0.143828	0.603931
C155	C	1.328566	0.477161	0.937264
C156	C	1.661899	0.810495	1.270598
C157	C	0.995243	0.143833	0.703594
C158	C	1.328576	0.477166	1.036927
C159	C	1.661910	0.810499	1.370261
C160	C	1.117264	0.049035	0.703603
C161	C	1.450597	0.382369	1.036937
C162	C	1.783931	0.715702	1.370270
C163	C	1.117255	0.049032	0.603948
C164	C	1.450588	0.382365	0.937281
C165	C	1.783921	0.715699	1.270614
C166	C	1.056236	0.096430	0.554115
C167	C	1.389570	0.429764	0.887448
C168	C	1.722903	0.763097	1.220782
H169	H	0.595679	0.212688	0.000052
H170	H	0.929012	0.546021	0.333386
H171	H	1.262345	0.879355	0.666719
Cl172	Cl	1.242864	-0.282372	0.000128
Cl173	Cl	1.576198	0.050962	0.333461
Cl174	Cl	1.909531	0.384295	0.666795
Cl175	Cl	0.918512	0.203408	0.458850
Cl176	Cl	1.251845	0.536741	0.792183
Cl177	Cl	1.585178	0.870074	1.125516
Cl178	Cl	0.780742	0.243657	0.000019
Cl179	Cl	1.114076	0.576991	0.333352
Cl180	Cl	1.447409	0.910324	0.666685
H181	H	0.477182	0.210943	0.000052
H182	H	0.810515	0.544276	0.333385
H183	H	1.143849	0.877609	0.666719
H184	H	0.804525	-0.015579	0.000094
H185	H	1.137858	0.317754	0.333428
H186	H	1.471192	0.651088	0.666761
Cl187	Cl	1.234481	-0.726409	0.000067
Cl188	Cl	1.567815	-0.393075	0.333401
Cl189	Cl	1.901148	-0.059742	0.666734
H190	H	0.911283	-0.232634	0.000075
H191	H	1.244616	0.100700	0.333408
H192	H	1.577949	0.434033	0.666742
H193	H	0.945542	0.182423	0.563361
H194	H	1.278875	0.515756	0.896694
H195	H	1.612209	0.849089	1.230027
Cl196	Cl	0.918548	0.203421	0.766221
Cl197	Cl	1.251881	0.536754	1.099555
Cl198	Cl	1.585214	0.870088	1.432888
Cl199	Cl	0.918489	0.203402	0.233915
Cl200	Cl	1.251822	0.536736	0.567248
Cl201	Cl	1.585155	0.870069	0.900582
Cl202	Cl	0.331707	-0.050788	0.000168
Cl203	Cl	0.665041	0.282545	0.333502
Cl204	Cl	0.998374	0.615878	0.666835
Cl205	Cl	1.245971	-0.117996	0.000131
Cl206	Cl	1.579305	0.215338	0.333465
Cl207	Cl	1.912638	0.548671	0.666798
H208	H	0.913768	-0.100507	0.000080
H209	H	1.247102	0.232826	0.333414
H210	H	1.580435	0.566159	0.666747
H211	H	1.166909	0.010434	0.436807
H212	H	1.500242	0.343767	0.770140
H213	H	1.833576	0.677100	1.103473
H214	H	1.201180	-0.574506	0.000094
H215	H	1.534514	-0.241172	0.333427
H216	H	1.867847	0.092161	0.666760
H217	H	0.902894	-0.676672	0.000027
H218	H	1.236228	-0.343338	0.333360
H219	H	1.569561	-0.010005	0.666693
H220	H	0.516786	-0.019826	0.000119
H221	H	0.850120	0.313507	0.333452
H222	H	1.183453	0.646841	0.666785
Cl223	Cl	1.193921	-0.010560	0.233951
Cl224	Cl	1.527255	0.322773	0.567285
Cl225	Cl	1.860588	0.656106	0.900618
Cl226	Cl	0.619450	-0.046545	0.000123
Cl227	Cl	0.952783	0.286788	0.333456
Cl228	Cl	1.286117	0.620122	0.666790
H229	H	0.307932	0.208445	0.000078
H230	H	0.641266	0.541779	0.333412
H231	H	0.974599	0.875112	0.666745
Cl232	Cl	0.869589	-0.524764	0.000039
Cl233	Cl	1.202923	-0.191431	0.333372
Cl234	Cl	1.536256	0.141902	0.666706
Cl235	Cl	1.193949	-0.010551	0.541311
Cl236	Cl	1.527282	0.322783	0.874644
Cl237	Cl	1.860616	0.656116	1.207977
Cl238	Cl	1.193972	-0.010549	0.766253
Cl239	Cl	1.527306	0.322784	1.099587
Cl240	Cl	1.860639	0.656118	1.432920
