data_functionalizedCrystal
_audit_creation_method	'MofGen! by Chris Wilmer'
_symmetry_space_group_name_H-M	'P1'
_symmetry_Int_Tables_number	1
_symmetry_cell_setting	triclinic
loop_
_symmetry_equiv_pos_as_xyz
  x,y,z
_cell_length_a	14.519709
_cell_length_b	10.967926
_cell_length_c	10.065875
_cell_angle_alpha	93.120479
_cell_angle_beta	81.188361
_cell_angle_gamma	95.794161
loop_
_atom_site_label
_atom_site_type_symbol
_atom_site_fract_x
_atom_site_fract_y
_atom_site_fract_z
O1	O	-0.160834	1.613232	0.265954
O2	O	-0.163468	1.263193	0.183625
O3	O	-0.028219	1.447495	0.226961
O4	O	-0.296083	1.428930	0.222619
O5	O	-0.054117	1.412352	0.445686
O6	O	-0.189366	1.228050	0.402351
O7	O	-0.186733	1.578088	0.484680
Zn8	Zn	-0.192162	1.397489	0.478242
Zn9	Zn	-0.158039	1.443792	0.190062
O10	O	-0.321982	1.393786	0.441344
C11	C	-0.174269	1.200824	0.282451
C12	C	-0.167856	1.067340	0.251055
C13	C	-0.178413	0.989623	0.350363
C14	C	-0.171785	0.851660	0.317916
C15	C	-0.343421	1.412223	0.332188
C16	C	-0.445890	1.414813	0.332807
C17	C	-0.821096	1.424365	0.334999
C18	C	-0.716702	1.421712	0.334391
C19	C	-0.633496	1.419589	0.333904
C20	C	-0.529095	1.416937	0.333293
C21	C	-0.006779	1.429059	0.336114
C22	C	0.095690	1.426470	0.335487
C23	C	-0.175932	1.640458	0.385851
C24	C	-0.182344	1.773944	0.417239
N25	N	-0.215449	1.365897	0.674920
N26	N	-0.134745	1.475394	-0.006613
C27	C	-0.166135	1.432793	0.758428
C28	C	-0.184065	1.408488	0.909880
H29	H	-0.153908	1.031738	0.142011
O30	O	-0.288968	1.266214	0.728742
H31	H	-0.358246	1.286173	0.706082
H32	H	-0.110638	1.508055	0.717800
H33	H	-0.196287	0.809538	0.526290
H34	H	-0.239559	1.333213	0.950502
O35	O	-0.061223	1.575092	0.939593
H36	H	-0.094558	1.643792	0.890640
O37	O	-0.196891	1.036760	0.494811
H38	H	-0.199206	1.137723	0.497628
O39	O	-0.153316	0.804527	0.173460
H40	H	-0.151016	0.703561	0.170642
