data_functionalizedCrystal
_audit_creation_method	'MofGen! by Chris Wilmer'
_symmetry_space_group_name_H-M	'P1'
_symmetry_Int_Tables_number	1
_symmetry_cell_setting	triclinic
loop_
_symmetry_equiv_pos_as_xyz
  x,y,z
_cell_length_a	17.019282
_cell_length_b	26.210047
_cell_length_c	17.038272
_cell_angle_alpha	89.995368
_cell_angle_beta	87.241387
_cell_angle_gamma	86.127803
loop_
_atom_site_label
_atom_site_type_symbol
_atom_site_fract_x
_atom_site_fract_y
_atom_site_fract_z
O1	O	1.053361	-0.003869	0.099547
O2	O	0.824550	0.006189	0.112257
O3	O	0.937595	0.001216	-0.007912
O4	O	0.940315	0.001104	0.219716
O5	O	0.937573	-0.083641	-0.007894
O6	O	0.824528	-0.078668	0.112276
O7	O	1.053339	-0.088726	0.099566
Cu8	Cu	0.938931	-0.091445	0.105922
Cu9	Cu	0.938957	0.008908	0.105900
O10	O	0.940293	-0.083753	0.219735
C11	C	0.795118	-0.034946	0.111786
C12	C	0.707451	-0.031093	0.110345
N13	N	0.938918	-0.162028	0.105937
C14	C	0.666258	-0.075539	0.109677
C15	C	0.583887	-0.071920	0.108310
C16	C	0.542710	-0.023853	0.107618
C17	C	0.583909	0.020596	0.108285
C18	C	0.666279	0.016976	0.109645
C19	C	0.294007	-0.010610	0.103504
C20	C	0.211631	-0.006993	0.102146
C21	C	0.211614	-0.099510	0.102170
C22	C	0.293985	-0.103125	0.103536
C23	C	0.335177	-0.058676	0.104198
C24	C	0.458513	-0.020153	0.106224
C25	C	0.419373	-0.062377	0.105586
C26	C	0.989009	-0.516746	0.052701
C27	C	0.989026	-0.730405	0.052690
O28	O	1.031585	-0.759900	0.007430
N29	N	0.938960	-0.754924	0.105883
C30	C	0.888883	-0.726024	0.159079
O31	O	0.846294	-0.751781	0.204317
C32	C	0.888863	-0.512366	0.159085
C33	C	0.938938	-0.487850	0.105894
C34	C	1.039079	-0.492230	-0.000486
C35	C	1.039077	-0.438819	-0.000480
C36	C	0.989006	-0.409923	0.052713
C37	C	0.938936	-0.434439	0.105900
C38	C	0.838783	-0.483467	0.212277
C39	C	0.838781	-0.430049	0.212272
C40	C	0.888855	-0.405534	0.159081
C41	C	0.888863	-0.352132	0.159100
N42	N	0.938929	-0.327613	0.105907
C43	C	0.989000	-0.356509	0.052714
C44	C	0.888899	-0.838198	0.159073
C45	C	0.888904	-0.891613	0.159072
C46	C	0.989046	-0.895990	0.052682
C47	C	0.989044	-0.842575	0.052687
C48	C	0.938964	-0.813680	0.105880
C49	C	0.988994	-0.244340	0.052731
C50	C	0.988990	-0.190924	0.052744
C51	C	0.888846	-0.186551	0.159131
C52	C	0.888852	-0.239963	0.159121
C53	C	0.938928	-0.268856	0.105915
O54	O	0.846320	-0.322605	0.204330
O55	O	1.031571	-0.330742	0.007471
C56	C	0.989011	-0.570158	0.052695
C57	C	0.938941	-0.594673	0.105882
C58	C	0.888870	-0.565778	0.159075
C59	C	0.938947	-0.648088	0.105882
C60	C	0.989018	-0.676984	0.052688
C61	C	1.039084	-0.652465	-0.000504
C62	C	1.039082	-0.599053	-0.000498
C63	C	0.838804	-0.590296	0.212268
C64	C	0.838810	-0.643708	0.212258
C65	C	0.888882	-0.672604	0.159065
C66	C	1.082771	-0.047589	0.100037
C67	C	1.170437	-0.051440	0.101477
C68	C	0.935111	-0.041104	-0.037029
C69	C	0.927730	-0.040779	-0.123815
N70	N	0.938976	0.079491	0.105879
C71	C	0.995490	-0.043758	-0.173990
C72	C	0.988551	-0.043448	-0.255535
C73	C	0.913851	-0.040163	-0.286902
C74	C	0.846087	-0.037182	-0.236721
C75	C	0.853026	-0.037489	-0.155178
C76	C	0.889333	-0.039078	-0.532638
C77	C	0.882399	-0.038774	-0.614187
C78	C	1.024863	-0.045039	-0.632996
C79	C	1.031797	-0.045348	-0.551450
C80	C	0.964032	-0.042365	-0.501276
C81	C	0.906756	-0.039848	-0.370253
C82	C	0.971128	-0.042676	-0.417927
C83	C	0.942778	-0.041432	0.248851
C84	C	0.950158	-0.041753	0.335638
H85	H	0.699778	-0.114680	0.110246
N86	N	1.094087	-0.048088	-0.684236
N87	N	1.142547	-0.085988	-0.681420
H88	H	1.191440	-0.088140	-0.717608
N89	N	0.806084	-0.035427	-0.646216
N90	N	0.745587	-0.032769	-0.601411
H91	H	0.691692	-0.030410	-0.624031
N92	N	0.787633	-0.508492	0.266621
N93	N	0.742933	-0.482676	0.314105
H94	H	0.706806	-0.500349	0.352490
N95	N	1.057774	-0.046487	-0.306776
N96	N	1.124465	-0.049421	-0.278759
H97	H	1.173358	-0.051565	-0.314948
N98	N	1.040193	-0.925509	-0.001658
N99	N	1.113174	-0.922752	-0.000648
H100	H	1.149289	-0.943602	-0.039027
N101	N	0.787628	-0.400543	0.266622
N102	N	0.793553	-0.406779	0.338883
H103	H	0.757428	-0.385941	0.377270
N104	N	0.416449	0.028944	0.105508
N105	N	0.374069	0.041123	0.049661
H106	H	0.344359	0.075797	0.049152
N107	N	1.071795	-0.047104	-0.141954
N108	N	1.091571	-0.012203	-0.098558
H109	H	1.145464	-0.014563	-0.075934
N110	N	1.108107	-0.048705	-0.519425
N111	N	1.168602	-0.051364	-0.564234
H112	H	1.222499	-0.053736	-0.541617
N113	N	0.541851	0.069696	0.107592
N114	N	0.547480	0.100423	0.162819
H115	H	0.517778	0.135101	0.162332
H116	H	0.848085	-0.259924	0.202441
N117	N	0.837710	-0.157022	0.213462
N118	N	0.837719	-0.109332	0.213450
H119	H	0.801601	-0.088474	0.251819
H120	H	0.848138	-0.911570	0.202393
H121	H	0.452903	-0.101512	0.106146
N122	N	0.837733	-0.808694	0.213415
N123	N	0.793039	-0.830599	0.260899
H124	H	0.756904	-0.809764	0.299281
N125	N	1.040139	-0.165891	-0.001604
N126	N	1.084832	-0.191700	-0.049101
H127	H	1.120950	-0.174022	-0.087489
N128	N	0.541822	-0.117326	0.107621
N129	N	0.578595	-0.160239	0.108241
H130	H	0.548888	-0.192310	0.107753
N131	N	1.040147	-0.273841	-0.001624
N132	N	1.084844	-0.251937	-0.049105
H133	H	1.120974	-0.272771	-0.087492
N134	N	0.820108	-0.036034	-0.481405
N135	N	0.753418	-0.033105	-0.509425
H136	H	0.704524	-0.030957	-0.473239
N137	N	0.336033	-0.152228	0.104222
N138	N	0.299244	-0.191910	0.103609
H139	H	0.328940	-0.226590	0.104087
H140	H	1.079857	-0.579097	-0.043811
H141	H	0.178066	-0.135698	0.101630
N142	N	0.708358	0.062378	0.110346
N143	N	0.750744	0.070839	0.166185
H144	H	0.780463	0.102905	0.166679
N145	N	1.090293	-0.413792	-0.054763
N146	N	1.135031	-0.439608	-0.102211
H147	H	1.171227	-0.421937	-0.140532
H148	H	1.079857	-0.676001	-0.043814
H149	H	0.785264	-0.034504	-0.262267
H150	H	0.798036	-0.663665	0.255579
H151	H	0.178107	0.032150	0.101585
H152	H	0.798029	-0.566773	0.255583
N153	N	0.783804	-0.034439	-0.103934
N154	N	0.717112	-0.031502	-0.131948
H155	H	0.668220	-0.029345	-0.095758
N156	N	0.336064	0.034798	0.104180
N157	N	0.299287	0.077710	0.103564
H158	H	0.328992	0.109782	0.104042
H159	H	1.079853	-0.515753	-0.043806
N160	N	1.047423	-0.046038	-0.385875
N161	N	1.067165	-0.082677	-0.342463
H162	H	1.121048	-0.085054	-0.319819
H163	H	0.845936	-0.037174	-0.395802
H164	H	1.029818	-0.822618	0.009375
