data_functionalizedCrystal
_audit_creation_method	'MofGen! by Chris Wilmer'
_symmetry_space_group_name_H-M	'P1'
_symmetry_Int_Tables_number	1
_symmetry_cell_setting	triclinic
loop_
_symmetry_equiv_pos_as_xyz
  x,y,z
_cell_length_a	13.032831
_cell_length_b	12.645330
_cell_length_c	13.032268
_cell_angle_alpha	97.151134
_cell_angle_beta	89.113023
_cell_angle_gamma	97.168647
loop_
_atom_site_label
_atom_site_type_symbol
_atom_site_fract_x
_atom_site_fract_y
_atom_site_fract_z
Zn1	Zn	1.498373	0.715916	0.780856
Zn2	Zn	1.998373	1.215916	1.280856
Zn3	Zn	1.520092	0.873859	0.608881
Zn4	Zn	2.020092	1.373859	1.108881
Zn5	Zn	1.348238	0.671631	0.587096
Zn6	Zn	1.848238	1.171631	1.087096
Zn7	Zn	1.326341	0.868127	0.759006
Zn8	Zn	1.826341	1.368127	1.259006
O9	O	1.423261	0.782383	0.683960
O10	O	1.923261	1.282383	1.183960
O11	O	1.645172	0.757799	0.776305
O12	O	2.145172	1.257799	1.276305
O13	O	1.515549	0.830899	0.462074
O14	O	2.015549	1.330899	0.962074
O15	O	1.368229	0.529172	0.612826
O16	O	1.868229	1.029172	1.112826
O17	O	1.661129	0.873839	0.649955
O18	O	2.161129	1.373839	1.149955
O19	O	1.478532	0.561707	0.755181
O20	O	1.978532	1.061707	1.255181
O21	O	1.389289	0.682323	0.446068
O22	O	1.889289	1.182323	0.946068
O23	O	1.201416	0.676765	0.591639
O24	O	1.701416	1.176765	1.091639
O25	O	1.330908	0.864071	0.905822
O26	O	1.830908	1.364071	1.405822
O27	O	1.185328	0.821130	0.717940
O28	O	1.685328	1.321130	1.217940
O29	O	1.457299	0.752241	0.921875
O30	O	1.957299	1.252241	1.421875
O31	O	1.494316	1.021433	0.628768
O32	O	1.994316	1.521433	1.128768
O33	O	1.351968	1.017222	0.739064
O34	O	1.851968	1.517222	1.239064
C35	C	1.156056	0.743521	0.650055
C36	C	1.656056	1.243521	1.150055
C37	C	1.041741	0.726924	0.635575
C38	C	1.541741	1.226924	1.135575
C39	C	1.423148	1.057795	0.683935
C40	C	1.923148	1.557795	1.183935
C41	C	1.423189	1.175635	0.683971
C42	C	1.923189	1.675635	1.183971
C43	C	0.982856	0.791046	0.691517
C44	C	1.482856	1.291046	1.191517
C45	C	0.864705	0.773893	0.676552
C46	C	1.364705	1.273893	1.176552
C47	C	1.333910	1.340666	0.753644
C48	C	1.833910	1.840666	1.253644
C49	C	1.333556	1.218022	0.753337
C50	C	1.833556	1.718022	1.253337
C51	C	1.407618	1.203784	0.571869
C52	C	1.907618	1.703784	1.071869
C53	C	1.407055	1.326364	0.572291
C54	C	1.907055	1.826364	1.072291
C55	C	1.528580	1.361681	0.725580
C56	C	2.028580	1.861681	1.225580
C57	C	1.527629	1.239246	0.727866
C58	C	2.027629	1.739246	1.227866
C59	C	1.691510	0.821398	0.717997
C60	C	2.191510	1.321398	1.217997
C61	C	1.805821	0.838024	0.732502
C62	C	2.305821	1.338024	1.232502
C63	C	1.389239	0.812457	0.952208
C64	C	1.889239	1.312457	1.452208
C65	C	1.374740	0.825272	1.066519
C66	C	1.874740	1.325272	1.566519
C67	C	1.423364	1.505898	0.684010
C68	C	1.923364	2.005898	1.184010
C69	C	1.423314	1.388064	0.684029
C70	C	1.923314	1.888064	1.184029
C71	C	1.457211	0.752359	0.416763
C72	C	1.957211	1.252359	0.916763
C73	C	1.471908	0.739274	0.302477
C74	C	1.971908	1.239274	0.802477
C75	C	1.430812	0.775655	1.125426
C76	C	1.930812	1.275655	1.625426
C77	C	1.415829	0.788899	1.243572
C78	C	1.915829	1.288899	1.743572
H79	H	1.019911	0.858638	0.750493
H80	H	1.519911	1.358638	1.250493
N81	N	1.550969	1.419279	0.832968
N82	N	2.050969	1.919279	1.332968
H83	H	1.618843	1.401231	0.858127
H84	H	2.118843	1.901231	1.358127
H85	H	1.555318	1.499342	0.831246
H86	H	2.055318	1.999342	1.331246
H87	H	1.330515	1.340853	0.538694
H88	H	1.830515	1.840853	1.038694
N89	N	1.490549	1.367156	0.500261
N90	N	1.990549	1.867156	1.000261
H91	H	1.527553	1.305503	0.468371
H92	H	2.027553	1.805503	0.968371
H93	H	1.458291	1.400084	0.443851
H94	H	1.958291	1.900084	0.943851
N95	N	1.491952	1.166855	0.500476
N96	N	1.991952	1.666855	1.000476
H97	H	1.541180	1.131437	0.540209
H98	H	2.041180	1.631437	1.040209
H99	H	1.460122	1.113709	0.441842
H100	H	1.960122	1.613709	0.941842
N101	N	0.815636	0.684352	0.598424
N102	N	1.315636	1.184352	1.098424
H103	H	0.843585	0.695149	0.527260
H104	H	1.343585	1.195149	1.027260
H105	H	0.832276	0.613170	0.616953
H106	H	1.332276	1.113170	1.116953
H107	H	1.341846	1.381782	0.836578
H108	H	1.841846	1.881782	1.336578
H109	H	1.341703	1.199568	0.836029
H110	H	1.841703	1.699568	1.336029
H111	H	1.256067	1.357877	0.725328
H112	H	1.756067	1.857877	1.225328
H113	H	1.331969	1.159044	0.537952
H114	H	1.831969	1.659044	1.037952
H115	H	1.315635	0.877548	1.103554
H116	H	1.815635	1.377548	1.603554
H117	H	0.842871	0.905620	0.791486
H118	H	1.342871	1.405620	1.291486
H119	H	1.004685	0.659324	0.576606
H120	H	1.504685	1.159324	1.076606
N121	N	1.229833	1.161019	0.715426
N122	N	1.729833	1.661019	1.215426
H123	H	1.184165	1.215557	0.698844
H124	H	1.684165	1.715557	1.198844
H125	H	1.239872	1.109870	0.651148
H126	H	1.739872	1.609870	1.151148
N127	N	1.543527	1.216773	0.837236
N128	N	2.043527	1.716773	1.337236
H129	H	1.483336	1.165599	0.858272
H130	H	1.983336	1.665599	1.358272
H131	H	1.609685	1.183517	0.841131
H132	H	2.109685	1.683517	1.341131
H133	H	1.596653	1.211588	0.681950
H134	H	2.096653	1.711588	1.181950
N135	N	1.616592	1.402807	0.658645
N136	N	2.116592	1.902807	1.158645
H137	H	1.588472	1.438361	0.601686
H138	H	2.088472	1.938361	1.101686
H139	H	1.666801	1.456727	0.702273
H140	H	2.166801	1.956727	1.202273
H141	H	1.489906	0.723366	1.088389
H142	H	1.989906	1.223366	1.588389
H143	H	1.356720	0.841179	1.280603
H144	H	1.856720	1.341179	1.780603
H145	H	1.531005	0.686979	1.265447
H146	H	2.031005	1.186979	1.765447
