data_functionalizedCrystal
_audit_creation_method	'MofGen! by Chris Wilmer'
_symmetry_space_group_name_H-M	'P1'
_symmetry_Int_Tables_number	1
_symmetry_cell_setting	triclinic
loop_
_symmetry_equiv_pos_as_xyz
  x,y,z
_cell_length_a	23.532407
_cell_length_b	23.532357
_cell_length_c	9.130313
_cell_angle_alpha	89.993247
_cell_angle_beta	90.002462
_cell_angle_gamma	82.838519
loop_
_atom_site_label
_atom_site_type_symbol
_atom_site_fract_x
_atom_site_fract_y
_atom_site_fract_z
O1	O	0.755244	0.069134	-0.121724
O2	O	0.589379	0.079138	-0.121750
O3	O	0.677328	-0.008798	-0.121706
O4	O	0.667295	0.157070	-0.121768
O5	O	0.677327	-0.008795	0.121892
O6	O	0.589378	0.079140	0.121849
O7	O	0.755243	0.069137	0.121874
Cu8	Cu	0.672310	0.074139	0.144104
Cu9	Cu	0.672311	0.074136	-0.143980
O10	O	0.667294	0.157072	0.121831
C11	C	0.568162	0.078884	0.000047
C12	C	0.504945	0.078118	0.000038
C13	C	0.238788	0.022922	0.000099
C14	C	0.298188	0.023633	0.000098
O15	O	0.334940	-0.020154	0.000165
N16	N	0.320805	0.075911	0.000068
C17	C	0.284018	0.127480	0.000055
O18	O	0.308710	0.172012	0.000031
C19	C	0.224619	0.126768	0.000066
C20	C	0.202006	0.074487	0.000080
C21	C	0.216174	-0.029355	0.000115
C22	C	0.156778	-0.030066	0.000113
C23	C	0.119996	0.021499	0.000094
C24	C	0.142610	0.073776	0.000078
C25	C	0.187833	0.178337	0.000062
C26	C	0.128431	0.177620	0.000075
C27	C	0.105818	0.125339	0.000089
C28	C	0.046431	0.124630	0.000058
N29	N	0.023815	0.072353	0.000087
C30	C	0.060597	0.020787	0.000106
C31	C	0.408760	0.128971	0.000034
C32	C	0.468158	0.129684	0.000012
C33	C	0.482324	0.025837	0.000058
C34	C	0.422925	0.025125	0.000069
C35	C	0.386143	0.076694	0.000063
C36	C	-0.064140	0.019297	0.000100
C37	C	-0.123542	0.018591	0.000092
C38	C	-0.137702	0.122438	0.000053
C39	C	-0.078306	0.123145	0.000054
C40	C	-0.041525	0.071570	0.000082
O41	O	0.009644	0.168394	-0.000003
O42	O	0.035897	-0.023737	0.000148
C43	C	0.677076	-0.030013	0.000098
C44	C	0.676322	-0.093232	0.000111
C45	C	0.671586	-0.485244	-0.132754
C46	C	0.670868	-0.544644	-0.132763
O47	O	0.670479	-0.575361	-0.245692
N48	N	0.670512	-0.574354	0.000021
C49	C	0.670867	-0.544660	0.132822
O50	O	0.670498	-0.575385	0.245764
C51	C	0.671580	-0.485261	0.132829
C52	C	0.671942	-0.455555	0.000036
C53	C	0.671947	-0.455538	-0.265536
C54	C	0.672665	-0.396143	-0.265527
C55	C	0.673022	-0.366454	-0.132736
C56	C	0.672661	-0.396160	0.000046
C57	C	0.671931	-0.455568	0.265628
C58	C	0.672644	-0.396165	0.265624
C59	C	0.673006	-0.366459	0.132831
C60	C	0.673736	-0.307076	0.132845
N61	N	0.674092	-0.277366	0.000061
C62	C	0.673735	-0.307055	-0.132729
C63	C	0.669369	-0.669402	0.132797
C64	C	0.668660	-0.728800	0.132792
C65	C	0.668660	-0.728779	-0.132793
C66	C	0.669373	-0.669380	-0.132786
C67	C	0.669725	-0.639692	0.000014
C68	C	0.675244	-0.182321	-0.132700
C69	C	0.675965	-0.122921	-0.132679
C70	C	0.675962	-0.122946	0.132905
C71	C	0.675244	-0.182341	0.132885
C72	C	0.674883	-0.212027	0.000071
O73	O	0.674124	-0.276320	0.245717
O74	O	0.674097	-0.276322	-0.245653
C75	C	0.776459	0.069390	0.000075
C76	C	0.839676	0.070156	0.000073
C77	C	0.667545	0.178288	0.000024
C78	C	0.668300	0.241506	0.000000
N79	N	0.672313	0.074140	0.346727
N80	N	0.672313	0.074130	-0.346602
C81	C	0.711267	0.035215	0.423398
C82	C	0.711265	0.035209	0.576735
C83	C	0.633355	0.113056	0.576716
C84	C	0.633354	0.113060	0.423382
C85	C	0.750226	-0.003704	0.346743
C86	C	0.789183	-0.042632	0.423415
C87	C	0.789182	-0.042639	0.576752
C88	C	0.750223	-0.003718	0.653417
H89	H	0.404518	-0.017447	0.000082
H90	H	0.601637	0.144745	0.639147
O91	O	0.826983	-0.080403	0.348722
C92	C	0.861446	-0.114965	0.112513
C93	C	0.818629	-0.072135	0.196913
H94	H	0.854698	-0.108303	-0.010240
H95	H	0.907039	-0.107804	0.142520
H96	H	0.854271	-0.160529	0.142790
H97	H	0.825751	-0.026555	0.166681
H98	H	0.773050	-0.079346	0.166899
O99	O	0.671483	-0.484457	0.394544
C100	C	0.621260	-0.544716	0.548713
C101	C	0.621716	-0.512046	0.402632
H102	H	0.581023	-0.567020	0.555313
H103	H	0.660751	-0.578010	0.555466
H104	H	0.621655	-0.513266	0.643562
H105	H	0.621302	-0.543452	0.307699
H106	H	0.582230	-0.478744	0.396006
H107	H	0.820898	-0.074339	0.639176
O108	O	0.595573	0.150950	0.348957
C109	C	0.561594	0.250151	0.302068
C110	C	0.604424	0.207305	0.386421
H111	H	0.568727	0.295723	0.332349
H112	H	0.568286	0.243515	0.179293
H113	H	0.516030	0.242930	0.332191
H114	H	0.650004	0.214501	0.356421
H115	H	0.597682	0.213952	0.509175
O116	O	-0.056305	0.173913	-0.000219
C117	C	0.002572	0.234972	-0.126348
C118	C	-0.022312	0.177463	-0.126266
H119	H	0.030071	0.237856	-0.228230
H120	H	-0.033897	0.271730	-0.126456
H121	H	0.029999	0.237887	-0.024343
H122	H	-0.049732	0.174492	-0.228253
H123	H	0.014185	0.140732	-0.126081
O124	O	-0.145534	-0.032183	-0.000151
C125	C	-0.204397	-0.093248	-0.126286
C126	C	-0.179521	-0.035735	-0.126213
H127	H	-0.231891	-0.096132	-0.228181
H128	H	-0.167923	-0.130001	-0.126362
H129	H	-0.231827	-0.096170	-0.024295
H130	H	-0.152099	-0.032757	-0.228188
H131	H	-0.216022	0.000992	-0.126061
H132	H	0.669657	-0.645233	0.240946
H133	H	-0.034199	-0.022700	0.000122
O134	O	0.668411	-0.757614	-0.261828
C135	C	0.717517	-0.782495	-0.488853
C136	C	0.717876	-0.749824	-0.342773
H137	H	0.757499	-0.776199	-0.554352
H138	H	0.716979	-0.830062	-0.466120
H139	H	0.677776	-0.765378	-0.554280
H140	H	0.757610	-0.766893	-0.277273
H141	H	0.718383	-0.702261	-0.365610
H142	H	0.246117	-0.071348	0.000134
O143	O	0.134910	-0.080903	0.000211
C144	C	0.155252	-0.183828	0.000194
C145	C	0.180087	-0.126294	0.000106
H146	H	0.191766	-0.220542	0.000078
H147	H	0.127824	-0.186796	0.102172
H148	H	0.127774	-0.186737	-0.101719
H149	H	0.207591	-0.123346	0.101950
H150	H	0.207483	-0.123351	-0.101940
O151	O	0.518117	-0.024219	-0.000109
C152	C	0.593383	-0.083696	-0.126324
C153	C	0.552889	-0.026986	-0.126298
H154	H	0.621498	-0.085956	-0.228352
H155	H	0.621588	-0.085960	-0.024447
H156	H	0.567009	-0.121177	-0.126233
H157	H	0.579218	0.010527	-0.126441
H158	H	0.524683	-0.024772	-0.228166
O159	O	0.490026	0.180520	0.000046
C160	C	0.469690	0.283446	-0.000088
C161	C	0.444851	0.225913	-0.000102
H162	H	0.433178	0.320161	-0.000238
H163	H	0.497124	0.286420	0.101881
H164	H	0.497163	0.286346	-0.102010
H165	H	0.417353	0.222975	0.101751
H166	H	0.417450	0.222964	-0.102138
O167	O	0.674911	-0.211066	-0.261845
C168	C	0.674932	-0.204753	-0.525265
C169	C	0.675327	-0.172131	-0.379118
H170	H	0.675257	-0.173287	-0.620118
H171	H	0.714463	-0.237995	-0.532037
H172	H	0.634739	-0.227129	-0.531826
H173	H	0.715494	-0.149721	-0.372459
H174	H	0.635770	-0.138922	-0.372408
H175	H	0.378815	0.170968	0.000018
H176	H	0.750232	-0.003701	0.221889
O177	O	0.092679	0.227702	0.000321
C178	C	0.017374	0.287157	0.126455
C179	C	0.057838	0.230427	0.126381
H180	H	-0.010813	0.289374	0.228347
H181	H	0.043716	0.324664	0.126536
H182	H	-0.010764	0.289415	0.024461
H183	H	0.085984	0.228114	0.228358
H184	H	0.031461	0.192948	0.126223
H185	H	0.750221	-0.003731	0.778274
H186	H	-0.167661	0.164421	0.000031
H187	H	0.676261	-0.098737	-0.240820
H188	H	0.206234	0.220910	0.000044
H189	H	0.672958	-0.371961	-0.373660
O190	O	0.671678	-0.484446	-0.394447
C191	C	0.720248	-0.558194	-0.548646
C192	C	0.720610	-0.525516	-0.402577
H193	H	0.759811	-0.591399	-0.555281
H194	H	0.680080	-0.580607	-0.555345
H195	H	0.720600	-0.526735	-0.643507
H196	H	0.720278	-0.556937	-0.307633
H197	H	0.760774	-0.503094	-0.396006
H198	H	0.672922	-0.371995	0.373768
O199	O	0.676203	-0.094056	0.261847
C200	C	0.627666	-0.020227	0.415868
C201	C	0.627323	-0.052915	0.269810
H202	H	0.588157	0.013050	0.422340
H203	H	0.627246	-0.051622	0.510853
H204	H	0.667878	0.002116	0.422498
H205	H	0.587117	-0.075260	0.263037
H206	H	0.627773	-0.021494	0.174894
H207	H	0.669667	-0.645198	-0.240918
H208	H	0.668373	-0.752983	0.240925
H209	H	0.674955	-0.206530	0.241016
