data_functionalizedCrystal
_audit_creation_method	'MofGen! by Chris Wilmer'
_symmetry_space_group_name_H-M	'P1'
_symmetry_Int_Tables_number	1
_symmetry_cell_setting	triclinic
loop_
_symmetry_equiv_pos_as_xyz
  x,y,z
_cell_length_a	18.101398
_cell_length_b	13.897448
_cell_length_c	18.101389
_cell_angle_alpha	89.983259
_cell_angle_beta	90.009745
_cell_angle_gamma	89.986751
loop_
_atom_site_label
_atom_site_type_symbol
_atom_site_fract_x
_atom_site_fract_y
_atom_site_fract_z
Zn1	Zn	1.132190	0.384230	0.418559
Zn2	Zn	1.132115	0.545513	0.294721
Zn3	Zn	1.008349	0.384221	0.294752
Zn4	Zn	1.008329	0.545473	0.418541
O5	O	1.070246	0.464859	0.356643
O6	O	1.235813	0.405646	0.402127
O7	O	1.115674	0.524131	0.191092
O8	O	1.024817	0.249241	0.311195
O9	O	1.235758	0.524139	0.311143
O10	O	1.115802	0.249248	0.402156
O11	O	1.024744	0.405630	0.191115
O12	O	0.904713	0.405591	0.311178
O13	O	1.024782	0.524070	0.522177
O14	O	0.904698	0.524062	0.402126
O15	O	1.115782	0.405607	0.522190
O16	O	1.115654	0.680489	0.311126
O17	O	1.024709	0.680460	0.402096
C18	C	1.070192	0.715474	0.356622
C19	C	1.070236	0.822688	0.356638
C20	C	1.070288	0.464835	0.549805
C21	C	1.070307	0.464825	0.632120
C22	C	0.877835	0.464821	0.356654
C23	C	0.795521	0.464828	0.356676
C24	C	0.496430	0.464885	0.356645
C25	C	0.527771	0.539784	0.413584
C26	C	0.613389	0.539550	0.413818
C27	C	0.644813	0.464858	0.356660
C28	C	0.613740	0.363265	0.377986
C29	C	0.528095	0.363715	0.378391
C30	C	0.527982	0.490684	0.278243
C31	C	0.613632	0.492913	0.278662
C32	C	0.728672	0.464836	0.356668
C33	C	0.412570	0.464900	0.356639
C34	C	1.263407	0.464898	0.356634
C35	C	1.345722	0.464915	0.356629
C36	C	1.070320	0.213266	0.356681
C37	C	1.070352	0.106052	0.356697
C38	C	1.070314	1.018983	0.356684
C39	C	1.070269	0.909750	0.356660
C40	C	1.070246	0.464814	0.164233
C41	C	1.070371	0.464553	0.081919
C42	C	1.070350	0.464644	0.931211
C43	C	1.012898	0.538941	0.899877
C44	C	1.013053	0.539286	0.814259
C45	C	1.070328	0.464734	0.782828
C46	C	1.148358	0.492334	0.813915
C47	C	1.148038	0.492821	0.899560
C48	C	1.050450	0.362581	0.899638
C49	C	1.048714	0.363171	0.813987
C50	C	1.070320	0.464783	0.698969
C51	C	1.070363	0.464597	1.015070
H52	H	0.507169	0.615367	0.400368
H53	H	1.026192	0.614938	0.793775
H54	H	0.635201	0.340986	0.434678
H55	H	1.025906	0.614131	0.921401
N56	N	0.502092	0.291330	0.328637
N57	N	0.547200	0.240637	0.293730
H58	H	0.528839	0.189511	0.258596
N59	N	1.102929	0.293119	0.925057
N60	N	1.096933	0.207000	0.906085
H61	H	1.133998	0.157947	0.924040
H62	H	0.508130	0.341831	0.435706
N63	N	0.976675	0.337069	0.788498
N64	N	0.941343	0.393005	0.747534
H65	H	0.890465	0.374575	0.729529
H66	H	0.506257	0.522933	0.471339
N67	N	1.097357	0.290019	0.787144
N68	N	1.088238	0.204462	0.806403
H69	H	1.122591	0.152796	0.787438
N70	N	0.639738	0.634063	0.397053
N71	N	0.594873	0.700661	0.385099
H72	H	0.613478	0.767417	0.373262
N73	N	0.500895	0.582025	0.253915
N74	N	0.520126	0.614654	0.192503
H75	H	0.500997	0.679168	0.175328
N76	N	0.639100	0.518139	0.486695
N77	N	0.593791	0.503315	0.537542
H78	H	0.611948	0.488192	0.589015
H79	H	0.634094	0.305948	0.337807
N80	N	0.639108	0.586706	0.258499
N81	N	0.680078	0.632771	0.301373
H82	H	0.698074	0.699013	0.287135
H83	H	0.994538	0.337437	0.921237
H84	H	1.164906	0.567430	0.919540
N85	N	1.203515	0.426593	0.788388
N86	N	1.240170	0.378433	0.833773
H87	H	1.279126	0.332003	0.815745
N88	N	1.203551	0.427880	0.925573
N89	N	1.200511	0.340745	0.908749
H90	H	1.239717	0.294882	0.927120
H91	H	0.507714	0.436128	0.235818
N92	N	0.640474	0.429444	0.222586
N93	N	0.683208	0.362195	0.239271
H94	H	0.702167	0.317363	0.199670
H95	H	0.955191	0.522013	0.793241
H96	H	0.954861	0.521846	0.920478
N97	N	1.169880	0.584933	0.787006
N98	N	1.127886	0.630760	0.744944
H99	H	1.143082	0.696160	0.725939
