data_functionalizedCrystal
_audit_creation_method	'MofGen! by Chris Wilmer'
_symmetry_space_group_name_H-M	'P1'
_symmetry_Int_Tables_number	1
_symmetry_cell_setting	triclinic
loop_
_symmetry_equiv_pos_as_xyz
  x,y,z
_cell_length_a	10.654550
_cell_length_b	17.666332
_cell_length_c	10.654550
_cell_angle_alpha	90.006275
_cell_angle_beta	84.484931
_cell_angle_gamma	90.006092
loop_
_atom_site_label
_atom_site_type_symbol
_atom_site_fract_x
_atom_site_fract_y
_atom_site_fract_z
O1	O	1.667850	0.062892	0.176401
O2	O	2.167850	0.562892	0.676401
O3	O	1.302371	0.062905	0.193207
O4	O	1.802371	0.562905	0.693207
O5	O	1.493514	0.062893	0.002065
O6	O	1.993514	0.562893	0.502065
O7	O	1.476708	0.062904	0.367544
O8	O	1.976708	0.562904	0.867544
O9	O	1.493480	-0.063003	0.002054
O10	O	1.993480	0.436997	0.502054
O11	O	1.302337	-0.062991	0.193197
O12	O	1.802337	0.437009	0.693197
O13	O	1.667816	-0.063005	0.176391
O14	O	2.167816	0.436995	0.676391
Cu15	Cu	1.485074	-0.074494	0.184793
Cu16	Cu	1.985074	0.425506	0.684793
Cu17	Cu	1.485114	0.074394	0.184805
Cu18	Cu	1.985114	0.574394	0.684805
O19	O	1.476674	-0.062993	0.367533
O20	O	1.976674	0.437007	0.867533
C21	C	1.255556	-0.000041	0.191968
C22	C	1.755556	0.499959	0.691968
C23	C	1.116113	-0.000036	0.188276
C24	C	1.616113	0.499964	0.688276
N25	N	1.485055	-0.179213	0.184783
N26	N	1.985055	0.320787	0.684783
C27	C	1.036628	-0.000035	0.300818
C28	C	1.536628	0.499965	0.800818
C29	C	0.905607	-0.000048	0.297341
C30	C	1.405607	0.499952	0.797341
C31	C	0.933570	-0.000060	0.068772
C32	C	1.433570	0.499940	0.568772
C33	C	1.064588	-0.000052	0.072250
C34	C	1.564588	0.499948	0.572250
C35	C	1.569720	-0.218828	0.100188
C36	C	2.069720	0.281172	0.600188
C37	C	1.569728	-0.298076	0.100181
C38	C	2.069728	0.201924	0.600181
C39	C	1.485081	-0.337705	0.184793
C40	C	1.985081	0.162295	0.684793
C41	C	1.400399	-0.298081	0.269395
C42	C	1.900399	0.201919	0.769395
C43	C	1.400386	-0.218834	0.269390
C44	C	1.900386	0.281166	0.769390
N45	N	1.470062	-0.462120	0.295783
N46	N	1.970062	0.037880	0.795783
N47	N	1.470082	-0.537401	0.295784
N48	N	1.970082	-0.037401	0.795784
C49	C	1.485114	-0.576469	0.184811
C50	C	1.985114	-0.076469	0.684811
N51	N	1.500150	-0.537413	0.073834
N52	N	2.000150	-0.037413	0.573834
N53	N	1.500136	-0.462126	0.073834
N54	N	2.000136	0.037874	0.573834
C55	C	1.485086	-0.423634	0.184807
C56	C	1.985086	0.076366	0.684807
C57	C	1.569793	-0.702014	0.100202
C58	C	2.069793	-0.202014	0.600202
C59	C	1.569791	-0.781263	0.100194
C60	C	2.069791	-0.281263	0.600194
C61	C	1.400469	-0.781266	0.269419
C62	C	1.900469	-0.281266	0.769419
C63	C	1.400465	-0.702018	0.269415
C64	C	1.900465	-0.202018	0.769415
C65	C	1.485133	-0.662397	0.184808
C66	C	1.985133	-0.162397	0.684808
C67	C	1.714631	-0.000057	0.177630
C68	C	2.214631	0.499943	0.677630
C69	C	1.854074	-0.000057	0.181322
C70	C	2.354074	0.499943	0.681322
C71	C	1.492263	-0.000054	-0.044738
C72	C	1.992263	0.499946	0.455262
C73	C	1.488571	-0.000053	-0.184181
C74	C	1.988571	0.499947	0.315819
N75	N	1.485143	0.179113	0.184805
N76	N	1.985143	0.679113	0.684805
C77	C	1.601112	-0.000057	-0.263667
C78	C	2.101112	0.499943	0.236333
C79	C	1.597636	-0.000048	-0.394688
C80	C	2.097636	0.499952	0.105312
C81	C	1.369066	-0.000034	-0.366725
C82	C	1.869066	0.499966	0.133275
C83	C	1.372544	-0.000038	-0.235706
C84	C	1.872544	0.499962	0.264294
C85	C	1.477925	-0.000044	0.414336
C86	C	1.977925	0.499956	0.914336
C87	C	1.481616	-0.000040	0.553779
C88	C	1.981616	0.499960	1.053779
H89	H	1.078574	-0.000027	0.395294
H90	H	1.578574	0.499973	0.895294
H91	H	0.891602	-0.000078	-0.025693
H92	H	1.391602	0.499922	0.474307
H93	H	1.331439	-0.186579	0.338279
H94	H	1.831439	0.313421	0.838279
O95	O	1.150329	-0.000060	-0.049143
O96	O	1.650329	0.499940	0.450857
H97	H	1.210704	0.051251	-0.053023
H98	H	1.710704	0.551251	0.446977
O99	O	1.251149	-0.000033	-0.149970
O100	O	1.751149	0.499967	0.350030
H101	H	1.273063	-0.000029	-0.050209
H102	H	1.773063	0.499971	0.449791
O103	O	1.726255	-0.000061	-0.208100
O104	O	2.226255	0.499939	0.291900
H105	H	1.733307	-0.051379	-0.149098
H106	H	2.233307	0.448621	0.350902
H107	H	1.638659	-0.186571	0.031293
H108	H	2.138659	0.313429	0.531293
O109	O	0.819871	-0.000045	0.418724
O110	O	1.319871	0.499955	0.918724
H111	H	0.877716	-0.000027	0.499983
H112	H	1.377716	0.499973	0.999983
H113	H	1.331477	-0.330351	0.338285
H114	H	1.831477	0.169649	0.838285
O115	O	1.661061	-0.340819	0.008949
O116	O	2.161061	0.159181	0.508949
H117	H	1.719940	-0.299954	-0.049875
H118	H	2.219940	0.200046	0.450125
O119	O	1.661114	-0.823990	0.008939
O120	O	2.161114	-0.323990	0.508939
H121	H	1.646890	-0.885752	0.023141
H122	H	2.146890	-0.385752	0.523141
O123	O	1.719025	-0.000055	-0.480414
O124	O	2.219025	0.499945	0.019586
H125	H	1.697120	-0.000042	-0.580177
H126	H	2.197120	0.499958	-0.080177
O127	O	1.309156	-0.659280	0.360664
O128	O	1.809156	-0.159280	0.860664
H129	H	1.326013	-0.674471	0.458723
H130	H	1.826013	-0.174471	0.958723
H131	H	1.638731	-0.669752	0.031306
H132	H	2.138731	-0.169752	0.531306
H133	H	1.331544	-0.813532	0.338306
H134	H	1.831544	-0.313532	0.838306
O135	O	1.243927	-0.000022	-0.422298
O136	O	1.743927	0.499978	0.077702
H137	H	1.189778	-0.051331	-0.390444
H138	H	1.689778	0.448669	0.109556
