data_functionalizedCrystal
_audit_creation_method	'MofGen! by Chris Wilmer'
_symmetry_space_group_name_H-M	'P1'
_symmetry_Int_Tables_number	1
_symmetry_cell_setting	triclinic
loop_
_symmetry_equiv_pos_as_xyz
  x,y,z
_cell_length_a	14.560438
_cell_length_b	20.875641
_cell_length_c	20.875685
_cell_angle_alpha	92.963887
_cell_angle_beta	61.743230
_cell_angle_gamma	57.589171
loop_
_atom_site_label
_atom_site_type_symbol
_atom_site_fract_x
_atom_site_fract_y
_atom_site_fract_z
Zr1	Zr	0.938214	0.638206	-0.060757
O2	O	1.141591	0.526147	-0.167287
O3	O	0.743003	0.672558	-0.028102
O4	O	0.935364	0.665338	-0.162184
O5	O	0.948630	0.539061	0.072564
O6	O	0.923827	0.775136	-0.158157
O7	O	0.949230	0.533366	-0.033205
O8	O	0.579727	0.788050	0.081691
O9	O	1.292729	0.526147	-0.167285
O10	O	0.811661	0.769149	-0.011168
O11	O	0.819823	0.691459	0.064761
O12	O	1.046304	0.682959	-0.093104
O13	O	1.054466	0.605269	-0.017175
Zr14	Zr	0.918856	0.822403	0.114354
Zr15	Zr	0.919813	0.813320	-0.054335
Zr16	Zr	0.937256	0.647289	0.107931
Zr17	Zr	1.179261	0.638206	-0.060754
Zr18	Zr	0.677808	0.822402	0.114350
O19	O	1.114066	0.788051	0.081698
O20	O	1.115427	0.775136	-0.158155
O21	O	1.140230	0.539062	0.072566
O22	O	0.715478	0.934462	0.220883
O23	O	0.716839	0.921547	-0.018970
O24	O	0.741642	0.685473	0.211751
O25	O	0.908440	0.921548	-0.018968
O26	O	0.921705	0.795270	0.215781
O27	O	0.933242	0.685473	0.211754
O28	O	0.907839	0.927243	0.086801
O29	O	1.278103	0.665339	-0.162180
O30	O	0.578966	0.795270	0.215776
O31	O	0.564340	0.934462	0.220881
O32	O	0.565101	0.927242	0.086796
O33	O	1.291968	0.533367	-0.033200
O34	O	1.277342	0.672559	-0.028095
O35	O	0.810765	0.777650	0.146700
O36	O	0.802603	0.855340	0.070771
O37	O	1.037246	0.769150	-0.011165
O38	O	1.045408	0.691460	0.064764
C39	C	0.627021	0.730304	0.026794
C40	C	0.524690	0.730304	0.026793
C41	C	0.472353	0.770855	-0.012841
C42	C	0.376194	0.770859	-0.012834
C43	C	0.384720	0.689752	0.066443
C44	C	0.480871	0.689754	0.066439
C45	C	0.951551	0.511264	0.018765
C46	C	0.959363	0.436923	0.016038
C47	C	0.840555	0.446986	0.057523
C48	C	0.847903	0.377132	0.054959
C49	C	0.974060	0.297216	0.010906
C50	C	1.092877	0.287155	-0.030580
C51	C	1.085528	0.357008	-0.028012
C52	C	1.009174	0.083478	-0.001359
C53	C	1.016514	0.013623	-0.003926
C54	C	0.771539	0.103605	0.081615
C55	C	0.764201	0.173455	0.084176
C56	C	0.883018	0.163388	0.042693
N57	N	0.981574	0.225813	0.008282
N58	N	0.875502	0.234791	0.045322
C59	C	1.230048	0.730305	0.026802
C60	C	1.332379	0.730305	0.026803
C61	C	0.929732	0.718943	-0.184205
C62	C	0.930138	0.715087	-0.255818
C63	C	0.905518	0.949345	0.034832
C64	C	0.897706	1.023686	0.037558
C65	C	0.933093	0.686850	-0.659154
C66	C	0.932706	0.690484	-0.591865
C67	C	0.926167	0.752786	-0.556011
C68	C	0.920000	0.811464	-0.587446
C69	C	0.920377	0.807834	-0.654731
C70	C	0.924349	0.770134	-0.354538
C71	C	0.923976	0.773759	-0.287250
C72	C	0.936680	0.652779	-0.291672
C73	C	0.937065	0.649151	-0.358961
C74	C	0.930891	0.707831	-0.390387
N75	N	0.925776	0.756500	-0.487232
N76	N	0.931272	0.704120	-0.459162
C77	C	0.927337	0.741666	0.237802
C78	C	0.926931	0.745522	0.309414
C79	C	0.604004	0.949345	0.034828
C80	C	0.493861	1.023685	0.037553
C81	C	0.625824	0.741665	0.237798
C82	C	0.523086	0.745521	0.309409
C83	C	0.602807	0.960706	0.245831
C84	C	0.492258	1.038902	0.320169
C85	C	1.254262	0.499903	-0.192235
C86	C	1.364811	0.421706	-0.266573
C87	C	1.253065	0.511264	0.018768
C88	C	1.363208	0.436924	0.016043
C89	C	1.231246	0.718944	-0.184201
C90	C	1.333983	0.715088	-0.255813
C91	C	0.446866	1.013605	-0.003946
C92	C	0.343389	1.083448	-0.001401
C93	C	0.286903	1.163370	0.042647
C94	C	0.333909	1.173449	0.084147
C95	C	0.437390	1.103606	0.081597
C96	C	0.470111	0.792323	0.385817
C97	C	0.373593	0.795943	0.453110
C98	C	0.330043	0.752766	0.443993
C99	C	0.383028	0.705958	0.367577
C100	C	0.479552	0.702334	0.300286
C101	C	0.436081	1.116185	0.315445
C102	C	0.332222	1.189665	0.385287
C103	C	0.284534	1.185861	0.459853
C104	C	0.340720	1.108570	0.464575
C105	C	0.444585	1.035092	0.394733
C106	C	1.420999	0.344424	-0.261849
C107	C	1.524889	0.270944	-0.331691
C108	C	1.572582	0.274748	-0.406256
C109	C	1.516389	0.352039	-0.410978
C110	C	1.412508	0.425517	-0.341137
C111	C	1.410214	0.447004	0.057535
C112	C	1.513717	0.377160	0.054972
C113	C	1.570206	0.297237	0.010921
C114	C	1.523196	0.287159	-0.030576
C115	C	1.419701	0.357002	-0.028017
C116	C	1.377501	0.758275	-0.246671
C117	C	1.474019	0.754668	-0.313950
C118	C	1.527025	0.707869	-0.390371
C119	C	1.483497	0.664681	-0.399512
C120	C	1.386974	0.668293	-0.332233
H121	H	0.349032	0.656738	0.098721
O122	O	0.517064	0.838899	0.395667
H123	H	0.593076	0.828530	0.336044
H124	H	0.474893	1.119298	0.254737
O125	O	0.316453	0.846437	0.535521
H126	H	0.242028	0.841701	0.580788
H127	H	1.119252	-0.051450	-0.039804
O128	O	0.319760	0.814590	-0.055592
H129	H	0.208495	0.864114	-0.012263
O130	O	0.505163	0.951736	0.399831
H131	H	0.490424	0.916326	0.369906
O132	O	0.943289	0.589508	-0.257761
H133	H	0.941904	0.602505	-0.204942
O134	O	1.368997	0.346127	-0.072766
H135	H	1.328628	0.313491	-0.050189
H136	H	0.523483	0.656732	0.098718
O137	O	0.292691	1.072569	-0.046156
H138	H	0.349342	1.005260	-0.077199
H139	H	0.737823	0.512054	0.093399
H140	H	0.751156	0.385333	0.088742
H141	H	1.195597	0.222082	-0.066445
H142	H	0.915357	0.855611	-0.680321
O143	O	1.349320	0.533197	0.105045
H144	H	1.239441	0.569524	0.151839
O145	O	1.681800	0.221918	0.008195
H146	H	1.769544	0.220583	-0.017568
O147	O	1.564394	0.388039	0.099742
H148	H	1.507699	0.455350	0.130815
O149	O	1.585459	0.187592	-0.326578
H150	H	1.695240	0.152173	-0.356479
O151	O	1.584128	0.200955	-0.078087
H152	H	1.663980	0.154090	-0.072883
O153	O	0.507791	0.927408	-0.051471
H154	H	0.492655	0.895771	-0.011124
O155	O	0.488057	1.114488	0.126370
H156	H	0.472463	1.087167	0.170821
H157	H	0.251446	0.755724	0.498792
O158	O	1.540673	0.614228	-0.481948
H159	H	1.457408	0.638588	-0.487894
H160	H	1.351553	0.633121	-0.339688
H161	H	0.301877	1.105485	0.525295
H162	H	1.657169	0.214911	-0.463119
H163	H	0.347556	0.670805	0.360166
O164	O	0.628132	0.259651	0.131687
H165	H	0.546748	0.254913	0.160107
H166	H	0.522672	0.664225	0.238074
H167	H	0.202642	1.220234	0.044717
O168	O	1.320324	0.808764	-0.164248
H169	H	1.366798	0.838194	-0.169207
H170	H	0.287903	1.238531	0.120010
H171	H	0.508026	0.803875	-0.045123
H172	H	0.674805	0.111792	0.115388
H173	H	1.105923	0.075269	-0.035151
O174	O	1.213669	0.346161	-0.072760
H175	H	1.302630	0.278855	-0.103833
O176	O	0.940178	0.619640	-0.697835
H177	H	0.944397	0.579453	-0.664671
O178	O	1.520960	0.801249	-0.304083
H179	H	1.467897	0.834384	-0.239639
O180	O	1.631150	0.703965	-0.462935
H181	H	1.652511	0.741852	-0.443731
H182	H	0.937723	0.642709	-0.566273
O183	O	0.944226	0.581913	-0.397670
H184	H	0.948477	0.541712	-0.364519
O185	O	0.916909	0.840965	-0.248570
H186	H	0.912664	0.881165	-0.281721
H187	H	0.286484	1.252592	0.381429
H188	H	0.919325	0.817913	-0.380121
O189	O	1.369577	0.340310	-0.181430
H190	H	1.426127	0.274220	-0.189892
H191	H	0.914667	0.862196	-0.558247
O192	O	0.172493	1.265115	0.535180
H193	H	0.141438	1.319491	0.519360
O194	O	1.567825	0.356138	-0.491404
H195	H	1.649486	0.292056	-0.539168
H196	H	1.366760	0.488442	-0.344993
