data_functionalizedCrystal
_audit_creation_method	'MofGen! by Chris Wilmer'
_symmetry_space_group_name_H-M	'P1'
_symmetry_Int_Tables_number	1
_symmetry_cell_setting	triclinic
loop_
_symmetry_equiv_pos_as_xyz
  x,y,z
_cell_length_a	15.995300
_cell_length_b	14.853567
_cell_length_c	13.930277
_cell_angle_alpha	90.004245
_cell_angle_beta	89.999991
_cell_angle_gamma	96.446631
loop_
_atom_site_label
_atom_site_type_symbol
_atom_site_fract_x
_atom_site_fract_y
_atom_site_fract_z
O1	O	0.109319	-1.196200	-0.079755
O2	O	0.609319	-0.696200	0.420245
O3	O	0.122342	-0.933720	-0.079770
O4	O	0.622342	-0.433720	0.420230
O5	O	-0.006051	-1.072159	-0.079767
O6	O	0.493949	-0.572159	0.420233
O7	O	0.237713	-1.057761	-0.079758
O8	O	0.737713	-0.557761	0.420242
O9	O	-0.006054	-1.072139	0.079895
O10	O	0.493946	-0.572139	0.579895
O11	O	0.122339	-0.933701	0.079892
O12	O	0.622339	-0.433701	0.579892
O13	O	0.109317	-1.196181	0.079907
O14	O	0.609317	-0.696181	0.579907
Zn15	Zn	0.115828	-1.064938	0.105249
Zn16	Zn	0.615828	-0.564938	0.605249
Zn17	Zn	0.115831	-1.064963	-0.105112
Zn18	Zn	0.615831	-0.564963	0.394888
O19	O	0.237710	-1.057742	0.079904
O20	O	0.737710	-0.557742	0.579904
C21	C	0.121751	-0.900123	0.000059
C22	C	0.621751	-0.400123	0.500059
C23	C	0.119982	-0.800042	0.000053
C24	C	0.619982	-0.300042	0.500053
C25	C	-0.037249	-1.071562	0.000061
C26	C	0.462751	-0.571562	0.500061
C27	C	-0.130204	-1.069801	0.000051
C28	C	0.369796	-0.569801	0.500051
C29	C	0.109908	-1.229778	0.000076
C30	C	0.609908	-0.729778	0.500076
C31	C	0.111676	-1.329859	0.000076
C32	C	0.611676	-0.829859	0.500076
C33	C	-0.300390	-1.066550	0.000060
C34	C	0.199610	-0.566550	0.500060
C35	C	-0.347742	-1.165121	0.000064
C36	C	0.152258	-0.665121	0.500064
C37	C	-0.444432	-1.163323	0.000430
C38	C	0.055568	-0.663323	0.500430
C39	C	-0.467951	-1.063350	0.000068
C40	C	0.032049	-0.563350	0.500068
C41	C	-0.426875	-1.014435	0.091060
C42	C	0.073125	-0.514435	0.591060
C43	C	-0.330239	-1.016929	0.091133
C44	C	0.169761	-0.516929	0.591133
C45	C	-0.329961	-1.015492	-0.090439
C46	C	0.170039	-0.515492	0.409561
C47	C	-0.426906	-1.015501	-0.091631
C48	C	0.073094	-0.515501	0.408369
C49	C	-0.562648	-1.061537	0.000076
C50	C	-0.062648	-0.561537	0.500076
C51	C	-0.205693	-1.068361	0.000059
C52	C	0.294307	-0.568361	0.500059
C53	C	0.268908	-1.058339	0.000074
C54	C	0.768908	-0.558339	0.500074
C55	C	0.361862	-1.060099	0.000078
C56	C	0.861862	-0.560099	0.500078
N57	N	0.115825	-1.064927	0.248815
N58	N	0.615825	-0.564927	0.748815
C59	C	0.036239	-0.387637	0.000071
C60	C	0.536239	0.112363	0.500071
C61	C	0.188774	-0.366121	0.000075
C62	C	0.688774	0.133879	0.500075
C63	C	0.190436	-0.460152	0.000072
C64	C	0.690436	0.039848	0.500072
C65	C	0.114999	-0.517930	0.000067
C66	C	0.614999	-0.017930	0.500067
C67	C	0.037900	-0.481677	0.000065
C68	C	0.537900	0.018323	0.500065
C69	C	0.267534	-0.496412	0.000065
C70	C	0.767534	0.003588	0.500065
C71	C	0.269200	-0.590449	0.000061
C72	C	0.769200	-0.090449	0.500061
C73	C	0.193762	-0.648229	0.000063
C74	C	0.693762	-0.148229	0.500063
C75	C	0.116659	-0.611970	0.000061
C76	C	0.616659	-0.111970	0.500061
C77	C	0.041222	-0.669749	0.000056
C78	C	0.541222	-0.169749	0.500056
C79	C	-0.035881	-0.633492	0.000062
C80	C	0.464119	-0.133492	0.500062
C81	C	-0.037538	-0.539457	0.000067
C82	C	0.462462	-0.039457	0.500067
C83	C	0.195419	-0.742264	0.000058
C84	C	0.695419	-0.242264	0.500058
C85	C	0.042883	-0.763789	0.000050
C86	C	0.542883	-0.263789	0.500050
N87	N	0.115828	-1.064981	-0.248678
N88	N	0.615828	-0.564981	0.251322
C89	C	0.172661	-1.003660	0.701083
C90	C	0.672661	-0.503660	1.201083
C91	C	0.058994	-1.126291	0.701055
C92	C	0.558994	-0.626291	1.201055
C93	C	0.058992	-1.126280	0.600560
C94	C	0.558992	-0.626280	1.100560
C95	C	0.115826	-1.064959	0.550321
C96	C	0.615826	-0.564959	1.050321
C97	C	0.172662	-1.003649	0.600578
C98	C	0.672662	-0.503649	1.100578
C99	C	0.002162	-1.187595	0.550295
C100	C	0.502162	-0.687595	1.050295
C101	C	0.002158	-1.187587	0.449793
C102	C	0.502158	-0.687587	0.949793
C103	C	0.058988	-1.126262	0.399553
C104	C	0.558988	-0.626262	0.899553
C105	C	0.115826	-1.064949	0.449816
C106	C	0.615826	-0.564949	0.949816
C107	C	0.172660	-1.003628	0.399577
C108	C	0.672660	-0.503628	0.899577
C109	C	0.229495	-0.942310	0.449839
C110	C	0.729495	-0.442310	0.949839
C111	C	0.229493	-0.942323	0.550338
C112	C	0.729493	-0.442323	1.050338
C113	C	0.058991	-1.126248	0.299054
C114	C	0.558991	-0.626248	0.799054
C115	C	0.172661	-1.003617	0.299072
C116	C	0.672661	-0.503617	0.799072
H117	H	-0.472850	-1.201759	-0.064781
H118	H	0.027150	-0.701759	0.435219
Br119	Br	-0.074973	-1.270800	0.381587
Br120	Br	0.425027	-0.770800	0.881587
H121	H	0.012726	-1.176221	0.741963
H122	H	0.512726	-0.676221	1.241963
H123	H	-0.442335	-0.942617	-0.097403
H124	H	0.057665	-0.442617	0.402597
Br125	Br	0.373838	-0.639646	0.000053
Br126	Br	0.873838	-0.139646	0.500053
H127	H	-0.298050	-0.944547	0.095012
H128	H	0.201950	-0.444547	0.595012
H129	H	0.258196	-0.771780	0.000055
H130	H	0.758196	-0.271780	0.500055
H131	H	-0.329216	-1.204737	-0.065186
H132	H	0.170784	-0.704737	0.434814
Br133	Br	0.249791	-0.920384	0.230899
Br134	Br	0.749791	-0.420384	0.730899
H135	H	-0.328029	-1.204164	0.065173
H136	H	0.171971	-0.704164	0.565173
H137	H	-0.298275	-0.942812	-0.091311
H138	H	0.201725	-0.442812	0.408689
H139	H	0.250191	-0.319073	0.000072
H140	H	0.750191	0.180927	0.500072
Br141	Br	0.249786	-0.920440	0.769288
Br142	Br	0.749786	-0.420440	1.269288
Br143	Br	-0.059502	-0.842196	0.000055
Br144	Br	0.440498	-0.342196	0.500055
Br145	Br	-0.018129	-1.209467	0.230848
Br146	Br	0.481871	-0.709467	0.730848
Br147	Br	0.306632	-0.859100	0.381647
Br148	Br	0.806632	-0.359100	0.881647
H149	H	0.275766	-0.892401	0.591267
H150	H	0.775766	-0.392401	1.091267
Br151	Br	-0.138256	-0.711916	0.000044
Br152	Br	0.361744	-0.211916	0.500044
Br153	Br	-0.474071	-1.070343	0.204361
Br154	Br	0.025929	-0.570343	0.704361
H155	H	-0.044107	-1.237525	0.591203
H156	H	0.455893	-0.737525	1.091203
H157	H	-0.472235	-1.201577	0.066042
H158	H	0.027765	-0.701577	0.566042
H159	H	-0.441060	-0.940977	0.094184
H160	H	0.058940	-0.440977	0.594184
Br161	Br	-0.299631	-1.075654	0.204939
Br162	Br	0.200369	-0.575654	0.704939
H163	H	-0.309421	-1.047951	-0.159428
H164	H	0.190579	-0.547951	0.340572
Br165	Br	-0.142169	-0.490246	0.000071
Br166	Br	0.357831	0.009754	0.500071
Br167	Br	-0.472404	-1.075033	-0.203835
Br168	Br	0.027596	-0.575033	0.296165
H169	H	-0.026537	-0.358113	0.000079
H170	H	0.473463	0.141887	0.500079
Br171	Br	0.369907	-0.417997	0.000051
Br172	Br	0.869907	0.082003	0.500051
