data_functionalizedCrystal
_audit_creation_method	'MofGen! by Chris Wilmer'
_symmetry_space_group_name_H-M	'P1'
_symmetry_Int_Tables_number	1
_symmetry_cell_setting	triclinic
loop_
_symmetry_equiv_pos_as_xyz
  x,y,z
_cell_length_a	12.759399
_cell_length_b	12.759401
_cell_length_c	12.759393
_cell_angle_alpha	90.022497
_cell_angle_beta	89.969094
_cell_angle_gamma	89.984062
loop_
_atom_site_label
_atom_site_type_symbol
_atom_site_fract_x
_atom_site_fract_y
_atom_site_fract_z
Zn1	Zn	-0.418192	-1.606263	-0.594061
Zn2	Zn	-0.084859	-1.272930	-0.260727
Zn3	Zn	0.248474	-0.939597	0.072606
Zn4	Zn	-0.593908	-1.606153	-0.418380
Zn5	Zn	-0.260575	-1.272820	-0.085046
Zn6	Zn	0.072759	-0.939486	0.248287
Zn7	Zn	-0.418246	-1.430562	-0.418391
Zn8	Zn	-0.084913	-1.097229	-0.085058
Zn9	Zn	0.248421	-0.763895	0.248275
Zn10	Zn	-0.593832	-1.430553	-0.594012
Zn11	Zn	-0.260499	-1.097219	-0.260679
Zn12	Zn	0.072834	-0.763886	0.072655
O13	O	-0.506045	-1.518383	-0.506211
O14	O	-0.172711	-1.185049	-0.172878
O15	O	0.160622	-0.851716	0.160456
O16	O	-0.441511	-1.753270	-0.570772
O17	O	-0.108177	-1.419936	-0.237439
O18	O	0.225156	-1.086603	0.095895
O19	O	-0.570660	-1.582818	-0.271360
O20	O	-0.237327	-1.249485	0.061973
O21	O	0.096007	-0.916152	0.395307
O22	O	-0.271218	-1.453919	-0.441719
O23	O	0.062115	-1.120586	-0.108386
O24	O	0.395449	-0.787253	0.224947
O25	O	-0.570608	-1.753189	-0.441700
O26	O	-0.237275	-1.419855	-0.108366
O27	O	0.096059	-1.086522	0.224967
O28	O	-0.271178	-1.583006	-0.570783
O29	O	0.062155	-1.249673	-0.237450
O30	O	0.395488	-0.916340	0.095884
O31	O	-0.441602	-1.453812	-0.271369
O32	O	-0.108269	-1.120479	0.061965
O33	O	0.225064	-0.787146	0.395298
O34	O	-0.441529	-1.283540	-0.441672
O35	O	-0.108196	-0.950206	-0.108339
O36	O	0.225138	-0.616873	0.224995
O37	O	-0.570479	-1.453903	-0.741040
O38	O	-0.237146	-1.120570	-0.407706
O39	O	0.096187	-0.787237	-0.074373
O40	O	-0.570531	-1.283533	-0.570700
O41	O	-0.237198	-0.950200	-0.237367
O42	O	0.096135	-0.616866	0.095967
O43	O	-0.441437	-1.582997	-0.741075
O44	O	-0.108104	-1.249664	-0.407742
O45	O	0.225229	-0.916330	-0.074409
O46	O	-0.740919	-1.582809	-0.441652
O47	O	-0.407586	-1.249476	-0.108319
O48	O	-0.074252	-0.916143	0.225014
O49	O	-0.740863	-1.453796	-0.570689
O50	O	-0.407530	-1.120463	-0.237356
O51	O	-0.074197	-0.787130	0.095978
C52	C	-0.506029	-1.245415	-0.506183
C53	C	-0.172695	-0.912082	-0.172849
C54	C	0.160638	-0.578749	0.160484
C55	C	-0.506047	-1.128639	-0.506195
C56	C	-0.172714	-0.795305	-0.172862
C57	C	0.160620	-0.461972	0.160471
C58	C	-0.573320	-1.073801	-0.573273
C59	C	-0.239987	-0.740467	-0.239940
C60	C	0.093347	-0.407134	0.093394
C61	C	-0.573323	-0.964077	-0.573291
C62	C	-0.239989	-0.630743	-0.239958
C63	C	0.093344	-0.297410	0.093376
C64	C	-0.438776	-0.964038	-0.439145
C65	C	-0.105443	-0.630705	-0.105811
C66	C	0.227890	-0.297372	0.227522
C67	C	-0.438769	-1.073760	-0.439133
C68	C	-0.105436	-0.740427	-0.105799
C69	C	0.227898	-0.407094	0.227534
C70	C	-0.779012	-1.518318	-0.506187
C71	C	-0.445679	-1.184985	-0.172854
C72	C	-0.112345	-0.851652	0.160480
C73	C	-0.895789	-1.518387	-0.506212
C74	C	-0.562455	-1.185054	-0.172879
C75	C	-0.229122	-0.851720	0.160455
C76	C	-0.950645	-1.585641	-0.439099
C77	C	-0.617311	-1.252307	-0.105766
C78	C	-0.283978	-0.918974	0.227568
C79	C	-1.060369	-1.585708	-0.439134
C80	C	-0.727035	-1.252375	-0.105801
C81	C	-0.393702	-0.919041	0.227532
C82	C	-1.060371	-1.451259	-0.573398
C83	C	-0.727038	-1.117926	-0.240065
C84	C	-0.393704	-0.784593	0.093268
C85	C	-0.950649	-1.451198	-0.573368
C86	C	-0.617316	-1.117864	-0.240034
C87	C	-0.283982	-0.784531	0.093299
C88	C	-0.232011	-1.518476	-0.506258
C89	C	0.101322	-1.185143	-0.172925
C90	C	0.434655	-0.851809	0.160409
C91	C	-0.115235	-1.518516	-0.506278
C92	C	0.218099	-1.185182	-0.172945
C93	C	0.551432	-0.851849	0.160389
C94	C	-0.505944	-1.518461	-0.780244
C95	C	-0.172611	-1.185128	-0.446911
C96	C	0.160723	-0.851795	-0.113578
C97	C	-0.505901	-1.518495	-0.897021
C98	C	-0.172568	-1.185162	-0.563688
C99	C	0.160766	-0.851828	-0.230354
C100	C	-0.506059	-0.792416	-0.506233
C101	C	-0.172725	-0.459083	-0.172900
C102	C	0.160608	-0.125749	0.160434
C103	C	-0.506057	-0.909193	-0.506225
C104	C	-0.172723	-0.575859	-0.172892
C105	C	0.160610	-0.242526	0.160442
C106	C	-0.438698	-1.585719	-0.951903
C107	C	-0.105365	-1.252386	-0.618570
C108	C	0.227969	-0.919052	-0.285237
C109	C	-0.438653	-1.585737	-1.061628
C110	C	-0.105319	-1.252404	-0.728294
C111	C	0.228014	-0.919070	-0.394961
C112	C	-0.573022	-1.451303	-1.061577
C113	C	-0.239689	-1.117970	-0.728244
C114	C	0.093644	-0.784637	-0.394911
C115	C	-0.573061	-1.451281	-0.951855
C116	C	-0.239728	-1.117948	-0.618522
C117	C	0.093605	-0.784614	-0.285189
C118	C	-0.506069	-1.518365	-0.233244
C119	C	-0.172736	-1.185032	0.100090
C120	C	0.160597	-0.851698	0.433423
C121	C	-0.505816	-1.518535	-0.116467
C122	C	-0.172483	-1.185202	0.216866
C123	C	0.160850	-0.851868	0.550199
H124	H	-0.384003	-0.919343	-0.384543
H125	H	-0.050669	-0.586010	-0.051210
H126	H	0.282664	-0.252676	0.282124
Br127	Br	-0.347550	-1.676935	-0.877489
Br128	Br	-0.014217	-1.343602	-0.544155
Br129	Br	0.319117	-1.010268	-0.210822
H130	H	-0.383928	-1.640476	-1.106308
H131	H	-0.050594	-1.307143	-0.772975
H132	H	0.282739	-0.973809	-0.439641
H133	H	-1.105052	-1.396555	-0.628072
H134	H	-0.771719	-1.063221	-0.294739
H135	H	-0.438385	-0.729888	0.038594
H136	H	-0.905980	-1.640352	-0.384418
H137	H	-0.572647	-1.307018	-0.051085
H138	H	-0.239313	-0.973685	0.282248
Br139	Br	-1.134812	-1.676991	-0.348054
Br140	Br	-0.801479	-1.343658	-0.014721
Br141	Br	-0.468146	-1.010324	0.318612
Br142	Br	-0.876195	-1.359927	-0.664465
Br143	Br	-0.542861	-1.026594	-0.331132
Br144	Br	-0.209528	-0.693261	0.002201
H145	H	-0.627704	-1.396583	-1.106237
H146	H	-0.294371	-1.063249	-0.772904
H147	H	0.038962	-0.729916	-0.439570
Br148	Br	-0.664263	-1.360032	-0.877365
Br149	Br	-0.330929	-1.026699	-0.544032
Br150	Br	0.002404	-0.693365	-0.210698
H151	H	-0.628099	-1.118479	-0.627883
H152	H	-0.294766	-0.785146	-0.294549
H153	H	0.038567	-0.451813	0.038784
Br154	Br	-0.664621	-0.889657	-0.664334
Br155	Br	-0.331288	-0.556324	-0.331001
Br156	Br	0.002045	-0.222991	0.002333
H157	H	-0.383981	-1.118411	-0.384510
H158	H	-0.050647	-0.785077	-0.051177
H159	H	0.282686	-0.451744	0.282157
