data_functionalizedCrystal
_audit_creation_method	'MofGen! by Chris Wilmer'
_symmetry_space_group_name_H-M	'P1'
_symmetry_Int_Tables_number	1
_symmetry_cell_setting	triclinic
loop_
_symmetry_equiv_pos_as_xyz
  x,y,z
_cell_length_a	12.759395
_cell_length_b	16.625546
_cell_length_c	12.759387
_cell_angle_alpha	90.035560
_cell_angle_beta	90.020509
_cell_angle_gamma	90.024005
loop_
_atom_site_label
_atom_site_type_symbol
_atom_site_fract_x
_atom_site_fract_y
_atom_site_fract_z
Zn1	Zn	1.606212	-0.320926	0.593970
Zn2	Zn	1.606079	-0.455781	0.418276
Zn3	Zn	1.430510	-0.320970	0.418307
Zn4	Zn	1.430479	-0.455724	0.593915
O5	O	1.518320	-0.388350	0.506117
O6	O	1.753215	-0.338820	0.570674
O7	O	1.582747	-0.437941	0.271259
O8	O	1.453886	-0.208132	0.441645
O9	O	1.753118	-0.437898	0.441592
O10	O	1.582974	-0.208099	0.570704
O11	O	1.453757	-0.338895	0.271282
O12	O	1.283485	-0.338840	0.441592
O13	O	1.453833	-0.437800	0.740944
O14	O	1.283462	-0.437843	0.570610
O15	O	1.582943	-0.338765	0.740984
O16	O	1.582716	-0.568606	0.441539
O17	O	1.453704	-0.568564	0.570580
C18	C	1.245352	-0.388341	0.506099
C19	C	1.128576	-0.388356	0.506116
C20	C	1.128590	-0.491615	0.640246
C21	C	1.073737	-0.543250	0.707314
C22	C	0.964015	-0.543260	0.707327
C23	C	0.909144	-0.491627	0.640267
C24	C	0.963998	-0.439991	0.573199
C25	C	1.073722	-0.439989	0.573191
C26	C	0.963984	-0.336730	0.439076
C27	C	1.073705	-0.336723	0.439056
C28	C	0.909113	-0.285096	0.372016
C29	C	0.963967	-0.233463	0.304942
C30	C	1.073695	-0.233456	0.304931
C31	C	1.128559	-0.285087	0.371989
C32	C	1.518220	-0.597841	0.506073
C33	C	1.518274	-0.687462	0.506090
C34	C	1.518457	-1.015638	0.506199
C35	C	1.518403	-0.924329	0.506171
C36	C	1.518365	-0.851553	0.506144
C37	C	1.518312	-0.760239	0.506117
C38	C	1.792353	-0.388361	0.506136
C39	C	1.909130	-0.388365	0.506144
C40	C	1.518399	-0.388271	0.780151
C41	C	1.518433	-0.388238	0.896928
C42	C	1.518448	-0.178041	0.506184
C43	C	1.518503	-0.088420	0.506213
C44	C	1.518301	-0.388371	0.233150
C45	C	1.518471	-0.388177	0.116374
C46	C	1.652885	-0.285119	0.896990
C47	C	1.720126	-0.233547	0.951881
C48	C	1.720151	-0.233518	1.061603
C49	C	1.652927	-0.285064	1.116435
C50	C	1.585686	-0.336635	1.061544
C51	C	1.585670	-0.336661	0.951819
C52	C	1.451230	-0.439749	1.061482
C53	C	1.451209	-0.439784	0.951760
C54	C	1.384006	-0.491295	1.116314
C55	C	1.316769	-0.542872	1.061422
C56	C	1.316747	-0.542900	0.951694
C57	C	1.383968	-0.491355	0.896868
H58	H	1.118424	-0.585288	0.761914
H59	H	1.261980	-0.584887	0.907008
O60	O	1.251526	-0.593050	1.114569
C61	C	1.274443	-0.673424	1.087763
H62	H	1.314815	-0.675126	1.008104
H63	H	1.328450	-0.700565	1.149519
C64	C	1.122399	-0.720167	1.180502
C65	C	1.171977	-0.722258	1.082659
H66	H	1.059195	-0.750292	1.177358
H67	H	1.106961	-0.666018	1.198565
H68	H	1.167416	-0.742783	1.231955
H69	H	1.126966	-0.699632	1.031210
H70	H	1.187406	-0.776404	1.064587
O71	O	1.785397	-0.183558	0.898454
C72	C	1.770946	-0.194627	0.789840
H73	H	1.736481	-0.256850	0.774826
H74	H	1.715034	-0.146799	0.758708
C75	C	1.919577	-0.110851	0.751972
C76	C	1.877254	-0.187277	0.733531
H77	H	1.985151	-0.106314	0.717236
H78	H	1.929311	-0.103391	0.825147
H79	H	1.872974	-0.071003	0.726028
H80	H	1.923851	-0.227124	0.759486
H81	H	1.867530	-0.194744	0.660358
O82	O	0.910621	-0.183428	0.239694
C83	C	0.847074	-0.229271	0.171756
H84	H	0.880106	-0.292768	0.165106
H85	H	0.763935	-0.232083	0.204250
C86	C	0.804776	-0.111788	0.070800
C87	C	0.845352	-0.189774	0.062626
H88	H	0.803708	-0.087423	0.003484
H89	H	0.847585	-0.080901	0.116573
H90	H	0.735496	-0.114142	0.097882
H91	H	0.914634	-0.187419	0.035556
H92	H	0.802554	-0.220660	0.016845
H93	H	1.383961	-0.491376	0.807527
H94	H	0.919353	-0.585302	0.761944
O95	O	1.785316	-0.183336	1.114977
C96	C	1.725550	-0.131253	1.178478
H97	H	1.642802	-0.126270	1.145398
H98	H	1.721926	-0.156167	1.261621
C99	C	1.878572	-0.053558	1.220844
C100	C	1.776942	-0.047432	1.180209
H101	H	1.910274	-0.001854	1.221916
H102	H	1.918839	-0.088649	1.178066
H103	H	1.875538	-0.074323	1.290126
H104	H	1.779978	-0.026678	1.110924
H105	H	1.736676	-0.012336	1.222976
O106	O	1.126814	-0.183272	0.239678
C107	C	1.054851	-0.137693	0.180518
H108	H	0.976620	-0.170720	0.176814
H109	H	1.043230	-0.076493	0.219144
C110	C	1.193701	-0.085396	0.073270
C111	C	1.097620	-0.125964	0.068713
H112	H	1.220084	-0.078158	0.004305
H113	H	1.242185	-0.116102	0.113129
H114	H	1.184005	-0.034401	0.105463
H115	H	1.107320	-0.176962	0.036533
H116	H	1.049138	-0.095267	0.028846
O117	O	1.653114	-0.285102	1.223018
C118	C	1.753805	-0.305784	1.259691
H119	H	1.797205	-0.340960	1.196460
H120	H	1.799362	-0.248697	1.279185
C121	C	1.690322	-0.314774	1.436495
C122	C	1.743624	-0.357983	1.358836
H123	H	1.684044	-0.346969	1.497655
H124	H	1.622486	-0.300837	1.411789
H125	H	1.728294	-0.267203	1.452726
H126	H	1.705646	-0.405547	1.342597
H127	H	1.811454	-0.371930	1.383542
H128	H	0.819803	-0.491632	0.640292
O129	O	1.384034	-0.491416	1.222897
C130	C	1.410989	-0.568683	1.259524
H131	H	1.392987	-0.615138	1.196271
H132	H	1.498166	-0.570400	1.279002
C133	C	1.369096	-0.530957	1.436355
C134	C	1.346978	-0.588015	1.358670
H135	H	1.329616	-0.542882	1.497515
H136	H	1.350940	-0.478900	1.411680
H137	H	1.441745	-0.532394	1.452574
H138	H	1.274333	-0.586570	1.342443
H139	H	1.365120	-0.640073	1.383344
H140	H	0.819772	-0.285105	0.372036
H141	H	1.217931	-0.491618	0.640234
H142	H	1.217900	-0.285088	0.371983
H143	H	1.652881	-0.285145	0.807648
