data_functionalizedCrystal
_audit_creation_method	'MofGen! by Chris Wilmer'
_symmetry_space_group_name_H-M	'P1'
_symmetry_Int_Tables_number	1
_symmetry_cell_setting	triclinic
loop_
_symmetry_equiv_pos_as_xyz
  x,y,z
_cell_length_a	25.639243
_cell_length_b	25.639239
_cell_length_c	25.639233
_cell_angle_alpha	89.981253
_cell_angle_beta	90.015962
_cell_angle_gamma	89.958590
loop_
_atom_site_label
_atom_site_type_symbol
_atom_site_fract_x
_atom_site_fract_y
_atom_site_fract_z
Zn1	Zn	0.799225	0.208176	0.295656
Zn2	Zn	0.799149	0.295595	0.208220
Zn3	Zn	0.711801	0.208180	0.208229
Zn4	Zn	0.711746	0.295587	0.295619
O5	O	0.755480	0.251885	0.251931
O6	O	0.872380	0.219775	0.284069
O7	O	0.787553	0.284004	0.135056
O8	O	0.723453	0.135014	0.219846
O9	O	0.872324	0.284001	0.219830
O10	O	0.787683	0.135012	0.284077
O11	O	0.723379	0.219781	0.135063
O12	O	0.638629	0.219772	0.219810
O13	O	0.723360	0.283987	0.368789
O14	O	0.638589	0.283990	0.284016
O15	O	0.787630	0.219767	0.368816
O16	O	0.787499	0.368759	0.219795
O17	O	0.723286	0.368753	0.284007
C18	C	0.619638	0.251881	0.251910
C19	C	0.561524	0.251892	0.251914
C20	C	0.201184	0.218495	0.285436
C21	C	0.146580	0.218494	0.285439
O22	O	0.118363	0.190088	0.313915
N23	N	0.119241	0.251883	0.251945
C24	C	0.146510	0.285271	0.218443
O25	O	0.118242	0.313670	0.189954
C26	C	0.201113	0.285268	0.218437
C27	C	0.228449	0.251881	0.251937
C28	C	0.228520	0.185109	0.318932
C29	C	0.283121	0.185111	0.318930
C30	C	0.310385	0.218497	0.285431
C31	C	0.283049	0.251882	0.251934
C32	C	0.228380	0.318653	0.184932
C33	C	0.282987	0.318647	0.184929
C34	C	0.310323	0.285260	0.218429
C35	C	0.364915	0.285270	0.218432
N36	N	0.392253	0.251881	0.251926
C37	C	0.364989	0.218494	0.285425
C38	C	0.031839	0.285273	0.218456
C39	C	-0.022763	0.285279	0.218464
C40	C	-0.022689	0.218501	0.285460
C41	C	0.031914	0.218499	0.285454
C42	C	0.059178	0.251884	0.251950
C43	C	0.479654	0.218500	0.285417
C44	C	0.534259	0.218506	0.285413
C45	C	0.534180	0.285281	0.218415
C46	C	0.479580	0.285278	0.218421
C47	C	0.452318	0.251883	0.251924
O48	O	0.393166	0.313659	0.189969
O49	O	0.393263	0.190095	0.313904
C50	C	0.755392	0.387727	0.251907
C51	C	0.755403	0.445841	0.251914
C52	C	0.755497	0.251875	0.388304
C53	C	0.755504	0.251871	0.446418
C54	C	0.891853	0.251888	0.251952
C55	C	0.949967	0.251890	0.251961
C56	C	0.755583	0.115512	0.251967
C57	C	0.755627	0.057397	0.251982
C58	C	0.789004	0.806195	0.218553
C59	C	0.789024	0.860799	0.218560
O60	O	0.817502	0.889028	0.190169
N61	N	0.755572	0.888124	0.251966
C62	C	0.722102	0.860841	0.285371
O63	O	0.693651	0.889096	0.313786
C64	C	0.722085	0.806238	0.285366
C65	C	0.755535	0.778916	0.251954
C66	C	0.822452	0.778873	0.185144
C67	C	0.822431	0.724273	0.185137
C68	C	0.788962	0.696994	0.218538
C69	C	0.755514	0.724315	0.251946
C70	C	0.688617	0.778956	0.318773
C71	C	0.688603	0.724349	0.318765
C72	C	0.722053	0.697027	0.285354
C73	C	0.722024	0.642436	0.285340
N74	N	0.755475	0.615112	0.251934
C75	C	0.788944	0.642390	0.218533
C76	C	0.722141	0.975511	0.285379
C77	C	0.722155	1.030114	0.285381
C78	C	0.789078	1.030068	0.218571
C79	C	0.789061	0.975465	0.218566
C80	C	0.755593	0.948187	0.251973
C81	C	0.788897	0.527725	0.218519
C82	C	0.788872	0.473120	0.218513
C83	C	0.721951	0.473170	0.285325
C84	C	0.721974	0.527771	0.285329
C85	C	0.755452	0.555047	0.251925
O86	O	0.693562	0.614173	0.313718
O87	O	0.817396	0.614128	0.190127
C88	C	0.755494	0.251856	0.116089
C89	C	0.755588	0.251713	0.057975
C90	C	0.789012	0.218333	0.806801
C91	C	0.789019	0.218318	0.861405
O92	O	0.817466	0.189864	0.889659
N93	N	0.755562	0.251749	0.888701
C94	C	0.722093	0.285192	0.861389
O95	O	0.693636	0.313626	0.889620
C96	C	0.722084	0.285204	0.806786
C97	C	0.755547	0.251775	0.779493
C98	C	0.822472	0.184906	0.779508
C99	C	0.822466	0.184921	0.724908
C100	C	0.789001	0.218363	0.697600
C101	C	0.755541	0.251790	0.724893
C102	C	0.688613	0.318644	0.779475
C103	C	0.688607	0.318653	0.724868
C104	C	0.722069	0.285223	0.697576
C105	C	0.722070	0.285247	0.642984
N106	N	0.755526	0.251817	0.615689
C107	C	0.788992	0.218375	0.642996
C108	C	0.722113	0.285165	0.976060
C109	C	0.722124	0.285157	1.030662
C110	C	0.789049	0.218282	1.030675
C111	C	0.789041	0.218293	0.976071
C112	C	0.755570	0.251735	0.948764
C113	C	0.788977	0.218410	0.528331
C114	C	0.788970	0.218429	0.473726
C115	C	0.722043	0.285302	0.473719
C116	C	0.722052	0.285285	0.528319
C117	C	0.755521	0.251834	0.555624
O118	O	0.693635	0.313686	0.614696
O119	O	0.817439	0.189941	0.614759
H120	H	0.556514	0.191317	0.312694
O121	O	0.854908	0.152361	0.806052
C122	C	0.825180	0.118586	0.837646
H123	H	0.783997	0.115360	0.821195
H124	H	0.844122	0.078350	0.838261
H125	H	0.823382	0.134735	0.879031
H126	H	0.305373	0.157922	0.346208
H127	H	0.661345	0.345880	0.702638
H128	H	0.816298	0.191050	1.052918
O129	O	0.656108	0.805407	0.351281
C130	C	0.626562	0.769610	0.380749
H131	H	0.647968	0.730665	0.382566
H132	H	0.620965	0.785366	0.421943
H133	H	0.586863	0.763852	0.361567
H134	H	0.457322	0.312470	0.191149
O135	O	0.656165	0.697827	0.351272
C136	C	0.685898	0.666185	0.385057
H137	H	0.727082	0.682593	0.388326
H138	H	0.666962	0.665569	0.425276
H139	H	0.687693	0.624807	0.368888
H140	H	0.816333	1.052289	0.191376
H141	H	0.816288	0.191071	0.953853
H142	H	-0.045016	0.312472	0.191191
H143	H	0.206327	0.157919	0.346212
O144	O	0.854984	0.152394	0.698480
C145	C	0.884527	0.122887	0.734301
H146	H	0.863114	0.121075	0.773219
H147	H	0.890131	0.081693	0.718536
H148	H	0.924223	0.142030	0.740112
H149	H	0.816111	0.450876	0.191304
H150	H	0.694809	0.312510	0.550542
O151	O	0.689648	0.317708	1.057112
C152	C	0.701046	0.369820	1.043772
H153	H	0.721145	0.370909	1.004132
H154	H	0.663295	0.393265	1.041889
H155	H	0.727913	0.387426	1.074508
O156	O	0.689676	0.317684	0.949478
C157	C	0.719415	0.351471	0.917905
H158	H	0.759048	0.333031	0.909727
H159	H	0.698106	0.358492	0.879506
H160	H	0.725138	0.390210	0.938949
H161	H	0.661364	0.345866	0.801688
H162	H	0.694738	0.550017	0.312538
H163	H	0.556389	0.312465	0.191142
H164	H	0.816300	0.953223	0.191360
O165	O	0.453258	0.186047	0.318013
C166	C	0.489103	0.156576	0.347565
H167	H	0.528009	0.177999	0.349326
H168	H	0.473351	0.151063	0.388774
H169	H	0.494934	0.116837	0.328494
O170	O	0.058385	0.186015	0.318011
C171	C	0.022605	0.156563	0.347588
H172	H	-0.016324	0.154725	0.326177
H173	H	0.038407	0.115375	0.353241
H174	H	0.016799	0.175771	0.387261
H175	H	0.694883	0.953304	0.312581
O176	O	-0.049236	0.186138	0.318025
C177	C	-0.080822	0.215957	0.351750
H178	H	-0.089032	0.255554	0.333240
H179	H	-0.119203	0.194674	0.358794
H180	H	-0.059771	0.221755	0.390487
O181	O	0.689612	0.317811	0.447124
C182	C	0.719356	0.351592	0.415550
H183	H	0.758994	0.333156	0.407390
H184	H	0.698057	0.358599	0.377143
H185	H	0.725067	0.390338	0.436585
H186	H	0.694699	0.450951	0.312518
O187	O	0.821493	0.185904	0.447295
C188	C	0.851038	0.156394	0.483111
H189	H	0.829626	0.154574	0.522030
H190	H	0.856645	0.115203	0.467340
H191	H	0.890733	0.175539	0.488925
O192	O	0.689641	1.056570	0.317882
C193	C	0.660089	1.020777	0.347349
H194	H	0.681491	0.981831	0.349171
H195	H	0.654487	1.036537	0.388541
H196	H	0.620391	1.015021	0.328162
H197	H	0.816159	0.549927	0.191319
H198	H	0.054034	0.312464	0.191174
H199	H	0.816229	0.191169	0.550557
H200	H	0.206133	0.345840	0.157652
H201	H	0.305183	0.345834	0.157644
O202	O	0.854979	0.697817	0.152669
C203	C	0.884513	0.733612	0.123187
H204	H	0.886312	0.772523	0.144611
H205	H	0.925709	0.717802	0.117652
H206	H	0.865400	0.739457	0.083458
H207	H	0.849709	0.801078	0.157945
