data_functionalizedCrystal
_audit_creation_method	'MofGen! by Chris Wilmer'
_symmetry_space_group_name_H-M	'P1'
_symmetry_Int_Tables_number	1
_symmetry_cell_setting	triclinic
loop_
_symmetry_equiv_pos_as_xyz
  x,y,z
_cell_length_a	21.395364
_cell_length_b	29.839132
_cell_length_c	21.395355
_cell_angle_alpha	90.022386
_cell_angle_beta	89.975448
_cell_angle_gamma	89.939785
loop_
_atom_site_label
_atom_site_type_symbol
_atom_site_fract_x
_atom_site_fract_y
_atom_site_fract_z
Zn1	Zn	0.957796	0.178726	-0.354245
Zn2	Zn	1.291129	0.512060	-0.020911
Zn3	Zn	1.624463	0.845393	0.312422
Zn4	Zn	0.957672	0.253841	-0.249460
Zn5	Zn	1.291005	0.587175	0.083873
Zn6	Zn	1.624338	0.920508	0.417207
Zn7	Zn	0.853011	0.178746	-0.249481
Zn8	Zn	1.186344	0.512079	0.083852
Zn9	Zn	1.519678	0.845413	0.417185
Zn10	Zn	0.852953	0.253849	-0.354200
Zn11	Zn	1.186287	0.587183	-0.020867
Zn12	Zn	1.519620	0.920516	0.312466
O13	O	0.905358	0.216291	-0.301847
O14	O	1.238691	0.549624	0.031487
O15	O	1.572025	0.882957	0.364820
O16	O	1.045457	0.188679	-0.340354
O17	O	1.378791	0.522012	-0.007021
O18	O	1.712124	0.855345	0.326312
O19	O	0.943760	0.243885	-0.161785
O20	O	1.277094	0.577218	0.171548
O21	O	1.610427	0.910551	0.504882
O22	O	0.866987	0.115876	-0.263406
O23	O	1.200320	0.449209	0.069927
O24	O	1.533653	0.782543	0.403261
O25	O	1.045366	0.243866	-0.263370
O26	O	1.378699	0.577199	0.069964
O27	O	1.712033	0.910532	0.403297
O28	O	0.943972	0.115862	-0.340375
O29	O	1.277305	0.449195	-0.007042
O30	O	1.610639	0.782528	0.326292
O31	O	0.866866	0.188712	-0.161801
O32	O	1.200200	0.522046	0.171533
O33	O	1.533533	0.855379	0.504866
O34	O	0.765325	0.188720	-0.263363
O35	O	1.098659	0.522053	0.069970
O36	O	1.431992	0.855387	0.403304
O37	O	0.866889	0.243879	-0.441884
O38	O	1.200222	0.577213	-0.108551
O39	O	1.533556	0.910546	0.224783
O40	O	0.765283	0.243898	-0.340299
O41	O	1.098616	0.577232	-0.006966
O42	O	1.431950	0.910565	0.326367
O43	O	0.943916	0.188687	-0.441917
O44	O	1.277250	0.522020	-0.108583
O45	O	1.610583	0.855353	0.224750
O46	O	0.943705	0.316710	-0.263327
O47	O	1.277038	0.650043	0.070007
O48	O	1.610371	0.983376	0.403340
O49	O	0.866769	0.316716	-0.340279
O50	O	1.200102	0.650049	-0.006945
O51	O	1.533435	0.983382	0.326388
C52	C	0.742570	0.216313	-0.301829
C53	C	1.075904	0.549646	0.031504
C54	C	1.409237	0.882979	0.364838
C55	C	0.672929	0.216333	-0.301836
C56	C	1.006262	0.549666	0.031497
C57	C	1.339596	0.882999	0.364830
C58	C	0.640286	0.187644	-0.341984
C59	C	0.973619	0.520977	-0.008651
C60	C	1.306952	0.854311	0.324682
C61	C	0.574850	0.187632	-0.341987
C62	C	0.908184	0.520965	-0.008653
C63	C	1.241517	0.854299	0.324680
C64	C	0.542061	0.216317	-0.301848
C65	C	0.875394	0.549650	0.031486
C66	C	1.208727	0.882984	0.364819
C67	C	0.574712	0.245008	-0.261692
C68	C	0.908045	0.578341	0.071641
C69	C	1.241379	0.911674	0.404975
C70	C	0.640146	0.245016	-0.261686
C71	C	0.973479	0.578349	0.071647
C72	C	1.306813	0.911682	0.404980
C73	C	0.438322	0.256775	-0.296806
C74	C	0.771655	0.590108	0.036527
C75	C	1.104989	0.923441	0.369860
C76	C	0.372889	0.256768	-0.296816
C77	C	0.706222	0.590101	0.036517
C78	C	1.039556	0.923434	0.369850
C79	C	0.340240	0.216292	-0.301862
C80	C	0.673573	0.549626	0.031472
C81	C	1.006907	0.882959	0.364805
C82	C	0.373032	0.175823	-0.306910
C83	C	0.706365	0.509156	0.026423
C84	C	1.039699	0.842489	0.359757
C85	C	0.438466	0.175831	-0.306904
C86	C	0.771799	0.509164	0.026429
C87	C	1.105133	0.842497	0.359762
C88	C	0.471108	0.216311	-0.301849
C89	C	0.804442	0.549645	0.031484
C90	C	1.137775	0.882978	0.364818
C91	C	0.236644	0.187588	-0.342014
C92	C	0.569978	0.520921	-0.008681
C93	C	0.903311	0.854255	0.324652
C94	C	0.171208	0.187575	-0.342012
C95	C	0.504541	0.520909	-0.008679
C96	C	0.837874	0.854242	0.324654
C97	C	0.171070	0.244955	-0.261721
C98	C	0.504404	0.578288	0.071612
C99	C	0.837737	0.911622	0.404946
C100	C	0.236506	0.244964	-0.261720
C101	C	0.569839	0.578297	0.071614
C102	C	0.903172	0.911630	0.404947
C103	C	0.269289	0.216281	-0.301870
C104	C	0.602622	0.549614	0.031464
C105	C	0.935955	0.882947	0.364797
C106	C	0.905234	0.333013	-0.301809
C107	C	1.238567	0.666347	0.031524
C108	C	1.571901	0.999680	0.364857
C109	C	0.905238	0.382948	-0.301814
C110	C	1.238571	0.716281	0.031519
C111	C	1.571905	1.049614	0.364853
C112	C	0.945447	0.692575	-0.261810
C113	C	1.278780	1.025909	0.071523
C114	C	1.612114	1.359242	0.404856
C115	C	0.945507	0.880248	-0.261825
C116	C	1.278840	1.213582	0.071509
C117	C	1.612173	1.546915	0.404842
O118	O	0.979626	0.904500	-0.227801
O119	O	1.312960	1.237833	0.105532
O120	O	1.646293	1.571167	0.438866
N121	N	0.905424	0.903733	-0.301857
N122	N	1.238757	1.237066	0.031477
N123	N	1.572090	1.570399	0.364810
C124	C	0.865326	0.880296	-0.341891
C125	C	1.198659	1.213629	-0.008558
C126	C	1.531992	1.546963	0.324776
O127	O	0.831238	0.904577	-0.375946
O128	O	1.164572	1.237910	-0.042612
O129	O	1.497905	1.571244	0.290721
C130	C	0.865269	0.692624	-0.341880
C131	C	1.198603	1.025957	-0.008546
C132	C	1.531936	1.359290	0.324787
C133	C	0.905351	0.669142	-0.301840
C134	C	1.238684	1.002475	0.031493
C135	C	1.572017	1.335809	0.364826
C136	C	0.985525	0.669093	-0.221775
C137	C	1.318859	1.002427	0.111558
C138	C	1.652192	1.335760	0.444892
C139	C	0.985508	0.622178	-0.221769
C140	C	1.318841	0.955511	0.111564
C141	C	1.652174	1.288845	0.444897
C142	C	0.945411	0.598745	-0.261799
C143	C	1.278745	0.932078	0.071534
C144	C	1.612078	1.265411	0.404867
C145	C	0.905333	0.622226	-0.301835
C146	C	1.238666	0.955560	0.031499
C147	C	1.572000	1.288893	0.364832
C148	C	0.825175	0.669188	-0.381917
C149	C	1.158508	1.002521	-0.048583
C150	C	1.491842	1.335855	0.284750
C151	C	0.825166	0.622267	-0.381911
C152	C	1.158499	0.955600	-0.048578
C153	C	1.491832	1.288934	0.284755
C154	C	0.865247	0.598785	-0.341872
C155	C	1.198580	0.932118	-0.008539
C156	C	1.531914	1.265452	0.324795
C157	C	0.865219	0.551878	-0.341859
C158	C	1.198552	0.885211	-0.008526
C159	C	1.531886	1.218544	0.324808
N160	N	0.905302	0.528393	-0.301827
N161	N	1.238635	0.861727	0.031506
N162	N	1.571969	1.195060	0.364840
C163	C	0.945398	0.551827	-0.261797
C164	C	1.278732	0.885160	0.071536
C165	C	1.612065	1.218493	0.404870
C166	C	0.865357	0.978827	-0.341893
C167	C	1.198690	1.312160	-0.008560
C168	C	1.532024	1.645493	0.324773
C169	C	0.865370	1.025744	-0.341896
C170	C	1.198703	1.359078	-0.008562
C171	C	1.532037	1.692411	0.324771
C172	C	0.945552	1.025694	-0.261830
C173	C	1.278886	1.359027	0.071504
C174	C	1.612219	1.692360	0.404837
C175	C	0.945535	0.978775	-0.261825
C176	C	1.278869	1.312108	0.071508
C177	C	1.612202	1.645442	0.404842
C178	C	0.905440	0.955342	-0.301861
C179	C	1.238773	1.288676	0.031472
C180	C	1.572107	1.622009	0.364805
C181	C	0.945358	0.453301	-0.261788
C182	C	1.278691	0.786634	0.071545
C183	C	1.612024	1.119968	0.404879
C184	C	0.945334	0.406381	-0.261784
C185	C	1.278668	0.739715	0.071549
C186	C	1.612001	1.073048	0.404882
C187	C	0.865155	0.406436	-0.341852
C188	C	1.198488	0.739770	-0.008519
C189	C	1.531822	1.073103	0.324815
C190	C	0.865175	0.453352	-0.341854
C191	C	1.198509	0.786685	-0.008520
C192	C	1.531842	1.120018	0.324813
C193	C	0.905282	0.476783	-0.301820
C194	C	1.238615	0.810116	0.031514
C195	C	1.571949	1.143450	0.364847
O196	O	0.831122	0.527597	-0.375870
O197	O	1.164456	0.860930	-0.042537
O198	O	1.497789	1.194264	0.290797
O199	O	0.979490	0.527537	-0.227757
O200	O	1.312824	0.860871	0.105576
O201	O	1.646157	1.194204	0.438909
C202	C	0.945465	0.739491	-0.261816
C203	C	1.278798	1.072824	0.071517
C204	C	1.612131	1.406158	0.404851
C205	C	0.905386	0.762973	-0.301851
C206	C	1.238720	1.096306	0.031482
C207	C	1.572053	1.429639	0.364815
C208	C	0.865290	0.739539	-0.341881
C209	C	1.198623	1.072873	-0.008548
C210	C	1.531957	1.406206	0.324785
C211	C	0.905399	0.809891	-0.301854
C212	C	1.238733	1.143224	0.031480
C213	C	1.572066	1.476557	0.364813
C214	C	0.945496	0.833324	-0.261824
C215	C	1.278829	1.166657	0.071510
C216	C	1.612162	1.499991	0.404843
C217	C	0.985579	0.809840	-0.221792
C218	C	1.318912	1.143173	0.111542
C219	C	1.652245	1.476506	0.444875
C220	C	0.985561	0.762924	-0.221786
C221	C	1.318894	1.096258	0.111547
C222	C	1.652228	1.429591	0.444881
C223	C	0.825207	0.763024	-0.381913
C224	C	1.158540	1.096357	-0.048580
C225	C	1.491874	1.429690	0.284753
C226	C	0.825227	0.809939	-0.381915
C227	C	1.158561	1.143272	-0.048582
C228	C	1.491894	1.476606	0.284751
C229	C	0.865324	0.833373	-0.341885
C230	C	1.198657	1.166706	-0.008552
C231	C	1.531990	1.500039	0.324781
C232	C	1.068781	0.216269	-0.301865
C233	C	1.402115	0.549602	0.031469
C234	C	1.735448	0.882936	0.364802
C235	C	1.138423	0.216260	-0.301872
C236	C	1.471756	0.549593	0.031461
C237	C	1.805089	0.882927	0.364794
C238	C	0.905476	1.099112	-0.301884
C239	C	1.238809	1.432446	0.031449
C240	C	1.572143	1.765779	0.364782
C241	C	0.905466	1.049178	-0.301866
C242	C	1.238800	1.382511	0.031468
C243	C	1.572133	1.715845	0.364801
C244	C	0.905410	0.216282	-0.465270
C245	C	1.238743	0.549615	-0.131937
C246	C	1.572077	0.882948	0.201397
C247	C	0.905432	0.216278	-0.534911
C248	C	1.238765	0.549611	-0.201578
C249	C	1.572099	0.882944	0.131755
C250	C	0.945539	0.187538	-0.567642
C251	C	1.278872	0.520871	-0.234309
C252	C	1.612205	0.854204	0.099024
C253	C	0.945538	0.187518	-0.633078
C254	C	1.278871	0.520852	-0.299744
C255	C	1.612204	0.854185	0.033589
C256	C	0.905437	0.216247	-0.665780
C257	C	1.238770	0.549580	-0.332446
C258	C	1.572104	0.882914	0.000887
C259	C	0.865323	0.244989	-0.633041
C260	C	1.198656	0.578323	-0.299707
C261	C	1.531990	0.911656	0.033626
C262	C	0.865320	0.245005	-0.567606
C263	C	1.198654	0.578338	-0.234273
C264	C	1.531987	0.911671	0.099060
C265	C	0.900447	0.256699	-0.769441
C266	C	1.233780	0.590033	-0.436108
C267	C	1.567113	0.923366	-0.102775
C268	C	0.900454	0.256685	-0.834874
C269	C	1.233787	0.590018	-0.501541
C270	C	1.567120	0.923351	-0.168208
C271	C	0.905441	0.216200	-0.867600
C272	C	1.238774	0.549533	-0.534267
C273	C	1.572108	0.882866	-0.200934
C274	C	0.910435	0.175728	-0.834886
C275	C	1.243768	0.509061	-0.501552
C276	C	1.577101	0.842395	-0.168219
C277	C	0.910432	0.175743	-0.769451
C278	C	1.243765	0.509077	-0.436118
C279	C	1.577099	0.842410	-0.102785
C280	C	0.905435	0.216234	-0.736732
C281	C	1.238768	0.549567	-0.403399
C282	C	1.572102	0.882900	-0.070065
C283	C	0.945549	0.187436	-0.971284
C284	C	1.278882	0.520770	-0.637951
C285	C	1.612215	0.854103	-0.304617
C286	C	0.945543	0.187416	-1.036721
C287	C	1.278877	0.520749	-0.703387
C288	C	1.612210	0.854083	-0.370054
C289	C	0.865332	0.244891	-1.036682
C290	C	1.198665	0.578224	-0.703349
C291	C	1.531998	0.911558	-0.370016
C292	C	0.865334	0.244907	-0.971247
C293	C	1.198667	0.578240	-0.637914
C294	C	1.532000	0.911574	-0.304580
C295	C	0.905445	0.216180	-0.938552
C296	C	1.238779	0.549514	-0.605218
C297	C	1.572112	0.882847	-0.271885
C298	C	0.905342	0.216267	-0.139059
C299	C	1.238676	0.549601	0.194274
C300	C	1.572009	0.882934	0.527608
C301	C	0.905442	0.216145	-0.069418
C302	C	1.238775	0.549478	0.263915
C303	C	1.572108	0.882811	0.597249
H304	H	0.464900	0.289737	-0.292697
H305	H	0.798233	0.623070	0.040636
H306	H	1.131566	0.956404	0.373969
Cl307	Cl	0.533492	0.281067	-0.211229
Cl308	Cl	0.866825	0.614400	0.122105
Cl309	Cl	1.200158	0.947733	0.455438
Cl310	Cl	0.814774	0.482873	-0.392176
Cl311	Cl	1.148108	0.816206	-0.058843
Cl312	Cl	1.481441	1.149539	0.274490
H313	H	0.263338	0.164230	-0.374703
H314	H	0.596671	0.497563	-0.041370
H315	H	0.930004	0.830897	0.291964
Cl316	Cl	0.814897	0.281138	-0.526456
Cl317	Cl	1.148230	0.614472	-0.193123
Cl318	Cl	1.481564	0.947805	0.140210
H319	H	0.465163	0.142879	-0.311013
H320	H	0.798496	0.476212	0.022321
H321	H	1.131829	0.809546	0.355654
H322	H	0.548267	0.164268	-0.374679
H323	H	0.881600	0.497601	-0.041346
H324	H	1.214934	0.830935	0.291988
Cl325	Cl	0.916707	0.124829	-0.876019
Cl326	Cl	1.250041	0.458162	-0.542686
Cl327	Cl	1.583374	0.791496	-0.209353
H328	H	0.792534	0.688299	-0.414518
H329	H	1.125867	1.021632	-0.081185
H330	H	1.459200	1.354966	0.252149
H331	H	0.978173	0.959659	-0.229222
H332	H	1.311507	1.292992	0.104111
H333	H	1.644840	1.626325	0.437445
H334	H	1.018147	0.603062	-0.189168
H335	H	1.351480	0.936395	0.144165
H336	H	1.684814	1.269728	0.477499
Cl337	Cl	0.814973	1.055259	-0.392225
Cl338	Cl	1.148306	1.388592	-0.058892
Cl339	Cl	1.481639	1.721925	0.274441
Cl340	Cl	1.035939	0.698544	-0.171445
Cl341	Cl	1.369273	1.031878	0.161889
Cl342	Cl	1.702606	1.365211	0.495222
H343	H	0.346195	0.289720	-0.292709
H344	H	0.679528	0.623054	0.040625
H345	H	1.012862	0.956387	0.373958
Cl346	Cl	0.995958	1.055161	-0.211506
Cl347	Cl	1.329291	1.388495	0.121827
Cl348	Cl	1.662625	1.721828	0.455161
H349	H	0.832705	0.959751	-0.374497
H350	H	1.166038	1.293084	-0.041163
H351	H	1.499372	1.626418	0.292170
Cl352	Cl	0.995970	0.151321	-0.930179
Cl353	Cl	1.329304	0.484654	-0.596845
Cl354	Cl	1.662637	0.817988	-0.263512
Cl355	Cl	0.130170	0.151504	-0.392486
Cl356	Cl	0.463503	0.484837	-0.059153
Cl357	Cl	0.796836	0.818171	0.274180
Cl358	Cl	0.916705	0.124867	-0.728326
Cl359	Cl	1.250038	0.458200	-0.394993
Cl360	Cl	1.583372	0.791534	-0.061659
Cl361	Cl	0.129855	0.281013	-0.211255
Cl362	Cl	0.463189	0.614346	0.122078
Cl363	Cl	0.796522	0.947680	0.455411
Cl364	Cl	0.277545	0.281030	-0.211242
Cl365	Cl	0.610879	0.614363	0.122091
Cl366	Cl	0.944212	0.947696	0.455424
Cl367	Cl	0.894195	0.307601	-0.728307
Cl368	Cl	1.227529	0.640934	-0.394973
Cl369	Cl	1.560862	0.974268	-0.061640
H370	H	0.666724	0.268378	-0.228992
H371	H	1.000057	0.601712	0.104341
H372	H	1.333391	0.935045	0.437675
Cl373	Cl	0.774758	0.592812	-0.432247
Cl374	Cl	1.108091	0.926145	-0.098914
Cl375	Cl	1.441424	1.259478	0.234420
H376	H	0.832507	0.387349	-0.374442
H377	H	1.165840	0.720683	-0.041109
H378	H	1.499174	1.054016	0.292225
Cl379	Cl	0.995726	0.376864	-0.211446
Cl380	Cl	1.329060	0.710197	0.121888
Cl381	Cl	1.662393	1.043531	0.455221
Cl382	Cl	0.331995	0.124936	-0.313252
Cl383	Cl	0.665328	0.458269	0.020081
Cl384	Cl	0.998662	0.791602	0.353415
Cl385	Cl	0.774795	0.733572	-0.432242
Cl386	Cl	1.108128	1.066905	-0.098909
Cl387	Cl	1.441461	1.400238	0.234425
Cl388	Cl	0.995777	0.482750	-0.211458
Cl389	Cl	1.329110	0.816083	0.121876
Cl390	Cl	1.662443	1.149417	0.455209
Cl391	Cl	1.035954	0.733411	-0.171451
Cl392	Cl	1.369288	1.066745	0.161882
Cl393	Cl	1.702621	1.400078	0.495216
H394	H	0.978200	0.164146	-0.541026
H395	H	1.311533	0.497479	-0.207693
H396	H	1.644867	0.830812	0.125641
H397	H	0.832675	0.268278	-1.063308
H398	H	1.166008	0.601611	-0.729974
H399	H	1.499341	0.934945	-0.396641
Cl400	Cl	1.035984	0.839308	-0.171468
Cl401	Cl	1.369317	1.172641	0.161866
Cl402	Cl	1.702650	1.505975	0.495199
H403	H	0.832678	0.268313	-0.944597
H404	H	1.166012	0.601646	-0.611264
H405	H	1.499345	0.934980	-0.277930
Cl406	Cl	0.814908	0.281104	-0.674150
Cl407	Cl	1.148242	0.614437	-0.340817
Cl408	Cl	1.481575	0.947770	-0.007484
H409	H	0.666974	0.164288	-0.374677
H410	H	1.000307	0.497621	-0.041344
H411	H	1.333640	0.830954	0.291990
H412	H	0.792583	0.829054	-0.414519
H413	H	1.125916	1.162387	-0.081186
H414	H	1.459250	1.495721	0.252147
H415	H	0.978196	0.164112	-0.659733
H416	H	1.311529	0.497446	-0.326399
H417	H	1.644862	0.830779	0.006934
Cl418	Cl	0.894182	0.307563	-0.875995
Cl419	Cl	1.227515	0.640896	-0.542662
Cl420	Cl	1.560849	0.974229	-0.209328
Cl421	Cl	0.995978	0.151289	-1.077869
Cl422	Cl	1.329311	0.484623	-0.744536
Cl423	Cl	1.662644	0.817956	-0.411203
