data_functionalizedCrystal
_audit_creation_method	'MofGen! by Chris Wilmer'
_symmetry_space_group_name_H-M	'P1'
_symmetry_Int_Tables_number	1
_symmetry_cell_setting	triclinic
loop_
_symmetry_equiv_pos_as_xyz
  x,y,z
_cell_length_a	6.817900
_cell_length_b	16.305597
_cell_length_c	16.305550
_cell_angle_alpha	95.371930
_cell_angle_beta	103.455250
_cell_angle_gamma	103.455834
loop_
_atom_site_label
_atom_site_type_symbol
_atom_site_fract_x
_atom_site_fract_y
_atom_site_fract_z
V1	V	-4.026184	-0.117429	-0.263322
O2	O	-4.013844	0.004910	-0.258012
O3	O	-3.977574	-0.232137	-0.261808
O4	O	-3.977591	-0.115944	-0.378036
O5	O	-4.013827	-0.112087	-0.140980
V6	V	-4.509864	-0.102758	-0.248654
O7	O	-4.287097	-0.149611	-0.295498
O8	O	-4.699147	-0.070575	-0.216479
O9	O	-4.335267	0.011951	-0.250169
O10	O	-4.639601	-0.225097	-0.253965
O11	O	-4.639617	-0.108099	-0.370997
O12	O	-4.335250	-0.104243	-0.133941
C13	C	-3.822530	-0.260091	-0.257728
C14	C	-3.864072	-0.353868	-0.257254
C15	C	-3.822550	-0.111874	-0.405987
C16	C	-3.864102	-0.111419	-0.499768
C17	C	-4.015199	-0.694622	-0.255573
C18	C	-3.779480	-0.653779	-0.250966
C19	C	-3.735942	-0.556181	-0.251124
C20	C	-3.940222	-0.525570	-0.256407
C21	C	-4.023196	-0.550725	-0.177802
C22	C	-4.065002	-0.648256	-0.177220
C23	C	-4.153223	-0.674025	-0.338559
C24	C	-4.106392	-0.576516	-0.340014
C25	C	-3.897858	-0.430029	-0.256876
C26	C	-4.057566	-0.790162	-0.255098
C27	C	-4.015190	-0.109655	-0.840509
C28	C	-3.779145	-0.104421	-0.799567
C29	C	-3.735951	-0.105243	-0.702074
C30	C	-3.940232	-0.110530	-0.671463
C31	C	-4.107221	-0.193843	-0.722296
C32	C	-4.149085	-0.193372	-0.819844
C33	C	-4.069986	-0.032242	-0.794473
C34	C	-4.022057	-0.031583	-0.696629
C35	C	-3.897882	-0.111027	-0.575926
C36	C	-4.057549	-0.109164	-0.936046
C37	C	-4.153653	0.039900	-0.254247
C38	C	-4.091350	0.133676	-0.254726
C39	C	-4.153633	-0.108316	-0.105985
C40	C	-4.091320	-0.108767	-0.012204
H41	H	-3.669702	-0.539416	-0.307294
F42	F	-3.719535	-0.693818	-0.324084
F43	F	-4.287221	-0.683345	-0.177152
H44	H	-3.609149	-0.521585	-0.191100
F45	F	-4.307408	-0.202840	-0.697602
F46	F	-3.642185	-0.671210	-0.172737
H47	H	-4.112909	-0.251976	-0.850371
H48	H	-3.901043	0.030041	-0.662098
F49	F	-3.649101	-0.178783	-0.680957
F50	F	-3.720164	-0.177119	-0.840931
H51	H	-4.173224	-0.530875	-0.178660
H52	H	-4.047529	-0.560983	-0.398178
H53	H	-3.966022	-0.659587	-0.114785
H54	H	-4.322917	-0.200679	-0.847854
F55	F	-3.868973	-0.503960	-0.096903
F56	F	-4.034733	-0.270466	-0.700511
H57	H	-3.978618	0.030884	-0.807685
H58	H	-4.169345	-0.030546	-0.675279
H59	H	-4.258737	-0.556706	-0.348751
F60	F	-3.570608	-0.026959	-0.656100
F61	F	-4.117044	-0.716735	-0.416477
F62	F	-4.378864	-0.709317	-0.344038
H63	H	-3.673038	-0.044236	-0.811782
H64	H	-4.242049	-0.035336	-0.821297
