data_functionalizedCrystal
_audit_creation_method	'MofGen! by Chris Wilmer'
_symmetry_space_group_name_H-M	'P1'
_symmetry_Int_Tables_number	1
_symmetry_cell_setting	triclinic
loop_
_symmetry_equiv_pos_as_xyz
  x,y,z
_cell_length_a	21.395364
_cell_length_b	15.299816
_cell_length_c	21.395356
_cell_angle_alpha	99.658221
_cell_angle_beta	89.976411
_cell_angle_gamma	80.365592
loop_
_atom_site_label
_atom_site_type_symbol
_atom_site_fract_x
_atom_site_fract_y
_atom_site_fract_z
Zn1	Zn	1.001000	-0.358711	-0.397435
Zn2	Zn	1.019045	-0.509529	-0.310810
Zn3	Zn	0.896224	-0.358774	-0.292680
Zn4	Zn	0.914324	-0.509521	-0.415549
O5	O	0.957648	-0.434134	-0.354118
O6	O	1.091069	-0.378694	-0.385951
O7	O	1.002730	-0.489561	-0.220731
O8	O	0.894996	-0.232560	-0.291407
O9	O	1.104326	-0.489499	-0.322308
O10	O	0.971975	-0.232514	-0.368371
O11	O	0.912494	-0.378802	-0.207410
O12	O	0.810950	-0.378794	-0.308972
O13	O	0.925845	-0.489485	-0.500820
O14	O	0.824248	-0.489547	-0.399243
O15	O	0.989525	-0.378686	-0.487512
O16	O	1.020280	-0.635733	-0.339872
O17	O	0.943342	-0.635727	-0.416823
C18	C	0.794866	-0.434177	-0.354106
C19	C	0.725230	-0.434218	-0.354118
C20	C	0.685647	-0.376616	-0.387331
C21	C	0.620209	-0.376592	-0.387330
C22	C	0.594358	-0.434186	-0.354126
C23	C	0.633949	-0.491792	-0.320906
C24	C	0.699385	-0.491808	-0.320902
C25	C	0.500403	-0.515406	-0.358864
C26	C	0.434968	-0.515392	-0.358872
C27	C	0.392531	-0.434136	-0.354134
C28	C	0.415536	-0.352893	-0.349400
C29	C	0.480972	-0.352909	-0.349396
C30	C	0.523404	-0.434175	-0.354126
C31	C	0.281992	-0.376504	-0.387347
C32	C	0.216552	-0.376478	-0.387342
C33	C	0.230294	-0.491686	-0.320922
C34	C	0.295732	-0.491704	-0.320923
C35	C	0.321577	-0.434114	-0.354139
C36	C	0.985750	-0.668454	-0.382294
C37	C	0.997830	-0.768697	-0.394369
C38	C	0.871725	-1.051662	-0.268031
C39	C	0.860373	-0.957479	-0.256688
C40	C	0.894736	-0.910279	-0.291107
C41	C	0.940454	-0.957271	-0.336872
C42	C	0.951804	-1.051464	-0.348220
C43	C	0.974815	-0.910081	-0.371295
C44	C	1.020532	-0.957073	-0.417060
C45	C	1.031881	-1.051257	-0.428406
C46	C	0.997517	-1.098457	-0.393987
C47	C	0.963465	-0.815888	-0.359948
C48	C	1.043543	-0.815690	-0.440136
C49	C	1.054896	-0.909873	-0.451479
C50	C	1.121066	-0.434090	-0.354131
C51	C	1.190706	-0.434072	-0.354137
C52	C	0.957691	-0.434078	-0.517535
C53	C	0.957709	-0.434054	-0.587173
C54	C	0.929454	-0.198898	-0.325846
C55	C	0.917439	-0.098655	-0.313798
C56	C	0.910733	-0.376375	-0.612940
C57	C	0.910729	-0.376359	-0.678374
C58	C	0.957711	-0.434011	-0.718037
C59	C	1.004691	-0.491701	-0.692263
C60	C	1.004690	-0.491722	-0.626832
C61	C	1.015013	-0.441080	-0.822574
C62	C	1.015014	-0.441052	-0.888003
C63	C	0.957714	-0.433950	-0.919850
C64	C	0.900408	-0.426856	-0.886257
C65	C	0.900407	-0.426878	-0.820825
C66	C	0.957717	-0.433995	-0.788987
C67	C	0.910730	-0.376250	-1.016567
C68	C	0.910725	-0.376240	-1.082002
C69	C	1.004692	-0.491577	-1.095890
C70	C	1.004692	-0.491592	-1.030457
C71	C	0.957711	-0.433924	-0.990798
C72	C	0.957634	-0.434124	-0.191330
C73	C	0.957707	-0.433894	-0.121661
H74	H	0.380984	-0.286727	-0.345542
H75	H	1.006760	-1.175149	-0.403218
H76	H	0.499700	-0.286758	-0.345540
C77	C	1.078051	-0.448855	-0.924950
N78	N	1.125533	-0.454733	-0.952776
H79	H	1.069104	-1.089516	-0.465673
H80	H	0.853747	-0.421104	-0.793477
C81	C	0.913177	-0.764207	-0.309607
N82	N	0.875297	-0.725282	-0.271687
H83	H	0.843749	-1.090101	-0.240015
C84	C	0.859049	-0.312946	-0.569320
N85	N	0.820118	-0.265172	-0.536465
H86	H	1.042946	-0.538558	-1.009478
C87	C	1.081347	-0.763774	-0.477999
N88	N	1.109818	-0.724665	-0.506514
H89	H	0.303035	-0.329605	-0.414389
C90	C	0.173010	-0.313107	-0.423880
N91	N	0.140214	-0.265376	-0.451401
H92	H	1.061677	-0.446856	-0.796649
C93	C	1.056300	-0.555241	-0.735909
N94	N	1.095148	-0.603148	-0.768788
C95	C	0.201862	-0.555040	-0.284396
N96	N	0.180443	-0.602758	-0.256883
H97	H	0.885491	-0.833590	-0.281868
C98	C	1.056380	-0.555157	-0.598486
N99	N	1.095318	-0.602930	-0.577134
H100	H	0.872476	-0.329385	-0.699357
C101	C	1.105181	-0.961578	-0.501823
N102	N	1.143056	-1.000522	-0.539742
C103	C	0.837373	-0.419052	-0.921284
N104	N	0.789896	-0.413175	-0.947670
C105	C	0.339276	-0.555078	-0.284392
N106	N	0.372073	-0.602814	-0.256875
H107	H	0.706685	-0.329721	-0.414377
C108	C	1.056396	-0.554955	-1.139511
N109	N	1.095349	-0.602679	-1.172368
H110	H	0.731613	-0.538716	-0.293856
H111	H	0.872475	-0.329294	-0.984275
C112	C	0.576660	-0.313228	-0.423872
N113	N	0.543862	-0.265505	-0.451397
C114	C	0.409668	-0.604760	-0.364072
N115	N	0.390615	-0.672074	-0.367985
H116	H	0.534951	-0.581579	-0.362722
H117	H	0.823150	-0.919221	-0.219427
H118	H	0.612896	-0.538685	-0.293870
C119	C	0.859047	-0.312783	-1.110344
N120	N	0.820123	-0.264983	-1.131691
