data_functionalizedCrystal
_audit_creation_method	'MofGen! by Chris Wilmer'
_symmetry_space_group_name_H-M	'P1'
_symmetry_Int_Tables_number	1
_symmetry_cell_setting	triclinic
loop_
_symmetry_equiv_pos_as_xyz
  x,y,z
_cell_length_a	12.759401
_cell_length_b	16.120484
_cell_length_c	12.759393
_cell_angle_alpha	87.135992
_cell_angle_beta	90.020938
_cell_angle_gamma	92.926992
loop_
_atom_site_label
_atom_site_type_symbol
_atom_site_fract_x
_atom_site_fract_y
_atom_site_fract_z
Zn1	Zn	1.584985	-0.331832	0.615183
Zn2	Zn	1.575933	-0.471268	0.448395
Zn3	Zn	1.409280	-0.331877	0.439521
Zn4	Zn	1.400336	-0.471209	0.624029
O5	O	1.492634	-0.401546	0.531782
O6	O	1.730804	-0.350334	0.593070
O7	O	1.553781	-0.452820	0.300200
O8	O	1.440119	-0.215205	0.455406
O9	O	1.724154	-0.452777	0.470532
O10	O	1.569208	-0.215173	0.584465
O11	O	1.431342	-0.350410	0.293680
O12	O	1.261073	-0.350354	0.463984
O13	O	1.424875	-0.452678	0.769874
O14	O	1.254502	-0.452721	0.599541
O15	O	1.560535	-0.350278	0.763375
O16	O	1.545108	-0.587925	0.479110
O17	O	1.416098	-0.587883	0.608147
C18	C	1.219667	-0.401536	0.531760
C19	C	1.102889	-0.401552	0.531777
C20	C	1.044628	-0.454936	0.602261
C21	C	0.934904	-0.454939	0.602282
C22	C	0.941712	-0.348172	0.461326
C23	C	1.051434	-0.348166	0.461311
C24	C	1.478679	-0.618154	0.545574
C25	C	1.472805	-0.710820	0.551509
C26	C	1.462088	-0.880481	0.562368
C27	C	1.523367	-0.921772	0.501213
C28	C	1.517404	-1.016177	0.507255
C29	C	1.468050	-0.786067	0.556327
C30	C	1.766666	-0.401557	0.531804
C31	C	1.883442	-0.401562	0.531814
C32	C	1.492717	-0.401466	0.805810
C33	C	1.492753	-0.401432	0.922585
C34	C	1.506671	-0.184093	0.517959
C35	C	1.512653	-0.091427	0.512068
C36	C	1.492614	-0.401566	0.258816
C37	C	1.492797	-0.401365	0.142027
C38	C	1.563397	-0.348104	0.974064
C39	C	1.563417	-0.348068	1.083786
C40	C	1.422146	-0.454696	1.090540
C41	C	1.422122	-0.454727	0.980820
H42	H	0.887472	-0.498408	0.659679
N43	N	0.889133	-0.293647	0.389357
N44	N	0.791167	-0.293660	0.389379
H45	H	0.754033	-0.255152	0.338548
N46	N	1.635581	-0.293608	1.136387
N47	N	1.635595	-0.293584	1.234350
H48	H	1.686563	-0.255119	1.271502
N49	N	1.110939	-0.293621	0.389309
N50	N	1.064987	-0.245962	0.326396
H51	H	1.107012	-0.207438	0.275549
H52	H	1.405150	-0.916029	0.619256
N53	N	1.594793	-0.877194	0.429818
N54	N	1.652402	-0.915962	0.372310
H55	H	1.702842	-0.884477	0.321884
N56	N	1.097172	-0.509473	0.674243
N57	N	1.045135	-0.557133	0.737170
H58	H	1.082240	-0.595651	0.788011
N59	N	1.635548	-0.293662	0.914593
N60	N	1.698616	-0.246050	0.960575
H61	H	1.749574	-0.207596	0.918577
N62	N	1.350008	-0.509126	1.150044
N63	N	1.350038	-0.509092	1.248007
H64	H	1.299090	-0.547535	1.290032
H65	H	1.364587	-0.498152	0.938905
