data_functionalizedCrystal
_audit_creation_method	'MofGen! by Chris Wilmer'
_symmetry_space_group_name_H-M	'P1'
_symmetry_Int_Tables_number	1
_symmetry_cell_setting	triclinic
loop_
_symmetry_equiv_pos_as_xyz
  x,y,z
_cell_length_a	10.967819
_cell_length_b	11.026607
_cell_length_c	17.766277
_cell_angle_alpha	90.003085
_cell_angle_beta	102.138659
_cell_angle_gamma	96.381100
loop_
_atom_site_label
_atom_site_type_symbol
_atom_site_fract_x
_atom_site_fract_y
_atom_site_fract_z
O1	O	1.694075	0.170563	0.282339
O2	O	1.334430	0.186876	0.235689
O3	O	1.484446	0.001818	0.255145
O4	O	1.544060	0.355622	0.262883
O5	O	1.484410	0.001808	0.129951
O6	O	1.334394	0.186867	0.110495
O7	O	1.694039	0.170553	0.157145
Cu8	Cu	1.514214	0.178709	0.122389
Cu9	Cu	1.514256	0.178721	0.270445
O10	O	1.544024	0.355612	0.137689
C11	C	1.287654	0.185683	0.167027
C12	C	1.148327	0.182126	0.148955
C13	C	0.942236	0.176881	0.187087
C14	C	1.086237	0.180549	0.205761
C15	C	1.473430	-0.043490	0.191122
C16	C	1.440645	-0.178478	0.186873
C17	C	1.531169	-0.251527	0.198616
C18	C	1.497287	-0.391045	0.194223
C19	C	1.740815	0.171747	0.225809
C20	C	1.880142	0.175304	0.243886
C21	C	1.555039	0.400919	0.201713
C22	C	1.587824	0.535907	0.205968
N23	N	1.514193	0.178700	0.018256
C24	C	1.580656	0.096797	-0.012511
C25	C	1.580662	0.096791	-0.091312
C26	C	1.514221	0.178710	-0.139341
C27	C	1.447743	0.260619	-0.108566
C28	C	1.447729	0.260614	-0.029767
C29	C	1.522713	0.289300	-0.263075
C30	C	1.522737	0.289307	-0.341871
C31	C	1.514258	0.178725	-0.382382
C32	C	1.505781	0.068132	-0.344084
C33	C	1.505767	0.068127	-0.265286
C34	C	1.514229	0.178724	-0.224785
C35	C	1.580731	0.096809	-0.498594
C36	C	1.580728	0.096802	-0.577398
C37	C	1.447817	0.260640	-0.594649
C38	C	1.447812	0.260637	-0.515848
C39	C	1.514276	0.178723	-0.467824
N40	N	1.514285	0.178720	0.374579
H41	H	0.888789	0.175522	0.124635
N42	N	1.652435	0.008466	-0.610577
H43	H	1.592590	-0.045809	-0.651045
H44	H	1.694531	-0.043328	-0.568141
H45	H	1.393714	0.327335	-0.633754
N46	N	0.950924	0.177121	0.326614
H47	H	1.043761	0.179485	0.328227
H48	H	0.921328	0.101304	0.352593
H49	H	1.139681	0.181921	0.268218
N50	N	1.652328	0.008441	0.039284
H51	H	1.718115	0.055395	0.080524
H52	H	1.694352	-0.043424	0.007772
N53	N	1.361392	-0.445002	0.176587
H54	H	1.305635	-0.377084	0.169352
H55	H	1.343866	-0.497044	0.220723
N56	N	1.667058	-0.197565	0.216232
H57	H	1.710134	-0.225486	0.268225
H58	H	1.671888	-0.105557	0.216826
N59	N	1.496621	-0.051143	-0.223978
H60	H	1.491253	-0.121201	-0.261592
H61	H	1.419064	-0.058917	-0.201357
H62	H	1.094886	0.180767	0.086498
N63	N	1.723722	-0.410143	0.223601
H64	H	1.728667	-0.318125	0.224242
H65	H	1.766682	-0.438174	0.182765
N66	N	1.304753	-0.232426	0.169248
H67	H	1.287118	-0.284452	0.213369
H68	H	1.287179	-0.284407	0.120531
N69	N	1.652346	0.008447	-0.124510
H70	H	1.694445	-0.043447	-0.082130
H71	H	1.718074	0.055497	-0.148665
H72	H	1.529598	0.379355	-0.230100
H73	H	1.498876	-0.021914	-0.377067
H74	H	1.634845	0.030106	-0.459492
N75	N	1.376125	0.348975	-0.482658
H76	H	1.334033	0.400870	-0.525039
H77	H	1.436052	0.403152	-0.442175
N78	N	1.531868	0.408581	-0.383176
H79	H	1.612742	0.459904	-0.358955
H80	H	1.458323	0.453846	-0.378993
N81	N	1.376073	0.348969	-0.160364
H82	H	1.386169	0.336547	-0.214952
H83	H	1.409878	0.435349	-0.142194
H84	H	1.393605	0.327311	-0.004717
