data_functionalizedCrystal
_audit_creation_method	'MofGen! by Chris Wilmer'
_symmetry_space_group_name_H-M	'P1'
_symmetry_Int_Tables_number	1
_symmetry_cell_setting	triclinic
loop_
_symmetry_equiv_pos_as_xyz
  x,y,z
_cell_length_a	14.971506
_cell_length_b	14.971496
_cell_length_c	13.448316
_cell_angle_alpha	90.012677
_cell_angle_beta	89.999097
_cell_angle_gamma	83.620256
loop_
_atom_site_label
_atom_site_type_symbol
_atom_site_fract_x
_atom_site_fract_y
_atom_site_fract_z
O1	O	1.186929	0.116658	0.082701
O2	O	1.686929	0.616658	0.582701
O3	O	0.926532	0.130598	0.082702
O4	O	1.426532	0.630598	0.582702
O5	O	1.063705	-0.006571	0.082692
O6	O	1.563705	0.493429	0.582692
O7	O	1.049756	0.253827	0.082710
O8	O	1.549756	0.753827	0.582710
O9	O	1.063710	-0.006595	-0.082691
O10	O	1.563710	0.493405	0.417309
O11	O	0.926537	0.130574	-0.082682
O12	O	1.426537	0.630574	0.417318
O13	O	1.186934	0.116634	-0.082683
O14	O	1.686934	0.616634	0.417317
Cu15	Cu	1.056736	0.123602	-0.097783
Cu16	Cu	1.556736	0.623602	0.402217
Cu17	Cu	1.056730	0.123630	0.097802
Cu18	Cu	1.556730	0.623630	0.597802
O19	O	1.049761	0.253803	-0.082674
O20	O	1.549761	0.753803	0.417326
C21	C	0.893210	0.129959	0.000010
C22	C	1.393210	0.629959	0.500010
C23	C	0.793914	0.128081	0.000010
C24	C	1.293914	0.628081	0.500010
C25	C	1.063082	-0.039908	0.000000
C26	C	1.563082	0.460092	0.500000
C27	C	1.061208	-0.139204	-0.000000
C28	C	1.561208	0.360796	0.500000
C29	C	0.355634	0.201499	0.000025
C30	C	0.855634	0.701499	0.500025
C31	C	0.448934	0.203257	0.000029
C32	C	0.948934	0.703257	0.500029
C33	C	0.506151	0.122665	0.000019
C34	C	1.006151	0.622665	0.500019
C35	C	0.470064	0.040310	0.000015
C36	C	0.970064	0.540310	0.500015
C37	C	0.376765	0.038553	0.000018
C38	C	0.876765	0.538553	0.500018
C39	C	0.664527	0.043977	0.000007
C40	C	1.164527	0.543977	0.500007
C41	C	0.757832	0.045733	0.000003
C42	C	1.257832	0.545733	0.500003
C43	C	0.736696	0.208680	0.000019
C44	C	1.236696	0.708680	0.500019
C45	C	0.643397	0.206923	0.000021
C46	C	1.143397	0.706923	0.500021
C47	C	0.607316	0.124568	0.000015
C48	C	1.107316	0.624568	0.500015
C49	C	1.053138	-0.566896	0.090177
C50	C	1.553138	-0.066896	0.590177
C51	C	1.054903	-0.473596	0.090172
C52	C	1.554903	0.026404	0.590172
C53	C	1.055783	-0.426966	0.000018
C54	C	1.555783	0.073034	0.500018
C55	C	1.054906	-0.473641	-0.090138
C56	C	1.554906	0.026359	0.409862
C57	C	1.053147	-0.566939	-0.090133
C58	C	1.553147	-0.066939	0.409867
C59	C	1.058571	-0.279177	-0.090143
C60	C	1.558571	0.220823	0.409857
C61	C	1.060329	-0.185872	-0.090149
C62	C	1.560329	0.314128	0.409851
C63	C	1.060328	-0.185834	0.090162
C64	C	1.560328	0.314166	0.590162
C65	C	1.058568	-0.279133	0.090167
C66	C	1.558568	0.220867	0.590167
C67	C	1.057690	-0.325801	0.000011
C68	C	1.557690	0.174199	0.500011
C69	C	1.220256	0.117273	0.000011
C70	C	1.720256	0.617273	0.500011
C71	C	1.319552	0.119151	0.000018
C72	C	1.819552	0.619151	0.500018
C73	C	1.050384	0.287140	0.000021
C74	C	1.550384	0.787140	0.500021
C75	C	1.052258	0.386436	0.000028
C76	C	1.552258	0.886436	0.500028
N77	N	1.056726	0.123644	0.235366
N78	N	1.556726	0.623644	0.735366
N79	N	1.056747	0.123581	-0.235348
N80	N	1.556747	0.623581	0.264652
C81	C	1.002539	0.069182	0.287395
C82	C	1.502539	0.569182	0.787395
C83	C	1.002546	0.069165	0.391498
C84	C	1.502546	0.569165	0.891498
C85	C	1.056737	0.123615	0.443571
C86	C	1.556737	0.623615	0.943571
C87	C	1.110931	0.178080	0.391535
C88	C	1.610931	0.678080	0.891535
C89	C	1.110927	0.178091	0.287434
C90	C	1.610927	0.678091	0.787434
C91	C	1.110932	0.178053	0.608515
C92	C	1.610932	0.678053	1.108515
C93	C	1.110934	0.178043	0.712624
C94	C	1.610934	0.678043	1.212624
C95	C	1.002551	0.069127	0.712580
C96	C	1.502551	0.569127	1.212580
C97	C	1.002548	0.069138	0.608478
C98	C	1.502548	0.569138	1.108478
C99	C	1.056740	0.123604	0.556450
C100	C	1.556740	0.623604	1.056450
H101	H	0.309053	0.267127	0.000025
H102	H	0.809053	0.767127	0.500025
H103	H	0.958406	0.024847	0.245005
H104	H	1.458406	0.524847	0.745005
F105	F	0.530961	-0.045463	0.000008
F106	F	1.030961	0.454537	0.500008
H107	H	0.635154	-0.023086	0.000007
H108	H	1.135154	0.476914	0.500007
F109	F	0.582504	0.292698	0.000026
F110	F	1.082504	0.792698	0.500026
H111	H	1.061036	-0.147832	0.163570
H112	H	1.561036	0.352168	0.663570
H113	H	0.766077	0.275737	0.000023
H114	H	1.266077	0.775737	0.500023
F115	F	0.944874	0.011160	0.767953
F116	F	1.444874	0.511160	1.267953
F117	F	1.061282	-0.136249	-0.186101
F118	F	1.561282	0.363751	0.313899
H119	H	1.155053	0.222439	0.245073
H120	H	1.655053	0.722439	0.745073
H121	H	0.958424	0.024814	0.433855
H122	H	1.458424	0.524814	0.933855
F123	F	1.057641	-0.328844	-0.186099
F124	F	1.557641	0.171156	0.313901
F125	F	0.487330	0.290903	0.000042
F126	F	0.987330	0.790903	0.500042
F127	F	0.818725	-0.040042	-0.000002
F128	F	1.318725	0.459958	0.499998
F129	F	1.168637	0.235968	0.768042
F130	F	1.668637	0.735968	1.268042
F131	F	1.168614	0.236018	0.553145
F132	F	1.668614	0.736018	1.053145
H133	H	0.347390	-0.028503	0.000014
H134	H	0.847390	0.471497	0.500014
F135	F	1.168609	0.236026	0.446958
F136	F	1.668609	0.736026	0.946958
H137	H	1.052413	-0.604854	0.163591
H138	H	1.552413	-0.104854	0.663591
F139	F	1.055848	-0.424012	-0.186088
F140	F	1.555848	0.075988	0.313912
H141	H	1.055621	-0.435604	0.163581
H142	H	1.555621	0.064396	0.663581
H143	H	1.052430	-0.604935	-0.163542
H144	H	1.552430	-0.104935	0.336458
F145	F	0.944865	0.011193	0.553061
F146	F	1.444865	0.511193	1.053061
F147	F	1.057626	-0.328758	0.186120
F148	F	1.557626	0.171242	0.686120
