data_functionalizedCrystal
_audit_creation_method	'MofGen! by Chris Wilmer'
_symmetry_space_group_name_H-M	'P1'
_symmetry_Int_Tables_number	1
_symmetry_cell_setting	triclinic
loop_
_symmetry_equiv_pos_as_xyz
  x,y,z
_cell_length_a	15.297475
_cell_length_b	12.645330
_cell_length_c	15.296720
_cell_angle_alpha	80.350659
_cell_angle_beta	88.382886
_cell_angle_gamma	80.321044
loop_
_atom_site_label
_atom_site_type_symbol
_atom_site_fract_x
_atom_site_fract_y
_atom_site_fract_z
Zn1	Zn	1.253448	-0.825067	0.726648
Zn2	Zn	1.278720	-0.977718	0.580172
Zn3	Zn	1.132323	-0.765511	0.554885
Zn4	Zn	1.106946	-0.967297	0.701300
O5	O	1.192859	-0.883898	0.640751
O6	O	1.379380	-0.874601	0.728408
O7	O	1.280497	-0.929005	0.454242
O8	O	1.148435	-0.625078	0.577695
O9	O	1.397947	-0.986754	0.620794
O10	O	1.237425	-0.668833	0.703888
O11	O	1.172939	-0.773098	0.435663
O12	O	1.006377	-0.762993	0.553116
O13	O	1.105183	-0.968993	0.827238
O14	O	0.987732	-0.911244	0.660687
O15	O	1.212818	-0.864497	0.845861
O16	O	1.255889	-1.124669	0.596215
O17	O	1.129687	-1.117013	0.685207
C18	C	0.965271	-0.829526	0.601408
C19	C	0.867904	-0.806295	0.584597
C20	C	1.192797	-1.159311	0.640728
C21	C	1.192846	-1.277157	0.640761
C22	C	0.554772	-1.049945	0.760902
C23	C	0.646253	-1.071780	0.776693
C24	C	0.701670	-1.005410	0.728671
C25	C	0.665597	-0.917203	0.664853
C26	C	0.574108	-0.895371	0.649055
C27	C	0.721006	-0.850836	0.616824
C28	C	0.684933	-0.762629	0.553007
C29	C	0.593452	-0.740801	0.537212
C30	C	0.538035	-0.807170	0.585234
C31	C	0.812496	-0.872668	0.632623
C32	C	0.831831	-0.718094	0.520776
C33	C	0.740350	-0.696259	0.504984
C34	C	1.113695	-1.440051	0.697003
C35	C	1.113388	-1.317372	0.696725
C36	C	1.183843	-1.300270	0.544135
C37	C	1.183360	-1.422840	0.544476
C38	C	1.281541	-1.470384	0.680468
C39	C	1.280623	-1.347981	0.682388
C40	C	1.421336	-0.938483	0.680249
C41	C	1.518699	-0.961744	0.697081
C42	C	1.153351	-0.922226	0.869221
C43	C	1.136514	-0.938559	0.966581
C44	C	1.192942	-0.607419	0.640798
C45	C	1.192977	-0.489600	0.640818
C46	C	1.232264	-0.845655	0.413179
C47	C	1.249270	-0.829064	0.315849
C48	C	1.313223	-0.766986	1.279808
C49	C	1.329047	-0.751644	1.188334
C50	C	1.280915	-0.798371	1.132891
C51	C	1.216957	-0.860444	1.168931
C52	C	1.201136	-0.875795	1.260415
C53	C	1.168828	-0.907179	1.113499
C54	C	1.104870	-0.969252	1.149538
C55	C	1.089052	-0.984600	1.241013
C56	C	1.137183	-0.937873	1.296456
C57	C	1.184649	-0.891828	1.022015
C58	C	1.072562	-1.000637	1.002622
C59	C	1.056738	-1.015979	1.094096
H60	H	0.776158	-1.023193	0.741533
C61	C	1.018685	-1.052867	1.280645
C62	C	1.027943	-1.172961	1.269274
C63	C	0.957568	-1.241218	1.308898
C64	C	0.877936	-1.189382	1.359893
C65	C	0.868675	-1.069282	1.371267
C66	C	0.939049	-1.001024	1.331643
H67	H	1.086895	-1.211339	1.231522
H68	H	0.964424	-1.330125	1.300478
H69	H	0.825840	-1.239910	1.389225
H70	H	0.809723	-1.030904	1.409018
H71	H	0.932193	-0.912118	1.340063
H72	H	0.710966	-0.624440	0.453023
C73	C	0.553777	-0.643779	0.467004
C74	C	0.484319	-0.552003	0.494213
C75	C	0.444649	-0.454982	0.424004
C76	C	0.474438	-0.449736	0.326586
C77	C	0.543899	-0.541516	0.299372
C78	C	0.583569	-0.638537	0.369581
H79	H	0.462265	-0.555883	0.566332
H80	H	0.393229	-0.387041	0.444150
H81	H	0.445071	-0.377915	0.274613
H82	H	0.565954	-0.537636	0.227253
H83	H	0.634990	-0.706478	0.349435
H84	H	1.004662	-1.066519	1.123453
H85	H	1.293803	-0.785875	1.058410
H86	H	1.381124	-0.701107	1.158998
H87	H	0.675618	-1.143600	0.828652
C88	C	0.493815	-1.122943	0.813720
C89	C	0.393186	-1.098928	0.796342
C90	C	0.332227	-1.171932	0.849165
C91	C	0.371898	-1.268952	0.919367
C92	C	0.472532	-1.292972	0.936749
C93	C	0.533490	-1.219968	0.883926
H94	H	0.363815	-1.027103	0.744371
H95	H	0.257731	-1.154151	0.836297
H96	H	0.326772	-1.322995	0.958470
H97	H	0.501903	-1.364796	0.988720
H98	H	0.607987	-1.237749	0.896794
C99	C	1.296860	-1.534422	0.775178
C100	C	1.229137	-1.604995	0.817726
C101	C	1.244444	-1.669032	0.912438
C102	C	1.327473	-1.662496	0.964601
C103	C	1.395202	-1.591920	0.922054
C104	C	1.379895	-1.527883	0.827342
H105	H	1.167669	-1.609836	0.779111
H106	H	1.194306	-1.721278	0.943934
H107	H	1.338804	-1.709901	1.034712
H108	H	1.456670	-1.587079	0.960669
H109	H	1.430032	-1.475638	0.795846
H110	H	1.352410	-0.728955	1.324958
H111	H	0.876953	-0.664052	0.481671
C112	C	1.362899	-1.313267	0.632850
C113	C	1.456302	-1.372235	0.662778
C114	C	1.538577	-1.337522	0.613230
C115	C	1.527448	-1.243840	0.533754
C116	C	1.434041	-1.184867	0.503822
C117	C	1.351767	-1.219580	0.553370
H118	H	1.464544	-1.441589	0.721615
H119	H	1.607723	-1.381178	0.635388
H120	H	1.588353	-1.218143	0.497075
H121	H	1.425800	-1.115513	0.444985
H122	H	1.282620	-1.175924	0.531211
C123	C	1.019603	-1.052035	0.941647
C124	C	0.961717	-0.979111	0.866884
C125	C	0.908762	-1.030506	0.805905
C126	C	0.913692	-1.154824	0.819688
C127	C	0.971580	-1.227755	0.894454
C128	C	1.024535	-1.176361	0.955433
H129	H	0.958066	-0.887077	0.856678
H130	H	0.865910	-0.976517	0.750558
H131	H	0.874491	-1.192869	0.774547
H132	H	0.975231	-1.319790	0.904660
H133	H	1.067388	-1.230350	1.010780
H134	H	0.841857	-0.944487	0.684584
H135	H	1.117169	-1.302455	0.767873
H136	H	0.463542	-0.789395	0.572381
H137	H	1.117294	-1.484703	0.768350
H138	H	1.048109	-1.452052	0.669746
C139	C	1.024258	-1.252153	0.659523
C140	C	1.022439	-1.165264	0.575705
C141	C	0.933305	-1.100046	0.538497
C142	C	0.845990	-1.121718	0.585107
C143	C	0.847805	-1.208611	0.668930
C144	C	0.936939	-1.273829	0.706139
H145	H	1.087078	-1.149218	0.541197
H146	H	0.931962	-1.035721	0.476445
H147	H	0.780008	-1.073439	0.557564
H148	H	0.783166	-1.224658	0.703439
H149	H	0.938282	-1.338154	0.768190
H150	H	1.239467	-1.454946	0.500326
C151	C	1.096541	-1.435212	0.501617
C152	C	1.099649	-1.488707	0.418007
C153	C	1.012826	-1.501072	0.375150
C154	C	0.922896	-1.459941	0.415901
C155	C	0.919784	-1.406442	0.499516
C156	C	1.006607	-1.394077	0.542374
H157	H	1.166224	-1.519158	0.387836
H158	H	1.015130	-1.540676	0.313252
H159	H	0.858624	-1.469094	0.384176
H160	H	0.853209	-1.375991	0.529687
H161	H	1.004303	-1.354473	0.604271
H162	H	1.124303	-0.950362	1.370942
H163	H	1.240465	-1.273756	0.500427
H164	H	1.120346	-1.250226	0.512165
H165	H	1.287703	-1.334748	0.753579
H166	H	1.340412	-1.503081	0.639741
H167	H	1.236723	-0.841287	0.992680
