data_functionalizedCrystal
_audit_creation_method	'MofGen! by Chris Wilmer'
_symmetry_space_group_name_H-M	'P1'
_symmetry_Int_Tables_number	1
_symmetry_cell_setting	triclinic
loop_
_symmetry_equiv_pos_as_xyz
  x,y,z
_cell_length_a	14.044220
_cell_length_b	14.044220
_cell_length_c	18.366186
_cell_angle_alpha	89.993222
_cell_angle_beta	89.996026
_cell_angle_gamma	93.188878
loop_
_atom_site_label
_atom_site_type_symbol
_atom_site_fract_x
_atom_site_fract_y
_atom_site_fract_z
O1	O	1.277174	0.230169	-0.060475
O2	O	1.000503	0.221864	-0.060493
O3	O	1.134686	0.087681	-0.060477
O4	O	1.142991	0.364352	-0.060491
O5	O	1.134660	0.087671	0.060622
O6	O	1.000477	0.221854	0.060606
O7	O	1.277149	0.230160	0.060624
Zn8	Zn	1.138809	0.226006	0.079842
Zn9	Zn	1.138843	0.226018	-0.079711
O10	O	1.142966	0.364343	0.060608
C11	C	0.964868	0.218223	0.000054
C12	C	0.858725	0.207379	0.000047
C13	C	0.664388	0.187553	0.000063
C14	C	0.613258	0.264467	0.000062
C15	C	0.505122	0.253435	0.000070
C16	C	0.772534	0.198583	0.000054
C17	C	1.131037	0.052054	0.000072
C18	C	1.120193	-0.054088	0.000073
C19	C	1.100366	-0.248426	0.000061
C20	C	1.177281	-0.299556	0.000064
C21	C	1.166249	-0.407692	0.000057
C22	C	1.111397	-0.140280	0.000067
C23	C	1.312783	0.233800	0.000075
C24	C	1.418926	0.244645	0.000077
C25	C	1.146614	0.399969	0.000057
C26	C	1.157459	0.506112	0.000052
N27	N	1.138793	0.225997	0.188733
N28	N	1.138866	0.226020	-0.188603
C29	C	1.198233	0.166615	0.226841
C30	C	1.198239	0.166611	0.303069
C31	C	1.138815	0.226007	0.341186
C32	C	1.079363	0.285393	0.303069
C33	C	1.079352	0.285388	0.226843
C34	C	1.133658	0.311898	0.461942
C35	C	1.133676	0.311905	0.538167
C36	C	1.138843	0.226021	0.576294
C37	C	1.144012	0.140129	0.538186
C38	C	1.144001	0.140124	0.461960
C39	C	1.138819	0.226018	0.423841
C40	C	1.198292	0.166630	0.697056
C41	C	1.198291	0.166624	0.773285
C42	C	1.079421	0.285415	0.773285
C43	C	1.079416	0.285412	0.697057
C44	C	1.138857	0.226021	0.658947
H45	H	0.626951	0.113425	0.000070
O46	O	1.011879	-0.292973	0.000153
C47	C	0.861772	-0.316908	0.062912
C48	C	0.961945	-0.266368	0.062887
H49	H	0.821379	-0.295433	0.113634
H50	H	0.821264	-0.295349	0.012267
H51	H	0.868543	-0.397423	0.062874
H52	H	0.955262	-0.185844	0.062950
H53	H	1.002417	-0.288005	0.113527
H54	H	1.246631	0.118253	0.195814
O55	O	1.265745	-0.254944	-0.000050
C56	C	1.415914	-0.231107	-0.062736
C57	C	1.315755	-0.281677	-0.062712
H58	H	1.456383	-0.252716	-0.113385
H59	H	1.409231	-0.150578	-0.062777
H60	H	1.456302	-0.252640	-0.012028
H61	H	1.275311	-0.260221	-0.113411
H62	H	1.322505	-0.362195	-0.062633
O63	O	1.256066	0.108892	0.339984
C64	C	1.373922	-0.008976	0.331946
C65	C	1.308501	0.056363	0.290052
H66	H	1.416318	-0.051478	0.291594
H67	H	1.425163	0.036261	0.367604
H68	H	1.328658	-0.060134	0.367663
H69	H	1.353689	0.107531	0.254295
H70	H	1.257256	0.011066	0.254441
H71	H	0.650697	0.338600	0.000055
O72	O	1.021745	0.343246	0.810223
C73	C	0.979869	0.504494	0.833569
C74	C	1.045238	0.439112	0.791674
H75	H	0.998853	0.582016	0.818599
H76	H	0.902336	0.485620	0.818579
H77	H	0.990067	0.494245	0.894593
H78	H	1.035124	0.449325	0.730640
H79	H	1.122747	0.458001	0.806725
H80	H	1.246691	0.118262	0.804313
O81	O	1.148860	0.056732	0.424871
C82	C	1.072731	-0.052450	0.338888
C83	C	1.067137	0.042029	0.380828
H84	H	1.006657	-0.064376	0.303282
H85	H	1.139190	-0.049150	0.303132
H86	H	1.076462	-0.113806	0.379249
H87	H	1.063369	0.103436	0.340520
H88	H	1.000688	0.038648	0.416595
H89	H	1.148219	0.070194	0.569228
H90	H	1.246690	0.118267	0.666026
O91	O	1.021583	0.342969	0.660000
C92	C	0.892953	0.352202	0.573914
C93	C	0.958374	0.286906	0.615848
H94	H	0.841846	0.306904	0.538195
H95	H	0.850411	0.394640	0.614213
H96	H	0.938226	0.403418	0.538249
H97	H	0.913174	0.235635	0.651513
H98	H	1.000922	0.244535	0.575509
O99	O	1.128610	0.395416	0.575068
C100	C	1.118402	0.565799	0.567002
C101	C	1.124113	0.471287	0.525123
H102	H	1.114785	0.627168	0.526640
H103	H	1.051872	0.562508	0.602681
H104	H	1.184399	0.577694	0.602696
H105	H	1.058165	0.459334	0.489389
H106	H	1.190685	0.474623	0.489490
O107	O	1.128773	0.395285	0.424825
C108	C	1.204829	0.504450	0.338768
C109	C	1.210471	0.409991	0.380745
H110	H	1.270882	0.516380	0.303131
H111	H	1.138351	0.501116	0.303040
H112	H	1.201101	0.565821	0.379106
H113	H	1.214236	0.348570	0.340460
H114	H	1.276938	0.413407	0.416485
O115	O	1.021589	0.342957	0.340174
C116	C	0.892900	0.352178	0.426223
C117	C	0.958287	0.286882	0.384261
H118	H	0.841690	0.306866	0.461865
H119	H	0.938101	0.403368	0.461945
H120	H	0.850456	0.394645	0.385876
H121	H	1.000743	0.244353	0.424555
H122	H	0.913032	0.235753	0.348527
O123	O	1.021585	0.343169	0.189935
C124	C	0.903641	0.460948	0.197978
C125	C	0.969028	0.395573	0.239869
H126	H	0.861117	0.503319	0.238331
H127	H	0.948843	0.512213	0.162301
H128	H	0.852505	0.415652	0.162280
H129	H	1.020176	0.440793	0.275606
H130	H	0.923767	0.344304	0.275499
