data_functionalizedCrystal
_audit_creation_method	'MofGen! by Chris Wilmer'
_symmetry_space_group_name_H-M	'P1'
_symmetry_Int_Tables_number	1
_symmetry_cell_setting	triclinic
loop_
_symmetry_equiv_pos_as_xyz
  x,y,z
_cell_length_a	19.188905
_cell_length_b	14.519731
_cell_length_c	13.596369
_cell_angle_alpha	89.993029
_cell_angle_beta	89.987547
_cell_angle_gamma	83.411704
loop_
_atom_site_label
_atom_site_type_symbol
_atom_site_fract_x
_atom_site_fract_y
_atom_site_fract_z
O1	O	0.926573	0.115026	-0.081956
O2	O	1.259906	0.448359	0.251378
O3	O	1.593240	0.781692	0.584711
O4	O	0.723315	0.130549	-0.081922
O5	O	1.056649	0.463882	0.251411
O6	O	1.389982	0.797216	0.584744
O7	O	0.830325	-0.011484	-0.081931
O8	O	1.163659	0.321850	0.251402
O9	O	1.496992	0.655183	0.584736
O10	O	0.819563	0.257059	-0.081947
O11	O	1.152896	0.590392	0.251386
O12	O	1.486229	0.923725	0.584720
O13	O	0.830315	-0.011491	0.081652
O14	O	1.163648	0.321842	0.414985
O15	O	1.496981	0.655175	0.748319
O16	O	0.723305	0.130542	0.081661
O17	O	1.056638	0.463875	0.414994
O18	O	1.389971	0.797208	0.748327
O19	O	0.926562	0.115018	0.081627
O20	O	1.259896	0.448352	0.414961
O21	O	1.593229	0.781685	0.748294
Zn22	Zn	0.824932	0.122779	0.107616
Zn23	Zn	1.158265	0.456112	0.440950
Zn24	Zn	1.491598	0.789445	0.774283
Zn25	Zn	0.824946	0.122789	-0.107911
Zn26	Zn	1.158279	0.456122	0.225422
Zn27	Zn	1.491612	0.789455	0.558755
O28	O	0.819552	0.257051	0.081636
O29	O	1.152885	0.590384	0.414969
O30	O	1.486219	0.923718	0.748302
C31	C	0.697297	0.130046	-0.000127
C32	C	1.030630	0.463380	0.333207
C33	C	1.363963	0.796713	0.666540
C34	C	0.619786	0.128549	-0.000114
C35	C	0.953119	0.461882	0.333220
C36	C	1.286453	0.795216	0.666553
C37	C	0.829816	-0.045844	-0.000139
C38	C	1.163149	0.287490	0.333194
C39	C	1.496482	0.620823	0.666527
C40	C	0.828305	-0.148214	-0.000138
C41	C	1.161638	0.185119	0.333195
C42	C	1.494971	0.518452	0.666528
C43	C	0.583397	0.127834	-0.089285
C44	C	0.916731	0.461167	0.244048
C45	C	1.250064	0.794500	0.577382
C46	C	0.510569	0.126416	-0.089297
C47	C	0.843902	0.459750	0.244036
C48	C	1.177235	0.793083	0.577369
C49	C	0.474133	0.125696	-0.000133
C50	C	0.807466	0.459029	0.333201
C51	C	1.140800	0.792362	0.666534
C52	C	0.510530	0.126416	0.089051
C53	C	0.843863	0.459750	0.422384
C54	C	1.177197	0.793083	0.755717
C55	C	0.583356	0.127843	0.089060
C56	C	0.916690	0.461176	0.422394
C57	C	1.250023	0.794510	0.755727
N58	N	0.364910	0.070972	0.066227
N59	N	0.698244	0.404306	0.399560
N60	N	1.031577	0.737639	0.732894
N61	N	0.295729	0.069615	0.066212
N62	N	0.629062	0.402949	0.399545
N63	N	0.962395	0.736282	0.732878
C64	C	0.254711	0.121400	-0.000156
C65	C	0.588044	0.454733	0.333177
C66	C	0.921378	0.788066	0.666510
N67	N	0.285490	0.174581	-0.066524
N68	N	0.618823	0.507914	0.266810
N69	N	0.952156	0.841248	0.600143
N70	N	0.354678	0.175934	-0.066511
N71	N	0.688012	0.509267	0.266822
N72	N	1.021345	0.842601	0.600155
C73	C	0.395165	0.124150	-0.000133
C74	C	0.728498	0.457483	0.333200
C75	C	1.061832	0.790816	0.666533
C76	C	0.139353	0.119149	-0.089347
C77	C	0.472686	0.452482	0.243986
C78	C	0.806020	0.785816	0.577319
C79	C	0.066522	0.117737	-0.089356
C80	C	0.399856	0.451071	0.243978
C81	C	0.733189	0.784404	0.577311
C82	C	0.066486	0.117728	0.088995
C83	C	0.399819	0.451061	0.422328
C84	C	0.733152	0.784395	0.755662
C85	C	0.139314	0.119149	0.089001
C86	C	0.472647	0.452482	0.422334
C87	C	0.805981	0.785816	0.755667
C88	C	0.175744	0.119855	-0.000173
C89	C	0.509077	0.453188	0.333160
C90	C	0.842410	0.786522	0.666494
C91	C	0.952581	0.115521	-0.000171
C92	C	1.285914	0.448854	0.333163
C93	C	1.619247	0.782188	0.666496
C94	C	1.030092	0.117018	-0.000190
C95	C	1.363425	0.450352	0.333143
C96	C	1.696758	0.783685	0.666476
C97	C	0.827077	-0.231351	-0.000140
C98	C	1.160410	0.101982	0.333193
C99	C	1.493743	0.435316	0.666526
C100	C	0.825542	-0.335650	-0.000148
C101	C	1.158876	-0.002317	0.333186
C102	C	1.492209	0.331017	0.666519
C103	C	0.824325	-0.418781	-0.000154
C104	C	1.157658	-0.085448	0.333179
C105	C	1.490991	0.247885	0.666513
C106	C	0.822791	-0.523087	-0.000159
C107	C	1.156124	-0.189754	0.333174
C108	C	1.489457	0.143580	0.666507
C109	C	0.820062	0.291411	-0.000158
C110	C	1.153395	0.624744	0.333175
C111	C	1.486728	0.958078	0.666509
C112	C	0.821573	0.393782	-0.000165
C113	C	1.154906	0.727115	0.333168
C114	C	1.488240	1.060448	0.666501
N115	N	0.824927	0.122771	0.254708
N116	N	1.158261	0.456105	0.588041
N117	N	1.491594	0.789438	0.921375
N118	N	0.824956	0.122788	-0.255003
N119	N	1.158289	0.456122	0.078330
N120	N	1.491622	0.789455	0.411664
C121	C	0.824945	0.122790	0.655999
C122	C	1.158278	0.456123	0.989332
C123	C	1.491611	0.789456	1.322666
C124	C	0.824938	0.122788	0.544348
C125	C	1.158271	0.456121	0.877681
C126	C	1.491605	0.789454	1.211014
C127	C	0.824936	0.122781	0.455357
C128	C	1.158270	0.456115	0.788690
C129	C	1.491603	0.789448	1.122024
C130	C	0.824929	0.122778	0.343699
C131	C	1.158262	0.456111	0.677032
C132	C	1.491595	0.789445	1.010365
H133	H	0.613054	0.128409	-0.161898
H134	H	0.946387	0.461742	0.171436
H135	H	1.279721	0.795075	0.504769
C136	C	0.026417	0.116937	0.187080
C137	C	0.359751	0.450271	0.520414
C138	C	0.693084	0.783604	0.853747
C139	C	-0.031488	0.196019	0.211596
C140	C	0.301845	0.529353	0.544930
C141	C	0.635178	0.862686	0.878263
C142	C	-0.071560	0.195233	0.309686
C143	C	0.261773	0.528566	0.643019
C144	C	0.595106	0.861899	0.976352
C145	C	-0.053727	0.115364	0.383259
C146	C	0.279607	0.448698	0.716592
C147	C	0.612940	0.782031	1.049925
C148	C	0.004182	0.036276	0.358744
C149	C	0.337515	0.369610	0.692078
C150	C	0.670849	0.702943	1.025411
C151	C	0.044254	0.037063	0.260655
C152	C	0.377587	0.370396	0.593988
C153	C	0.710920	0.703730	0.927322
H154	H	-0.044692	0.255148	0.157132
H155	H	0.288641	0.588481	0.490465
H156	H	0.621974	0.921815	0.823798
H157	H	-0.114428	0.253779	0.327832
H158	H	0.218905	0.587113	0.661166
H159	H	0.552239	0.920446	0.994499
H160	H	-0.083390	0.114782	0.455870
H161	H	0.249943	0.448116	0.789203
H162	H	0.583276	0.781449	1.122537
H163	H	0.017386	-0.022852	0.413209
H164	H	0.350719	0.310481	0.746542
H165	H	0.684053	0.643814	1.079876
H166	H	0.087122	-0.021484	0.242508
H167	H	0.420455	0.311850	0.575842
H168	H	0.753788	0.645183	0.909175
H169	H	0.612983	0.128426	0.161677
H170	H	0.946317	0.461760	0.495010
H171	H	1.279650	0.795093	0.828343
H172	H	0.169014	0.119734	-0.161958
H173	H	0.502348	0.453067	0.171376
H174	H	0.835681	0.786400	0.504709
H175	H	0.480859	0.125832	0.161649
H176	H	0.814192	0.459165	0.494982
H177	H	1.147526	0.792499	0.828316
H178	H	0.036895	0.117161	-0.161973
H179	H	0.370229	0.450494	0.171361
H180	H	0.703562	0.783827	0.504694
H181	H	0.168943	0.119725	0.161614
H182	H	0.502276	0.453059	0.494947
H183	H	0.835609	0.786392	0.828281
H184	H	0.480935	0.125835	-0.161914
H185	H	0.814268	0.459169	0.171420
H186	H	1.147602	0.792502	0.504753
