data_functionalizedCrystal
_audit_creation_method	'MofGen! by Chris Wilmer'
_symmetry_space_group_name_H-M	'P1'
_symmetry_Int_Tables_number	1
_symmetry_cell_setting	triclinic
loop_
_symmetry_equiv_pos_as_xyz
  x,y,z
_cell_length_a	19.077236
_cell_length_b	16.120444
_cell_length_c	19.077174
_cell_angle_alpha	95.282088
_cell_angle_beta	85.294282
_cell_angle_gamma	95.330924
loop_
_atom_site_label
_atom_site_type_symbol
_atom_site_fract_x
_atom_site_fract_y
_atom_site_fract_z
Zn1	Zn	1.081291	-0.302198	-0.454398
Zn2	Zn	1.070934	-0.436764	-0.342043
Zn3	Zn	0.958672	-0.302210	-0.331782
Zn4	Zn	0.957381	-0.447513	-0.455589
O5	O	1.017070	-0.372171	-0.395953
O6	O	1.178756	-0.315544	-0.443290
O7	O	1.052247	-0.414421	-0.241847
O8	O	0.979813	-0.185083	-0.343255
O9	O	1.171146	-0.414409	-0.360743
O10	O	1.069900	-0.185073	-0.433340
O11	O	0.969769	-0.315566	-0.234308
O12	O	0.859662	-0.325989	-0.344409
O13	O	0.977613	-0.432730	-0.554266
O14	O	0.858714	-0.432743	-0.435370
O15	O	1.068649	-0.325967	-0.553391
O16	O	1.050996	-0.555315	-0.361898
O17	O	0.967569	-0.563213	-0.445320
C18	C	0.833560	-0.380534	-0.388906
C19	C	0.755054	-0.384133	-0.385909
C20	C	0.722134	-0.334438	-0.427551
C21	C	0.648369	-0.337815	-0.424729
C22	C	0.607525	-0.390892	-0.380267
C23	C	0.640451	-0.440589	-0.338620
C24	C	0.714215	-0.437207	-0.341440
C25	C	0.386490	-0.406513	-0.367216
C26	C	0.312722	-0.409893	-0.364401
C27	C	0.320645	-0.307118	-0.450509
C28	C	0.394409	-0.303744	-0.453327
C29	C	0.427328	-0.353438	-0.411678
N30	N	0.532126	-0.394347	-0.377383
N31	N	0.502727	-0.349978	-0.414559
C32	C	1.008038	-0.589634	-0.404868
C33	C	1.004240	-0.682663	-0.408708
C34	C	1.036951	-0.890502	-0.376193
C35	C	0.997319	-0.852983	-0.415726
C36	C	1.001171	-0.758208	-0.411820
C37	C	1.033100	-0.985286	-0.380098
C38	C	1.201295	-0.363776	-0.403028
C39	C	1.279801	-0.360198	-0.406043
C40	C	1.024142	-0.380546	-0.580172
C41	C	1.027156	-0.384115	-0.658675
C42	C	1.026156	-0.153859	-0.387020
C43	C	1.030028	-0.060828	-0.383213
C44	C	0.985632	-0.334324	-0.691631
C45	C	0.988461	-0.337685	-0.765393
C46	C	1.032818	-0.390833	-0.806199
C47	C	1.074344	-0.440629	-0.773238
C48	C	1.071511	-0.437273	-0.699477
C49	C	1.045893	-0.406395	-1.027221
C50	C	1.048724	-0.409746	-1.100987
C51	C	0.962840	-0.306802	-1.093137
C52	C	0.960014	-0.303447	-1.019375
C53	C	1.001537	-0.353247	-0.986421
N54	N	1.035713	-0.394267	-0.881596
N55	N	0.998638	-0.349816	-0.911026
C56	C	1.010068	-0.363766	-0.212450
C57	C	1.007200	-0.359955	-0.133943
H58	H	0.755383	-0.291219	-0.463758
O59	O	0.612858	-0.284216	-0.469641
H60	H	0.653652	-0.246747	-0.501037
H61	H	0.427659	-0.260527	-0.489535
H62	H	0.949516	-0.291041	-0.658412
O63	O	0.285141	-0.253509	-0.495419
H64	H	0.226987	-0.264767	-0.485985
O65	O	0.749725	-0.490802	-0.296521
H66	H	0.782790	-0.533333	-0.331102
O67	O	1.085732	-0.838770	-0.327486
H68	H	1.054355	-0.798803	-0.288706
H69	H	0.960496	-0.892040	-0.452505
O70	O	0.268665	-0.467137	-0.316440
H71	H	0.303947	-0.501118	-0.287946
O72	O	1.116304	-0.490967	-0.663927
H73	H	1.147631	-0.528480	-0.704692
H74	H	1.084848	-0.453027	-1.134210
H75	H	0.954645	-0.297143	-0.792222
H76	H	0.923892	-0.260170	-0.986156
O77	O	0.421993	-0.460105	-0.322294
H78	H	0.381198	-0.497584	-0.290909
O79	O	0.596400	-0.497831	-0.290660
H80	H	0.608303	-0.563440	-0.305910
O81	O	0.918066	-0.253086	-1.128685
H82	H	0.881857	-0.293705	-1.162444
O83	O	1.090694	-0.460083	-0.991681
H84	H	1.122024	-0.497589	-1.032450
H85	H	1.110456	-0.483908	-0.806468
