data_functionalizedCrystal
_audit_creation_method	'MofGen! by Chris Wilmer'
_symmetry_space_group_name_H-M	'P1'
_symmetry_Int_Tables_number	1
_symmetry_cell_setting	triclinic
loop_
_symmetry_equiv_pos_as_xyz
  x,y,z
_cell_length_a	16.120297
_cell_length_b	13.897449
_cell_length_c	16.120484
_cell_angle_alpha	92.925700
_cell_angle_beta	84.385569
_cell_angle_gamma	87.125908
loop_
_atom_site_label
_atom_site_type_symbol
_atom_site_fract_x
_atom_site_fract_y
_atom_site_fract_z
Zn1	Zn	-0.489546	-1.424978	0.356754
Zn2	Zn	-0.356856	-1.424857	0.489444
Zn3	Zn	-0.349782	-1.272288	0.349690
Zn4	Zn	-0.496568	-1.255017	0.496484
O5	O	-0.423188	-1.344285	0.423093
O6	O	-0.471966	-1.559942	0.374366
O7	O	-0.238957	-1.411795	0.465002
O8	O	-0.362423	-1.299821	0.233661
O9	O	-0.374480	-1.559852	0.471853
O10	O	-0.465107	-1.412002	0.238852
O11	O	-0.233759	-1.299703	0.362325
O12	O	-0.369232	-1.135017	0.369152
O13	O	-0.612598	-1.270386	0.483852
O14	O	-0.477075	-1.122329	0.477001
O15	O	-0.607439	-1.395256	0.381193
O16	O	-0.381289	-1.395048	0.607343
O17	O	-0.483934	-1.270268	0.612516
C18	C	-0.423148	-1.093674	0.423075
C19	C	-0.423152	-0.986459	0.423088
C20	C	-0.423162	-0.899389	0.423090
C21	C	-0.423183	-0.790155	0.423096
C22	C	-0.641193	-1.330908	0.434096
C23	C	-0.734094	-1.325208	0.438784
C24	C	-0.904183	-1.314766	0.447326
C25	C	-0.943032	-1.374010	0.398609
C26	C	-1.037676	-1.368200	0.403362
C27	C	-0.809531	-1.320574	0.442575
C28	C	-0.206028	-1.357669	0.412073
C29	C	-0.113116	-1.363571	0.407149
C30	C	-0.434159	-1.330796	0.640258
C31	C	-0.438881	-1.325112	0.733164
C32	C	-0.423219	-0.595875	0.423108
C33	C	-0.423205	-0.703090	0.423104
C34	C	-0.412192	-1.357852	0.205081
C35	C	-0.407506	-1.363633	0.112177
C36	C	-0.447518	-1.314739	0.903264
C37	C	-0.398872	-1.374003	0.942083
C38	C	-0.403678	-1.368231	1.036732
C39	C	-0.442713	-1.320509	0.808606
H40	H	-0.905212	-1.429093	0.353331
H41	H	-0.942001	-1.259687	0.492600
H42	H	-0.353614	-1.429074	0.904232
H43	H	-0.492771	-1.259671	0.941111
