data_functionalizedCrystal
_audit_creation_method	'MofGen! by Chris Wilmer'
_symmetry_space_group_name_H-M	'P1'
_symmetry_Int_Tables_number	1
_symmetry_cell_setting	triclinic
loop_
_symmetry_equiv_pos_as_xyz
  x,y,z
_cell_length_a	16.974897
_cell_length_b	15.500227
_cell_length_c	16.992695
_cell_angle_alpha	86.978357
_cell_angle_beta	87.027201
_cell_angle_gamma	96.487168
loop_
_atom_site_label
_atom_site_type_symbol
_atom_site_fract_x
_atom_site_fract_y
_atom_site_fract_z
O1	O	1.062461	0.146255	0.092580
O2	O	0.832289	0.130158	0.106111
O3	O	0.946452	0.138135	-0.014793
O4	O	0.948298	0.138278	0.213483
O5	O	0.939523	-0.006238	-0.007485
O6	O	0.825360	-0.014215	0.113419
O7	O	1.055531	0.001882	0.099888
Cu8	Cu	0.939813	-0.019349	0.107320
Cu9	Cu	0.948008	0.151389	0.098678
O10	O	0.941369	-0.006095	0.220791
C11	C	0.799237	0.055903	0.109384
C12	C	0.711074	0.049737	0.108239
N13	N	0.934055	-0.139436	0.113399
C14	C	0.673424	0.125532	0.103720
C15	C	0.590584	0.119725	0.102658
C16	C	0.545395	0.038124	0.106109
C17	C	0.583050	-0.037676	0.110631
C18	C	0.665888	-0.031869	0.111699
C19	C	0.297241	0.012318	0.103348
C20	C	0.214397	0.006517	0.102278
C21	C	0.221936	0.163919	0.094306
C22	C	0.304776	0.169719	0.095370
C23	C	0.342424	0.093919	0.099895
N24	N	0.460719	0.032187	0.105021
N25	N	0.427098	0.099856	0.100989
C26	C	0.982449	-0.181331	0.062186
C27	C	0.978102	-0.272208	0.066790
C28	C	0.925364	-0.321187	0.122611
C29	C	0.876965	-0.279286	0.173826
C30	C	0.881309	-0.188411	0.169217
C31	C	0.909716	-0.595747	0.139200
C32	C	0.905378	-0.686628	0.143806
C33	C	1.006514	-0.679544	0.036769
C34	C	1.010856	-0.588667	0.032168
C35	C	0.962454	-0.546774	0.083380
C36	C	0.920921	-0.414078	0.127320
C37	C	0.966893	-0.453886	0.078667
C38	C	1.088584	0.076140	0.096614
C39	C	1.176747	0.082311	0.097759
C40	C	0.940613	0.065783	-0.040341
C41	C	0.933530	0.065288	-0.127353
N42	N	0.953772	0.271477	0.092593
C43	C	1.001874	0.070066	-0.177905
C44	C	0.995214	0.069609	-0.259661
C45	C	0.920209	0.064366	-0.290864
C46	C	0.851860	0.059590	-0.240305
C47	C	0.858521	0.060054	-0.158551
C48	C	0.892603	0.062448	-0.534336
C49	C	0.885947	0.061982	-0.616097
C50	C	1.029302	0.072002	-0.635448
C51	C	1.035956	0.072460	-0.553691
C52	C	0.967607	0.067688	-0.503139
N53	N	0.913400	0.063896	-0.374432
N54	N	0.974417	0.068165	-0.419573
C55	C	0.947207	0.066259	0.246339
C56	C	0.954291	0.066760	0.333350
H57	H	0.710211	0.191980	0.100907
H58	H	0.877983	-0.453964	0.172772
C59	C	0.606359	0.275891	0.094862
C60	C	0.549201	0.203042	0.097678
H61	H	0.580809	0.327329	0.091781
H62	H	0.635361	0.274674	0.141152
H63	H	0.641662	0.275083	0.049733
H64	H	0.513901	0.203847	0.142810
H65	H	0.520185	0.204260	0.051382
C66	C	1.081973	-0.183466	-0.043157
C67	C	1.040418	-0.127497	0.000824
H68	H	1.117756	-0.150232	-0.081044
H69	H	1.110881	-0.216754	-0.008845
H70	H	1.045460	-0.221362	-0.069420
H71	H	1.076930	-0.089606	0.027092
H72	H	1.011508	-0.094195	-0.033493
C73	C	1.142903	0.079940	-0.205253
C74	C	1.084323	0.075835	-0.143612
H75	H	1.193805	0.083510	-0.184082
H76	H	1.134911	0.029206	-0.234190
H77	H	1.139730	0.129897	-0.239285
H78	H	1.087493	0.025873	-0.109583
H79	H	1.092318	0.126574	-0.114662
C80	C	0.303905	0.324722	0.087382
C81	C	0.354446	0.259418	0.091573
H82	H	0.334570	0.380098	0.085039
H83	H	0.274585	0.319396	0.041426
H84	H	0.268291	0.318966	0.132847
H85	H	0.390056	0.265170	0.046105
H86	H	0.383779	0.264746	0.137533
C87	C	0.789528	-0.092857	0.116880
C88	C	0.707277	-0.115184	0.116666
H89	H	0.815077	-0.144295	0.119954
H90	H	0.807796	-0.059360	0.069710
H91	H	0.801494	-0.059784	0.161130
H92	H	0.695311	-0.148252	0.072412
H93	H	0.689003	-0.148695	0.163841
C94	C	0.744910	0.052150	-0.588763
C95	C	0.803496	0.056233	-0.650397
H96	H	0.694013	0.048607	-0.609941
H97	H	0.748061	0.002195	-0.554734
H98	H	0.752918	0.102889	-0.559823
H99	H	0.795491	0.005490	-0.679334
H100	H	0.800343	0.106193	-0.684439
C101	C	0.490166	-0.135202	0.046669
C102	C	0.533381	-0.127376	0.114424
H103	H	0.459508	-0.190582	0.049008
H104	H	0.455889	-0.090898	0.043830
H105	H	0.525797	-0.129447	0.001216
H106	H	0.497750	-0.133125	0.159876
H107	H	0.567661	-0.171692	0.117271
C108	C	0.741949	0.125869	-0.120638
C109	C	0.783395	0.054800	-0.102981
H110	H	0.695566	0.122624	-0.086334
H111	H	0.774909	0.178340	-0.113758
H112	H	0.727253	0.124832	-0.173794
H113	H	0.798096	0.055841	-0.049825
H114	H	0.750429	0.002316	-0.109853
H115	H	0.191275	0.225631	0.090623
C116	C	1.176987	0.082319	-0.581033
C117	C	1.118403	0.078222	-0.519396
H118	H	1.227886	0.085877	-0.559859
H119	H	1.168988	0.031589	-0.609973
H120	H	1.173824	0.132282	-0.615063
H121	H	1.121563	0.028255	-0.485369
H122	H	1.126405	0.128957	-0.490443
C123	C	0.215259	-0.148494	0.110277
C124	C	0.164723	-0.083187	0.106076
H125	H	0.184591	-0.203868	0.112625
H126	H	0.250875	-0.142745	0.064823
H127	H	0.244577	-0.143166	0.156243
H128	H	0.135410	-0.088511	0.060107
H129	H	0.129094	-0.088939	0.151535
H130	H	0.327883	-0.049404	0.107028
H131	H	1.050867	0.073498	-0.300818
H132	H	1.053799	-0.548790	-0.013285
C133	C	0.820479	0.131379	-0.434940
C134	C	0.817471	0.057198	-0.478781
H135	H	0.774089	0.128138	-0.400646
H136	H	0.866090	0.134562	-0.404653
H137	H	0.823282	0.181744	-0.469792
H138	H	0.814674	0.006833	-0.443930
H139	H	0.771847	0.054006	-0.509071
C140	C	0.983690	-0.373673	-0.034789
C141	C	1.031304	-0.318252	0.010496
H142	H	1.016538	-0.402092	-0.069548
H143	H	0.951668	-0.415849	-0.000891
H144	H	0.950580	-0.340659	-0.064649
H145	H	1.064409	-0.351267	0.040361
H146	H	1.063339	-0.276070	-0.023406
C147	C	0.724056	-0.023305	-0.245219
C148	C	0.769411	0.053831	-0.274597
H149	H	0.673152	-0.026857	-0.266384
H150	H	0.749994	-0.071660	-0.260054
H151	H	0.718251	-0.023701	-0.189294
H152	H	0.775221	0.054224	-0.330522
H153	H	0.743467	0.102198	-0.259767
C154	C	0.809321	-0.611890	0.245469
C155	C	0.856520	-0.549706	0.195498
H156	H	0.776482	-0.583461	0.280229
H157	H	0.777026	-0.649487	0.214750
H158	H	0.842446	-0.644886	0.275326
H159	H	0.823394	-0.516714	0.165635
H160	H	0.888817	-0.512094	0.226220
H161	H	1.084947	0.075889	-0.676615
C162	C	1.043152	-0.704874	-0.097700
C163	C	1.059705	-0.725596	-0.019530
H164	H	1.075993	-0.733302	-0.132459
H165	H	0.988962	-0.723523	-0.105235
H166	H	1.053290	-0.643741	-0.108422
H167	H	1.049561	-0.786728	-0.008806
H168	H	1.113908	-0.706951	-0.011991
C169	C	0.825406	-0.421734	0.228423
C170	C	0.818996	-0.333122	0.235188
H171	H	0.789623	-0.454967	0.266312
H172	H	0.812762	-0.437471	0.176904
H173	H	0.878182	-0.432860	0.237480
H174	H	0.766222	-0.321995	0.226125
H175	H	0.831636	-0.317379	0.286719
H176	H	0.862431	-0.726504	0.189265
H177	H	0.841900	-0.154301	0.210919
H178	H	1.009829	-0.414004	0.033215
