data_functionalizedCrystal
_audit_creation_method	'MofGen! by Chris Wilmer'
_symmetry_space_group_name_H-M	'P1'
_symmetry_Int_Tables_number	1
_symmetry_cell_setting	triclinic
loop_
_symmetry_equiv_pos_as_xyz
  x,y,z
_cell_length_a	12.759394
_cell_length_b	12.759401
_cell_length_c	12.759393
_cell_angle_alpha	90.020938
_cell_angle_beta	89.976284
_cell_angle_gamma	89.995455
loop_
_atom_site_label
_atom_site_type_symbol
_atom_site_fract_x
_atom_site_fract_y
_atom_site_fract_z
Zn1	Zn	0.418173	1.606352	0.594070
Zn2	Zn	0.593888	1.606279	0.418411
Zn3	Zn	0.418229	1.430650	0.418405
Zn4	Zn	0.593815	1.430678	0.594048
O5	O	0.506026	1.518490	0.506233
O6	O	0.441489	1.753363	0.570780
O7	O	0.570641	1.582939	0.271389
O8	O	0.271200	1.453977	0.441714
O9	O	0.570587	1.753309	0.441724
O10	O	0.271159	1.583063	0.570774
O11	O	0.441584	1.453906	0.271384
O12	O	0.441513	1.283633	0.441693
O13	O	0.570462	1.454024	0.741072
O14	O	0.570516	1.283653	0.570737
O15	O	0.441418	1.583090	0.741088
O16	O	0.740900	1.582966	0.441702
O17	O	0.740846	1.453953	0.570742
C18	C	0.506013	1.245522	0.506212
C19	C	0.506033	1.128746	0.506228
C20	C	0.231993	1.518525	0.506246
C21	C	0.115216	1.518540	0.506251
C22	C	0.573307	1.073922	0.573316
C23	C	0.573311	0.964198	0.573337
C24	C	0.438765	0.964131	0.439173
C25	C	0.438756	1.073853	0.439159
C26	C	0.611010	0.814309	0.697202
C27	C	0.678300	0.759482	0.764280
C28	C	0.780831	0.795101	0.780240
C29	C	0.816092	0.885545	0.729106
C30	C	0.748808	0.940367	0.662020
C31	C	0.646262	0.904750	0.646080
C32	C	0.401068	1.223743	0.315292
C33	C	0.333788	1.278567	0.248200
C34	C	0.231255	1.242951	0.232229
C35	C	0.195998	1.152503	0.283345
C36	C	0.263278	1.097679	0.350437
C37	C	0.365809	1.133303	0.366409
C38	C	0.115239	1.384131	0.371852
C39	C	0.060390	1.316939	0.304655
C40	C	-0.049332	1.316958	0.304664
C41	C	-0.104207	1.384174	0.371880
C42	C	-0.049357	1.451365	0.439077
C43	C	0.060367	1.451341	0.439058
C44	C	-0.049380	1.585768	0.573480
C45	C	0.060341	1.585756	0.573467
C46	C	-0.104255	1.652984	0.640696
C47	C	-0.049406	1.720182	0.707889
C48	C	0.060322	1.720162	0.707876
C49	C	0.115191	1.652948	0.640664
C50	C	0.778994	1.518483	0.506244
C51	C	0.895770	1.518576	0.506283
C52	C	0.505925	1.518568	0.780267
C53	C	0.505882	1.518602	0.897043
C54	C	0.506040	1.792523	0.506255
C55	C	0.506046	1.909300	0.506264
C56	C	0.506051	1.518472	0.233266
C57	C	0.505798	1.518642	0.116490
C58	C	0.438679	1.585812	0.951915
C59	C	0.438633	1.585829	1.061640
C60	C	0.573005	1.451424	1.061610
C61	C	0.573044	1.451402	0.951888
C62	C	0.314677	1.623416	1.211603
C63	C	0.247482	1.690643	1.266479
C64	C	0.231372	1.793152	1.230885
C65	C	0.282471	1.828456	1.140418
C66	C	0.349673	1.761235	1.085548
C67	C	0.365764	1.658711	1.121140
C68	C	0.697002	1.413826	0.801922
C69	C	0.764210	1.346610	0.747050
C70	C	0.780332	1.244099	0.782642
C71	C	0.729251	1.208798	0.873112
C72	C	0.662042	1.276015	0.927984
C73	C	0.645919	1.378525	0.892386
H74	H	0.628086	1.118612	0.627931
H75	H	0.176660	1.847888	1.275573
H76	H	0.620450	1.247265	1.001651
Br77	Br	-0.123775	1.225764	0.213474
H78	H	0.204532	1.652928	0.640643
H79	H	-0.193548	1.384174	0.371891
H80	H	0.205877	1.661888	1.340137
Br81	Br	-0.253164	1.652767	0.640954
Br82	Br	0.264148	1.384238	0.371696
Br83	Br	0.347530	1.677008	0.877487
Br84	Br	-0.123882	1.811381	0.799113
H85	H	0.104974	1.774868	0.762606
H86	H	0.234559	1.024036	0.392065
Br87	Br	0.664152	1.360233	1.136048
H88	H	0.176480	1.287594	0.177588
Br89	Br	0.871570	1.152886	0.708188
Br90	Br	0.056847	1.104151	0.261660
H91	H	0.391281	1.789981	1.011894
Br92	Br	0.471846	0.765977	0.675567
H93	H	0.269355	1.911934	1.111451
Br94	Br	0.134866	1.225709	0.213451
Br95	Br	0.336519	1.484283	1.259903
H96	H	0.742381	1.125327	0.902094
Br97	Br	0.955258	0.933867	0.750751
H98	H	0.805812	1.375364	0.673391
Br99	Br	0.381646	1.401306	0.178808
H100	H	0.683873	1.497297	0.772930
H101	H	0.777517	1.014004	0.620388
H102	H	0.649580	0.685842	0.805914
Br103	Br	0.872149	0.720694	0.871280
H104	H	0.383991	0.919424	0.384566
H105	H	0.484556	1.252758	0.328300
