data_functionalizedCrystal
_audit_creation_method	'MofGen! by Chris Wilmer'
_symmetry_space_group_name_H-M	'P1'
_symmetry_Int_Tables_number	1
_symmetry_cell_setting	triclinic
loop_
_symmetry_equiv_pos_as_xyz
  x,y,z
_cell_length_a	12.759395
_cell_length_b	12.594516
_cell_length_c	12.759387
_cell_angle_alpha	90.030166
_cell_angle_beta	90.019431
_cell_angle_gamma	90.011661
loop_
_atom_site_label
_atom_site_type_symbol
_atom_site_fract_x
_atom_site_fract_y
_atom_site_fract_z
Zn1	Zn	1.606290	-0.423690	0.593979
Zn2	Zn	1.606189	-0.601708	0.418302
Zn3	Zn	1.430588	-0.423743	0.418320
Zn4	Zn	1.430589	-0.601627	0.593944
O5	O	1.518414	-0.512692	0.506136
O6	O	1.753297	-0.447317	0.570683
O7	O	1.582853	-0.578156	0.271283
O8	O	1.453937	-0.274790	0.441643
O9	O	1.753224	-0.578105	0.441613
O10	O	1.583024	-0.274752	0.570700
O11	O	1.453839	-0.447407	0.271296
O12	O	1.283567	-0.447328	0.441609
O13	O	1.453939	-0.577967	0.740970
O14	O	1.283568	-0.578018	0.570640
O15	O	1.583025	-0.447238	0.740996
O16	O	1.582854	-0.750643	0.441579
O17	O	1.453841	-0.750583	0.570623
C18	C	1.245446	-0.512671	0.506123
C19	C	1.128670	-0.512687	0.506143
C20	C	1.128727	-0.376717	0.640760
C21	C	1.073895	-0.308745	0.708077
C22	C	0.964174	-0.308764	0.708090
C23	C	0.909282	-0.376760	0.640777
C24	C	0.964114	-0.444732	0.573460
C25	C	1.073838	-0.444708	0.573456
C26	C	0.964056	-0.580695	0.438839
C27	C	1.073778	-0.580684	0.438829
C28	C	0.909164	-0.648692	0.371525
C29	C	0.963996	-0.716671	0.304212
C30	C	1.073724	-0.716650	0.304202
C31	C	1.128610	-0.648656	0.371512
C32	C	1.518365	-0.789233	0.506118
C33	C	1.518441	-0.907538	0.506145
C34	C	1.588692	-0.976785	0.436033
C35	C	1.614370	-1.047478	0.531926
C36	C	1.492894	-1.047645	0.410314
C37	C	1.544167	-0.976673	0.602088
C38	C	1.422647	-0.976833	0.480412
C39	C	1.448289	-1.047494	0.576370
C40	C	1.792447	-0.512714	0.506150
C41	C	1.909224	-0.512723	0.506156
C42	C	1.518493	-0.512588	0.780170
C43	C	1.518527	-0.512543	0.896947
C44	C	1.518491	-0.235071	0.506178
C45	C	1.518524	-0.116766	0.506195
C46	C	1.518395	-0.512719	0.233169
C47	C	1.518565	-0.512464	0.116393
C48	C	1.652954	-0.376424	0.896993
C49	C	1.720182	-0.308348	0.951878
C50	C	1.720208	-0.308310	1.061599
C51	C	1.652996	-0.376351	1.116439
C52	C	1.585768	-0.444427	1.061555
C53	C	1.585752	-0.444461	0.951831
C54	C	1.451337	-0.580539	1.061508
C55	C	1.451315	-0.580585	0.951787
C56	C	1.384125	-0.648581	1.116348
C57	C	1.316901	-0.716664	1.061464
C58	C	1.316879	-0.716701	0.951736
C59	C	1.384087	-0.648661	0.896903
H60	H	1.118601	-0.253382	0.762881
H61	H	1.774903	-0.252948	0.907215
H62	H	1.384147	-0.648541	1.205690
H63	H	1.118362	-0.771997	0.249381
H64	H	0.919530	-0.253409	0.762900
F65	F	1.653018	-0.376298	1.233215
F66	F	0.792506	-0.376765	0.640783
F67	F	1.666353	-0.936201	0.358604
H68	H	1.262177	-0.772052	1.106124
F69	F	1.791745	-0.235843	1.120013
H70	H	1.217951	-0.648627	0.371506
F71	F	1.245318	-0.789152	0.893332
F72	F	1.384074	-0.648699	0.780127
H73	H	1.652950	-0.376459	0.807652
F74	F	1.245503	-0.376704	0.640763
F75	F	0.905571	-0.789022	0.232574
H76	H	0.819823	-0.648699	0.371538
H77	H	1.565729	-0.945631	0.683222
F78	F	1.720306	-1.088022	0.560428
F79	F	1.370683	-1.087823	0.653983
F80	F	1.316740	-0.936244	0.451892
H81	H	1.471253	-1.078818	0.329250
