data_functionalizedCrystal
_audit_creation_method	'MofGen! by Chris Wilmer'
_symmetry_space_group_name_H-M	'P1'
_symmetry_Int_Tables_number	1
_symmetry_cell_setting	triclinic
loop_
_symmetry_equiv_pos_as_xyz
  x,y,z
_cell_length_a	21.606444
_cell_length_b	21.606444
_cell_length_c	21.606444
_cell_angle_alpha	119.998833
_cell_angle_beta	90.001189
_cell_angle_gamma	60.011779
loop_
_atom_site_label
_atom_site_type_symbol
_atom_site_fract_x
_atom_site_fract_y
_atom_site_fract_z
Zr1	Zr	0.596390	0.677367	0.081186
O2	O	0.497601	0.806457	0.179995
O3	O	0.626652	0.548271	0.050903
O4	O	0.626687	0.677364	0.180010
O5	O	0.497563	0.677368	-0.050961
O6	O	0.728536	0.677368	0.180014
O7	O	0.497566	0.677364	0.050888
O8	O	0.728473	0.446444	-0.050934
O9	O	0.497626	0.908292	0.179987
O10	O	0.715594	0.601375	0.037982
O11	O	0.639582	0.601375	-0.038030
O12	O	0.639624	0.753366	0.113976
O13	O	0.563612	0.753366	0.037964
Zr14	Zr	0.758824	0.677381	-0.081246
Zr15	Zr	0.758828	0.677374	0.081192
Zr16	Zr	0.596385	0.677374	-0.081252
Zr17	Zr	0.596429	0.839782	0.081173
Zr18	Zr	0.758784	0.514965	-0.081233
O19	O	0.728562	0.806477	-0.050964
O20	O	0.728568	0.806467	0.180003
O21	O	0.497595	0.806467	-0.050972
O22	O	0.857612	0.548290	-0.180055
O23	O	0.857618	0.548281	0.050912
O24	O	0.626645	0.548281	-0.180063
O25	O	0.857650	0.677379	0.050901
O26	O	0.728527	0.677384	-0.180070
O27	O	0.626677	0.677379	-0.180074
O28	O	0.857647	0.677384	-0.050948
O29	O	0.626743	0.908298	0.179991
O30	O	0.728470	0.446450	-0.180051
O31	O	0.857587	0.446455	-0.180047
O32	O	0.857590	0.446450	-0.050930
O33	O	0.497623	0.908298	0.050870
O34	O	0.626740	0.908303	0.050874
O35	O	0.715590	0.601382	-0.114037
O36	O	0.791601	0.601382	-0.038025
O37	O	0.715631	0.753372	0.037970
O38	O	0.639620	0.753372	-0.038042
C39	C	0.677557	0.474217	-0.000014
C40	C	0.677540	0.405267	-0.000008
C41	C	0.474421	0.677365	-0.000037
C42	C	0.405461	0.677362	-0.000040
C43	C	0.733759	-0.074196	-0.056155
C44	C	0.733742	-0.009388	-0.056147
C45	C	0.677637	0.079096	-0.000039
C46	C	0.621549	0.102773	0.056069
C47	C	0.621569	0.037965	0.056064
C48	C	0.621468	0.364135	0.056093
C49	C	0.621451	0.428943	0.056092
C50	C	0.733641	0.316782	-0.056119
C51	C	0.733661	0.251974	-0.056124
C52	C	0.677576	0.275656	-0.000014
C53	C	0.677595	0.205383	-0.000022
C54	C	0.677614	0.149368	-0.000033
C55	C	0.412718	0.598025	-0.039706
C56	C	0.347920	0.598027	-0.039706
C57	C	0.275867	0.677368	-0.000036
C58	C	0.268613	0.756711	0.039630
C59	C	0.333409	0.756707	0.039626
C60	C	0.007295	0.756726	0.039647
C61	C	-0.057504	0.756723	0.039650
C62	C	0.021806	0.598046	-0.039685
C63	C	0.086602	0.598043	-0.039689
C64	C	0.079342	0.677385	-0.000026
C65	C	0.149603	0.677382	-0.000027
C66	C	0.205607	0.677372	-0.000031
C67	C	0.880793	0.677382	-0.000023
C68	C	0.949752	0.677385	-0.000020
C69	C	0.677612	0.677365	0.203156
C70	C	0.677614	0.677362	0.272115
C71	C	0.677657	0.880531	-0.000046
C72	C	0.677673	0.949480	-0.000052
C73	C	0.637951	0.756722	0.735094
C74	C	0.637948	0.756720	0.670296
C75	C	0.677605	0.677380	0.598231
C76	C	0.717259	0.598037	0.590963
C77	C	0.717257	0.598040	0.655760
C78	C	0.717271	0.598021	0.329645
C79	C	0.717273	0.598024	0.264847
C80	C	0.637963	0.756701	0.344181
C81	C	0.637960	0.756705	0.408978
C82	C	0.677611	0.677362	0.401705
C83	C	0.677612	0.677366	0.471966
C84	C	0.677609	0.677375	0.527970
C85	C	0.677602	0.677382	0.796784
C86	C	0.677604	0.677385	0.727825
C87	C	0.880743	0.474225	-0.000006
C88	C	0.949685	0.405279	0.000002
C89	C	0.677551	0.474225	-0.203200
C90	C	0.677532	0.405279	-0.272153
C91	C	0.880737	0.474234	-0.203192
C92	C	0.949678	0.405290	-0.272144
C93	C	0.474476	0.880513	0.203132
C94	C	0.405536	0.949457	0.272083
C95	C	0.474471	0.880522	-0.000054
C96	C	0.405528	0.949469	-0.000062
C97	C	0.677662	0.880522	0.203139
C98	C	0.677681	0.949469	0.272093
C99	C	0.942386	0.372897	0.039687
C100	C	1.007159	0.308123	0.039710
C101	C	1.079230	0.275728	0.000042
C102	C	1.086527	0.308116	-0.039644
C103	C	1.021755	0.372893	-0.039662
C104	C	0.717199	0.372904	-0.344216
C105	C	0.717178	0.308130	-0.409012
C106	C	0.677495	0.275728	-0.401743
C107	C	0.637824	0.308109	-0.329673
C108	C	0.637841	0.372886	-0.264879
C109	C	1.021737	0.372914	-0.264846
C110	C	1.086520	0.308143	-0.329627
C111	C	1.079243	0.275745	-0.401705
C112	C	1.007176	0.308128	-0.409000
C113	C	0.942394	0.372902	-0.344220
C114	C	0.333476	0.981842	0.264786
C115	C	0.268693	1.046633	0.329567
C116	C	0.275971	1.079034	0.401645
C117	C	0.348038	1.046646	0.408940
C118	C	0.412819	0.981861	0.344160
C119	C	0.412827	0.981857	-0.039740
C120	C	0.348054	1.046649	-0.039745
C121	C	0.275984	1.079047	-0.000076
C122	C	0.268686	1.046656	0.039608
C123	C	0.333458	0.981869	0.039617
C124	C	0.717371	0.981850	0.264800
C125	C	0.717404	1.046625	0.329583
C126	C	0.677741	1.079020	0.401659
C127	C	0.638049	1.046632	0.408951
C128	C	0.638022	0.981855	0.344168
H129	H	0.779443	-0.146242	-0.101848
C130	C	0.760841	0.408546	-0.352227
H131	H	0.784449	0.379990	-0.404429
H132	H	0.798391	0.397932	-0.328604
H133	H	0.726597	0.469711	-0.328603
H134	H	1.001202	0.281761	0.072027
H135	H	0.605542	0.399237	-0.206204
H136	H	0.779414	-0.028674	-0.101830
H137	H	0.471491	0.955494	0.350111
C138	C	0.559832	0.200101	0.117788
H139	H	0.526436	0.204919	0.151203
H140	H	0.532109	0.227703	0.094738
H141	H	0.582877	0.227725	0.145508
C142	C	1.029793	0.408495	-0.083329
H143	H	1.081994	0.379913	-0.106955
H144	H	1.006186	0.469657	-0.049102
H145	H	1.006171	0.397860	-0.120884
C146	C	0.795378	0.154645	-0.117841
H147	H	0.828784	0.149826	-0.151249
H148	H	0.772338	0.127019	-0.145559
H149	H	0.823102	0.127049	-0.094784
H150	H	0.749485	0.281773	-0.467689
H151	H	0.883709	0.399273	0.071998
C152	C	0.760880	0.510762	0.511695
H153	H	0.784490	0.463512	0.516648
H154	H	0.798427	0.507461	0.484770
H155	H	0.726628	0.507463	0.484769
C156	C	0.559873	0.064009	0.117774
H157	H	0.526451	0.125989	0.151187
H158	H	0.582930	0.041070	0.145488
H159	H	0.532163	0.041049	0.094716
H160	H	1.131965	0.222981	0.000062
C161	C	0.492096	0.946230	-0.083381
H162	H	0.487156	0.974812	-0.107004
H163	H	0.519006	0.885071	-0.120925
H164	H	0.519026	0.956850	-0.049131
H165	H	0.327505	0.955501	0.071925
H166	H	0.605660	0.821324	0.676221
C167	C	0.356095	1.082259	-0.083407
H168	H	0.408295	1.053670	-0.107041
H169	H	0.332496	1.143418	-0.049175
H170	H	0.332464	1.071638	-0.120956
H171	H	0.575758	0.500995	0.101782
H172	H	0.353835	0.533423	-0.072007
C173	C	1.165807	0.272467	-0.083282
H174	H	1.203331	0.229244	-0.077590
H175	H	1.171518	0.318963	-0.063703
H176	H	1.171486	0.247181	-0.135484
H177	H	0.749670	0.955484	0.206118
C178	C	0.325432	0.843975	0.083225
H179	H	0.374341	0.832611	0.077525
H180	H	0.298520	0.876607	0.135427
H181	H	0.298521	0.876543	0.063597
H182	H	0.677488	0.222983	-0.454509
H183	H	0.605516	0.281717	-0.323765
H184	H	1.027677	0.399282	-0.206163
C185	C	0.491971	0.510749	-0.083347
H186	H	0.487009	0.463500	-0.106977
H187	H	0.518905	0.507442	-0.049106
H188	H	0.518889	0.507456	-0.120898
C189	C	1.165783	0.272524	-0.321589
H190	H	1.160834	0.301088	-0.269383
H191	H	1.192718	0.283148	-0.345203
H192	H	1.192693	0.211359	-0.345210
H193	H	0.223215	1.131786	0.454387
C194	C	0.594346	0.946253	0.352196
H195	H	0.600006	0.903032	0.303295
H196	H	0.542164	0.992774	0.379118
H197	H	0.613934	0.920977	0.379122
H198	H	0.605671	0.821312	0.467655
C199	C	1.150507	0.204488	-0.472956
H200	H	1.194462	0.189844	-0.458280
H201	H	1.150526	0.225714	-0.502276
H202	H	1.150503	0.153934	-0.502262
H203	H	0.749724	1.072988	0.323631
H204	H	0.677769	1.131767	0.454403
H205	H	0.749545	0.533436	0.649836
H206	H	0.779310	0.297505	-0.101805
H207	H	0.749560	0.533416	0.323713
H208	H	1.001261	0.281741	-0.467695
C209	C	0.165857	0.510769	-0.083329
H210	H	0.160898	0.463518	-0.106959
H211	H	0.192789	0.507464	-0.049087
H212	H	0.192774	0.507476	-0.120879
H213	H	0.001373	0.821332	0.071957
H214	H	0.223248	1.131799	-0.000089
C215	C	0.356037	1.082281	0.488226
H216	H	0.408231	1.053722	0.483302
H217	H	0.332398	1.071661	0.515142
H218	H	0.332426	1.143447	0.515144
C219	C	0.760890	0.510746	0.185574
H220	H	0.784498	0.463492	0.190522
H221	H	0.798438	0.507443	0.158647
H222	H	0.726632	0.507456	0.158652
H223	H	0.575798	0.383428	0.101779
C224	C	0.189357	0.843983	0.083268
H225	H	0.151805	0.832624	0.077597
H226	H	0.183677	0.876587	0.063673
H227	H	0.183691	0.876577	0.135466
H228	H	0.883723	0.399255	-0.350172
C229	C	0.325456	0.946222	0.185510
H230	H	0.273258	0.974804	0.190452
H231	H	0.349060	0.885061	0.158583
H232	H	0.349089	0.956849	0.158590
C233	C	0.594417	1.082281	0.488236
H234	H	0.600115	1.125505	0.525767
H235	H	0.613987	1.035786	0.493940
H236	H	0.542219	1.107567	0.493918
C237	C	0.029790	0.510769	-0.083324
H238	H	-0.019118	0.522130	-0.077650
H239	H	0.056704	0.478168	-0.063728
H240	H	0.056701	0.478174	-0.135524
C241	C	0.189430	1.082239	0.321528
H242	H	0.194380	1.053649	0.269323
H243	H	0.162515	1.143399	0.345136
H244	H	0.162500	1.071618	0.345157
C245	C	-0.136763	0.844001	0.083281
H246	H	-0.131807	0.891255	0.106896
H247	H	-0.163689	0.847305	0.120830
H248	H	-0.163684	0.847290	0.049024
C249	C	0.594329	0.843996	0.814362
H250	H	0.600011	0.832638	0.851914
H251	H	0.542139	0.876593	0.820039
H252	H	0.613937	0.876594	0.820042
C253	C	0.594342	0.843980	0.352184
H254	H	0.570733	0.891231	0.404384
H255	H	0.556795	0.847285	0.328557
H256	H	0.628599	0.847274	0.328557
C257	C	0.189407	1.082293	0.083234
H258	H	0.151882	1.125507	0.077534
H259	H	0.183716	1.107568	0.135434
H260	H	0.183707	1.035783	0.063633
