data_functionalizedCrystal
_audit_creation_method	'MofGen! by Chris Wilmer'
_symmetry_space_group_name_H-M	'P1'
_symmetry_Int_Tables_number	1
_symmetry_cell_setting	triclinic
loop_
_symmetry_equiv_pos_as_xyz
  x,y,z
_cell_length_a	16.992694
_cell_length_b	19.288865
_cell_length_c	18.366186
_cell_angle_alpha	90.011479
_cell_angle_beta	90.003288
_cell_angle_gamma	86.902236
loop_
_atom_site_label
_atom_site_type_symbol
_atom_site_fract_x
_atom_site_fract_y
_atom_site_fract_z
O1	O	-1.039876	-0.147253	-0.060473
O2	O	-0.811597	-0.145638	-0.060494
O3	O	-0.932333	-0.045699	-0.060468
O4	O	-0.919140	-0.247191	-0.060498
O5	O	-0.932312	-0.045693	0.060631
O6	O	-0.811576	-0.145631	0.060605
O7	O	-1.039856	-0.147247	0.060627
Zn8	Zn	-0.925713	-0.146438	0.079843
Zn9	Zn	-0.925740	-0.146446	-0.079711
O10	O	-0.919120	-0.247185	0.060601
C11	C	-0.782381	-0.143556	0.000053
C12	C	-0.695359	-0.137355	0.000046
C13	C	-0.931898	-0.019795	0.000083
C14	C	-0.930624	0.057383	0.000090
C15	C	-1.069071	-0.149328	0.000078
C16	C	-1.156093	-0.155529	0.000081
C17	C	-0.644907	-0.197184	0.000037
C18	C	-0.563141	-0.191353	0.000048
C19	C	-0.531829	-0.125694	0.000062
C20	C	-0.582287	-0.065862	0.000073
C21	C	-0.664051	-0.071693	0.000067
C22	C	-0.288316	-0.101527	0.000085
C23	C	-0.206545	-0.095701	0.000089
C24	C	-0.187405	-0.221193	0.000066
C25	C	-0.269172	-0.227018	0.000056
C26	C	-0.319623	-0.167186	0.000070
N27	N	-0.448251	-0.119733	0.000071
N28	N	-0.403199	-0.173147	0.000066
C29	C	-0.919555	-0.273089	0.000048
C30	C	-0.920829	-0.350267	0.000036
N31	N	-0.925700	-0.146432	0.188734
C32	C	-1.001466	0.097950	0.000100
C33	C	-1.000269	0.170467	0.000088
C34	C	-0.928225	0.202413	0.000081
C35	C	-0.857374	0.161837	0.000067
C36	C	-0.858573	0.089321	0.000071
C37	C	-0.871584	0.314004	0.042494
C38	C	-0.870387	0.386518	0.042494
C39	C	-0.924524	0.426075	0.000064
C40	C	-0.979870	0.393109	-0.042356
C41	C	-0.981069	0.320594	-0.042352
C42	C	-0.926917	0.281044	0.000076
C43	C	-0.994073	0.545274	0.000061
C44	C	-0.992873	0.617792	0.000045
C45	C	-0.849976	0.609160	0.000031
C46	C	-0.851178	0.536643	0.000040
C47	C	-0.923229	0.504705	0.000058
N48	N	-0.925759	-0.146447	-0.188602
C49	C	-0.979179	-0.102204	0.226846
C50	C	-0.979184	-0.102201	0.303074
C51	C	-0.925717	-0.146439	0.341187
C52	C	-0.872228	-0.190670	0.303066
C53	C	-0.872219	-0.190667	0.226840
C54	C	-0.915223	-0.209115	0.461937
C55	C	-0.915237	-0.209120	0.538162
C56	C	-0.925740	-0.146449	0.576295
C57	C	-0.936245	-0.083772	0.538192
C58	C	-0.936236	-0.083768	0.461966
C59	C	-0.925721	-0.146447	0.423842
C60	C	-0.979227	-0.102214	0.697061
C61	C	-0.979227	-0.102209	0.773290
C62	C	-0.872274	-0.190685	0.773281
C63	C	-0.872271	-0.190683	0.697053
C64	C	-0.925752	-0.146448	0.658948
H65	H	-0.670395	-0.250650	0.000025
H66	H	-1.057959	0.203504	0.000094
H67	H	-0.705129	-0.022974	0.000074
Br68	Br	-1.056173	0.275856	-0.099923
H69	H	-0.522066	-0.240072	0.000041
Br70	Br	-0.539792	0.023249	0.000099
H71	H	-0.800883	0.056291	0.000063
Br72	Br	-0.799659	-0.250703	0.354788
H73	H	-0.329384	-0.052807	0.000098
Br74	Br	-1.091854	0.501924	0.000094
H75	H	-0.798715	0.187852	0.000059
Br76	Br	-1.051769	-0.042170	0.354806
H77	H	-1.050564	0.650821	0.000049
H78	H	-1.022772	-0.066193	0.666035
H79	H	-0.294660	-0.280485	0.000036
Br80	Br	-0.752200	0.652507	0.000014
Br81	Br	-1.053347	0.446784	-0.099944
H82	H	-0.828669	-0.226684	0.195808
Br83	Br	-0.118933	-0.302390	0.000047
Br84	Br	-0.900990	-0.294180	0.589865
H85	H	-1.060135	0.071951	0.000113
Br86	Br	-0.164050	-0.006586	0.000124
H87	H	-0.944787	-0.032734	0.430946
Br88	Br	-0.755029	0.481583	0.000026
H89	H	-0.825318	0.413353	0.077032
Br90	Br	-0.798106	0.260327	0.100084
H91	H	-1.022725	-0.066183	0.195823
H92	H	-0.944796	-0.032739	0.569238
H93	H	-1.022774	-0.066190	0.804322
Br94	Br	-0.799703	-0.250715	0.825000
H95	H	-0.828726	-0.226701	0.666021
Br96	Br	-0.901047	-0.294183	0.410194
