data_functionalizedCrystal
_audit_creation_method	'MofGen! by Chris Wilmer'
_symmetry_space_group_name_H-M	'P1'
_symmetry_Int_Tables_number	1
_symmetry_cell_setting	triclinic
loop_
_symmetry_equiv_pos_as_xyz
  x,y,z
_cell_length_a	18.215407
_cell_length_b	19.121063
_cell_length_c	18.215399
_cell_angle_alpha	92.409843
_cell_angle_beta	89.980167
_cell_angle_gamma	92.469446
loop_
_atom_site_label
_atom_site_type_symbol
_atom_site_fract_x
_atom_site_fract_y
_atom_site_fract_z
Zn1	Zn	1.112559	-0.279613	-0.428596
Zn2	Zn	1.445893	0.053720	-0.095263
Zn3	Zn	1.779226	0.387054	0.238071
Zn4	Zn	1.107212	-0.397068	-0.310772
Zn5	Zn	1.440545	-0.063735	0.022561
Zn6	Zn	1.773878	0.269599	0.355895
Zn7	Zn	0.989491	-0.279636	-0.305544
Zn8	Zn	1.322824	0.053697	0.027789
Zn9	Zn	1.656157	0.387031	0.361122
Zn10	Zn	0.984203	-0.397029	-0.433795
Zn11	Zn	1.317537	-0.063696	-0.100462
Zn12	Zn	1.650870	0.269638	0.232871
O13	O	1.048366	-0.338336	-0.369677
O14	O	1.381700	-0.005003	-0.036344
O15	O	1.715033	0.328330	0.296990
O16	O	1.214834	-0.295200	-0.412978
O17	O	1.548167	0.038133	-0.079645
O18	O	1.881500	0.371466	0.253688
O19	O	1.091570	-0.381516	-0.207095
O20	O	1.424904	-0.048183	0.126238
O21	O	1.758237	0.285150	0.459571
O22	O	1.010267	-0.181348	-0.317504
O23	O	1.343600	0.151985	0.015830
O24	O	1.676934	0.485318	0.349163
O25	O	1.210905	-0.381494	-0.326414
O26	O	1.544238	-0.048161	0.006920
O27	O	1.877572	0.285173	0.340253
O28	O	1.100685	-0.181331	-0.407909
O29	O	1.434018	0.152002	-0.074576
O30	O	1.767351	0.485335	0.258758
O31	O	1.005081	-0.295240	-0.203255
O32	O	1.338415	0.038094	0.130079
O33	O	1.671748	0.371427	0.463412
O34	O	0.885805	-0.295202	-0.322545
O35	O	1.219139	0.038132	0.010788
O36	O	1.552472	0.371465	0.344121
O37	O	1.001255	-0.381427	-0.536089
O38	O	1.334589	-0.048094	-0.202755
O39	O	1.667922	0.285239	0.130578
O40	O	0.881921	-0.381450	-0.416771
O41	O	1.215254	-0.048116	-0.083437
O42	O	1.548587	0.285217	0.249896
O43	O	1.095558	-0.295162	-0.532269
O44	O	1.428891	0.038171	-0.198935
O45	O	1.762224	0.371504	0.134398
O46	O	1.086443	-0.495348	-0.331455
O47	O	1.419777	-0.162014	0.001878
O48	O	1.753110	0.171319	0.335212
O49	O	0.996070	-0.495319	-0.421840
O50	O	1.329403	-0.161985	-0.088506
O51	O	1.662736	0.171348	0.244827
C52	C	0.857160	-0.338324	-0.369655
C53	C	1.190494	-0.004991	-0.036322
C54	C	1.523827	0.328342	0.297011
C55	C	0.775361	-0.338336	-0.369664
C56	C	1.108694	-0.005003	-0.036331
C57	C	1.442028	0.328330	0.297002
C58	C	0.585160	-0.383316	-0.418671
C59	C	0.918494	-0.049983	-0.085338
C60	C	1.251827	0.283350	0.247995
C61	C	0.508302	-0.383318	-0.418681
C62	C	0.841635	-0.049985	-0.085347
C63	C	1.174968	0.283348	0.247986
C64	C	0.512323	-0.293369	-0.320699
C65	C	0.845657	0.039964	0.012634
C66	C	1.178990	0.373297	0.345968
C67	C	0.589181	-0.293364	-0.320694
C68	C	0.922514	0.039969	0.012639
C69	C	1.255848	0.373302	0.345973
C70	C	0.625597	-0.338342	-0.369679
C71	C	0.958931	-0.005008	-0.036346
C72	C	1.292264	0.328325	0.296987
C73	C	0.471881	-0.338349	-0.369694
C74	C	0.805214	-0.005016	-0.036360
C75	C	1.138548	0.328318	0.296973
C76	C	0.388547	-0.338351	-0.369703
C77	C	0.721881	-0.005018	-0.036370
C78	C	1.055214	0.328316	0.296963
C79	C	0.708936	-0.338339	-0.369671
C80	C	1.042270	-0.005005	-0.036337
C81	C	1.375603	0.328328	0.296996
C82	C	1.040122	-0.520817	-0.377795
C83	C	1.373456	-0.187484	-0.044462
C84	C	1.706789	0.145849	0.288872
C85	C	1.036663	-0.598883	-0.381293
C86	C	1.369996	-0.265550	-0.047959
C87	C	1.703330	0.067783	0.285374
C88	C	1.082127	-0.635551	-0.335916
C89	C	1.415460	-0.302217	-0.002583
C90	C	1.748794	0.031116	0.330750
C91	C	1.078878	-0.708902	-0.339210
C92	C	1.412211	-0.375569	-0.005877
C93	C	1.745545	-0.042235	0.327457
C94	C	1.030161	-0.745585	-0.387877
C95	C	1.363494	-0.412251	-0.054543
C96	C	1.696827	-0.078918	0.278790
C97	C	0.984695	-0.708912	-0.433258
C98	C	1.318028	-0.375579	-0.099925
C99	C	1.651361	-0.042246	0.233409
C100	C	0.987948	-0.635562	-0.429968
C101	C	1.321281	-0.302229	-0.096634
C102	C	1.654615	0.031104	0.236699
C103	C	1.017985	-0.967055	-0.400168
C104	C	1.351318	-0.633721	-0.066835
C105	C	1.684652	-0.300388	0.266499
C106	C	1.014733	-1.040410	-0.403454
C107	C	1.348067	-0.707076	-0.070120
C108	C	1.681400	-0.373743	0.263213
C109	C	1.108918	-1.040394	-0.309406
C110	C	1.442251	-0.707061	0.023927
C111	C	1.775585	-0.373728	0.357261
C112	C	1.112164	-0.967043	-0.306117
C113	C	1.445497	-0.633710	0.027217
C114	C	1.778831	-0.300376	0.360550
C115	C	1.066701	-0.930377	-0.351501
C116	C	1.400034	-0.597044	-0.018167
C117	C	1.733368	-0.263710	0.315166
C118	C	1.026837	-0.820561	-0.391243
C119	C	1.360170	-0.487228	-0.057910
C120	C	1.693503	-0.153895	0.275424
C121	C	1.070029	-0.855401	-0.348138
C122	C	1.403362	-0.522068	-0.014804
C123	C	1.736696	-0.188735	0.318529
C124	C	1.240319	-0.338349	-0.369699
C125	C	1.573652	-0.005016	-0.036366
C126	C	1.906985	0.328318	0.296968
C127	C	1.322117	-0.338354	-0.369709
C128	C	1.655451	-0.005021	-0.036375
C129	C	1.988784	0.328312	0.296958
C130	C	1.048413	-0.338288	-0.561628
C131	C	1.381747	-0.004955	-0.228294
C132	C	1.715080	0.328379	0.105039
C133	C	1.048433	-0.338267	-0.643426
C134	C	1.381767	-0.004934	-0.310092
C135	C	1.715100	0.328399	0.023241
C136	C	1.056662	-0.155143	-0.361543
C137	C	1.389996	0.178190	-0.028210
C138	C	1.723329	0.511524	0.305123
C139	C	1.060197	-0.077077	-0.358077
C140	C	1.393531	0.256256	-0.024744
C141	C	1.726864	0.589590	0.308589
C142	C	1.097555	-0.293307	-0.829630
C143	C	1.430889	0.040026	-0.496297
C144	C	1.764222	0.373359	-0.162963
C145	C	1.097565	-0.293287	-0.906488
C146	C	1.430898	0.040047	-0.573155
C147	C	1.764232	0.373380	-0.239821
C148	C	0.999368	-0.383119	-0.910455
C149	C	1.332701	-0.049786	-0.577121
C150	C	1.666035	0.283548	-0.243788
C151	C	0.999355	-0.383135	-0.833598
C152	C	1.332689	-0.049802	-0.500265
C153	C	1.666022	0.283531	-0.166931
C154	C	1.048453	-0.338231	-0.793188
C155	C	1.381786	-0.004897	-0.459854
C156	C	1.715120	0.328436	-0.126521
C157	C	1.048476	-0.338194	-0.946902
C158	C	1.381809	-0.004860	-0.613569
C159	C	1.715142	0.328473	-0.280236
C160	C	1.048486	-0.338172	-1.030235
C161	C	1.381819	-0.004838	-0.696902
C162	C	1.715152	0.328495	-0.363568
C163	C	1.048442	-0.338251	-0.709850
C164	C	1.381776	-0.004918	-0.376516
C165	C	1.715109	0.328415	-0.043183
C166	C	1.048364	-0.338334	-0.178471
C167	C	1.381697	-0.005001	0.154863
C168	C	1.715031	0.328333	0.488196
C169	C	1.048495	-0.338157	-0.096664
C170	C	1.381829	-0.004823	0.236669
C171	C	1.715162	0.328510	0.570002
H172	H	0.475381	-0.419940	-0.458576
H173	H	0.808715	-0.086607	-0.125243
H174	H	1.142048	0.246726	0.208090
H175	H	0.482664	-0.256752	-0.280816
H176	H	0.815997	0.076582	0.052517
H177	H	1.149330	0.409915	0.385851
C178	C	0.934061	-0.813215	-0.483874
C179	C	1.267394	-0.479882	-0.150540
C180	C	1.600727	-0.146549	0.182793
C181	C	0.973285	-0.860885	-0.444737
C182	C	1.306618	-0.527552	-0.111403
C183	C	1.639952	-0.194219	0.221930
H184	H	0.901006	-0.838113	-0.516902
H185	H	1.234339	-0.504779	-0.183569
H186	H	1.567673	-0.171446	0.149764
H187	H	0.907193	-0.784654	-0.450504
H188	H	1.240526	-0.451321	-0.117170
H189	H	1.573860	-0.117987	0.216163
H190	H	0.967384	-0.784558	-0.510768
H191	H	1.300717	-0.451224	-0.177434
H192	H	1.634050	-0.117891	0.155899
H193	H	0.939962	-0.889540	-0.417838
H194	H	1.273296	-0.556206	-0.084505
H195	H	1.606629	-0.222873	0.248828
H196	H	1.000154	-0.889459	-0.478111
H197	H	1.333488	-0.556125	-0.144778
H198	H	1.666821	-0.222792	0.188555
C199	C	1.000801	-1.122855	-0.506126
C200	C	1.334135	-0.789522	-0.172793
C201	C	1.667468	-0.456189	0.160540
C202	C	0.961183	-1.080738	-0.456952
C203	C	1.294516	-0.747405	-0.123618
C204	C	1.627849	-0.414072	0.209715
H205	H	0.967741	-1.147756	-0.539146
H206	H	1.301074	-0.814423	-0.205813
H207	H	1.634407	-0.481089	0.127520
H208	H	1.034112	-1.094199	-0.533022
H209	H	1.367445	-0.760865	-0.199689
H210	H	1.700779	-0.427532	0.133644
H211	H	1.027411	-1.155183	-0.479557
H212	H	1.360744	-0.821850	-0.146224
H213	H	1.694078	-0.488517	0.187109
H214	H	0.934577	-1.048407	-0.483520
H215	H	1.267910	-0.715073	-0.150187
H216	H	1.601244	-0.381740	0.183146
H217	H	0.927859	-1.109397	-0.430053
H218	H	1.261192	-0.776064	-0.096720
H219	H	1.594525	-0.442731	0.236614
H220	H	1.137532	-0.256741	-0.796730
H221	H	1.470865	0.076592	-0.463397
H222	H	1.804199	0.409926	-0.130064
H223	H	1.137548	-0.256705	-0.936156
H224	H	1.470881	0.076629	-0.602822
H225	H	1.804215	0.409962	-0.269489
C226	C	1.202341	-1.033010	-0.216116
C227	C	1.535674	-0.699677	0.117218
C228	C	1.869007	-0.366344	0.450551
C229	C	1.158894	-1.080698	-0.259526
C230	C	1.492227	-0.747365	0.073807
C231	C	1.825561	-0.414032	0.407141
H232	H	1.233192	-1.057893	-0.185319
H233	H	1.566526	-0.724560	0.148014
H234	H	1.899859	-0.391227	0.481347
H235	H	1.231740	-1.004359	-0.246922
H236	H	1.565073	-0.671026	0.086412
H237	H	1.898407	-0.337693	0.419745
H238	H	1.171552	-1.004444	-0.186656
H239	H	1.504885	-0.671110	0.146678
H240	H	1.838218	-0.337777	0.480011
H241	H	1.189683	-1.109261	-0.288990
H242	H	1.523016	-0.775928	0.044343
H243	H	1.856350	-0.442595	0.377676
H244	H	1.129492	-1.109361	-0.228716
H245	H	1.462825	-0.776028	0.104617
H246	H	1.796158	-0.442695	0.437950
H247	H	0.614808	-0.419938	-0.458560
H248	H	0.948142	-0.086605	-0.125227
H249	H	1.281475	0.246729	0.208106
C250	C	1.085643	-0.791590	-0.244056
C251	C	1.418977	-0.458257	0.089277
C252	C	1.752310	-0.124923	0.422610
C253	C	1.128914	-0.749272	-0.289454
C254	C	1.462247	-0.415939	0.043880
C255	C	1.795581	-0.082605	0.377213
H256	H	1.116556	-0.816534	-0.213379
H257	H	1.449889	-0.483200	0.119955
H258	H	1.783223	-0.149867	0.453288
H259	H	1.054926	-0.763064	-0.214482
H260	H	1.388259	-0.429731	0.118851
H261	H	1.721593	-0.096398	0.452184
H262	H	1.056111	-0.823880	-0.273523
H263	H	1.389444	-0.490546	0.059810
H264	H	1.722777	-0.157213	0.393143
H265	H	1.158443	-0.716979	-0.259987
H266	H	1.491776	-0.383645	0.073347
H267	H	1.825109	-0.050312	0.406680
H268	H	1.159644	-0.777800	-0.319030
H269	H	1.492977	-0.444467	0.014303
H270	H	1.826311	-0.111133	0.347636
C271	C	0.958141	-0.502042	-0.939383
C272	C	1.291474	-0.168708	-0.606049
C273	C	1.624807	0.164625	-0.272716
C274	C	0.945406	-0.432482	-0.954875
C275	C	1.278740	-0.099149	-0.621542
C276	C	1.612073	0.234184	-0.288209
H277	H	0.924824	-0.532517	-0.966803
H278	H	1.258157	-0.199183	-0.633469
H279	H	1.591490	0.134150	-0.300136
H280	H	1.007119	-0.512314	-0.952446
H281	H	1.340452	-0.178980	-0.619113
H282	H	1.673785	0.154353	-0.285780
H283	H	0.951103	-0.508471	-0.888392
H284	H	1.284437	-0.175137	-0.555059
H285	H	1.617770	0.158196	-0.221726
H286	H	0.952449	-0.426052	-1.005865
H287	H	1.285782	-0.092719	-0.672532
H288	H	1.619116	0.240614	-0.339199
H289	H	0.896417	-0.422207	-0.941817
H290	H	1.229750	-0.088874	-0.608483
H291	H	1.563083	0.244460	-0.275150
H292	H	0.622106	-0.256736	-0.280798
H293	H	0.955439	0.076597	0.052535
H294	H	1.288773	0.409931	0.385868
C295	C	1.174900	-0.642911	-0.243289
C296	C	1.508233	-0.309577	0.090044
C297	C	1.841567	0.023756	0.423377
C298	C	1.135679	-0.595232	-0.282419
C299	C	1.469013	-0.261899	0.050914
C300	C	1.802346	0.071434	0.384248
H301	H	1.207965	-0.618020	-0.210266
H302	H	1.541298	-0.284686	0.123067
H303	H	1.874632	0.048647	0.456400
H304	H	1.141581	-0.671562	-0.216397
H305	H	1.474915	-0.338229	0.116936
H306	H	1.808248	-0.004896	0.450270
H307	H	1.201763	-0.671477	-0.276670
H308	H	1.535096	-0.338144	0.056663
H309	H	1.868429	-0.004810	0.389997
H310	H	1.108812	-0.566669	-0.249039
H311	H	1.442145	-0.233336	0.084295
H312	H	1.775479	0.099997	0.417628
H313	H	1.169003	-0.566568	-0.309313
H314	H	1.502336	-0.233235	0.024020
H315	H	1.835669	0.100098	0.357354
C316	C	0.984842	-0.477626	-0.751346
C317	C	1.318176	-0.144293	-0.418013
C318	C	1.651509	0.189041	-0.084679
C319	C	0.945380	-0.432519	-0.793532
C320	C	1.278713	-0.099185	-0.460199
C321	C	1.612046	0.234148	-0.126865
H322	H	0.951519	-0.508107	-0.726608
H323	H	1.284852	-0.174773	-0.393274
H324	H	1.618186	0.158560	-0.059941
H325	H	1.015686	-0.504487	-0.782526
H326	H	1.349020	-0.171154	-0.449193
H327	H	1.682353	0.162179	-0.115860
H328	H	1.014076	-0.450874	-0.716285
H329	H	1.347409	-0.117540	-0.382951
H330	H	1.680743	0.215793	-0.049618
H331	H	0.916150	-0.459271	-0.828597
H332	H	1.249483	-0.125938	-0.495264
H333	H	1.582817	0.207395	-0.161930
H334	H	0.914523	-0.405655	-0.762349
H335	H	1.247856	-0.072322	-0.429016
H336	H	1.581189	0.261012	-0.095682
H337	H	0.980966	-0.937207	-0.437120
H338	H	1.314299	-0.603874	-0.103787
H339	H	1.647632	-0.270540	0.229547
C340	C	1.214817	-0.884474	-0.292284
C341	C	1.548151	-0.551141	0.041050
C342	C	1.881484	-0.217808	0.374383
C343	C	1.165715	-0.926717	-0.252624
C344	C	1.499049	-0.593384	0.080709
C345	C	1.832382	-0.260051	0.414042
H346	H	1.247872	-0.859575	-0.259256
H347	H	1.581205	-0.526242	0.074077
H348	H	1.914539	-0.192908	0.407410
H349	H	1.241684	-0.913045	-0.325645
H350	H	1.575018	-0.579712	0.007688
H351	H	1.908351	-0.246379	0.341022
H352	H	1.188194	-0.852145	-0.318837
H353	H	1.521528	-0.518812	0.014496
H354	H	1.854861	-0.185478	0.347829
H355	H	1.192338	-0.959050	-0.226075
H356	H	1.525671	-0.625717	0.107259
H357	H	1.859005	-0.292384	0.440592
H358	H	1.138846	-0.898144	-0.219250
H359	H	1.472179	-0.564811	0.114083
H360	H	1.805512	-0.231477	0.447417
H361	H	0.945031	-0.738785	-0.472887
H362	H	1.278364	-0.405452	-0.139554
H363	H	1.611698	-0.072119	0.193780
H364	H	0.950927	-0.605708	-0.466919
H365	H	1.284261	-0.272375	-0.133585
H366	H	1.617594	0.060958	0.199748
H367	H	1.109698	-0.825532	-0.308516
H368	H	1.443031	-0.492199	0.024818
H369	H	1.776364	-0.158866	0.358151
