data_functionalizedCrystal
_audit_creation_method	'MofGen! by Chris Wilmer'
_symmetry_space_group_name_H-M	'P1'
_symmetry_Int_Tables_number	1
_symmetry_cell_setting	triclinic
loop_
_symmetry_equiv_pos_as_xyz
  x,y,z
_cell_length_a	14.395555
_cell_length_b	14.395555
_cell_length_c	14.446369
_cell_angle_alpha	59.996629
_cell_angle_beta	89.999407
_cell_angle_gamma	60.003201
loop_
_atom_site_label
_atom_site_type_symbol
_atom_site_fract_x
_atom_site_fract_y
_atom_site_fract_z
Zr1	Zr	0.894902	1.016839	-0.121516
O2	O	0.746582	1.210636	-0.269325
O3	O	0.940366	0.823043	-0.076203
O4	O	0.940369	1.016849	-0.269327
O5	O	0.746582	1.016821	0.076136
O6	O	1.093236	1.016856	-0.269330
O7	O	0.746579	1.016830	-0.076201
O8	O	1.093232	0.670172	0.076133
O9	O	0.746586	1.363506	-0.269328
O10	O	1.073844	0.902759	-0.056883
O11	O	0.959763	0.902747	0.056808
O12	O	0.959766	1.130929	-0.170571
O13	O	0.845685	1.130918	-0.056881
Zr14	Zr	1.138712	1.016837	0.121438
Zr15	Zr	1.138708	1.016850	-0.121522
Zr16	Zr	0.894907	1.016826	0.121444
Zr17	Zr	0.894909	1.260648	-0.121520
Zr18	Zr	1.138705	0.773027	0.121442
O19	O	1.093248	1.210633	0.076125
O20	O	1.093242	1.210652	-0.269333
O21	O	0.746588	1.210617	0.076133
O22	O	1.287033	0.823039	0.269247
O23	O	1.287026	0.823058	-0.076211
O24	O	0.940373	0.823024	0.269255
O25	O	1.287032	1.016854	-0.076214
O26	O	1.093246	1.016826	0.269248
O27	O	0.940378	1.016820	0.269252
O28	O	1.287035	1.016846	0.076123
O29	O	0.940379	1.363515	-0.269332
O30	O	1.093235	0.670161	0.269254
O31	O	1.287028	0.670170	0.269249
O32	O	1.287025	0.670181	0.076128
O33	O	0.746590	1.363495	-0.076207
O34	O	0.940383	1.363504	-0.076211
O35	O	1.073848	0.902746	0.170492
O36	O	1.187929	0.902758	0.056802
O37	O	1.073851	1.130928	-0.056886
O38	O	0.959770	1.130917	0.056804
C39	C	1.016798	0.711870	-0.000035
C40	C	1.016795	0.608366	-0.000033
C41	C	0.711844	1.016824	-0.000032
C42	C	0.608342	1.016819	-0.000030
C43	C	0.954596	0.547768	0.061959
C44	C	0.909514	0.562028	-0.044942
C45	C	1.061850	0.409710	0.106836
C46	C	0.971650	0.624053	-0.106998
C47	C	1.124045	0.471672	0.044858
C48	C	1.078990	0.485979	-0.062108
C49	C	0.609953	0.892411	0.061956
C50	C	0.516940	0.954599	0.106884
C51	C	0.516926	0.954636	-0.044925
C52	C	0.516692	1.079008	0.044961
C53	C	0.516692	1.079028	-0.106908
C54	C	0.423662	1.141307	-0.062007
C55	C	1.321771	1.016852	-0.000046
C56	C	1.425273	1.016856	-0.000049
C57	C	1.016802	1.016855	-0.303945
C58	C	1.016800	1.016860	-0.407088
C59	C	1.016816	1.321806	-0.000044
C60	C	1.016819	1.425309	-0.000045
C61	C	0.944503	1.160752	-0.625458
C62	C	0.944808	1.160850	-0.518226
C63	C	1.140761	0.945385	-0.410414
C64	C	1.140373	0.946298	-0.518183
C65	C	0.966161	0.943327	-0.516815
C66	C	0.963645	0.946038	-0.410846
C67	C	1.016813	1.016821	0.303867
C68	C	1.016814	1.016815	0.407010
C69	C	1.321762	0.711883	-0.000042
C70	C	1.425260	0.608385	-0.000043
C71	C	1.016803	0.711853	0.303871
C72	C	1.016802	0.608344	0.407016
C73	C	1.321767	0.711867	0.303864
C74	C	1.425268	0.608362	0.407006
C75	C	0.711847	1.321809	-0.303943
C76	C	0.608347	1.425313	-0.407085
C77	C	0.711853	1.321792	-0.000037
C78	C	0.608354	1.425291	-0.000036
C79	C	1.016811	1.321823	-0.303950
C80	C	1.016812	1.425332	-0.407094
C81	C	1.644386	0.461565	0.071282
C82	C	1.536784	0.568857	0.071694
C83	C	1.428597	0.481079	0.052258
C84	C	1.536738	0.373330	0.052771
C85	C	1.535362	0.548932	-0.123792
C86	C	1.429027	0.657779	-0.123587
C87	C	0.944499	0.461505	0.482006
C88	C	0.944806	0.568812	0.374670
C89	C	1.140763	0.481044	0.481573
C90	C	1.140373	0.373281	0.588439
C91	C	0.966167	0.548859	0.590027
C92	C	0.963652	0.657720	0.481347
C93	C	1.500515	0.461499	0.625376
C94	C	1.392808	0.568818	0.518145
C95	C	1.500067	0.481072	0.410318
C96	C	1.607302	0.373296	0.518086
C97	C	1.608927	0.548854	0.516744
C98	C	1.499873	0.657728	0.410776
H99	H	0.901926	0.574988	0.114306
Br100	Br	0.811430	1.032893	-0.411703
Br101	Br	0.907984	0.776667	-0.257716
H102	H	0.517521	1.131547	0.083026
Br103	Br	1.413900	0.809062	0.411665
Br104	Br	0.290943	1.316786	-0.149373
H105	H	0.979939	0.531220	0.320881
H106	H	1.214715	0.434508	0.082864
Br107	Br	1.042305	0.711473	0.523878
H108	H	0.689707	0.787211	0.114446
H109	H	1.349593	0.690017	-0.181234
H110	H	1.099943	0.318099	0.197219
H111	H	0.516014	0.902016	0.197263
Br112	Br	0.758358	0.624004	-0.108250
Br113	Br	0.518310	1.166599	-0.257515
Br114	Br	1.498765	0.311531	0.717018
H115	H	1.426457	0.442379	0.142427
Br116	Br	0.792666	0.718260	0.284209
Br117	Br	1.302812	0.506186	0.522216
H118	H	1.527399	0.503405	0.332052
Br119	Br	1.413734	0.416596	0.406747
Br120	Br	1.166658	0.441069	-0.149610
Br121	Br	0.792674	1.254197	-0.520852
H122	H	1.509990	0.343273	0.004142
Br123	Br	0.515400	0.866970	-0.108199
H124	H	1.613074	0.588545	0.566774
H125	H	0.852987	1.217238	-0.679408
H126	H	1.350057	0.503402	0.002781
Br127	Br	1.002504	1.254464	-0.717108
H128	H	0.979943	1.217292	-0.520681
H129	H	1.180922	0.997101	-0.568530
H130	H	1.197177	0.840693	-0.491528
H131	H	1.507816	0.524057	-0.177219
Br132	Br	1.234461	0.768924	-0.279965
Br133	Br	1.208827	1.028133	-0.406858
H134	H	1.585554	0.588648	-0.167486
Br135	Br	0.816325	1.020083	-0.600186
H136	H	1.429552	0.748587	-0.162657
Br137	Br	0.791964	0.523786	0.478110
Br138	Br	1.042298	0.770946	-0.278907
H139	H	1.180919	0.282211	0.588165
H140	H	1.018580	0.837292	-0.489366
Br141	Br	1.002496	0.311538	0.480278
Br142	Br	1.736335	0.311593	0.222464
H143	H	0.876265	0.588565	0.594145
Br144	Br	1.620950	0.221526	0.204489
Br145	Br	1.539430	0.718356	0.013134
H146	H	1.197181	0.343217	0.667022
Br147	Br	1.734631	0.523868	0.013104
Br148	Br	1.606829	0.221506	0.601989
Br149	Br	1.540890	0.506193	0.223796
H150	H	1.196979	0.503370	0.508803
Br151	Br	1.302049	0.718251	0.520852
Br152	Br	1.542568	0.711477	0.278840
Br153	Br	1.208824	0.416555	0.395558
Br154	Br	0.811422	0.809043	0.395663
H155	H	1.018588	0.523979	0.668244
H156	H	1.498184	0.498851	0.679344
H157	H	1.686157	0.343235	0.491430
H158	H	1.687418	0.523977	0.489297
