data_functionalizedCrystal
_audit_creation_method	'MofGen! by Chris Wilmer'
_symmetry_space_group_name_H-M	'P1'
_symmetry_Int_Tables_number	1
_symmetry_cell_setting	triclinic
loop_
_symmetry_equiv_pos_as_xyz
  x,y,z
_cell_length_a	11.169416
_cell_length_b	21.395362
_cell_length_c	21.395355
_cell_angle_alpha	90.043940
_cell_angle_beta	89.990430
_cell_angle_gamma	89.979881
loop_
_atom_site_label
_atom_site_type_symbol
_atom_site_fract_x
_atom_site_fract_y
_atom_site_fract_z
Zn1	Zn	0.477437	0.957975	0.354625
Zn2	Zn	0.678108	0.957926	0.249863
Zn3	Zn	0.477493	0.853190	0.249826
Zn4	Zn	0.678133	0.853207	0.354568
O5	O	0.577793	0.905574	0.302221
O6	O	0.504023	1.045646	0.340767
O7	O	0.651509	0.944004	0.162181
O8	O	0.309536	0.867103	0.263735
O9	O	0.651455	1.045610	0.263800
O10	O	0.309495	0.944088	0.340731
O11	O	0.504118	0.867055	0.162153
O12	O	0.504142	0.765514	0.263681
O13	O	0.651497	0.867133	0.442254
O14	O	0.651551	0.765527	0.340635
O15	O	0.504047	0.944105	0.442295
O16	O	0.846061	0.944021	0.263745
O17	O	0.846079	0.867085	0.340671
C18	C	0.577856	0.742787	0.302148
C19	C	0.577912	0.673145	0.302132
C20	C	0.654770	0.640455	0.342141
C21	C	0.654741	0.575020	0.342169
C22	C	0.577866	0.542277	0.302176
C23	C	0.500994	0.574975	0.262164
C24	C	0.501017	0.640409	0.262141
C25	C	0.568198	0.438550	0.245770
C26	C	0.568183	0.373117	0.245792
C27	C	0.577788	0.340456	0.302245
C28	C	0.587433	0.373237	0.358680
C29	C	0.587456	0.438671	0.358658
C30	C	0.577832	0.471325	0.302196
C31	C	0.654618	0.236814	0.342289
C32	C	0.654580	0.171377	0.342318
C33	C	0.500839	0.171333	0.262307
C34	C	0.500871	0.236769	0.262283
C35	C	0.577766	0.269505	0.302273
C36	C	0.264751	0.905599	0.302235
C37	C	0.131351	0.905609	0.302241
C38	C	0.889618	0.905567	0.302220
C39	C	1.023017	0.905621	0.302240
C40	C	0.577769	0.905626	0.465644
C41	C	0.577758	0.905648	0.535285
C42	C	0.577730	1.068998	0.302294
C43	C	0.577703	1.138639	0.302325
C44	C	0.577730	0.905558	0.139433
C45	C	0.577403	0.905658	0.069792
C46	C	0.500978	0.945726	0.568021
C47	C	0.500926	0.945725	0.633456
C48	C	0.577676	0.905653	0.666154
C49	C	0.654462	0.865568	0.633410
C50	C	0.654503	0.865565	0.567976
C51	C	0.685744	0.900703	0.769826
C52	C	0.685705	0.900710	0.835259
C53	C	0.577550	0.905657	0.867974
C54	C	0.469429	0.910610	0.835249
C55	C	0.469470	0.910608	0.769814
C56	C	0.577640	0.905651	0.737106
C57	C	0.500707	0.945736	0.971663
C58	C	0.500653	0.945731	1.037099
C59	C	0.654200	0.865577	1.037052
C60	C	0.654243	0.865579	0.971616
C61	C	0.577498	0.905662	0.938926
H62	H	0.438427	0.667025	0.229560
H63	H	0.438241	0.144675	0.229746
H64	H	0.773795	0.896507	0.743195
H65	H	0.716949	0.832939	0.660036
H66	H	0.717025	0.832926	0.541323
H67	H	0.717224	0.263469	0.374855
H68	H	0.717383	0.667105	0.374706
F69	F	0.419070	0.271561	0.219697
F70	F	0.419183	0.988373	0.668303
H71	H	0.773744	0.896681	0.861900
F72	F	0.419294	0.988384	0.533233
H73	H	0.381435	0.914639	0.743172
H74	H	0.438122	0.978366	1.063752
F75	F	0.419174	0.540127	0.219603
H76	H	0.381359	0.914640	0.861884
F77	F	0.736546	0.540222	0.384755
H78	H	0.438210	0.978371	0.945045
H79	H	0.716679	0.832943	1.063673
H80	H	0.560337	0.346432	0.199839
F81	F	0.557977	0.473304	0.185680
H82	H	0.595252	0.346646	0.404650
F83	F	0.597715	0.473556	0.418717
F84	F	0.736380	0.136586	0.384908
F85	F	0.735969	0.822924	0.936775
