data_functionalizedCrystal
_audit_creation_method	'MofGen! by Chris Wilmer'
_symmetry_space_group_name_H-M	'P1'
_symmetry_Int_Tables_number	1
_symmetry_cell_setting	triclinic
loop_
_symmetry_equiv_pos_as_xyz
  x,y,z
_cell_length_a	19.188930
_cell_length_b	19.188933
_cell_length_c	9.565339
_cell_angle_alpha	89.998444
_cell_angle_beta	89.987193
_cell_angle_gamma	83.145175
loop_
_atom_site_label
_atom_site_type_symbol
_atom_site_fract_x
_atom_site_fract_y
_atom_site_fract_z
O1	O	0.087177	0.926142	-0.116229
O2	O	0.587177	1.426142	0.383771
O3	O	0.098910	0.722831	-0.116244
O4	O	0.598910	1.222831	0.383756
O5	O	-0.008612	0.830354	-0.116209
O6	O	0.491388	1.330354	0.383791
O7	O	0.194699	0.818619	-0.116264
O8	O	0.694699	1.318619	0.383736
O9	O	-0.008622	0.830348	0.116311
O10	O	0.491378	1.330348	0.616311
O11	O	0.098900	0.722825	0.116276
O12	O	0.598900	1.222825	0.616276
O13	O	0.087168	0.926137	0.116291
O14	O	0.587168	1.426137	0.616291
Zn15	Zn	0.093032	0.824480	0.153201
Zn16	Zn	0.593032	1.324480	0.653201
Zn17	Zn	0.093045	0.824487	-0.153154
Zn18	Zn	0.593045	1.324487	0.346846
O19	O	0.194690	0.818614	0.116256
O20	O	0.694690	1.318614	0.616256
C21	C	0.098525	0.696817	0.000014
C22	C	0.598525	1.196817	0.500014
C23	C	0.097384	0.619313	0.000010
C24	C	0.597384	1.119313	0.500010
C25	C	0.089244	0.066060	-0.126720
C26	C	0.589244	0.566060	0.373280
C27	C	0.090312	0.138885	-0.126725
C28	C	0.590312	0.638885	0.373275
C29	C	0.090844	0.175299	0.000021
C30	C	0.590844	0.675299	0.500021
C31	C	0.090290	0.138885	0.126782
C32	C	0.590290	0.638885	0.626782
C33	C	0.089215	0.066063	0.126784
C34	C	0.589215	0.566063	0.626784
N35	N	0.132259	0.284316	0.094352
N36	N	0.632259	0.784316	0.594352
N37	N	0.133281	0.353494	0.094342
N38	N	0.633281	0.853494	0.594342
C39	C	0.094082	0.394707	0.000022
C40	C	0.594082	0.894707	0.500022
N41	N	0.053830	0.364128	-0.094308
N42	N	0.553830	0.864128	0.405692
N43	N	0.052810	0.294944	-0.094301
N44	N	0.552810	0.794944	0.405699
C45	C	0.092009	0.254262	0.000033
C46	C	0.592009	0.754262	0.500033
C47	C	0.095789	0.510077	-0.126737
C48	C	0.595789	1.010077	0.373263
C49	C	0.096853	0.582904	-0.126738
C50	C	0.596853	1.082904	0.373262
C51	C	0.096838	0.582901	0.126773
C52	C	0.596838	1.082901	0.626773
C53	C	0.095767	0.510078	0.126770
C54	C	0.595767	1.010078	0.626770
C55	C	0.095246	0.473669	0.000011
C56	C	0.595246	0.973669	0.500011
C57	C	-0.034628	0.829971	0.000055
C58	C	0.465372	1.329971	0.500055
C59	C	-0.112132	0.828830	0.000067
C60	C	0.387868	1.328830	0.500067
C61	C	-0.157056	0.891921	0.000079
C62	C	0.342944	1.391921	0.500079
C63	C	-0.229880	0.890849	0.000056
C64	C	0.270120	1.390849	0.500056
C65	C	-0.257777	0.826683	0.000050
C66	C	0.242223	1.326683	0.500050
C67	C	-0.212843	0.763584	0.000031
C68	C	0.287157	1.263584	0.500031
C69	C	-0.140021	0.764658	0.000039
C70	C	0.359979	1.264658	0.500039
N71	N	-0.365785	0.777634	0.079178
N72	N	0.134215	1.277634	0.579178
N73	N	-0.434964	0.776619	0.079173
N74	N	0.065036	1.276619	0.579173
C75	C	-0.477185	0.823445	0.000022
C76	C	0.022815	1.323445	0.500022
N77	N	-0.447616	0.871336	-0.079106
N78	N	0.052384	1.371336	0.420894
N79	N	-0.378431	0.872354	-0.079095
N80	N	0.121569	1.372354	0.420905
C81	C	-0.336739	0.825512	0.000040
C82	C	0.163261	1.325512	0.500040
C83	C	-0.601073	0.885378	0.000007
C84	C	-0.101073	1.385378	0.500007
C85	C	-0.673898	0.884304	-0.000024
C86	C	-0.173898	1.384304	0.499976
C87	C	-0.656860	0.757037	-0.000035
C88	C	-0.156860	1.257037	0.499965
C89	C	-0.584037	0.758113	-0.000018
C90	C	-0.084037	1.258113	0.499982
C91	C	-0.556148	0.822286	0.000009
C92	C	-0.056148	1.322286	0.500009
C93	C	0.220705	0.818997	-0.000011
C94	C	0.720705	1.318997	0.499989
C95	C	0.298210	0.820137	-0.000032
C96	C	0.798210	1.320137	0.499968
C97	C	0.087553	0.952150	0.000029
C98	C	0.587553	1.452150	0.500029
C99	C	0.088694	1.029655	0.000025
C100	C	0.588694	1.529655	0.500025
N101	N	0.093023	0.824480	0.362280
N102	N	0.593023	1.324480	0.862280
C103	C	0.042916	0.873826	0.546633
C104	C	0.542916	1.373826	1.046633
C105	C	0.105769	0.887744	0.453378
C106	C	0.605769	1.387744	0.953378
C107	C	0.030174	0.810594	0.453466
C108	C	0.530174	1.310594	0.953466
C109	C	0.155933	0.838442	0.546564
C110	C	0.655933	1.338442	1.046564
C111	C	0.080297	0.761265	0.546659
C112	C	0.580297	1.261265	1.046659
C113	C	0.143196	0.775155	0.453447
C114	C	0.643196	1.275155	0.953447
N115	N	0.093047	0.824493	0.637766
N116	N	0.593047	1.324493	1.137766
H117	H	0.095322	0.480435	0.229980
H118	H	0.595322	0.980435	0.729980
H119	H	0.097268	0.612549	0.229973
H120	H	0.597268	1.112549	0.729973
H121	H	0.000578	0.915579	0.587546
H122	H	0.500578	1.415579	1.087546
H123	H	-0.710475	0.935682	-0.000023
H124	H	-0.210475	1.435682	0.499977
Cl125	Cl	0.063623	0.678743	0.609973
Cl126	Cl	0.563623	1.178743	1.109973
H127	H	0.185627	0.733428	0.412790
H128	H	0.685627	1.233428	0.912790
H129	H	-0.022986	0.798843	0.412569
H130	H	0.477014	1.298843	0.912569
Cl131	Cl	0.097537	0.628672	-0.286089
Cl132	Cl	0.597537	1.128672	0.213911
Cl133	Cl	-0.083543	0.685337	0.000026
Cl134	Cl	0.416457	1.185337	0.500026
Cl135	Cl	-0.121999	0.972595	0.000074
Cl136	Cl	0.378001	1.472595	0.500074
H137	H	0.209106	0.850250	0.587288
H138	H	0.709106	1.350250	1.087288
Cl139	Cl	-0.286365	0.970169	0.000069
Cl140	Cl	0.213635	1.470169	0.500069
Cl141	Cl	-0.247913	0.682918	0.000012
Cl142	Cl	0.252087	1.182918	0.500012
H143	H	0.088817	0.036422	-0.229937
H144	H	0.588817	0.536422	0.270063
Cl145	Cl	-0.566010	0.966050	0.000050
Cl146	Cl	-0.066010	1.466050	0.500050
H147	H	-0.679573	0.704792	-0.000047
H148	H	-0.179573	1.204792	0.499953
H149	H	0.090764	0.168531	-0.229939
H150	H	0.590764	0.668531	0.270061
H151	H	-0.547459	0.706738	-0.000020
H152	H	-0.047459	1.206738	0.499980
H153	H	0.090722	0.168538	0.229980
H154	H	0.590722	0.668538	0.729980
Cl155	Cl	0.095129	0.464305	-0.286088
Cl156	Cl	0.595129	0.964305	0.213912
Cl157	Cl	0.088527	0.020293	0.286134
Cl158	Cl	0.588527	0.520293	0.786134
Cl159	Cl	0.122401	0.970285	0.390078
Cl160	Cl	0.622401	1.470285	0.890078
