data_functionalizedCrystal
_audit_creation_method	'MofGen! by Chris Wilmer'
_symmetry_space_group_name_H-M	'P1'
_symmetry_Int_Tables_number	1
_symmetry_cell_setting	triclinic
loop_
_symmetry_equiv_pos_as_xyz
  x,y,z
_cell_length_a	23.532407
_cell_length_b	14.971506
_cell_length_c	14.048226
_cell_angle_alpha	89.993237
_cell_angle_beta	89.998899
_cell_angle_gamma	96.764467
loop_
_atom_site_label
_atom_site_type_symbol
_atom_site_fract_x
_atom_site_fract_y
_atom_site_fract_z
O1	O	-0.074271	1.186151	-0.079151
O2	O	-0.083147	0.925660	-0.079149
O3	O	0.004189	1.063761	-0.079162
O4	O	-0.161607	1.048050	-0.079138
O5	O	0.004194	1.063744	0.079159
O6	O	-0.083141	0.925643	0.079172
O7	O	-0.074266	1.186135	0.079170
Zn8	Zn	-0.078703	1.055886	0.104308
Zn9	Zn	-0.078710	1.055908	-0.104287
O10	O	-0.161601	1.048034	0.079183
C11	C	-0.082745	0.892331	0.000011
C12	C	-0.081549	0.793048	0.000011
C13	C	-0.128294	0.354271	0.000008
C14	C	-0.129413	0.447560	0.000004
C15	C	-0.078101	0.505322	0.000001
C16	C	-0.025665	0.469791	-0.000008
C17	C	-0.024547	0.376505	-0.000011
C18	C	-0.028000	0.664230	0.000000
C19	C	-0.029118	0.757523	0.000005
C20	C	-0.132867	0.735285	0.000015
C21	C	-0.131748	0.641998	0.000012
C22	C	-0.079313	0.606474	0.000005
C23	C	-0.182822	1.048442	0.000026
C24	C	-0.246044	1.049645	0.000035
C25	C	-0.644826	0.975464	-0.000014
C26	C	-0.704231	0.976581	-0.000020
O27	O	-0.740678	0.907815	-0.000055
N28	N	-0.727213	1.058682	-0.000020
C29	C	-0.690786	1.139671	-0.000022
O30	O	-0.715788	1.209607	-0.000023
C31	C	-0.631382	1.138553	-0.000022
C32	C	-0.608404	1.056447	-0.000013
C33	C	-0.621847	0.893364	-0.000006
C34	C	-0.562446	0.892247	0.000003
C35	C	-0.526024	0.973230	0.000003
C36	C	-0.549003	1.055330	-0.000005
C37	C	-0.594956	1.219541	-0.000031
C38	C	-0.535549	1.218415	-0.000032
C39	C	-0.512570	1.136309	-0.000023
C40	C	-0.453179	1.135195	0.000004
N41	N	-0.430198	1.053094	0.000004
C42	C	-0.466620	0.972112	0.000003
C43	C	-0.815538	1.142013	-0.000023
C44	C	-0.874941	1.143133	-0.000016
C45	C	-0.888382	0.980042	-0.000017
C46	C	-0.828978	0.978924	-0.000017
C47	C	-0.792557	1.059912	-0.000024
C48	C	-0.341873	0.969772	0.000022
C49	C	-0.282466	0.968662	0.000034
C50	C	-0.269030	1.131752	0.000029
C51	C	-0.328432	1.132862	0.000022
C52	C	-0.364852	1.051865	0.000015
O53	O	-0.416698	1.203926	0.000035
O54	O	-0.441609	0.902187	-0.000009
C55	C	0.025409	1.063352	-0.000007
C56	C	0.088631	1.062149	-0.000022
C57	C	-0.074668	1.219463	0.000008
C58	C	-0.075863	1.318747	0.000002
N59	N	-0.078698	1.055878	0.246669
N60	N	-0.078710	1.055923	-0.246648
C61	C	-0.040042	1.117048	0.296481
C62	C	-0.040041	1.117054	0.396139
C63	C	-0.078700	1.055894	0.445982
C64	C	-0.117358	0.994717	0.396163
C65	C	-0.117356	0.994708	0.296507
C66	C	-0.117363	0.994743	0.603877
C67	C	-0.117366	0.994753	0.703540
C68	C	-0.040048	1.117090	0.703509
C69	C	-0.040046	1.117080	0.603853
C70	C	-0.078704	1.055904	0.554041
H71	H	-0.263761	0.901799	0.000046
H72	H	-0.148846	0.944949	0.744117
H73	H	0.014699	0.635310	-0.000010
Cl74	Cl	0.035390	0.830137	-0.000007
H75	H	-0.371520	0.903816	0.000016
Cl76	Cl	-0.195330	0.492215	0.000007
H77	H	-0.008569	1.166885	0.563271
Cl78	Cl	-0.192806	0.281665	0.000020
Cl79	Cl	-0.667626	0.791543	-0.000008
Cl80	Cl	-0.165952	0.917801	0.233887
Cl81	Cl	-0.198785	0.779943	0.000035
H82	H	0.018148	0.347583	-0.000018
H83	H	-0.008564	1.166863	0.436696
Cl84	Cl	-0.533569	0.789022	0.000002
Cl85	Cl	-0.196257	0.569384	0.000021
Cl86	Cl	-0.769756	1.243838	-0.000020
H87	H	-0.810274	0.912066	-0.000006
H88	H	-0.613654	1.286400	-0.000039
H89	H	0.016115	0.516829	-0.000016
Cl90	Cl	-0.903820	1.246356	-0.000013
H91	H	-0.918049	0.914102	-0.000016
H92	H	-0.505896	1.284367	-0.000043
H93	H	-0.347141	1.199720	0.000028
H94	H	-0.239365	1.197686	0.000034
Cl95	Cl	0.008559	1.193945	0.233831
Cl96	Cl	0.008549	1.193996	0.766133
Cl97	Cl	-0.165962	0.917832	0.541260
Cl98	Cl	-0.165957	0.917824	0.458821
