data_functionalizedCrystal
_audit_creation_method	'MofGen! by Chris Wilmer'
_symmetry_space_group_name_H-M	'P1'
_symmetry_Int_Tables_number	1
_symmetry_cell_setting	triclinic
loop_
_symmetry_equiv_pos_as_xyz
  x,y,z
_cell_length_a	10.654545
_cell_length_b	9.065215
_cell_length_c	9.130313
_cell_angle_alpha	89.996437
_cell_angle_beta	89.996934
_cell_angle_gamma	84.748888
loop_
_atom_site_label
_atom_site_type_symbol
_atom_site_fract_x
_atom_site_fract_y
_atom_site_fract_z
O1	O	1.668662	0.207203	-0.121782
O2	O	2.168662	0.707203	0.378218
O3	O	1.303260	0.226954	-0.121787
O4	O	1.803260	0.726954	0.378213
O5	O	1.493516	0.002395	-0.121778
O6	O	1.993516	0.502395	0.378222
O7	O	1.478406	0.431763	-0.121791
O8	O	1.978406	0.931763	0.378209
O9	O	1.493502	0.002388	0.121821
O10	O	1.993502	0.502388	0.621821
O11	O	1.303247	0.226948	0.121811
O12	O	1.803247	0.726948	0.621811
O13	O	1.668648	0.207197	0.121817
O14	O	2.168648	0.707197	0.621817
Cu15	Cu	1.485947	0.217072	0.144057
Cu16	Cu	1.985947	0.717072	0.644057
Cu17	Cu	1.485962	0.217079	-0.144027
Cu18	Cu	1.985962	0.717079	0.355973
O19	O	1.478393	0.431756	0.121808
O20	O	1.978393	0.931756	0.621808
C21	C	1.256450	0.225502	0.000011
C22	C	1.756450	0.725502	0.500011
C23	C	1.116989	0.221167	0.000009
C24	C	1.616989	0.721167	0.500009
C25	C	1.051470	0.219123	0.132796
C26	C	1.551470	0.719123	0.632796
C27	C	0.920434	0.215026	0.132796
C28	C	1.420434	0.715026	0.632796
C29	C	0.920449	0.215023	-0.132789
C30	C	1.420449	0.715023	0.367211
C31	C	1.051483	0.219110	-0.132788
C32	C	1.551483	0.719110	0.367212
C33	C	1.492058	-0.052587	0.000020
C34	C	1.992058	0.447413	0.500020
C35	C	1.487718	-0.216407	0.000015
C36	C	1.987718	0.283593	0.500015
C37	C	1.715459	0.208649	0.000015
C38	C	2.215459	0.708649	0.500015
C39	C	1.854919	0.212984	0.000008
C40	C	2.354919	0.712984	0.500008
C41	C	1.479851	0.486738	0.000007
C42	C	1.979851	0.986738	0.500007
C43	C	1.484190	0.650558	0.000002
C44	C	1.984190	1.150558	0.500002
N45	N	1.485945	0.217065	0.346680
N46	N	1.985945	0.717065	0.846680
N47	N	1.485974	0.217074	-0.346650
N48	N	1.985974	0.717074	0.153350
C49	C	1.570219	0.117672	0.423336
C50	C	2.070219	0.617672	0.923336
C51	C	1.570231	0.117673	0.576672
C52	C	2.070231	0.617673	1.076672
C53	C	1.401691	0.316472	0.576684
C54	C	1.901691	0.816472	1.076684
C55	C	1.401674	0.316463	0.423350
C56	C	1.901674	0.816463	0.923350
H57	H	0.867098	0.213350	-0.240907
H58	H	1.367098	0.713350	0.259093
H59	H	1.104831	0.220771	-0.240925
H60	H	1.604831	0.720771	0.259075
H61	H	1.333081	0.397401	0.639124
H62	H	1.833081	0.897401	1.139124
H63	H	1.638853	0.036737	0.639081
H64	H	2.138853	0.536737	1.139081
H65	H	1.104801	0.220799	0.240927
H66	H	1.604801	0.720799	0.740927
F67	F	1.659905	0.011881	0.341743
F68	F	2.159905	0.511881	0.841743
F69	F	0.850708	0.212852	0.274126
F70	F	1.350708	0.712852	0.774126
F71	F	1.311968	0.422250	0.341760
F72	F	1.811968	0.922250	0.841760
