data_functionalizedCrystal
_audit_creation_method	'MofGen! by Chris Wilmer'
_symmetry_space_group_name_H-M	'P1'
_symmetry_Int_Tables_number	1
_symmetry_cell_setting	triclinic
loop_
_symmetry_equiv_pos_as_xyz
  x,y,z
_cell_length_a	16.625547
_cell_length_b	25.639240
_cell_length_c	16.625539
_cell_angle_alpha	90.038438
_cell_angle_beta	90.024822
_cell_angle_gamma	90.032694
loop_
_atom_site_label
_atom_site_type_symbol
_atom_site_fract_x
_atom_site_fract_y
_atom_site_fract_z
Zn1	Zn	1.232623	-0.208151	0.455944
Zn2	Zn	1.732623	0.291849	0.955944
Zn3	Zn	1.232502	-0.295589	0.321087
Zn4	Zn	1.732502	0.204411	0.821087
Zn5	Zn	1.097785	-0.208169	0.321115
Zn6	Zn	1.597785	0.291831	0.821115
Zn7	Zn	1.097731	-0.295557	0.455867
Zn8	Zn	1.597731	0.204443	0.955867
O9	O	1.165160	-0.251866	0.388503
O10	O	1.665160	0.248134	0.888503
O11	O	1.345439	-0.219755	0.438076
O12	O	1.845439	0.280245	0.938076
O13	O	1.214603	-0.284013	0.208259
O14	O	1.714603	0.215987	0.708259
O15	O	1.115744	-0.135001	0.339043
O16	O	1.615744	0.364999	0.839043
O17	O	1.345350	-0.283995	0.338997
O18	O	1.845350	0.216005	0.838997
O19	O	1.214809	-0.134988	0.438102
O20	O	1.714809	0.365012	0.938102
O21	O	1.115627	-0.219786	0.208279
O22	O	1.615627	0.280214	0.708279
O23	O	0.984945	-0.219755	0.338969
O24	O	1.484945	0.280245	0.838969
O25	O	1.115653	-0.283941	0.568710
O26	O	1.615653	0.216059	1.068710
O27	O	0.984906	-0.283959	0.437971
O28	O	1.484906	0.216041	0.937971
O29	O	1.214757	-0.219724	0.568766
O30	O	1.714757	0.280276	1.068766
O31	O	1.214551	-0.368750	0.338923
O32	O	1.714551	0.131250	0.838923
O33	O	1.115535	-0.368726	0.437945
O34	O	1.615535	0.131274	0.937945
C35	C	0.955669	-0.251856	0.388465
C36	C	1.455669	0.248144	0.888465
C37	C	0.866048	-0.251864	0.388468
C38	C	1.366048	0.248136	0.888468
C39	C	0.793266	-0.251865	0.388478
C40	C	1.293266	0.248135	0.888478
C41	C	0.701957	-0.251868	0.388498
C42	C	1.201957	0.248132	0.888498
C43	C	0.629181	-0.251873	0.388519
C44	C	1.129181	0.248127	0.888519
C45	C	0.537866	-0.251877	0.388538
C46	C	1.037866	0.248123	0.888538
C47	C	1.165046	-0.387709	0.388440
C48	C	1.665046	0.112291	0.888440
C49	C	1.165071	-0.445823	0.388440
C50	C	1.665071	0.054177	0.888440
C51	C	1.216769	-0.806140	0.440176
C52	C	1.716769	-0.306140	0.940176
C53	C	1.216793	-0.860745	0.440193
C54	C	1.716793	-0.360745	0.940193
O55	O	1.260612	-0.888943	0.484116
O56	O	1.760612	-0.388943	0.984116
N57	N	1.165272	-0.888105	0.388581
N58	N	1.665272	-0.388105	0.888581
C59	C	1.113718	-0.860859	0.336956
C60	C	1.613718	-0.360859	0.836956
O61	O	1.069898	-0.889145	0.293059
O62	O	1.569898	-0.389145	0.793059
C63	C	1.113691	-0.806255	0.336944
C64	C	1.613691	-0.306255	0.836944
C65	C	1.165221	-0.778898	0.388553
C66	C	1.665221	-0.278898	0.888553
C67	C	1.268294	-0.778783	0.491782
C68	C	1.768294	-0.278783	0.991782
C69	C	1.268271	-0.724182	0.491764
C70	C	1.768271	-0.224182	0.991764
C71	C	1.216723	-0.696939	0.440141
C72	C	1.716723	-0.196939	0.940141
C73	C	1.165198	-0.724297	0.388536
C74	C	1.665198	-0.224297	0.888536
C75	C	1.062134	-0.779010	0.285324
C76	C	1.562134	-0.279010	0.785324
C77	C	1.062111	-0.724403	0.285317
C78	C	1.562111	-0.224403	0.785317
C79	C	1.113641	-0.697045	0.336926
C80	C	1.613641	-0.197045	0.836926
C81	C	1.113627	-0.642454	0.336895
C82	C	1.613627	-0.142454	0.836895
N83	N	1.165148	-0.615093	0.388506
N84	N	1.665148	-0.115093	0.888506
C85	C	1.216696	-0.642336	0.440129
C86	C	1.716696	-0.142336	0.940129
C87	C	1.113778	-0.975529	0.336986
C88	C	1.613778	-0.475529	0.836986
C89	C	1.113809	-1.030132	0.336993
C90	C	1.613809	-0.530132	0.836993
C91	C	1.216883	-1.030014	0.440230
C92	C	1.716883	-0.530014	0.940230
C93	C	1.216855	-0.975411	0.440219
C94	C	1.716855	-0.475411	0.940219
C95	C	1.165299	-0.948169	0.388597
C96	C	1.665299	-0.448169	0.888597
C97	C	1.216644	-0.527671	0.440088
C98	C	1.716644	-0.027671	0.940088
C99	C	1.216619	-0.473066	0.440063
C100	C	1.716619	0.026934	0.940063
C101	C	1.113543	-0.473188	0.336829
C102	C	1.613543	0.026812	0.836829
C103	C	1.113571	-0.527789	0.336850
C104	C	1.613571	-0.027789	0.836850
C105	C	1.165124	-0.555029	0.388486
C106	C	1.665124	-0.055029	0.888486
O107	O	1.069827	-0.614221	0.292997
O108	O	1.569827	-0.114221	0.792997
O109	O	1.260502	-0.614043	0.484027
O110	O	1.760502	-0.114043	0.984027
C111	C	1.375469	-0.251877	0.388542
C112	C	1.875469	0.248123	0.888542
C113	C	1.465090	-0.251881	0.388559
C114	C	1.965090	0.248119	0.888559
C115	C	1.165212	-0.251827	0.598812
C116	C	1.665212	0.248173	1.098812
C117	C	1.165235	-0.251811	0.688434
C118	C	1.665235	0.248189	1.188434
C119	C	1.165296	-0.115493	0.388584
C120	C	1.665296	0.384507	0.888584
C121	C	1.165354	-0.057379	0.388619
C122	C	1.665354	0.442621	0.888619
C123	C	1.165154	-0.251867	0.179013
C124	C	1.665154	0.248133	0.679013
C125	C	1.165288	-0.251737	0.089392
C126	C	1.665288	0.248263	0.589392
C127	C	1.165272	-0.251752	1.016609
C128	C	1.665272	0.248248	1.516609
C129	C	1.165259	-0.251770	0.925301
C130	C	1.665259	0.248230	1.425301
C131	C	1.165254	-0.251782	0.852524
C132	C	1.665254	0.248218	1.352524
C133	C	1.165240	-0.251799	0.761210
C134	C	1.665240	0.248201	1.261210
H135	H	1.258618	-0.549843	0.482140
H136	H	1.758618	-0.049843	0.982140
H137	H	1.020125	-0.702225	0.243281
H138	H	1.520125	-0.202225	0.743281
H139	H	1.071617	-0.550065	0.294819
H140	H	1.571617	-0.050065	0.794819
H141	H	1.071576	-0.450999	0.294795
H142	H	1.571576	0.049001	0.794795
O143	O	1.063717	-1.056760	0.286967
O144	O	1.563717	-0.556760	0.786967
C145	C	0.954841	-1.118440	0.276029
C146	C	1.454841	-0.618440	0.776029
C147	C	1.011541	-1.088329	0.332769
C148	C	1.511541	-0.588329	0.832769
H149	H	0.912632	-1.143962	0.313038
H150	H	1.412632	-0.643962	0.813038
H151	H	0.991843	-1.144043	0.233921
H152	H	1.491843	-0.644043	0.733921
H153	H	0.918036	-1.089572	0.239117
H154	H	1.418036	-0.589572	0.739117
H155	H	1.048358	-1.117158	0.369734
H156	H	1.548358	-0.617158	0.869734
H157	H	0.974493	-1.062717	0.374825
H158	H	1.474493	-0.562717	0.874825
O159	O	1.318259	-0.805265	0.542016
O160	O	1.818259	-0.305265	1.042016
C161	C	1.329108	-0.866863	0.650880
C162	C	1.829108	-0.366863	1.150880
C163	C	1.272420	-0.836902	0.594054
C164	C	1.772420	-0.336902	1.094054
H165	H	1.292071	-0.892457	0.692955
H166	H	1.792071	-0.392457	1.192955
H167	H	1.365909	-0.837945	0.687814
H168	H	1.865909	-0.337945	1.187814
H169	H	1.371322	-0.892397	0.613892
H170	H	1.871322	-0.392397	1.113892
H171	H	1.230158	-0.811368	0.630979
H172	H	1.730158	-0.311368	1.130979
H173	H	1.235676	-0.865848	0.557117
H174	H	1.735676	-0.365848	1.057117
O175	O	1.011997	-0.805496	0.235168
O176	O	1.511997	-0.305496	0.735168
C177	C	0.909780	-0.799826	0.132752
C178	C	1.409780	-0.299826	0.632752
C179	C	0.966511	-0.769767	0.189527
C180	C	1.466511	-0.269767	0.689527
H181	H	0.873001	-0.770952	0.095825
H182	H	1.373001	-0.270952	0.595825
H183	H	0.867554	-0.825377	0.169698
H184	H	1.367554	-0.325377	0.669698
H185	H	0.946834	-0.825407	0.090660
H186	H	1.446834	-0.325407	0.590660
H187	H	0.929522	-0.744157	0.231631
H188	H	1.429522	-0.244157	0.731631
H189	H	1.008739	-0.744249	0.152531
H190	H	1.508739	-0.244249	0.652531
H191	H	1.258584	-0.450793	0.482089
H192	H	1.758584	0.049207	0.982089
O193	O	1.318349	-0.697692	0.541978
O194	O	1.818349	-0.197692	1.041978
C195	C	1.420617	-0.703358	0.644343
C196	C	1.920617	-0.203358	1.144343
C197	C	1.363930	-0.733419	0.587526
C198	C	1.863930	-0.233419	1.087526
H199	H	1.457497	-0.732231	0.681172
H200	H	1.957497	-0.232231	1.181172
H201	H	1.383605	-0.677808	0.686519
H202	H	1.883605	-0.177808	1.186519
H203	H	1.462758	-0.677776	0.607354
H204	H	1.962758	-0.177776	1.107354
H205	H	1.321778	-0.759029	0.624451
H206	H	1.821778	-0.259029	1.124451
H207	H	1.400993	-0.758936	0.545348
H208	H	1.900993	-0.258936	1.045348
O209	O	1.266992	-0.948815	0.490242
O210	O	1.766992	-0.448815	0.990242
C211	C	1.375789	-0.887079	0.501203
C212	C	1.875789	-0.387079	1.001203
C213	C	1.319072	-0.917170	0.444455
C214	C	1.819072	-0.417170	0.944455
H215	H	1.417898	-0.861479	0.464208
H216	H	1.917898	-0.361479	0.964208
H217	H	1.412692	-0.915912	0.538082
H218	H	1.912692	-0.415912	1.038082
H219	H	1.338718	-0.861540	0.543341
H220	H	1.838718	-0.361540	1.043341
H221	H	1.356081	-0.942710	0.402268
H222	H	1.856081	-0.442710	0.902268
H223	H	1.282166	-0.888309	0.407632
H224	H	1.782166	-0.388309	0.907632
H225	H	1.258854	-1.052205	0.482266
H226	H	1.758854	-0.552205	0.982266
O227	O	1.063675	-0.949149	0.286753
O228	O	1.563675	-0.449149	0.786753
C229	C	0.961413	-0.955040	0.184389
C230	C	1.461413	-0.455040	0.684389
C231	C	1.018127	-0.984976	0.241220
C232	C	1.518127	-0.484976	0.741220
H233	H	0.924560	-0.983993	0.147573
H234	H	1.424560	-0.483993	0.647573
H235	H	0.998402	-0.929493	0.142202
H236	H	1.498402	-0.429493	0.642202
H237	H	0.919248	-0.929467	0.221366
H238	H	1.419248	-0.429467	0.721366
H239	H	1.060303	-1.010578	0.204308
H240	H	1.560303	-0.510578	0.704308
H241	H	0.981088	-1.010491	0.283409
H242	H	1.481088	-0.510491	0.783409
