data_functionalizedCrystal
_audit_creation_method	'MofGen! by Chris Wilmer'
_symmetry_space_group_name_H-M	'P1'
_symmetry_Int_Tables_number	1
_symmetry_cell_setting	triclinic
loop_
_symmetry_equiv_pos_as_xyz
  x,y,z
_cell_length_a	14.519709
_cell_length_b	14.519709
_cell_length_c	12.996460
_cell_angle_alpha	90.007090
_cell_angle_beta	90.000034
_cell_angle_gamma	96.319855
loop_
_atom_site_label
_atom_site_type_symbol
_atom_site_fract_x
_atom_site_fract_y
_atom_site_fract_z
O1	O	1.223869	-0.120893	-0.085435
O2	O	1.557202	0.212440	0.247898
O3	O	1.890535	0.545774	0.581232
O4	O	0.955392	-0.135129	-0.085467
O5	O	1.288725	0.198204	0.247866
O6	O	1.622059	0.531537	0.581200
O7	O	1.096749	0.006227	-0.085441
O8	O	1.430082	0.339561	0.247892
O9	O	1.763415	0.672894	0.581226
O10	O	1.082512	-0.262250	-0.085461
O11	O	1.415845	0.071084	0.247872
O12	O	1.749179	0.404417	0.581206
O13	O	1.096734	0.006235	0.085693
O14	O	1.430067	0.339568	0.419026
O15	O	1.763400	0.672902	0.752360
O16	O	0.955377	-0.135122	0.085667
O17	O	1.288710	0.198212	0.419000
O18	O	1.622044	0.531545	0.752334
O19	O	1.223854	-0.120885	0.085699
O20	O	1.557187	0.212448	0.419032
O21	O	1.890521	0.545782	0.752365
Cu22	Cu	1.089614	-0.128003	0.101309
Cu23	Cu	1.422948	0.205331	0.434642
Cu24	Cu	1.756281	0.538664	0.767975
Cu25	Cu	1.089632	-0.128012	-0.101077
Cu26	Cu	1.422965	0.205321	0.232256
Cu27	Cu	1.756298	0.538655	0.565590
O28	O	1.082497	-0.262242	0.085673
O29	O	1.415831	0.071092	0.419006
O30	O	1.749164	0.404425	0.752339
C31	C	0.921025	-0.134462	0.000096
C32	C	1.254358	0.198871	0.333429
C33	C	1.587691	0.532205	0.666763
C34	C	0.818643	-0.132474	0.000084
C35	C	1.151977	0.200859	0.333418
C36	C	1.485310	0.534193	0.666751
C37	C	1.096078	0.040591	0.000126
C38	C	1.429411	0.373924	0.333459
C39	C	1.762744	0.707258	0.666793
C40	C	1.094090	0.142972	0.000126
C41	C	1.427423	0.476306	0.333460
C42	C	1.760756	0.809639	0.666793
C43	C	0.443748	-0.125154	0.000132
C44	C	0.777081	0.208179	0.333465
C45	C	1.110414	0.541512	0.666798
C46	C	0.548056	-0.127187	0.000118
C47	C	0.881389	0.206146	0.333451
C48	C	1.214722	0.539480	0.666785
C49	C	0.631192	-0.128814	0.000107
C50	C	0.964526	0.204519	0.333440
C51	C	1.297859	0.537853	0.666774
C52	C	0.735507	-0.130847	0.000095
C53	C	1.068840	0.202486	0.333429
C54	C	1.402173	0.535820	0.666762
C55	C	1.258221	-0.121553	0.000134
C56	C	1.591554	0.211781	0.333467
C57	C	1.924888	0.545114	0.666800
C58	C	1.360602	-0.123541	0.000139
C59	C	1.693936	0.209793	0.333472
C60	C	2.027269	0.543126	0.666805
N61	N	1.089609	-0.127996	0.243656
N62	N	1.422942	0.205338	0.576989
N63	N	1.756275	0.538671	0.910322
C64	C	1.083168	-0.296605	0.000103
C65	C	1.416501	0.036728	0.333437
C66	C	1.749835	0.370061	0.666770
C67	C	1.085156	-0.398987	0.000096
C68	C	1.418490	-0.065653	0.333430
C69	C	1.751823	0.267680	0.666763
C70	C	1.086770	0.517868	0.000099
C71	C	1.420103	0.851201	0.333432
C72	C	1.753437	1.184535	0.666766
C73	C	1.088803	0.413560	0.000107
C74	C	1.422136	0.746893	0.333440
C75	C	1.755469	1.080227	0.666774
C76	C	1.090430	0.330423	0.000114
C77	C	1.423763	0.663757	0.333447
C78	C	1.757096	0.997090	0.666780
C79	C	1.092463	0.226109	0.000120
C80	C	1.425796	0.559442	0.333453
C81	C	1.759129	0.892776	0.666786
N82	N	1.089644	-0.128012	-0.243424
N83	N	1.422978	0.205322	0.089909
N84	N	1.756311	0.538655	0.423243
C85	C	1.089630	-0.128013	0.663470
C86	C	1.422964	0.205320	0.996803
C87	C	1.756297	0.538654	1.330137
C88	C	1.089622	-0.128011	0.546665
C89	C	1.422955	0.205322	0.879998
C90	C	1.756288	0.538656	1.213332
C91	C	1.089620	-0.128005	0.453567
C92	C	1.422953	0.205328	0.786900
C93	C	1.756287	0.538662	1.120233
C94	C	1.089610	-0.128002	0.336754
C95	C	1.422944	0.205332	0.670087
C96	C	1.756277	0.538665	1.003421
