data_functionalizedCrystal
_audit_creation_method	'MofGen! by Chris Wilmer'
_symmetry_space_group_name_H-M	'P1'
_symmetry_Int_Tables_number	1
_symmetry_cell_setting	triclinic
loop_
_symmetry_equiv_pos_as_xyz
  x,y,z
_cell_length_a	16.956995
_cell_length_b	19.288865
_cell_length_c	17.766277
_cell_angle_alpha	90.011603
_cell_angle_beta	89.993085
_cell_angle_gamma	100.404640
loop_
_atom_site_label
_atom_site_type_symbol
_atom_site_fract_x
_atom_site_fract_y
_atom_site_fract_z
O1	O	1.057939	-0.028794	-0.062548
O2	O	1.557939	0.471206	0.437452
O3	O	0.825694	-0.053183	-0.062563
O4	O	1.325694	0.446817	0.437437
O5	O	0.948527	0.060509	-0.062540
O6	O	1.448527	0.560509	0.437460
O7	O	0.935106	-0.142486	-0.062571
O8	O	1.435106	0.357514	0.437429
O9	O	0.948506	0.060513	0.062648
O10	O	1.448506	0.560513	0.562648
O11	O	0.825673	-0.053179	0.062626
O12	O	1.325673	0.446821	0.562626
O13	O	1.057917	-0.028790	0.062640
O14	O	1.557917	0.471210	0.562640
Cu15	Cu	0.941793	-0.040984	0.074064
Cu16	Cu	1.441793	0.459016	0.574064
Cu17	Cu	0.941819	-0.040989	-0.073986
Cu18	Cu	1.441819	0.459011	0.426014
O19	O	0.935084	-0.142482	0.062618
O20	O	1.435084	0.357518	0.562618
C21	C	0.795971	-0.054430	0.000030
C22	C	1.295971	0.445570	0.500030
C23	C	0.707437	-0.058143	0.000025
C24	C	1.207437	0.441857	0.500025
C25	C	0.948085	0.086364	0.000056
C26	C	1.448085	0.586364	0.500056
C27	C	0.946788	0.163396	0.000063
C28	C	1.446788	0.663396	0.500063
C29	C	1.087641	-0.027543	0.000046
C30	C	1.587641	0.472457	0.500046
C31	C	1.176175	-0.023830	0.000046
C32	C	1.676175	0.476170	0.500046
C33	C	1.675575	0.003944	0.000034
C34	C	2.175575	0.503944	0.500034
C35	C	1.592387	0.000450	0.000032
C36	C	2.092387	0.500450	0.500032
C37	C	1.541063	-0.065131	0.000027
C38	C	2.041063	0.434869	0.500027
C39	C	1.572931	-0.127222	0.000016
C40	C	2.072931	0.372778	0.500016
C41	C	1.656117	-0.123727	0.000012
C42	C	2.156117	0.376273	0.500012
C43	C	1.291228	-0.082427	0.000032
C44	C	1.791228	0.417573	0.500032
C45	C	1.208037	-0.085917	0.000037
C46	C	1.708037	0.414083	0.500037
C47	C	1.227499	0.041756	0.000052
C48	C	1.727499	0.541756	0.500052
C49	C	1.310686	0.045244	0.000053
C50	C	1.810686	0.545244	0.500053
C51	C	1.342547	-0.016847	0.000038
C52	C	1.842547	0.483153	0.500038
N53	N	1.456032	-0.068704	0.000027
N54	N	1.956032	0.431296	0.500027
N55	N	1.427577	-0.013273	0.000032
N56	N	1.927577	0.486727	0.500032
C57	C	0.935527	-0.168337	0.000020
C58	C	1.435527	0.331663	0.500020
C59	C	0.936823	-0.245369	0.000008
C60	C	1.436823	0.254631	0.500008
N61	N	0.941781	-0.040980	0.178194
N62	N	1.441781	0.459020	0.678194
C63	C	1.018861	0.212034	0.000071
C64	C	1.518861	0.712034	0.500071
C65	C	1.017643	0.284415	0.000059
C66	C	1.517643	0.784415	0.500059
C67	C	0.944348	0.308154	0.000054
C68	C	1.444348	0.808154	0.500054
C69	C	0.872266	0.259506	0.000042
C70	C	1.372266	0.759506	0.500042
C71	C	0.873486	0.187127	0.000046
C72	C	1.373486	0.687127	0.500046
C73	C	0.886723	0.413292	0.043901
C74	C	1.386723	0.913292	0.543901
C75	C	0.885506	0.485670	0.043901
C76	C	1.385506	0.985670	0.543901
C77	C	0.940583	0.531393	0.000037
C78	C	1.440583	1.031393	0.500037
C79	C	0.996890	0.504733	-0.043818
C80	C	1.496890	1.004733	0.456182
C81	C	0.998110	0.432354	-0.043814
C82	C	1.498110	0.932354	0.456186
C83	C	0.943017	0.386635	0.000049
C84	C	1.443017	0.886635	0.500049
C85	C	1.011340	0.658515	0.000031
C86	C	1.511340	1.158515	0.500031
C87	C	1.010119	0.730897	0.000014
C88	C	1.510119	1.230897	0.500014
C89	C	0.864740	0.705986	0.000004
C90	C	1.364740	1.205986	0.500004
C91	C	0.865963	0.633606	0.000014
C92	C	1.365963	1.133606	0.500014
C93	C	0.939265	0.609876	0.000030
C94	C	1.439265	1.109876	0.500030
N95	N	0.941837	-0.040987	-0.178116
N96	N	1.441837	0.459013	0.321884
C97	C	0.996189	0.009341	0.217591
C98	C	1.496189	0.509341	0.717591
C99	C	0.996194	0.009344	0.296393
C100	C	1.496194	0.509344	0.796393
C101	C	0.941798	-0.040984	0.335795
C102	C	1.441798	0.459016	0.835795
C103	C	0.887380	-0.091309	0.296388
C104	C	1.387380	0.408691	0.796388
C105	C	0.887371	-0.091307	0.217588
C106	C	1.387371	0.408693	0.717588
C107	C	0.931121	-0.104856	0.460623
C108	C	1.431121	0.395144	0.960623
C109	C	0.931135	-0.104859	0.539422
C110	C	1.431135	0.395141	1.039422
C111	C	0.941819	-0.040991	0.578841
C112	C	1.441819	0.459009	1.078841
C113	C	0.952507	0.022882	0.539452
C114	C	1.452507	0.522882	1.039452
C115	C	0.952498	0.022885	0.460652
C116	C	1.452498	0.522885	0.960652
C117	C	0.941801	-0.040992	0.421240
C118	C	1.441801	0.459008	0.921240
C119	C	0.996235	0.009337	0.703684
C120	C	1.496235	0.509337	1.203684
C121	C	0.996234	0.009341	0.782487
C122	C	1.496234	0.509341	1.282487
C123	C	0.887424	-0.091318	0.782481
C124	C	1.387424	0.408682	1.282481
C125	C	0.887421	-0.091316	0.703679
C126	C	1.387421	0.408684	1.203679
C127	C	0.941831	-0.040989	0.664285
C128	C	1.441831	0.459011	1.164285
H129	H	1.717358	0.057347	0.000041
H130	H	2.217358	0.557347	0.500041
H131	H	1.682057	-0.174285	0.000008
H132	H	2.182057	0.325715	0.500008
N133	N	1.056303	0.554040	-0.091129
N134	N	1.556303	1.054040	0.408871
H135	H	1.049104	0.540158	-0.145856
H136	H	1.549104	1.040158	0.354144
H137	H	1.112598	0.551040	-0.074680
H138	H	1.612598	1.051040	0.425320
N139	N	0.828749	-0.145599	0.824968
N140	N	1.328749	0.354401	1.324968
H141	H	0.772177	-0.140811	0.811266
H142	H	1.272177	0.359189	1.311266
H143	H	0.837078	-0.137932	0.880853
H144	H	1.337078	0.362068	1.380853
H145	H	0.961198	0.074893	0.428584
H146	H	1.461198	0.574893	0.928584
H147	H	0.961207	0.074889	0.571546
H148	H	1.461207	0.574889	1.071546
N149	N	0.795746	0.134664	0.000055
N150	N	1.295746	0.634664	0.500055
H151	H	0.807641	0.085211	0.000064
H152	H	1.307641	0.585211	0.500064
H153	H	0.763794	0.141861	-0.046356
H154	H	1.263794	0.641861	0.453644
H155	H	1.071027	0.639193	0.000041
H156	H	1.571027	1.139193	0.500041
N157	N	1.087858	0.783360	0.000020
N158	N	1.587858	1.283360	0.500020
H159	H	1.134477	0.757341	0.000034
H160	H	1.634477	1.257341	0.500034
H161	H	1.090504	0.813943	0.046427
H162	H	1.590504	1.313943	0.546427
H163	H	0.843120	-0.132295	0.671600
H164	H	1.343120	0.367705	1.171600
N165	N	1.558020	0.067414	0.000043
N166	N	2.058020	0.567414	0.500043
H167	H	1.603156	0.109489	0.000051
H168	H	2.103156	0.609489	0.500051
H169	H	1.523925	0.068745	0.046453
H170	H	2.023925	0.568745	0.546453
N171	N	1.366041	0.115978	0.000069
N172	N	1.866041	0.615978	0.500069
H173	H	1.333233	0.154780	0.000076
H174	H	1.833233	0.654780	0.500076
H175	H	1.400987	0.120209	-0.046338
H176	H	1.900987	0.620209	0.453662
H177	H	1.040537	0.050322	0.814565
H178	H	1.540537	0.550322	1.314565
H179	H	1.078550	0.192718	0.000082
H180	H	1.578550	0.692718	0.500082
N181	N	1.054914	0.063616	0.661188
N182	N	1.554914	0.563616	1.161188
H183	H	1.089379	0.095500	0.698106
H184	H	1.589379	0.595500	1.198106
H185	H	1.024492	0.092592	0.628504
H186	H	1.524492	0.592592	1.128504
N187	N	0.793209	0.285101	0.000045
N188	N	1.293209	0.785101	0.500045
H189	H	0.761651	0.267053	-0.046365
H190	H	1.261651	0.767053	0.453635
H191	H	0.803435	0.338333	0.000075
H192	H	1.303435	0.838333	0.500075
N193	N	0.828710	-0.145596	0.338878
N194	N	1.328710	0.354404	0.838878
H195	H	0.772136	-0.140811	0.325180
H196	H	1.272136	0.359189	0.825180
H197	H	0.837042	-0.137935	0.394763
H198	H	1.337042	0.362065	0.894763
H199	H	1.040501	0.050323	0.328476
H200	H	1.540501	0.550323	0.828476
H201	H	0.805061	0.725314	-0.000003
H202	H	1.305061	1.225314	0.499997
N203	N	0.919603	-0.173747	0.581902
N204	N	1.419603	0.326253	1.081902
H205	H	0.912820	-0.214207	0.544975
H206	H	1.412820	0.285793	1.044975
H207	H	0.870241	-0.178000	0.614604
H208	H	1.370241	0.322000	1.114604
N209	N	0.828683	-0.145581	0.175090
N210	N	1.328683	0.354419	0.675090
H211	H	0.794220	-0.177463	0.212005
H212	H	1.294220	0.322537	0.712005
H213	H	0.859098	-0.174559	0.142381
H214	H	1.359098	0.325441	0.642381
N215	N	1.058831	0.403595	-0.091115
N216	N	1.558831	0.903595	0.408885
H217	H	1.093584	0.379442	-0.057514
H218	H	1.593584	0.879442	0.442486
H219	H	1.093485	0.443574	-0.118899
H220	H	1.593485	0.943574	0.381101
H221	H	1.201549	0.092307	0.000056
H222	H	1.701549	0.592307	0.500056
N223	N	0.919603	-0.173747	0.418112
N224	N	1.419603	0.326253	0.918112
H225	H	0.921218	-0.164055	0.362216
H226	H	1.421218	0.335945	0.862216
H227	H	0.866040	-0.203122	0.431889
H228	H	1.366040	0.296878	0.931889
H229	H	1.166250	-0.139323	0.000037
H230	H	1.666250	0.360677	0.500037
N231	N	1.325587	-0.149393	0.000007
N232	N	1.825587	0.350607	0.500007
H233	H	1.280449	-0.191466	0.000004
H234	H	1.780449	0.308534	0.500004
H235	H	1.359680	-0.150728	0.046409
H236	H	1.859680	0.349272	0.546409
H237	H	1.076336	0.324023	0.000063
H238	H	1.576336	0.824023	0.500063
N239	N	1.517579	-0.197957	0.000004
N240	N	2.017579	0.302043	0.500004
H241	H	1.460045	-0.190751	0.000009
H242	H	1.960045	0.309249	0.500009
H243	H	1.527870	-0.225218	0.046408
H244	H	2.027870	0.274782	0.546408
N245	N	0.788226	0.581142	0.000009
N246	N	1.288226	1.081142	0.500009
H247	H	0.741608	0.607161	0.000004
H248	H	1.241608	1.107161	0.500004
H249	H	0.785558	0.550579	0.046420
H250	H	1.285558	1.050579	0.546420
H251	H	0.839653	0.507370	0.079606
H252	H	1.339653	1.007370	0.579606
N253	N	0.827310	0.363977	0.091210
N254	N	1.327310	0.863977	0.591210
H255	H	0.791460	0.391848	0.118995
H256	H	1.291460	0.891848	0.618995
H257	H	0.857158	0.338982	0.128677
H258	H	1.357158	0.838982	0.628677
H259	H	1.040491	0.050322	0.185519
H260	H	1.540491	0.550322	0.685519
