data_functionalizedCrystal
_audit_creation_method	'MofGen! by Chris Wilmer'
_symmetry_space_group_name_H-M	'P1'
_symmetry_Int_Tables_number	1
_symmetry_cell_setting	triclinic
loop_
_symmetry_equiv_pos_as_xyz
  x,y,z
_cell_length_a	17.699083
_cell_length_b	17.699083
_cell_length_c	16.176319
_cell_angle_alpha	89.992304
_cell_angle_beta	89.998611
_cell_angle_gamma	83.283015
loop_
_atom_site_label
_atom_site_type_symbol
_atom_site_fract_x
_atom_site_fract_y
_atom_site_fract_z
O1	O	1.004079	0.095713	-0.068632
O2	O	1.504079	0.595713	0.431368
O3	O	0.783700	0.108166	-0.068660
O4	O	1.283700	0.608166	0.431340
O5	O	0.900116	-0.008250	-0.068638
O6	O	1.400116	0.491750	0.431362
O7	O	0.887663	0.212129	-0.068654
O8	O	1.387663	0.712129	0.431346
O9	O	0.900100	-0.008257	0.068855
O10	O	1.400100	0.491743	0.568855
O11	O	0.783684	0.108158	0.068834
O12	O	1.283684	0.608158	0.568834
O13	O	1.004063	0.095706	0.068861
O14	O	1.504063	0.595706	0.568861
Cu15	Cu	0.893872	0.101931	0.081401
Cu16	Cu	1.393872	0.601931	0.581401
Cu17	Cu	0.893891	0.101940	-0.081200
Cu18	Cu	1.393891	0.601940	0.418800
O19	O	0.887647	0.212121	0.068839
O20	O	1.387647	0.712121	0.568839
C21	C	0.755495	0.107716	0.000084
C22	C	1.255495	0.607716	0.500084
C23	C	0.671477	0.106377	0.000073
C24	C	1.171477	0.606377	0.500073
C25	C	0.622856	0.174710	0.000069
C26	C	1.122856	0.674710	0.500069
C27	C	0.543913	0.173448	0.000079
C28	C	1.043913	0.673448	0.500079
C29	C	0.513592	0.103852	0.000089
C30	C	1.013592	0.603852	0.500089
C31	C	0.562219	0.035513	0.000096
C32	C	1.062219	0.535513	0.500096
C33	C	0.641161	0.036776	0.000091
C34	C	1.141161	0.536776	0.500091
C35	C	0.243856	0.030418	0.000117
C36	C	0.743856	0.530418	0.500117
C37	C	0.164908	0.029160	0.000120
C38	C	0.664908	0.529160	0.500120
C39	C	0.146608	0.167090	0.000105
C40	C	0.646608	0.667090	0.500105
C41	C	0.225550	0.168353	0.000100
C42	C	0.725550	0.668353	0.500100
C43	C	0.274170	0.100015	0.000112
C44	C	0.774170	0.600015	0.500112
C45	C	0.359769	0.101384	0.000102
C46	C	0.859769	0.601384	0.500102
C47	C	0.427995	0.102481	0.000093
C48	C	0.927995	0.602481	0.500093
C49	C	0.899662	-0.036451	0.000109
C50	C	1.399662	0.463549	0.500109
C51	C	0.898323	-0.120469	0.000109
C52	C	1.398323	0.379531	0.500109
C53	C	0.966656	-0.169090	0.000119
C54	C	1.466656	0.330910	0.500119
C55	C	0.965394	-0.248033	0.000111
C56	C	1.465394	0.251967	0.500111
C57	C	0.895798	-0.278354	0.000100
C58	C	1.395798	0.221646	0.500100
C59	C	0.827459	-0.229727	0.000088
C60	C	1.327459	0.270273	0.500088
C61	C	0.828722	-0.150785	0.000089
C62	C	1.328722	0.349215	0.500089
C63	C	0.822364	-0.548090	0.000080
C64	C	1.322364	-0.048090	0.500080
C65	C	0.821106	-0.627038	0.000081
C66	C	1.321106	-0.127038	0.500081
C67	C	0.959036	-0.645338	0.000102
C68	C	1.459036	-0.145338	0.500102
C69	C	0.960299	-0.566396	0.000104
C70	C	1.460299	-0.066396	0.500104
C71	C	0.891961	-0.517776	0.000087
C72	C	1.391961	-0.017776	0.500087
C73	C	0.893330	-0.432177	0.000094
C74	C	1.393330	0.067823	0.500094
C75	C	0.894427	-0.363951	0.000099
C76	C	1.394427	0.136049	0.500099
C77	C	1.032268	0.096156	0.000116
C78	C	1.532268	0.596156	0.500116
C79	C	1.116286	0.097494	0.000121
C80	C	1.616286	0.597494	0.500121
C81	C	0.888102	0.240322	0.000091
C82	C	1.388102	0.740322	0.500091
C83	C	0.889440	0.324340	0.000085
C84	C	1.389440	0.824340	0.500085
N85	N	0.893864	0.101925	0.195767
N86	N	1.393864	0.601925	0.695767
N87	N	0.893905	0.101941	-0.195565
N88	N	1.393905	0.601941	0.304435
C89	C	0.945429	0.050397	0.239040
C90	C	1.445429	0.550397	0.739040
C91	C	0.945432	0.050396	0.325588
C92	C	1.445432	0.550396	0.825588
C93	C	0.893875	0.101927	0.368859
C94	C	1.393875	0.601927	0.868859
C95	C	0.842305	0.153457	0.325579
C96	C	1.342305	0.653457	0.825579
C97	C	0.842299	0.153454	0.239034
C98	C	1.342299	0.653454	0.739034
C99	C	0.842331	0.153472	0.674608
C100	C	1.342331	0.653472	1.174608
C101	C	0.842344	0.153473	0.761159
C102	C	1.342344	0.653473	1.261159
C103	C	0.945465	0.050414	0.761161
C104	C	1.445465	0.550414	1.261161
C105	C	0.945458	0.050410	0.674616
C106	C	1.445458	0.550410	1.174616
C107	C	0.893886	0.101937	0.631344
C108	C	1.393886	0.601937	1.131344
C109	C	0.893882	0.101937	0.537499
C110	C	1.393882	0.601937	1.037499
C111	C	0.893883	0.101932	0.462702
C112	C	1.393883	0.601932	0.962702
H113	H	0.680748	-0.018868	0.000095
H114	H	1.180748	0.481132	0.500095
H115	H	0.987416	0.008438	0.203814
H116	H	1.487416	0.508438	0.703814
H117	H	0.283434	-0.025228	0.000127
H118	H	0.783434	0.474772	0.500127
O119	O	0.786717	0.209051	0.627939
O120	O	1.286717	0.709051	1.127939
H121	H	0.750876	0.244889	0.672571
H122	H	1.250876	0.744889	1.172571
O123	O	0.755017	-0.098344	0.000087
O124	O	1.255017	0.401656	0.500087
H125	H	0.752294	-0.061937	-0.055956
H126	H	1.252294	0.438063	0.444044
H127	H	1.014680	-0.684934	0.000111
H128	H	1.514680	-0.184934	0.500111
H129	H	0.987444	0.008451	0.639387
H130	H	1.487444	0.508451	1.139387
O131	O	1.001061	-0.005166	0.372265
O132	O	1.501061	0.494834	0.872265
H133	H	1.036922	-0.040988	0.327636
H134	H	1.536922	0.459012	0.827636
O135	O	0.746034	-0.659738	0.000064
O136	O	1.246034	-0.159738	0.500064
H137	H	0.742149	-0.695264	0.056109
H138	H	1.242149	-0.195264	0.556109
O139	O	0.258246	0.243422	0.000096
O140	O	0.758246	0.743422	0.500096
H141	H	0.293767	0.247308	-0.055949
H142	H	0.793767	0.747308	0.444051
H143	H	0.987456	0.008455	0.796403
H144	H	1.487456	0.508455	1.296403
H145	H	0.766718	-0.508512	0.000067
H146	H	1.266718	-0.008512	0.500067
O147	O	0.752391	-0.262423	0.000084
O148	O	1.252391	0.237577	0.500084
H149	H	0.762991	-0.325485	0.000097
H150	H	1.262991	0.174515	0.500097
O151	O	0.094169	0.240803	0.000111
O152	O	0.594169	0.740803	0.500111
H153	H	0.034181	0.228237	0.000128
H154	H	0.534181	0.728237	0.500128
O155	O	0.132203	-0.045909	0.000135
O156	O	0.632203	0.454091	0.500135
H157	H	0.096669	-0.049773	0.056174
H158	H	0.596669	0.450227	0.556174
O159	O	1.041726	-0.136395	0.000126
O160	O	1.541726	0.363605	0.500126
H161	H	1.045603	-0.100880	0.056169
H162	H	1.545603	0.399120	0.556169
H163	H	1.021038	-0.287618	0.000121
H164	H	1.521038	0.212382	0.500121
O165	O	0.786745	0.209066	0.807836
O166	O	1.286745	0.709066	1.307836
H167	H	0.750882	0.244897	0.763208
H168	H	1.250882	0.744897	1.263208
H169	H	0.800323	0.195413	0.360816
H170	H	1.300323	0.695413	0.860816
H171	H	0.800309	0.195412	0.203801
H172	H	1.300309	0.695412	0.703801
H173	H	0.647537	0.231384	0.000060
H174	H	1.147537	0.731384	0.500060
H175	H	1.016971	-0.541714	0.000117
H176	H	1.516971	-0.041714	0.500117
H177	H	0.537526	-0.021154	0.000116
H178	H	1.037526	0.478846	0.500116
H179	H	0.504328	0.229092	0.000075
H180	H	1.004328	0.729092	0.500075
