data_functionalizedCrystal
_audit_creation_method	'MofGen! by Chris Wilmer'
_symmetry_space_group_name_H-M	'P1'
_symmetry_Int_Tables_number	1
_symmetry_cell_setting	triclinic
loop_
_symmetry_equiv_pos_as_xyz
  x,y,z
_cell_length_a	17.699077
_cell_length_b	23.532409
_cell_length_c	16.176319
_cell_angle_alpha	89.996251
_cell_angle_beta	89.993140
_cell_angle_gamma	83.065068
loop_
_atom_site_label
_atom_site_type_symbol
_atom_site_fract_x
_atom_site_fract_y
_atom_site_fract_z
O1	O	1.003717	0.072004	-0.068730
O2	O	0.783291	0.081377	-0.068733
O3	O	0.900150	-0.006222	-0.068733
O4	O	0.886858	0.159603	-0.068731
O5	O	0.900134	-0.006228	0.068761
O6	O	0.783275	0.081372	0.068760
O7	O	1.003701	0.071998	0.068763
Cu8	Cu	0.893486	0.076684	0.081316
Cu9	Cu	0.893505	0.076691	-0.081286
O10	O	0.886842	0.159598	0.068763
C11	C	0.755087	0.081039	0.000013
C12	C	0.671074	0.080033	0.000011
C13	C	0.899803	-0.027442	0.000012
C14	C	0.898785	-0.090662	0.000006
C15	C	0.631600	0.079556	0.074960
C16	C	0.552663	0.078602	0.074961
C17	C	0.513199	0.078129	0.000012
C18	C	0.552679	0.078604	-0.074942
C19	C	0.631616	0.079554	-0.074942
C20	C	0.234335	0.074772	-0.074944
C21	C	0.155392	0.073823	-0.074938
C22	C	0.155382	0.073819	0.074959
C23	C	0.234319	0.074769	0.074959
C24	C	0.273792	0.075242	0.000005
C25	C	0.359385	0.076275	0.000005
C26	C	0.427607	0.077099	0.000011
C27	C	0.894462	-0.363916	-0.074945
C28	C	0.895408	-0.304513	-0.074945
O29	O	0.895931	-0.273784	-0.138683
N30	N	0.895868	-0.274813	0.000003
C31	C	0.895389	-0.304519	0.074957
O32	O	0.895867	-0.273802	0.138707
C33	C	0.894449	-0.363922	0.074956
C34	C	0.893981	-0.393618	0.000003
C35	C	0.893996	-0.393613	-0.149893
C36	C	0.893049	-0.453012	-0.149892
C37	C	0.892568	-0.482714	-0.074944
C38	C	0.893034	-0.453017	0.000003
C39	C	0.893975	-0.393627	0.149909
C40	C	0.893036	-0.453034	0.149902
C41	C	0.892568	-0.482730	0.074949
C42	C	0.891606	-0.542117	0.074952
N43	N	0.891147	-0.571818	0.000003
C44	C	0.891628	-0.542116	-0.074945
C45	C	0.897365	-0.179770	0.074953
C46	C	0.898300	-0.120369	0.074955
C47	C	0.898320	-0.120367	-0.074948
C48	C	0.897380	-0.179769	-0.074949
C49	C	0.896905	-0.209471	0.000004
C50	C	0.889638	-0.666857	-0.074938
C51	C	0.888688	-0.726261	-0.074931
C52	C	0.888671	-0.726258	0.074971
C53	C	0.889617	-0.666859	0.074965
C54	C	0.890103	-0.637160	0.000003
O55	O	0.891086	-0.572884	0.138657
O56	O	0.891159	-0.572841	-0.138684
C57	C	1.031904	0.072336	0.000015
C58	C	1.115918	0.073342	0.000011
C59	C	0.887188	0.180817	0.000016
C60	C	0.888207	0.244037	0.000017
N61	N	0.893479	0.076679	0.195681
N62	N	0.893519	0.076691	-0.195651
C63	C	0.945239	0.037906	0.238946
C64	C	0.945243	0.037906	0.325493
C65	C	0.893489	0.076681	0.368774
C66	C	0.841723	0.115456	0.325503
C67	C	0.841716	0.115454	0.238958
C68	C	0.841749	0.115467	0.674531
C69	C	0.841761	0.115468	0.761083
C70	C	0.945276	0.037919	0.761066
C71	C	0.945269	0.037916	0.674521
C72	C	0.893501	0.076689	0.631258
C73	C	0.893496	0.076688	0.537414
C74	C	0.893497	0.076685	0.462616
H75	H	0.663725	0.079946	0.135992
H76	H	0.123234	0.073432	0.135990
H77	H	0.123263	0.073437	-0.135974
H78	H	0.799580	0.147026	0.360747
H79	H	0.987386	0.006333	0.203712
H80	H	0.799614	0.147045	0.796321
H81	H	0.663754	0.079944	-0.135973
H82	H	0.892674	-0.477186	-0.210927
H83	H	0.896998	-0.203944	-0.135983
H84	H	0.889968	-0.642676	0.135998
H85	H	0.888305	-0.750437	-0.135970
H86	H	0.266465	0.075154	-0.135976
H87	H	0.520528	0.078204	0.135991
H88	H	0.799567	0.147026	0.203732
H89	H	0.520542	0.078215	-0.135966
H90	H	0.987414	0.006343	0.639284
H91	H	0.890035	-0.642684	-0.135979
H92	H	0.888277	-0.750452	0.135992
H93	H	0.894390	-0.369436	-0.210928
H94	H	0.987390	0.006333	0.360718
H95	H	0.987426	0.006346	0.796300
H96	H	0.898709	-0.096173	-0.135975
H97	H	0.266445	0.075158	0.135990
H98	H	0.799599	0.147038	0.639313
H99	H	0.898666	-0.096193	0.135989
H100	H	0.894364	-0.369459	0.210945
H101	H	0.896972	-0.203949	0.135993
H102	H	0.892650	-0.477214	0.210940
