data_functionalizedCrystal
_audit_creation_method	'MofGen! by Chris Wilmer'
_symmetry_space_group_name_H-M	'P1'
_symmetry_Int_Tables_number	1
_symmetry_cell_setting	triclinic
loop_
_symmetry_equiv_pos_as_xyz
  x,y,z
_cell_length_a	16.956984
_cell_length_b	10.723023
_cell_length_c	15.455313
_cell_angle_alpha	92.691554
_cell_angle_beta	87.518126
_cell_angle_gamma	80.260483
loop_
_atom_site_label
_atom_site_type_symbol
_atom_site_fract_x
_atom_site_fract_y
_atom_site_fract_z
O1	O	1.061785	0.045856	-0.072134
O2	O	1.561785	0.545856	0.427866
O3	O	0.829867	0.089641	-0.072135
O4	O	1.329867	0.589641	0.427865
O5	O	0.951176	-0.114451	-0.072131
O6	O	1.451176	0.385549	0.427869
O7	O	0.940477	0.249948	-0.072138
O8	O	1.440477	0.749948	0.427862
O9	O	0.944239	-0.102825	0.072131
O10	O	1.444239	0.397175	0.572131
O11	O	0.822930	0.101267	0.072127
O12	O	1.322930	0.601267	0.572127
O13	O	1.054848	0.057482	0.072128
O14	O	1.554848	0.557482	0.572128
Cu15	Cu	0.938256	0.080436	0.085300
Cu16	Cu	1.438256	0.580436	0.585300
Cu17	Cu	0.946460	0.066687	-0.085307
Cu18	Cu	1.446460	0.566687	0.414693
O19	O	0.933539	0.261574	0.072124
O20	O	1.433539	0.761574	0.572124
C21	C	0.796703	0.097696	-0.000004
C22	C	1.296703	0.597696	0.499996
C23	C	0.708219	0.104362	-0.000004
C24	C	1.208219	0.604362	0.499996
C25	C	0.675525	-0.007091	-0.000000
C26	C	1.175525	0.492909	0.500000
C27	C	0.592384	-0.000821	-0.000006
C28	C	1.092384	0.499179	0.499994
C29	C	0.541938	0.116904	-0.000010
C30	C	1.041938	0.616904	0.499990
C31	C	0.574638	0.228365	-0.000017
C32	C	1.074638	0.728365	0.499983
C33	C	0.657777	0.222093	-0.000017
C34	C	1.157777	0.722093	0.499983
C35	C	0.292336	0.147949	-0.000017
C36	C	0.792336	0.647949	0.499983
C37	C	0.209191	0.154213	-0.000014
C38	C	0.709191	0.654213	0.499986
C39	C	0.226943	-0.074974	-0.000006
C40	C	0.726943	0.425026	0.499994
C41	C	0.310083	-0.081235	-0.000000
C42	C	0.810083	0.418765	0.500000
C43	C	0.342776	0.030226	-0.000011
C44	C	0.842776	0.530226	0.499989
N45	N	0.456955	0.123316	-0.000014
N46	N	0.956955	0.623316	0.499986
N47	N	0.427758	0.023812	-0.000014
N48	N	0.927758	0.523812	0.499986
C49	C	0.946929	-0.155047	-0.000001
C50	C	1.446929	0.344953	0.499999
C51	C	0.944600	-0.293330	-0.000004
C52	C	1.444600	0.206670	0.499996
C53	C	0.947155	-0.360997	-0.074737
C54	C	1.447155	0.139003	0.425263
C55	C	0.944748	-0.503920	-0.074741
C56	C	1.444748	-0.003920	0.425259
C57	C	1.088013	0.049427	-0.000005
C58	C	1.588013	0.549427	0.499995
C59	C	1.176497	0.042760	-0.000011
C60	C	1.676497	0.542760	0.499989
C61	C	0.937787	0.302170	-0.000008
C62	C	1.437787	0.802170	0.499992
C63	C	0.940116	0.440452	-0.000011
C64	C	1.440116	0.940452	0.499989
N65	N	0.932491	0.090105	0.205295
N66	N	1.432491	0.590105	0.705295
N67	N	0.952231	0.057008	-0.205302
N68	N	1.452231	0.557008	0.294698
C69	C	0.984046	0.003427	0.250691
C70	C	1.484046	0.503427	0.750691
C71	C	0.979694	0.010750	0.341499
C72	C	1.479694	0.510750	0.841499
C73	C	0.923790	0.104757	0.386909
C74	C	1.423790	0.604757	0.886909
C75	C	0.872230	0.191439	0.341507
C76	C	1.372230	0.691439	0.841507
C77	C	0.876579	0.184109	0.250701
C78	C	1.376579	0.684109	0.750701
C79	C	0.905019	0.136360	0.658490
C80	C	1.405019	0.636360	1.158490
C81	C	0.900676	0.143685	0.749302
C82	C	1.400676	0.643685	1.249302
C83	C	1.008139	-0.037006	0.749288
C84	C	1.508139	0.462994	1.249288
C85	C	1.012486	-0.044322	0.658480
C86	C	1.512486	0.455678	1.158480
C87	C	0.960923	0.042355	0.613086
C88	C	1.460923	0.542355	1.113086
N89	N	0.919342	0.112247	0.479729
N90	N	1.419342	0.612247	0.979729
N91	N	0.965368	0.034859	0.520267
N92	N	1.465368	0.534859	1.020267
H93	H	0.168119	0.250084	-0.000014
H94	H	0.668119	0.750084	0.499986
F95	F	0.952358	-0.298429	-0.158364
F96	F	1.452358	0.201571	0.341636
F97	F	0.729206	-0.132391	0.000010
F98	F	1.229206	0.367609	0.500010
F99	F	0.520948	0.353657	-0.000029
F100	F	1.020948	0.853657	0.499971
H101	H	0.318944	0.238708	-0.000032
H102	H	0.818944	0.738708	0.499968
H103	H	0.940625	-0.341206	0.063975
H104	H	1.440625	0.158794	0.563975
F105	F	0.850145	0.228611	0.610185
F106	F	1.350145	0.728611	1.110185
F107	F	0.692572	0.340717	-0.000024
F108	F	1.192572	0.840717	0.499976
F109	F	0.192144	-0.193590	0.000003
F110	F	0.692144	0.306410	0.500003
H111	H	0.946936	-0.562091	-0.138723
H112	H	1.446936	-0.062091	0.361277
F113	F	0.937267	-0.483530	0.083625
F114	F	1.437267	0.016470	0.583625
F115	F	0.812729	0.291484	0.389837
F116	F	1.312729	0.791484	0.889837
F117	F	1.043550	-0.096623	0.202370
F118	F	1.543550	0.403377	0.702370
F119	F	0.557594	-0.119446	-0.000022
F120	F	1.057594	0.380554	0.499978
H121	H	1.021673	-0.059830	0.378459
H122	H	1.521673	0.440170	0.878459
F123	F	0.821705	0.276361	0.202389
F124	F	1.321705	0.776361	0.702389
F125	F	1.071985	-0.144373	0.610152
F126	F	1.571985	0.355627	1.110152
F127	F	1.063010	-0.129251	0.797605
F128	F	1.563010	0.370749	1.297605
H129	H	0.855151	0.220242	0.786271
H130	H	1.355151	0.720242	1.286271
H131	H	0.351151	-0.177099	0.000006
H132	H	0.851151	0.322901	0.500006
