data_functionalizedCrystal
_audit_creation_method	'MofGen! by Chris Wilmer'
_symmetry_space_group_name_H-M	'P1'
_symmetry_Int_Tables_number	1
_symmetry_cell_setting	triclinic
loop_
_symmetry_equiv_pos_as_xyz
  x,y,z
_cell_length_a	10.540539
_cell_length_b	26.210047
_cell_length_c	10.540539
_cell_angle_alpha	90.006695
_cell_angle_beta	95.474508
_cell_angle_gamma	90.007062
loop_
_atom_site_label
_atom_site_type_symbol
_atom_site_fract_x
_atom_site_fract_y
_atom_site_fract_z
O1	O	1.685898	0.042402	-0.178882
O2	O	1.316484	0.042408	-0.195738
O3	O	1.509619	0.042405	-0.002604
O4	O	1.492763	0.042406	-0.372017
O5	O	1.509582	-0.042453	-0.002634
O6	O	1.316447	-0.042450	-0.195768
O7	O	1.685860	-0.042456	-0.178912
Cu8	Cu	1.501150	-0.050201	-0.187343
Cu9	Cu	1.501194	0.050154	-0.187308
O10	O	1.492726	-0.042452	-0.372047
C11	C	1.269163	-0.000020	-0.194489
C12	C	1.128215	-0.000017	-0.190707
N13	N	1.501128	-0.120785	-0.187367
C14	C	0.944788	-0.000216	-0.045790
C15	C	1.091406	-0.000020	-0.049624
C16	C	1.066563	0.048439	-0.258585
C17	C	0.920019	0.048474	-0.253770
C18	C	0.919488	-0.048025	-0.256675
C19	C	1.066470	-0.048660	-0.257974
C20	C	1.586706	-0.473301	-0.101807
C21	C	1.586733	-0.686959	-0.101790
O22	O	1.659446	-0.714583	-0.029048
N23	N	1.501201	-0.713679	-0.187280
C24	C	1.415650	-0.686980	-0.272775
O25	O	1.342891	-0.714610	-0.345480
C26	C	1.415617	-0.473323	-0.272785
C27	C	1.501164	-0.446606	-0.187298
C28	C	1.672245	-0.446584	-0.016326
C29	C	1.672242	-0.393172	-0.016336
C30	C	1.586699	-0.366478	-0.101827
C31	C	1.501160	-0.393195	-0.187308
C32	C	1.330060	-0.446625	-0.358273
C33	C	1.330057	-0.393208	-0.358265
C34	C	1.415604	-0.366491	-0.272778
C35	C	1.415615	-0.313089	-0.272808
N36	N	1.501148	-0.286369	-0.187318
C37	C	1.586690	-0.313064	-0.101828
C38	C	1.415675	-0.799154	-0.272765
C39	C	1.415684	-0.852568	-0.272764
C40	C	1.586767	-0.852543	-0.101777
C41	C	1.586762	-0.799128	-0.101785
C42	C	1.501207	-0.772434	-0.187275
C43	C	1.586678	-0.200896	-0.101855
C44	C	1.586670	-0.147479	-0.101877
C45	C	1.415584	-0.147509	-0.272858
C46	C	1.415595	-0.200921	-0.272842
C47	C	1.501147	-0.227613	-0.187330
O48	O	1.342932	-0.285432	-0.345502
O49	O	1.659419	-0.285425	-0.029114
C50	C	1.586709	-0.526712	-0.101797
C51	C	1.501170	-0.553429	-0.187278
C52	C	1.415628	-0.526734	-0.272769
C53	C	1.501179	-0.606843	-0.187277
C54	C	1.586721	-0.633538	-0.101787
C55	C	1.672254	-0.606818	-0.016296
C56	C	1.672251	-0.553407	-0.016306
C57	C	1.330095	-0.553454	-0.358259
C58	C	1.330106	-0.606865	-0.358243
C59	C	1.415648	-0.633560	-0.272752
C60	C	1.733182	-0.000026	-0.180161
C61	C	1.874130	-0.000025	-0.183943
C62	C	1.508336	-0.000024	0.044684
C63	C	1.504554	-0.000021	0.185632
N64	N	1.501226	0.120737	-0.187273
C65	C	1.494008	-0.000023	-0.419335
C66	C	1.497790	-0.000022	-0.560283
C67	C	1.359637	0.000172	0.369059
C68	C	1.363471	-0.000019	0.222441
C69	C	1.572429	-0.048480	0.247273
C70	C	1.567614	-0.048521	0.393817
C71	C	1.570525	0.047979	0.394370
C72	C	1.571825	0.048619	0.247388
H73	H	0.916187	-0.034967	0.009933
N74	N	1.674123	-0.879811	-0.014414
N75	N	1.671292	-0.873837	0.102937
H76	H	1.732976	-0.893095	0.164646
N77	N	1.328224	-0.120235	-0.360196
N78	N	1.369207	-0.090430	-0.439385
H79	H	1.307505	-0.071166	-0.501064
H80	H	1.517420	-0.084743	0.422004
H81	H	1.088917	0.050242	-0.362193
H82	H	1.676035	-0.050283	0.224918
H83	H	1.674687	0.051544	0.223168
H84	H	1.741911	-0.628561	0.053310
H85	H	1.107416	-0.084508	-0.208387
H86	H	1.656340	-0.222622	-0.032222
N87	N	0.906891	0.043132	0.023848
N88	N	0.828071	0.074165	-0.027828
H89	H	0.801302	0.104780	0.021350
H90	H	1.524880	0.084708	0.425936
N91	N	1.698366	0.048376	0.453602
N92	N	1.735894	0.013499	0.528903
H93	H	1.826179	0.013774	0.570736
H94	H	1.260435	-0.531723	-0.427875
N95	N	1.096929	-0.052344	-0.386987
N96	N	1.156006	-0.090349	-0.422254
H97	H	1.177548	-0.092948	-0.513365
N98	N	1.143786	0.043633	0.017883
N99	N	1.072040	0.074050	0.067970
H100	H	1.109031	0.104882	0.115648
H101	H	1.309657	-0.034813	0.180673
N102	N	1.328203	-0.228217	-0.360147
N103	N	1.249045	-0.258019	-0.319086
H104	H	1.187314	-0.277295	-0.380736
H105	H	0.872051	0.050674	-0.355235
N106	N	0.860243	-0.048451	-0.384510
N107	N	0.883781	-0.083681	-0.458688
H108	H	0.841934	-0.083979	-0.548968
N109	N	1.289755	0.043772	0.404949
N110	N	1.340947	0.075210	0.483026
H111	H	1.291594	0.106005	0.508379
H112	H	1.741897	-0.371422	0.053278
H113	H	1.669078	-0.050721	0.441785
N114	N	1.120052	0.093676	-0.199428
N115	N	1.203557	0.090354	-0.107290
H116	H	1.241347	0.122301	-0.065514
N117	N	1.759635	-0.473838	0.071023
N118	N	1.835991	-0.449967	0.147334
H119	H	1.897722	-0.469212	0.209025
H120	H	1.260446	-0.628615	-0.427868
N121	N	1.513234	-0.093714	0.193812
N122	N	1.421075	-0.090389	0.110332
H123	H	1.379260	-0.122334	0.072576
H124	H	1.522162	0.084468	0.206542
H125	H	1.134005	-0.034755	0.003786
H126	H	1.656421	-0.777378	-0.032174
N127	N	0.884660	0.093915	-0.190806
N128	N	0.968175	0.125382	-0.150715
H129	H	0.943210	0.157476	-0.106243
N130	N	1.328290	-0.879855	-0.360078
N131	N	1.249129	-0.909660	-0.319037
H132	H	1.187398	-0.928930	-0.380700
H133	H	1.310062	0.034719	0.179850
N134	N	1.328264	-0.771899	-0.360102
N135	N	1.251909	-0.795768	-0.436419
H136	H	1.190176	-0.776522	-0.498105
H137	H	0.887926	-0.084755	-0.211030
N138	N	1.674055	-0.120198	-0.014528
N139	N	1.750410	-0.144042	0.061808
H140	H	1.812117	-0.124777	0.123504
H141	H	1.260384	-0.371476	-0.427880
N142	N	1.242675	-0.473899	-0.445614
N143	N	1.166310	-0.450048	-0.521928
H144	H	1.104589	-0.469309	-0.583621
N145	N	1.759644	-0.526128	0.071026
N146	N	1.836007	-0.549978	0.147345
H147	H	1.897732	-0.530716	0.209031
N148	N	1.290021	-0.043186	0.406931
N149	N	1.329698	-0.087200	0.387824
H150	H	1.280542	-0.117825	0.414574
