data_functionalizedCrystal
_audit_creation_method	'MofGen! by Chris Wilmer'
_symmetry_space_group_name_H-M	'P1'
_symmetry_Int_Tables_number	1
_symmetry_cell_setting	triclinic
loop_
_symmetry_equiv_pos_as_xyz
  x,y,z
_cell_length_a	17.639617
_cell_length_b	12.594516
_cell_length_c	17.639306
_cell_angle_alpha	101.189135
_cell_angle_beta	65.670249
_cell_angle_gamma	101.202304
loop_
_atom_site_label
_atom_site_type_symbol
_atom_site_fract_x
_atom_site_fract_y
_atom_site_fract_z
Zn1	Zn	1.354262	-0.251947	-0.721164
Zn2	Zn	1.326335	-0.400019	-0.583348
Zn3	Zn	1.188585	-0.251906	-0.555457
Zn4	Zn	1.216408	-0.459749	-0.693220
O5	O	1.271398	-0.340905	-0.638297
O6	O	1.465899	-0.246609	-0.726250
O7	O	1.284731	-0.355358	-0.464317
O8	O	1.210607	-0.102960	-0.577461
O9	O	1.445381	-0.355397	-0.624997
O10	O	1.332329	-0.102990	-0.699205
O11	O	1.183527	-0.246540	-0.443826
O12	O	1.076935	-0.304457	-0.550364
O13	O	1.258026	-0.457197	-0.812257
O14	O	1.097376	-0.457158	-0.651578
O15	O	1.359307	-0.304526	-0.832788
O16	O	1.311709	-0.556894	-0.597900
O17	O	1.230946	-0.600777	-0.678623
C18	C	1.057249	-0.387286	-0.594912
C19	C	0.965638	-0.407157	-0.576372
C20	C	0.717805	-0.189964	-0.779352
C21	C	0.631720	-0.208660	-0.761914
C22	C	0.610346	-0.321682	-0.656327
C23	C	0.696431	-0.303001	-0.673760
C24	C	0.750154	-0.237140	-0.735272
C25	C	0.728780	-0.350176	-0.629680
C26	C	0.814858	-0.331491	-0.647108
C27	C	0.868586	-0.265631	-0.708616
C28	C	0.836231	-0.218455	-0.752701
C29	C	0.675055	-0.416030	-0.568163
C30	C	0.707404	-0.463206	-0.524083
C31	C	0.793484	-0.444527	-0.541515
C32	C	0.847212	-0.378667	-0.603024
C33	C	0.825838	-0.491703	-0.497431
C34	C	0.911915	-0.473018	-0.514859
C35	C	0.933289	-0.359982	-0.620452
C36	C	1.271342	-0.617456	-0.638278
C37	C	1.271399	-0.735755	-0.638313
C38	C	1.227459	-0.828908	-0.682178
C39	C	1.192183	-0.887778	-0.602912
C40	C	1.306753	-0.887671	-0.717607
C41	C	1.236075	-0.793067	-0.558999
C42	C	1.350691	-0.792958	-0.673752
C43	C	1.315433	-0.851778	-0.594440
C44	C	1.486383	-0.294345	-0.681852
C45	C	1.577997	-0.274503	-0.700412
C46	C	1.314885	-0.387529	-0.853263
C47	C	1.333417	-0.407397	-0.944868
C48	C	1.271480	-0.063273	-0.638339
C49	C	1.271515	0.055037	-0.638357
C50	C	1.130934	-0.189503	-1.192833
C51	C	1.148366	-0.208191	-1.278914
C52	C	1.253739	-0.321491	-1.300229
C53	C	1.236319	-0.302809	-1.214149
C54	C	1.174915	-0.236815	-1.160457
C55	C	1.280299	-0.350120	-1.181773
C56	C	1.262877	-0.331444	-1.095699
C57	C	1.201474	-0.265456	-1.042002
C58	C	1.157492	-0.218138	-1.074383
C59	C	1.341699	-0.416120	-1.235466
C60	C	1.385679	-0.463432	-1.203090
C61	C	1.368262	-0.444749	-1.117016
C62	C	1.306859	-0.378761	-1.063318
C63	C	1.412243	-0.492067	-1.084634
C64	C	1.394821	-0.473390	-0.998561
C65	C	1.289436	-0.360085	-0.977244
C66	C	1.228127	-0.294376	-0.424177
C67	C	1.209755	-0.274174	-0.332605
H68	H	0.879977	-0.164829	-0.802793
O69	O	1.229679	-0.296124	-0.925091
C70	C	1.151784	-0.341725	-0.929498
H71	H	1.152385	-0.432791	-0.952306
H72	H	1.099612	-0.329102	-0.864647
H73	H	1.140365	-0.300157	-0.975102
H74	H	1.430646	-0.511900	-0.972202
O75	O	0.591466	-0.434312	-0.551365
C76	C	0.578692	-0.485153	-0.624501
H77	H	0.635184	-0.528227	-0.668555
H78	H	0.519901	-0.547389	-0.606872
H79	H	0.570661	-0.420955	-0.657215
O80	O	1.358701	-0.434419	-1.319094
C81	C	1.422335	-0.502797	-1.359543
H82	H	1.423816	-0.551719	-1.312261
H83	H	1.409103	-0.561072	-1.412078
H84	H	1.485542	-0.450895	-1.386998
O85	O	1.183151	-0.815926	-0.726450
C86	C	1.236096	-0.758359	-0.794447
H87	H	1.304144	-0.768325	-0.810726
H88	H	1.219176	-0.792063	-0.851095
H89	H	1.227782	-0.668140	-0.776507
H90	H	1.107500	-0.164387	-1.030665
O91	O	0.600355	-0.162968	-0.804865
C92	C	0.638026	-0.199613	-0.891239
H93	H	0.662512	-0.280391	-0.900083
H94	H	0.589662	-0.211649	-0.920507
H95	H	0.692364	-0.136430	-0.922973
O96	O	1.430657	-0.743816	-0.709429
C97	C	1.477280	-0.756311	-0.663943
H98	H	1.446718	-0.830073	-0.628406
H99	H	1.544077	-0.769045	-0.709160
H100	H	1.478748	-0.679922	-0.617484
O101	O	0.952188	-0.247293	-0.725477
C102	C	0.976694	-0.134434	-0.710287
H103	H	0.919829	-0.093347	-0.664367
H104	H	1.026282	-0.120905	-0.682421
H105	H	1.003788	-0.097791	-0.771789
H106	H	1.336608	-0.928836	-0.784648
O107	O	1.445422	-0.527436	-1.255183
C108	C	1.523322	-0.481794	-1.250807
H109	H	1.512393	-0.426946	-1.188667
H110	H	1.559666	-0.549963	-1.255330
H111	H	1.560901	-0.431567	-1.304883
H112	H	1.080941	-0.135752	-1.149115
H113	H	0.761550	-0.136338	-0.829445
O114	O	1.471981	-0.556078	-1.136727
C115	C	1.549886	-0.510446	-1.132358
H116	H	1.538965	-0.455594	-1.070221
H117	H	1.586224	-0.578621	-1.136881
H118	H	1.587466	-0.460225	-1.186439
H119	H	1.303731	-0.375227	-1.343956
O120	O	0.655313	-0.527320	-0.464394
C121	C	0.679953	-0.632757	-0.486547
H122	H	0.748864	-0.628327	-0.530881
H123	H	0.670845	-0.666823	-0.427603
H124	H	0.640076	-0.688380	-0.519068
O125	O	1.184418	-0.247235	-0.958363
C126	C	1.120808	-0.178821	-0.917921
H127	H	1.082698	-0.185113	-0.957778
H128	H	1.077865	-0.205215	-0.853996
H129	H	1.150421	-0.090814	-0.909286
H130	H	0.782083	-0.545318	-0.447342
O131	O	1.105589	-0.162104	-1.310231
C132	C	1.047642	-0.099879	-1.244377
H133	H	1.068984	-0.075565	-1.189858
H134	H	1.043905	-0.023318	-1.267484
H135	H	0.983181	-0.150435	-1.222539
H136	H	1.125182	-0.929056	-0.572967
O137	O	0.985606	-0.296074	-0.680208
C138	C	1.068511	-0.289677	-0.686117
H139	H	1.074777	-0.363336	-0.661394
H140	H	1.113728	-0.288873	-0.754484
H141	H	1.084069	-0.211653	-0.647254
O142	O	0.943213	-0.518972	-0.471995
C143	C	0.877337	-0.581092	-0.413955
H144	H	0.822807	-0.605481	-0.435280
H145	H	0.900410	-0.657608	-0.410099
H146	H	0.855524	-0.530420	-0.349553
O147	O	0.558171	-0.385514	-0.596469
C148	C	0.562600	-0.339742	-0.518617
H149	H	0.585440	-0.248687	-0.519349
H150	H	0.497748	-0.352292	-0.466425
H151	H	0.608191	-0.381233	-0.507122
H152	H	1.206144	-0.752043	-0.491926
O153	O	1.359694	-0.864399	-0.550017
C154	C	1.322215	-0.815647	-0.466516
H155	H	1.253493	-0.810437	-0.451035
H156	H	1.326593	-0.867006	-0.422237
H157	H	1.356250	-0.730077	-0.458753
