data_functionalizedCrystal
_audit_creation_method	'MofGen! by Chris Wilmer'
_symmetry_space_group_name_H-M	'P1'
_symmetry_Int_Tables_number	1
_symmetry_cell_setting	triclinic
loop_
_symmetry_equiv_pos_as_xyz
  x,y,z
_cell_length_a	16.959455
_cell_length_b	25.639239
_cell_length_c	16.959447
_cell_angle_alpha	90.033076
_cell_angle_beta	90.014322
_cell_angle_gamma	90.035633
loop_
_atom_site_label
_atom_site_type_symbol
_atom_site_fract_x
_atom_site_fract_y
_atom_site_fract_z
Zn1	Zn	1.208282	-0.208183	0.446894
Zn2	Zn	1.208161	-0.295624	0.314709
Zn3	Zn	1.076110	-0.208199	0.314731
Zn4	Zn	1.076032	-0.295585	0.446847
O5	O	1.142146	-0.251898	0.380795
O6	O	1.318876	-0.219792	0.429369
O7	O	1.190627	-0.284050	0.204101
O8	O	1.093726	-0.135032	0.332291
O9	O	1.318788	-0.284034	0.332253
O10	O	1.190832	-0.135020	0.429391
O11	O	1.093609	-0.219820	0.204117
O12	O	0.965489	-0.219782	0.332247
O13	O	1.093593	-0.283967	0.557464
O14	O	0.965431	-0.283983	0.429312
O15	O	1.190756	-0.219754	0.557498
O16	O	1.190551	-0.368784	0.332208
O17	O	1.093476	-0.368755	0.429290
C18	C	0.936780	-0.251880	0.380777
C19	C	0.848923	-0.251886	0.380788
C20	C	0.477453	-0.218441	0.330359
C21	C	0.477442	-0.285398	0.431277
C22	C	0.559988	-0.285390	0.431272
C23	C	0.601270	-0.251908	0.380809
C24	C	0.560007	-0.218433	0.330351
C25	C	0.601258	-0.318868	0.481723
C26	C	0.683809	-0.318863	0.481720
C27	C	0.725092	-0.285377	0.431260
C28	C	0.683824	-0.251901	0.380801
C29	C	0.725106	-0.218418	0.330338
C30	C	0.683839	-0.184939	0.279882
C31	C	0.601290	-0.184948	0.279891
C32	C	0.807641	-0.285368	0.431251
C33	C	0.807660	-0.218411	0.330330
C34	C	1.142013	-0.387740	0.380759
C35	C	1.142029	-0.445854	0.380770
C36	C	1.192825	-0.806220	0.330331
C37	C	1.192855	-0.860824	0.330341
O38	O	1.235906	-0.889063	0.287417
N39	N	1.142285	-0.888137	0.380847
C40	C	1.091686	-0.860842	0.431352
O41	O	1.048675	-0.889088	0.474313
C42	C	1.091660	-0.806239	0.431345
C43	C	1.142228	-0.778929	0.380830
C44	C	1.243389	-0.778910	0.279820
C45	C	1.243358	-0.724309	0.279809
C46	C	1.192761	-0.697019	0.330308
C47	C	1.142196	-0.724329	0.380818
C48	C	1.041066	-0.778946	0.481853
C49	C	1.041045	-0.724339	0.481842
C50	C	1.091613	-0.697029	0.431326
C51	C	1.091568	-0.642437	0.431306
N52	N	1.142139	-0.615125	0.380800
C53	C	1.192735	-0.642415	0.330301
C54	C	1.091746	-0.975513	0.431364
C55	C	1.091767	-1.030115	0.431368
C56	C	1.192938	-1.030093	0.330358
C57	C	1.192912	-0.975490	0.330351
C58	C	1.142316	-0.948200	0.380858
C59	C	1.192664	-0.527750	0.330280
C60	C	1.192625	-0.473145	0.330271
C61	C	1.091458	-0.473172	0.431283
C62	C	1.091493	-0.527772	0.431290
C63	C	1.142103	-0.555060	0.380786
O64	O	1.048541	-0.614164	0.474211
O65	O	1.235746	-0.614163	0.287355
C66	C	1.348314	-0.251915	0.380814
C67	C	1.436171	-0.251923	0.380822
C68	C	1.142179	-0.251854	0.586963
C69	C	1.142193	-0.251836	0.674820
C70	C	1.142301	-0.115525	0.380849
C71	C	1.142367	-0.057411	0.380872
C72	C	1.142159	-0.251903	0.175429
C73	C	1.142298	-0.251774	0.087573
C74	C	1.091699	-0.285214	1.046281
C75	C	1.192876	-0.218348	1.046311
C76	C	1.192855	-0.218359	0.963765
C77	C	1.142256	-0.251799	0.922473
C78	C	1.091678	-0.285227	0.963727
C79	C	1.243438	-0.184935	0.922505
C80	C	1.243419	-0.184945	0.839954
C81	C	1.192816	-0.218382	0.798661
C82	C	1.142235	-0.251812	0.839920
C83	C	1.091636	-0.285251	0.798628
C84	C	1.041051	-0.318679	0.839885
C85	C	1.041074	-0.318665	0.922433
C86	C	1.192792	-0.218396	0.716112
C87	C	1.091615	-0.285265	0.716074
H88	H	1.233804	-0.450911	0.289133
H89	H	1.233980	-0.191182	0.682524
H90	H	0.841266	-0.191142	0.289241
H91	H	0.999893	-0.345881	0.956033
C92	C	1.036052	-0.321978	1.091664
N93	N	0.994137	-0.349669	1.125847
H94	H	0.443850	-0.191181	0.289281
C95	C	0.985384	-0.694323	0.537405
N96	N	0.943460	-0.671717	0.579254
H97	H	1.234076	-0.191126	1.079936
C98	C	0.555891	-0.148126	0.224391
N99	N	0.521692	-0.120393	0.182587
H100	H	0.999884	-0.801172	0.522984
C101	C	1.036086	-0.945499	0.486933
N102	N	0.994168	-0.922896	0.528791
H103	H	1.050319	-0.550009	0.472426
C104	C	1.248332	-0.557759	0.274718
N105	N	1.290257	-0.580361	0.232864
C106	C	1.248602	-1.060123	0.274814
N107	N	1.290526	-1.082744	0.232982
H108	H	1.050403	-0.312491	0.682460
C109	C	0.729260	-0.148107	0.224377
N110	N	0.763475	-0.120365	0.182575
H111	H	0.999857	-0.345907	0.806254
C112	C	0.555843	-0.355698	0.537226
N113	N	0.521632	-0.383438	0.579034
H114	H	1.284596	-0.801124	0.238698
C115	C	0.432029	-0.322228	0.486781
N116	N	0.397820	-0.349968	0.528590
C117	C	1.035807	-0.443142	0.486832
N118	N	0.993896	-0.420521	0.528677
C119	C	1.299084	-0.148148	0.967931
N120	N	1.340994	-0.120436	1.002150
H121	H	1.284608	-0.157726	0.806369
H122	H	0.717401	-0.346123	0.522805
C123	C	0.853031	-0.322193	0.486749
N124	N	0.887218	-0.349931	0.528555
H125	H	1.284537	-0.702077	0.238678
C126	C	1.248542	-0.945454	0.274784
N127	N	1.290447	-0.922834	0.232929
H128	H	1.050582	-1.052346	0.472495
