data_functionalizedCrystal
_audit_creation_method	'MofGen! by Chris Wilmer'
_symmetry_space_group_name_H-M	'P1'
_symmetry_Int_Tables_number	1
_symmetry_cell_setting	triclinic
loop_
_symmetry_equiv_pos_as_xyz
  x,y,z
_cell_length_a	10.685980
_cell_length_b	18.050590
_cell_length_c	10.686551
_cell_angle_alpha	94.409718
_cell_angle_beta	98.408259
_cell_angle_gamma	94.384981
loop_
_atom_site_label
_atom_site_type_symbol
_atom_site_fract_x
_atom_site_fract_y
_atom_site_fract_z
Zn1	Zn	1.995769	-0.166459	0.866682
Zn2	Zn	2.495769	0.333541	1.366682
Zn3	Zn	1.979330	-0.300999	0.654401
Zn4	Zn	2.479330	0.199001	1.154401
Zn5	Zn	1.767193	-0.187129	0.638144
Zn6	Zn	2.267193	0.312871	1.138144
Zn7	Zn	1.783454	-0.300927	0.850311
Zn8	Zn	2.283454	0.199073	1.350311
O9	O	1.881436	-0.238878	0.752384
O10	O	2.381436	0.261122	1.252384
O11	O	2.171223	-0.175686	0.852177
O12	O	2.671223	0.324314	1.352177
O13	O	1.937505	-0.294574	0.474611
O14	O	2.437505	0.205426	0.974611
O15	O	1.797589	-0.080457	0.668507
O16	O	2.297589	0.419543	1.168507
O17	O	2.159145	-0.274532	0.696215
O18	O	2.659145	0.225468	1.196215
O19	O	1.965522	-0.065271	0.836413
O20	O	2.465522	0.434729	1.336413
O21	O	1.781649	-0.210915	0.462667
O22	O	2.281649	0.289085	0.962667
O23	O	1.591716	-0.210845	0.652633
O24	O	2.091716	0.289155	1.152633
O25	O	1.825303	-0.274409	1.030116
O26	O	2.325303	0.225591	1.530116
O27	O	1.603662	-0.294451	0.808512
O28	O	2.103662	0.205549	1.308512
O29	O	1.981289	-0.175616	1.042143
O30	O	2.481289	0.324384	1.542143
O31	O	1.953272	-0.404919	0.680341
O32	O	2.453272	0.095081	1.180341
O33	O	1.809363	-0.404866	0.824276
O34	O	2.309363	0.095134	1.324276
C35	C	1.551630	-0.254884	0.727033
C36	C	2.051630	0.245116	1.227033
C37	C	1.410540	-0.261747	0.716217
C38	C	1.910540	0.238253	1.216217
C39	C	1.881335	-0.431838	0.752326
C40	C	2.381335	0.068162	1.252326
C41	C	1.881411	-0.514379	0.752353
C42	C	2.381411	-0.014379	1.252353
C43	C	1.959854	-0.713817	0.674213
C44	C	2.459854	-0.213817	1.174213
C45	C	1.999760	-0.756001	0.792444
C46	C	2.499760	-0.256001	1.292444
C47	C	1.881487	-0.665503	0.752409
C48	C	2.381487	-0.165503	1.252409
C49	C	1.841714	-0.770392	0.634240
C50	C	2.341714	-0.270392	1.134240
C51	C	1.881562	-0.811483	0.752453
C52	C	2.381562	-0.311483	1.252453
C53	C	1.921457	-0.706594	0.870706
C54	C	2.421457	-0.206594	1.370706
C55	C	1.763351	-0.720987	0.712419
C56	C	2.263351	-0.220987	1.212419
C57	C	1.803219	-0.763147	0.830726
C58	C	2.303219	-0.263147	1.330726
C59	C	1.881447	-0.581408	0.752382
C60	C	2.381447	-0.081408	1.252382
C61	C	1.881603	-0.895576	0.752493
C62	C	2.381603	-0.395576	1.252493
C63	C	2.212530	-0.222811	0.777836
C64	C	2.712530	0.277189	1.277836
C65	C	2.353623	-0.215964	0.788682
C66	C	2.853623	0.284036	1.288682
C67	C	1.906943	-0.222698	1.083476
C68	C	2.406943	0.277302	1.583476
C69	C	1.917813	-0.215803	1.224567
C70	C	2.417813	0.284197	1.724567
C71	C	1.881575	-0.045162	0.752473
C72	C	2.381575	0.454838	1.252473
C73	C	1.881634	0.037388	0.752511
C74	C	2.381634	0.537388	1.252511
C75	C	1.856102	-0.254938	0.422587
C76	C	2.356102	0.245062	0.922587
C77	C	1.845478	-0.261612	0.281515
C78	C	2.345478	0.238388	0.781515
H79	H	2.026157	-0.692147	0.608161
H80	H	2.526157	-0.192147	1.108161
C81	C	1.713746	-0.792229	0.920190
C82	C	2.213746	-0.292229	1.420190
H83	H	1.742229	-0.770105	1.004090
H84	H	2.242229	-0.270105	1.504090
H85	H	1.630101	-0.779629	0.892487
H86	H	2.130101	-0.279629	1.392487
H87	H	1.713736	-0.844902	0.919202
H88	H	2.213736	-0.344902	1.419202
H89	H	1.775237	-0.306107	1.222331
H90	H	2.275237	0.193893	1.722331
H91	H	1.351324	-0.306198	0.645892
H92	H	1.851324	0.193802	1.145892
H93	H	1.955036	-0.678902	0.970735
H94	H	2.455036	-0.178902	1.470735
H95	H	1.663438	-0.705355	0.678536
H96	H	2.163438	-0.205355	1.178536
H97	H	1.988067	-0.171310	1.283758
H98	H	2.488067	0.328690	1.783758
C99	C	2.134761	-0.777104	0.838173
C100	C	2.634761	-0.277104	1.338173
H101	H	2.190315	-0.760225	0.782510
H102	H	2.690315	-0.260225	1.282510
H103	H	2.163581	-0.754352	0.921597
H104	H	2.663581	-0.254352	1.421597
H105	H	2.133674	-0.829759	0.838593
H106	H	2.633674	-0.329759	1.338593
H107	H	1.412832	-0.171512	0.858994
H108	H	1.912832	0.328488	1.358994
H109	H	1.808045	-0.798177	0.534287
H110	H	2.308045	-0.298177	1.034287
