data_functionalizedCrystal
_audit_creation_method	'MofGen! by Chris Wilmer'
_symmetry_space_group_name_H-M	'P1'
_symmetry_Int_Tables_number	1
_symmetry_cell_setting	triclinic
loop_
_symmetry_equiv_pos_as_xyz
  x,y,z
_cell_length_a	6.817900
_cell_length_b	13.167930
_cell_length_c	10.943624
_cell_angle_alpha	97.842061
_cell_angle_beta	108.838799
_cell_angle_gamma	105.754568
loop_
_atom_site_label
_atom_site_type_symbol
_atom_site_fract_x
_atom_site_fract_y
_atom_site_fract_z
V1	V	-4.110252	-0.148865	-0.420386
O2	O	-4.073457	0.007183	-0.394028
O3	O	-4.083047	-0.295202	-0.435164
O4	O	-4.088295	-0.146562	-0.595676
O5	O	-4.068173	-0.142486	-0.232404
V6	V	-4.587707	-0.130201	-0.395757
O7	O	-4.384821	-0.189805	-0.474410
O8	O	-4.763335	-0.089261	-0.341732
O9	O	-4.391704	0.016136	-0.380979
O10	O	-4.741898	-0.286248	-0.422115
O11	O	-4.747182	-0.136580	-0.583738
O12	O	-4.386456	-0.132504	-0.220466
C13	C	-3.932349	-0.330876	-0.433087
C14	C	-3.991569	-0.450508	-0.446339
C15	C	-3.981751	-0.644591	-0.231066
C16	C	-4.037391	-0.756995	-0.243510
C17	C	-4.158504	-0.787723	-0.483672
C18	C	-4.102864	-0.675319	-0.471228
C19	C	-4.014484	-0.603756	-0.344920
C20	C	-3.958829	-0.491349	-0.332476
C21	C	-4.079957	-0.522080	-0.572637
C22	C	-4.135597	-0.634484	-0.585082
C23	C	-3.939042	-0.141270	-0.637835
C24	C	-4.002514	-0.140356	-0.781252
C25	C	-3.847561	-0.134199	-0.857662
C26	C	-4.033700	-0.225590	-0.974601
C27	C	-3.929497	-0.047346	-0.919860
C28	C	-4.187861	-0.231833	-0.896324
C29	C	-4.083580	-0.053508	-0.841550
C30	C	-4.269855	-0.144925	-0.958463
C31	C	-4.205745	0.051804	-0.383052
C32	C	-4.125764	0.171435	-0.369809
C33	C	-4.199051	-0.137799	-0.178301
C34	C	-4.114817	-0.138708	-0.034882
H35	H	-3.909761	-0.586322	-0.128220
H36	H	-3.886855	-0.433083	-0.229629
O37	O	-3.633859	-0.128740	-0.805061
C38	C	-3.270996	-0.028220	-0.640676
C39	C	-3.512917	-0.034246	-0.700143
H40	H	-3.173154	0.048160	-0.555821
H41	H	-3.198678	-0.025224	-0.721154
H42	H	-3.262096	-0.103192	-0.600971
H43	H	-3.522011	0.040707	-0.739839
H44	H	-3.585129	-0.037296	-0.619619
O45	O	-4.111811	-0.482592	-0.683378
C46	C	-4.237922	-0.524940	-0.922903
C47	C	-4.201930	-0.569805	-0.797605
H48	H	-4.310830	-0.595430	-1.015289
H49	H	-4.073725	-0.468921	-0.917715
H50	H	-4.356007	-0.477247	-0.928463
H51	H	-4.083925	-0.617548	-0.791966
H52	H	-4.366215	-0.625766	-0.802844
O53	O	-4.107467	0.033323	-0.772526
C54	C	-3.930307	0.196269	-0.593927
C55	C	-3.902999	0.097956	-0.671974
H56	H	-3.765013	0.248564	-0.512631
H57	H	-4.054697	0.166294	-0.546669
H58	H	-3.991420	0.246774	-0.664779
H59	H	-3.841816	0.047410	-0.601209
H60	H	-3.778677	0.128004	-0.719251
H61	H	-3.820894	0.030605	-0.931283
O62	O	-4.009749	-0.312464	-1.043509
C63	C	-4.187417	-0.476432	-1.220590
C64	C	-4.214881	-0.378120	-1.142649
H65	H	-4.353230	-0.529529	-1.300781
H66	H	-4.123372	-0.526138	-1.149463
H67	H	-4.065255	-0.446361	-1.269288
H68	H	-4.337073	-0.408096	-1.093945
H69	H	-4.278818	-0.328434	-1.213837
H70	H	-4.010734	-0.790237	-0.150798
H71	H	-4.296494	-0.309888	-0.885131
H72	H	-4.230499	-0.846009	-0.586507
O73	O	-4.483457	-0.150160	-1.010712
C74	C	-4.736608	-0.062736	-1.117092
C75	C	-4.494613	-0.056651	-1.057930
H76	H	-4.745711	0.012845	-1.155309
H77	H	-4.809389	-0.067175	-1.036883
H78	H	-4.833902	-0.138436	-1.202975
H79	H	-4.397141	0.019042	-0.972063
H80	H	-4.422005	-0.052272	-1.138219
H81	H	-4.207570	-0.692766	-0.687918
