data_functionalizedCrystal
_audit_creation_method	'MofGen! by Chris Wilmer'
_symmetry_space_group_name_H-M	'P1'
_symmetry_Int_Tables_number	1
_symmetry_cell_setting	triclinic
loop_
_symmetry_equiv_pos_as_xyz
  x,y,z
_cell_length_a	6.817900
_cell_length_b	15.866870
_cell_length_c	16.015572
_cell_angle_alpha	95.305972
_cell_angle_beta	104.485554
_cell_angle_gamma	102.655915
loop_
_atom_site_label
_atom_site_type_symbol
_atom_site_fract_x
_atom_site_fract_y
_atom_site_fract_z
V1	V	-3.996844	-0.034800	-0.280476
O2	O	-3.966447	0.088700	-0.236015
O3	O	-3.966340	-0.152703	-0.316185
O4	O	-3.927287	0.003921	-0.385636
O5	O	-4.005770	-0.069009	-0.166083
V6	V	-4.480895	-0.024540	-0.262223
O7	O	-4.256945	-0.057306	-0.320516
O8	O	-4.670991	-0.002034	-0.222183
O9	O	-4.288193	0.093362	-0.226515
O10	O	-4.628689	-0.148040	-0.306685
O11	O	-4.589366	0.009668	-0.376616
O12	O	-4.327246	-0.063262	-0.157064
C13	C	-3.816378	-0.182638	-0.321469
C14	C	-3.872583	-0.278779	-0.351366
C15	C	-3.917279	-0.657597	-0.074048
C16	C	-3.970096	-0.747931	-0.102166
C17	C	-4.026156	-0.722870	-0.252428
C18	C	-3.973333	-0.632531	-0.224321
C19	C	-3.918899	-0.599902	-0.135131
C20	C	-3.974953	-0.574837	-0.285404
C21	C	-3.922145	-0.484506	-0.257300
C22	C	-3.867716	-0.451870	-0.168113
C23	C	-3.866091	-0.509571	-0.107027
C24	C	-4.029402	-0.607468	-0.374595
C25	C	-4.031022	-0.549773	-0.435678
C26	C	-3.978199	-0.459441	-0.407574
C27	C	-3.923770	-0.426804	-0.318387
C28	C	-3.979824	-0.401739	-0.468660
C29	C	-3.927016	-0.311408	-0.440556
C30	C	-3.870962	-0.336474	-0.290283
C31	C	-3.766562	0.017152	-0.410059
C32	C	-3.791093	0.048031	-0.496274
C33	C	-4.121327	-0.226050	-0.961199
C34	C	-4.144378	-0.197007	-1.042199
C35	C	-4.044584	-0.046745	-0.969635
C36	C	-4.021514	-0.075776	-0.888628
C37	C	-4.059892	-0.165429	-0.884418
C38	C	-3.960078	-0.015155	-0.811846
C39	C	-3.937021	-0.044184	-0.730846
C40	C	-3.975400	-0.133834	-0.726628
C41	C	-4.036835	-0.194459	-0.803418
C42	C	-3.921715	0.074498	-0.816058
C43	C	-3.860280	0.135118	-0.739276
C44	C	-3.837207	0.106090	-0.658274
C45	C	-3.875586	0.016440	-0.654056
C46	C	-3.775772	0.166714	-0.581484
C47	C	-3.752715	0.137685	-0.500484
C48	C	-3.852529	-0.012589	-0.573056
C49	C	-4.101498	0.123292	-0.221230
C50	C	-4.024530	0.219434	-0.191339
C51	C	-4.151314	-0.076497	-0.132637
C52	C	-4.106021	-0.107372	-0.046420
H53	H	-3.968765	-0.794905	-0.052418
O54	O	-4.078989	-0.754714	-0.339029
C55	C	-4.185302	-0.882766	-0.448929
C56	C	-4.125472	-0.846823	-0.350826
H57	H	-4.222942	-0.957240	-0.458499
H58	H	-4.049005	-0.856554	-0.476426
H59	H	-4.328408	-0.861106	-0.484496
H60	H	-3.982421	-0.868469	-0.315186
H61	H	-4.261888	-0.873031	-0.323395
O62	O	-3.816108	-0.364136	-0.140695
C63	C	-3.551914	-0.238488	-0.054155
C64	C	-3.610105	-0.337853	-0.085122
H65	H	-3.385343	-0.217205	-0.009233
H66	H	-3.664752	-0.221812	-0.017220
H67	H	-3.562534	-0.202873	-0.113146
H68	H	-3.599468	-0.373536	-0.026180
H69	H	-3.497262	-0.354462	-0.122087
H70	H	-4.013349	0.026251	-0.973076
H71	H	-4.068059	-0.267463	-0.799991
O72	O	-3.813368	-0.478015	-0.020356
C73	C	-3.763254	-0.512397	0.125736
C74	C	-3.823026	-0.548252	0.027614
H75	H	-3.770999	-0.569164	0.164549
H76	H	-3.876913	-0.473108	0.138630
H77	H	-3.597435	-0.468359	0.146672
H78	H	-3.988798	-0.592326	0.006611
H79	H	-3.709229	-0.587491	0.014774
O80	O	-4.083856	-0.581618	-0.522279
C81	C	-4.190169	-0.709670	-0.632179
C82	C	-4.130339	-0.673726	-0.534076
H83	H	-4.227809	-0.784144	-0.641749
H84	H	-4.053871	-0.683457	-0.659676
H85	H	-4.333275	-0.688010	-0.667746
H86	H	-3.987288	-0.695372	-0.498436
H87	H	-4.266755	-0.699934	-0.506645
O88	O	-4.158422	-0.313108	-0.956944
C89	C	-4.167243	-0.424421	-0.864315
C90	C	-4.125122	-0.325810	-0.869011
H91	H	-4.140379	-0.434723	-0.793229
H92	H	-4.056623	-0.453550	-0.893988
H93	H	-4.336074	-0.458000	-0.902268
H94	H	-3.956348	-0.292157	-0.831053
H95	H	-4.235875	-0.296747	-0.839367
O96	O	-3.692766	0.196491	-0.425827
C97	C	-3.435782	0.253739	-0.287223
C98	C	-3.503447	0.187083	-0.371721
H99	H	-3.282689	0.246167	-0.243462
H100	H	-3.562083	0.241656	-0.251512
H101	H	-3.412417	0.322791	-0.304171
H102	H	-3.526789	0.118005	-0.354848
H103	H	-3.377114	0.199242	-0.407409
H104	H	-4.024171	-0.428320	-0.541280
O105	O	-3.944447	0.102592	-0.894798
C106	C	-4.177893	0.100289	-1.035989
C107	C	-4.152427	0.068392	-0.946862
H108	H	-4.346046	0.072668	-1.078100
H109	H	-4.066683	0.077096	-1.070038
H110	H	-4.139818	0.174779	-1.025782
H111	H	-4.190536	-0.006094	-0.956990
H112	H	-4.263608	0.091651	-0.912842
O113	O	-3.823343	0.222206	-0.743340
C114	C	-3.917963	0.356756	-0.711113
C115	C	-3.960045	0.258133	-0.706475
H116	H	-4.028431	0.385835	-0.681295
H117	H	-3.945105	0.367138	-0.782185
H118	H	-3.749069	0.390318	-0.673234
H119	H	-4.128924	0.224506	-0.744308
H120	H	-3.932763	0.247815	-0.635382
O121	O	-4.203993	-0.256015	-1.116701
C122	C	-4.300717	-0.408133	-1.180136
C123	C	-4.233155	-0.341403	-1.095695
H124	H	-4.324357	-0.477185	-1.163183
H125	H	-4.174306	-0.396124	-1.215796
H126	H	-4.453662	-0.400487	-1.223953
H127	H	-4.080256	-0.349011	-1.051812
H128	H	-4.359696	-0.353432	-1.060103
O129	O	-3.928601	-0.255478	-0.500002
C130	C	-3.989896	-0.240143	-0.652020
C131	C	-3.988124	-0.303581	-0.584789
H132	H	-4.038059	-0.279010	-0.720587
H133	H	-3.826841	-0.194903	-0.638626
H134	H	-4.106250	-0.199547	-0.646618
H135	H	-3.871871	-0.344234	-0.590153
H136	H	-4.151253	-0.348763	-0.598204
O137	O	-3.953201	-0.161937	-0.647903
C138	C	-4.065776	-0.165204	-0.516839
C139	C	-4.091091	-0.133305	-0.605962
H140	H	-4.177271	-0.142084	-0.482912
H141	H	-3.897743	-0.137516	-0.474618
H142	H	-4.103671	-0.239691	-0.527040
H143	H	-4.053305	-0.058823	-0.595843
H144	H	-4.259128	-0.161058	-0.648153
O145	O	-3.818306	-0.304665	-0.203674
C146	C	-3.899211	-0.220144	-0.089755
C147	C	-3.959037	-0.256100	-0.187855
H148	H	-4.012986	-0.180887	-0.076932
H149	H	-3.733410	-0.176085	-0.068767
H150	H	-3.907022	-0.276902	-0.050929
H151	H	-3.951350	-0.199398	-0.226749
H152	H	-4.124806	-0.300184	-0.208775
O153	O	-3.864776	-0.625935	0.012591
C154	C	-3.973666	-0.622633	0.144614
C155	C	-4.033395	-0.658540	0.046506
H156	H	-4.109944	-0.648994	0.172067
H157	H	-3.936325	-0.548161	0.154243
H158	H	-3.830426	-0.644210	0.180177
H159	H	-4.176669	-0.637029	0.010879
H160	H	-4.070603	-0.733008	0.036941
O161	O	-3.738528	0.253829	-0.585429
C162	C	-3.637017	0.399819	-0.504900
C163	C	-3.679165	0.301186	-0.500311
H164	H	-3.588971	0.438137	-0.436090
H165	H	-3.785036	0.414958	-0.545044
H166	H	-3.505689	0.419383	-0.536970
H167	H	-3.810423	0.281554	-0.468222
H168	H	-3.531044	0.286101	-0.460196
H169	H	-4.072401	-0.681022	-0.397475
H170	H	-3.883753	-0.085593	-0.569629
