data_functionalizedCrystal
_audit_creation_method	'MofGen! by Chris Wilmer'
_symmetry_space_group_name_H-M	'P1'
_symmetry_Int_Tables_number	1
_symmetry_cell_setting	triclinic
loop_
_symmetry_equiv_pos_as_xyz
  x,y,z
_cell_length_a	6.394989
_cell_length_b	14.971486
_cell_length_c	13.448316
_cell_angle_alpha	90.001801
_cell_angle_beta	90.003556
_cell_angle_gamma	85.055920
loop_
_atom_site_label
_atom_site_type_symbol
_atom_site_fract_x
_atom_site_fract_y
_atom_site_fract_z
O1	O	-0.272213	-1.189891	-0.082571
O2	O	-0.304810	-0.929844	-0.082597
O3	O	0.015543	-1.063559	-0.082584
O4	O	-0.592567	-1.056176	-0.082583
O5	O	0.015563	-1.063541	0.082800
O6	O	-0.304791	-0.929826	0.082787
O7	O	-0.272193	-1.189874	0.082813
Cu8	Cu	-0.288490	-1.059848	0.097901
Cu9	Cu	-0.288513	-1.059869	-0.097685
O10	O	-0.592547	-1.056159	0.082800
C11	C	-0.303343	-0.896494	0.000091
C12	C	-0.298974	-0.797150	0.000081
C13	C	-0.273661	-1.223223	0.000122
C14	C	-0.278029	-1.322567	0.000126
N15	N	-0.288472	-1.059840	0.235465
C16	C	0.093378	-1.062090	0.000104
C17	C	0.329624	-1.057629	0.000102
N18	N	-0.288515	-1.059884	-0.235249
C19	C	-0.487173	-0.741960	0.000083
C20	C	-0.483056	-0.648616	0.000098
C21	C	-0.290737	-0.610464	0.000104
C22	C	-0.102524	-0.665661	0.000105
C23	C	-0.106643	-0.759003	0.000097
C24	C	-0.093951	-0.471106	0.000119
C25	C	-0.089830	-0.377757	0.000125
C26	C	-0.470364	-0.360719	0.000119
C27	C	-0.474483	-0.454061	0.000111
C28	C	-0.286268	-0.509252	0.000111
C29	C	-0.146678	-1.119069	0.287511
C30	C	-0.146676	-1.119074	0.391614
C31	C	-0.288480	-1.059855	0.443670
C32	C	-0.430282	-1.000620	0.391616
C33	C	-0.430272	-1.000611	0.287515
C34	C	-0.430296	-1.000645	0.608596
C35	C	-0.430309	-1.000655	0.712705
C36	C	-0.146700	-1.119109	0.712696
C37	C	-0.146690	-1.119099	0.608594
C38	C	-0.288495	-1.059865	0.556548
H39	H	-0.643782	-0.773016	0.000077
H40	H	-0.031233	-1.167324	0.566211
H41	H	0.054066	-0.634590	0.000124
C42	C	0.009293	-1.184263	0.769945
C43	C	0.009297	-1.184271	0.884452
C44	C	0.165274	-1.249425	0.941707
C45	C	0.321248	-1.314572	0.884455
C46	C	0.321250	-1.314567	0.769942
C47	C	0.165273	-1.249413	0.712686
H48	H	-0.106169	-1.136042	0.926839
H49	H	0.165272	-1.249429	1.026478
H50	H	0.436712	-1.362804	0.926839
H51	H	0.436717	-1.362795	0.727554
H52	H	0.165276	-1.249409	0.627915
H53	H	0.059314	-0.516040	0.000120
H54	H	0.046608	-0.803939	0.000096
C55	C	-0.586253	-0.935460	0.230261
C56	C	-0.742309	-0.870351	0.287516
C57	C	-0.898288	-0.805195	0.230264
C58	C	-0.898210	-0.805147	0.115757
C59	C	-0.742148	-0.870258	0.058495
C60	C	-0.586169	-0.935414	0.115747
H61	H	-0.742372	-0.870385	0.372287
H62	H	-1.013815	-0.756996	0.272654
H63	H	-1.013675	-0.756914	0.073376
H64	H	-0.742085	-0.870224	-0.026276
H65	H	-0.470642	-0.983614	0.073358
C66	C	0.009313	-1.184212	0.230256
C67	C	0.169205	-1.147461	0.158702
C68	C	0.325206	-1.212604	0.101450
C69	C	0.321316	-1.314499	0.115752
C70	C	0.161417	-1.351256	0.187309
C71	C	0.005416	-1.286113	0.244561
H72	H	0.172091	-1.072027	0.148112
H73	H	0.443574	-1.185393	0.048479
H74	H	0.436797	-1.362722	0.073371
H75	H	0.158532	-1.426689	0.197899
H76	H	-0.112951	-1.313323	0.297532
H77	H	-0.636307	-0.603684	0.000098
H78	H	-0.631086	-0.485121	0.000097
C79	C	-0.586284	-0.935507	0.769963
C80	C	-0.582349	-0.833613	0.755669
C81	C	-0.738326	-0.768462	0.812925
C82	C	-0.898238	-0.805205	0.884474
C83	C	-0.902179	-0.907104	0.898772
C84	C	-0.746202	-0.972255	0.841516
H85	H	-0.463967	-0.806409	0.702701
H86	H	-0.735407	-0.693029	0.802341
H87	H	-1.013702	-0.756977	0.926858
H88	H	-1.020561	-0.934309	0.951740
H89	H	-0.749121	-1.047688	0.852100
H90	H	-0.623615	-0.315778	0.000124
H91	H	0.066773	-0.346697	0.000131
H92	H	-0.031215	-1.167302	0.433990
H93	H	-0.545761	-0.952408	0.566224
H94	H	-0.545735	-0.952398	0.434006
