data_functionalizedCrystal
_audit_creation_method	'MofGen! by Chris Wilmer'
_symmetry_space_group_name_H-M	'P1'
_symmetry_Int_Tables_number	1
_symmetry_cell_setting	triclinic
loop_
_symmetry_equiv_pos_as_xyz
  x,y,z
_cell_length_a	16.992694
_cell_length_b	14.472311
_cell_length_c	16.992695
_cell_angle_alpha	90.009954
_cell_angle_beta	90.668223
_cell_angle_gamma	89.998131
loop_
_atom_site_label
_atom_site_type_symbol
_atom_site_fract_x
_atom_site_fract_y
_atom_site_fract_z
O1	O	1.050850	0.076726	0.166922
O2	O	1.550850	0.576726	0.666922
O3	O	0.822450	0.076753	0.165091
O4	O	1.322450	0.576753	0.665091
O5	O	0.935734	0.076732	0.051807
O6	O	1.435734	0.576732	0.551807
O7	O	0.937565	0.076747	0.280207
O8	O	1.437565	0.576747	0.780207
O9	O	0.935725	-0.076950	0.051791
O10	O	1.435725	0.423050	0.551791
O11	O	0.822441	-0.076929	0.165075
O12	O	1.322441	0.423071	0.665075
O13	O	1.050841	-0.076956	0.166907
O14	O	1.550841	0.423044	0.666907
Cu15	Cu	0.936640	-0.090975	0.165990
Cu16	Cu	1.436640	0.409025	0.665990
Cu17	Cu	0.936651	0.090772	0.166008
Cu18	Cu	1.436651	0.590772	0.666008
O19	O	0.937556	-0.076935	0.280191
O20	O	1.437556	0.423065	0.780191
C21	C	0.793085	-0.000084	0.162727
C22	C	1.293085	0.499916	0.662727
C23	C	0.705600	-0.000074	0.155699
C24	C	1.205600	0.499926	0.655699
C25	C	0.659610	-0.000071	0.223517
C26	C	1.159610	0.499929	0.723517
C27	C	0.577409	-0.000084	0.216908
C28	C	1.077409	0.499916	0.716908
C29	C	0.541201	-0.000094	0.142480
C30	C	1.041201	0.499906	0.642480
C31	C	0.587198	-0.000100	0.074657
C32	C	1.087198	0.499900	0.574657
C33	C	0.669397	-0.000094	0.081267
C34	C	1.169397	0.499906	0.581267
C35	C	0.295886	-0.000120	0.115086
C36	C	0.795886	0.499880	0.615086
C37	C	0.213681	-0.000124	0.108481
C38	C	0.713681	0.499876	0.608481
C39	C	0.203898	-0.000109	0.250732
C40	C	0.703898	0.499891	0.750732
C41	C	0.286099	-0.000097	0.257335
C42	C	0.786099	0.499903	0.757335
C43	C	0.332089	-0.000108	0.189512
C44	C	0.832089	0.499892	0.689512
N45	N	0.457178	-0.000104	0.135723
N46	N	0.957178	0.499896	0.635723
N47	N	0.416110	-0.000105	0.196270
N48	N	0.916110	0.499895	0.696270
N49	N	0.936638	-0.218806	0.165976
N50	N	1.436638	0.281194	0.665976
C51	C	0.936651	-0.592897	0.166002
C52	C	1.436651	-0.092897	0.666002
C53	C	0.997491	-0.553713	0.105615
C54	C	1.497491	-0.053713	0.605615
C55	C	0.997307	-0.446625	0.105367
C56	C	1.497307	0.053375	0.605367
C57	C	0.936645	-0.407306	0.165989
C58	C	1.436645	0.092694	0.665989
C59	C	0.853392	-0.446188	0.142904
C60	C	1.353392	0.053812	0.642904
C61	C	0.853748	-0.553310	0.142473
C62	C	1.353748	-0.053310	0.642473
C63	C	0.958336	-0.553399	0.249618
C64	C	1.458336	-0.053399	0.749618
C65	C	0.960166	-0.446271	0.249182
C66	C	1.460166	0.053729	0.749182
C67	C	0.936637	-0.302418	0.165983
C68	C	1.436637	0.197582	0.665983
C69	C	0.936654	-0.697785	0.166006
C70	C	1.436654	-0.197785	0.666006
C71	C	1.080205	-0.000116	0.169270
C72	C	1.580205	0.499884	0.669270
C73	C	1.167690	-0.000121	0.176299
C74	C	1.667690	0.499879	0.676299
C75	C	0.933374	-0.000108	0.022439
C76	C	1.433374	0.499892	0.522439
C77	C	0.926345	-0.000107	-0.065046
C78	C	1.426345	0.499893	0.434954
N79	N	0.936659	0.218603	0.166015
N80	N	1.436659	0.718603	0.666015
C81	C	0.994163	-0.000116	-0.111037
C82	C	1.494163	0.499884	0.388963
C83	C	0.987554	-0.000107	-0.193238
C84	C	1.487554	0.499893	0.306762
C85	C	0.913127	-0.000095	-0.229446
C86	C	1.413127	0.499905	0.270554
C87	C	0.845303	-0.000083	-0.183449
C88	C	1.345303	0.499917	0.316551
C89	C	0.851913	-0.000086	-0.101250
C90	C	1.351913	0.499914	0.398750
C91	C	0.885732	-0.000079	-0.474760
C92	C	1.385732	0.499921	0.025240
C93	C	0.879127	-0.000079	-0.556966
C94	C	1.379127	0.499921	-0.056966
C95	C	1.021379	-0.000101	-0.566749
C96	C	1.521379	0.499899	-0.066749
C97	C	1.027982	-0.000109	-0.484547
C98	C	1.527982	0.499891	0.015453
C99	C	0.960159	-0.000092	-0.438558
C100	C	1.460159	0.499908	0.061442
N101	N	0.906369	-0.000088	-0.313468
N102	N	1.406369	0.499912	0.186532
N103	N	0.966917	-0.000093	-0.354537
N104	N	1.466917	0.499907	0.145463
C105	C	0.939917	-0.000093	0.309559
C106	C	1.439917	0.499907	0.809559
C107	C	0.946945	-0.000088	0.397044
C108	C	1.446945	0.499912	0.897044
H109	H	0.166444	-0.000102	0.305950
H110	H	0.666444	0.499898	0.805950
F111	F	0.829796	-0.585985	0.062561
F112	F	1.329796	-0.085985	0.562561
H113	H	0.982918	-0.421011	0.043422
H114	H	1.482918	0.078989	0.543422
F115	F	0.766091	-0.000060	-0.221987
F116	F	1.266091	0.499940	0.278013
H117	H	1.059026	-0.420336	0.119875
H118	H	1.559026	0.079664	0.619875
H119	H	1.059404	-0.579474	0.119963
H120	H	1.559404	-0.079474	0.619963
F121	F	0.175147	-0.000151	0.029261
F122	F	0.675147	0.499849	0.529261
H123	H	0.796688	-0.000078	-0.063805
H124	H	1.296688	0.499922	0.436195
H125	H	1.021436	-0.420859	0.266580
H126	H	1.521436	0.079141	0.766580
F127	F	0.698138	-0.000054	0.302733
F128	F	1.198138	0.499946	0.802733
F129	F	0.829027	-0.411139	0.063859
F130	F	1.329027	0.088861	0.563859
F131	F	0.344822	-0.000132	0.042901
F132	F	0.844822	0.499868	0.542901
F133	F	0.792509	-0.412900	0.198578
F134	F	1.292509	0.087100	0.698578
H135	H	0.806849	-0.579230	0.184516
H136	H	1.306849	-0.079230	0.684516
F137	F	1.107198	-0.000098	-0.446018
F138	F	1.607198	0.499902	0.053982
F139	F	0.528465	-0.000076	0.289090
F140	F	1.028465	0.499924	0.789090
F141	F	0.548660	-0.000117	-0.004555
F142	F	1.048660	0.499883	0.495445
F143	F	0.978912	-0.588909	0.025113
F144	F	1.478912	-0.088909	0.525113
H145	H	0.818517	-0.000084	-0.586443
H146	H	1.318517	0.499916	-0.086443
F147	F	1.036357	-0.588701	0.276951
F148	F	1.536357	-0.088701	0.776951
H149	H	1.054770	-0.000132	-0.081563
H150	H	1.554770	0.499868	0.418437
H151	H	0.914031	-0.578743	0.294618
H152	H	1.414031	-0.078743	0.794618
F153	F	0.324628	-0.000082	0.336551
F154	F	0.824628	0.499918	0.836551
F155	F	0.718344	-0.000101	0.009085
F156	F	1.218344	0.499899	0.509085
F157	F	0.906516	-0.411286	0.311192
F158	F	1.406516	0.088714	0.811192
F159	F	1.059736	-0.000118	-0.242181
F160	F	1.559736	0.499882	0.257819
H161	H	1.076596	-0.000112	-0.604202
H162	H	1.576596	0.499888	-0.104202
H163	H	0.830505	-0.000065	-0.437325
H164	H	1.330505	0.499935	0.062675
