data_functionalizedCrystal
_audit_creation_method	'MofGen! by Chris Wilmer'
_symmetry_space_group_name_H-M	'P1'
_symmetry_Int_Tables_number	1
_symmetry_cell_setting	triclinic
loop_
_symmetry_equiv_pos_as_xyz
  x,y,z
_cell_length_a	16.109318
_cell_length_b	17.699104
_cell_length_c	14.586319
_cell_angle_alpha	89.995275
_cell_angle_beta	90.000075
_cell_angle_gamma	83.380040
loop_
_atom_site_label
_atom_site_type_symbol
_atom_site_fract_x
_atom_site_fract_y
_atom_site_fract_z
O1	O	1.102962	0.097346	-0.076166
O2	O	1.436295	0.430679	0.257167
O3	O	1.769629	0.764013	0.590501
O4	O	0.860882	0.109439	-0.076185
O5	O	1.194216	0.442772	0.257149
O6	O	1.527549	0.776106	0.590482
O7	O	0.988753	-0.006785	-0.076167
O8	O	1.322086	0.326548	0.257167
O9	O	1.655419	0.659881	0.590500
O10	O	0.975092	0.213571	-0.076184
O11	O	1.308425	0.546904	0.257149
O12	O	1.641759	0.880237	0.590483
O13	O	0.988744	-0.006787	0.076314
O14	O	1.322077	0.326546	0.409647
O15	O	1.655410	0.659880	0.742981
O16	O	0.860873	0.109437	0.076296
O17	O	1.194207	0.442771	0.409629
O18	O	1.527540	0.776104	0.742963
O19	O	1.102953	0.097344	0.076315
O20	O	1.436287	0.430678	0.409648
O21	O	1.769620	0.764011	0.742981
Cu22	Cu	0.981913	0.103391	0.090228
Cu23	Cu	1.315246	0.436724	0.423561
Cu24	Cu	1.648579	0.770057	0.756895
Cu25	Cu	0.981923	0.103393	-0.090098
Cu26	Cu	1.315256	0.436726	0.243235
Cu27	Cu	1.648590	0.770059	0.576569
O28	O	0.975083	0.213569	0.076297
O29	O	1.308416	0.546902	0.409630
O30	O	1.641750	0.880236	0.742963
C31	C	0.829904	0.108946	0.000053
C32	C	1.163237	0.442279	0.333387
C33	C	1.496571	0.775613	0.666720
C34	C	0.737612	0.107471	0.000046
C35	C	1.070945	0.440804	0.333380
C36	C	1.404279	0.774137	0.666713
C37	C	0.438551	0.102706	-0.083054
C38	C	0.771884	0.436039	0.250279
C39	C	1.105217	0.769373	0.583612
C40	C	0.525270	0.104087	-0.083060
C41	C	0.858603	0.437421	0.250273
C42	C	1.191937	0.770754	0.583607
C43	C	0.525279	0.104075	0.083183
C44	C	0.858612	0.437408	0.416516
C45	C	1.191946	0.770742	0.749849
C46	C	0.438562	0.102688	0.083188
C47	C	0.771896	0.436022	0.416521
C48	C	1.105229	0.769355	0.749854
C49	C	0.395200	0.102008	0.000066
C50	C	0.728533	0.435341	0.333400
C51	C	1.061867	0.768674	0.666733
C52	C	0.568636	0.104776	0.000056
C53	C	0.901969	0.438109	0.333389
C54	C	1.235302	0.771442	0.666722
C55	C	0.662660	0.106274	0.000050
C56	C	0.995994	0.439607	0.333383
C57	C	1.329327	0.772940	0.666717
C58	C	0.301170	0.100508	0.000071
C59	C	0.634503	0.433842	0.333405
C60	C	0.967836	0.767175	0.666738
C61	C	0.988256	-0.034984	0.000074
C62	C	1.321589	0.298350	0.333407
C63	C	1.654922	0.631683	0.666741
C64	C	0.986778	-0.119003	0.000074
C65	C	1.320112	0.214330	0.333408
C66	C	1.653445	0.547664	0.666741
C67	C	1.053504	-0.643775	0.000053
C68	C	1.386837	-0.310442	0.333387
C69	C	1.720171	0.022892	0.666720
C70	C	1.054887	-0.564829	0.000062
C71	C	1.388221	-0.231496	0.333395
C72	C	1.721554	0.101837	0.666728
C73	C	0.979823	-0.516323	0.000058
C74	C	1.313156	-0.182990	0.333391
C75	C	1.646489	0.150344	0.666724
C76	C	0.903370	-0.546766	0.000055
C77	C	1.236703	-0.213433	0.333388
C78	C	1.570036	0.119900	0.666722
C79	C	0.901987	-0.625711	0.000053
C80	C	1.235321	-0.292377	0.333387
C81	C	1.568654	0.040956	0.666720
C82	C	0.908942	-0.228392	0.000063
C83	C	1.242276	0.104941	0.333397
C84	C	1.575609	0.438275	0.666730
C85	C	0.910331	-0.149443	0.000062
C86	C	1.243664	0.183891	0.333395
C87	C	1.576997	0.517224	0.666729
C88	C	1.061842	-0.167511	0.000071
C89	C	1.395175	0.165823	0.333405
C90	C	1.728509	0.499156	0.666738
C91	C	1.060460	-0.246455	0.000070
C92	C	1.393793	0.086878	0.333403
C93	C	1.727127	0.420212	0.666736
C94	C	0.984008	-0.276891	0.000072
C95	C	1.317341	0.056442	0.333405
C96	C	1.650674	0.389775	0.666738
C97	C	0.982509	-0.362493	0.000065
C98	C	1.315842	-0.029160	0.333398
C99	C	1.649176	0.304173	0.666731
C100	C	0.981320	-0.430722	0.000058
C101	C	1.314654	-0.097389	0.333392
C102	C	1.647987	0.235944	0.666725
C103	C	1.133932	0.097837	0.000075
C104	C	1.467265	0.431171	0.333408
C105	C	1.800598	0.764504	0.666741
C106	C	1.226224	0.099313	0.000076
C107	C	1.559557	0.432646	0.333409
C108	C	1.892890	0.765980	0.666742
C109	C	0.975580	0.241767	0.000054
C110	C	1.308913	0.575101	0.333387
C111	C	1.642247	0.908434	0.666721
C112	C	0.977057	0.325787	0.000048
C113	C	1.310391	0.659120	0.333381
C114	C	1.643724	0.992453	0.666714
N115	N	0.981911	0.103389	0.217060
N116	N	1.315245	0.436722	0.550393
N117	N	1.648578	0.770056	0.883727
N118	N	0.981931	0.103389	-0.216930
N119	N	1.315264	0.436722	0.116403
N120	N	1.648598	0.770055	0.449737
C121	C	1.038551	0.051942	0.452074
C122	C	1.371884	0.385275	0.785408
C123	C	1.705217	0.718609	1.118741
C124	C	1.038553	0.051940	0.548056
C125	C	1.371887	0.385273	0.881389
C126	C	1.705220	0.718607	1.214722
C127	C	0.925285	0.154838	0.548049
C128	C	1.258619	0.488171	0.881382
C129	C	1.591952	0.821505	1.214716
C130	C	0.925280	0.154836	0.452069
C131	C	1.258613	0.488169	0.785403
C132	C	1.591946	0.821502	1.118736
C133	C	0.981917	0.103388	0.404085
C134	C	1.315250	0.436722	0.737418
C135	C	1.648584	0.770055	1.070751
C136	C	0.981925	0.103389	0.596045
C137	C	1.315258	0.436722	0.929379
C138	C	1.648592	0.770056	1.262712
C139	C	0.981927	0.103387	0.700113
C140	C	1.315261	0.436721	1.033446
C141	C	1.648594	0.770054	1.366779
C142	C	0.981914	0.103389	0.300011
C143	C	1.315247	0.436722	0.633344
C144	C	1.648581	0.770056	0.966678
H145	H	1.117138	-0.540051	0.000067
H146	H	1.450471	-0.206717	0.333400
H147	H	1.783805	0.126616	0.666734
H148	H	0.403265	0.102119	0.150879
H149	H	0.736599	0.435452	0.484212
H150	H	1.069932	0.768786	0.817545
H151	H	0.403248	0.102151	-0.150737
H152	H	0.736581	0.435484	0.182596
H153	H	1.069915	0.768817	0.515929
O154	O	1.144303	-0.134678	0.000072
O155	O	1.477636	0.198655	0.333405
O156	O	1.810969	0.531988	0.666738
H157	H	1.196266	-0.181671	0.000060
H158	H	1.529599	0.151662	0.333393
H159	H	1.862932	0.484995	0.666727
H160	H	0.879157	0.196730	0.412994
H161	H	1.212491	0.530063	0.746327
H162	H	1.545824	0.863397	1.079660
O163	O	0.826484	-0.261210	0.000063
O164	O	1.159817	0.072123	0.333397
O165	O	1.493151	0.405456	0.666730
H166	H	0.822230	-0.296747	-0.062080
H167	H	1.155564	0.036586	0.271253
H168	H	1.488897	0.369919	0.604586
O169	O	0.572030	0.104845	-0.172711
O170	O	0.905363	0.438179	0.160623
O171	O	1.238696	0.771512	0.493956
H172	H	0.527305	0.104145	-0.230505
H173	H	0.860638	0.437478	0.102828
H174	H	1.193971	0.770811	0.436162
H175	H	0.560595	0.104631	0.150857
H176	H	0.893928	0.437964	0.484191
H177	H	1.227262	0.771298	0.817524
O178	O	0.829364	-0.097122	0.000064
O179	O	1.162697	0.236211	0.333397
O180	O	1.496030	0.569545	0.666731
H181	H	0.826381	-0.060723	0.062209
H182	H	1.159714	0.272610	0.395542
H183	H	1.493047	0.605943	0.728876
O184	O	0.864214	0.210338	0.599807
O185	O	1.197548	0.543671	0.933140
O186	O	1.530881	0.877004	1.266473
H187	H	0.799420	0.200676	0.581402
H188	H	1.132753	0.534009	0.914736
H189	H	1.466086	0.867343	1.248069
H190	H	1.114631	-0.683264	0.000049
H191	H	1.447964	-0.349931	0.333382
H192	H	1.781297	-0.016597	0.666715
O193	O	1.141421	-0.298774	0.000084
O194	O	1.474755	0.034559	0.333417
O195	O	1.808088	0.367892	0.666750
H196	H	1.194814	-0.264345	0.000100
H197	H	1.528147	0.068988	0.333434
H198	H	1.861480	0.402322	0.666767
O199	O	0.822403	-0.494454	0.000053
O200	O	1.155736	-0.161121	0.333387
O201	O	1.489070	0.172212	0.666720
H202	H	0.836206	-0.434445	0.000046
H203	H	1.169539	-0.101112	0.333380
H204	H	1.502872	0.232222	0.666713
H205	H	0.839737	-0.650492	0.000056
H206	H	1.173070	-0.317158	0.333390
H207	H	1.506403	0.016175	0.666723
O208	O	1.099646	-0.003548	0.599808
O209	O	1.432980	0.329786	0.933141
O210	O	1.766313	0.663119	1.266474
H211	H	1.064731	-0.040354	0.643536
H212	H	1.398064	0.292980	0.976869
H213	H	1.731397	0.626313	1.310203
H214	H	1.084667	0.010049	0.413007
H215	H	1.418001	0.343383	0.746341
H216	H	1.751334	0.676716	1.079674
