data_functionalizedCrystal
_audit_creation_method	'MofGen! by Chris Wilmer'
_symmetry_space_group_name_H-M	'P1'
_symmetry_Int_Tables_number	1
_symmetry_cell_setting	triclinic
loop_
_symmetry_equiv_pos_as_xyz
  x,y,z
_cell_length_a	13.262533
_cell_length_b	13.339070
_cell_length_c	9.798715
_cell_angle_alpha	90.012469
_cell_angle_beta	105.916527
_cell_angle_gamma	80.566541
loop_
_atom_site_label
_atom_site_type_symbol
_atom_site_fract_x
_atom_site_fract_y
_atom_site_fract_z
O1	O	1.432374	-0.136429	0.418165
O2	O	1.131115	-0.151263	0.306337
O3	O	1.247170	0.003563	0.349447
O4	O	1.316320	-0.291255	0.375054
O5	O	1.247166	0.003575	0.576428
O6	O	1.131112	-0.151251	0.533318
O7	O	1.432371	-0.136417	0.645145
Zn8	Zn	1.281740	-0.143832	0.625270
Zn9	Zn	1.281745	-0.143847	0.326213
O10	O	1.316316	-0.291243	0.602035
C11	C	1.091768	-0.150426	0.405223
C12	C	0.974527	-0.147936	0.361704
C13	C	1.235487	0.041308	0.458607
C14	C	1.200670	0.153756	0.445698
C15	C	0.644032	-0.140908	0.733945
C16	C	0.754186	-0.143252	0.774839
C17	C	0.809277	-0.144423	0.671559
C18	C	0.754202	-0.143251	0.527377
C19	C	0.644039	-0.140915	0.486479
C20	C	0.809283	-0.144429	0.424093
C21	C	0.754209	-0.143257	0.279911
C22	C	0.644056	-0.140920	0.239020
C23	C	0.588965	-0.139750	0.342300
C24	C	0.919447	-0.146765	0.464992
C25	C	0.919454	-0.146771	0.217526
C26	C	0.809300	-0.144428	0.176631
C27	C	1.471392	0.517409	0.546254
C28	C	1.504108	0.411759	0.558391
C29	C	1.428251	0.347253	0.530219
C30	C	1.319673	0.388408	0.489907
C31	C	1.286954	0.494069	0.477778
C32	C	1.243813	0.323912	0.461743
C33	C	1.135235	0.365067	0.421432
C34	C	1.102521	0.470718	0.409304
C35	C	1.178378	0.535224	0.437477
C36	C	1.276532	0.218252	0.473872
C37	C	1.092094	0.194911	0.405396
C38	C	1.059378	0.300561	0.393259
C39	C	1.471718	-0.137254	0.546257
C40	C	1.588959	-0.139743	0.589766
C41	C	1.327998	0.671013	0.492918
C42	C	1.362816	0.558564	0.505952
N43	N	1.281747	-0.143850	0.122114
C44	C	1.330581	-0.078698	0.072477
C45	C	1.330580	-0.078682	-0.084686
N46	N	1.281745	-0.143821	0.829371
H47	H	0.964279	-0.147722	0.582386
C48	C	0.984587	0.515207	0.365464
C49	C	0.925155	0.436107	0.343352
C50	C	0.816513	0.477049	0.302949
H51	H	0.967843	0.555928	0.438388
H52	H	0.967946	0.555904	0.280109
H53	H	0.941790	0.395427	0.428697
H54	H	0.941867	0.395379	0.270422
H55	H	0.799871	0.517746	0.217593
H56	H	0.799780	0.517770	0.375878
H57	H	0.776175	0.423387	0.287928
H58	H	0.599168	-0.139963	0.818020
C59	C	1.553692	0.587493	0.576545
C60	C	1.540317	0.648810	0.454800
C61	C	1.616126	0.713376	0.482650
H62	H	1.544825	0.629292	0.652324
H63	H	1.623064	0.547893	0.602219
H64	H	1.470961	0.688407	0.429144
H65	H	1.549193	0.607038	0.379005
H66	H	1.685499	0.673775	0.508324
H67	H	1.607254	0.755168	0.558432
H68	H	1.607068	0.754980	0.400048
H69	H	1.364937	0.184754	0.506694
C70	C	0.979231	-0.148249	0.105330
C71	C	0.966006	-0.234734	0.025766
C72	C	1.021076	-0.236140	-0.077579
H73	H	0.952059	-0.088945	0.044251
H74	H	1.052742	-0.149860	0.150285
H75	H	0.892509	-0.233114	-0.019187
H76	H	0.993183	-0.294051	0.086805
H77	H	1.094587	-0.237751	-0.032623
H78	H	0.993898	-0.176832	-0.138646
H79	H	1.012118	-0.294823	-0.131566
H80	H	1.454895	0.261228	0.540104
C81	C	1.386148	-0.004095	-0.141612
C82	C	1.340055	0.095504	-0.123960
C83	C	1.391204	0.164262	-0.176374
H84	H	1.459508	-0.015245	-0.091076
H85	H	1.378733	-0.013855	-0.239695
H86	H	1.347481	0.105260	-0.025894
H87	H	1.266700	0.106687	-0.174497
H88	H	1.383788	0.154502	-0.274457
H89	H	1.464562	0.153103	-0.125833
H90	H	1.359931	0.231848	-0.164416
H91	H	0.898970	-0.146331	0.704865
C92	C	0.584240	-0.139865	0.082514
C93	C	0.534564	-0.225574	0.056803
C94	C	0.479467	-0.224643	-0.087357
H95	H	0.532013	-0.080028	0.057862
H96	H	0.632800	-0.140950	0.026813
H97	H	0.486008	-0.224479	0.112485
H98	H	0.586767	-0.285424	0.081422
H99	H	0.528027	-0.225729	-0.143057
H100	H	0.427245	-0.164803	-0.111995
H101	H	0.445763	-0.282800	-0.104823
C102	C	1.009609	0.125008	0.374545
C103	C	0.946002	0.143676	0.234177
C104	C	0.870005	0.079305	0.205719
H105	H	1.044504	0.056156	0.387414
H106	H	0.966292	0.137546	0.437581
H107	H	0.989313	0.131130	0.171160
H108	H	0.911082	0.212515	0.221274
H109	H	0.826687	0.091843	0.268755
H110	H	0.904909	0.010457	0.218596
H111	H	0.826832	0.091969	0.110483
C112	C	1.622034	0.367275	0.602105
C113	C	1.681465	0.446375	0.624146
C114	C	1.790108	0.405435	0.664401
H115	H	1.638769	0.326567	0.687446
H116	H	1.638687	0.326564	0.529098
H117	H	1.664819	0.487069	0.697148
H118	H	1.664763	0.487089	0.538824
H119	H	1.806760	0.364724	0.591394
H120	H	1.806831	0.364728	0.749739
H121	H	1.830445	0.459098	0.679349
H122	H	0.499267	-0.137832	0.309010
C123	C	1.226180	-0.218267	0.023543
C124	C	1.300274	-0.280437	-0.031040
C125	C	1.249121	-0.348995	-0.121858
H126	H	1.195542	-0.259243	0.074908
H127	H	1.171866	-0.181619	-0.052425
H128	H	1.354570	-0.317082	0.044916
H129	H	1.330917	-0.239489	-0.082428
H130	H	1.194807	-0.312347	-0.197826
H131	H	1.218485	-0.389964	-0.070483
H132	H	1.299384	-0.391179	-0.158914
H133	H	0.799020	-0.144205	0.892232
H134	H	0.764443	-0.143474	0.059236
H135	H	1.151745	0.621254	0.427591
H136	H	0.970971	0.334085	0.360437
H137	H	1.372395	-0.022933	0.146332
H138	H	1.239929	-0.199600	-0.127886
