data_functionalizedCrystal
_audit_creation_method	'MofGen! by Chris Wilmer'
_symmetry_space_group_name_H-M	'P1'
_symmetry_Int_Tables_number	1
_symmetry_cell_setting	triclinic
loop_
_symmetry_equiv_pos_as_xyz
  x,y,z
_cell_length_a	10.489741
_cell_length_b	19.188930
_cell_length_c	9.565339
_cell_angle_alpha	89.995116
_cell_angle_beta	89.999100
_cell_angle_gamma	83.841978
loop_
_atom_site_label
_atom_site_type_symbol
_atom_site_fract_x
_atom_site_fract_y
_atom_site_fract_z
O1	O	1.691850	0.098497	-0.116191
O2	O	1.320448	0.107743	-0.116215
O3	O	1.516867	0.001537	-0.116175
O4	O	1.495431	0.204704	-0.116231
O5	O	1.516852	0.001543	0.116345
O6	O	1.320432	0.107750	0.116305
O7	O	1.691835	0.098504	0.116329
Zn8	Zn	1.506131	0.103128	0.153235
Zn9	Zn	1.506152	0.103119	-0.153121
O10	O	1.495416	0.204711	0.116289
C11	C	1.272924	0.107048	0.000043
C12	C	1.131341	0.104959	0.000035
C13	C	1.516165	-0.024476	0.000089
C14	C	1.514081	-0.101994	0.000101
C15	C	1.064712	0.037383	0.000067
C16	C	0.971879	0.069302	-0.114584
C17	C	0.971898	0.069325	0.114663
C18	C	1.040373	0.136906	-0.114710
C19	C	1.040401	0.136919	0.114640
C20	C	0.947595	0.168887	-0.000039
C21	C	1.629334	-0.146146	0.000115
C22	C	1.627376	-0.218983	0.000092
C23	C	1.510159	-0.247665	0.000084
C24	C	1.394892	-0.203503	0.000062
C25	C	1.396853	-0.130668	0.000071
N26	N	1.420556	-0.356268	0.079209
N27	N	1.418701	-0.425459	0.079204
C28	C	1.504244	-0.467113	0.000055
N29	N	1.591732	-0.436964	-0.079071
N30	N	1.593590	-0.367767	-0.079059
C31	C	1.508020	-0.326642	0.000074
C32	C	1.617382	-0.590244	0.000043
C33	C	1.615419	-0.663081	0.000012
C34	C	1.382932	-0.647600	-0.000004
C35	C	1.384898	-0.574764	0.000013
C36	C	1.502126	-0.546090	0.000043
C37	C	1.739359	0.099199	0.000068
C38	C	1.880941	0.101288	0.000067
C39	C	1.496118	0.230723	0.000022
C40	C	1.498202	0.308242	0.000001
N41	N	1.506127	0.103134	0.362314
N42	N	1.506166	0.103108	-0.362200
C43	C	1.415262	0.152234	0.453499
C44	C	1.530443	0.166361	0.546681
C45	C	1.390995	0.089012	0.546688
C46	C	1.621366	0.117292	0.453444
C47	C	1.481842	0.039916	0.453443
C48	C	1.597107	0.054016	0.546583
H49	H	1.115644	-0.018169	-0.000061
H50	H	0.941511	0.040706	-0.211499
H51	H	1.709275	-0.699030	0.000015
H52	H	1.674049	0.012480	0.587197
H53	H	0.941553	0.040722	0.211592
H54	H	1.287492	-0.670952	-0.000018
H55	H	1.551011	0.219812	0.587634
H56	H	1.070569	0.165474	-0.211748
O57	O	0.887281	0.235260	0.000060
C58	C	0.923757	0.271047	0.119873
H59	H	1.020034	0.245345	0.159445
H60	H	0.848166	0.268617	0.204861
C61	C	0.817410	0.379707	0.033886
C62	C	0.935664	0.348143	0.082482
H63	H	0.824749	0.427264	0.010826
H64	H	0.792830	0.355596	-0.046832
H65	H	0.754429	0.377675	0.104718
H66	H	0.998638	0.350168	0.011645
H67	H	0.960255	0.372256	0.163188
O68	O	1.323811	0.201905	0.404789
C69	C	1.349916	0.268459	0.452328
H70	H	1.456198	0.267023	0.478456
H71	H	1.290562	0.283113	0.549869
C72	C	1.184504	0.325070	0.305110
C73	C	1.315044	0.323308	0.337189
H74	H	1.162988	0.358905	0.234091
H75	H	1.166912	0.280231	0.273085
H76	H	1.135058	0.337280	0.386404
H77	H	1.364487	0.311090	0.255901
H78	H	1.332643	0.368146	0.369198
O79	O	1.272823	-0.531971	0.000079
C80	C	1.168941	-0.572902	0.000032
H81	H	1.201617	-0.627094	0.044046
H82	H	1.132997	-0.578259	-0.111523
C83	C	1.019748	-0.470611	0.037158
C84	C	1.059879	-0.537169	0.091228
H85	H	0.952471	-0.448568	0.093406
H86	H	1.089734	-0.443034	0.037185
H87	H	0.989803	-0.475084	-0.055803
H88	H	1.089838	-0.532693	0.184181
H89	H	0.989895	-0.564744	0.091219
O90	O	1.457041	-0.023803	0.404599
C91	C	1.335496	-0.038481	0.452053
H92	H	1.274671	0.012686	0.478251
H93	H	1.347356	-0.072751	0.549534
C94	C	1.343578	-0.140187	0.304643
C95	C	1.268868	-0.077341	0.336808
H96	H	1.302479	-0.164160	0.233558
H97	H	1.425467	-0.130300	0.272675
H98	H	1.353455	-0.168737	0.385886
H99	H	1.259005	-0.048789	0.255570
H100	H	1.186975	-0.087224	0.368760
H101	H	1.299453	-0.226861	0.000052
H102	H	1.718768	0.129289	0.412658
O103	O	1.274767	0.074729	0.595312
C104	C	1.192853	0.065398	0.481533
H105	H	1.252764	0.049968	0.384761
H106	H	1.129644	0.116428	0.460481
C107	C	1.034245	0.026068	0.635266
C108	C	1.107829	0.007110	0.516412
H109	H	0.981793	-0.009884	0.656781
H110	H	1.089429	0.032357	0.711922
H111	H	0.981582	0.068594	0.617707
H112	H	1.160501	-0.035409	0.533978
H113	H	1.052651	0.000813	0.439759
O114	O	1.743317	-0.118409	0.000073
C115	C	1.844623	-0.173004	0.000118
H116	H	1.809151	-0.222651	-0.043913
H117	H	1.880141	-0.183137	0.111674
C118	C	1.998790	-0.090909	-0.036970
C119	C	1.955225	-0.151885	-0.091061
H120	H	2.067018	-0.077881	-0.093208
H121	H	1.930540	-0.054126	-0.036995
H122	H	2.028379	-0.099361	0.055992
H123	H	1.925622	-0.143429	-0.184015
H124	H	2.023473	-0.188665	-0.091054
O125	O	1.739302	-0.261912	-0.000132
C126	C	1.745128	-0.304515	-0.120537
H127	H	1.679778	-0.278168	-0.204723
H128	H	1.712397	-0.357635	-0.093318
C129	C	1.964246	-0.347245	-0.071708
C130	C	1.883990	-0.314883	-0.175112
H131	H	2.049903	-0.353644	-0.105371
H132	H	1.960320	-0.318546	0.009414
H133	H	1.936955	-0.391508	-0.049036
H134	H	1.911272	-0.270617	-0.197770
H135	H	1.887923	-0.343576	-0.256239
H136	H	1.070802	0.165492	0.211559
H137	H	1.302998	-0.094719	0.000060
H138	H	1.712836	-0.566896	0.000061
