data_functionalizedCrystal
_audit_creation_method	'MofGen! by Chris Wilmer'
_symmetry_space_group_name_H-M	'P1'
_symmetry_Int_Tables_number	1
_symmetry_cell_setting	triclinic
loop_
_symmetry_equiv_pos_as_xyz
  x,y,z
_cell_length_a	15.944551
_cell_length_b	14.853567
_cell_length_c	15.021413
_cell_angle_alpha	89.992183
_cell_angle_beta	90.002826
_cell_angle_gamma	83.566834
loop_
_atom_site_label
_atom_site_type_symbol
_atom_site_fract_x
_atom_site_fract_y
_atom_site_fract_z
O1	O	-1.114658	-0.116261	-0.073932
O2	O	-0.781325	0.217072	0.259402
O3	O	-0.447992	0.550405	0.592735
O4	O	-0.870125	-0.130597	-0.073953
O5	O	-0.536791	0.202737	0.259381
O6	O	-0.203458	0.536070	0.592714
O7	O	-0.998923	0.007809	-0.073944
O8	O	-0.665590	0.341143	0.259389
O9	O	-0.332257	0.674476	0.592722
O10	O	-0.985860	-0.254667	-0.073940
O11	O	-0.652526	0.078666	0.259393
O12	O	-0.319193	0.412000	0.592727
O13	O	-0.998903	0.007789	0.074120
O14	O	-0.665570	0.341123	0.407453
O15	O	-0.332236	0.674456	0.740787
O16	O	-0.870104	-0.130616	0.074111
O17	O	-0.536771	0.202717	0.407445
O18	O	-0.203438	0.536050	0.740778
O19	O	-1.114638	-0.116281	0.074133
O20	O	-0.781305	0.217052	0.407466
O21	O	-0.447971	0.550386	0.740799
Zn22	Zn	-0.992368	-0.123452	0.097630
Zn23	Zn	-0.659034	0.209881	0.430964
Zn24	Zn	-0.325701	0.543215	0.764297
Zn25	Zn	-0.992395	-0.123426	-0.097451
Zn26	Zn	-0.659061	0.209908	0.235883
Zn27	Zn	-0.325728	0.543241	0.569216
O28	O	-0.985839	-0.254687	0.074124
O29	O	-0.652506	0.078646	0.407457
O30	O	-0.319173	0.411980	0.740791
C31	C	-0.998321	0.041387	0.000085
C32	C	-0.664988	0.374721	0.333418
C33	C	-0.331655	0.708054	0.666752
C34	C	-0.996547	0.141469	0.000077
C35	C	-0.663214	0.474802	0.333411
C36	C	-0.329881	0.808135	0.666744
C37	C	-0.838820	-0.130011	0.000076
C38	C	-0.505487	0.203322	0.333410
C39	C	-0.172153	0.536655	0.666743
C40	C	-0.745572	-0.128227	0.000068
C41	C	-0.412239	0.205106	0.333401
C42	C	-0.078905	0.538439	0.666735
C43	C	-1.145943	-0.116866	0.000101
C44	C	-0.812609	0.216467	0.333435
C45	C	-0.479276	0.549800	0.666768
C46	C	-1.239191	-0.118650	0.000104
C47	C	-0.905857	0.214683	0.333437
C48	C	-0.572524	0.548016	0.666771
C49	C	-0.530615	-0.038172	0.000084
C50	C	-0.197281	0.295161	0.333417
C51	C	0.136052	0.628494	0.666750
C52	C	-0.469651	-0.079981	-0.072919
C53	C	-0.136318	0.253352	0.260414
C54	C	0.197015	0.586686	0.593748
C55	C	-0.574842	-0.124999	0.000078
C56	C	-0.241509	0.208334	0.333412
C57	C	0.091824	0.541667	0.666745
C58	C	-0.469653	-0.080021	0.073061
C59	C	-0.136320	0.253312	0.406394
C60	C	0.197013	0.586646	0.739727
C61	C	-0.409926	-0.121875	0.000092
C62	C	-0.076593	0.211458	0.333426
C63	C	0.256740	0.544791	0.666759
C64	C	-0.515107	-0.166832	-0.072985
C65	C	-0.181774	0.166501	0.260349
C66	C	0.151559	0.499835	0.593682
C67	C	-0.515116	-0.166860	0.073061
C68	C	-0.181782	0.166473	0.406394
C69	C	0.151551	0.499807	0.739727
C70	C	-0.454170	-0.208732	0.000040
C71	C	-0.120837	0.124601	0.333373
C72	C	0.212497	0.457935	0.666707
C73	C	-0.669847	-0.126797	0.000070
C74	C	-0.336513	0.206537	0.333403
C75	C	-0.003180	0.539870	0.666736
C76	C	-0.314923	-0.120085	0.000095
C77	C	0.018410	0.213249	0.333428
C78	C	0.351744	0.546582	0.666762
C79	C	-0.986441	-0.288265	0.000093
C80	C	-0.653108	0.045068	0.333426
C81	C	-0.319775	0.378402	0.666759
C82	C	-0.988215	-0.388346	0.000095
C83	C	-0.654882	-0.055013	0.333428
C84	C	-0.321549	0.278320	0.666761
N85	N	-0.992355	-0.123469	0.230768
N86	N	-0.659022	0.209864	0.564101
N87	N	-0.325689	0.543198	0.897435
C88	C	-0.912540	0.553895	0.000087
C89	C	-0.579207	0.887228	0.333420
C90	C	-0.245873	1.220561	0.666754
C91	C	-1.065556	0.575372	0.000100
C92	C	-0.732223	0.908705	0.333433
C93	C	-0.398889	1.242039	0.666767
C94	C	-1.067224	0.481341	0.000095
C95	C	-0.733890	0.814674	0.333428
C96	C	-0.400557	1.148007	0.666762
C97	C	-0.991549	0.423582	0.000087
C98	C	-0.658215	0.756915	0.333421
C99	C	-0.324882	1.090248	0.666754
C100	C	-0.914206	0.459854	0.000084
C101	C	-0.580872	0.793187	0.333418
C102	C	-0.247539	1.126521	0.666751
C103	C	-1.144565	0.445061	0.000107
C104	C	-0.811232	0.778394	0.333440
C105	C	-0.477899	1.111727	0.666773
C106	C	-1.146236	0.351024	0.000103
C107	C	-0.812903	0.684357	0.333436
C108	C	-0.479570	1.017690	0.666769
C109	C	-1.070560	0.293263	0.000088
C110	C	-0.737227	0.626596	0.333422
C111	C	-0.403894	0.959930	0.666755
C112	C	-0.993214	0.329541	0.000085
C113	C	-0.659881	0.662874	0.333418
C114	C	-0.326547	0.996208	0.666751
C115	C	-0.917539	0.271782	0.000077
C116	C	-0.584206	0.605115	0.333410
C117	C	-0.250872	0.938449	0.666744
C118	C	-0.840192	0.308058	0.000067
C119	C	-0.506859	0.641391	0.333400
C120	C	-0.173525	0.974725	0.666734
C121	C	-0.838530	0.402093	0.000070
C122	C	-0.505196	0.735427	0.333404
C123	C	-0.171863	1.068760	0.666737
C124	C	-1.072223	0.199228	0.000085
C125	C	-0.738889	0.532561	0.333418
C126	C	-0.405556	0.865894	0.666752
C127	C	-0.919205	0.177741	0.000075
C128	C	-0.585871	0.511075	0.333408
C129	C	-0.252538	0.844408	0.666741
N130	N	-0.992414	-0.123401	-0.230588
N131	N	-0.659080	0.209932	0.102745
N132	N	-0.325747	0.543265	0.436078
C133	C	-0.932790	-0.187438	0.470447
C134	C	-0.599456	0.145896	0.803781
C135	C	-0.266123	0.479229	1.137114
C136	C	-1.008710	-0.204940	0.529789
C137	C	-0.675376	0.128393	0.863122
C138	C	-0.342043	0.461726	1.196456
C139	C	-0.992377	-0.123447	0.412375
C140	C	-0.659044	0.209887	0.745708
C141	C	-0.325710	0.543220	1.079042
C142	C	-0.916478	-0.105964	0.529775
C143	C	-0.583144	0.227369	0.863108
C144	C	-0.249811	0.560702	1.196442
C145	C	-0.992391	-0.123427	0.587799
C146	C	-0.659058	0.209907	0.921132
C147	C	-0.325724	0.543240	1.254466
C148	C	-1.068335	-0.140989	0.470410
C149	C	-0.735002	0.192344	0.803743
C150	C	-0.401669	0.525677	1.137077
C151	C	-0.976053	-0.041978	0.470391
C152	C	-0.642720	0.291355	0.803724
C153	C	-0.309387	0.624689	1.137058
C154	C	-1.052028	-0.059446	0.529706
C155	C	-0.718695	0.273887	0.863039
C156	C	-0.385361	0.607221	1.196372
C157	C	-0.992368	-0.123460	0.311318
C158	C	-0.659034	0.209873	0.644651
C159	C	-0.325701	0.543206	0.977984
C160	C	-0.992409	-0.123412	0.688854
C161	C	-0.659075	0.209921	1.022188
C162	C	-0.325742	0.543254	1.355521
H163	H	-0.563867	0.033887	-0.000008
H164	H	-0.230534	0.367221	0.333326
H165	H	0.102799	0.700554	0.666659
H166	H	-1.132542	-0.155850	0.444443
H167	H	-0.799208	0.177483	0.777776
H168	H	-0.465875	0.510817	1.111110
Cl169	Cl	-1.129918	0.024121	0.569633
Cl170	Cl	-0.796585	0.357454	0.902966
Cl171	Cl	-0.463252	0.690787	1.236300
Cl172	Cl	-0.824064	0.105137	0.000058
Cl173	Cl	-0.490731	0.438470	0.333391
Cl174	Cl	-0.157397	0.771803	0.666724
Cl175	Cl	-0.438554	-0.023272	-0.168212
Cl176	Cl	-0.105220	0.310061	0.165122
Cl177	Cl	0.228113	0.643394	0.498455
H178	H	-0.962210	0.026887	0.444280
H179	H	-0.628877	0.360221	0.777614
H180	H	-0.295543	0.693554	1.110947
Cl181	Cl	-0.817371	-0.083146	0.570038
Cl182	Cl	-0.484038	0.250188	0.903371
Cl183	Cl	-0.150704	0.583521	1.236705
H184	H	-0.449518	-0.043289	0.134777
H185	H	-0.116184	0.290044	0.468110
H186	H	0.217149	0.623378	0.801443
H187	H	-0.421092	-0.280866	0.000000
H188	H	-0.087758	0.052468	0.333334
H189	H	0.245575	0.385801	0.666667
Cl190	Cl	-0.745062	0.235436	0.000065
Cl191	Cl	-0.411728	0.568770	0.333398
Cl192	Cl	-0.078395	0.902103	0.666731
Cl193	Cl	-1.239693	0.517674	0.000136
Cl194	Cl	-0.906359	0.851008	0.333469
Cl195	Cl	-0.573026	1.184341	0.666802
Cl196	Cl	-0.741303	0.447704	0.000055
Cl197	Cl	-0.407969	0.781037	0.333389
Cl198	Cl	-0.074636	1.114370	0.666722
Cl199	Cl	-0.546251	-0.223526	0.168357
Cl200	Cl	-0.212918	0.109808	0.501690
Cl201	Cl	0.120415	0.443141	0.835023
Cl202	Cl	-0.546038	-0.223476	-0.168378
Cl203	Cl	-0.212704	0.109858	0.164955
Cl204	Cl	0.120629	0.443191	0.498288
Cl205	Cl	-1.030047	-0.311295	0.570072
Cl206	Cl	-0.696714	0.022038	0.903405
Cl207	Cl	-0.363381	0.355372	1.236738
Cl208	Cl	-1.160685	0.647983	0.000125
Cl209	Cl	-0.827351	0.981317	0.333458
Cl210	Cl	-0.494018	1.314650	0.666791
Cl211	Cl	-0.815309	0.599496	0.000066
Cl212	Cl	-0.481976	0.932830	0.333399
Cl213	Cl	-0.148642	1.266163	0.666732
H214	H	-1.209217	0.321496	0.000110
H215	H	-0.875883	0.654830	0.333443
H216	H	-0.542550	0.988163	0.666776
Cl217	Cl	-0.855070	-0.271051	0.430269
Cl218	Cl	-0.521737	0.062282	0.763602
Cl219	Cl	-0.188403	0.395616	1.096936
Cl220	Cl	-1.169450	0.153626	0.000114
Cl221	Cl	-0.836117	0.486960	0.333448
Cl222	Cl	-0.502784	0.820293	0.666781
