data_functionalizedCrystal
_audit_creation_method	'MofGen! by Chris Wilmer'
_symmetry_space_group_name_H-M	'P1'
_symmetry_Int_Tables_number	1
_symmetry_cell_setting	triclinic
loop_
_symmetry_equiv_pos_as_xyz
  x,y,z
_cell_length_a	12.759395
_cell_length_b	16.959453
_cell_length_c	12.759387
_cell_angle_alpha	89.965592
_cell_angle_beta	89.978972
_cell_angle_gamma	90.020749
loop_
_atom_site_label
_atom_site_type_symbol
_atom_site_fract_x
_atom_site_fract_y
_atom_site_fract_z
Zn1	Zn	1.606230	-0.314624	-0.593993
Zn2	Zn	1.606104	-0.446824	-0.418303
Zn3	Zn	1.430528	-0.314665	-0.418329
Zn4	Zn	1.430504	-0.446766	-0.593940
O5	O	1.518342	-0.380720	-0.506141
O6	O	1.753235	-0.332167	-0.570699
O7	O	1.582771	-0.429334	-0.271285
O8	O	1.453898	-0.204049	-0.441664
O9	O	1.753142	-0.429294	-0.441620
O10	O	1.582985	-0.204018	-0.570724
O11	O	1.453776	-0.332238	-0.271304
O12	O	1.283504	-0.332182	-0.441612
O13	O	1.453857	-0.429195	-0.740968
O14	O	1.283486	-0.429236	-0.570634
O15	O	1.582962	-0.332111	-0.741007
O16	O	1.582748	-0.557427	-0.441568
O17	O	1.453736	-0.557385	-0.570608
C18	C	1.245374	-0.380707	-0.506121
C19	C	1.128598	-0.380721	-0.506137
C20	C	0.909259	-0.279764	-0.640799
C21	C	0.964173	-0.229268	-0.708100
C22	C	1.073895	-0.229254	-0.708082
C23	C	1.128705	-0.279744	-0.640757
C24	C	1.073790	-0.330239	-0.573456
C25	C	0.964066	-0.330246	-0.573479
C26	C	1.073683	-0.431217	-0.438836
C27	C	0.963962	-0.431227	-0.438847
C28	C	1.128493	-0.481706	-0.371511
C29	C	1.073579	-0.532198	-0.304203
C30	C	0.963851	-0.532209	-0.304223
C31	C	0.909047	-0.481723	-0.371546
C32	C	1.518254	-0.586086	-0.506103
C33	C	1.518313	-0.673943	-0.506121
C34	C	1.585644	-1.045344	-0.573470
C35	C	1.451333	-1.045492	-0.438969
C36	C	1.451294	-0.962947	-0.438945
C37	C	1.518430	-0.921595	-0.506185
C38	C	1.585605	-0.962790	-0.573450
C39	C	1.384114	-0.921746	-0.371689
C40	C	1.384071	-0.839195	-0.371663
C41	C	1.451213	-0.797842	-0.438899
C42	C	1.518391	-0.839042	-0.506165
C43	C	1.585526	-0.797691	-0.573406
C44	C	1.652711	-0.838889	-0.640668
C45	C	1.652746	-0.921438	-0.640686
C46	C	1.451177	-0.715294	-0.438881
C47	C	1.585487	-0.715137	-0.573386
C48	C	1.792375	-0.380733	-0.506162
C49	C	1.909152	-0.380738	-0.506171
C50	C	1.518421	-0.380642	-0.780175
C51	C	1.518455	-0.380609	-0.896952
C52	C	1.518458	-0.174551	-0.506203
C53	C	1.518508	-0.086695	-0.506229
C54	C	1.652901	-0.279522	-0.897012
C55	C	1.720139	-0.228967	-0.951903
C56	C	1.720164	-0.228938	-1.061625
C57	C	1.652943	-0.279468	-1.116458
C58	C	1.585705	-0.330024	-1.061567
C59	C	1.585689	-0.330049	-0.951843
C60	C	1.451255	-0.431106	-1.061506
C61	C	1.451233	-0.431140	-0.951785
C62	C	1.384034	-0.481636	-1.116340
C63	C	1.316800	-0.532197	-1.061449
C64	C	1.316778	-0.532224	-0.951720
C65	C	1.383996	-0.481695	-0.896894
C66	C	1.518323	-0.380740	-0.233174
C67	C	1.518493	-0.380550	-0.116397
H68	H	0.819918	-0.279752	-0.640798
H69	H	1.774867	-0.187824	-0.907246
H70	H	1.774908	-0.187766	-1.106317
O71	O	0.911093	-0.180200	-0.773596
C72	C	0.922781	-0.080008	-0.907081
C73	C	0.983018	-0.135547	-0.832976
H74	H	0.980906	-0.043880	-0.955093
H75	H	0.871461	-0.116316	-0.962010
H76	H	0.871368	-0.038673	-0.858939
H77	H	1.034488	-0.176893	-0.881033
H78	H	1.034272	-0.099190	-0.778045
H79	H	1.652961	-0.279433	-1.205799
O80	O	1.384062	-0.481755	-1.222922
C81	C	1.411094	-0.557492	-1.380351
C82	C	1.411076	-0.557467	-1.259647
H83	H	1.432954	-0.618694	-1.410079
H84	H	1.329749	-0.541123	-1.410194
H85	H	1.470669	-0.512650	-1.410140
H86	H	1.351553	-0.602310	-1.229768
H87	H	1.492458	-0.573801	-1.229875
H88	H	1.118606	-0.188138	-0.762886
O89	O	1.717808	-0.798751	-0.706137
C90	C	1.768734	-0.773385	-0.884886
C91	C	1.694936	-0.818880	-0.810864
H92	H	1.750283	-0.789655	-0.969572
H93	H	1.757149	-0.707301	-0.873407
H94	H	1.853466	-0.789559	-0.866463
H95	H	1.610177	-0.802772	-0.829241
H96	H	1.706613	-0.884954	-0.822357
H97	H	1.640346	-1.078891	-0.628230
O98	O	1.251559	-0.581386	-1.114596
C99	C	1.200520	-0.715826	-1.148178
C100	C	1.274453	-0.660206	-1.087901
H101	H	1.219018	-0.779564	-1.126634
H102	H	1.115792	-0.702009	-1.126571
H103	H	1.212064	-0.707075	-1.236022
H104	H	1.263002	-0.668926	-1.000044
H105	H	1.359154	-0.674036	-1.109595
O106	O	1.251611	-0.581374	-0.898282
C107	C	1.237388	-0.688155	-0.774414
C108	C	1.311305	-0.632530	-0.834845
H109	H	1.285621	-0.729540	-0.723127
H110	H	1.182487	-0.651916	-0.722973
H111	H	1.189326	-0.724227	-0.832470
H112	H	1.359435	-0.596446	-0.776865
H113	H	1.366136	-0.668814	-0.886302
H114	H	1.218046	-0.279735	-0.640758
O115	O	1.717898	-0.961580	-0.705991
C116	C	1.777512	-1.088687	-0.765591
C117	C	1.703663	-1.043322	-0.691596
H118	H	1.766044	-1.154783	-0.753963
H119	H	1.759007	-1.072474	-0.850309
H120	H	1.862222	-1.072380	-0.747228
H121	H	1.618929	-1.059605	-0.709864
H122	H	1.722258	-1.059539	-0.606900
O123	O	0.910673	-0.581288	-0.238748
C124	C	0.922160	-0.681486	-0.105269
C125	C	0.982509	-0.625930	-0.179349
H126	H	0.980214	-0.717604	-0.057241
H127	H	0.870803	-0.645193	-0.050354
H128	H	0.870775	-0.722830	-0.153433
H129	H	1.033951	-0.584575	-0.131270
H130	H	1.033800	-0.662272	-0.234267
H131	H	1.217834	-0.481696	-0.371507
H132	H	1.118214	-0.573307	-0.249398
O133	O	1.385811	-0.675237	-0.373705
C134	C	1.243976	-0.582079	-0.359434
C135	C	1.317924	-0.627408	-0.433369
H136	H	1.189085	-0.543387	-0.407642
H137	H	1.195915	-0.625776	-0.311400
H138	H	1.292241	-0.543475	-0.304507
H139	H	1.269739	-0.666014	-0.488359
H140	H	1.365988	-0.583669	-0.481329
O141	O	1.650737	-0.675094	-0.638806
C142	C	1.784005	-0.683659	-0.772171
C143	C	1.710150	-0.729105	-0.698154
H144	H	1.832076	-0.727307	-0.820157
H145	H	1.735771	-0.645031	-0.827128
H146	H	1.838900	-0.644984	-0.723961
H147	H	1.655240	-0.767822	-0.746279
H148	H	1.758449	-0.767683	-0.643194
H149	H	1.383989	-0.481716	-0.807553
H150	H	0.819706	-0.481717	-0.371556
O151	O	1.386222	-1.085780	-0.373688
C152	C	1.326717	-1.213020	-0.314155
C153	C	1.400526	-1.167490	-0.388128
H154	H	1.338240	-1.279090	-0.325819
H155	H	1.345212	-1.196891	-0.229428
H156	H	1.241993	-1.196777	-0.332506
H157	H	1.485274	-1.183708	-0.369871
H158	H	1.381941	-1.183623	-0.472832
H159	H	1.329453	-0.955420	-0.316948
H160	H	1.329368	-0.805656	-0.316894
H161	H	1.652897	-0.279548	-0.807671
