data_functionalizedCrystal
_audit_creation_method	'MofGen! by Chris Wilmer'
_symmetry_space_group_name_H-M	'P1'
_symmetry_Int_Tables_number	1
_symmetry_cell_setting	triclinic
loop_
_symmetry_equiv_pos_as_xyz
  x,y,z
_cell_length_a	16.120297
_cell_length_b	15.297475
_cell_length_c	15.300062
_cell_angle_alpha	107.346699
_cell_angle_beta	102.999967
_cell_angle_gamma	96.324991
loop_
_atom_site_label
_atom_site_type_symbol
_atom_site_fract_x
_atom_site_fract_y
_atom_site_fract_z
Zn1	Zn	-0.807329	-1.448125	-0.654294
Zn2	Zn	-0.307329	-0.948125	-0.154294
Zn3	Zn	-0.697084	-1.480072	-0.804603
Zn4	Zn	-0.197084	-0.980072	-0.304603
Zn5	Zn	-0.638790	-1.300484	-0.619490
Zn6	Zn	-0.138790	-0.800484	-0.119490
Zn7	Zn	-0.807312	-1.319450	-0.782769
Zn8	Zn	-0.307312	-0.819450	-0.282769
O9	O	-0.737629	-1.387033	-0.715289
O10	O	-0.237629	-0.887033	-0.215289
O11	O	-0.817108	-1.581372	-0.697935
O12	O	-0.317108	-1.081372	-0.197935
O13	O	-0.572687	-1.461682	-0.774619
O14	O	-0.072687	-0.961682	-0.274619
O15	O	-0.636758	-1.298763	-0.492868
O16	O	-0.136758	-0.798763	0.007132
O17	O	-0.736112	-1.604843	-0.808367
O18	O	-0.236112	-1.104843	-0.308367
O19	O	-0.760583	-1.407233	-0.518439
O20	O	-0.260583	-0.907233	-0.018439
O21	O	-0.529859	-1.329740	-0.638617
O22	O	-0.029859	-0.829740	-0.138617
O23	O	-0.636741	-1.173991	-0.617446
O24	O	-0.136741	-0.673991	-0.117446
O25	O	-0.923979	-1.331086	-0.771155
O26	O	-0.423979	-0.831086	-0.271155
O27	O	-0.760553	-1.187925	-0.737407
O28	O	-0.260553	-0.687925	-0.237407
O29	O	-0.923991	-1.425623	-0.676764
O30	O	-0.423991	-0.925623	-0.176764
O31	O	-0.736095	-1.480072	-0.932944
O32	O	-0.236095	-0.980072	-0.432944
O33	O	-0.817079	-1.362063	-0.916904
O34	O	-0.317079	-0.862063	-0.416904
C35	C	-0.692320	-1.147508	-0.671281
C36	C	-0.192320	-0.647508	-0.171281
C37	C	-0.672961	-1.045040	-0.652478
C38	C	-0.172961	-0.545040	-0.152478
C39	C	-0.955081	-1.376906	-0.725406
C40	C	-0.455081	-0.876906	-0.225406
C41	C	-1.047746	-1.372591	-0.729718
C42	C	-0.547746	-0.872591	-0.229718
C43	C	-0.782933	-1.426616	-0.958958
C44	C	-0.282933	-0.926616	-0.458958
C45	C	-0.802359	-1.443633	-1.063217
C46	C	-0.302359	-0.943633	-0.563217
C47	C	-1.217395	-1.364675	-0.737563
C48	C	-0.717395	-0.864675	-0.237563
C49	C	-1.258696	-1.409526	-0.692767
C50	C	-0.758696	-0.909526	-0.192767
C51	C	-1.353095	-1.405122	-0.697132
C52	C	-0.853095	-0.905122	-0.197132
C53	C	-1.122988	-1.369079	-0.733199
C54	C	-0.622988	-0.869079	-0.233199
C55	C	-0.521020	-1.397162	-0.705153
C56	C	-0.021020	-0.897162	-0.205153
C57	C	-0.428341	-1.401613	-0.700610
C58	C	0.071659	-0.901613	-0.200610
C59	C	-0.783115	-1.627493	-0.759469
C60	C	-0.283115	-1.127493	-0.259469
C61	C	-0.802498	-1.729963	-0.778296
C62	C	-0.302498	-1.229963	-0.278296
C63	C	-0.875995	-0.785400	-0.849684
C64	C	-0.375995	-0.285400	-0.349684
C65	C	-0.894183	-0.881674	-0.867357
C66	C	-0.394183	-0.381674	-0.367357
C67	C	-0.838879	-0.922520	-0.813639
C68	C	-0.338879	-0.422520	-0.313639
C69	C	-0.765384	-0.867083	-0.742245
C70	C	-0.265384	-0.367083	-0.242245
C71	C	-0.747191	-0.770800	-0.724575
C72	C	-0.247191	-0.270800	-0.224575
C73	C	-0.710075	-0.907921	-0.688529
C74	C	-0.210075	-0.407921	-0.188529
C75	C	-0.636580	-0.852484	-0.617135
C76	C	-0.136580	-0.352484	-0.117135
C77	C	-0.618391	-0.756210	-0.599468
C78	C	-0.118391	-0.256210	-0.099468
C79	C	-0.673694	-0.715364	-0.653186
C80	C	-0.173694	-0.215364	-0.153186
C81	C	-0.728269	-1.004203	-0.706199
C82	C	-0.228269	-0.504203	-0.206199
C83	C	-0.599464	-0.989604	-0.581090
C84	C	-0.099464	-0.489604	-0.081090
C85	C	-0.581277	-0.893330	-0.563417
C86	C	-0.081277	-0.393330	-0.063417
C87	C	-0.875974	-1.508048	-1.125417
C88	C	-0.375974	-1.008048	-0.625417
C89	C	-0.894234	-1.524044	-1.223376
C90	C	-0.394234	-1.024044	-0.723376
C91	C	-0.838877	-1.475634	-1.259146
C92	C	-0.338877	-0.975634	-0.759146
C93	C	-0.765256	-1.411223	-1.196946
C94	C	-0.265256	-0.911223	-0.696946
C95	C	-0.746998	-1.395219	-1.098977
C96	C	-0.246998	-0.895219	-0.598977
C97	C	-0.709901	-1.362806	-1.232705
C98	C	-0.209901	-0.862806	-0.732705
C99	C	-0.636281	-1.298395	-1.170505
C100	C	-0.136281	-0.798395	-0.670505
C101	C	-0.618026	-1.282394	-1.072546
C102	C	-0.118026	-0.782394	-0.572546
C103	C	-0.673383	-1.330805	-1.036777
C104	C	-0.173383	-0.830805	-0.536777
C105	C	-0.728159	-1.378809	-1.330674
C106	C	-0.228159	-0.878809	-0.830674
C107	C	-0.599183	-1.265981	-1.304233
C108	C	-0.099183	-0.765981	-0.804233
C109	C	-0.580923	-1.249984	-1.206274
C110	C	-0.080923	-0.749984	-0.706274
C111	C	-0.692170	-1.347319	-0.470674
C112	C	-0.192170	-0.847319	0.029326
C113	C	-0.672799	-1.330395	-0.366433
C114	C	-0.172799	-0.830395	0.133567
H115	H	-1.223159	-1.451230	-0.651138
H116	H	-0.723159	-0.951230	-0.151138
H117	H	-1.252931	-1.322974	-0.779189
H118	H	-0.752931	-0.822974	-0.279189
H119	H	-0.554431	-1.022861	-0.537349
H120	H	-0.054431	-0.522861	-0.037349
C121	C	-0.936859	-1.561290	-1.086063
C122	C	-0.436859	-1.061290	-0.586063
N123	N	-0.982721	-1.601396	-1.056421
N124	N	-0.482721	-1.101396	-0.556421
H125	H	-0.788109	-1.049331	-0.764329
H126	H	-0.288109	-0.549331	-0.264329
H127	H	-0.521436	-0.848179	-0.505287
H128	H	-0.021436	-0.348179	-0.005287
C129	C	-0.858878	-1.028428	-0.833098
C130	C	-0.358878	-0.528428	-0.333098
N131	N	-0.873941	-1.108203	-0.847761
N132	N	-0.373941	-0.608203	-0.347761
C133	C	-0.809135	-1.449667	-1.399083
C134	C	-0.309135	-0.949667	-0.899083
N135	N	-0.870129	-1.503044	-1.450610
N136	N	-0.370129	-1.003044	-0.950610
C137	C	-0.975206	-1.594906	-1.291790
C138	C	-0.475206	-1.094906	-0.791790
N139	N	-1.036194	-1.648288	-1.343322
N140	N	-0.536194	-1.148288	-0.843322
C141	C	-0.653701	-0.609453	-0.633736
C142	C	-0.153701	-0.109453	-0.133736
N143	N	-0.638648	-0.529680	-0.619083
N144	N	-0.138648	-0.029680	-0.119083
H145	H	-0.853749	-1.488661	-1.338909
H146	H	-0.353749	-0.988661	-0.838909
H147	H	-0.954021	-0.926805	-0.925489
H148	H	-0.454021	-0.426805	-0.425489
H149	H	-0.921011	-0.752134	-0.893419
H150	H	-0.421011	-0.252134	-0.393419
H151	H	-0.558539	-0.711077	-0.541343
H152	H	-0.058539	-0.211077	-0.041343
H153	H	-0.658518	-1.317786	-0.957012
H154	H	-0.158518	-0.817786	-0.457012
H155	H	-0.558085	-1.229940	-1.021901
H156	H	-0.058085	-0.729940	-0.521901
C157	C	-0.499947	-1.179128	-1.137842
C158	C	0.000053	-0.679128	-0.637842
N159	N	-0.438956	-1.125757	-1.086298
N160	N	0.061044	-0.625757	-0.586298
H161	H	-0.554109	-1.226557	-1.333355
H162	H	-0.054109	-0.726557	-0.833355
