data_functionalizedCrystal
_audit_creation_method	'MofGen! by Chris Wilmer'
_symmetry_space_group_name_H-M	'P1'
_symmetry_Int_Tables_number	1
_symmetry_cell_setting	triclinic
loop_
_symmetry_equiv_pos_as_xyz
  x,y,z
_cell_length_a	15.944551
_cell_length_b	14.044190
_cell_length_c	13.101039
_cell_angle_alpha	93.663707
_cell_angle_beta	86.646591
_cell_angle_gamma	88.345258
loop_
_atom_site_label
_atom_site_type_symbol
_atom_site_fract_x
_atom_site_fract_y
_atom_site_fract_z
O1	O	1.127905	0.117025	-0.085118
O2	O	0.884485	0.132096	-0.085145
O3	O	1.002537	-0.013423	-0.085111
O4	O	1.009853	0.262545	-0.085151
O5	O	0.994068	-0.002965	0.085316
O6	O	0.876016	0.142554	0.085283
O7	O	1.119436	0.127484	0.085310
Zn8	Zn	0.996381	0.136679	0.112355
Zn9	Zn	1.007539	0.122900	-0.112190
O10	O	1.001384	0.273003	0.085277
C11	C	0.848910	0.136699	0.000066
C12	C	0.755524	0.134823	0.000057
C13	C	0.995103	-0.043509	0.000105
C14	C	0.985559	-0.148735	0.000113
C15	C	1.035799	-0.399020	0.000078
C16	C	0.968126	-0.341395	0.000078
C17	C	0.977828	-0.234189	0.000097
C18	C	1.026098	-0.506236	0.000059
C19	C	0.533574	0.040140	0.000090
C20	C	0.480023	0.078952	-0.083946
C21	C	0.584543	0.131430	0.000069
C22	C	0.471697	0.089284	0.084082
C23	C	0.419384	0.128146	0.000086
C24	C	0.532226	0.170262	-0.084036
C25	C	0.523902	0.180587	0.084067
C26	C	0.470374	0.219463	0.000011
C27	C	0.679688	0.133319	0.000059
C28	C	0.324241	0.126264	0.000089
C29	C	1.155011	0.122880	0.000097
C30	C	1.248397	0.124756	0.000100
C31	C	1.008818	0.303088	0.000058
C32	C	1.018362	0.408314	0.000043
N33	N	0.988772	0.146083	0.265602
N34	N	1.015154	0.113490	-0.265437
C35	C	0.978421	0.158885	0.474641
C36	C	1.025504	0.100691	0.525530
C37	C	1.019744	0.107814	0.641847
C38	C	0.984180	0.151763	0.358314
H39	H	0.902904	-0.372576	0.000065
H40	H	1.101016	-0.367841	0.000096
N41	N	0.435913	0.314603	-0.000067
N42	N	0.455340	0.365289	-0.072289
H43	H	0.431001	0.432481	-0.072349
H44	H	0.561237	-0.035630	-0.000003
H45	H	0.460550	0.035980	-0.154982
N46	N	0.548348	0.234466	0.173180
N47	N	0.493567	0.270902	0.237228
H48	H	0.510832	0.308951	0.300172
N49	N	0.922444	0.228110	0.529563
N50	N	0.930877	0.314989	0.517671
H51	H	0.891345	0.363882	0.556468
H52	H	1.070139	0.045520	0.481741
N53	N	0.565363	0.213210	-0.173244
N54	N	0.642919	0.221559	-0.187658
H55	H	0.666325	0.251896	-0.250656
H56	H	0.445187	0.055015	0.155126
