data_functionalizedCrystal
_audit_creation_method	'MofGen! by Chris Wilmer'
_symmetry_space_group_name_H-M	'P1'
_symmetry_Int_Tables_number	1
_symmetry_cell_setting	triclinic
loop_
_symmetry_equiv_pos_as_xyz
  x,y,z
_cell_length_a	10.967819
_cell_length_b	17.666332
_cell_length_c	11.026607
_cell_angle_alpha	90.001957
_cell_angle_beta	96.381100
_cell_angle_gamma	102.138563
loop_
_atom_site_label
_atom_site_type_symbol
_atom_site_fract_x
_atom_site_fract_y
_atom_site_fract_z
O1	O	1.694073	0.283936	0.170554
O2	O	2.194073	0.783936	0.670554
O3	O	1.334429	0.237022	0.186869
O4	O	1.834429	0.737022	0.686869
O5	O	1.484444	0.256588	0.001809
O6	O	1.984444	0.756588	0.501809
O7	O	1.544058	0.264370	0.355613
O8	O	2.044058	0.764370	0.855613
O9	O	1.484409	0.130686	0.001804
O10	O	1.984409	0.630686	0.501804
O11	O	1.334394	0.111120	0.186863
O12	O	1.834394	0.611120	0.686863
O13	O	1.694038	0.158034	0.170548
O14	O	2.194038	0.658034	0.670548
Cu15	Cu	1.514213	0.123082	0.178705
Cu16	Cu	2.014213	0.623082	0.678705
Cu17	Cu	1.514254	0.271975	0.178712
Cu18	Cu	2.014254	0.771975	0.678712
O19	O	1.544023	0.138468	0.355607
O20	O	2.044023	0.638468	0.855607
C21	C	1.287653	0.167972	0.185677
C22	C	1.787653	0.667972	0.685677
C23	C	1.148326	0.149797	0.182121
C24	C	1.648326	0.649797	0.682121
C25	C	0.942235	0.188146	0.176875
C26	C	1.442235	0.688146	0.676875
C27	C	1.086236	0.206925	0.180542
C28	C	1.586236	0.706925	0.680542
N29	N	1.514193	0.018360	0.178699
N30	N	2.014193	0.518360	0.678699
C31	C	1.606580	-0.009191	0.253120
C32	C	2.106580	0.490809	0.753120
C33	C	1.606599	-0.088436	0.253116
C34	C	2.106599	0.411564	0.753116
C35	C	1.514211	-0.140130	0.178707
C36	C	2.014211	0.359870	0.678707
C37	C	1.421816	-0.112571	0.104271
C38	C	1.921816	0.387429	0.604271
C39	C	1.421807	-0.033326	0.104268
C40	C	1.921807	0.466674	0.604268
N41	N	1.403961	-0.278951	0.174473
N42	N	1.903961	0.221049	0.674473
N43	N	1.403975	-0.354230	0.174483
N44	N	1.903975	0.145770	0.674483
C45	C	1.514235	-0.378891	0.178711
C46	C	2.014235	0.121109	0.678711
N47	N	1.624487	-0.325429	0.182952
N48	N	2.124487	0.174571	0.682952
N49	N	1.624473	-0.250143	0.182948
N50	N	2.124473	0.249857	0.682948
C51	C	1.514211	-0.226059	0.178702
C52	C	2.014211	0.273941	0.678702
C53	C	1.606650	-0.492368	0.253132
C54	C	2.106650	0.007632	0.753132
C55	C	1.606670	-0.571614	0.253120
C56	C	2.106670	-0.071614	0.753120
C57	C	1.421877	-0.595748	0.104282
C58	C	1.921877	-0.095748	0.604282
C59	C	1.421867	-0.516502	0.104287
C60	C	1.921867	-0.016502	0.604287
C61	C	1.514253	-0.464817	0.178718
C62	C	2.014253	0.035183	0.678718
C63	C	1.740814	0.227086	0.171740
C64	C	2.240814	0.727086	0.671740
C65	C	1.880141	0.245265	0.175296
C66	C	2.380141	0.745265	0.675296
C67	C	1.473429	0.192203	-0.043496
C68	C	1.973429	0.692203	0.456504
C69	C	1.440644	0.187930	-0.178484
C70	C	1.940644	0.687930	0.321516
N71	N	1.514282	0.376698	0.178708
N72	N	2.014282	0.876698	0.678708
C73	C	1.531168	0.199739	-0.251534
C74	C	2.031168	0.699739	0.248466
C75	C	1.497286	0.195322	-0.391051
C76	C	1.997286	0.695322	0.108949
C77	C	1.555038	0.202854	0.400913
C78	C	2.055038	0.702854	0.900913
C79	C	1.587823	0.207133	0.535900
C80	C	2.087823	0.707133	1.035900
H81	H	0.933589	0.308071	0.176667
H82	H	1.433589	0.808071	0.676667
O83	O	1.157024	0.290123	0.182341
O84	O	1.657024	0.790123	0.682341
H85	H	1.139458	0.320763	0.264428
H86	H	1.639458	0.820763	0.764428
H87	H	1.346631	-0.494072	0.043691
H88	H	1.846631	0.005928	0.543691
O89	O	1.322177	-0.168315	0.023992
O90	O	1.822177	0.331685	0.523992
H91	H	1.228177	-0.165374	0.049532
H92	H	1.728177	0.334626	0.549532
O93	O	1.304756	0.170200	-0.232451
O94	O	1.804756	0.670200	0.267549
H95	H	1.257579	0.215361	-0.201682
H96	H	1.757579	0.715361	0.298318
O97	O	1.706226	0.046552	0.333397
O98	O	2.206226	0.546552	0.833397
H99	H	1.760331	0.089724	0.275715
H100	H	2.260331	0.589724	0.775715
O101	O	1.706239	-0.118168	0.333397
O102	O	2.206239	0.381832	0.833397
H103	H	1.770472	-0.068915	0.385158
H104	H	2.270472	0.431085	0.885158
H105	H	1.346571	-0.010896	0.043664
H106	H	1.846571	0.489104	0.543664
O107	O	1.667060	0.217465	-0.197579
O108	O	2.167060	0.717465	0.302421
H109	H	1.672347	0.218148	-0.096464
H110	H	2.172347	0.718148	0.403536
H111	H	1.681877	-0.450283	0.313737
H112	H	2.181877	0.049717	0.813737
O113	O	1.706320	-0.601335	0.333391
O114	O	2.206320	-0.101335	0.833391
H115	H	1.770548	-0.552080	0.385151
H116	H	2.270548	-0.052080	0.885151
O117	O	1.322223	-0.651492	0.024024
O118	O	1.822223	-0.151492	0.524024
H119	H	1.337744	-0.711226	0.036533
H120	H	1.837744	-0.211226	0.536533
O121	O	1.361387	0.177590	-0.445000
O122	O	1.861387	0.677590	0.055000
H123	H	1.356100	0.176895	-0.546116
H124	H	1.856100	0.676895	-0.046116
H125	H	0.888788	0.125340	0.175518
H126	H	1.388788	0.625340	0.675518
H127	H	1.690415	0.220573	-0.423360
H128	H	2.190415	0.720573	0.076640
H129	H	1.094886	0.086987	0.180765
H130	H	1.594886	0.586987	0.680765
