data_functionalizedCrystal
_audit_creation_method	'MofGen! by Chris Wilmer'
_symmetry_space_group_name_H-M	'P1'
_symmetry_Int_Tables_number	1
_symmetry_cell_setting	triclinic
loop_
_symmetry_equiv_pos_as_xyz
  x,y,z
_cell_length_a	6.817900
_cell_length_b	9.514088
_cell_length_c	9.514063
_cell_angle_alpha	83.787405
_cell_angle_beta	118.843314
_cell_angle_gamma	118.843545
loop_
_atom_site_label
_atom_site_type_symbol
_atom_site_fract_x
_atom_site_fract_y
_atom_site_fract_z
V1	V	-4.303769	-0.502027	-0.225060
O2	O	-4.198339	-0.491166	0.007885
O3	O	-4.337709	-0.499849	-0.443439
O4	O	-4.337712	-0.720406	-0.222884
O5	O	-4.198336	-0.269082	-0.214197
V6	V	-4.766057	-0.474013	-0.197045
O7	O	-4.611606	-0.563480	-0.286513
O8	O	-4.908417	-0.412560	-0.135593
O9	O	-4.508910	-0.476191	0.021333
O10	O	-4.988884	-0.484874	-0.429991
O11	O	-4.988887	-0.706958	-0.207909
O12	O	-4.508907	-0.255634	-0.199222
C13	C	-4.200076	-0.492253	-0.496635
C14	C	-4.309662	-0.491928	-0.675170
C15	C	-4.200078	-0.773594	-0.215293
C16	C	-4.309659	-0.952128	-0.214959
C17	C	-4.309886	-0.483783	0.074521
C18	C	-4.179543	-0.484119	0.253054
C19	C	-4.309882	-0.202438	-0.206818
C20	C	-4.179536	-0.023902	-0.207144
H21	H	-3.984289	-0.477678	-0.671801
N22	N	-4.568273	-1.051659	-0.223463
H23	H	-4.561109	-1.009966	-0.126931
H24	H	-4.704323	-1.042291	-0.327215
N25	N	-3.920933	-0.924395	-0.198638
H26	H	-3.876686	-0.806685	-0.200098
H27	H	-3.784925	-0.933866	-0.094942
H28	H	-4.504885	-0.498344	-0.750303
