data_functionalizedCrystal
_audit_creation_method	'MofGen! by Chris Wilmer'
_symmetry_space_group_name_H-M	'P1'
_symmetry_Int_Tables_number	1
_symmetry_cell_setting	triclinic
loop_
_symmetry_equiv_pos_as_xyz
  x,y,z
_cell_length_a	13.339070
_cell_length_b	11.804366
_cell_length_c	14.519709
_cell_angle_alpha	78.141386
_cell_angle_beta	99.654720
_cell_angle_gamma	105.125066
loop_
_atom_site_label
_atom_site_type_symbol
_atom_site_fract_x
_atom_site_fract_y
_atom_site_fract_z
O1	O	1.363529	0.099008	0.449157
O2	O	1.863529	0.599008	0.949157
O3	O	1.068892	0.099009	0.388444
O4	O	1.568892	0.599009	0.888444
O5	O	1.224025	0.099019	0.286548
O6	O	1.724025	0.599019	0.786548
O7	O	1.208397	0.098998	0.551054
O8	O	1.708397	0.598998	1.051054
O9	O	1.183184	-0.099039	0.313335
O10	O	1.683184	0.400961	0.813335
O11	O	1.028051	-0.099049	0.415231
O12	O	1.528051	0.400951	0.915231
O13	O	1.322688	-0.099051	0.475944
O14	O	1.822688	0.400949	0.975944
Cu15	Cu	1.171640	-0.117134	0.448034
Cu16	Cu	1.671640	0.382866	0.948034
Cu17	Cu	1.219940	0.117093	0.416355
Cu18	Cu	1.719940	0.617093	0.916355
O19	O	1.167555	-0.099061	0.577841
O20	O	1.667555	0.400939	1.077841
C21	C	1.010764	-0.000019	0.391582
C22	C	1.510764	0.499981	0.891582
C23	C	0.898407	-0.000018	0.361013
C24	C	1.398407	0.499982	0.861013
C25	C	1.202877	-0.000004	0.265396
C26	C	1.702877	0.499996	0.765396
C27	C	1.200698	0.000011	0.162458
C28	C	1.700698	0.500011	0.662458
C29	C	0.534044	-0.000019	0.598704
C30	C	1.034044	0.499981	1.098704
C31	C	0.639609	-0.000016	0.627428
C32	C	1.139609	0.499984	1.127428
C33	C	0.704314	-0.000017	0.560827
C34	C	1.204314	0.499983	1.060827
C35	C	0.663443	-0.000020	0.465496
C36	C	1.163443	0.499980	0.965496
C37	C	0.557869	-0.000013	0.436768
C38	C	1.057869	0.499987	0.936768
C39	C	0.728139	-0.000011	0.398891
C40	C	1.228139	0.499989	0.898891
C41	C	0.687268	-0.000014	0.303561
C42	C	1.187268	0.499986	0.803561
C43	C	0.581705	-0.000008	0.274837
C44	C	1.081705	0.499992	0.774837
C45	C	0.517000	-0.000007	0.341439
C46	C	1.017000	0.499993	0.841439
C47	C	0.833713	-0.000018	0.427619
C48	C	1.333713	0.499982	0.927619
C49	C	0.857538	-0.000012	0.265683
C50	C	1.357538	0.499988	0.765683
C51	C	0.751973	-0.000015	0.236959
C52	C	1.251973	0.499985	0.736959
C53	C	1.380817	-0.000019	0.472806
C54	C	1.880817	0.499981	0.972806
C55	C	1.493175	-0.000013	0.503375
C56	C	1.993175	0.499987	1.003375
N57	N	1.137676	-0.281877	0.470316
N58	N	1.637676	0.218123	0.970316
C59	C	1.056118	-0.344228	0.523843
C60	C	1.556118	0.155772	1.023843
C61	C	1.030434	-0.468892	0.540715
C62	C	1.530434	0.031108	1.040715
C63	C	1.086301	-0.531216	0.504054
C64	C	1.586301	-0.031216	1.004054
C65	C	1.167857	-0.468865	0.450520
C66	C	1.667857	0.031135	0.950520
C67	C	1.193548	-0.344189	0.433653
C68	C	1.693548	0.155811	0.933653
C69	C	1.223731	-0.531177	0.413864
C70	C	1.723731	-0.031177	0.913864
C71	C	1.305287	-0.468825	0.360330
C72	C	1.805287	0.031175	0.860330
C73	C	1.330974	-0.344162	0.343465
C74	C	1.830974	0.155838	0.843465
C75	C	1.275107	-0.281838	0.380126
C76	C	1.775107	0.218162	0.880126
C77	C	1.198040	-0.655852	0.430730
C78	C	1.698040	-0.155852	0.930730
C79	C	1.335470	-0.655813	0.340540
C80	C	1.835470	-0.155813	0.840540
C81	C	1.361154	-0.531150	0.323669
C82	C	1.861154	-0.031150	0.823669
N83	N	1.253912	0.281836	0.394067
N84	N	1.753912	0.781836	0.894067
C85	C	1.188704	-0.000034	0.598993
C86	C	1.688704	0.499966	1.098993
C87	C	1.190884	-0.000042	0.701930
C88	C	1.690884	0.499958	1.201930
C89	C	1.198926	0.000005	1.078863
C90	C	1.698926	0.500005	1.578863
C91	C	1.196693	-0.000008	0.973989
C92	C	1.696693	0.499992	1.473989
C93	C	1.194905	-0.000020	0.890400
C94	C	1.694905	0.499980	1.390400
C95	C	1.192672	-0.000031	0.785519
C96	C	1.692672	0.499969	1.285519
H97	H	0.790270	-0.000012	0.584220
H98	H	1.290270	0.499988	1.084220
H99	H	0.910222	-0.000008	0.211450
H100	H	1.410222	0.499992	0.711450
N101	N	0.710235	-0.000022	0.139581
N102	N	1.210235	0.499978	0.639581
N103	N	0.712783	-0.083508	0.099870
N104	N	1.212783	0.416492	0.599870
H105	H	0.683306	-0.083515	0.031096
H106	H	1.183306	0.416485	0.531096
H107	H	0.672880	-0.000005	0.705045
H108	H	1.172880	0.499995	1.205045
N109	N	0.467944	0.000008	0.666711
N110	N	0.967944	0.500008	1.166711
N111	N	0.373693	0.000028	0.641045
N112	N	0.873693	0.500028	1.141045
H113	H	0.327007	0.000052	0.689078
H114	H	0.827007	0.500052	1.189078
N115	N	1.301322	-0.154493	0.362892
N116	N	1.801322	0.345507	0.862892
N117	N	1.251423	-0.098869	0.395623
N118	N	1.751423	0.401131	0.895623
H119	H	1.269934	-0.008930	0.383452
H120	H	1.769934	0.491070	0.883452
H121	H	1.397388	-0.293395	0.299884
H122	H	1.897388	0.206605	0.799884
H123	H	1.131638	-0.706608	0.474318
H124	H	1.631638	-0.206608	0.974318
H125	H	1.065386	-0.632723	0.517793
H126	H	1.565386	-0.132723	1.017793
H127	H	1.427559	-0.480368	0.280081
H128	H	1.927559	0.019632	0.780081
H129	H	0.866978	-0.000021	0.505238
H130	H	1.366978	0.499979	1.005238
N131	N	0.947141	-0.532559	0.595407
N132	N	1.447141	-0.032559	1.095407
N133	N	0.897272	-0.476904	0.628140
N134	N	1.397272	0.023096	1.128140
H135	H	0.838444	-0.521870	0.666772
H136	H	1.338444	-0.021870	1.166772
N137	N	1.392522	-0.719480	0.303081
N138	N	1.892522	-0.219480	0.803081
N139	N	1.369564	-0.830790	0.318135
N140	N	1.869564	-0.330790	0.818135
H141	H	1.409848	-0.875763	0.291678
H142	H	1.909848	-0.375763	0.791678
H143	H	1.010643	-0.293476	0.553694
H144	H	1.510643	0.206524	1.053694
H145	H	0.431039	-0.000009	0.318056
H146	H	0.931039	0.499991	0.818056
H147	H	0.548434	0.000004	0.197211
H148	H	1.048434	0.500004	0.697211
