data_functionalizedCrystal
_audit_creation_method	'MofGen! by Chris Wilmer'
_symmetry_space_group_name_H-M	'P1'
_symmetry_Int_Tables_number	1
_symmetry_cell_setting	triclinic
loop_
_symmetry_equiv_pos_as_xyz
  x,y,z
_cell_length_a	19.077105
_cell_length_b	12.759394
_cell_length_c	19.076919
_cell_angle_alpha	87.724147
_cell_angle_beta	89.923776
_cell_angle_gamma	87.710378
loop_
_atom_site_label
_atom_site_type_symbol
_atom_site_fract_x
_atom_site_fract_y
_atom_site_fract_z
Zn1	Zn	1.058332	-0.508277	0.440442
Zn2	Zn	1.062993	-0.677204	0.322943
Zn3	Zn	0.945548	-0.494202	0.318235
Zn4	Zn	0.940815	-0.676570	0.435696
O5	O	1.001922	-0.589063	0.379329
O6	O	1.157283	-0.536841	0.428812
O7	O	1.051345	-0.647303	0.223987
O8	O	0.960540	-0.349051	0.334462
O9	O	1.160707	-0.660951	0.342487
O10	O	1.043402	-0.359391	0.424247
O11	O	0.965059	-0.512853	0.220528
O12	O	0.846588	-0.512239	0.329859
O13	O	0.952472	-0.659871	0.534657
O14	O	0.843110	-0.646224	0.416158
O15	O	1.038812	-0.536226	0.538144
O16	O	1.046755	-0.824138	0.337884
O17	O	0.956991	-0.823673	0.420723
C18	C	0.819352	-0.577636	0.371983
C19	C	0.741248	-0.572773	0.368857
C20	C	0.702764	-0.640345	0.412248
C21	C	0.629376	-0.635763	0.409315
C22	C	0.594473	-0.563613	0.362985
C23	C	0.632962	-0.496034	0.319592
C24	C	0.706348	-0.500612	0.322530
C25	C	0.375184	-0.542425	0.349391
C26	C	0.301792	-0.537854	0.346455
C27	C	0.298211	-0.677582	0.436180
C28	C	0.371600	-0.682158	0.439110
C29	C	0.410082	-0.614575	0.395720
N30	N	0.519459	-0.558929	0.359984
N31	N	0.485094	-0.619254	0.398725
C32	C	1.001883	-0.862028	0.379316
C33	C	1.001930	-0.978809	0.379336
C34	C	1.088144	-0.989417	0.472894
C35	C	1.131273	-1.049584	0.519679
C36	C	1.131314	-1.159309	0.519696
C37	C	1.088220	-1.208870	0.472924
C38	C	1.045091	-1.148703	0.426139
C39	C	1.045057	-1.038976	0.426126
C40	C	0.958875	-1.138094	0.332586
C41	C	0.958836	-1.028369	0.332564
C42	C	0.915781	-1.187654	0.285814
C43	C	0.872655	-1.127487	0.239024
C44	C	0.872616	-1.017755	0.239009
C45	C	0.915707	-0.968202	0.285779
C46	C	1.185205	-0.600536	0.386704
C47	C	1.263309	-0.605426	0.389847
C48	C	0.994594	-0.599548	0.562610
C49	C	0.991471	-0.604016	0.640713
C50	C	1.001979	-0.315035	0.379358
C51	C	1.002004	-0.198261	0.379371
C52	C	1.009262	-0.578546	0.196763
C53	C	1.012521	-0.573791	0.118665
C54	C	1.034954	-0.541743	0.679223
C55	C	1.032011	-0.545936	0.752609
C56	C	0.985589	-0.612409	0.787484
C57	C	0.942101	-0.674685	0.748969
C58	C	0.945040	-0.670485	0.675584
C59	C	0.971973	-0.631867	1.006766
C60	C	0.969038	-0.636064	1.080156
C61	C	1.058948	-0.507314	1.083791
C62	C	1.061887	-0.503125	1.010404
C63	C	1.018396	-0.565396	0.971896
N64	N	0.982581	-0.616699	0.862496
N65	N	1.021401	-0.561099	0.896885
H66	H	0.406507	-0.487402	0.314054
O67	O	0.830693	-1.175579	0.193666
C68	C	0.760027	-1.145314	0.206135
H69	H	0.754184	-1.118103	0.262118
H70	H	0.725583	-1.215001	0.198676
H71	H	0.743173	-1.078367	0.167697
O72	O	0.902729	-0.730829	0.638143
C73	C	0.859065	-0.665752	0.593859
H74	H	0.853856	-0.583998	0.615805
H75	H	0.805014	-0.700319	0.590847
H76	H	0.883017	-0.660315	0.539117
O77	O	1.079954	-0.477104	0.645268
C78	C	1.041659	-0.404298	0.601230
H79	H	0.988842	-0.437393	0.588082
H80	H	1.072352	-0.389049	0.550782
H81	H	1.032817	-0.327580	0.629213
H82	H	1.067422	-0.495229	0.783960
H83	H	0.837492	-0.968772	0.200913
H84	H	1.166426	-1.208298	0.557800
H85	H	0.273376	-0.479089	0.308733
O86	O	1.088140	-1.315452	0.473002
C87	C	1.020068	-1.348993	0.488275
H88	H	0.989751	-1.285708	0.517705
H89	H	1.023749	-1.424615	0.522187
H90	H	0.991660	-1.363778	0.437283
O91	O	0.743708	-0.435083	0.280274
C92	C	0.728547	-0.452738	0.209496
H93	H	0.708506	-0.535193	0.205045
H94	H	0.778192	-0.444636	0.176724
H95	H	0.686687	-0.392662	0.189485
H96	H	0.604538	-0.437284	0.281872
O97	O	1.106998	-0.438458	0.976638
C98	C	1.144760	-0.384411	1.026366
H99	H	1.113885	-0.381962	1.077518
H100	H	1.153124	-0.300892	1.005473
H101	H	1.197807	-0.426672	1.036317
H102	H	0.731177	-0.699101	0.449973
O103	O	0.405463	-0.752135	0.484218
C104	C	0.384732	-0.732243	0.553559
H105	H	0.364426	-0.647269	0.556396
H106	H	0.431610	-0.746375	0.590198
H107	H	0.341397	-0.787000	0.570155
O108	O	1.101117	-0.446856	1.121304
C109	C	1.088583	-0.464831	1.193554
H110	H	1.033946	-0.496421	1.201389
H111	H	1.092246	-0.388029	1.221644
H112	H	1.129419	-0.524576	1.216054
H113	H	1.088122	-0.900074	0.472879
H114	H	0.598046	-0.690788	0.444648
H115	H	0.266872	-0.732602	0.471507
H116	H	1.166359	-1.009223	0.557762
H117	H	0.915815	-1.276998	0.285833
O118	O	0.915540	-0.861608	0.285763
C119	C	0.847453	-0.821843	0.301067
H120	H	0.807489	-0.881910	0.287411
H121	H	0.836225	-0.745870	0.268856
H122	H	0.843586	-0.805595	0.359307
O123	O	0.923877	-0.700661	1.113923
C124	C	0.886133	-0.754743	1.064200
H125	H	0.885800	-0.708565	1.011795
H126	H	0.829919	-0.763694	1.083176
H127	H	0.912158	-0.835700	1.057421
H128	H	0.936570	-0.682589	0.975421
O129	O	0.897065	-0.739231	0.782955
C130	C	0.903782	-0.729569	0.855985
H131	H	0.957617	-0.699132	0.868198
H132	H	0.897880	-0.809561	0.883672
H133	H	0.861281	-0.672202	0.875137
