data_functionalizedCrystal
_audit_creation_method	'MofGen! by Chris Wilmer'
_symmetry_space_group_name_H-M	'P1'
_symmetry_Int_Tables_number	1
_symmetry_cell_setting	triclinic
loop_
_symmetry_equiv_pos_as_xyz
  x,y,z
_cell_length_a	19.077105
_cell_length_b	16.959454
_cell_length_c	19.077271
_cell_angle_alpha	87.709468
_cell_angle_beta	89.912562
_cell_angle_gamma	87.716588
loop_
_atom_site_label
_atom_site_type_symbol
_atom_site_fract_x
_atom_site_fract_y
_atom_site_fract_z
Zn1	Zn	1.058214	-0.382525	0.440436
Zn2	Zn	1.558214	0.117475	0.940436
Zn3	Zn	1.062884	-0.509583	0.322938
Zn4	Zn	1.562884	-0.009583	0.822938
Zn5	Zn	0.945454	-0.371901	0.318230
Zn6	Zn	1.445454	0.128099	0.818230
Zn7	Zn	0.940685	-0.509139	0.435689
Zn8	Zn	1.440685	-0.009139	0.935689
O9	O	1.001809	-0.443287	0.379323
O10	O	1.501809	0.056713	0.879323
O11	O	1.157165	-0.404012	0.428807
O12	O	1.657165	0.095988	0.928807
O13	O	1.051257	-0.487059	0.223983
O14	O	1.551257	0.012941	0.723983
O15	O	0.960453	-0.262702	0.334457
O16	O	1.460453	0.237298	0.834457
O17	O	1.160596	-0.497360	0.342481
O18	O	1.660596	0.002640	0.842481
O19	O	1.043297	-0.270508	0.424242
O20	O	1.543297	0.229492	0.924242
O21	O	0.964981	-0.385905	0.220524
O22	O	1.464981	0.114095	0.720524
O23	O	0.846490	-0.385474	0.329855
O24	O	1.346490	0.114526	0.829855
O25	O	0.952325	-0.496603	0.534650
O26	O	1.452325	0.003397	1.034650
O27	O	0.842986	-0.486302	0.416151
O28	O	1.342986	0.013698	0.916151
O29	O	1.038673	-0.403581	0.538137
O30	O	1.538673	0.096419	1.038137
O31	O	1.046632	-0.620132	0.337878
O32	O	1.546632	-0.120132	0.837878
O33	O	0.956853	-0.619806	0.420716
O34	O	1.456853	-0.119806	0.920716
C35	C	0.819241	-0.434687	0.371977
C36	C	1.319241	0.065313	0.871977
C37	C	0.741138	-0.431028	0.368851
C38	C	1.241138	0.068972	0.868851
C39	C	1.001751	-0.648650	0.379309
C40	C	1.501751	-0.148650	0.879309
C41	C	1.001789	-0.736509	0.379329
C42	C	1.501789	-0.236509	0.879329
C43	C	0.702641	-0.481878	0.412242
C44	C	1.202641	0.018122	0.912242
C45	C	0.629254	-0.478429	0.409309
C46	C	1.129254	0.021571	0.909309
C47	C	0.594365	-0.424135	0.362980
C48	C	1.094365	0.075865	0.862980
C49	C	0.632867	-0.373280	0.319587
C50	C	1.132867	0.126720	0.819587
C51	C	0.706252	-0.376725	0.322525
C52	C	1.206252	0.123275	0.822525
C53	C	0.375079	-0.408190	0.349386
C54	C	0.875079	0.091810	0.849386
C55	C	0.301689	-0.404750	0.346450
C56	C	0.801689	0.095250	0.846450
C57	C	0.298081	-0.509900	0.436173
C58	C	0.798081	-0.009900	0.936173
C59	C	0.371469	-0.513343	0.439104
C60	C	0.871469	-0.013343	0.939104
C61	C	0.409964	-0.462485	0.395714
C62	C	0.909964	0.037515	0.895714
N63	N	0.519352	-0.420610	0.359978
N64	N	1.019352	0.079390	0.859978
N65	N	0.484975	-0.466007	0.398719
N66	N	0.984975	0.033993	0.898719
C67	C	0.955126	-1.107848	0.422455
C68	C	1.455126	-0.607848	0.922455
C69	C	1.048684	-1.108135	0.336271
C70	C	1.548684	-0.608135	0.836271
C71	C	1.048660	-1.025588	0.336264
C72	C	1.548660	-0.525588	0.836264
C73	C	1.001868	-0.984167	0.379352
C74	C	1.501868	-0.484167	0.879352
C75	C	0.955099	-1.025293	0.422447
C76	C	1.455099	-0.525293	0.922447
C77	C	1.095423	-0.984455	0.293164
C78	C	1.595423	-0.484455	0.793164
C79	C	1.095400	-0.901902	0.293154
C80	C	1.595400	-0.401902	0.793154
C81	C	1.048610	-0.860480	0.336246
C82	C	1.548610	-0.360480	0.836246
C83	C	1.001840	-0.901612	0.379344
C84	C	1.501840	-0.401612	0.879344
C85	C	0.955048	-0.860191	0.422432
C86	C	1.455048	-0.360191	0.922432
C87	C	0.908281	-0.901321	0.465534
C88	C	1.408281	-0.401321	0.965534
C89	C	0.908309	-0.983871	0.465540
C90	C	1.408309	-0.483871	0.965540
C91	C	1.048582	-0.777930	0.336241
C92	C	1.548582	-0.277930	0.836241
C93	C	0.955021	-0.777636	0.422425
C94	C	1.455021	-0.277636	0.922425
C95	C	1.185089	-0.451921	0.386698
C96	C	1.685089	0.048079	0.886698
C97	C	1.263192	-0.455600	0.389841
C98	C	1.763192	0.044400	0.889841
C99	C	0.994446	-0.451228	0.562603
C100	C	1.494446	0.048772	1.062603
C101	C	0.991308	-0.454611	0.640705
C102	C	1.491308	0.045389	1.140705
C103	C	1.001886	-0.237124	0.379354
C104	C	1.501886	0.262876	0.879354
C105	C	1.001919	-0.149269	0.379367
C106	C	1.501919	0.350731	0.879367
C107	C	1.034789	-0.407772	0.679215
C108	C	1.534789	0.092228	1.179215
C109	C	1.031832	-0.410948	0.752600
C110	C	1.531832	0.089052	1.252600
C111	C	0.985398	-0.460968	0.787475
C112	C	1.485398	0.039032	1.287475
C113	C	0.941913	-0.507810	0.748960
C114	C	1.441913	-0.007810	1.248960
C115	C	0.944866	-0.504629	0.675576
C116	C	1.444866	-0.004629	1.175576
C117	C	0.971740	-0.475670	1.006755
C118	C	1.471740	0.024330	1.506755
C119	C	0.968791	-0.478849	1.080144
C120	C	1.468791	0.021151	1.580144
C121	C	1.058710	-0.381986	1.083780
C122	C	1.558710	0.118014	1.583780
C123	C	1.061663	-0.378813	1.010394
C124	C	1.561663	0.121187	1.510394
C125	C	1.018175	-0.425651	0.971885
C126	C	1.518175	0.074349	1.471885
N127	N	0.982376	-0.464218	0.862487
N128	N	1.482376	0.035782	1.362487
N129	N	1.021194	-0.422397	0.896875
N130	N	1.521194	0.077603	1.396875
C131	C	1.009137	-0.435394	1.196757
C132	C	1.509137	0.064606	1.696757
C133	C	1.012272	-0.432009	1.118654
C134	C	1.512272	0.067991	1.618654
H135	H	0.731043	-0.526093	0.449966
H136	H	1.231043	-0.026093	0.949966
C137	C	1.141053	-0.786509	0.251044
C138	C	1.641053	-0.286509	0.751044
C139	C	1.099980	-0.732720	0.288866
C140	C	1.599980	-0.232720	0.788866
H141	H	1.172789	-0.758596	0.221799
H142	H	1.672789	-0.258596	0.721799
H143	H	1.111547	-0.816132	0.222918
H144	H	1.611547	-0.316132	0.722918
H145	H	1.166688	-0.821269	0.282769
H146	H	1.666688	-0.321269	0.782769
H147	H	1.074341	-0.697963	0.257141
H148	H	1.574341	-0.197963	0.757141
H149	H	1.129490	-0.703083	0.316995
H150	H	1.629490	-0.203083	0.816995
H151	H	0.870179	-0.867587	0.500614
H152	H	1.370179	-0.367587	1.000614
C153	C	1.079243	-0.359883	0.568338
C154	C	1.579243	0.140117	1.068338
C155	C	1.085829	-0.352785	0.640883
C156	C	1.585829	0.147215	1.140883
H157	H	1.110756	-0.325936	0.544677
H158	H	1.610756	0.174064	1.044677
H159	H	1.032524	-0.345572	0.554415
H160	H	1.532524	0.154428	1.054415
H161	H	1.089996	-0.412955	0.556724
H162	H	1.589996	0.087045	1.056724
H163	H	1.075071	-0.299714	0.652499
H164	H	1.575071	0.200286	1.152499
H165	H	1.132559	-0.367091	0.654812
H166	H	1.632559	0.132909	1.154812
C167	C	0.866801	-1.110285	0.503806
C168	C	1.366801	-0.610285	1.003806
C169	C	0.856900	-1.029082	0.512906
C170	C	1.356900	-0.529082	1.012906
H171	H	0.835058	-1.138197	0.533043
H172	H	1.335058	-0.638197	1.033043
H173	H	0.913588	-1.126437	0.516033
H174	H	1.413588	-0.626437	1.016033
H175	H	0.858460	-1.121293	0.456170
H176	H	1.358460	-0.621293	0.956170
H177	H	0.865246	-1.018074	0.560542
H178	H	1.365246	-0.518074	1.060542
H179	H	0.810102	-1.012924	0.500683
H180	H	1.310102	-0.512924	1.000683
H181	H	0.909453	-0.542763	0.644222
H182	H	1.409453	-0.042763	1.144222
H183	H	0.399870	-0.557557	0.476828
H184	H	0.899870	-0.057557	0.976828
H185	H	0.904103	-0.548534	0.777360
H186	H	1.404103	-0.048534	1.277360
H187	H	0.406414	-0.366784	0.314050
H188	H	0.906414	0.133216	0.814050
H189	H	0.917052	-1.141340	0.457550
H190	H	1.417052	-0.641340	0.957550
H191	H	0.266731	-0.551304	0.471500
H192	H	0.766731	-0.051304	0.971500
C193	C	1.090221	-1.234801	0.297971
C194	C	1.590221	-0.734801	0.797971
C195	C	1.100087	-1.153660	0.288879
C196	C	1.600087	-0.653660	0.788879
H197	H	1.121952	-1.262907	0.268705
H198	H	1.621952	-0.762907	0.768705
H199	H	1.043430	-1.245679	0.285776
H200	H	1.543430	-0.745679	0.785776
H201	H	1.098602	-1.250849	0.345598
H202	H	1.598602	-0.750849	0.845598
H203	H	1.091701	-1.137612	0.241252
H204	H	1.591701	-0.637612	0.741252
H205	H	1.146890	-1.142777	0.301069
H206	H	1.646890	-0.642777	0.801069
C207	C	1.215800	-1.013988	0.263779
C208	C	1.715800	-0.513988	0.763779
C209	C	1.146820	-1.030024	0.245798
C210	C	1.646820	-0.530024	0.745798
H211	H	1.247521	-1.042133	0.234532
H212	H	1.747521	-0.542133	0.734532
H213	H	1.224160	-1.030011	0.311409
H214	H	1.724160	-0.530011	0.811409
H215	H	1.222502	-0.958945	0.257579
H216	H	1.722502	-0.458945	0.757579
H217	H	1.140117	-1.085066	0.252003
H218	H	1.640117	-0.585066	0.752003
H219	H	1.138457	-1.014006	0.198157
H220	H	1.638457	-0.514006	0.698157
H221	H	1.133480	-0.868419	0.258059
H222	H	1.633480	-0.368419	0.758059
H223	H	0.597914	-0.519837	0.444642
H224	H	1.097914	-0.019837	0.944642
C225	C	0.521975	-0.321309	0.275245
C226	C	1.021975	0.178691	0.775245
C227	C	0.594518	-0.313594	0.268664
C228	C	1.094518	0.186406	0.768664
H229	H	0.498303	-0.284464	0.243803
H230	H	0.998303	0.215536	0.743803
H231	H	0.508068	-0.311308	0.321989
H232	H	1.008068	0.188692	0.821989
H233	H	0.510356	-0.373387	0.264394
H234	H	1.010356	0.126613	0.764394
H235	H	0.606138	-0.261518	0.279519
H236	H	1.106138	0.238482	0.779519
H237	H	0.608430	-0.323590	0.221909
H238	H	1.108430	0.176410	0.721909
C239	C	0.702452	-0.272456	0.233532
C240	C	1.202452	0.227544	0.733532
C241	C	0.748570	-0.320836	0.274822
C242	C	1.248570	0.179164	0.774822
H243	H	0.728579	-0.237956	0.204080
H244	H	1.228579	0.262044	0.704080
H245	H	0.672614	-0.242258	0.263047
H246	H	1.172614	0.257742	0.763047
H247	H	0.674893	-0.304347	0.205460
H248	H	1.174893	0.195653	0.705460
H249	H	0.776126	-0.288946	0.302899
H250	H	1.276126	0.211054	0.802899
H251	H	0.778420	-0.351037	0.245304
H252	H	1.278420	0.148963	0.745304
H253	H	0.916919	-0.743916	0.457515
H254	H	1.416919	-0.243916	0.957515
H255	H	1.099476	-0.338083	0.982004
H256	H	1.599476	0.161917	1.482004
H257	H	1.067240	-0.372808	0.783952
H258	H	1.567240	0.127192	1.283952
H259	H	1.094115	-0.343851	1.115141
H260	H	1.594115	0.156149	1.615141
H261	H	0.936340	-0.513822	0.975410
H262	H	1.436340	-0.013822	1.475410
C263	C	0.312621	-0.301146	0.258063
C264	C	0.812621	0.198854	0.758063
C265	C	0.263337	-0.345061	0.295525
C266	C	0.763337	0.154939	0.795525
H267	H	0.288942	-0.264297	0.226629
H268	H	0.788942	0.235703	0.726629
H269	H	0.342312	-0.335708	0.232276
H270	H	0.842312	0.164292	0.732276
H271	H	0.340026	-0.273639	0.289879
H272	H	0.840026	0.226361	0.789879
H273	H	0.235935	-0.372573	0.263709
H274	H	0.735935	0.127427	0.763709
H275	H	0.233634	-0.310494	0.321314
H276	H	0.733634	0.189506	0.821314
C277	C	0.880194	-0.574270	1.069184
C278	C	1.380194	-0.074270	1.569184
C279	C	0.917744	-0.533832	1.118480
C280	C	1.417744	-0.033832	1.618480
H281	H	0.848680	-0.608210	1.092852
H282	H	1.348680	-0.108210	1.592852
H283	H	0.911945	-0.604708	1.041789
H284	H	1.411945	-0.104708	1.541789
H285	H	0.854482	-0.537316	1.039484
H286	H	1.354482	-0.037316	1.539484
H287	H	0.943461	-0.570787	1.148177
H288	H	1.443461	-0.070787	1.648177
H289	H	0.885989	-0.503393	1.145886
H290	H	1.385989	-0.003393	1.645886
