data_functionalizedCrystal
_audit_creation_method	'MofGen! by Chris Wilmer'
_symmetry_space_group_name_H-M	'P1'
_symmetry_Int_Tables_number	1
_symmetry_cell_setting	triclinic
loop_
_symmetry_equiv_pos_as_xyz
  x,y,z
_cell_length_a	16.120530
_cell_length_b	25.639239
_cell_length_c	16.120297
_cell_angle_alpha	87.131881
_cell_angle_beta	89.871860
_cell_angle_gamma	87.134624
loop_
_atom_site_label
_atom_site_type_symbol
_atom_site_fract_x
_atom_site_fract_y
_atom_site_fract_z
Zn1	Zn	1.247326	-0.264883	0.534532
Zn2	Zn	1.747326	0.235117	1.034532
Zn3	Zn	1.254240	-0.348114	0.395464
Zn4	Zn	1.754240	0.151886	0.895464
Zn5	Zn	1.115320	-0.256048	0.388451
Zn6	Zn	1.615320	0.243952	0.888451
Zn7	Zn	1.108197	-0.347633	0.527433
Zn8	Zn	1.608197	0.152367	1.027433
O9	O	1.181271	-0.304169	0.461470
O10	O	1.681271	0.195831	0.961470
O11	O	1.364607	-0.279822	0.521990
O12	O	1.864607	0.220178	1.021990
O13	O	1.241687	-0.332405	0.278168
O14	O	1.741687	0.167595	0.778168
O15	O	1.132918	-0.184058	0.407865
O16	O	1.632918	0.315942	0.907865
O17	O	1.369688	-0.340972	0.419817
O18	O	1.869688	0.159028	0.919817
O19	O	1.229902	-0.190549	0.515190
O20	O	1.729902	0.309451	1.015190
O21	O	1.139623	-0.264765	0.273016
O22	O	1.639623	0.235235	0.773016
O23	O	0.998010	-0.264298	0.400981
O24	O	1.498010	0.235702	0.900981
O25	O	1.120778	-0.340152	0.644740
O26	O	1.620778	0.159848	1.144740
O27	O	0.992777	-0.331585	0.503091
O28	O	1.492777	0.168415	1.003091
O29	O	1.222995	-0.279356	0.649955
O30	O	1.722995	0.220644	1.149955
O31	O	1.234780	-0.421212	0.412934
O32	O	1.734780	0.078788	0.912934
O33	O	1.127483	-0.420858	0.509891
O34	O	1.627483	0.079142	1.009891
C35	C	0.965222	-0.296931	0.450505
C36	C	1.465222	0.203069	0.950505
C37	C	0.872794	-0.293847	0.445834
C38	C	1.372794	0.206153	0.945834
C39	C	1.181131	-0.440006	0.461422
C40	C	1.681131	0.059994	0.961422
C41	C	1.181145	-0.498121	0.461434
C42	C	1.681145	0.001879	0.961434
C43	C	0.703567	-0.288205	0.437314
C44	C	1.203567	0.211795	0.937314
C45	C	0.659812	-0.320173	0.485686
C46	C	1.159812	0.179827	0.985686
C47	C	0.565648	-0.317034	0.480946
C48	C	1.065648	0.182966	0.980946
C49	C	0.797739	-0.291344	0.442054
C50	C	1.297739	0.208656	0.942054
C51	C	1.125392	-0.749147	0.511938
C52	C	1.625392	-0.249147	1.011938
C53	C	1.125361	-0.694541	0.511927
C54	C	1.625361	-0.194541	1.011927
O55	O	1.077822	-0.666157	0.554833
O56	O	1.577822	-0.166157	1.054833
N57	N	1.181248	-0.667399	0.461483
N58	N	1.681248	-0.167399	0.961483
C59	C	1.237174	-0.694867	0.411053
C60	C	1.737174	-0.194867	0.911053
O61	O	1.284707	-0.666766	0.368145
O62	O	1.784707	-0.166766	0.868145
C63	C	1.237207	-0.749471	0.411069
C64	C	1.737207	-0.249471	0.911069
C65	C	1.181312	-0.776610	0.461510
C66	C	1.681312	-0.276610	0.961510
C67	C	1.069501	-0.776285	0.562376
C68	C	1.569501	-0.276285	1.062376
C69	C	1.069531	-0.830887	0.562386
C70	C	1.569531	-0.330887	1.062386
C71	C	1.125451	-0.858350	0.511958
C72	C	1.625451	-0.358350	1.011958
C73	C	1.181341	-0.831212	0.461520
C74	C	1.681341	-0.331212	0.961520
C75	C	1.293137	-0.776938	0.360644
C76	C	1.793137	-0.276938	0.860644
C77	C	1.293166	-0.831547	0.360665
C78	C	1.793166	-0.331547	0.860665
C79	C	1.237270	-0.858685	0.411106
C80	C	1.737270	-0.358685	0.911106
C81	C	1.237291	-0.913277	0.411102
C82	C	1.737291	-0.413277	0.911102
N83	N	1.181404	-0.940418	0.461546
N84	N	1.681404	-0.440418	0.961546
C85	C	1.125484	-0.912955	0.511974
C86	C	1.625484	-0.412955	1.011974
C87	C	1.237100	-0.580193	0.411023
C88	C	1.737100	-0.080193	0.911023
C89	C	1.237063	-0.525589	0.411002
C90	C	1.737063	-0.025589	0.911002
C91	C	1.125251	-0.525267	0.511878
C92	C	1.625251	-0.025267	1.011878
C93	C	1.125285	-0.579872	0.511894
C94	C	1.625285	-0.079872	1.011894
C95	C	1.181213	-0.607334	0.461468
C96	C	1.681213	-0.107334	0.961468
C97	C	1.125550	-1.027623	0.511990
C98	C	1.625550	-0.527623	1.011990
C99	C	1.125582	-1.082229	0.511993
C100	C	1.625582	-0.582229	1.011993
C101	C	1.237396	-1.082546	0.411121
C102	C	1.737396	-0.582546	0.911121
C103	C	1.237362	-1.027945	0.411115
C104	C	1.737362	-0.527945	0.911115
C105	C	1.181435	-1.000484	0.461556
C106	C	1.681435	-0.500484	0.961556
O107	O	1.284808	-0.941696	0.368220
O108	O	1.784808	-0.441696	0.868220
O109	O	1.077966	-0.941062	0.554882
O110	O	1.577966	-0.441062	1.054882
C111	C	1.398163	-0.311437	0.472477
C112	C	1.898163	0.188563	0.972477
C113	C	1.490590	-0.314533	0.477168
C114	C	1.990590	0.185467	0.977168
C115	C	1.170321	-0.310685	0.678363
C116	C	1.670321	0.189315	1.178363
C117	C	1.165654	-0.313462	0.770790
C118	C	1.665654	0.186538	1.270790
C119	C	1.181433	-0.167803	0.461537
C120	C	1.681433	0.332197	0.961537
C121	C	1.181502	-0.109693	0.461565
C122	C	1.681502	0.390307	0.961565
C123	C	1.192226	-0.297642	0.245423
C124	C	1.692226	0.202358	0.745423
C125	C	1.197053	-0.294724	0.153004
C126	C	1.697053	0.205276	0.653004
C127	C	1.157105	-0.318519	0.940014
C128	C	1.657105	0.181481	1.440014
C129	C	1.205601	-0.289668	0.983785
C130	C	1.705601	0.210332	1.483785
C131	C	1.200844	-0.292482	1.077948
C132	C	1.700844	0.207518	1.577948
C133	C	1.161861	-0.315706	0.845843
C134	C	1.661861	0.184294	1.345843
H135	H	0.670310	-0.258482	0.392343
H136	H	1.170310	0.241518	0.892343
H137	H	1.282869	-1.005847	0.370032
H138	H	1.782869	-0.505847	0.870032
H139	H	1.112017	-0.345331	0.973256
H140	H	1.612017	0.154669	1.473256
H141	H	1.079774	-0.601965	0.552973
H142	H	1.579774	-0.101965	1.052973
H143	H	1.282922	-1.104917	0.370061
H144	H	1.782922	-0.604917	0.870061
C145	C	0.957013	-0.711560	0.568147
C146	C	1.457013	-0.211560	1.068147
C147	C	1.008025	-0.746102	0.617809
C148	C	1.508025	-0.246102	1.117809
H149	H	0.919059	-0.692927	0.602370
H150	H	1.419059	-0.192927	1.102370
H151	H	0.927089	-0.730743	0.530287
H152	H	1.427089	-0.230743	1.030287
H153	H	0.990298	-0.687578	0.538114
H154	H	1.490298	-0.187578	1.038114
H155	H	0.974741	-0.770086	0.647838
H156	H	1.474741	-0.270086	1.147838
H157	H	1.037951	-0.726918	0.655684
H158	H	1.537951	-0.226918	1.155684
H159	H	1.079719	-0.502896	0.552940
H160	H	1.579719	-0.002896	1.052940
C161	C	1.436063	-0.851760	0.327429
C162	C	1.936063	-0.351760	0.827429
C163	C	1.354649	-0.861728	0.305230
C164	C	1.854649	-0.361728	0.805230
H165	H	1.474019	-0.870389	0.293201
H166	H	1.974019	-0.370389	0.793201
H167	H	1.445363	-0.862778	0.383919
H168	H	1.945363	-0.362778	0.883919
H169	H	1.444025	-0.815353	0.320209
H170	H	1.944025	-0.315353	0.820209
H171	H	1.346686	-0.898135	0.312457
H172	H	1.846686	-0.398135	0.812457
H173	H	1.345346	-0.850713	0.248726
H174	H	1.845346	-0.350713	0.748726
H175	H	1.250692	-0.262854	0.950541
H176	H	1.750692	0.237146	1.450541
H177	H	0.693071	-0.349899	0.530661
H178	H	1.193071	0.150101	1.030661
C179	C	1.077866	-1.101903	0.650715
C180	C	1.577866	-0.601903	1.150715
C181	C	1.064142	-1.112060	0.567446
C182	C	1.564142	-0.612060	1.067446
H183	H	1.039940	-1.120321	0.684948
H184	H	1.539940	-0.620321	1.184948
H185	H	1.069845	-1.065456	0.657918
H186	H	1.569845	-0.565456	1.157918
H187	H	1.133118	-1.113052	0.665755
H188	H	1.633118	-0.613052	1.165755
H189	H	1.008892	-1.100907	0.552405
H190	H	1.508892	-0.600907	1.052405
H191	H	1.072156	-1.148515	0.560240
H192	H	1.572156	-0.648515	1.060240
C193	C	1.013063	-0.962897	0.517776
C194	C	1.513063	-0.462897	1.017776
C195	C	1.064073	-0.997443	0.567432
C196	C	1.564073	-0.497443	1.067432
H197	H	0.975112	-0.944264	0.552002
H198	H	1.475112	-0.444264	1.052002
H199	H	0.983136	-0.982077	0.479914
H200	H	1.483136	-0.482077	0.979914
H201	H	1.046349	-0.938916	0.487744
H202	H	1.546349	-0.438916	0.987744
H203	H	1.030787	-1.021428	0.597459
H204	H	1.530787	-0.521428	1.097459
H205	H	1.094003	-0.978263	0.605309
H206	H	1.594003	-0.478263	1.105309
C207	C	1.021827	-0.850548	0.701108
C208	C	1.521827	-0.350548	1.201108
C209	C	1.008097	-0.860713	0.617843
C210	C	1.508097	-0.360713	1.117843
H211	H	0.983902	-0.868961	0.735348
H212	H	1.483902	-0.368961	1.235348
H213	H	1.013810	-0.814099	0.708301
H214	H	1.513810	-0.314099	1.208301
H215	H	1.077079	-0.861697	0.716146
H216	H	1.577079	-0.361697	1.216146
H217	H	0.952846	-0.849560	0.602803
H218	H	1.452846	-0.349560	1.102803
H219	H	1.016107	-0.897169	0.610646
H220	H	1.516107	-0.397169	1.110646
C221	C	1.284781	-0.505925	0.272280
C222	C	1.784781	-0.005925	0.772280
C223	C	1.298499	-0.495762	0.355548
C224	C	1.798499	0.004238	0.855548
H225	H	1.322717	-0.487515	0.238047
H226	H	1.822717	0.012485	0.738047
H227	H	1.229540	-0.494774	0.257233
H228	H	1.729540	0.005226	0.757233
H229	H	1.292797	-0.542378	0.265085
H230	H	1.792797	-0.042378	0.765085
H231	H	1.290478	-0.459309	0.362743
H232	H	1.790478	0.040691	0.862743
H233	H	1.353754	-0.506910	0.370598
H234	H	1.853754	-0.006910	0.870598
C235	C	1.254483	-0.638682	0.299818
C236	C	1.754483	-0.138682	0.799818
C237	C	1.298593	-0.610395	0.355624
C238	C	1.798593	-0.110395	0.855624
H239	H	1.292454	-0.657333	0.265635
H240	H	1.792454	-0.157333	0.765635
H241	H	1.219900	-0.615255	0.266105
H242	H	1.719900	-0.115255	0.766105
H243	H	1.221190	-0.662651	0.329869
H244	H	1.721190	-0.162651	0.829869
H245	H	1.331882	-0.586424	0.325572
H246	H	1.831882	-0.086424	0.825572
H247	H	1.333191	-0.633825	0.389340
H248	H	1.833191	-0.133825	0.889340
C249	C	1.340885	-0.757285	0.221932
C250	C	1.840885	-0.257285	0.721932
C251	C	1.354589	-0.747120	0.305202
C252	C	1.854589	-0.247120	0.805202
H253	H	1.378832	-0.738880	0.187706
H254	H	1.878832	-0.238880	0.687706
H255	H	1.285649	-0.746130	0.206874
H256	H	1.785649	-0.246130	0.706874
H257	H	1.348895	-0.793739	0.214743
H258	H	1.848895	-0.293739	0.714743
H259	H	1.346573	-0.710666	0.312392
H260	H	1.846573	-0.210666	0.812392
H261	H	1.409839	-0.758272	0.320265
H262	H	1.909839	-0.258272	0.820265
