data_functionalizedCrystal
_audit_creation_method	'MofGen! by Chris Wilmer'
_symmetry_space_group_name_H-M	'P1'
_symmetry_Int_Tables_number	1
_symmetry_cell_setting	triclinic
loop_
_symmetry_equiv_pos_as_xyz
  x,y,z
_cell_length_a	14.971506
_cell_length_b	27.731996
_cell_length_c	13.448316
_cell_angle_alpha	89.987422
_cell_angle_beta	89.992937
_cell_angle_gamma	83.121888
loop_
_atom_site_label
_atom_site_type_symbol
_atom_site_fract_x
_atom_site_fract_y
_atom_site_fract_z
O1	O	1.185918	0.063039	-0.082712
O2	O	0.925399	0.070572	-0.082714
O3	O	1.063774	-0.003555	-0.082692
O4	O	1.047543	0.137166	-0.082735
O5	O	1.063757	-0.003560	0.082692
O6	O	0.925382	0.070568	0.082669
O7	O	1.185901	0.063034	0.082672
Cu8	Cu	1.055640	0.066801	0.097771
Cu9	Cu	1.055660	0.066806	-0.097814
O10	O	1.047526	0.137162	0.082649
C11	C	0.892071	0.070231	-0.000022
C12	C	0.792792	0.069216	-0.000022
C13	C	0.353869	0.108892	-0.000045
C14	C	0.447153	0.109842	-0.000049
C15	C	0.505077	0.066289	-0.000031
C16	C	0.469711	0.021784	-0.000019
C17	C	0.376427	0.020835	-0.000022
C18	C	0.664142	0.023765	-0.000011
C19	C	0.757432	0.024715	-0.000007
C20	C	0.734868	0.112773	-0.000039
C21	C	0.641584	0.111823	-0.000041
C22	C	0.606225	0.067318	-0.000027
C23	C	1.063432	-0.021566	0.000004
C24	C	1.062428	-0.075227	0.000014
C25	C	1.056119	-0.407971	-0.090186
C26	C	1.052305	-0.609647	-0.090203
O27	O	1.051782	-0.635718	-0.166874
N28	N	1.051822	-0.634868	-0.000053
C29	C	1.052287	-0.609668	0.090107
O30	O	1.051779	-0.635747	0.166785
C31	C	1.056094	-0.407992	0.090124
C32	C	1.056586	-0.382774	-0.000032
C33	C	1.056610	-0.382752	-0.180334
C34	C	1.057568	-0.332336	-0.180329
C35	C	1.058035	-0.307139	-0.090175
C36	C	1.057544	-0.332358	-0.000027
C37	C	1.056552	-0.382792	0.180283
C38	C	1.057501	-0.332370	0.180280
C39	C	1.057994	-0.307151	0.090124
C40	C	1.058970	-0.256745	0.090132
N41	N	1.059453	-0.231524	-0.000018
C42	C	1.058985	-0.256721	-0.090171
C43	C	1.050290	-0.715550	0.090092
C44	C	1.049339	-0.765969	0.090088
C45	C	1.049356	-0.765944	-0.090222
C46	C	1.050313	-0.715525	-0.090218
C47	C	1.050773	-0.690329	-0.000058
C48	C	1.060999	-0.150844	-0.090153
C49	C	1.061961	-0.100424	-0.090140
C50	C	1.061939	-0.100453	0.090170
C51	C	1.060982	-0.150869	0.090158
C52	C	1.060509	-0.176063	-0.000012
O53	O	1.059484	-0.230643	0.166762
O54	O	1.059473	-0.230631	-0.166837
C55	C	1.055160	-0.458386	-0.090191
C56	C	1.054669	-0.483605	-0.000043
C57	C	1.055137	-0.458408	0.090111
C58	C	1.053719	-0.534024	-0.000046
C59	C	1.053252	-0.559221	-0.090200
C60	C	1.053735	-0.533999	-0.180350
C61	C	1.054693	-0.483583	-0.180345
C62	C	1.054654	-0.483630	0.180261
C63	C	1.053696	-0.534046	0.180248
C64	C	1.053229	-0.559242	0.090095
C65	C	1.219229	0.063375	-0.000023
C66	C	1.318508	0.064390	-0.000029
C67	C	1.047868	0.155173	-0.000049
C68	C	1.048872	0.208834	-0.000065
N69	N	1.055632	0.066796	0.235336
N70	N	1.055675	0.066806	-0.235378
C71	C	1.116923	0.033986	0.287386
C72	C	1.116929	0.033986	0.391489
C73	C	1.055647	0.066798	0.443540
C74	C	0.994349	0.099610	0.391483
C75	C	0.994340	0.099608	0.287381
C76	C	0.994374	0.099613	0.608463
C77	C	0.994384	0.099616	0.712571
C78	C	1.116963	0.033992	0.712571
C79	C	1.116954	0.033989	0.608469
C80	C	1.055657	0.066802	0.556419
H81	H	0.763661	0.149011	-0.000050
H82	H	0.804591	-0.010750	-0.000001
C83	C	1.062499	-0.072687	-0.189322
N84	N	1.062902	-0.051796	-0.264025
H85	H	1.166836	0.007269	0.433868
C86	C	0.625249	-0.025193	0.000006
N87	N	0.595955	-0.062068	0.000025
C88	C	1.055228	-0.455849	-0.279524
N89	N	1.055629	-0.434962	-0.354231
H90	H	0.516879	-0.013677	-0.000011
C91	C	1.060449	-0.178611	0.189333
N92	N	1.060039	-0.199502	0.264034
C93	C	1.053153	-0.561780	0.279434
N94	N	1.052734	-0.582667	0.354139
C95	C	1.050801	-0.687841	0.189282
N96	N	1.051191	-0.666973	0.263993
C97	C	1.184367	-0.002106	0.551215
N98	N	1.235141	-0.029295	0.508092
H99	H	1.060609	-0.171351	-0.163578
C100	C	1.184387	-0.002104	0.769828
N101	N	1.235170	-0.029290	0.812959
C102	C	0.926922	0.135705	0.230126
N103	N	0.876141	0.162895	0.187003
C104	C	1.050846	-0.687789	-0.189395
N105	N	1.051244	-0.666900	-0.264100
C106	C	0.926965	0.135709	0.769825
N107	N	0.876184	0.162894	0.812949
C108	C	1.053218	-0.561725	-0.279519
N109	N	1.052823	-0.582610	-0.354209
H110	H	0.944457	0.126331	0.566087
H111	H	0.944448	0.126325	0.433868
H112	H	0.306713	0.144358	-0.000052
C113	C	1.184339	-0.002111	0.230140
N114	N	1.235116	-0.029302	0.187024
H115	H	0.347640	-0.015403	-0.000011
C116	C	1.055999	-0.410520	0.279464
N117	N	1.055578	-0.431404	0.354173
H118	H	1.057965	-0.311807	-0.253743
H119	H	1.055035	-0.463120	0.253677
H120	H	0.594425	0.147288	-0.000049
C121	C	0.486044	0.158797	-0.000052
N122	N	0.515336	0.195673	-0.000050
C123	C	1.048835	-0.793670	-0.189392
N124	N	1.048435	-0.814554	-0.264083
C125	C	1.048807	-0.793705	0.189267
N126	N	1.048399	-0.814593	0.263972
H127	H	1.056226	-0.403262	-0.253752
H128	H	1.057862	-0.311856	0.253700
C129	C	1.062444	-0.072726	0.189335
N130	N	1.062815	-0.051840	0.264026
