data_functionalizedCrystal
_audit_creation_method	'MofGen! by Chris Wilmer'
_symmetry_space_group_name_H-M	'P1'
_symmetry_Int_Tables_number	1
_symmetry_cell_setting	triclinic
loop_
_symmetry_equiv_pos_as_xyz
  x,y,z
_cell_length_a	11.792241
_cell_length_b	8.559649
_cell_length_c	10.868271
_cell_angle_alpha	89.996286
_cell_angle_beta	90.001559
_cell_angle_gamma	103.013960
loop_
_atom_site_label
_atom_site_type_symbol
_atom_site_fract_x
_atom_site_fract_y
_atom_site_fract_z
O1	O	-0.038480	-2.119795	0.102301
O2	O	0.461520	-1.619795	0.602301
O3	O	0.020091	-1.655099	0.102309
O4	O	0.520091	-1.155099	0.602309
O5	O	-0.175397	-1.898724	0.102296
O6	O	0.324603	-1.398724	0.602296
O7	O	0.157008	-1.876170	0.102314
O8	O	0.657008	-1.376170	0.602314
O9	O	-0.175390	-1.898702	-0.102349
O10	O	0.324610	-1.398702	0.397651
O11	O	0.020098	-1.655077	-0.102336
O12	O	0.520098	-1.155077	0.397664
O13	O	-0.038472	-2.119773	-0.102343
O14	O	0.461528	-1.619773	0.397657
Zn15	Zn	-0.009186	-1.887421	-0.134831
Zn16	Zn	0.490814	-1.387421	0.365169
Zn17	Zn	-0.009196	-1.887450	0.134797
Zn18	Zn	0.490804	-1.387450	0.634797
O19	O	0.157016	-1.876148	-0.102331
O20	O	0.657016	-1.376148	0.397669
C21	C	-0.217555	-1.897296	-0.000026
C22	C	0.282445	-1.397296	0.499974
C23	C	-0.343180	-1.893056	-0.000025
C24	C	0.156820	-1.393056	0.499975
C25	C	0.024533	-1.595596	-0.000013
C26	C	0.524533	-1.095596	0.499987
C27	C	0.037745	-1.418331	-0.000010
C28	C	0.537745	-0.918331	0.499990
C29	C	-0.042915	-2.179275	-0.000019
C30	C	0.457085	-1.679275	0.499981
C31	C	-0.056127	-2.356541	-0.000014
C32	C	0.443873	-1.856541	0.499986
C33	C	-0.573179	-1.885258	-0.000004
C34	C	-0.073179	-1.385258	0.499996
C35	C	-0.445190	-1.889591	-0.000015
C36	C	0.054810	-1.389591	0.499985
C37	C	0.199173	-1.877576	-0.000006
C38	C	0.699173	-1.377576	0.499994
C39	C	0.324799	-1.881816	0.000001
C40	C	0.824799	-1.381816	0.500001
N41	N	-0.009181	-1.887413	-0.318846
N42	N	0.490819	-1.387413	0.181154
C43	C	-0.009181	-1.887425	-0.430183
C44	C	0.490819	-1.387425	0.069817
C45	C	-0.009194	-1.887446	-0.569861
C46	C	0.490806	-1.387446	-0.069861
N47	N	-0.009211	-1.887471	0.318811
N48	N	0.490789	-1.387471	0.818811
H49	H	-0.146602	-1.439254	-0.000012
H50	H	0.353398	-0.939254	0.499988
C51	C	0.159984	-1.306582	-0.000003
C52	C	0.659984	-0.806582	0.499997
N53	N	0.252052	-1.222413	0.000000
N54	N	0.752052	-0.722413	0.500000
