data_functionalizedCrystal
_audit_creation_method	'MofGen! by Chris Wilmer'
_symmetry_space_group_name_H-M	'P1'
_symmetry_Int_Tables_number	1
_symmetry_cell_setting	triclinic
loop_
_symmetry_equiv_pos_as_xyz
  x,y,z
_cell_length_a	17.699083
_cell_length_b	14.519709
_cell_length_c	16.776229
_cell_angle_alpha	89.992406
_cell_angle_beta	89.998886
_cell_angle_gamma	83.481580
loop_
_atom_site_label
_atom_site_type_symbol
_atom_site_fract_x
_atom_site_fract_y
_atom_site_fract_z
O1	O	1.004412	0.116624	-0.066178
O2	O	0.784077	0.131797	-0.066204
O3	O	0.900087	-0.010052	-0.066183
O4	O	0.888403	0.258474	-0.066199
O5	O	0.900071	-0.010061	0.066393
O6	O	0.784062	0.131789	0.066372
O7	O	1.004397	0.116616	0.066398
Zn8	Zn	0.894227	0.124201	0.087435
Zn9	Zn	0.894247	0.124212	-0.087241
O10	O	0.888388	0.258465	0.066377
C11	C	0.755871	0.131249	0.000080
C12	C	0.671848	0.129618	0.000071
C13	C	0.623466	0.212881	0.000066
C14	C	0.544518	0.211343	0.000076
C15	C	0.513954	0.126541	0.000086
C16	C	0.562343	0.043272	0.000093
C17	C	0.641289	0.044811	0.000088
C18	C	0.243962	0.037064	0.000113
C19	C	0.165010	0.035531	0.000115
C20	C	0.147191	0.203596	0.000101
C21	C	0.226137	0.205135	0.000097
C22	C	0.274519	0.121866	0.000108
C23	C	0.360123	0.123535	0.000098
C24	C	0.428352	0.124872	0.000090
C25	C	0.899534	-0.044414	0.000105
C26	C	0.897903	-0.146789	0.000105
C27	C	0.891896	-0.521659	0.000084
C28	C	0.893564	-0.417358	0.000090
C29	C	0.894899	-0.334227	0.000095
C30	C	0.896568	-0.229920	0.000100
C31	C	1.032603	0.117164	0.000112
C32	C	1.116626	0.118795	0.000116
C33	C	0.888940	0.292827	0.000087
C34	C	0.890572	0.395202	0.000082
N35	N	0.894219	0.124192	0.206646
N36	N	0.894262	0.124213	-0.206452
C37	C	0.945603	0.061407	0.248372
C38	C	0.945607	0.061406	0.331824
C39	C	0.894230	0.124196	0.373549
C40	C	0.842840	0.186984	0.331816
C41	C	0.842833	0.186980	0.248366
C42	C	0.842867	0.187002	0.668364
C43	C	0.842880	0.187004	0.751820
C44	C	0.945642	0.061429	0.751822
C45	C	0.945635	0.061424	0.668372
C46	C	0.894242	0.124209	0.626647
C47	C	0.894238	0.124208	0.536158
C48	C	0.894238	0.124202	0.464036
H49	H	0.251017	0.274189	0.000085
O50	O	0.100114	0.284425	-0.000008
C51	C	0.000669	0.380260	-0.068719
C52	C	0.053923	0.288681	-0.068682
H53	H	-0.036679	0.383739	-0.124245
H54	H	-0.036787	0.383757	-0.013271
H55	H	0.036091	0.441117	-0.068692
H56	H	0.018561	0.227772	-0.068737
H57	H	0.091382	0.285265	-0.124125
O58	O	0.995402	0.000383	0.627718
C59	C	1.040637	-0.055635	0.499160
C60	C	0.984323	0.013651	0.545099
H61	H	1.031689	-0.044945	0.432354
H62	H	1.101357	-0.043915	0.515402
H63	H	1.030520	-0.129392	0.515724
H64	H	0.994370	0.087436	0.528559
H65	H	0.923623	0.001851	0.528853
H66	H	0.801004	0.238106	0.365793
O67	O	0.290987	-0.043794	0.000255
C68	C	0.390499	-0.139584	0.068909
C69	C	0.337269	-0.047986	0.068860
H70	H	0.427943	-0.142994	0.124362
H71	H	0.355133	-0.200494	0.068962
H72	H	0.427868	-0.143045	0.013398
H73	H	0.299890	-0.044434	0.124361
H74	H	0.372681	0.012882	0.068765
H75	H	0.987487	0.010303	0.785804
O76	O	0.793026	0.248125	0.627879
C77	C	0.748859	0.408557	0.602383
C78	C	0.805361	0.339430	0.648269
H79	H	0.758801	0.482392	0.618864
H80	H	0.757667	0.397858	0.535561
H81	H	0.688236	0.396585	0.618798
H82	H	0.866006	0.351360	0.631920
H83	H	0.796486	0.350145	0.715080
H84	H	0.801040	0.238137	0.785791
H85	H	0.140129	-0.033529	0.000124
O86	O	0.792891	0.248061	0.207954
C87	C	0.690932	0.372583	0.216753
C88	C	0.747465	0.303475	0.262618
H89	H	0.654179	0.417389	0.260929
H90	H	0.723623	0.418667	0.177693
H91	H	0.653103	0.332801	0.177674
H92	H	0.785308	0.343181	0.301740
H93	H	0.714727	0.257391	0.301627
O94	O	0.688321	-0.036047	0.000230
C95	C	0.787831	-0.131830	0.068893
C96	C	0.734601	-0.040232	0.068837
H97	H	0.825273	-0.135235	0.124347
H98	H	0.752464	-0.192740	0.068950
H99	H	0.825201	-0.135297	0.013384
H100	H	0.697220	-0.036675	0.124337
H101	H	0.770013	0.020636	0.068738
O102	O	0.653061	0.295317	-0.000050
C103	C	0.662010	0.439420	-0.068769
C104	C	0.628432	0.346100	-0.068730
H105	H	0.642123	0.480496	-0.124299
H106	H	0.642072	0.480616	-0.013325
H107	H	0.726744	0.426200	-0.068735
H108	H	0.563697	0.359236	-0.068792
H109	H	0.648429	0.304933	-0.124169
O110	O	0.497445	0.292166	-0.000042
C111	C	0.398006	0.387999	-0.068764
C112	C	0.451257	0.296418	-0.068718
H113	H	0.360660	0.391475	-0.124291
H114	H	0.360548	0.391504	-0.013317
H115	H	0.433431	0.448854	-0.068740
H116	H	0.415892	0.235511	-0.068770
H117	H	0.488718	0.292994	-0.124160
H118	H	0.537452	-0.025775	0.000112
O119	O	0.995437	0.000267	0.207898
C120	C	1.039582	-0.160181	0.182483
C121	C	0.983092	-0.091026	0.228340
H122	H	1.029631	-0.234006	0.199006
H123	H	1.030770	-0.149509	0.115656
H124	H	1.100209	-0.148215	0.198882
H125	H	0.922442	-0.102949	0.212008
H126	H	0.991970	-0.101715	0.295156
H127	H	0.987448	0.010281	0.365798
