data_functionalizedCrystal
_audit_creation_method	'MofGen! by Chris Wilmer'
_symmetry_space_group_name_H-M	'P1'
_symmetry_Int_Tables_number	1
_symmetry_cell_setting	triclinic
loop_
_symmetry_equiv_pos_as_xyz
  x,y,z
_cell_length_a	17.699083
_cell_length_b	15.500227
_cell_length_c	17.699083
_cell_angle_alpha	87.178547
_cell_angle_beta	83.283015
_cell_angle_gamma	92.832683
loop_
_atom_site_label
_atom_site_type_symbol
_atom_site_fract_x
_atom_site_fract_y
_atom_site_fract_z
O1	O	1.007597	0.071824	0.092197
O2	O	0.787220	0.071853	0.104648
O3	O	0.903634	0.071830	-0.011766
O4	O	0.891183	0.071847	0.208611
O5	O	0.896570	-0.072057	-0.004730
O6	O	0.780156	-0.072035	0.111685
O7	O	1.000533	-0.072063	0.099234
Cu8	Cu	0.889699	-0.085187	0.106102
Cu9	Cu	0.898054	0.084976	0.097780
O10	O	0.884118	-0.072041	0.215648
C11	C	0.755491	-0.000087	0.107720
C12	C	0.671474	-0.000077	0.106381
N13	N	0.883829	-0.204871	0.111954
C14	C	0.622853	-0.000072	0.174714
C15	C	0.543909	-0.000083	0.173452
C16	C	0.513588	-0.000093	0.103856
C17	C	0.562214	-0.000101	0.035518
C18	C	0.641157	-0.000096	0.036781
C19	C	0.243850	-0.000123	0.030424
C20	C	0.164902	-0.000125	0.029166
C21	C	0.146603	-0.000110	0.167095
C22	C	0.225545	-0.000105	0.168358
C23	C	0.274164	-0.000117	0.100020
C24	C	0.359764	-0.000106	0.101389
C25	C	0.427990	-0.000098	0.102486
C26	C	0.933175	-0.250157	0.062643
C27	C	0.928742	-0.340729	0.067077
C28	C	0.874966	-0.386013	0.120825
C29	C	0.825615	-0.340721	0.170137
C30	C	0.830045	-0.250150	0.165700
C31	C	0.859009	-0.659477	0.136797
C32	C	0.854584	-0.750054	0.141232
C33	C	0.957710	-0.750056	0.038170
C34	C	0.962138	-0.659484	0.033740
C35	C	0.912785	-0.614199	0.083050
C36	C	0.870436	-0.478592	0.125359
C37	C	0.917312	-0.521622	0.078512
C38	C	1.032262	-0.000121	0.096162
C39	C	1.116280	-0.000126	0.097500
C40	C	0.899656	-0.000114	-0.036445
C41	C	0.898317	-0.000114	-0.120463
N42	N	0.903930	0.204660	0.091921
C43	C	0.966650	-0.000124	-0.169084
C44	C	0.965388	-0.000116	-0.248027
C45	C	0.895793	-0.000105	-0.278349
C46	C	0.827455	-0.000092	-0.229722
C47	C	0.828718	-0.000094	-0.150780
C48	C	0.822360	-0.000084	-0.548085
C49	C	0.821102	-0.000085	-0.627033
C50	C	0.959031	-0.000107	-0.645332
C51	C	0.960294	-0.000109	-0.566391
C52	C	0.891956	-0.000091	-0.517771
C53	C	0.893325	-0.000098	-0.432172
C54	C	0.894422	-0.000104	-0.363946
C55	C	0.888097	-0.000095	0.240326
C56	C	0.889436	-0.000089	0.324344
H57	H	0.647534	-0.000063	0.231387
F58	F	0.813205	-0.526792	0.182562
H59	H	0.140218	-0.000134	-0.027511
H60	H	0.107007	-0.000105	0.222739
H61	H	0.968923	-0.377601	0.026923
H62	H	0.250228	-0.000093	0.225030
H63	H	0.976968	-0.213293	0.018879
H64	H	0.283428	-0.000133	-0.025221
F65	F	0.749629	-0.000064	-0.496351
H66	H	0.504325	-0.000078	0.229096
F67	F	0.529942	-0.000117	-0.038551
F68	F	1.040725	-0.000145	-0.136821
H69	H	0.680743	-0.000099	-0.018863
F70	F	0.753385	-0.000070	-0.261995
H71	H	0.789861	-0.213279	0.205853
H72	H	1.005927	-0.622615	-0.010026
H73	H	1.021032	-0.000126	-0.287611
F74	F	0.755988	-0.000080	-0.099035
H75	H	0.997891	-0.786935	-0.001977
H76	H	0.810791	-0.786920	0.185003
F77	F	1.034367	-0.000120	-0.534125
H78	H	0.764425	-0.000077	-0.651717
H79	H	0.818824	-0.622613	0.176949
H80	H	0.781826	-0.377596	0.213898
F81	F	1.031762	-0.000122	-0.697083
F82	F	0.974540	-0.473426	0.021308
