data_functionalizedCrystal
_audit_creation_method	'MofGen! by Chris Wilmer'
_symmetry_space_group_name_H-M	'P1'
_symmetry_Int_Tables_number	1
_symmetry_cell_setting	triclinic
loop_
_symmetry_equiv_pos_as_xyz
  x,y,z
_cell_length_a	10.654546
_cell_length_b	15.625429
_cell_length_c	9.730223
_cell_angle_alpha	71.921515
_cell_angle_beta	89.998853
_cell_angle_gamma	84.351377
loop_
_atom_site_label
_atom_site_type_symbol
_atom_site_fract_x
_atom_site_fract_y
_atom_site_fract_z
O1	O	1.666516	0.126604	-0.177406
O2	O	1.300911	0.138671	-0.183415
O3	O	1.493485	0.001463	-0.115038
O4	O	1.473941	0.263811	-0.245783
O5	O	1.493483	0.001467	0.113540
O6	O	1.300908	0.138674	0.045163
O7	O	1.666513	0.126607	0.051172
Zn8	Zn	1.483710	0.132641	0.084459
Zn9	Zn	1.483713	0.132637	-0.216702
O10	O	1.473939	0.263814	-0.017205
C11	C	1.254121	0.137787	-0.068684
C12	C	1.114705	0.135138	-0.067363
C13	C	1.049224	0.133883	-0.191342
C14	C	0.918230	0.131387	-0.190109
C15	C	0.918208	0.131398	0.059095
C16	C	1.049199	0.133900	0.057858
C17	C	1.049236	0.133872	-0.335217
C18	C	0.918242	0.131376	-0.333984
C19	C	1.492600	-0.032128	0.015989
C20	C	1.489953	-0.132223	0.065864
C21	C	1.481216	-0.461433	-0.393042
C22	C	1.478722	-0.555487	-0.346134
C23	C	1.478720	-0.555470	-0.096954
C24	C	1.481220	-0.461414	-0.143841
C25	C	1.482466	-0.414403	-0.291886
C26	C	1.482470	-0.414385	-0.042685
C27	C	1.484963	-0.320337	-0.089569
C28	C	1.486205	-0.273319	-0.237608
C29	C	1.484959	-0.320356	-0.338770
C30	C	1.481215	-0.461397	0.105359
C31	C	1.482465	-0.414367	0.206515
C32	C	1.484967	-0.320318	0.159632
C33	C	1.486210	-0.273300	0.011593
C34	C	1.486214	-0.273281	0.260794
C35	C	1.488707	-0.179234	0.213910
C36	C	1.488702	-0.179252	-0.035291
C37	C	1.713303	0.127491	-0.063562
C38	C	1.852719	0.130139	-0.064892
C39	C	1.474824	0.297405	-0.148235
C40	C	1.477471	0.397500	-0.198120
N41	N	1.483718	0.132644	0.289994
N42	N	1.483716	0.132627	-0.422234
C43	C	1.569011	0.071909	0.392187
C44	C	1.569008	0.071898	0.536076
C45	C	1.398414	0.193364	0.475562
C46	C	1.398412	0.193370	0.331678
C47	C	1.667506	0.001784	0.427125
C48	C	1.667503	0.001773	0.571013
H49	H	1.101629	0.069669	-0.347855
H50	H	0.864857	0.130391	0.161045
F51	F	1.080816	0.217070	-0.448887
F52	F	0.849769	0.215289	-0.434175
H53	H	1.488221	-0.196738	-0.275779
H54	H	1.485186	-0.311571	0.381332
H55	H	0.894092	0.067718	-0.357501
H56	H	1.763854	0.017218	0.602365
H57	H	1.328959	0.242806	0.509517
F58	F	1.482559	-0.411397	-0.550609
F59	F	1.786383	0.030491	0.354480
F60	F	1.477385	-0.605536	-0.453810
H61	H	1.485985	-0.282078	-0.459323
H62	H	1.489728	-0.140974	-0.155844
F63	F	1.477384	-0.605511	0.060602
H64	H	1.637673	-0.063708	0.648262
H65	H	1.479172	-0.537975	0.143527
H66	H	1.102507	0.134932	0.158809
H67	H	1.481446	-0.452655	0.327054
H68	H	1.489698	-0.140939	0.296280
F69	F	1.307618	0.258000	0.222922
F70	F	1.640424	-0.088784	0.421208
