data_functionalizedCrystal
_audit_creation_method	'MofGen! by Chris Wilmer'
_symmetry_space_group_name_H-M	'P1'
_symmetry_Int_Tables_number	1
_symmetry_cell_setting	triclinic
loop_
_symmetry_equiv_pos_as_xyz
  x,y,z
_cell_length_a	19.121241
_cell_length_b	29.839131
_cell_length_c	29.839104
_cell_angle_alpha	89.861105
_cell_angle_beta	87.483924
_cell_angle_gamma	92.469032
loop_
_atom_site_label
_atom_site_type_symbol
_atom_site_fract_x
_atom_site_fract_y
_atom_site_fract_z
Zn1	Zn	1.074156	-0.149111	-0.283353
Zn2	Zn	1.574156	0.350889	0.216647
Zn3	Zn	1.073931	-0.224378	-0.208207
Zn4	Zn	1.573931	0.275622	0.291793
Zn5	Zn	0.956579	-0.152464	-0.205021
Zn6	Zn	1.456579	0.347536	0.294979
Zn7	Zn	0.956642	-0.227421	-0.280101
Zn8	Zn	1.456642	0.272579	0.219899
O9	O	1.015327	-0.188344	-0.244170
O10	O	1.515327	0.311656	0.255830
O11	O	1.172418	-0.156419	-0.276079
O12	O	1.672418	0.343581	0.223921
O13	O	1.058243	-0.214969	-0.144913
O14	O	1.558243	0.285031	0.355087
O15	O	0.972244	-0.089150	-0.215439
O16	O	1.472244	0.410850	0.284561
O17	O	1.172252	-0.211717	-0.220869
O18	O	1.672252	0.288283	0.279131
O19	O	1.058628	-0.086687	-0.272990
O20	O	1.558628	0.413313	0.227010
O21	O	0.972025	-0.162134	-0.142573
O22	O	1.472025	0.337866	0.357427
O23	O	0.858295	-0.165084	-0.212286
O24	O	1.358295	0.334916	0.287714
O25	O	0.972352	-0.216903	-0.343404
O26	O	1.472352	0.283097	0.156596
O27	O	0.858342	-0.220154	-0.267448
O28	O	1.358342	0.279846	0.232552
O29	O	1.058689	-0.159369	-0.345793
O30	O	1.558689	0.340631	0.154207
O31	O	1.058304	-0.287651	-0.217716
O32	O	1.558304	0.212349	0.282284
O33	O	0.972133	-0.289886	-0.270537
O34	O	1.472133	0.210114	0.229463
C35	C	0.832833	-0.193313	-0.239168
C36	C	1.332833	0.306687	0.260832
C37	C	0.754761	-0.195450	-0.237039
C38	C	1.254761	0.304550	0.262961
C39	C	0.718170	-0.167709	-0.264828
C40	C	1.218170	0.332291	0.235172
C41	C	0.644813	-0.169714	-0.262823
C42	C	1.144813	0.330286	0.237177
C43	C	0.608048	-0.199464	-0.233032
C44	C	1.108048	0.300536	0.266968
C45	C	0.644645	-0.227207	-0.205241
C46	C	1.144645	0.272793	0.294759
C47	C	0.718000	-0.225198	-0.207243
C48	C	1.218000	0.274802	0.292757
C49	C	0.386558	-0.206963	-0.225543
C50	C	0.886558	0.293037	0.274457
C51	C	0.313197	-0.208971	-0.223544
C52	C	0.813197	0.291029	0.276456
C53	C	0.313370	-0.151477	-0.281126
C54	C	0.813370	0.348523	0.218874
C55	C	0.386727	-0.149474	-0.283128
C56	C	0.886727	0.350526	0.216872
C57	C	0.423317	-0.177215	-0.255335
C58	C	0.923317	0.322785	0.244665
C59	C	0.533066	-0.201516	-0.230984
C60	C	1.033066	0.298484	0.269016
C61	C	0.498298	-0.175160	-0.257381
C62	C	0.998298	0.324840	0.242619
C63	C	1.015220	-0.305069	-0.244130
C64	C	1.515220	0.194931	0.255870
C65	C	1.015238	-0.355003	-0.244129
C66	C	1.515238	0.144997	0.255871
C67	C	1.060297	-0.663327	-0.274178
C68	C	1.560297	-0.163327	0.225822
C69	C	1.060374	-0.850997	-0.274207
C70	C	1.560374	-0.350997	0.225793
O71	O	1.098579	-0.874143	-0.299724
O72	O	1.598579	-0.374143	0.200276
N73	N	1.015446	-0.875782	-0.244224
N74	N	1.515446	-0.375782	0.255776
C75	C	0.970494	-0.853647	-0.214233
C76	C	1.470494	-0.353647	0.285767
O77	O	0.932277	-0.879034	-0.188734
O78	O	1.432277	-0.379034	0.311266
C79	C	0.970415	-0.665977	-0.214206
C80	C	1.470415	-0.165977	0.285794
C81	C	1.015350	-0.641194	-0.244188
C82	C	1.515350	-0.141194	0.255812
C83	C	1.105228	-0.638544	-0.304158
C84	C	1.605228	-0.138544	0.195842
C85	C	1.105211	-0.591629	-0.304149
C86	C	1.605211	-0.091629	0.195851
C87	C	1.060264	-0.569497	-0.274159
C88	C	1.560264	-0.069497	0.225841
C89	C	1.015333	-0.594279	-0.244179
C90	C	1.515333	-0.094279	0.255821
C91	C	0.925459	-0.643842	-0.184218
C92	C	1.425459	-0.143842	0.315782
C93	C	0.925442	-0.596922	-0.184215
C94	C	1.425442	-0.096922	0.315785
C95	C	0.970377	-0.572139	-0.214197
C96	C	1.470377	-0.072139	0.285803
C97	C	0.970368	-0.525232	-0.214181
C98	C	1.470368	-0.025232	0.285819
N99	N	1.015295	-0.500447	-0.244164
N100	N	1.515295	-0.000447	0.255836
C101	C	1.060243	-0.522579	-0.274153
C102	C	1.560243	-0.022579	0.225847
C103	C	0.970540	-0.952176	-0.214248
C104	C	1.470540	-0.452176	0.285752
C105	C	0.970560	-0.999093	-0.214254
C106	C	1.470560	-0.499093	0.285746
C107	C	1.060439	-0.996441	-0.274229
C108	C	1.560439	-0.496441	0.225771
C109	C	1.060422	-0.949523	-0.274220
C110	C	1.560422	-0.449523	0.225780
C111	C	1.015467	-0.927391	-0.244232
C112	C	1.515467	-0.427391	0.255768
C113	C	1.060205	-0.424055	-0.274131
C114	C	1.560205	0.075945	0.225869
C115	C	1.060186	-0.377136	-0.274118
C116	C	1.560186	0.122864	0.225882
C117	C	0.970305	-0.379792	-0.214145
C118	C	1.470305	0.120208	0.285855
C119	C	0.970326	-0.426707	-0.214157
C120	C	1.470326	0.073293	0.285843
C121	C	1.015278	-0.448837	-0.244153
C122	C	1.515278	0.051163	0.255847
O123	O	0.932177	-0.502057	-0.188680
O124	O	1.432177	-0.002057	0.311320
O125	O	1.098443	-0.497184	-0.299655
O126	O	1.598443	0.002816	0.200345
C127	C	1.060314	-0.710242	-0.274187
C128	C	1.560314	-0.210242	0.225813
C129	C	1.015383	-0.735024	-0.244207
C130	C	1.515383	-0.235024	0.255793
C131	C	0.970436	-0.712892	-0.214218
C132	C	1.470436	-0.212892	0.285782
C133	C	1.015404	-0.781941	-0.244213
C134	C	1.515404	-0.281941	0.255787
C135	C	1.060352	-0.804074	-0.274202
C136	C	1.560352	-0.304074	0.225798
C137	C	1.105279	-0.779289	-0.304185
C138	C	1.605279	-0.279289	0.195815
C139	C	1.105262	-0.732374	-0.304176
C140	C	1.605262	-0.232374	0.195824
C141	C	0.925508	-0.737677	-0.184234
C142	C	1.425508	-0.237677	0.315766
C143	C	0.925530	-0.784591	-0.184246
C144	C	1.425530	-0.284591	0.315754
C145	C	0.970477	-0.806724	-0.214235
C146	C	1.470477	-0.306724	0.285765
C147	C	1.198534	-0.183355	-0.249192
C148	C	1.698534	0.316645	0.250808
C149	C	1.276606	-0.181229	-0.251332
C150	C	1.776606	0.318771	0.248668
C151	C	1.015553	-0.188101	-0.361356
C152	C	1.515553	0.311899	0.138644
C153	C	1.015649	-0.187998	-0.411293
C154	C	1.515649	0.312002	0.088707
C155	C	1.015454	-0.071162	-0.244222
C156	C	1.515454	0.428838	0.255778
C157	C	1.015508	-0.021226	-0.244244
C158	C	1.515508	0.478774	0.255756
C159	C	1.015143	-0.188552	-0.127442
C160	C	1.515143	0.311448	0.372558
C161	C	1.015183	-0.188525	-0.077509
C162	C	1.515183	0.311475	0.422491
C163	C	1.060660	-0.215530	0.277864
C164	C	1.560660	0.284470	0.777864
C165	C	1.060523	-0.215679	0.090195
C166	C	1.560523	0.284321	0.590195
O167	O	1.098977	-0.238893	0.064905
O168	O	1.598977	0.261107	0.564905
N169	N	1.015292	-0.188408	0.067933
N170	N	1.515292	0.311592	0.567933
C171	C	0.970095	-0.161095	0.092590
C172	C	1.470095	0.338905	0.592590
O173	O	0.931626	-0.137899	0.069348
O174	O	1.431626	0.362101	0.569348
C175	C	0.970236	-0.160944	0.280258
C176	C	1.470236	0.339056	0.780258
C177	C	1.015465	-0.188221	0.302519
C178	C	1.515465	0.311779	0.802519
C179	C	1.105886	-0.242804	0.300125
C180	C	1.605886	0.257196	0.800125
C181	C	1.105916	-0.242768	0.347039
C182	C	1.605916	0.257232	0.847039
C183	C	1.060722	-0.215459	0.371693
C184	C	1.560722	0.284541	0.871693
C185	C	1.015496	-0.188185	0.349433
C186	C	1.515496	0.311815	0.849433
C187	C	0.925043	-0.133630	0.304915
C188	C	1.425043	0.366370	0.804915
C189	C	0.925083	-0.133593	0.351834
C190	C	1.425083	0.366407	0.851834
C191	C	0.970312	-0.160870	0.374095
C192	C	1.470312	0.339130	0.874095
C193	C	0.970332	-0.160840	0.421002
C194	C	1.470332	0.339160	0.921002
N195	N	1.015563	-0.188111	0.443264
N196	N	1.515563	0.311889	0.943264
C197	C	1.060758	-0.215421	0.418610
C198	C	1.560758	0.284579	0.918610
C199	C	0.970024	-0.161177	-0.005938
C200	C	1.470024	0.338823	0.494062
C201	C	0.969988	-0.161215	-0.052855
C202	C	1.469988	0.338785	0.447145
C203	C	1.060417	-0.215799	-0.055247
C204	C	1.560417	0.284201	0.444753
C205	C	1.060449	-0.215762	-0.008329
C206	C	1.560449	0.284238	0.491671
C207	C	1.015255	-0.188448	0.016324
C208	C	1.515255	0.311552	0.516324
C209	C	1.060819	-0.215344	0.517134
C210	C	1.560819	0.284656	1.017134
C211	C	1.060844	-0.215307	0.564053
C212	C	1.560844	0.284693	1.064053
C213	C	0.970418	-0.160722	0.566440
C214	C	1.470418	0.339278	1.066440
C215	C	0.970390	-0.160761	0.519526
C216	C	1.470390	0.339239	1.019526
C217	C	1.015596	-0.188073	0.494874
C218	C	1.515596	0.311927	0.994874
O219	O	0.931904	-0.137634	0.446320
O220	O	1.431904	0.362366	0.946320
O221	O	1.099233	-0.238606	0.441860
O222	O	1.599233	0.261394	0.941860
C223	C	1.060629	-0.215566	0.230950
C224	C	1.560629	0.284434	0.730950
C225	C	1.015403	-0.188292	0.208689
C226	C	1.515403	0.311708	0.708689
C227	C	0.970208	-0.160983	0.233344
C228	C	1.470208	0.339017	0.733344
C229	C	1.015367	-0.188330	0.161773
C230	C	1.515367	0.311670	0.661773
C231	C	1.060562	-0.215640	0.137119
C232	C	1.560562	0.284360	0.637119
C233	C	1.105793	-0.242911	0.159381
C234	C	1.605793	0.257089	0.659381
C235	C	1.105824	-0.242875	0.206296
C236	C	1.605824	0.257125	0.706296
C237	C	0.924977	-0.133711	0.211081
C238	C	1.424977	0.366289	0.711081
C239	C	0.924949	-0.133750	0.164166
C240	C	1.424949	0.366250	0.664166
C241	C	0.970144	-0.161059	0.139512
C242	C	1.470144	0.338941	0.639512
H243	H	0.283571	-0.128892	-0.303753
H244	H	0.783571	0.371108	0.196247
O245	O	0.921680	-0.131266	0.593039
O246	O	1.421680	0.368734	1.093039
H247	H	0.866622	-0.140728	0.585636
H248	H	1.366622	0.359272	1.085636
O249	O	0.604993	-0.259291	-0.173106
O250	O	1.104993	0.240709	0.326894
H251	H	0.619068	-0.294162	-0.181121
H252	H	1.119068	0.205838	0.318879
H253	H	1.096780	-0.356959	-0.298533
H254	H	1.596780	0.143041	0.201467
H255	H	0.933711	-0.361765	-0.189727
H256	H	1.433711	0.138235	0.310273
O257	O	1.109161	-0.245259	-0.081840
O258	O	1.609161	0.254741	0.418160
H259	H	1.164215	-0.235795	-0.074429
H260	H	1.664215	0.264205	0.425571
O261	O	0.273540	-0.241056	-0.191408
O262	O	0.773540	0.258944	0.308592
H263	H	0.311306	-0.260006	-0.172414
H264	H	0.811306	0.239994	0.327586
H265	H	0.747792	-0.247788	-0.184615
H266	H	1.247792	0.252212	0.315385
O267	O	0.876169	-0.104324	0.140158
O268	O	1.376169	0.395676	0.640158
H269	H	0.821125	-0.113768	0.150757
H270	H	1.321125	0.386232	0.650757
O271	O	1.108692	-0.447921	-0.306481
O272	O	1.608692	0.052079	0.193519
H273	H	1.139933	-0.422799	-0.327321
H274	H	1.639933	0.077201	0.172679
O275	O	1.154609	-0.272293	0.230303
O276	O	1.654609	0.227707	0.730303
H277	H	1.190152	-0.251037	0.250603
H278	H	1.690152	0.248963	0.750603
O279	O	0.757816	-0.135620	-0.296961
O280	O	1.257816	0.364380	0.203039
H281	H	0.814973	-0.138885	-0.293689
H282	H	1.314973	0.361115	0.206311
O283	O	1.153753	-0.803169	-0.336533
O284	O	1.653753	-0.303169	0.163467
H285	H	1.208876	-0.792658	-0.330368
H286	H	1.708876	-0.292658	0.169632
H287	H	0.416341	-0.229553	-0.202913
H288	H	0.916341	0.270447	0.297087
H289	H	0.933931	-0.934160	-0.189827
H290	H	1.433931	-0.434160	0.310173
H291	H	0.528235	-0.150936	-0.281635
H292	H	1.028235	0.349064	0.218365
O293	O	1.109637	-0.244722	0.588063
O294	O	1.609637	0.255278	1.088063
H295	H	1.141065	-0.263711	0.563034
H296	H	1.641065	0.236289	1.063034
H297	H	1.097631	-0.237583	0.497068
H298	H	1.597631	0.262417	0.997068
O299	O	0.876986	-0.670562	-0.151881
O300	O	1.376986	-0.170562	0.348119
H301	H	0.908406	-0.691120	-0.129897
H302	H	1.408406	-0.191120	0.370103
O303	O	0.876261	-0.104208	0.280912
O304	O	1.376261	0.395792	0.780912
H305	H	0.907451	-0.080376	0.258573
H306	H	1.407451	0.419624	0.758573
H307	H	0.888174	-0.111472	0.231150
H308	H	1.388174	0.388528	0.731150
O309	O	0.493412	-0.233603	-0.198852
O310	O	0.993412	0.266397	0.301148
H311	H	0.460020	-0.257364	-0.218004
H312	H	0.960020	0.242636	0.281996
O313	O	0.876338	-0.104132	0.378426
O314	O	1.376338	0.395868	0.878426
H315	H	0.844883	-0.085176	0.355061
H316	H	1.344883	0.414824	0.855061
H317	H	1.142591	-0.265148	0.139300
H318	H	1.642591	0.234852	0.639300
O319	O	1.153711	-0.662412	-0.336506
O320	O	1.653711	-0.162412	0.163494
H321	H	1.208826	-0.651890	-0.330333
H322	H	1.708826	-0.151890	0.169667
O323	O	0.605349	-0.139791	-0.292795
O324	O	1.105349	0.360209	0.207205
H325	H	0.571956	-0.160800	-0.314698
H326	H	1.071956	0.339200	0.185302
H327	H	1.097038	-1.014469	-0.298647
H328	H	1.597038	-0.514469	0.201353
O329	O	0.876960	-0.573050	-0.151865
O330	O	1.376960	-0.073050	0.348135
H331	H	0.845727	-0.598168	-0.131017
H332	H	1.345727	-0.098168	0.368983
H333	H	1.142744	-0.264981	0.365160
H334	H	1.642744	0.235019	0.865160
H335	H	1.141799	-0.571454	-0.328564
H336	H	1.641799	-0.071454	0.171436
H337	H	1.097011	-0.929347	-0.298635
H338	H	1.597011	-0.429347	0.201365
H339	H	1.097283	-0.237970	0.009792
H340	H	1.597283	0.262030	0.509792
O341	O	0.921864	-0.453442	-0.181819
O342	O	1.421864	0.046558	0.318181
H343	H	0.890604	-0.430167	-0.160966
H344	H	1.390604	0.069833	0.339034
H345	H	0.416656	-0.125250	-0.307388
H346	H	0.916656	0.374750	0.192612
H347	H	0.933977	-1.019267	-0.189835
H348	H	1.433977	-0.519267	0.310165
O349	O	0.921203	-0.131798	-0.076863
O350	O	1.421203	0.368202	0.423137
H351	H	0.889791	-0.112799	-0.051833
H352	H	1.389791	0.387201	0.448167
H353	H	0.933557	-0.138553	0.501401
H354	H	1.433557	0.361447	1.001401
H355	H	1.142692	-0.265043	0.280056
H356	H	1.642692	0.234957	0.780056
O357	O	1.153735	-0.705646	-0.336510
O358	O	1.653735	-0.205646	0.163490
H359	H	1.184988	-0.728925	-0.357362
H360	H	1.684988	-0.228925	0.142638
O361	O	0.877060	-0.811320	-0.151907
O362	O	1.377060	-0.311320	0.348093
H363	H	0.845799	-0.788043	-0.131057
H364	H	1.345799	-0.288043	0.368943
H365	H	0.888906	-0.719660	-0.159814
H366	H	1.388906	-0.219660	0.340186
H367	H	0.933219	-0.138934	0.014130
H368	H	1.433219	0.361066	0.514130
