data_functionalizedCrystal
_audit_creation_method	'MofGen! by Chris Wilmer'
_symmetry_space_group_name_H-M	'P1'
_symmetry_Int_Tables_number	1
_symmetry_cell_setting	triclinic
loop_
_symmetry_equiv_pos_as_xyz
  x,y,z
_cell_length_a	18.215407
_cell_length_b	21.295418
_cell_length_c	21.295412
_cell_angle_alpha	90.029499
_cell_angle_beta	90.016570
_cell_angle_gamma	90.027848
loop_
_atom_site_label
_atom_site_type_symbol
_atom_site_fract_x
_atom_site_fract_y
_atom_site_fract_z
Zn1	Zn	1.125035	-0.250614	0.355921
Zn2	Zn	1.124945	-0.355883	0.250649
Zn3	Zn	1.001975	-0.250633	0.250666
Zn4	Zn	1.001928	-0.355850	0.355881
O5	O	1.063471	-0.303245	0.303279
O6	O	1.228008	-0.264584	0.341966
O7	O	1.108615	-0.341944	0.162562
O8	O	1.018356	-0.162541	0.264652
O9	O	1.227942	-0.341925	0.264624
O10	O	1.108768	-0.162527	0.341982
O11	O	1.018269	-0.264616	0.162574
O12	O	0.898985	-0.264584	0.264613
O13	O	1.018277	-0.341869	0.443976
O14	O	0.898950	-0.341887	0.341914
O15	O	1.108723	-0.264552	0.444005
O16	O	1.108570	-0.443968	0.264585
O17	O	1.018190	-0.443944	0.341898
C18	C	0.872265	-0.303234	0.303261
C19	C	0.790466	-0.303245	0.303268
C20	C	0.602273	-0.343560	0.343469
C21	C	0.525415	-0.343562	0.343476
C22	C	0.525421	-0.262942	0.263104
C23	C	0.602278	-0.262937	0.263099
C24	C	0.640702	-0.303250	0.303281
C25	C	0.486986	-0.303256	0.303293
C26	C	0.403653	-0.303258	0.303301
C27	C	0.724041	-0.303247	0.303274
C28	C	1.063385	-0.466797	0.303249
C29	C	1.063415	-0.536765	0.303257
C30	C	1.110709	-1.036215	0.263124
C31	C	1.110681	-0.970472	0.263109
C32	C	1.063575	-0.937604	0.303323
C33	C	1.016480	-0.970484	0.343544
C34	C	1.016504	-1.036226	0.343553
N35	N	1.057850	-0.834352	0.358406
N36	N	1.057831	-0.771901	0.358396
C37	C	1.063498	-0.739530	0.303297
N38	N	1.069198	-0.771969	0.248208
N39	N	1.069221	-0.834426	0.248219
C40	C	1.063543	-0.866319	0.303317
C41	C	1.110556	-0.635372	0.263059
C42	C	1.110523	-0.569628	0.263043
C43	C	1.016326	-0.569642	0.343484
C44	C	1.016355	-0.635384	0.343495
C45	C	1.063474	-0.668245	0.303283
C46	C	1.255424	-0.303256	0.303298
C47	C	1.337223	-0.303261	0.303306
C48	C	1.063505	-0.303205	0.467470
C49	C	1.063519	-0.303187	0.537438
C50	C	1.063578	-0.139055	0.303323
C51	C	1.063623	-0.069087	0.303342
C52	C	1.063480	-0.303240	0.139728
C53	C	1.063608	-0.303080	0.069760
C54	C	1.110685	-0.262829	1.036912
C55	C	1.110679	-0.262844	0.971170
C56	C	1.063583	-0.303104	0.938277
C57	C	1.016503	-0.343363	0.971133
C58	C	1.016515	-0.343351	1.036874
N59	N	0.999142	-0.307948	0.835049
N60	N	0.999132	-0.307956	0.772597
C61	C	1.063545	-0.303143	0.740203
N62	N	1.127968	-0.298311	0.772619
N63	N	1.127977	-0.298300	0.835076
C64	C	1.063565	-0.303122	0.866992
C65	C	1.110619	-0.262906	0.636069
C66	C	1.110615	-0.262926	0.570325
C67	C	1.016432	-0.343442	0.570290
C68	C	1.016443	-0.343426	0.636033
C69	C	1.063536	-0.303155	0.668918
H70	H	0.633556	-0.376383	0.376189
N71	N	1.158802	-0.221709	1.070504
N72	N	1.205694	-0.243853	1.107183
H73	H	1.239679	-0.214814	1.130909
H74	H	0.978161	-1.062990	0.376306
H75	H	0.978179	-0.376130	1.063619
N76	N	1.158773	-0.221722	0.937617
N77	N	1.200815	-0.185771	0.966987
H78	H	1.234782	-0.156728	0.943292
N79	N	0.968365	-0.936924	0.384633
N80	N	0.926329	-0.966285	0.420543
H81	H	0.892344	-0.942584	0.449563
N82	N	0.486181	-0.221770	0.222049
N83	N	0.520504	-0.185782	0.186170
H84	H	0.492793	-0.156704	0.157173
N85	N	0.968405	-0.384488	0.937528
N86	N	0.968399	-0.384493	0.878831
H87	H	0.934430	-0.413540	0.855097
N88	N	1.158722	-0.221767	0.669656
N89	N	1.200756	-0.185831	0.640316
H90	H	1.234728	-0.156774	0.664035
N91	N	1.158677	-0.668950	0.221986
N92	N	1.205573	-0.705586	0.244175
H93	H	1.239559	-0.729299	0.215166
H94	H	1.148863	-0.542863	0.230289
N95	N	0.641538	-0.221750	0.222055
N96	N	0.632986	-0.163670	0.226338
H97	H	0.660714	-0.134581	0.197355
H98	H	1.149074	-1.062966	0.230378
H99	H	0.978105	-0.376200	0.662777
H100	H	1.148955	-0.230150	0.543582
H101	H	1.149025	-0.943703	0.230357
H102	H	0.977968	-0.542881	0.376225
N103	N	0.968254	-0.668956	0.384582
N104	N	0.926195	-0.639606	0.420484
H105	H	0.892220	-0.663315	0.449503
N106	N	0.968321	-0.384558	0.536692
N107	N	0.921433	-0.362412	0.500010
H108	H	0.887452	-0.391451	0.476278
N109	N	0.486172	-0.384738	0.384534
N110	N	0.520492	-0.420723	0.420408
H111	H	0.492777	-0.449805	0.449409
