data_functionalizedCrystal
_audit_creation_method	'MofGen! by Chris Wilmer'
_symmetry_space_group_name_H-M	'P1'
_symmetry_Int_Tables_number	1
_symmetry_cell_setting	triclinic
loop_
_symmetry_equiv_pos_as_xyz
  x,y,z
_cell_length_a	11.026607
_cell_length_b	16.974897
_cell_length_c	15.455313
_cell_angle_alpha	90.971552
_cell_angle_beta	93.261289
_cell_angle_gamma	95.967972
loop_
_atom_site_label
_atom_site_type_symbol
_atom_site_fract_x
_atom_site_fract_y
_atom_site_fract_z
O1	O	0.165535	1.065626	0.146854
O2	O	0.665535	1.565626	0.646854
O3	O	0.184041	0.838822	0.130951
O4	O	0.684041	1.338822	0.630951
O5	O	-0.001933	0.933427	0.137581
O6	O	0.498067	1.433427	0.637581
O7	O	0.351508	0.971021	0.140224
O8	O	0.851508	1.471021	0.640224
O9	O	-0.012535	0.938834	-0.006302
O10	O	0.487465	1.438834	0.493698
O11	O	0.173438	0.844229	-0.012932
O12	O	0.673438	1.344229	0.487068
O13	O	0.154933	1.071033	0.002971
O14	O	0.654933	1.571033	0.502971
Cu15	Cu	0.163217	0.958124	-0.018118
Cu16	Cu	0.663217	1.458124	0.481882
Cu17	Cu	0.175756	0.951730	0.152040
Cu18	Cu	0.675756	1.451730	0.652040
O19	O	0.340906	0.976428	-0.003660
O20	O	0.840906	1.476428	0.496340
C21	C	0.177835	0.812038	0.056942
C22	C	0.677835	1.312038	0.556942
C23	C	0.175127	0.724174	0.050781
C24	C	0.675127	1.224174	0.550781
C25	C	0.179637	0.679941	0.126311
C26	C	0.679637	1.179941	0.626311
C27	C	0.177111	0.597384	0.120510
C28	C	0.677111	1.097384	0.620510
C29	C	0.170067	0.559062	0.039178
C30	C	0.670067	1.059062	0.539178
C31	C	0.165560	0.603301	-0.036358
C32	C	0.665560	1.103301	0.463642
C33	C	0.168095	0.685856	-0.030556
C34	C	0.668095	1.185856	0.469444
C35	C	0.161875	0.312475	0.013415
C36	C	0.661875	0.812475	0.513415
C37	C	0.159337	0.229914	0.007618
C38	C	0.659337	0.729914	0.507618
C39	C	0.170890	0.224003	0.164487
C40	C	0.670890	0.724003	0.664487
C41	C	0.173417	0.306560	0.170282
C42	C	0.673417	0.806560	0.670282
C43	C	0.168917	0.350792	0.094746
C44	C	0.668917	0.850792	0.594746
N45	N	0.167481	0.474676	0.033246
N46	N	0.667481	0.974676	0.533246
N47	N	0.171511	0.435177	0.100679
N48	N	0.671511	0.935177	0.600679
C49	C	-0.052469	0.929195	0.065154
C50	C	0.447531	1.429195	0.565154
C51	C	-0.187257	0.908519	0.063708
C52	C	0.312743	1.408519	0.563708
C53	C	-0.260859	0.965607	0.067712
C54	C	0.239141	1.465607	0.567712
C55	C	-0.400169	0.944239	0.066217
C56	C	0.099831	1.444239	0.566217
C57	C	0.391443	0.980660	0.068769
C58	C	0.891443	1.480660	0.568769
C59	C	0.526231	1.001335	0.070221
C60	C	1.026231	1.501335	0.570221
C61	C	0.161138	1.097816	0.076982
C62	C	0.661138	1.597816	0.576982
C63	C	0.163846	1.185681	0.083148
C64	C	0.663846	1.685681	0.583148
N65	N	0.184566	0.947232	0.271720
N66	N	0.684566	1.447232	0.771720
N67	N	0.154397	0.962627	-0.137798
N68	N	0.654397	1.462627	0.362202
C69	C	0.105711	0.987543	0.319940
C70	C	0.605711	1.487543	0.819940
C71	C	0.112372	0.984139	0.410509
C72	C	0.612372	1.484139	0.910509
C73	C	0.197882	0.940420	0.452857
C74	C	0.697882	1.440420	0.952857
C75	C	0.276745	0.900108	0.404631
C76	C	0.776745	1.400108	0.904631
C77	C	0.270090	0.903516	0.314064
C78	C	0.770090	1.403516	0.814064
C79	C	0.226605	0.925724	0.723409
C80	C	0.726605	1.425724	1.223409
C81	C	0.233252	0.922316	0.813982
C82	C	0.733252	1.422316	1.313982
C83	C	0.068879	1.006350	0.819854
C84	C	0.568879	1.506350	1.319854
C85	C	0.062227	1.009751	0.729284
C86	C	0.562227	1.509751	1.229284
C87	C	0.141094	0.969442	0.681067
C88	C	0.641094	1.469442	1.181067
N89	N	0.204690	0.936938	0.545433
N90	N	0.704690	1.436938	1.045433
N91	N	0.134291	0.972929	0.588492
N92	N	0.634291	1.472929	1.088492
H93	H	0.164428	0.721870	-0.092061
H94	H	0.664428	1.221870	0.407939
H95	H	0.180784	0.561373	0.182015
H96	H	0.680784	1.061373	0.682015
H97	H	-0.433649	1.066030	0.074823
H98	H	0.066351	1.566030	0.574823
H99	H	-0.220736	1.030300	0.072243
H100	H	0.279264	1.530300	0.572243
C101	C	0.187384	0.722087	0.215784
C102	C	0.687384	1.222087	0.715784
N103	N	0.193225	0.753830	0.283177
N104	N	0.693225	1.253830	0.783177
H105	H	-0.227379	0.843826	0.059177
H106	H	0.272621	1.343826	0.559177
H107	H	0.334303	0.870692	0.274804
H108	H	0.834303	1.370692	0.774804
C109	C	0.327246	0.874158	0.860559
C110	C	0.827246	1.374158	1.360559
N111	N	0.398008	0.837862	0.895638
N112	N	0.898008	1.337862	1.395638
H113	H	0.153634	0.198716	-0.058616
H114	H	0.653634	0.698716	0.441384
C115	C	-0.031877	1.057817	0.682706
C116	C	0.468123	1.557817	1.182706
N117	N	-0.102774	1.094010	0.647623
N118	N	0.397226	1.594010	1.147623
H119	H	0.179144	0.337755	0.236511
H120	H	0.679144	0.837755	0.736511
C121	C	0.175850	0.175341	0.247570
C122	C	0.675850	0.675341	0.747570
N123	N	0.179592	0.138690	0.310152
N124	N	0.679592	0.638690	0.810152
H125	H	0.159832	0.572093	-0.102580
H126	H	0.659832	1.072093	0.397420
C127	C	0.011639	1.035636	0.273365
C128	C	0.511639	1.535636	0.773365
N129	N	-0.059216	1.071863	0.238288
N130	N	0.440784	1.571863	0.738288
H131	H	0.158202	0.348479	-0.048092
H132	H	0.658202	0.848479	0.451908
C133	C	-0.454361	0.856835	0.060087
C134	C	0.045639	1.356835	0.560087
N135	N	-0.495181	0.791003	0.055468
N136	N	0.004819	1.291003	0.555468
H137	H	0.048163	1.016964	0.449769
H138	H	0.548163	1.516964	0.949769
C139	C	-0.017874	1.050682	0.872900
C140	C	0.482126	1.550682	1.372900
N141	N	-0.083221	1.084075	0.912855
N142	N	0.416779	1.584075	1.412855
H143	H	0.290820	0.892901	0.684157
H144	H	0.790820	1.392901	1.184157
C145	C	0.370808	0.852015	0.451217
C146	C	0.870808	1.352015	0.951217
N147	N	0.441654	0.815788	0.486305
N148	N	0.941654	1.315788	0.986305
