data_functionalizedCrystal
_audit_creation_method	'MofGen! by Chris Wilmer'
_symmetry_space_group_name_H-M	'P1'
_symmetry_Int_Tables_number	1
_symmetry_cell_setting	triclinic
loop_
_symmetry_equiv_pos_as_xyz
  x,y,z
_cell_length_a	19.377372
_cell_length_b	19.377372
_cell_length_c	14.809374
_cell_angle_alpha	56.876281
_cell_angle_beta	87.767910
_cell_angle_gamma	82.759435
loop_
_atom_site_label
_atom_site_type_symbol
_atom_site_fract_x
_atom_site_fract_y
_atom_site_fract_z
Zr1	Zr	0.766607	0.977762	-0.475807
O2	O	0.695753	1.076721	-0.613063
O3	O	0.770153	0.842186	-0.407705
O4	O	0.804650	0.967824	-0.613066
O5	O	0.654719	0.971691	-0.275315
O6	O	0.911225	1.001637	-0.642674
O7	O	0.661256	0.951084	-0.407702
O8	O	0.849516	0.776894	-0.275320
O9	O	0.716428	1.196435	-0.642668
O10	O	0.873159	0.936746	-0.432200
O11	O	0.788745	0.926891	-0.311305
O12	O	0.829361	1.074814	-0.553091
O13	O	0.744947	1.064959	-0.432196
Zr14	Zr	0.926155	1.064557	-0.311885
Zr15	Zr	0.936581	1.031690	-0.523028
Zr16	Zr	0.756181	1.010629	-0.264665
Zr17	Zr	0.799581	1.168691	-0.523024
Zr18	Zr	0.893182	0.873628	-0.264668
O19	O	0.922610	1.200133	-0.379987
O20	O	0.937434	1.153400	-0.680205
O21	O	0.680928	1.123454	-0.312846
O22	O	0.997010	0.965597	-0.174629
O23	O	1.011834	0.918865	-0.474846
O24	O	0.755328	0.888919	-0.107487
O25	O	1.038044	1.070628	-0.512378
O26	O	0.888112	1.074495	-0.174626
O27	O	0.781538	1.040682	-0.145019
O28	O	1.031507	1.091235	-0.379990
O29	O	0.851534	1.239300	-0.680203
O30	O	0.841228	0.803019	-0.107490
O31	O	0.976335	0.845884	-0.145024
O32	O	0.984622	0.819759	-0.312854
O33	O	0.708140	1.222560	-0.474838
O34	O	0.843247	1.265425	-0.512372
O35	O	0.863402	0.967505	-0.234601
O36	O	0.947816	0.977360	-0.355496
O37	O	0.904018	1.115428	-0.476388
O38	O	0.819603	1.105573	-0.355493
C39	C	0.805136	0.782337	-0.334785
C40	C	0.791138	0.701283	-0.314740
C41	C	0.633770	0.953704	-0.334780
C42	C	0.561611	0.930810	-0.314734
C43	C	0.965420	0.460418	-0.564322
C44	C	0.952256	0.384253	-0.545469
C45	C	0.864134	0.373975	-0.419264
C46	C	0.877289	0.450143	-0.438110
C47	C	0.927933	0.493358	-0.510640
C48	C	0.839801	0.483082	-0.384428
C49	C	0.852957	0.559241	-0.403269
C50	C	0.903601	0.602460	-0.475793
C51	C	0.941089	0.569517	-0.529481
C52	C	0.789161	0.439863	-0.311893
C53	C	0.751674	0.472802	-0.258211
C54	C	0.764826	0.548965	-0.277058
C55	C	0.815469	0.592184	-0.349581
C56	C	0.727338	0.581909	-0.223369
C57	C	0.740494	0.658067	-0.242211
C58	C	0.828625	0.668343	-0.368422
C59	C	0.209983	1.215855	-0.564324
C60	C	0.142185	1.194324	-0.545469
C61	C	0.187917	1.050192	-0.419268
C62	C	0.255720	1.071712	-0.438108
C63	C	0.266747	1.154544	-0.510638
C64	C	0.312483	1.010401	-0.384422
C65	C	0.380280	1.031918	-0.403264
C66	C	0.391314	1.114747	-0.475793
C67	C	0.334544	1.176062	-0.529480
C68	C	0.301455	0.927568	-0.311898
C69	C	0.358219	0.866257	-0.258212
C70	C	0.426017	0.887775	-0.277048
C71	C	0.437051	0.970603	-0.349577
C72	C	0.482787	0.826460	-0.223361
C73	C	0.550584	0.847978	-0.242204
C74	C	0.504848	0.992121	-0.368420
C75	C	1.058993	1.088615	-0.452912
C76	C	1.131151	1.111509	-0.472958
C77	C	0.859423	0.980048	-0.657953
C78	C	0.863849	0.966095	-0.747589
C79	C	0.887626	1.259982	-0.452907
C80	C	0.901624	1.341036	-0.472952
C81	C	0.844096	1.028365	-0.847521
C82	C	0.848670	1.013945	-0.940166
C83	C	0.833340	1.062271	-0.129739
C84	C	0.828913	1.076224	-0.040104
C85	C	1.017748	0.849792	-0.393851
C86	C	1.075908	0.791632	-0.393852
C87	C	0.792095	0.823449	-0.070678
C88	C	0.773670	0.756347	0.039003
C89	C	1.004706	0.890904	-0.129744
C90	C	1.058440	0.846697	-0.040110
C91	C	0.688056	1.151415	-0.657949
C92	C	0.634322	1.195622	-0.747583
C93	C	0.675015	1.192527	-0.393842
C94	C	0.616854	1.250687	-0.393840
C95	C	0.900668	1.218870	-0.717014
C96	C	0.919092	1.285972	-0.826695
C97	C	1.064251	0.743118	-0.433900
C98	C	1.118895	0.688475	-0.433922
C99	C	1.185195	0.682344	-0.393889
C100	C	1.196851	0.730865	-0.353841
C101	C	1.142209	0.785511	-0.353826
C102	C	0.803988	0.746037	0.130557
C103	C	0.786674	0.682999	0.233619
C104	C	0.739048	0.630269	0.245125
C105	C	0.708727	0.640583	0.153561
C106	C	0.726037	0.703624	0.050501
C107	C	1.127745	0.831083	-0.061124
C108	C	1.178242	0.789557	0.023084
C109	C	1.159433	0.763640	0.128307
C110	C	1.090122	0.779258	0.149320
C111	C	1.039627	0.820789	0.065112
C112	C	0.565019	1.211246	-0.726570
C113	C	0.514526	1.252795	-0.810784
C114	C	0.533336	1.278716	-0.916008
C115	C	0.602646	1.263093	-0.937021
C116	C	0.653139	1.221549	-0.852809
C117	C	0.628513	1.299208	-0.353803
C118	C	0.573874	1.353868	-0.353809
C119	C	0.507575	1.360001	-0.393846
C120	C	0.495918	1.311477	-0.433890
C121	C	0.550558	1.256823	-0.433890
C122	C	0.966721	1.338685	-0.838165
C123	C	0.984046	1.401730	-0.941215
C124	C	0.953738	1.412064	-1.032793
C125	C	0.906106	1.359342	-1.021319
C126	C	0.888785	1.296295	-0.918270
H127	H	0.869860	0.703535	-0.427492
C128	C	0.836379	1.238324	-0.905669
N129	N	0.796904	1.194663	-0.896186
C130	C	0.079744	1.261779	-0.604529
N131	N	0.032714	1.312584	-0.649011
H132	H	0.868972	0.949955	-0.923190
C133	C	0.972797	1.481423	-1.146143
N134	N	0.987154	1.533667	-1.231516
H135	H	0.513824	1.059576	-0.427452
C136	C	0.656341	0.582568	0.166236
N137	N	0.616887	0.538865	0.175786
C138	C	0.447475	1.420123	-0.393832
N139	N	0.402210	1.465406	-0.393815
H140	H	0.811371	0.674612	0.308163
C141	C	0.544313	1.182746	-0.610830
N142	N	0.528712	1.161288	-0.523658
C143	C	0.801487	1.162675	-1.063044
N144	N	0.780828	1.227788	-1.080320
H145	H	0.492214	1.312543	-0.984569
H146	H	0.441930	1.316480	-0.466487
H147	H	0.583378	1.393370	-0.321197
C148	C	1.254479	0.772375	-0.000052
N149	N	1.311898	0.759432	-0.017480
H150	H	1.022830	1.444652	-0.950538
H151	H	1.200557	0.729823	0.196865
H152	H	0.458094	1.265507	-0.793654
C153	C	0.918073	0.686237	-0.496518
N154	N	0.928973	0.749339	-0.512130
C155	C	0.963391	0.837957	0.088247
N156	N	0.905970	0.850887	0.105680
H157	H	0.982324	0.604709	-0.588551
C158	C	1.148453	0.859590	-0.176866
N159	N	1.164056	0.881065	-0.264043
H160	H	0.881432	1.367766	-1.095896
H161	H	0.701348	0.712008	-0.024041
H162	H	0.724959	0.578941	0.329050
H163	H	1.006655	0.495610	-0.623392
H164	H	0.682491	1.294221	-0.321193
H165	H	0.991406	1.330285	-0.763610
C166	C	0.623324	1.291602	-1.052774
N167	N	0.638896	1.313069	-1.139960
H168	H	0.884149	0.902109	-0.730621
H169	H	0.686108	0.546707	-0.164308
C170	C	0.808425	0.326431	-0.339487
N171	N	0.766462	0.290624	-0.279401
H172	H	0.709568	1.208828	-0.869930
C173	C	1.069441	0.750736	0.265077
N174	N	1.053865	0.729245	0.352269
H175	H	0.541055	1.217315	-0.466489
H176	H	0.596803	0.798055	-0.198471
H177	H	0.982788	0.357438	-0.589188
H178	H	0.710441	0.437604	-0.199154
C179	C	0.699248	0.694309	-0.183170
N180	N	0.668180	0.721607	-0.138700
C181	C	0.222115	1.306977	-0.644103
N182	N	0.231254	1.375606	-0.704191
C183	C	0.346080	0.775144	-0.178430
N184	N	0.336937	0.706517	-0.118333
C185	C	0.346676	1.267184	-0.609260
N186	N	0.355815	1.335813	-0.669348
C187	C	1.106056	0.635102	-0.477967
N188	N	1.096383	0.594900	-0.511139
C189	C	0.470647	0.735346	-0.143587
N190	N	0.461503	0.666718	-0.083500
C191	C	1.245294	0.622222	-0.393903
N192	N	1.290558	0.576934	-0.393912
H193	H	0.778451	0.377850	-0.296556
H194	H	0.446520	1.132264	-0.491135
H195	H	0.178928	0.982750	-0.360217
C196	C	1.269785	0.724105	-0.309797
N197	N	1.324718	0.719006	-0.276616
H198	H	0.823801	1.092353	-0.864491
H199	H	0.246249	0.910050	-0.296565
H200	H	1.010274	0.748107	-0.466514
H201	H	0.842768	0.788966	0.121208
H202	H	1.151709	0.825007	-0.321208
