data_functionalizedCrystal
_audit_creation_method	'MofGen! by Chris Wilmer'
_symmetry_space_group_name_H-M	'P1'
_symmetry_Int_Tables_number	1
_symmetry_cell_setting	triclinic
loop_
_symmetry_equiv_pos_as_xyz
  x,y,z
_cell_length_a	12.759401
_cell_length_b	12.594516
_cell_length_c	12.759393
_cell_angle_alpha	90.030800
_cell_angle_beta	90.018567
_cell_angle_gamma	90.010860
loop_
_atom_site_label
_atom_site_type_symbol
_atom_site_fract_x
_atom_site_fract_y
_atom_site_fract_z
Zn1	Zn	1.606276	-0.423706	0.593989
Zn2	Zn	1.606180	-0.601726	0.418311
Zn3	Zn	1.430578	-0.423759	0.418328
Zn4	Zn	1.430576	-0.601640	0.593953
O5	O	1.518403	-0.512708	0.506145
O6	O	1.753285	-0.447335	0.570693
O7	O	1.582846	-0.578176	0.271292
O8	O	1.453927	-0.274806	0.441652
O9	O	1.753213	-0.578125	0.441624
O10	O	1.583011	-0.274768	0.570709
O11	O	1.453833	-0.447424	0.271305
O12	O	1.283557	-0.447341	0.441617
O13	O	1.453922	-0.577979	0.740979
O14	O	1.283555	-0.578030	0.570647
O15	O	1.583009	-0.447252	0.741005
O16	O	1.582844	-0.750660	0.441588
O17	O	1.453829	-0.750597	0.570631
C18	C	1.245435	-0.512683	0.506131
C19	C	1.128659	-0.512698	0.506149
C20	C	1.073827	-0.444724	0.573460
C21	C	0.964103	-0.444744	0.573467
C22	C	0.964052	-0.580722	0.438849
C23	C	1.073774	-0.580695	0.438838
C24	C	1.128711	-0.376727	0.640771
C25	C	1.073879	-0.308748	0.708088
C26	C	0.964155	-0.308769	0.708095
C27	C	0.909263	-0.376767	0.640785
C28	C	1.518354	-0.789249	0.506127
C29	C	1.518429	-0.907554	0.506154
C30	C	1.588682	-0.976803	0.436043
C31	C	1.614358	-1.047495	0.531935
C32	C	1.492885	-1.047661	0.410323
C33	C	1.544154	-0.976688	0.602097
C34	C	1.422637	-0.976848	0.480420
C35	C	1.448276	-1.047508	0.576379
C36	C	1.792436	-0.512734	0.506161
C37	C	1.909212	-0.512745	0.506167
C38	C	1.518476	-0.512600	0.780179
C39	C	1.518507	-0.512555	0.896955
C40	C	1.518480	-0.235087	0.506187
C41	C	1.518513	-0.116782	0.506204
C42	C	1.518390	-0.512738	0.233178
C43	C	1.518562	-0.512484	0.116402
C44	C	1.585732	-0.444479	0.951833
C45	C	1.585757	-0.444440	1.061557
C46	C	1.451330	-0.580563	1.061516
C47	C	1.451300	-0.580595	0.951794
C48	C	1.652939	-0.376438	0.896994
C49	C	1.720170	-0.308357	0.951872
C50	C	1.720195	-0.308318	1.061596
C51	C	1.652989	-0.376361	1.116443
H52	H	1.118579	-0.253380	0.762883
O53	O	1.785300	-0.242206	0.898486
C54	C	1.725487	-0.173457	0.835048
H55	H	1.645854	-0.210995	0.818592
H56	H	1.713974	-0.094566	0.877352
C57	C	1.881082	-0.108115	0.751044
C58	C	1.783279	-0.154225	0.730826
H59	H	1.916731	-0.096247	0.686757
H60	H	1.921380	-0.154430	0.793786
H61	H	1.871474	-0.042378	0.786300
H62	H	1.792889	-0.219966	0.695583
H63	H	1.742984	-0.107921	0.688076
O64	O	0.910686	-0.646892	0.373626
C65	C	0.847230	-0.715704	0.433335
H66	H	0.880335	-0.722367	0.516066
H67	H	0.764074	-0.682819	0.437021
C68	C	0.804865	-0.818111	0.280213
C69	C	0.845530	-0.826301	0.381822
H70	H	0.803811	-0.886331	0.248435
H71	H	0.847613	-0.771749	0.239984
H72	H	0.735572	-0.790703	0.283298
H73	H	0.914826	-0.853696	0.378734
H74	H	0.802794	-0.872671	0.422049
O75	O	1.785444	-0.242036	1.114787
C76	C	1.762494	-0.135958	1.088011
H77	H	1.722084	-0.133777	1.008344
H78	H	1.708509	-0.100076	1.149767
C79	C	1.914569	-0.074183	1.180803
C80	C	1.864945	-0.071502	1.082951
H81	H	1.977764	-0.034421	1.177686
H82	H	1.930029	-0.145648	1.198847
H83	H	1.869570	-0.044283	1.232257
H84	H	1.909938	-0.101414	1.031502
H85	H	1.849495	-0.000040	1.064899
O86	O	1.126882	-0.646831	0.373427
C87	C	1.054915	-0.706843	0.314009
H88	H	0.976716	-0.710598	0.357038
H89	H	1.043214	-0.667777	0.234281
C90	C	1.193784	-0.815483	0.245828
C91	C	1.097742	-0.820103	0.298682
H92	H	1.220202	-0.885345	0.236369
H93	H	1.242271	-0.775049	0.285855
H94	H	1.184020	-0.782923	0.179394
H95	H	1.107509	-0.852649	0.365120
H96	H	1.049257	-0.860545	0.258665
H97	H	1.396544	-0.636013	0.907112
H98	H	1.218054	-0.376702	0.640773
O99	O	1.653179	-0.376225	1.223029
C100	C	1.726903	-0.301525	1.259709
H101	H	1.788272	-0.286643	1.196485
H102	H	1.685272	-0.223905	1.279196
C103	C	1.705398	-0.363164	1.436511
C104	C	1.780778	-0.344892	1.358861
H105	H	1.738628	-0.389911	1.497675
H106	H	1.655726	-0.413488	1.411801
H107	H	1.670711	-0.298475	1.452738
H108	H	1.815454	-0.409582	1.342626
H109	H	1.830458	-0.294579	1.383571
H110	H	1.396614	-0.635959	1.106181
O111	O	1.711105	-1.084479	0.557765
C112	C	1.784899	-1.048441	0.483641
H113	H	1.743152	-1.028661	0.407099
H114	H	1.825637	-0.974334	0.514904
C115	C	1.918146	-1.160192	0.557845
C116	C	1.866872	-1.135908	0.463832
H117	H	1.968714	-1.214143	0.545628
H118	H	1.868431	-1.184469	0.607786
H119	H	1.952085	-1.098430	0.583888
H120	H	1.832923	-1.197666	0.437797
H121	H	1.916583	-1.111643	0.413885
H122	H	1.565714	-0.945646	0.683231
H123	H	1.648102	-0.945756	0.376805
H124	H	1.388901	-1.078358	0.635760
O125	O	1.467183	-1.084724	0.313537
C126	C	1.541433	-1.048720	0.239854
H127	H	1.581406	-0.974142	0.271000
H128	H	1.602655	-1.113171	0.226184
C129	C	1.436749	-1.114668	0.097508
C130	C	1.485837	-1.023065	0.135757
H131	H	1.402457	-1.098847	0.033294
H132	H	1.386726	-1.138929	0.147149
H133	H	1.487775	-1.168369	0.086124
H134	H	1.434809	-0.969372	0.147153
H135	H	1.535850	-0.998795	0.086116
H136	H	1.341614	-0.945790	0.458597
H137	H	0.919514	-0.253410	0.762900
H138	H	1.652929	-0.376464	0.807651
H139	H	0.819918	-0.376756	0.640773
