data_functionalizedCrystal
_audit_creation_method	'MofGen! by Chris Wilmer'
_symmetry_space_group_name_H-M	'P1'
_symmetry_Int_Tables_number	1
_symmetry_cell_setting	triclinic
loop_
_symmetry_equiv_pos_as_xyz
  x,y,z
_cell_length_a	11.792254
_cell_length_b	19.188940
_cell_length_c	10.268362
_cell_angle_alpha	89.994279
_cell_angle_beta	89.995475
_cell_angle_gamma	83.673656
loop_
_atom_site_label
_atom_site_type_symbol
_atom_site_fract_x
_atom_site_fract_y
_atom_site_fract_z
O1	O	1.505473	0.095737	-0.108300
O2	O	1.174987	0.105590	-0.108303
O3	O	1.349761	-0.000937	-0.108292
O4	O	1.330698	0.202264	-0.108312
O5	O	1.349746	-0.000942	0.108309
O6	O	1.174971	0.105586	0.108297
O7	O	1.505458	0.095732	0.108300
Cu8	Cu	1.340213	0.100659	0.128076
Cu9	Cu	1.340231	0.100664	-0.128079
O10	O	1.330683	0.202260	0.108289
C11	C	1.132698	0.104967	-0.000003
C12	C	1.006712	0.103109	-0.000004
C13	C	0.904398	0.101600	-0.000010
C14	C	0.776040	0.099712	-0.000010
C15	C	1.349134	-0.026954	0.000008
C16	C	1.347276	-0.104469	0.000008
C17	C	1.334045	-0.657806	0.118046
C18	C	1.335778	-0.584972	0.118053
C19	C	1.336659	-0.548545	-0.000015
C20	C	1.335776	-0.584956	-0.118098
C21	C	1.334031	-0.657788	-0.118102
N22	N	1.403988	-0.439136	-0.087894
N23	N	1.405649	-0.369948	-0.087883
C24	C	1.341915	-0.329105	-0.000010
N25	N	1.276473	-0.360065	0.087870
N26	N	1.274818	-0.429259	0.087862
C27	C	1.338551	-0.469570	-0.000024
C28	C	1.344670	-0.213727	0.118074
C29	C	1.346397	-0.140891	0.118076
C30	C	1.346406	-0.140877	-0.118078
C31	C	1.344668	-0.213711	-0.118077
C32	C	1.343805	-0.250132	0.000003
C33	C	1.547747	0.096355	-0.000003
C34	C	1.673732	0.098213	-0.000010
C35	C	1.331310	0.228277	-0.000014
C36	C	1.333168	0.305791	-0.000022
N37	N	1.340209	0.100654	0.308242
N38	N	1.340244	0.100662	-0.308245
C39	C	1.340225	0.100662	0.573912
C40	C	1.340212	0.100660	0.426075
H41	H	1.333341	-0.687455	0.214195
C42	C	1.333262	-0.697417	-0.246204
C43	C	1.429867	-0.746720	-0.253098
C44	C	1.429191	-0.783246	-0.371080
H45	H	1.334087	-0.665376	-0.316630
H46	H	1.266448	-0.720802	-0.251121
H47	H	1.496664	-0.723336	-0.248194
H48	H	1.429062	-0.778775	-0.182699
H49	H	1.362377	-0.806631	-0.375997
H50	H	1.430013	-0.751200	-0.441496
H51	H	1.494730	-0.816707	-0.375768
C52	C	1.347090	-0.101256	-0.246204
C53	C	1.250442	-0.051981	-0.253027
C54	C	1.250993	-0.015469	-0.371047
H55	H	1.346236	-0.133308	-0.316597
H56	H	1.413876	-0.077848	-0.251229
H57	H	1.183673	-0.075388	-0.248015
H58	H	1.251275	-0.019915	-0.182662
H59	H	1.317779	0.007939	-0.376072
H60	H	1.250142	-0.047526	-0.441430
H61	H	1.185425	0.017972	-0.375687
C62	C	1.343663	-0.253144	0.246404
C63	C	1.344759	-0.205668	0.349809
C64	C	1.343815	-0.241949	0.468046
H65	H	1.409134	-0.286627	0.251498
H66	H	1.276789	-0.276470	0.251380
H67	H	1.411626	-0.182353	0.344836
H68	H	1.279293	-0.172183	0.344759
H69	H	1.276942	-0.265275	0.473021
H70	H	1.409288	-0.275431	0.473126
H71	H	1.344548	-0.209741	0.538220
C72	C	1.347528	-0.101287	0.246175
C73	C	1.446132	-0.066938	0.253042
C74	C	1.447207	-0.030439	0.371020
H75	H	1.346827	-0.133335	0.316605
H76	H	1.282073	-0.067769	0.251104
H77	H	1.511570	-0.100453	0.248126
H78	H	1.446854	-0.034879	0.182640
H79	H	1.381752	0.003079	0.375949
H80	H	1.446503	-0.062492	0.441440
H81	H	1.514102	-0.007124	0.375689
C82	C	1.336765	-0.545566	0.246384
C83	C	1.335649	-0.593052	0.349790
C84	C	1.336562	-0.556779	0.468025
H85	H	1.271289	-0.512085	0.251467
H86	H	1.403634	-0.522238	0.251369
H87	H	1.268787	-0.616368	0.344807
H88	H	1.401120	-0.626533	0.344749
H89	H	1.403432	-0.533451	0.473010
H90	H	1.271086	-0.523300	0.473095
H91	H	1.335816	-0.588994	0.538200
C92	C	1.336772	-0.545287	-0.246152
C93	C	1.338510	-0.473713	-0.220879
C94	C	1.339427	-0.437150	-0.338814
H95	H	1.270330	-0.552069	-0.294742
H96	H	1.402675	-0.562249	-0.294698
H97	H	1.272614	-0.456757	-0.172354
H98	H	1.404948	-0.466910	-0.172308
H99	H	1.405330	-0.454111	-0.387361
H100	H	1.272984	-0.443937	-0.387396
H101	H	1.340617	-0.388584	-0.321683
H102	H	1.343962	-0.243351	-0.214221
