data_functionalizedCrystal
_audit_creation_method	'MofGen! by Chris Wilmer'
_symmetry_space_group_name_H-M	'P1'
_symmetry_Int_Tables_number	1
_symmetry_cell_setting	triclinic
loop_
_symmetry_equiv_pos_as_xyz
  x,y,z
_cell_length_a	10.968094
_cell_length_b	10.967829
_cell_length_c	10.065875
_cell_angle_alpha	86.921207
_cell_angle_beta	93.118877
_cell_angle_gamma	87.247546
loop_
_atom_site_label
_atom_site_type_symbol
_atom_site_fract_x
_atom_site_fract_y
_atom_site_fract_z
O1	O	1.622257	0.210019	0.218612
O2	O	1.272372	0.213467	0.135519
O3	O	1.449060	0.036823	0.218620
O4	O	1.445568	0.386663	0.135510
O5	O	1.415375	0.070648	0.429731
O6	O	1.238686	0.247292	0.346629
O7	O	1.588571	0.243844	0.429723
Zn8	Zn	1.408280	0.250938	0.421694
Zn9	Zn	1.452663	0.206373	0.143547
O10	O	1.411882	0.420488	0.346621
C11	C	1.210611	0.227574	0.231170
C12	C	1.076768	0.219201	0.201663
C13	C	1.429418	0.008822	0.334079
C14	C	1.421063	-0.125005	0.363584
C15	C	0.861307	0.224324	0.267368
C16	C	0.999638	0.232988	0.297876
C17	C	1.434789	-0.202187	0.267376
C18	C	1.426153	-0.340505	0.297868
C19	C	1.650332	0.229737	0.334068
C20	C	1.784176	0.238108	0.363567
C21	C	1.431525	0.448488	0.231160
C22	C	1.439881	0.582315	0.201646
N23	N	1.377999	0.281353	0.611525
N24	N	1.482953	0.175949	-0.046279
C25	C	1.442119	0.216947	0.709532
C26	C	1.418823	0.240364	0.855713
H27	H	0.824933	0.206101	0.162426
Cl28	Cl	1.266608	0.393250	0.649050
Cl29	Cl	0.840326	0.266222	0.525601
Cl30	Cl	1.055782	0.261103	0.459917
Cl31	Cl	1.462830	-0.146120	0.105354
Cl32	Cl	1.020626	0.191105	0.039616
H33	H	1.408001	-0.376822	0.402815
Cl34	Cl	1.467849	-0.361621	0.039598
H35	H	1.402912	-0.161328	0.468524
Cl36	Cl	1.553220	0.104762	0.672006
H37	H	1.346672	0.312842	0.880018
H38	H	1.555095	0.103462	0.929416
