data_functionalizedCrystal
_audit_creation_method	'MofGen! by Chris Wilmer'
_symmetry_space_group_name_H-M	'P1'
_symmetry_Int_Tables_number	1
_symmetry_cell_setting	triclinic
loop_
_symmetry_equiv_pos_as_xyz
  x,y,z
_cell_length_a	18.101398
_cell_length_b	18.101397
_cell_length_c	18.101389
_cell_angle_alpha	90.021047
_cell_angle_beta	90.024802
_cell_angle_gamma	90.018196
loop_
_atom_site_label
_atom_site_type_symbol
_atom_site_fract_x
_atom_site_fract_y
_atom_site_fract_z
Zn1	Zn	1.132176	-0.294952	0.418835
Zn2	Zn	1.132095	-0.418778	0.294987
Zn3	Zn	1.008335	-0.294950	0.294995
Zn4	Zn	1.008308	-0.418751	0.418775
O5	O	1.070228	-0.356858	0.356898
O6	O	1.235798	-0.311390	0.402428
O7	O	1.115655	-0.402362	0.191355
O8	O	1.024807	-0.191317	0.311450
O9	O	1.235738	-0.402364	0.311438
O10	O	1.115793	-0.191319	0.402435
O11	O	1.024729	-0.311386	0.191361
O12	O	0.904698	-0.311360	0.311393
O13	O	1.024763	-0.402319	0.522416
O14	O	0.904679	-0.402317	0.402333
O15	O	1.115767	-0.311364	0.522460
O16	O	1.115629	-0.522407	0.311380
O17	O	1.024684	-0.522388	0.402326
C18	C	0.877818	-0.356836	0.356858
C19	C	0.795504	-0.356844	0.356858
C20	C	1.070165	-0.549268	0.356862
C21	C	1.070206	-0.631582	0.356871
C22	C	0.644795	-0.356860	0.356891
C23	C	0.613429	-0.299550	0.299769
C24	C	0.527811	-0.299335	0.299957
C25	C	0.496413	-0.356874	0.356923
C26	C	0.527549	-0.336055	0.435059
C27	C	0.613194	-0.335631	0.434710
C28	C	0.613206	-0.435137	0.336566
C29	C	0.527555	-0.434724	0.334864
C30	C	0.412553	-0.356884	0.356945
C31	C	0.728655	-0.356848	0.356874
C32	C	1.070300	-0.930673	0.356939
C33	C	1.127361	-0.899329	0.299565
C34	C	1.127559	-0.813711	0.299714
C35	C	1.070253	-0.782291	0.356905
C36	C	1.091409	-0.813312	0.434968
C37	C	1.091851	-0.898957	0.434655
C38	C	0.991931	-0.899176	0.336926
C39	C	0.992318	-0.813526	0.335184
C40	C	1.070226	-0.698431	0.356890
C41	C	1.070330	-1.014533	0.356959
C42	C	1.263390	-0.356880	0.356939
C43	C	1.345704	-0.356890	0.356956
C44	C	1.070271	-0.356839	0.550060
C45	C	1.070289	-0.356831	0.632374
C46	C	1.070312	-0.163696	0.356950
C47	C	1.070348	-0.081382	0.356972
C48	C	1.070228	-0.356823	0.164487
C49	C	1.070354	-0.356622	0.082174
C50	C	1.070333	-0.356692	0.931465
C51	C	1.012878	-0.413736	0.900112
C52	C	1.013033	-0.414001	0.814494
C53	C	1.070311	-0.356761	0.783083
C54	C	1.148340	-0.377948	0.814188
C55	C	1.148020	-0.378323	0.899833
C56	C	1.050437	-0.278334	0.899893
C57	C	1.048701	-0.278786	0.814242
C58	C	1.070303	-0.356799	0.699223
C59	C	1.070345	-0.356656	1.015325
H60	H	0.633972	-0.312389	0.241649
O61	O	1.100100	-0.219501	0.785940
H62	H	1.083299	-0.165218	0.808984
O63	O	0.936394	-0.396436	0.786620
H64	H	0.938297	-0.345570	0.752449
O65	O	1.105860	-0.222029	0.926754
H66	H	1.147378	-0.249672	0.962417
H67	H	1.114323	-0.792739	0.241831
H68	H	1.025884	-0.471464	0.921635
H69	H	1.051120	-0.792958	0.478866
O70	O	0.935996	-0.396356	0.927368
H71	H	0.937911	-0.346878	0.963557
O72	O	1.110133	-0.927268	0.222861
H73	H	1.053816	-0.909248	0.206626
H74	H	0.506756	-0.312322	0.242030
H75	H	0.634966	-0.241876	0.313090
O76	O	0.966439	-0.927838	0.262825
H77	H	0.963256	-0.989048	0.264608
O78	O	1.203842	-0.927755	0.316904
H79	H	1.201392	-0.964109	0.366208
O80	O	1.166443	-0.784845	0.457805
H81	H	1.188788	-0.748612	0.413689
H82	H	0.976366	-0.793257	0.277736
H83	H	0.507338	-0.241336	0.313451
H84	H	1.026170	-0.472083	0.794009
H85	H	0.633947	-0.375576	0.478745
O86	O	0.639688	-0.259851	0.457452
H87	H	0.591329	-0.223852	0.468592
H88	H	0.947517	-0.792145	0.373911
O89	O	0.935548	-0.926023	0.392211
H90	H	0.892212	-0.958234	0.363108
H91	H	0.507216	-0.376526	0.478798
H92	H	1.052111	-0.919689	0.478877
O93	O	1.167731	-0.925349	0.457105
H94	H	1.163273	-0.959461	0.507850
H95	H	0.634771	-0.454151	0.280540
O96	O	0.499175	-0.261112	0.458221
H97	H	0.462907	-0.238573	0.414213
H98	H	1.185610	-0.793172	0.312956
O99	O	1.206578	-0.324657	0.787233
H100	H	1.180463	-0.282405	0.751293
O101	O	1.170346	-0.454198	0.926310
H102	H	1.181267	-0.490279	0.877942
H103	H	0.507201	-0.450428	0.277359
H104	H	0.633488	-0.477831	0.378171
O105	O	0.972644	-0.257614	0.787298
H106	H	0.931872	-0.299162	0.806561
O107	O	1.171070	-0.453015	0.785782
H108	H	1.226328	-0.467380	0.808152
H109	H	0.994526	-0.259031	0.921479
O110	O	0.499253	-0.494286	0.385924
H111	H	0.462388	-0.469220	0.428012
O112	O	1.206656	-0.325693	0.927319
H113	H	1.235119	-0.300091	0.879437
