data_functionalizedCrystal
_audit_creation_method	'MofGen! by Chris Wilmer'
_symmetry_space_group_name_H-M	'P1'
_symmetry_Int_Tables_number	1
_symmetry_cell_setting	triclinic
loop_
_symmetry_equiv_pos_as_xyz
  x,y,z
_cell_length_a	14.519709
_cell_length_b	14.971486
_cell_length_c	13.448316
_cell_angle_alpha	90.001801
_cell_angle_beta	89.992453
_cell_angle_gamma	96.352863
loop_
_atom_site_label
_atom_site_type_symbol
_atom_site_fract_x
_atom_site_fract_y
_atom_site_fract_z
O1	O	0.120184	-1.187015	-0.082580
O2	O	0.134576	-0.926623	-0.082607
O3	O	-0.006863	-1.063723	-0.082584
O4	O	0.261623	-1.049915	-0.082603
O5	O	-0.006871	-1.063706	0.082800
O6	O	0.134567	-0.926606	0.082777
O7	O	0.120175	-1.186998	0.082804
Cu8	Cu	0.127371	-1.056800	0.097891
Cu9	Cu	0.127381	-1.056820	-0.097694
O10	O	0.261614	-1.049898	0.082781
C11	C	0.133928	-0.893289	0.000082
C12	C	0.131999	-0.793991	0.000071
C13	C	-0.041226	-1.063071	0.000108
C14	C	-0.143606	-1.061142	0.000109
N15	N	0.127363	-1.056792	0.235456
C16	C	-0.518498	-1.054043	0.000082
C17	C	-0.414191	-1.056015	0.000090
C18	C	-0.331055	-1.057593	0.000096
C19	C	-0.226742	-1.059564	0.000102
C20	C	0.295978	-1.050550	0.000087
C21	C	0.398358	-1.052478	0.000080
C22	C	0.120823	-1.220331	0.000113
C23	C	0.122752	-1.319630	0.000117
C24	C	0.215091	-0.736812	0.000067
C25	C	0.213273	-0.643512	0.000082
C26	C	0.128363	-0.607392	0.000094
C27	C	0.045265	-0.664578	0.000102
C28	C	0.047084	-0.757876	0.000094
C29	C	0.041480	-0.470113	0.000116
C30	C	0.039661	-0.376808	0.000122
C31	C	0.207669	-0.355749	0.000104
C32	C	0.209488	-0.449047	0.000096
C33	C	0.126390	-0.506227	0.000101
N34	N	0.127381	-1.056835	-0.235258
C35	C	0.064759	-1.117519	0.287506
C36	C	0.064759	-1.117525	0.391610
C37	C	0.127366	-1.056807	0.443660
C38	C	0.189973	-0.996074	0.391602
C39	C	0.189968	-0.996065	0.287501
C40	C	0.189979	-0.996099	0.608582
C41	C	0.189985	-0.996109	0.712691
C42	C	0.064769	-1.117559	0.712691
C43	C	0.064765	-1.117549	0.608590
C44	C	0.127373	-1.056817	0.556539
H45	H	0.284234	-0.766213	0.000056
C46	C	-0.003057	-1.183503	0.448255
C47	C	0.046174	-1.238311	0.508023
C48	C	-0.016269	-1.299095	0.560232
H49	H	-0.040370	-1.219757	0.402466
H50	H	-0.041491	-1.151299	0.488934
H51	H	0.084591	-1.270514	0.467348
H52	H	0.083483	-1.202083	0.553831
H53	H	-0.054702	-1.266890	0.600911
H54	H	-0.053578	-1.335342	0.514435
H55	H	0.017125	-1.336284	0.600797
C56	C	-0.043231	-0.819811	0.000042
C57	C	-0.117982	-0.768212	0.000026
C58	C	-0.201196	-0.825234	-0.000031
H59	H	-0.046149	-0.856667	0.057697
H60	H	-0.046060	-0.856629	-0.057657
H61	H	-0.115154	-0.731410	0.057719
H62	H	-0.115095	-0.731358	-0.057624
H63	H	-0.204025	-0.862052	-0.057730
H64	H	-0.204104	-0.862087	0.057624
H65	H	-0.251924	-0.790233	-0.000051
H66	H	0.240965	-0.946665	0.755065
H67	H	-0.023871	-0.635162	0.000126
H68	H	0.275331	-0.309188	0.000103
H69	H	0.280934	-0.596960	0.000077
H70	H	-0.029481	-0.347403	0.000133
H71	H	0.013781	-1.166966	0.245134
H72	H	0.278629	-0.478453	0.000076
C73	C	-0.003355	-1.183456	0.769067
C74	C	-0.094008	-1.168834	0.743740
C75	C	-0.156781	-1.229532	0.795647
H76	H	0.005478	-1.174833	0.838537
H77	H	0.006715	-1.243178	0.751971
H78	H	-0.104075	-1.109127	0.760843
H79	H	-0.102871	-1.177465	0.674280
H80	H	-0.146711	-1.289254	0.778551
H81	H	-0.147940	-1.220904	0.865114
H82	H	-0.218296	-1.219625	0.778463
C83	C	0.258059	-0.930124	0.552248
C84	C	0.312909	-0.876970	0.620110
C85	C	0.375644	-0.816199	0.568251
H86	H	0.224929	-0.892750	0.511644
H87	H	0.296552	-0.962336	0.511648
H88	H	0.274421	-0.844760	0.660692
H89	H	0.346059	-0.914318	0.660715
H90	H	0.414137	-0.848410	0.527651
H91	H	0.342507	-0.778832	0.527649
H92	H	0.412873	-0.780132	0.614287
H93	H	-0.026188	-0.516667	0.000122
H94	H	0.013790	-1.166994	0.566210
H95	H	0.240946	-0.946632	0.433988
H96	H	0.240945	-0.946614	0.245122
