data_functionalizedCrystal
_audit_creation_method	'MofGen! by Chris Wilmer'
_symmetry_space_group_name_H-M	'P1'
_symmetry_Int_Tables_number	1
_symmetry_cell_setting	triclinic
loop_
_symmetry_equiv_pos_as_xyz
  x,y,z
_cell_length_a	16.956995
_cell_length_b	19.288864
_cell_length_c	16.053811
_cell_angle_alpha	92.586478
_cell_angle_beta	92.373810
_cell_angle_gamma	100.404641
loop_
_atom_site_label
_atom_site_type_symbol
_atom_site_fract_x
_atom_site_fract_y
_atom_site_fract_z
O1	O	0.096111	-0.919043	-0.069694
O2	O	0.596111	-0.419043	0.430306
O3	O	0.109535	-0.716046	-0.069637
O4	O	0.609535	-0.216046	0.430363
O5	O	-0.013299	-0.829739	-0.069666
O6	O	0.486701	-0.329739	0.430334
O7	O	0.218946	-0.805350	-0.069665
O8	O	0.718946	-0.305350	0.430335
O9	O	-0.006565	-0.823482	0.069195
O10	O	0.493435	-0.323482	0.569195
O11	O	0.116269	-0.709789	0.069224
O12	O	0.616269	-0.209789	0.569224
O13	O	0.102845	-0.912786	0.069166
O14	O	0.602845	-0.412786	0.569166
Zn15	Zn	0.110626	-0.810294	0.091242
Zn16	Zn	0.610626	-0.310294	0.591242
Zn17	Zn	0.101754	-0.818538	-0.091713
Zn18	Zn	0.601754	-0.318538	0.408287
O19	O	0.225680	-0.799093	0.069195
O20	O	0.725680	-0.299093	0.569195
C21	C	0.112471	-0.687064	-0.000199
C22	C	0.612471	-0.187064	0.499801
C23	C	0.111176	-0.610031	-0.000177
C24	C	0.611176	-0.110031	0.499823
C25	C	-0.039645	-0.827860	-0.000237
C26	C	0.460355	-0.327860	0.499763
C27	C	-0.128179	-0.831572	-0.000241
C28	C	0.371821	-0.331572	0.499759
C29	C	0.099909	-0.941768	-0.000273
C30	C	0.599909	-0.441768	0.499727
C31	C	0.101205	-1.018802	-0.000301
C32	C	0.601205	-0.518802	0.499699
C33	C	-0.627579	-0.859347	-0.000252
C34	C	-0.127579	-0.359347	0.499748
C35	C	-0.544391	-0.855853	-0.000246
C36	C	-0.044391	-0.355853	0.499754
C37	C	-0.493067	-0.790272	-0.000231
C38	C	0.006933	-0.290272	0.499769
C39	C	-0.524934	-0.728180	-0.000214
C40	C	-0.024934	-0.228180	0.499786
C41	C	-0.608120	-0.731674	-0.000214
C42	C	-0.108120	-0.231674	0.499786
C43	C	-0.243232	-0.772975	-0.000224
C44	C	0.256768	-0.272975	0.499776
C45	C	-0.160041	-0.769485	-0.000226
C46	C	0.339959	-0.269485	0.499774
C47	C	-0.179504	-0.897159	-0.000256
C48	C	0.320496	-0.397159	0.499744
C49	C	-0.262691	-0.900648	-0.000262
C50	C	0.237309	-0.400648	0.499738
C51	C	-0.294551	-0.838556	-0.000240
C52	C	0.205449	-0.338556	0.499760
N53	N	-0.408035	-0.786699	-0.000228
N54	N	0.091965	-0.286699	0.499772
N55	N	-0.379581	-0.842130	-0.000238
N56	N	0.120419	-0.342130	0.499762
C57	C	0.252025	-0.800973	-0.000236
C58	C	0.752025	-0.300973	0.499764
C59	C	0.340559	-0.797260	-0.000237
C60	C	0.840559	-0.297260	0.499763
N61	N	0.116681	-0.804673	0.216104
N62	N	0.616681	-0.304673	0.716104
C63	C	0.183248	-0.561394	-0.000190
C64	C	0.683248	-0.061394	0.499810
C65	C	0.182029	-0.489014	-0.000200
C66	C	0.682029	0.010986	0.499800
C67	C	0.108734	-0.465275	-0.000213
C68	C	0.608734	0.034725	0.499787
C69	C	0.036652	-0.513922	-0.000195
C70	C	0.536652	-0.013922	0.499805
C71	C	0.037873	-0.586300	-0.000177
C72	C	0.537873	-0.086300	0.499823
C73	C	0.048755	-0.362357	-0.048890
C74	C	0.548755	0.137643	0.451110
C75	C	0.047537	-0.289980	-0.048913
C76	C	0.547537	0.210020	0.451087
C77	C	0.104966	-0.242037	-0.000263
C78	C	0.604966	0.257963	0.499737
C79	C	0.163625	-0.266479	0.048398
C80	C	0.663625	0.233521	0.548398
C81	C	0.164846	-0.338857	0.048416
C82	C	0.664846	0.161143	0.548416
C83	C	0.107402	-0.386794	-0.000231
C84	C	0.607402	0.113206	0.499769
C85	C	0.175722	-0.114917	-0.000285
C86	C	0.675722	0.385083	0.499715
C87	C	0.174501	-0.042536	-0.000289
C88	C	0.674501	0.457464	0.499711
C89	C	0.029121	-0.067446	-0.000293
C90	C	0.529121	0.432554	0.499707
C91	C	0.030345	-0.139825	-0.000280
C92	C	0.530345	0.360175	0.499720
C93	C	0.103647	-0.163556	-0.000280
C94	C	0.603647	0.336444	0.499720
C95	C	0.064433	-0.853065	0.259785
C96	C	0.564433	-0.353065	0.759785
C97	C	0.068676	-0.849139	0.347193
C98	C	0.568676	-0.349139	0.847193
C99	C	0.125171	-0.796823	0.390918
C100	C	0.625171	-0.296823	0.890918
C101	C	0.177421	-0.748426	0.347230
C102	C	0.677421	-0.248426	0.847230
C103	C	0.173174	-0.752350	0.259824
C104	C	0.673174	-0.252350	0.759824
C105	C	0.143700	-0.779686	0.652332
C106	C	0.643700	-0.279686	1.152332
C107	C	0.147945	-0.775768	0.739744
C108	C	0.647945	-0.275768	1.239744
C109	C	0.039199	-0.876480	0.739701
C110	C	0.539199	-0.376480	1.239701
C111	C	0.034960	-0.880401	0.652293
C112	C	0.534960	-0.380401	1.152293
C113	C	0.087207	-0.832002	0.608613
C114	C	0.587207	-0.332002	1.108613
N115	N	0.129511	-0.792810	0.480262
N116	N	0.629511	-0.292810	0.980262
N117	N	0.082863	-0.836013	0.519270
N118	N	0.582863	-0.336013	1.019270
N119	N	0.095698	-0.824160	0.783425
N120	N	0.595698	-0.324160	1.283425
H121	H	-0.669363	-0.912751	-0.000271
H122	H	-0.169363	-0.412751	0.499729
H123	H	-0.023026	-0.494590	-0.000217
H124	H	0.476974	0.005410	0.499783
H125	H	-0.518454	-0.906411	-0.000257
H126	H	-0.018454	-0.406411	0.499743
H127	H	-0.304475	-0.954051	-0.000270
H128	H	0.195525	-0.454051	0.499730
H129	H	-0.028345	-0.179428	-0.000274
H130	H	0.471655	0.320572	0.499726
H131	H	0.018433	-0.895668	0.224190
H132	H	0.518433	-0.395668	0.724190
H133	H	0.215718	-0.712943	0.224259
H134	H	0.715718	-0.212943	0.724259
H135	H	0.233193	-0.002934	-0.000295
H136	H	0.733193	0.497066	0.499705
H137	H	-0.153555	-0.947711	-0.000281
H138	H	0.346445	-0.447711	0.499719
Cl139	Cl	0.248441	-0.682654	0.402196
Cl140	Cl	0.748441	-0.182654	0.902196
H141	H	-0.118253	-0.716078	-0.000212
H142	H	0.381747	-0.216078	0.499788
Cl143	Cl	-0.036062	-0.946170	0.597325
Cl144	Cl	0.463938	-0.446170	1.097325
H145	H	-0.269162	-0.722416	-0.000216
H146	H	0.230838	-0.222416	0.499784
Cl147	Cl	0.275399	-0.591223	-0.000187
Cl148	Cl	0.775399	-0.091223	0.499813
Cl149	Cl	-0.460411	-0.645734	-0.000192
Cl150	Cl	0.039589	-0.145734	0.499808
Cl151	Cl	-0.648174	-0.653618	-0.000191
Cl152	Cl	-0.148174	-0.153618	0.499809
Cl153	Cl	-0.026482	-0.937318	0.794617
Cl154	Cl	0.473518	-0.437318	1.294617
H155	H	-0.020819	-0.625902	-0.000167
H156	H	0.479181	-0.125902	0.499833
Cl157	Cl	0.002992	-0.909974	0.402109
Cl158	Cl	0.502992	-0.409974	0.902109
H159	H	0.193953	-0.733164	0.775341
H160	H	0.693953	-0.233164	1.275341
H161	H	0.186244	-0.740279	0.616774
H162	H	0.686244	-0.240279	1.116774
Cl163	Cl	0.238582	-0.369581	0.109591
Cl164	Cl	0.738582	0.130419	0.609591
Cl165	Cl	0.272642	-0.427859	-0.000214
Cl166	Cl	0.772642	0.072141	0.499786
Cl167	Cl	0.235827	-0.206215	0.109562
Cl168	Cl	0.735827	0.293785	0.609562
Cl169	Cl	0.267872	-0.144753	-0.000277
Cl170	Cl	0.767872	0.355247	0.499723
Cl171	Cl	-0.063023	-0.037610	-0.000299
Cl172	Cl	0.436977	0.462390	0.499701
Cl173	Cl	-0.026198	-0.259261	-0.110095
Cl174	Cl	0.473802	0.240739	0.389905
H175	H	0.001988	-0.401388	-0.088511
H176	H	0.501988	0.098612	0.411489
