data_functionalizedCrystal
_audit_creation_method	'MofGen! by Chris Wilmer'
_symmetry_space_group_name_H-M	'P1'
_symmetry_Int_Tables_number	1
_symmetry_cell_setting	triclinic
loop_
_symmetry_equiv_pos_as_xyz
  x,y,z
_cell_length_a	10.654566
_cell_length_b	11.792254
_cell_length_c	9.130313
_cell_angle_alpha	89.999802
_cell_angle_beta	89.999648
_cell_angle_gamma	84.345029
loop_
_atom_site_label
_atom_site_type_symbol
_atom_site_fract_x
_atom_site_fract_y
_atom_site_fract_z
O1	O	-0.172204	-1.507300	0.121795
O2	O	-0.189928	-1.177003	0.121798
O3	O	0.001693	-1.349737	0.121790
O4	O	-0.363825	-1.334567	0.121803
O5	O	0.001688	-1.349734	-0.121809
O6	O	-0.189933	-1.177001	-0.121801
O7	O	-0.172209	-1.507298	-0.121804
Cu8	Cu	-0.181072	-1.342150	-0.144045
Cu9	Cu	-0.181066	-1.342152	0.144039
O10	O	-0.363830	-1.334565	-0.121796
C11	C	0.048485	-1.348618	-0.000008
C12	C	0.187918	-1.345274	-0.000003
C13	C	-0.188814	-1.134709	-0.000001
C14	C	-0.185472	-1.008688	-0.000000
C15	C	0.384440	-1.340578	-0.132793
C16	C	0.253426	-1.343706	-0.132792
C17	C	0.253429	-1.343702	0.132793
C18	C	0.384439	-1.340566	0.132790
C19	C	0.449944	-1.339022	-0.265591
C20	C	0.384442	-1.340592	-0.398387
C21	C	0.253427	-1.343719	-0.398386
C22	C	0.187915	-1.345278	-0.265588
C23	C	-0.173323	-1.549593	-0.000002
C24	C	-0.176665	-1.675614	0.000007
C25	C	0.589377	-1.335679	0.000001
C26	C	0.449942	-1.339010	-0.000007
C27	C	-0.182757	-0.906345	0.000006
C28	C	-0.179362	-0.777950	0.000007
N29	N	-0.181075	-1.342156	-0.346668
C30	C	-0.096255	-1.418662	-0.423323
C31	C	-0.096240	-1.418659	-0.576660
C32	C	-0.265877	-1.265640	-0.576672
C33	C	-0.265885	-1.265639	-0.423338
C34	C	-0.011445	-1.495180	-0.346652
C35	C	0.073382	-1.571693	-0.423308
C36	C	0.073397	-1.571690	-0.576645
C37	C	-0.011415	-1.495173	-0.653326
N38	N	-0.181052	-1.342154	0.346662
H39	H	0.556622	-1.336478	-0.265607
C40	C	0.438212	-1.437021	-0.624765
C41	C	0.456445	-1.338871	-0.544354
H42	H	0.482656	-1.435951	-0.714883
H43	H	0.468803	-1.502568	-0.570207
H44	H	0.350807	-1.439096	-0.643757
H45	H	0.543849	-1.336800	-0.525353
H46	H	0.425859	-1.273307	-0.598923
H47	H	-0.011387	-1.495170	-0.778183
C48	C	0.148755	-1.639579	-0.188251
C49	C	0.166657	-1.655747	-0.339026
H50	H	0.206353	-1.691463	-0.136224
H51	H	0.162915	-1.563716	-0.163158
H52	H	0.064858	-1.652613	-0.163114
H53	H	0.250552	-1.642705	-0.364164
H54	H	0.152507	-1.731629	-0.364129
H55	H	-0.334928	-1.203344	-0.639116
H56	H	0.142474	-1.633982	-0.639056
C57	C	-0.433579	-1.114399	-0.438740
C58	C	-0.359128	-1.181549	-0.339067
H59	H	-0.491146	-1.062489	-0.386711
H60	H	-0.380994	-1.073161	-0.498539
H61	H	-0.479105	-1.162009	-0.498553
H62	H	-0.313595	-1.133939	-0.279261
H63	H	-0.411720	-1.222790	-0.279243
H64	H	0.200097	-1.344984	-0.506515
H65	H	0.081232	-1.347805	-0.265598
C66	C	0.092659	-1.249815	0.286861
C67	C	0.181426	-1.345411	0.278761
H68	H	0.048207	-1.250874	0.376976
H69	H	0.134655	-1.182536	0.281333
H70	H	0.034899	-1.251214	0.207776
H71	H	0.239192	-1.344008	0.357841
H72	H	0.139428	-1.412708	0.284303
H73	H	0.437771	-1.339281	0.240916
H74	H	-0.011452	-1.495191	-0.221798
