data_functionalizedCrystal
_audit_creation_method	'MofGen! by Chris Wilmer'
_symmetry_space_group_name_H-M	'P1'
_symmetry_Int_Tables_number	1
_symmetry_cell_setting	triclinic
loop_
_symmetry_equiv_pos_as_xyz
  x,y,z
_cell_length_a	10.654550
_cell_length_b	12.837942
_cell_length_c	9.730223
_cell_angle_alpha	89.996108
_cell_angle_beta	89.999957
_cell_angle_gamma	89.656935
loop_
_atom_site_label
_atom_site_type_symbol
_atom_site_fract_x
_atom_site_fract_y
_atom_site_fract_z
O1	O	1.683741	0.145723	-0.114186
O2	O	2.183741	0.645723	0.385814
O3	O	1.319778	0.159606	-0.114211
O4	O	1.819778	0.659606	0.385789
O5	O	1.493689	0.001704	-0.114190
O6	O	1.993689	0.501704	0.385810
O7	O	1.509830	0.303625	-0.114206
O8	O	2.009830	0.803625	0.385794
O9	O	1.493676	0.001699	0.114390
O10	O	1.993676	0.501699	0.614390
O11	O	1.319765	0.159602	0.114369
O12	O	1.819765	0.659602	0.614369
O13	O	1.683728	0.145718	0.114394
O14	O	2.183728	0.645718	0.614394
Zn15	Zn	1.501744	0.152660	0.150674
Zn16	Zn	2.001744	0.652660	0.650674
Zn17	Zn	1.501761	0.152665	-0.150490
Zn18	Zn	2.001761	0.652665	0.349510
O19	O	1.509817	0.303621	0.114374
O20	O	2.009817	0.803621	0.614374
C21	C	1.272862	0.158585	0.000076
C22	C	1.772862	0.658585	0.500076
C23	C	1.133086	0.155535	0.000067
C24	C	1.633086	0.655535	0.500067
C25	C	1.063746	0.248505	0.000066
C26	C	1.563746	0.748505	0.500066
C27	C	0.932411	0.245633	0.000090
C28	C	1.432411	0.745633	0.500090
C29	C	0.939770	0.056812	0.000110
C30	C	1.439770	0.556812	0.500110
C31	C	1.071101	0.059685	0.000096
C32	C	1.571101	0.559685	0.500096
C33	C	1.488230	-0.036958	0.000099
C34	C	1.988230	0.463042	0.500099
C35	C	1.471967	-0.152152	0.000095
C36	C	1.971967	0.347848	0.500095
C37	C	1.667472	-0.391705	0.000080
C38	C	2.167472	0.108295	0.500080
C39	C	1.652197	-0.499941	0.000077
C40	C	2.152197	0.000059	0.500077
C41	C	1.426146	-0.476861	0.000075
C42	C	1.926146	0.023139	0.500075
C43	C	1.441420	-0.368626	0.000079
C44	C	1.941420	0.131374	0.500079
C45	C	1.562087	-0.326052	0.000083
C46	C	2.062087	0.173948	0.500083
C47	C	1.577360	-0.217814	0.000096
C48	C	2.077360	0.282186	0.500096
C49	C	1.351309	-0.194737	0.000085
C50	C	1.851309	0.305263	0.500085
C51	C	1.336035	-0.302972	0.000082
C52	C	1.836035	0.197028	0.500082
C53	C	1.730644	0.146740	0.000104
C54	C	2.230644	0.646740	0.500104
C55	C	1.870420	0.149790	0.000105
C56	C	2.370420	0.649790	0.500105
C57	C	1.515276	0.342283	0.000082
C58	C	2.015276	0.842283	0.500082
C59	C	1.531538	0.457477	0.000076
C60	C	2.031538	0.957477	0.500076
N61	N	1.501742	0.152655	0.356210
N62	N	2.001742	0.652655	0.856210
N63	N	1.501773	0.152662	-0.356027
N64	N	2.001773	0.652662	0.143973
C65	C	1.578782	0.082766	0.428145
C66	C	2.078782	0.582766	0.928145
C67	C	1.578795	0.082766	0.572028
C68	C	2.078795	0.582766	1.072028
C69	C	1.424724	0.222554	0.572028
C70	C	1.924724	0.722554	1.072028
C71	C	1.424705	0.222548	0.428148
C72	C	1.924705	0.722548	0.928148
H73	H	0.875960	0.321340	0.000092
H74	H	1.375960	0.821340	0.500092
N75	N	1.341597	0.297924	0.350548
N76	N	1.841597	0.797924	0.850548
H77	H	1.292802	0.342206	0.417951
H78	H	1.792802	0.842206	0.917951
H79	H	1.395188	0.344160	0.290829
H80	H	1.895188	0.844160	0.790829
H81	H	1.641526	0.025854	0.630594
H82	H	2.141526	0.525854	1.130594
N83	N	1.237639	-0.123920	0.000094
N84	N	1.737639	0.376080	0.500094
H85	H	1.238935	-0.078489	-0.084637
H86	H	1.738935	0.421511	0.415363
H87	H	1.158945	-0.167389	0.000144
H88	H	1.658945	0.332611	0.500144
H89	H	1.641508	0.025853	0.369577
H90	H	2.141508	0.525853	0.869577
N91	N	0.872915	-0.046564	0.000148
N92	N	1.372915	0.453436	0.500148
H93	H	0.779194	-0.034279	0.000157
H94	H	1.279194	0.465721	0.500157
H95	H	0.897469	-0.087295	-0.084584
H96	H	1.397469	0.412705	0.415416
N97	N	1.205892	-0.348891	0.000091
N98	N	1.705892	0.151109	0.500091
H99	H	1.159132	-0.325003	-0.084638
H100	H	1.659132	0.174997	0.415362
H101	H	1.212307	-0.427412	0.000141
H102	H	1.712307	0.072588	0.500141
N103	N	1.130603	0.351880	0.000033
N104	N	1.630603	0.851880	0.500033
H105	H	1.066743	0.410340	0.000037
H106	H	1.566743	0.910340	0.500037
H107	H	1.184944	0.357188	0.084762
H108	H	1.684944	0.857188	0.584762
N109	N	1.341638	0.297936	0.649619
N110	N	1.841638	0.797936	1.149619
H111	H	1.353341	0.287338	0.751683
H112	H	1.853341	0.787338	1.251683
H113	H	1.364954	0.371651	0.624452
H114	H	1.864954	0.871651	1.124452
N115	N	1.145891	-0.040600	0.000108
N116	N	1.645891	0.459400	0.500108
H117	H	1.124642	-0.082379	-0.084619
H118	H	1.624642	0.417621	0.415381
H119	H	1.238469	-0.024152	0.000155
H120	H	1.738469	0.475848	0.500155
H121	H	1.675613	-0.183153	0.000105
H122	H	2.175613	0.316847	0.500105
H123	H	1.327904	-0.511544	0.000057
H124	H	1.827904	-0.011544	0.500057
H125	H	1.765723	-0.357041	0.000097
H126	H	2.265723	0.142959	0.500097
H127	H	1.738013	-0.553393	0.000070
H128	H	2.238013	-0.053393	0.500070
