data_functionalizedCrystal
_audit_creation_method	'MofGen! by Chris Wilmer'
_symmetry_space_group_name_H-M	'P1'
_symmetry_Int_Tables_number	1
_symmetry_cell_setting	triclinic
loop_
_symmetry_equiv_pos_as_xyz
  x,y,z
_cell_length_a	25.639239
_cell_length_b	14.908571
_cell_length_c	14.908308
_cell_angle_alpha	89.824947
_cell_angle_beta	93.262277
_cell_angle_gamma	93.265364
loop_
_atom_site_label
_atom_site_type_symbol
_atom_site_fract_x
_atom_site_fract_y
_atom_site_fract_z
Zn1	Zn	-0.272845	-1.345148	-0.587542
Zn2	Zn	0.227155	-0.845148	-0.087542
Zn3	Zn	-0.355542	-1.353683	-0.437170
Zn4	Zn	0.144458	-0.853683	0.062830
Zn5	Zn	-0.262803	-1.203468	-0.428541
Zn6	Zn	0.237197	-0.703468	0.071459
Zn7	Zn	-0.354921	-1.194711	-0.578822
Zn8	Zn	0.145079	-0.694711	-0.078822
O9	O	-0.311528	-1.274253	-0.508019
O10	O	0.188472	-0.774253	-0.008019
O11	O	-0.288277	-1.472104	-0.574855
O12	O	0.211723	-0.972104	-0.074855
O13	O	-0.339297	-1.340994	-0.310201
O14	O	0.160703	-0.840994	0.189799
O15	O	-0.190974	-1.222355	-0.449671
O16	O	0.309026	-0.722355	0.050329
O17	O	-0.349035	-1.478375	-0.464378
O18	O	0.150965	-0.978375	0.035622
O19	O	-0.198352	-1.326446	-0.566488
O20	O	0.301648	-0.826446	-0.066488
O21	O	-0.271162	-1.230632	-0.303862
O22	O	0.228838	-0.730632	0.196138
O23	O	-0.270560	-1.076483	-0.441216
O24	O	0.229440	-0.576483	0.058784
O25	O	-0.347976	-1.207430	-0.705803
O26	O	0.152024	-0.707430	-0.205803
O27	O	-0.338239	-1.070049	-0.551626
O28	O	0.161761	-0.570049	-0.051626
O29	O	-0.287675	-1.317955	-0.712209
O30	O	0.212325	-0.817955	-0.212209
O31	O	-0.428620	-1.332503	-0.455922
O32	O	0.071380	-0.832503	0.044078
O33	O	-0.428164	-1.215707	-0.559993
O34	O	0.071836	-0.715707	-0.059993
C35	C	-0.303242	-1.040642	-0.494539
C36	C	0.196758	-0.540642	0.005461
C37	C	-0.299711	-0.940701	-0.488793
C38	C	0.200289	-0.440701	0.011207
C39	C	-0.447364	-1.274104	-0.507969
C40	C	0.052636	-0.774104	-0.007969
C41	C	-0.505479	-1.274121	-0.507982
C42	C	-0.005479	-0.774121	-0.007982
C43	C	-0.318877	-1.260764	-0.742543
C44	C	0.181123	-0.760764	-0.242543
C45	C	-0.322008	-1.255015	-0.842483
C46	C	0.177992	-0.755015	-0.342483
C47	C	-0.866081	-1.335213	-0.453936
C48	C	-0.366081	-0.835213	0.046064
C49	C	-0.920687	-1.335247	-0.453950
C50	C	-0.420687	-0.835247	0.046050
O51	O	-0.949120	-1.387035	-0.407943
O52	O	-0.449120	-0.887035	0.092057
N53	N	-0.947774	-1.274407	-0.508087
N54	N	-0.447774	-0.774407	-0.008087
C55	C	-0.920253	-1.213536	-0.562222
C56	C	-0.420253	-0.713536	-0.062222
O57	O	-0.948307	-1.161791	-0.608272
O58	O	-0.448307	-0.661791	-0.108272
C59	C	-0.865649	-1.213506	-0.562212
C60	C	-0.365649	-0.713506	-0.062212
C61	C	-0.838564	-1.274344	-0.508064
C62	C	-0.338564	-0.774344	-0.008064
C63	C	-0.838996	-1.396046	-0.399793
C64	C	-0.338996	-0.896046	0.100207
C65	C	-0.784393	-1.396010	-0.399778
C66	C	-0.284393	-0.896010	0.100222
C67	C	-0.756876	-1.335142	-0.453906
C68	C	-0.256876	-0.835142	0.046094
C69	C	-0.783961	-1.274309	-0.508048
C70	C	-0.283961	-0.774309	-0.008048
C71	C	-0.838129	-1.152640	-0.616350
C72	C	-0.338129	-0.652640	-0.116350
C73	C	-0.783521	-1.152616	-0.616336
C74	C	-0.283521	-0.652616	-0.116336
C75	C	-0.756436	-1.213454	-0.562188
C76	C	-0.256436	-0.713454	-0.062188
C77	C	-0.701842	-1.213404	-0.562161
C78	C	-0.201842	-0.713404	-0.062161
N79	N	-0.674754	-1.274244	-0.508024
N80	N	-0.174754	-0.774244	-0.008024
C81	C	-0.702272	-1.335113	-0.453896
C82	C	-0.202272	-0.835113	0.046104
C83	C	-1.034927	-1.213603	-0.562239
C84	C	-0.534927	-0.713603	-0.062239
C85	C	-1.089530	-1.213627	-0.562245
C86	C	-0.589530	-0.713627	-0.062245
C87	C	-1.089960	-1.335339	-0.453974
C88	C	-0.589960	-0.835339	0.046026
C89	C	-1.035355	-1.335310	-0.453964
C90	C	-0.535355	-0.835310	0.046036
C91	C	-1.007839	-1.274442	-0.508102
C92	C	-0.507839	-0.774442	-0.008102
C93	C	-0.587603	-1.335033	-0.453867
C94	C	-0.087603	-0.835033	0.046133
C95	C	-0.532996	-1.334989	-0.453854
C96	C	-0.032996	-0.834989	0.046146
C97	C	-0.532571	-1.213280	-0.562128
C98	C	-0.032571	-0.713280	-0.062128
C99	C	-0.587173	-1.213320	-0.562138
C100	C	-0.087173	-0.713320	-0.062138
C101	C	-0.614688	-1.274204	-0.508005
C102	C	-0.114688	-0.774204	-0.008005
O103	O	-0.673375	-1.161645	-0.608147
O104	O	-0.173375	-0.661645	-0.108147
O105	O	-0.674211	-1.386857	-0.407862
O106	O	-0.174211	-0.886857	0.092138
C107	C	-0.175163	-1.274426	-0.508090
C108	C	0.324837	-0.774426	-0.008090
C109	C	-0.117052	-1.274499	-0.508120
C110	C	0.382948	-0.774499	-0.008120
C111	C	-0.319846	-1.508776	-0.521552
C112	C	0.180154	-1.008776	-0.021552
C113	C	-0.323390	-1.608716	-0.527319
C114	C	0.176610	-1.108716	-0.027319
C115	C	-0.363649	-0.746258	-0.592813
C116	C	0.136351	-0.246258	-0.092813
C117	C	-0.360332	-0.652355	-0.587418
C118	C	0.139668	-0.152355	-0.087418
C119	C	-0.289761	-0.658987	-0.472613
C120	C	0.210239	-0.158987	0.027387
C121	C	-0.293077	-0.752891	-0.478008
C122	C	0.206923	-0.252891	0.021992
C123	C	-0.330022	-0.796523	-0.538109
C124	C	0.169978	-0.296523	-0.038109
C125	C	-0.333341	-0.890429	-0.543499
C126	C	0.166659	-0.390429	-0.043499
C127	C	-0.262767	-0.897060	-0.428700
C128	C	0.237233	-0.397060	0.071300
C129	C	-0.259451	-0.803156	-0.423304
C130	C	0.240549	-0.303156	0.076696
C131	C	-0.265089	-1.359301	-1.036954
C132	C	0.234911	-0.859301	-0.536954
C133	C	-0.268030	-1.353903	-1.130857
C134	C	0.231970	-0.853903	-0.630857
C135	C	-0.330827	-1.238817	-1.124193
C136	C	0.169173	-0.738817	-0.624193
C137	C	-0.327887	-1.244215	-1.030291
C138	C	0.172113	-0.744215	-0.530291
C139	C	-0.295017	-1.304460	-0.986674
C140	C	0.204983	-0.804460	-0.486674
C141	C	-0.292079	-1.309862	-0.892770
C142	C	0.207921	-0.809862	-0.392770
C143	C	-0.354874	-1.194772	-0.886108
C144	C	0.145126	-0.694772	-0.386108
C145	C	-0.357814	-1.189374	-0.980011
C146	C	0.142186	-0.689374	-0.480011
C147	C	-0.304171	-1.287741	-0.274410
C148	C	0.195829	-0.787741	0.225590
C149	C	-0.300899	-1.293664	-0.174480
C150	C	0.199101	-0.793664	0.325520
H151	H	-0.510945	-1.384531	-0.409757
H152	H	-0.010945	-0.884531	0.090243
H153	H	-0.243658	-1.398557	-1.171792
H154	H	0.256342	-0.898557	-0.671792
H155	H	-0.357588	-1.189768	-1.159722
H156	H	0.142412	-0.689768	-0.659722
H157	H	-0.860172	-1.103095	-0.660439
H158	H	-0.360172	-0.603095	-0.160439
N159	N	-0.249917	-0.611916	-0.407794
N160	N	0.250083	-0.111916	0.092206
H161	H	-0.229116	-0.658006	-0.373955
H162	H	0.270884	-0.158006	0.126045
H163	H	-0.225528	-0.570879	-0.442236
H164	H	0.274472	-0.070879	0.057764
H165	H	-1.012526	-1.164029	-0.606321
H166	H	-0.512526	-0.664029	-0.106321
H167	H	-0.379244	-1.150119	-0.845160
H168	H	0.120756	-0.650119	-0.345160
N169	N	-0.403499	-0.793321	-0.657626
N170	N	0.096501	-0.293321	-0.157626
H171	H	-0.384976	-0.829914	-0.701601
H172	H	0.115024	-0.329914	-0.201601
H173	H	-0.427910	-0.834307	-0.623174
H174	H	0.072090	-0.334307	-0.123174
N175	N	-0.393253	-1.124381	-1.027055
N176	N	0.106747	-0.624381	-0.527055
H177	H	-0.390572	-1.129275	-1.094171
H178	H	0.109428	-0.629275	-0.594171
H179	H	-0.430577	-1.139263	-1.011440
H180	H	0.069423	-0.639263	-0.511440
H181	H	-0.363425	-0.925953	-0.592435
H182	H	0.136575	-0.425953	-0.092435
N183	N	-0.256632	-1.374845	-0.845728
N184	N	0.243368	-0.874845	-0.345728
H185	H	-0.278139	-1.418729	-0.809169
H186	H	0.221861	-0.918729	-0.309169
H187	H	-0.238129	-1.408700	-0.891891
H188	H	0.261871	-0.908700	-0.391891
H189	H	-0.387713	-0.611432	-0.631965
H190	H	0.112287	-0.111432	-0.131965
H191	H	-1.013306	-1.384850	-0.409873
H192	H	-0.513306	-0.884850	0.090127
H193	H	-0.609999	-1.384612	-0.409789
H194	H	-0.109999	-0.884612	0.090211
H195	H	-0.762344	-1.445552	-0.355688
H196	H	-0.262344	-0.945552	0.144312
H197	H	-0.235387	-0.937996	-0.384154
H198	H	0.264613	-0.437996	0.115846
N199	N	-0.753843	-1.086966	-0.674730
N200	N	-0.253843	-0.586966	-0.174730
H201	H	-0.779291	-1.048436	-0.709030
H202	H	-0.279291	-0.548436	-0.209030
H203	H	-0.728600	-1.047475	-0.635695
H204	H	-0.228600	-0.547475	-0.135695
H205	H	-0.609227	-1.163784	-0.606233
H206	H	-0.109227	-0.663784	-0.106233
H207	H	-0.238328	-1.408359	-1.001442
H208	H	0.261672	-0.908359	-0.501442
N209	N	-0.219615	-0.756088	-0.358469
N210	N	0.280385	-0.256088	0.141531
H211	H	-0.195187	-0.715042	-0.392831
H212	H	0.304813	-0.215042	0.107169
H213	H	-0.238195	-0.719557	-0.314525
H214	H	0.261805	-0.219557	0.185475
N215	N	-0.502881	-1.147632	-0.620500
N216	N	-0.002881	-0.647632	-0.120500
H217	H	-0.482795	-1.181736	-0.664292
H218	H	0.017205	-0.681736	-0.164292
H219	H	-0.528351	-1.109107	-0.654749
H220	H	-0.028351	-0.609107	-0.154749
N221	N	-0.868670	-1.461704	-0.341408
N222	N	-0.368670	-0.961704	0.158592
H223	H	-0.843218	-1.500230	-0.307113
H224	H	-0.343218	-1.000230	0.192887
H225	H	-0.888753	-1.427546	-0.297658
H226	H	-0.388753	-0.927546	0.202342
H227	H	-1.111578	-1.164079	-0.606329
H228	H	-0.611578	-0.664079	-0.106329
N229	N	-1.119644	-1.400993	-0.395591
N230	N	-0.619644	-0.900993	0.104409
H231	H	-1.158345	-1.391777	-0.403820
H232	H	-0.658345	-0.891777	0.096180
H233	H	-1.112775	-1.464385	-0.413341
H234	H	-0.612775	-0.964385	0.086659
