data_functionalizedCrystal
_audit_creation_method	'MofGen! by Chris Wilmer'
_symmetry_space_group_name_H-M	'P1'
_symmetry_Int_Tables_number	1
_symmetry_cell_setting	triclinic
loop_
_symmetry_equiv_pos_as_xyz
  x,y,z
_cell_length_a	6.817900
_cell_length_b	12.908942
_cell_length_c	11.102193
_cell_angle_alpha	94.413094
_cell_angle_beta	108.604059
_cell_angle_gamma	100.860556
loop_
_atom_site_label
_atom_site_type_symbol
_atom_site_fract_x
_atom_site_fract_y
_atom_site_fract_z
V1	V	-4.071822	-0.145860	-0.395550
O2	O	-4.072453	0.007001	-0.388748
O3	O	-4.009589	-0.289208	-0.392145
O4	O	-4.049205	-0.143620	-0.568383
O5	O	-4.032562	-0.139595	-0.211291
V6	V	-4.553901	-0.127576	-0.373596
O7	O	-4.336247	-0.185968	-0.443708
O8	O	-4.739673	-0.087467	-0.325439
O9	O	-4.392927	0.015773	-0.377001
O10	O	-4.670666	-0.280437	-0.380399
O11	O	-4.710557	-0.133841	-0.557856
O12	O	-4.353310	-0.129816	-0.200764
C13	C	-3.850390	-0.324154	-0.385725
C14	C	-3.880967	-0.441343	-0.384093
C15	C	-4.303577	-0.672296	-0.393684
C16	C	-4.332316	-0.782406	-0.392151
C17	C	-3.967190	-0.771676	-0.379503
C18	C	-3.938451	-0.661566	-0.381036
C19	C	-4.106652	-0.611880	-0.388125
C20	C	-4.077906	-0.501767	-0.389648
C21	C	-3.712787	-0.491040	-0.377010
C22	C	-3.741526	-0.601150	-0.375477
C23	C	-3.900924	-0.138439	-0.610532
C24	C	-3.963625	-0.137556	-0.751818
C25	C	-4.031410	-0.330638	-0.787210
C26	C	-4.094752	-0.426759	-0.871280
C27	C	-4.153665	-0.425924	-1.004029
C28	C	-4.149241	-0.328956	-1.052711
C29	C	-4.085899	-0.232835	-0.968641
C30	C	-4.026982	-0.233681	-0.835889
C31	C	-4.018129	-0.039756	-0.933251
C32	C	-3.959200	-0.040589	-0.800500
C33	C	-4.013704	0.057212	-0.981932
C34	C	-3.950347	0.153336	-0.897861
C35	C	-3.891429	0.152496	-0.765103
C36	C	-3.895858	0.055533	-0.716430
C37	C	-4.215466	0.050712	-0.383419
C38	C	-4.164129	0.167900	-0.385059
C39	C	-4.164933	-0.135000	-0.158609
C40	C	-4.081471	-0.135877	-0.017321
H41	H	-3.604591	-0.641620	-0.369710
H42	H	-4.061693	0.057885	-1.090026
H43	H	-3.830264	-0.812151	-0.373744
H44	H	-4.214861	-0.461313	-0.395411
H45	H	-4.098354	-0.505708	-0.831629
H46	H	-4.440524	-0.631838	-0.399436
H47	H	-3.946766	0.232279	-0.937509
H48	H	-4.492670	-0.831593	-0.396680
H49	H	-3.552432	-0.441836	-0.372482
H50	H	-3.983412	-0.331327	-0.679118
H51	H	-4.205246	-0.504194	-1.072481
H52	H	-4.197241	-0.328285	-1.160805
H53	H	-3.839865	0.230770	-0.696660
C54	C	-3.831053	0.054608	-0.570405
C55	C	-3.953952	0.102216	-0.493802
C56	C	-3.889154	0.101287	-0.347777
C57	C	-3.701457	0.052750	-0.278355
C58	C	-3.578546	0.005139	-0.354959
C59	C	-3.643344	0.006068	-0.500983
H60	H	-4.092908	0.138148	-0.545191
H61	H	-3.980142	0.136532	-0.291070
H62	H	-3.653489	0.052062	-0.170259
H63	H	-3.439590	-0.030794	-0.303569
H64	H	-3.552356	-0.029177	-0.557690
