data_functionalizedCrystal
_audit_creation_method	'MofGen! by Chris Wilmer'
_symmetry_space_group_name_H-M	'P1'
_symmetry_Int_Tables_number	1
_symmetry_cell_setting	triclinic
loop_
_symmetry_equiv_pos_as_xyz
  x,y,z
_cell_length_a	18.215407
_cell_length_b	18.215405
_cell_length_c	18.215407
_cell_angle_alpha	90.015953
_cell_angle_beta	90.009037
_cell_angle_gamma	90.025333
loop_
_atom_site_label
_atom_site_type_symbol
_atom_site_fract_x
_atom_site_fract_y
_atom_site_fract_z
Zn1	Zn	1.124994	-0.293089	0.416102
Zn2	Zn	1.458327	0.040244	0.749436
Zn3	Zn	1.791660	0.373578	1.082769
Zn4	Zn	1.124925	-0.416129	0.293031
Zn5	Zn	1.458258	-0.082796	0.626364
Zn6	Zn	1.791592	0.250538	0.959697
Zn7	Zn	1.001949	-0.293082	0.293050
Zn8	Zn	1.335283	0.040252	0.626383
Zn9	Zn	1.668616	0.373585	0.959716
Zn10	Zn	1.001892	-0.416119	0.416055
Zn11	Zn	1.335225	-0.082786	0.749389
Zn12	Zn	1.668559	0.250547	1.082722
O13	O	1.063440	-0.354605	0.354559
O14	O	1.396773	-0.021271	0.687893
O15	O	1.730107	0.312062	1.021226
O16	O	1.227969	-0.309418	0.399788
O17	O	1.561302	0.023916	0.733122
O18	O	1.894635	0.357249	1.066455
O19	O	1.108607	-0.399807	0.190049
O20	O	1.441941	-0.066474	0.523382
O21	O	1.775274	0.266859	0.856715
O22	O	1.018324	-0.190098	0.309401
O23	O	1.351657	0.143235	0.642734
O24	O	1.684991	0.476568	0.976067
O25	O	1.227918	-0.399815	0.309368
O26	O	1.561252	-0.066481	0.642701
O27	O	1.894585	0.266852	0.976035
O28	O	1.108724	-0.190104	0.399807
O29	O	1.442057	0.143229	0.733140
O30	O	1.775391	0.476563	1.066474
O31	O	1.018258	-0.309405	0.190063
O32	O	1.351591	0.023928	0.523396
O33	O	1.684924	0.357261	0.856730
O34	O	0.898957	-0.309396	0.309355
O35	O	1.232291	0.023937	0.642688
O36	O	1.565624	0.357271	0.976022
O37	O	1.018226	-0.399798	0.519046
O38	O	1.351560	-0.066465	0.852379
O39	O	1.684893	0.266868	1.185712
O40	O	0.898915	-0.399791	0.399727
O41	O	1.232249	-0.066458	0.733060
O42	O	1.565582	0.266876	1.066393
O43	O	1.108668	-0.309408	0.519080
O44	O	1.442002	0.023925	0.852414
O45	O	1.775335	0.357258	1.185747
O46	O	1.108552	-0.519112	0.309322
O47	O	1.441885	-0.185779	0.642656
O48	O	1.775219	0.147555	0.975989
O49	O	1.018160	-0.519105	0.399708
O50	O	1.351493	-0.185772	0.733041
O51	O	1.684827	0.147562	1.066375
C52	C	0.872234	-0.354592	0.354538
C53	C	1.205567	-0.021259	0.687872
C54	C	1.538900	0.312074	1.021205
C55	C	0.790435	-0.354605	0.354547
C56	C	1.123768	-0.021271	0.687880
C57	C	1.457101	0.312062	1.021213
C58	C	0.602238	-0.401747	0.401544
C59	C	0.935572	-0.068414	0.734878
C60	C	1.268905	0.264919	1.068211
C61	C	0.525379	-0.401750	0.401553
C62	C	0.858713	-0.068416	0.734887
C63	C	1.192046	0.264917	1.068220
C64	C	0.525394	-0.307476	0.307591
C65	C	0.858727	0.025858	0.640924
C66	C	1.192060	0.359191	0.974257
C67	C	0.602251	-0.307470	0.307586
C68	C	0.935584	0.025863	0.640919
C69	C	1.268918	0.359196	0.974253
C70	C	0.640671	-0.354610	0.354562
C71	C	0.974005	-0.021277	0.687895
C72	C	1.307338	0.312056	1.021228
C73	C	0.486955	-0.354618	0.354576
C74	C	0.820289	-0.021285	0.687909
C75	C	1.153622	0.312049	1.021242
C76	C	0.403622	-0.354620	0.354585
C77	C	0.736955	-0.021287	0.687919
C78	C	1.070288	0.312047	1.021252
C79	C	0.724010	-0.354607	0.354553
C80	C	1.057344	-0.021274	0.687886
C81	C	1.390677	0.312059	1.021220
C82	C	1.063362	-0.545811	0.354524
C83	C	1.396696	-0.212478	0.687857
C84	C	1.730029	0.120856	1.021191
C85	C	1.063396	-0.627610	0.354534
C86	C	1.396730	-0.294277	0.687867
C87	C	1.730063	0.039057	1.021200
C88	C	1.110574	-0.815783	0.307556
C89	C	1.443907	-0.482450	0.640890
C90	C	1.777241	-0.149116	0.974223
C91	C	1.110607	-0.892642	0.307574
C92	C	1.443940	-0.559309	0.640907
C93	C	1.777273	-0.225975	0.974241
C94	C	1.016400	-0.892674	0.401616
C95	C	1.349734	-0.559341	0.734949
C96	C	1.683067	-0.226008	1.068282
C97	C	1.016372	-0.815817	0.401601
C98	C	1.349705	-0.482484	0.734934
C99	C	1.683038	-0.149150	1.068268
C100	C	1.063457	-0.777373	0.354567
C101	C	1.396791	-0.444040	0.687900
C102	C	1.730124	-0.110707	1.021234
C103	C	1.063519	-0.931090	0.354600
C104	C	1.396852	-0.597756	0.687933
C105	C	1.730186	-0.264423	1.021266
C106	C	1.063554	-1.014423	0.354619
C107	C	1.396887	-0.681090	0.687953
C108	C	1.730221	-0.347756	1.021286
C109	C	1.063423	-0.694035	0.354548
C110	C	1.396756	-0.360701	0.687882
C111	C	1.730090	-0.027368	1.021215
C112	C	1.255393	-0.354618	0.354581
C113	C	1.588726	-0.021285	0.687914
C114	C	1.922060	0.312049	1.021248
C115	C	1.337192	-0.354624	0.354590
C116	C	1.670525	-0.021290	0.687924
C117	C	2.003858	0.312043	1.021257
C118	C	1.063449	-0.354603	0.546512
C119	C	1.396782	-0.021270	0.879846
C120	C	1.730115	0.312064	1.213179
C121	C	1.063452	-0.354602	0.628311
C122	C	1.396786	-0.021269	0.961645
C123	C	1.730119	0.312064	1.294978
C124	C	1.063538	-0.162652	0.354611
C125	C	1.396871	0.170681	0.687944
C126	C	1.730205	0.504015	1.021278
C127	C	1.063580	-0.080853	0.354633
C128	C	1.396913	0.252480	0.687966
C129	C	1.730246	0.585814	1.021300
C130	C	1.110525	-0.307542	0.893388
C131	C	1.443858	0.025791	1.226721
C132	C	1.777192	0.359124	1.560055
C133	C	1.110530	-0.307542	0.816529
C134	C	1.443863	0.025791	1.149863
C135	C	1.777197	0.359125	1.483196
C136	C	1.016358	-0.401674	0.816483
C137	C	1.349691	-0.068341	1.149816
C138	C	1.683024	0.264992	1.483150
C139	C	1.016357	-0.401678	0.893340
C140	C	1.349690	-0.068344	1.226674
C141	C	1.683024	0.264989	1.560007
C142	C	1.063439	-0.354608	0.931791
C143	C	1.396773	-0.021274	1.265124
C144	C	1.730106	0.312059	1.598457
C145	C	1.063445	-0.354604	0.778075
C146	C	1.396779	-0.021271	1.111408
C147	C	1.730112	0.312063	1.444741
C148	C	1.063451	-0.354604	0.694741
C149	C	1.396784	-0.021271	1.028074
C150	C	1.730117	0.312063	1.361408
C151	C	1.063435	-0.354608	1.015130
C152	C	1.396769	-0.021275	1.348463
C153	C	1.730102	0.312058	1.681796
C154	C	1.063428	-0.354619	1.163353
C155	C	1.396762	-0.021286	1.496687
C156	C	1.730095	0.312047	1.830020
C157	C	1.063433	-0.354609	1.081554
C158	C	1.396766	-0.021276	1.414888
C159	C	1.730099	0.312058	1.748221
H160	H	1.148915	-0.784484	0.269260
H161	H	1.482248	-0.451151	0.602593
H162	H	1.815582	-0.117817	0.935926
H163	H	0.978003	-0.784542	0.439886
H164	H	1.311337	-0.451209	0.773220
H165	H	1.644670	-0.117875	1.106553
N166	N	1.161302	-0.256775	0.934861
N167	N	1.494636	0.076559	1.268195
N168	N	1.827969	0.409892	1.601528
H169	H	1.191131	-0.226960	0.898868
H170	H	1.524465	0.106374	1.232201
H171	H	1.857798	0.439707	1.565534
H172	H	1.195347	-0.286730	0.966749
H173	H	1.528680	0.046604	1.300082
H174	H	1.862013	0.379937	1.633415
H175	H	0.633544	-0.269081	0.269327
H176	H	0.966877	0.064252	0.602660
H177	H	1.300211	0.397586	0.935993
H178	H	0.978013	-0.440008	0.924609
H179	H	1.311347	-0.106675	1.257942
H180	H	1.644680	0.226659	1.591275
H181	H	1.148975	-0.923912	0.269294
H182	H	1.482308	-0.590578	0.602628
H183	H	1.815642	-0.257245	0.935961
H184	H	1.148873	-0.269217	0.785265
H185	H	1.482206	0.064116	1.118598
H186	H	1.815539	0.397449	1.451932
H187	H	0.978024	-0.439996	0.785167
H188	H	1.311357	-0.106663	1.118501
H189	H	1.644690	0.226670	1.451834
N190	N	0.643679	-0.452588	0.452209
N191	N	0.977012	-0.119254	0.785542
N192	N	1.310346	0.214079	1.118875
H193	H	0.607666	-0.482448	0.481974
H194	H	0.940999	-0.149115	0.815307
H195	H	1.274333	0.184219	1.148640
H196	H	0.675587	-0.422681	0.486317
H197	H	1.008921	-0.089348	0.819650
H198	H	1.342254	0.243986	1.152984
N199	N	0.483926	-0.452593	0.452224
N200	N	0.817259	-0.119260	0.785558
N201	N	1.150592	0.214073	1.118891
H202	H	0.519930	-0.482454	0.481979
H203	H	0.853263	-0.149121	0.815312
H204	H	1.186596	0.184212	1.148645
H205	H	0.452018	-0.486604	0.422204
H206	H	0.785352	-0.153271	0.755538
H207	H	1.118685	0.180062	1.088871
H208	H	0.978064	-0.923985	0.439908
H209	H	1.311397	-0.590651	0.773241
H210	H	1.644730	-0.257318	1.106574
H211	H	0.494103	-0.269097	0.269344
H212	H	0.827436	0.064236	0.602677
H213	H	1.160769	0.397570	0.936010
