data_functionalizedCrystal
_audit_creation_method	'MofGen! by Chris Wilmer'
_symmetry_space_group_name_H-M	'P1'
_symmetry_Int_Tables_number	1
_symmetry_cell_setting	triclinic
loop_
_symmetry_equiv_pos_as_xyz
  x,y,z
_cell_length_a	16.120490
_cell_length_b	16.120444
_cell_length_c	16.120256
_cell_angle_alpha	95.616860
_cell_angle_beta	90.129807
_cell_angle_gamma	90.165174
loop_
_atom_site_label
_atom_site_type_symbol
_atom_site_fract_x
_atom_site_fract_y
_atom_site_fract_z
Zn1	Zn	1.224981	-0.422349	-0.554795
Zn2	Zn	1.558314	-0.089016	-0.221462
Zn3	Zn	1.891648	0.244317	0.111872
Zn4	Zn	1.224874	-0.555030	-0.422101
Zn5	Zn	1.558208	-0.221696	-0.088767
Zn6	Zn	1.891541	0.111637	0.244566
Zn7	Zn	1.093720	-0.408253	-0.408039
Zn8	Zn	1.427054	-0.074920	-0.074706
Zn9	Zn	1.760387	0.258413	0.258627
Zn10	Zn	1.078871	-0.554258	-0.554037
Zn11	Zn	1.412204	-0.220925	-0.220704
Zn12	Zn	1.745537	0.112408	0.112630
O13	O	1.155612	-0.484973	-0.484743
O14	O	1.488945	-0.151639	-0.151410
O15	O	1.822278	0.181694	0.181924
O16	O	1.341003	-0.446172	-0.543395
O17	O	1.674336	-0.112838	-0.210061
O18	O	2.007669	0.220495	0.123272
O19	O	1.213646	-0.529983	-0.303602
O20	O	1.546980	-0.196650	0.029731
O21	O	1.880313	0.136683	0.363065
O22	O	1.117392	-0.293492	-0.421939
O23	O	1.450725	0.039841	-0.088606
O24	O	1.784058	0.373174	0.244727
O25	O	1.340924	-0.543652	-0.445905
O26	O	1.674258	-0.210318	-0.112571
O27	O	2.007591	0.123015	0.220762
O28	O	1.213828	-0.303849	-0.529760
O29	O	1.547162	0.029485	-0.196427
O30	O	1.880495	0.362818	0.136907
O31	O	1.117288	-0.422147	-0.293271
O32	O	1.450622	-0.088814	0.040062
O33	O	1.783955	0.244519	0.373395
O34	O	0.975715	-0.421399	-0.421205
O35	O	1.309048	-0.088066	-0.087871
O36	O	1.642381	0.245267	0.245462
O37	O	1.092083	-0.542337	-0.670771
O38	O	1.425416	-0.209003	-0.337438
O39	O	1.758749	0.124330	-0.004105
O40	O	0.964805	-0.528668	-0.528468
O41	O	1.298138	-0.195335	-0.195135
O42	O	1.631471	0.137998	0.138198
O43	O	1.199429	-0.445424	-0.671328
O44	O	1.532762	-0.112090	-0.337995
O45	O	1.866096	0.221243	-0.004661
O46	O	1.199247	-0.671558	-0.445170
O47	O	1.532581	-0.338225	-0.111837
O48	O	1.865914	-0.004892	0.221497
O49	O	1.091979	-0.670992	-0.542103
O50	O	1.425313	-0.337658	-0.208770
O51	O	1.758646	-0.004325	0.124564
C52	C	0.940173	-0.473421	-0.473229
C53	C	1.273506	-0.140088	-0.139896
C54	C	1.606839	0.193246	0.193438
C55	C	0.848005	-0.468500	-0.468324
C56	C	1.181338	-0.135167	-0.134990
C57	C	1.514672	0.198166	0.198343
C58	C	0.632810	-0.510491	-0.510188
C59	C	0.966143	-0.177158	-0.176854
C60	C	1.299476	0.156175	0.156479
C61	C	0.679258	-0.459524	-0.459368
C62	C	1.012591	-0.126190	-0.126034
C63	C	1.345924	0.207143	0.207299
C64	C	0.773157	-0.464520	-0.464352
C65	C	1.106491	-0.131187	-0.131019
C66	C	1.439824	0.202147	0.202314
C67	C	0.538901	-0.505496	-0.505204
C68	C	0.872235	-0.172163	-0.171871
C69	C	1.205568	0.161170	0.161463
C70	C	1.144012	-0.701518	-0.495099
C71	C	1.477345	-0.368185	-0.161766
C72	C	1.810679	-0.034851	0.171567
C73	C	1.139124	-0.794163	-0.499562
C74	C	1.472457	-0.460829	-0.166229
C75	C	1.805790	-0.127496	0.167105
C76	C	1.181162	-1.005322	-0.461784
C77	C	1.514495	-0.671989	-0.128451
C78	C	1.847829	-0.338655	0.204882
C79	C	1.130214	-0.963781	-0.507719
C80	C	1.463548	-0.630448	-0.174385
C81	C	1.796881	-0.297114	0.158948
C82	C	1.135173	-0.869396	-0.503179
C83	C	1.468506	-0.536063	-0.169846
C84	C	1.801840	-0.202730	0.163488
C85	C	1.176204	-1.099715	-0.466323
C86	C	1.509538	-0.766382	-0.132990
C87	C	1.842871	-0.433048	0.200344
C88	C	1.371892	-0.496570	-0.496303
C89	C	1.705225	-0.163237	-0.162969
C90	C	2.038558	0.170097	0.170364
C91	C	1.464057	-0.501512	-0.501229
C92	C	1.797391	-0.168179	-0.167896
C93	C	2.130724	0.165155	0.165438
C94	C	1.144111	-0.495366	-0.702137
C95	C	1.477445	-0.162033	-0.368804
C96	C	1.810778	0.171300	-0.035470
C97	C	1.139211	-0.499796	-0.794777
C98	C	1.472544	-0.166462	-0.461444
C99	C	1.805877	0.166871	-0.128111
C100	C	1.167278	-0.267584	-0.474366
C101	C	1.500612	0.065750	-0.141032
C102	C	1.833945	0.399083	0.192301
C103	C	1.172250	-0.174946	-0.469944
C104	C	1.505583	0.158388	-0.136610
C105	C	1.838917	0.491721	0.196723
C106	C	1.181168	-0.461853	-1.005940
C107	C	1.514501	-0.128520	-0.672607
C108	C	1.847835	0.204813	-0.339274
C109	C	1.130237	-0.507846	-0.964384
C110	C	1.463571	-0.174513	-0.631050
C111	C	1.796904	0.158820	-0.297717
C112	C	1.135232	-0.503366	-0.870006
C113	C	1.468565	-0.170032	-0.536673
C114	C	1.801898	0.163301	-0.203339
C115	C	1.176175	-0.466333	-1.100327
C116	C	1.509508	-0.133000	-0.766993
C117	C	1.842841	0.200334	-0.433660
C118	C	1.167118	-0.474562	-0.268195
C119	C	1.500451	-0.141228	0.065139
C120	C	1.833785	0.192105	0.398472
C121	C	1.172192	-0.469906	-0.175552
C122	C	1.505525	-0.136573	0.157781
C123	C	1.838859	0.196760	0.491115
H124	H	0.663563	-0.557875	-0.557436
H125	H	0.996896	-0.224542	-0.224102
H126	H	1.330230	0.108792	0.109231
N127	N	0.640696	-0.400083	-0.400071
N128	N	0.974030	-0.066750	-0.066738
N129	N	1.307363	0.266584	0.266596
N130	N	0.684314	-0.352168	-0.352281
N131	N	1.017647	-0.018835	-0.018948
N132	N	1.350980	0.314499	0.314385
H133	H	0.657078	-0.310192	-0.310401
H134	H	0.990411	0.023142	0.022932
H135	H	1.323744	0.356475	0.356265
H136	H	1.228519	-0.419117	-0.970640
H137	H	1.561852	-0.085783	-0.637307
H138	H	1.895185	0.247550	-0.303974
H139	H	1.082872	-0.999101	-0.550454
H140	H	1.416206	-0.665768	-0.217121
H141	H	1.749539	-0.332435	0.116213
N142	N	1.240548	-0.961008	-0.408183
N143	N	1.573881	-0.627675	-0.074850
N144	N	1.907215	-0.294341	0.258483
N145	N	1.244539	-0.883287	-0.404530
N146	N	1.577872	-0.549953	-0.071197
N147	N	1.911205	-0.216620	0.262137
H148	H	1.286479	-0.851980	-0.366675
H149	H	1.619812	-0.518647	-0.033341
H150	H	1.953145	-0.185313	0.299992
N151	N	1.070834	-0.561460	-1.008676
N152	N	1.404167	-0.228126	-0.675342
N153	N	1.737500	0.105207	-0.342009
N154	N	1.066810	-0.565070	-1.086392
N155	N	1.400143	-0.231737	-0.753058
N156	N	1.733477	0.101596	-0.419725
H157	H	1.024859	-0.602934	-1.117677
H158	H	1.358193	-0.269601	-0.784344
H159	H	1.691526	0.063732	-0.451011
