data_functionalizedCrystal
_audit_creation_method	'MofGen! by Chris Wilmer'
_symmetry_space_group_name_H-M	'P1'
_symmetry_Int_Tables_number	1
_symmetry_cell_setting	triclinic
loop_
_symmetry_equiv_pos_as_xyz
  x,y,z
_cell_length_a	19.077105
_cell_length_b	18.050589
_cell_length_c	19.076919
_cell_angle_alpha	87.724745
_cell_angle_beta	89.923776
_cell_angle_gamma	87.724731
loop_
_atom_site_label
_atom_site_type_symbol
_atom_site_fract_x
_atom_site_fract_y
_atom_site_fract_z
Zn1	Zn	1.058247	-0.359281	0.440438
Zn2	Zn	1.062879	-0.478689	0.322938
Zn3	Zn	0.945466	-0.349333	0.318231
Zn4	Zn	0.940701	-0.478241	0.435691
O5	O	1.001823	-0.416386	0.379325
O6	O	1.157193	-0.379472	0.428809
O7	O	1.051237	-0.457554	0.223983
O8	O	0.960482	-0.246731	0.334459
O9	O	1.160596	-0.467201	0.342482
O10	O	1.043342	-0.254040	0.424244
O11	O	0.964973	-0.362516	0.220524
O12	O	0.846502	-0.362082	0.329856
O13	O	0.952361	-0.466437	0.534652
O14	O	0.843002	-0.456790	0.416153
O15	O	1.038722	-0.379038	0.538140
O16	O	1.046617	-0.582551	0.337879
O17	O	0.956853	-0.582222	0.420717
C18	C	0.819256	-0.408308	0.371979
C19	C	0.741152	-0.404871	0.368853
C20	C	0.702657	-0.452635	0.412244
C21	C	0.629270	-0.449396	0.409310
C22	C	0.594379	-0.398396	0.362981
C23	C	0.632879	-0.350627	0.319588
C24	C	0.706264	-0.353863	0.322526
C25	C	0.375093	-0.383419	0.349388
C26	C	0.301702	-0.380188	0.346452
C27	C	0.298098	-0.478956	0.436175
C28	C	0.371485	-0.482191	0.439105
C29	C	0.409979	-0.434419	0.395715
N30	N	0.519366	-0.395085	0.359980
N31	N	0.484990	-0.437727	0.398721
C32	C	1.001739	-0.609334	0.379310
C33	C	1.001766	-0.691882	0.379329
C34	C	0.952999	-0.891182	0.424363
C35	C	0.938449	-0.937256	0.359556
C36	C	1.001835	-0.843016	0.379341
C37	C	1.016419	-0.944025	0.444157
C38	C	1.001900	-0.989004	0.379358
C39	C	0.987253	-0.887999	0.314499
C40	C	1.065250	-0.894768	0.399145
C41	C	1.050726	-0.940818	0.334295
C42	C	1.001796	-0.758915	0.379332
C43	C	1.001939	-1.073102	0.379360
C44	C	1.185104	-0.424496	0.386700
C45	C	1.263207	-0.427952	0.389843
C46	C	0.994493	-0.423797	0.562605
C47	C	0.991370	-0.426955	0.640709
C48	C	1.001926	-0.222686	0.379356
C49	C	1.001970	-0.140143	0.379369
C50	C	1.009165	-0.408952	0.196759
C51	C	1.012425	-0.405591	0.118661
C52	C	1.034863	-0.382937	0.679219
C53	C	1.031920	-0.385901	0.752605
C54	C	0.985486	-0.432888	0.787479
C55	C	0.941988	-0.476908	0.748964
C56	C	0.944928	-0.473940	0.675579
C57	C	0.971867	-0.446642	1.006761
C58	C	0.968931	-0.449609	1.080151
C59	C	1.058863	-0.358601	1.083787
C60	C	1.061802	-0.355639	1.010401
C61	C	1.018301	-0.399657	0.971892
N62	N	0.982478	-0.435921	0.862492
N63	N	1.021307	-0.396619	0.896881
H64	H	0.399888	-0.523722	0.476830
H65	H	0.974881	-0.863588	0.259675
H66	H	0.909504	-0.509777	0.644225
H67	H	0.911645	-0.869387	0.462377
H68	H	0.731060	-0.494167	0.449968
H69	H	1.092055	-0.962470	0.296183
F70	F	1.078236	-0.339077	0.793588
F71	F	0.257126	-0.529796	0.482349
H72	H	1.094278	-0.322763	1.115149
F73	F	0.595743	-0.296344	0.270286
F74	F	0.868390	-0.961800	0.337665
H75	H	0.273296	-0.338649	0.308729
H76	H	0.936456	-0.482496	0.975416
F77	F	0.892566	-0.526913	0.786082
F78	F	1.111224	-0.305630	0.973290
F79	F	0.416051	-0.332574	0.303209
F80	F	0.747233	-0.303025	0.276345
H81	H	1.118835	-0.875974	0.415910
H82	H	0.931117	-0.487874	1.108544
H83	H	1.028729	-0.968523	0.498964
H84	H	0.597931	-0.488291	0.444643
F85	F	1.084289	-0.332930	0.642109
