data_functionalizedCrystal
_audit_creation_method	'MofGen! by Chris Wilmer'
_symmetry_space_group_name_H-M	'P1'
_symmetry_Int_Tables_number	1
_symmetry_cell_setting	triclinic
loop_
_symmetry_equiv_pos_as_xyz
  x,y,z
_cell_length_a	10.654550
_cell_length_b	9.065218
_cell_length_c	9.130313
_cell_angle_alpha	90.000552
_cell_angle_beta	89.996220
_cell_angle_gamma	84.750394
loop_
_atom_site_label
_atom_site_type_symbol
_atom_site_fract_x
_atom_site_fract_y
_atom_site_fract_z
O1	O	1.668655	0.207228	-0.121914
O2	O	1.303255	0.226972	-0.121889
O3	O	1.493507	0.002416	-0.121899
O4	O	1.478402	0.431784	-0.121904
O5	O	1.493505	0.002422	0.121700
O6	O	1.303252	0.226978	0.121709
O7	O	1.668653	0.207234	0.121685
Cu8	Cu	1.485952	0.217107	0.143940
Cu9	Cu	1.485955	0.217100	-0.144144
O10	O	1.478400	0.431790	0.121695
C11	C	1.256450	0.225525	-0.000087
C12	C	1.116989	0.221188	-0.000078
C13	C	1.038027	0.353403	-0.000101
C14	C	0.906990	0.349319	-0.000126
C15	C	0.933890	0.080793	-0.000112
C16	C	1.064925	0.084879	-0.000076
C17	C	1.022496	0.508434	-0.000115
C18	C	0.891459	0.504350	-0.000141
C19	C	1.492055	-0.052559	-0.000102
C20	C	1.487714	-0.216378	-0.000109
C21	C	1.715457	0.208681	-0.000120
C22	C	1.854918	0.213018	-0.000139
C23	C	1.479852	0.486766	-0.000106
C24	C	1.484193	0.650585	-0.000108
N25	N	1.485959	0.217111	0.346563
N26	N	1.485957	0.217084	-0.346767
C27	C	1.570225	0.117712	0.423210
C28	C	1.570222	0.117694	0.576547
C29	C	1.401682	0.316488	0.576575
C30	C	1.401681	0.316497	0.423241
C31	C	1.667534	0.002944	0.423195
C32	C	1.667531	0.002926	0.576532
H33	H	0.849958	0.562761	-0.102095
C34	C	0.876616	-0.069142	-0.000117
C35	C	0.905759	-0.179353	-0.126600
C36	C	0.848489	-0.329292	-0.126607
C37	C	0.762077	-0.369020	-0.000131
C38	C	0.732929	-0.258806	0.126361
C39	C	0.790199	-0.108867	0.126368
H40	H	0.969730	-0.149947	-0.220234
H41	H	0.870066	-0.410880	-0.220246
H42	H	0.719682	-0.480014	-0.000136
H43	H	0.668958	-0.288212	0.219995
H44	H	0.768622	-0.027279	0.220007
H45	H	0.845972	0.551205	0.105027
C46	C	1.798033	0.037087	0.632774
C47	C	1.916031	-0.065605	0.592027
C48	C	2.046524	-0.031441	0.648275
C49	C	2.059018	0.105416	0.745270
C50	C	1.941016	0.208117	0.786022
C51	C	1.810523	0.173952	0.729774
H52	H	1.906786	-0.166923	0.520221
H53	H	2.133877	-0.107467	0.618107
H54	H	2.155617	0.130706	0.786909
H55	H	1.950262	0.309434	0.857829
H56	H	1.723171	0.249979	0.759942
C57	C	1.308980	0.425825	0.338922
C58	C	1.216343	0.535221	0.423262
C59	C	1.123638	0.644551	0.338940
C60	C	1.123569	0.644485	0.170279
C61	C	1.216209	0.535085	0.085929
C62	C	1.308915	0.425755	0.170251
H63	H	1.216391	0.535273	0.548123
H64	H	1.055060	0.725537	0.401382
H65	H	1.054943	0.725418	0.107859
H66	H	1.216161	0.535033	-0.038932
H67	H	1.377493	0.344770	0.107809
H68	H	1.129212	-0.022783	-0.000036
H69	H	1.333064	0.397404	0.639023
C70	C	1.070936	0.575126	-0.142189
C71	C	1.047981	0.501733	-0.290721
C72	C	1.096420	0.568420	-0.432799
C73	C	1.167814	0.708501	-0.426345
C74	C	1.190772	0.781902	-0.277808
C75	C	1.142333	0.715215	-0.135730
H76	H	0.995128	0.398030	-0.295503
H77	H	1.079424	0.514083	-0.542756
H78	H	1.203671	0.757866	-0.531520
H79	H	1.243625	0.885605	-0.273025
H80	H	1.159328	0.769552	-0.025773
H81	H	1.636593	-0.104243	0.624083
H82	H	1.052066	0.569069	0.101835
H83	H	1.758860	0.038879	0.375630
C84	C	1.637951	-0.150251	0.366957
C85	C	1.614095	-0.273762	0.476542
C86	C	1.584509	-0.426951	0.420304
C87	C	1.578780	-0.456629	0.254480
C88	C	1.602637	-0.333115	0.144884
C89	C	1.632222	-0.179926	0.201123
H90	H	1.618335	-0.251796	0.599304
H91	H	1.566849	-0.518385	0.501434
H92	H	1.556879	-0.570029	0.212848
H93	H	1.598396	-0.355081	0.022122
H94	H	1.649882	-0.088492	0.119992
