data_functionalizedCrystal
_audit_creation_method	'MofGen! by Chris Wilmer'
_symmetry_space_group_name_H-M	'P1'
_symmetry_Int_Tables_number	1
_symmetry_cell_setting	triclinic
loop_
_symmetry_equiv_pos_as_xyz
  x,y,z
_cell_length_a	15.944551
_cell_length_b	15.944545
_cell_length_c	12.996460
_cell_angle_alpha	89.991753
_cell_angle_beta	89.998907
_cell_angle_gamma	83.497456
loop_
_atom_site_label
_atom_site_type_symbol
_atom_site_fract_x
_atom_site_fract_y
_atom_site_fract_z
O1	O	1.114523	0.108334	-0.085464
O2	O	0.869973	0.121690	-0.085491
O3	O	0.998929	-0.007263	-0.085465
O4	O	0.985567	0.237287	-0.085491
O5	O	0.998915	-0.007270	0.085669
O6	O	0.869959	0.121683	0.085643
O7	O	1.114509	0.108327	0.085669
Cu8	Cu	0.992233	0.115004	0.101282
Cu9	Cu	0.992249	0.115013	-0.101103
O10	O	0.985554	0.237280	0.085643
C11	C	0.838672	0.121132	0.000073
C12	C	0.745426	0.119470	0.000064
C13	C	0.998368	-0.038561	0.000103
C14	C	0.996708	-0.131807	0.000106
C15	C	0.530571	0.035565	0.000092
C16	C	0.469557	0.074531	-0.084290
C17	C	0.574700	0.116463	0.000076
C18	C	0.469566	0.074543	0.084435
C19	C	0.409788	0.113552	0.000093
C20	C	0.514914	0.155451	-0.084376
C21	C	0.514930	0.155452	0.084425
C22	C	0.453933	0.194476	0.000022
C23	C	0.669703	0.118137	0.000066
C24	C	0.314787	0.111884	0.000096
C25	C	0.911814	-0.402440	0.000076
C26	C	0.952750	-0.351851	-0.084298
C27	C	0.990787	-0.467451	0.000076
C28	C	0.952758	-0.351885	0.084427
C29	C	0.993692	-0.302537	0.000092
C30	C	1.031702	-0.418090	-0.084368
C31	C	1.031698	-0.418128	0.084433
C32	C	1.072692	-0.367571	0.000038
C33	C	0.989112	-0.562453	0.000066
C34	C	0.995374	-0.207538	0.000095
C35	C	1.145810	0.108885	0.000103
C36	C	1.239056	0.110547	0.000106
C37	C	0.986114	0.268578	0.000073
C38	C	0.987774	0.361824	0.000064
N39	N	0.992228	0.114998	0.243629
N40	N	0.992261	0.115013	-0.243450
C41	C	0.992248	0.115014	0.663444
C42	C	0.992240	0.115012	0.546638
C43	C	0.992238	0.115006	0.453540
C44	C	0.992230	0.115004	0.336728
H45	H	0.563906	-0.031573	-0.000005
H46	H	1.065035	-0.446893	-0.155778
H47	H	1.140757	-0.352081	-0.000002
C48	C	1.076705	-0.457249	0.180814
N49	N	1.110596	-0.486717	0.253417
C50	C	0.541921	0.201638	-0.180863
N51	N	0.562266	0.236421	-0.253537
C52	C	0.442391	0.028309	-0.180652
N53	N	0.421931	-0.006510	-0.253227
C54	C	0.409127	0.285268	-0.000053
N55	N	0.375377	0.353650	-0.000114
C56	C	0.442426	0.028296	0.180808
N57	N	0.421987	-0.006543	0.253393
H58	H	0.919386	-0.322974	0.155756
C59	C	0.542126	0.201630	0.180796
N60	N	0.562615	0.236405	0.253392
H61	H	0.843802	-0.418092	-0.000014
C62	C	0.907700	-0.312754	-0.180673
N63	N	0.873764	-0.283309	-0.253259
