data_functionalizedCrystal
_audit_creation_method	'MofGen! by Chris Wilmer'
_symmetry_space_group_name_H-M	'P1'
_symmetry_Int_Tables_number	1
_symmetry_cell_setting	triclinic
loop_
_symmetry_equiv_pos_as_xyz
  x,y,z
_cell_length_a	11.026607
_cell_length_b	15.995350
_cell_length_c	9.482900
_cell_angle_alpha	99.336743
_cell_angle_beta	78.636152
_cell_angle_gamma	96.039196
loop_
_atom_site_label
_atom_site_type_symbol
_atom_site_fract_x
_atom_site_fract_y
_atom_site_fract_z
O1	O	1.629075	0.340363	-0.120882
O2	O	2.129075	0.840363	0.379118
O3	O	1.275769	0.300437	-0.120885
O4	O	1.775769	0.800437	0.379115
O5	O	1.462080	0.199968	-0.120882
O6	O	1.962080	0.699968	0.379118
O7	O	1.442765	0.440832	-0.120885
O8	O	1.942765	0.940832	0.379115
O9	O	1.424236	0.220481	0.120910
O10	O	1.924236	0.720481	0.620910
O11	O	1.237926	0.320950	0.120907
O12	O	1.737926	0.820950	0.620907
O13	O	1.591231	0.360875	0.120910
O14	O	2.091231	0.860875	0.620910
Cu15	Cu	1.411123	0.342785	0.142986
Cu16	Cu	1.911123	0.842785	0.642986
Cu17	Cu	1.455878	0.318527	-0.142961
Cu18	Cu	1.955878	0.818527	0.357039
O19	O	1.404921	0.461344	0.120907
O20	O	1.904921	0.961344	0.620907
C21	C	1.211637	0.303328	0.000010
C22	C	1.711637	0.803328	0.500010
C23	C	1.076923	0.281371	0.000009
C24	C	1.576923	0.781371	0.500009
C25	C	1.003118	0.341997	0.000007
C26	C	1.503118	0.841997	0.500007
C27	C	0.863884	0.319305	0.000005
C28	C	1.363884	0.819305	0.500005
C29	C	1.442360	0.178909	0.000011
C30	C	1.942360	0.678909	0.500011
C31	C	1.439967	0.085597	0.000003
C32	C	1.939967	0.585597	0.500003
C33	C	1.431369	-0.253446	0.000008
C34	C	1.931369	0.246554	0.500008
C35	C	1.298767	-0.226057	-0.000536
C36	C	1.798767	0.273943	0.499464
C37	C	1.301076	-0.128960	0.000009
C38	C	1.801076	0.371040	0.500009
C39	C	1.435634	-0.085243	0.000005
C40	C	1.935634	0.414757	0.500005
C41	C	1.479470	-0.104742	0.138078
C42	C	1.979470	0.395258	0.638078
C43	C	1.476118	-0.201871	0.138193
C44	C	1.976118	0.298129	0.638193
C45	C	1.521895	-0.225142	-0.136769
C46	C	2.021895	0.274858	0.363231
C47	C	1.522149	-0.128356	-0.138594
C48	C	2.022149	0.371644	0.361406
C49	C	1.438051	0.009819	0.000008
C50	C	1.938051	0.509819	0.500008
C51	C	1.428954	-0.348507	0.000014
C52	C	1.928954	0.151493	0.500014
C53	C	1.655364	0.357984	0.000012
C54	C	2.155364	0.857984	0.500012
C55	C	1.790080	0.379940	0.000004
C56	C	2.290080	0.879940	0.500004
C57	C	1.424641	0.482403	0.000011
C58	C	1.924641	0.982403	0.500011
C59	C	1.427036	0.575714	0.000009
C60	C	1.927036	1.075714	0.500009
N61	N	1.379654	0.359848	0.344106
N62	N	1.879654	0.859848	0.844106
N63	N	1.487357	0.301459	-0.344081
N64	N	1.987357	0.801459	0.155919
C65	C	1.446587	0.323554	0.416306
C66	C	1.946587	0.823554	0.916306
C67	C	1.420413	0.337759	0.583723
C68	C	1.920413	0.837759	1.083723
H69	H	0.829962	0.448650	0.000012
H70	H	1.329962	0.948650	0.500012
O71	O	1.588934	0.246360	0.573652
O72	O	2.088934	0.746360	1.073652
H73	H	1.593557	0.243849	0.455066
H74	H	2.093557	0.743849	0.955066
H75	H	1.621579	-0.098912	-0.146934
H76	H	2.121579	0.401088	0.353066
H77	H	0.824003	0.250594	-0.000031
H78	H	1.324003	0.750594	0.499969
O79	O	1.024089	0.190364	0.000021
O80	O	1.524089	0.690364	0.500021
H81	H	1.099331	0.149406	0.000036
H82	H	1.599331	0.649406	0.500036
H83	H	1.577522	-0.075281	0.143209
H84	H	2.077522	0.424719	0.643209
O85	O	1.253448	-0.112692	-0.131087
O86	O	1.753448	0.387308	0.368913
H87	H	1.170184	-0.075868	-0.094678
H88	H	1.670184	0.424132	0.405322
O89	O	1.318851	0.392871	0.665991
O90	O	1.818851	0.892871	1.165991
H91	H	1.228702	0.365636	0.636897
H92	H	1.728702	0.865636	1.136897
H93	H	1.261230	-0.260983	-0.099551
H94	H	1.761230	0.239017	0.400449
H95	H	1.619870	-0.242236	-0.137701
H96	H	2.119870	0.257764	0.362299
O97	O	1.548131	0.268434	0.334029
O98	O	2.048131	0.768434	0.834029
H99	H	1.552741	0.265916	0.215445
H100	H	2.052741	0.765916	0.715445
H101	H	1.302967	0.401433	0.406234
H102	H	1.802967	0.901433	0.906234
H103	H	1.490286	-0.116985	-0.240737
H104	H	1.990286	0.383015	0.259263
H105	H	1.043008	0.410702	0.000014
H106	H	1.543008	0.910702	0.500014
H107	H	1.230558	-0.245256	0.097926
H108	H	1.730558	0.254744	0.597926
O109	O	1.211945	-0.091233	0.131352
O110	O	1.711945	0.408767	0.631352
H111	H	1.167030	-0.142349	0.194734
H112	H	1.667030	0.357651	0.694734
H113	H	1.572555	-0.218904	0.144455
H114	H	2.072555	0.281096	0.644455
O115	O	1.391503	-0.224057	0.274903
O116	O	1.891503	0.275943	0.774903
H117	H	1.296793	-0.205567	0.277317
H118	H	1.796793	0.294433	0.777317
O119	O	1.397968	-0.064679	0.274196
O120	O	1.897968	0.435321	0.774196
H121	H	1.326196	-0.030862	0.243858
H122	H	1.826196	0.469138	0.743858
H123	H	1.494892	-0.261099	-0.241421
H124	H	1.994892	0.238901	0.258579
