data_functionalizedCrystal
_audit_creation_method	'MofGen! by Chris Wilmer'
_symmetry_space_group_name_H-M	'P1'
_symmetry_Int_Tables_number	1
_symmetry_cell_setting	triclinic
loop_
_symmetry_equiv_pos_as_xyz
  x,y,z
_cell_length_a	15.712078
_cell_length_b	15.995350
_cell_length_c	14.750477
_cell_angle_alpha	75.803791
_cell_angle_beta	80.467330
_cell_angle_gamma	101.536762
loop_
_atom_site_label
_atom_site_type_symbol
_atom_site_fract_x
_atom_site_fract_y
_atom_site_fract_z
O1	O	1.163684	0.480551	-0.080041
O2	O	0.912019	0.416799	-0.079995
O3	O	1.044730	0.328894	-0.080018
O4	O	1.030972	0.568455	-0.080018
O5	O	1.011238	0.286206	0.079646
O6	O	0.878526	0.374111	0.079669
O7	O	1.130191	0.437863	0.079623
Zn8	Zn	0.999041	0.399209	0.104996
Zn9	Zn	1.043169	0.455452	-0.105368
O10	O	0.997479	0.525767	0.079646
C11	C	0.863068	0.385040	-0.000158
C12	C	0.767109	0.353998	-0.000140
C13	C	1.027416	0.276181	-0.000188
C14	C	1.025712	0.182710	-0.000193
C15	C	0.400027	0.617529	-0.000206
C16	C	0.309870	0.588352	-0.000230
C17	C	0.330486	0.442122	-0.000232
C18	C	0.420648	0.471288	-0.000213
C19	C	0.455410	0.558992	-0.000199
C20	C	0.476031	0.412751	-0.000206
C21	C	0.566184	0.441914	-0.000182
C22	C	0.600952	0.529614	-0.000164
C23	C	0.545562	0.588155	-0.000174
C24	C	0.441266	0.325045	-0.000213
C25	C	0.496649	0.266508	-0.000206
C26	C	0.586805	0.295673	-0.000189
C27	C	0.621573	0.383372	-0.000172
C28	C	0.642195	0.237131	-0.000179
C29	C	0.732347	0.266294	-0.000155
C30	C	0.711726	0.412535	-0.000147
C31	C	1.019587	-0.156914	-0.000189
C32	C	0.925147	-0.138332	-0.000530
C33	C	0.926777	-0.041216	-0.000170
C34	C	1.022625	0.011577	-0.000192
C35	C	1.050118	-0.039598	0.090974
C36	C	1.047727	-0.136982	0.091051
C37	C	1.087767	-0.088198	-0.090517
C38	C	1.087997	0.009063	-0.091722
C39	C	1.024346	0.106802	-0.000190
C40	C	1.017867	-0.252140	-0.000184
C41	C	1.179142	0.469622	-0.000217
C42	C	1.275102	0.500665	-0.000240
C43	C	1.014795	0.578480	-0.000186
C44	C	1.016500	0.671953	-0.000187
N45	N	0.968931	0.360826	0.248564
C46	C	1.157301	0.601048	0.600305
C47	C	1.136222	0.574145	0.700813
C48	C	1.031390	0.440418	0.700818
C49	C	1.052457	0.467312	0.600309
C50	C	1.115413	0.547627	0.550060
C51	C	1.010569	0.413892	0.550063
C52	C	1.031638	0.440782	0.449562
C53	C	1.094594	0.521092	0.399307
C54	C	1.136482	0.574517	0.449559
C55	C	0.947618	0.333574	0.600314
C56	C	0.905730	0.280154	0.550069
C57	C	0.926794	0.307046	0.449566
C58	C	0.989750	0.387357	0.399310
C59	C	0.884906	0.253621	0.399314
C60	C	0.905975	0.280511	0.298813
C61	C	1.010819	0.414246	0.298809
N62	N	1.073281	0.493845	0.751064
H63	H	0.740030	0.483952	-0.000134
H64	H	1.187738	0.639924	0.408644
Br65	Br	1.206423	0.072810	-0.100934
Br66	Br	1.161932	-0.157159	0.097932
Br67	Br	0.885037	-0.159364	-0.109497
Br68	Br	0.318912	0.285463	-0.000233
H69	H	1.071361	-0.099726	-0.159616
H70	H	1.119823	-0.004811	0.094349
Br71	Br	0.945953	0.331422	0.769021
H72	H	1.062075	0.479653	0.257894
Br73	Br	0.820293	0.171157	0.618272
Br74	Br	0.595002	0.118103	-0.000180
H75	H	0.999436	-0.183917	0.159214
H76	H	1.208557	0.666455	0.559390
Br77	Br	1.204129	-0.105285	-0.091567
H78	H	1.003506	-0.039275	0.158831
H79	H	0.833653	0.188224	0.440241
H80	H	0.428331	0.688946	-0.000192
Br81	Br	0.449462	0.147483	-0.000220
H82	H	0.903842	-0.006543	-0.065521
H83	H	0.674360	0.553356	-0.000141
H84	H	1.111749	0.542984	0.317472
Br85	Br	0.807515	0.186850	-0.000139
H86	H	0.930471	0.311679	0.682148
H87	H	0.873899	-0.186828	0.064495
H88	H	0.264777	0.636026	-0.000231
H89	H	0.876152	-0.042154	0.065305
Br90	Br	1.055251	0.067827	-0.204150
Br91	Br	0.849150	0.207997	0.230616
H92	H	1.170336	0.617653	0.741719
H93	H	0.302168	0.370709	-0.000233
Br94	Br	0.592752	0.707189	-0.000171
