data_functionalizedCrystal
_audit_creation_method	'MofGen! by Chris Wilmer'
_symmetry_space_group_name_H-M	'P1'
_symmetry_Int_Tables_number	1
_symmetry_cell_setting	triclinic
loop_
_symmetry_equiv_pos_as_xyz
  x,y,z
_cell_length_a	18.050590
_cell_length_b	18.050589
_cell_length_c	13.897441
_cell_angle_alpha	90.027873
_cell_angle_beta	90.006213
_cell_angle_gamma	90.017386
loop_
_atom_site_label
_atom_site_type_symbol
_atom_site_fract_x
_atom_site_fract_y
_atom_site_fract_z
Zn1	Zn	1.135344	-0.295851	0.545026
Zn2	Zn	1.135239	-0.420055	0.383735
Zn3	Zn	1.011148	-0.295860	0.383785
Zn4	Zn	1.011111	-0.419980	0.545028
O5	O	1.073210	-0.357936	0.464393
O6	O	1.239254	-0.312354	0.523608
O7	O	1.118750	-0.403615	0.248760
O8	O	1.027682	-0.191934	0.405194
O9	O	1.239178	-0.403606	0.405108
O10	O	1.118928	-0.191927	0.523657
O11	O	1.027580	-0.312370	0.248796
O12	O	0.907218	-0.312297	0.405196
O13	O	1.027619	-0.403479	0.680009
O14	O	0.907191	-0.403487	0.523661
O15	O	1.118892	-0.312281	0.680008
O16	O	1.118714	-0.523969	0.405111
O17	O	1.027518	-0.523914	0.523612
C18	C	0.880258	-0.357886	0.464435
C19	C	0.797712	-0.357882	0.464475
C20	C	1.073121	-0.550888	0.464377
C21	C	1.073150	-0.633434	0.464403
C22	C	0.598269	-0.407613	0.528744
C23	C	0.548878	-0.339895	0.552473
C24	C	0.646582	-0.357923	0.464428
C25	C	0.548891	-0.425680	0.440698
C26	C	0.500597	-0.357969	0.464385
C27	C	0.598278	-0.290169	0.488204
C28	C	0.598296	-0.376000	0.376387
C29	C	0.548928	-0.308235	0.400084
C30	C	0.730680	-0.357898	0.464456
C31	C	0.416500	-0.357987	0.464357
C32	C	1.023606	-0.832882	0.528821
C33	C	1.005500	-0.882324	0.440809
C34	C	1.073223	-0.784564	0.464415
C35	C	1.091366	-0.882204	0.552438
C36	C	1.073292	-0.930550	0.464435
C37	C	1.055081	-0.832919	0.376356
C38	C	1.140979	-0.832795	0.488045
C39	C	1.122898	-0.882215	0.399971
C40	C	1.073182	-0.700466	0.464405
C41	C	1.073334	-1.014646	0.464435
C42	C	1.266916	-0.357988	0.464352
C43	C	1.349462	-0.358010	0.464335
C44	C	1.073263	-0.357871	0.715986
C45	C	1.073285	-0.357843	0.823200
C46	C	1.073321	-0.164231	0.464430
C47	C	1.073367	-0.081685	0.464446
C48	C	1.073201	-0.357948	0.213779
C49	C	1.073322	-0.357767	0.106565
C50	C	1.073306	-0.357792	1.019496
C51	C	1.073292	-0.357822	0.910263
H52	H	0.527170	-0.324621	0.626909
C53	C	1.112066	-0.911452	0.652987
C54	C	1.116553	-0.995476	0.671198
C55	C	1.137246	-1.024720	0.771748
C56	C	1.153453	-0.969940	0.854087
C57	C	1.148966	-0.885911	0.835878
C58	C	1.128273	-0.856667	0.735328
H59	H	1.104556	-1.036032	0.610244
H60	H	1.140568	-1.086924	0.785227
H61	H	1.168771	-0.991589	0.928520
H62	H	1.160963	-0.845355	0.896833
H63	H	1.124951	-0.794462	0.721849
H64	H	0.527400	-0.266185	0.345676
H65	H	0.619881	-0.232870	0.508341
H66	H	0.527194	-0.482961	0.420647
H67	H	0.619935	-0.449561	0.583194
H68	H	1.164887	-0.903740	0.345451
C69	C	1.034295	-0.803801	0.275774
C70	C	1.017416	-0.858686	0.193782
C71	C	0.996627	-0.829566	0.093204
C72	C	0.992716	-0.745562	0.074618
C73	C	1.009596	-0.690672	0.156613
C74	C	1.030385	-0.719792	0.257191
H75	H	1.020310	-0.920876	0.207538
H76	H	0.984131	-0.870200	0.032506
H77	H	0.977327	-0.724006	0.000165
H78	H	1.006702	-0.628482	0.142857
H79	H	1.042881	-0.679158	0.317889
C80	C	1.218322	-0.803378	0.515075
C81	C	1.281388	-0.858014	0.538051
C82	C	1.358732	-0.828595	0.565094
C83	C	1.373010	-0.744539	0.569162
C84	C	1.309943	-0.689897	0.546186
C85	C	1.232599	-0.719316	0.519142
H86	H	1.270820	-0.920242	0.535040
H87	H	1.405418	-0.869045	0.582103
H88	H	1.430265	-0.722761	0.589182
H89	H	1.320511	-0.627669	0.549197
H90	H	1.185913	-0.678866	0.502134
C91	C	0.966844	-0.803608	0.602296
C92	C	0.884233	-0.823191	0.591318
C93	C	0.827469	-0.793915	0.664786
C94	C	0.853316	-0.745057	0.749232
C95	C	0.935931	-0.725472	0.760214
C96	C	0.992695	-0.754747	0.686746
H97	H	0.865096	-0.859361	0.528802
H98	H	0.766312	-0.808413	0.656656
H99	H	0.811297	-0.723385	0.803618
H100	H	0.955068	-0.689302	0.822730
H101	H	1.053852	-0.740249	0.694876
H102	H	0.620020	-0.391294	0.301973
C103	C	0.928135	-0.911717	0.413812
C104	C	0.864723	-0.857055	0.392613
C105	C	0.787357	-0.886444	0.365624
C106	C	0.773401	-0.970495	0.359835
C107	C	0.836815	-1.025162	0.381034
C108	C	0.914182	-0.995773	0.408023
H109	H	0.875052	-0.794830	0.396898
H110	H	0.740414	-0.845975	0.349931
H111	H	0.716130	-0.992250	0.339856
H112	H	0.826486	-1.087387	0.376749
H113	H	0.961124	-1.036242	0.423716
