data_functionalizedCrystal
_audit_creation_method	'MofGen! by Chris Wilmer'
_symmetry_space_group_name_H-M	'P1'
_symmetry_Int_Tables_number	1
_symmetry_cell_setting	triclinic
loop_
_symmetry_equiv_pos_as_xyz
  x,y,z
_cell_length_a	14.908783
_cell_length_b	19.805405
_cell_length_c	19.805399
_cell_angle_alpha	90.028893
_cell_angle_beta	86.683876
_cell_angle_gamma	86.681500
loop_
_atom_site_label
_atom_site_type_symbol
_atom_site_fract_x
_atom_site_fract_y
_atom_site_fract_z
Zn1	Zn	1.379179	0.209843	-0.442500
Zn2	Zn	1.879179	0.709843	0.057500
Zn3	Zn	1.379069	0.323039	-0.329307
Zn4	Zn	1.879069	0.823039	0.170693
Zn5	Zn	1.228320	0.216386	-0.322785
Zn6	Zn	1.728320	0.716386	0.177215
Zn7	Zn	1.228261	0.329520	-0.435917
Zn8	Zn	1.728261	0.829520	0.064083
O9	O	1.303707	0.269697	-0.382627
O10	O	1.803707	0.769697	0.117373
O11	O	1.505413	0.219407	-0.432969
O12	O	2.005413	0.719407	0.067031
O13	O	1.359051	0.308917	-0.233724
O14	O	1.859051	0.808917	0.266276
O15	O	1.248403	0.120799	-0.338691
O16	O	1.748403	0.620799	0.161309
O17	O	1.505332	0.302572	-0.349806
O18	O	2.005332	0.802572	0.150194
O19	O	1.359238	0.115991	-0.426645
O20	O	1.859238	0.615991	0.073355
O21	O	1.248296	0.230560	-0.228933
O22	O	1.748296	0.730560	0.271067
O23	O	1.102063	0.236845	-0.332308
O24	O	1.602063	0.736845	0.167692
O25	O	1.248302	0.313618	-0.531508
O26	O	1.748302	0.813618	-0.031508
O27	O	1.102020	0.319963	-0.415426
O28	O	1.602020	0.819963	0.084574
O29	O	1.359181	0.225692	-0.536344
O30	O	1.859181	0.725692	-0.036344
O31	O	1.358993	0.418618	-0.343423
O32	O	1.858993	0.918618	0.156577
O33	O	1.248195	0.423380	-0.421749
O34	O	1.748195	0.923380	0.078251
C35	C	1.069307	0.279818	-0.372445
C36	C	1.569307	0.779818	0.127555
C37	C	0.969029	0.284164	-0.368106
C38	C	1.469029	0.784164	0.131894
C39	C	0.780679	0.205850	-0.446680
C40	C	1.280679	0.705850	0.053320
C41	C	0.686459	0.209931	-0.442605
C42	C	1.186459	0.709931	0.057395
C43	C	0.686368	0.296404	-0.355877
C44	C	1.186368	0.796404	0.144123
C45	C	0.780588	0.292322	-0.359952
C46	C	1.280588	0.792322	0.140048
C47	C	0.827740	0.247045	-0.405356
C48	C	1.327740	0.747045	0.094644
C49	C	0.921962	0.242968	-0.409434
C50	C	1.421962	0.742968	0.090566
C51	C	0.921869	0.329436	-0.322703
C52	C	1.421869	0.829436	0.177297
C53	C	0.827649	0.333517	-0.318628
C54	C	1.327649	0.833517	0.181372
C55	C	1.303600	0.445558	-0.382595
C56	C	1.803600	0.945558	0.117405
C57	C	1.303637	0.520788	-0.382608
C58	C	1.803637	1.020788	0.117392
C59	C	1.303747	0.269648	-0.559172
C60	C	1.803747	0.769648	-0.059172
C61	C	1.303764	0.269627	-0.634404
C62	C	1.803764	0.769627	-0.134404
C63	C	1.539023	0.259537	-0.392849
C64	C	2.039023	0.759537	0.107151
C65	C	1.639301	0.255207	-0.397205
C66	C	2.139301	0.755207	0.102795
C67	C	1.361385	0.553628	-0.341872
C68	C	1.861385	1.053628	0.158128
C69	C	1.361421	0.624315	-0.341891
C70	C	1.861421	1.124315	0.158109
C71	C	1.303704	0.662161	-0.382642
C72	C	1.803704	1.162161	0.117358
C73	C	1.245954	0.629316	-0.423383
C74	C	1.745954	1.129316	0.076617
C75	C	1.245923	0.558630	-0.423367
C76	C	1.745923	1.058630	0.076633
C77	C	1.246078	0.914384	-0.423447
C78	C	1.746078	1.414384	0.076553
C79	C	1.246112	0.985074	-0.423458
C80	C	1.746112	1.485074	0.076542
C81	C	1.361576	0.980068	-0.341971
C82	C	1.861576	1.480068	0.158029
C83	C	1.361545	0.909382	-0.341956
C84	C	1.861545	1.409382	0.158044
C85	C	1.303799	0.876544	-0.382698
C86	C	1.803799	1.376544	0.117302
C87	C	1.303762	0.799897	-0.382678
C88	C	1.803762	1.299897	0.117322
C89	C	1.303736	0.738806	-0.382659
C90	C	1.803736	1.238806	0.117341
C91	C	1.303831	1.093149	-0.382683
C92	C	1.803831	1.593149	0.117317
C93	C	1.303865	1.017915	-0.382726
C94	C	1.803865	1.517915	0.117274
C95	C	1.246110	0.228822	-0.667254
C96	C	1.746110	0.728822	-0.167254
C97	C	1.246123	0.228808	-0.737943
C98	C	1.746123	0.728808	-0.237943
C99	C	1.303794	0.269597	-0.775781
C100	C	1.803794	0.769597	-0.275781
C101	C	1.361450	0.310407	-0.742927
C102	C	1.861450	0.810407	-0.242927
C103	C	1.361432	0.310424	-0.672239
C104	C	1.861432	0.810424	-0.172239
C105	C	1.361521	0.310340	-1.028004
C106	C	1.861521	0.810340	-0.528004
C107	C	1.361536	0.310319	-1.098696
C108	C	1.861536	0.810319	-0.598696
C109	C	1.246212	0.228725	-1.093707
C110	C	1.746212	0.728725	-0.593707
C111	C	1.246194	0.228742	-1.023020
C112	C	1.746194	0.728742	-0.523020
C113	C	1.303846	0.269554	-0.990171
C114	C	1.803846	0.769554	-0.490171
C115	C	1.303831	0.269570	-0.913522
C116	C	1.803831	0.769570	-0.413522
C117	C	1.303814	0.269578	-0.852429
C118	C	1.803814	0.769578	-0.352429
C119	C	1.303720	0.269694	-0.206772
C120	C	1.803720	0.769694	0.293228
C121	C	1.303878	0.269517	-0.131547
C122	C	1.803878	0.769517	0.368453
H123	H	1.408380	0.522818	-0.308685
H124	H	1.908380	1.022818	0.191315
C125	C	1.424972	0.355190	-1.140321
C126	C	1.924972	0.855190	-0.640321
H127	H	1.416731	0.349327	-1.187124
H128	H	1.916731	0.849327	-0.687124
H129	H	1.411729	0.401242	-1.128153
H130	H	1.911729	0.901242	-0.628153
H131	H	1.485599	0.342669	-1.131372
H132	H	1.985599	0.842669	-0.631372
H133	H	0.647961	0.333259	-0.318903
H134	H	1.147961	0.833259	0.181097
C135	C	1.182786	0.183836	-1.129839
C136	C	1.682786	0.683836	-0.629839
H137	H	1.148446	0.159541	-1.097179
H138	H	1.648446	0.659541	-0.597179
H139	H	1.143460	0.211415	-1.155699
H140	H	1.643460	0.711415	-0.655699
H141	H	1.217333	0.152845	-1.158922
H142	H	1.717333	0.652845	-0.658922
H143	H	0.819071	0.168986	-0.483652
H144	H	1.319071	0.668986	0.016348
H145	H	0.789245	0.370379	-0.281659
H146	H	1.289245	0.870379	0.218341
H147	H	0.648146	0.176384	-0.476253
H148	H	1.148146	0.676384	0.023747
C149	C	1.182628	1.026704	-0.468292
C150	C	1.682628	1.526704	0.031708
H151	H	1.148239	0.997023	-0.492561
H152	H	1.648239	1.497023	0.007439
H153	H	1.143351	1.056020	-0.440680
H154	H	1.643351	1.556020	0.059320
H155	H	1.217140	1.052744	-0.499306
H156	H	1.717140	1.552744	0.000694
H157	H	1.199235	0.195525	-0.992215
H158	H	1.699235	0.695525	-0.492215
C159	C	0.973637	0.374753	-0.277245
C160	C	1.473637	0.874753	0.222755
H161	H	1.036505	0.365837	-0.286172
H162	H	1.536505	0.865837	0.213828
H163	H	0.958175	0.420911	-0.286403
H164	H	1.458175	0.920911	0.213597
H165	H	0.958179	0.365457	-0.231113
H166	H	1.458179	0.865457	0.268887
C167	C	1.424939	0.660436	-0.297079
C168	C	1.924939	1.160436	0.202921
H169	H	1.459299	0.627773	-0.272800
H170	H	1.959299	1.127773	0.227200
H171	H	1.464242	0.686269	-0.324703
H172	H	1.964242	1.186269	0.175297
H173	H	1.390456	0.689543	-0.266074
H174	H	1.890456	1.189543	0.233926
H175	H	1.198900	0.531893	-0.456539
H176	H	1.698900	1.031893	0.043461
H177	H	1.408456	0.343580	-1.001267
H178	H	1.908456	0.843580	-0.501267
H179	H	1.408402	0.343621	-0.773741
H180	H	1.908402	0.843621	-0.273741
C181	C	1.425105	1.016189	-0.297158
C182	C	1.925105	1.516189	0.202842
H183	H	1.459465	0.983525	-0.272881
H184	H	1.959465	1.483525	0.227119
H185	H	1.464408	1.042023	-0.324783
H186	H	1.964408	1.542023	0.175217
H187	H	1.390624	1.045296	-0.266152
H188	H	1.890624	1.545296	0.233848
H189	H	1.199058	0.887652	-0.456620
H190	H	1.699058	1.387652	0.043380
H191	H	1.198964	0.660136	-0.456566
H192	H	1.698964	1.160136	0.043434
C193	C	1.424851	0.355310	-0.636105
C194	C	1.924851	0.855310	-0.136105
H195	H	1.459205	0.379596	-0.668763
H196	H	1.959205	0.879596	-0.168763
H197	H	1.390308	0.386297	-0.607022
H198	H	1.890308	0.886297	-0.107022
H199	H	1.464177	0.327724	-0.610244
H200	H	1.964177	0.827724	-0.110244
H201	H	1.199153	0.195603	-0.636451
H202	H	1.699153	0.695603	-0.136451
H203	H	1.199172	0.195583	-0.764686
H204	H	1.699172	0.695583	-0.264686
C205	C	1.425036	0.867755	-0.297132
C206	C	1.925036	1.367755	0.202868
H207	H	1.459441	0.897438	-0.272879
H208	H	1.959441	1.397438	0.227121
H209	H	1.390542	0.841711	-0.266116
H210	H	1.890542	1.341711	0.233884
H211	H	1.464312	0.838443	-0.324756
H212	H	1.964312	1.338443	0.175244
H213	H	0.960351	0.206101	-0.446405
H214	H	1.460351	0.706101	0.053595
