data_functionalizedCrystal
_audit_creation_method	'MofGen! by Chris Wilmer'
_symmetry_space_group_name_H-M	'P1'
_symmetry_Int_Tables_number	1
_symmetry_cell_setting	triclinic
loop_
_symmetry_equiv_pos_as_xyz
  x,y,z
_cell_length_a	10.489741
_cell_length_b	19.188930
_cell_length_c	8.965430
_cell_angle_alpha	89.995304
_cell_angle_beta	89.998843
_cell_angle_gamma	83.841978
loop_
_atom_site_label
_atom_site_type_symbol
_atom_site_fract_x
_atom_site_fract_y
_atom_site_fract_z
O1	O	1.691851	0.098497	-0.123966
O2	O	1.320449	0.107743	-0.123991
O3	O	1.516868	0.001536	-0.123949
O4	O	1.495432	0.204704	-0.124008
O5	O	1.516851	0.001543	0.124130
O6	O	1.320432	0.107750	0.124088
O7	O	1.691834	0.098504	0.124113
Cu8	Cu	1.506132	0.103128	0.146752
Cu9	Cu	1.506151	0.103120	-0.146630
O10	O	1.495415	0.204711	0.124070
C11	C	1.272924	0.107048	0.000046
C12	C	1.131341	0.104959	0.000037
C13	C	1.516165	-0.024476	0.000095
C14	C	1.514081	-0.101994	0.000108
C15	C	1.064712	0.037383	0.000071
C16	C	0.971880	0.069302	-0.122251
C17	C	0.971897	0.069325	0.122336
C18	C	1.040374	0.136906	-0.122386
C19	C	1.040401	0.136919	0.122310
C20	C	0.947595	0.168887	-0.000041
C21	C	1.629334	-0.146146	0.000123
C22	C	1.627376	-0.218983	0.000099
C23	C	1.510159	-0.247665	0.000090
C24	C	1.394892	-0.203503	0.000066
C25	C	1.396853	-0.130668	0.000075
N26	N	1.420556	-0.356268	0.084510
N27	N	1.418701	-0.425459	0.084504
C28	C	1.504244	-0.467113	0.000059
N29	N	1.591732	-0.436964	-0.084362
N30	N	1.593591	-0.367767	-0.084350
C31	C	1.508020	-0.326642	0.000079
C32	C	1.617382	-0.590244	0.000046
C33	C	1.615419	-0.663081	0.000012
C34	C	1.382932	-0.647600	-0.000005
C35	C	1.384898	-0.574764	0.000013
C36	C	1.502126	-0.546090	0.000046
C37	C	1.739359	0.099199	0.000073
C38	C	1.880941	0.101288	0.000071
C39	C	1.496118	0.230723	0.000023
C40	C	1.498202	0.308242	0.000001
N41	N	1.506127	0.103133	0.353101
N42	N	1.506166	0.103109	-0.352979
C43	C	1.415262	0.152234	0.450387
C44	C	1.530443	0.166361	0.549804
C45	C	1.390995	0.089012	0.549812
C46	C	1.621366	0.117292	0.450329
C47	C	1.481842	0.039916	0.450328
C48	C	1.597106	0.054016	0.549700
H49	H	1.115644	-0.018169	-0.000065
C50	C	0.879134	0.244008	-0.000142
H51	H	0.827557	0.251014	0.086786
H52	H	0.826473	0.250721	-0.086245
H53	H	0.941144	0.276634	-0.001007
H54	H	1.674048	0.012481	0.593031
C55	C	1.746321	-0.558696	0.000063
H56	H	1.730983	-0.508993	0.000086
H57	H	1.793766	-0.573804	-0.086447
H58	H	1.793753	-0.573820	0.086585
H59	H	0.941552	0.040722	0.225750
C60	C	1.754158	-0.267559	0.000126
H61	H	1.824254	-0.240050	0.000155
H62	H	1.758239	-0.296292	-0.086383
H63	H	1.758204	-0.296295	0.086649
H64	H	1.551010	0.219812	0.593498
H65	H	1.461239	-0.013519	0.406599
H66	H	1.302998	-0.094719	0.000064
H67	H	1.724790	-0.122805	0.000144
C68	C	1.081482	0.175521	0.261992
H69	H	1.121543	0.215464	0.232602
H70	H	1.140098	0.144945	0.318593
H71	H	1.008138	0.189976	0.320952
C72	C	1.265958	-0.235050	0.000062
H73	H	1.281295	-0.284753	0.000074
H74	H	1.218522	-0.219931	-0.086451
H75	H	1.218515	-0.219937	0.086581
C76	C	1.253992	-0.679138	-0.000021
H77	H	1.185631	-0.642408	-0.000033
H78	H	1.248385	-0.707237	0.086482
H79	H	1.248405	-0.707221	-0.086550
H80	H	1.718768	0.129289	0.406814
C81	C	0.930841	0.030673	-0.261927
H82	H	0.971347	-0.016048	-0.261768
H83	H	0.955434	0.054228	-0.348796
H84	H	0.840419	0.029994	-0.261364
C85	C	1.081152	0.175512	-0.262230
H86	H	1.171485	0.176589	-0.261408
H87	H	1.039983	0.222085	-0.262559
H88	H	1.057163	0.151673	-0.348999
C89	C	1.258119	-0.526195	0.000022
H90	H	1.188026	-0.553706	0.000027
H91	H	1.254053	-0.497452	-0.086481
H92	H	1.254051	-0.497469	0.086551
H93	H	1.709275	-0.699030	0.000016
H94	H	1.293614	0.077080	0.593514
H95	H	1.338490	0.193796	0.406782
