data_functionalizedCrystal
_audit_creation_method	'MofGen! by Chris Wilmer'
_symmetry_space_group_name_H-M	'P1'
_symmetry_Int_Tables_number	1
_symmetry_cell_setting	triclinic
loop_
_symmetry_equiv_pos_as_xyz
  x,y,z
_cell_length_a	10.723024
_cell_length_b	12.837942
_cell_length_c	9.798715
_cell_angle_alpha	89.997407
_cell_angle_beta	89.996609
_cell_angle_gamma	89.648405
loop_
_atom_site_label
_atom_site_type_symbol
_atom_site_fract_x
_atom_site_fract_y
_atom_site_fract_z
O1	O	1.672991	0.145513	-0.113481
O2	O	1.311352	0.159441	-0.113486
O3	O	1.484153	0.001517	-0.113475
O4	O	1.500190	0.303437	-0.113492
O5	O	1.484138	0.001517	0.113507
O6	O	1.311337	0.159441	0.113496
O7	O	1.672977	0.145512	0.113501
Zn8	Zn	1.492155	0.152477	0.149537
Zn9	Zn	1.492174	0.152477	-0.149522
O10	O	1.500176	0.303436	0.113490
C11	C	1.264735	0.158427	0.000004
C12	C	1.125851	0.155395	0.000003
C13	C	1.060466	0.243761	-0.000003
C14	C	0.916922	0.240629	-0.000004
C15	C	1.478728	-0.037142	0.000015
C16	C	1.462569	-0.152334	0.000012
C17	C	1.656825	-0.391911	-0.000014
C18	C	1.641648	-0.500145	-0.000016
C19	C	1.417040	-0.477037	-0.000005
C20	C	1.432217	-0.368804	-0.000002
C21	C	1.552113	-0.326245	-0.000005
C22	C	1.567289	-0.218009	0.000008
C23	C	1.342681	-0.194904	0.000009
C24	C	1.327505	-0.303137	0.000007
C25	C	1.719594	0.146526	0.000007
C26	C	1.858478	0.149559	-0.000000
C27	C	1.505601	0.342096	-0.000003
C28	C	1.521760	0.457288	-0.000010
N29	N	1.492151	0.152476	0.353636
N30	N	1.492187	0.152470	-0.353622
C31	C	1.564674	0.085875	0.421418
C32	C	1.564693	0.085872	0.578581
H33	H	1.110757	0.321733	0.000001
C34	C	1.779816	-0.236253	0.000004
C35	C	1.788609	-0.345121	-0.000003
H36	H	1.861176	-0.207371	0.000020
H37	H	1.736177	-0.213772	-0.079147
H38	H	1.736147	-0.213784	0.079161
H39	H	1.832270	-0.367590	-0.079166
H40	H	1.832267	-0.367611	0.079156
H41	H	1.626788	0.028856	0.636869
H42	H	1.626745	0.028855	0.363099
H43	H	1.430099	0.209496	0.588098
C44	C	1.325082	0.173965	0.514538
C45	C	1.408348	0.229449	0.432358
H46	H	1.273350	0.221488	0.563140
H47	H	1.274832	0.130608	0.458803
H48	H	1.370599	0.132182	0.577420
H49	H	1.362831	0.271226	0.369469
H50	H	1.458603	0.272824	0.488098
H51	H	0.860706	0.316277	-0.000015
C52	C	1.269698	-0.585358	-0.116697
C53	C	1.285262	-0.523839	-0.000009
H54	H	1.188346	-0.614258	-0.116692
H55	H	1.280275	-0.543604	-0.195830
H56	H	1.329906	-0.639947	-0.116689
H57	H	1.225059	-0.469246	-0.000021
H58	H	1.274672	-0.565596	0.079145
H59	H	1.726916	-0.553607	-0.000028
C60	C	1.180136	-0.411450	-0.116668
C61	C	1.195722	-0.349929	0.000014
H62	H	1.098780	-0.440340	-0.116653
H63	H	1.190714	-0.369700	-0.195805
H64	H	1.240336	-0.466046	-0.116664
H65	H	1.135527	-0.295329	0.000004
H66	H	1.185132	-0.391682	0.079172
C67	C	1.009619	0.043381	-0.116676
C68	C	0.934352	0.047426	0.000005
H69	H	1.056472	-0.019668	-0.116665
H70	H	0.958559	0.046135	-0.195814
H71	H	1.064887	0.100928	-0.116665
H72	H	0.879077	-0.010117	-0.000011
H73	H	0.985417	0.044663	0.079164
C74	C	1.266206	-0.018730	0.000010
C75	C	1.227571	-0.122719	0.000009
H76	H	1.195142	0.025831	0.000003
H77	H	1.314822	-0.005749	0.079159
H78	H	1.314839	-0.005745	-0.079149
H79	H	1.178945	-0.135707	0.079173
H80	H	1.178934	-0.135705	-0.079148
H81	H	1.075561	0.077423	-0.000028
H82	H	1.664914	-0.183360	0.000011
