data_functionalizedCrystal
_audit_creation_method	'MofGen! by Chris Wilmer'
_symmetry_space_group_name_H-M	'P1'
_symmetry_Int_Tables_number	1
_symmetry_cell_setting	triclinic
loop_
_symmetry_equiv_pos_as_xyz
  x,y,z
_cell_length_a	18.878441
_cell_length_b	14.560438
_cell_length_c	14.560438
_cell_angle_alpha	60.000069
_cell_angle_beta	89.998656
_cell_angle_gamma	60.000434
loop_
_atom_site_label
_atom_site_type_symbol
_atom_site_fract_x
_atom_site_fract_y
_atom_site_fract_z
Zr1	Zr	0.682381	1.005308	-0.120537
O2	O	0.569278	1.196907	-0.267177
O3	O	0.717053	0.813709	-0.075587
O4	O	0.717053	1.005313	-0.267187
O5	O	0.569278	1.005300	0.075564
O6	O	0.833621	1.005318	-0.267193
O7	O	0.569278	1.005302	-0.075577
O8	O	0.833621	0.662573	0.075546
O9	O	0.569278	1.348044	-0.267174
O10	O	0.818834	0.892521	-0.056417
O11	O	0.731841	0.892515	0.056382
O12	O	0.731841	1.118104	-0.169203
O13	O	0.644848	1.118098	-0.056405
Zr14	Zr	0.868294	1.005313	0.120507
Zr15	Zr	0.868293	1.005317	-0.120545
Zr16	Zr	0.682381	1.005304	0.120515
Zr17	Zr	0.682381	1.246356	-0.120533
Zr18	Zr	0.868293	0.764265	0.120502
O19	O	0.833622	1.196913	0.075556
O20	O	0.833621	1.196919	-0.267189
O21	O	0.569278	1.196900	0.075568
O22	O	0.981397	0.813715	0.267147
O23	O	0.981396	0.813721	-0.075598
O24	O	0.717053	0.813702	0.267159
O25	O	0.981397	1.005321	-0.075595
O26	O	0.833622	1.005309	0.267157
O27	O	0.717054	1.005303	0.267162
O28	O	0.981397	1.005319	0.075546
O29	O	0.717054	1.348051	-0.267181
O30	O	0.833621	0.662570	0.267151
O31	O	0.981396	0.662577	0.267144
O32	O	0.981396	0.662580	0.075540
O33	O	0.569278	1.348041	-0.075570
O34	O	0.717054	1.348048	-0.075577
O35	O	0.818834	0.892517	0.169173
O36	O	0.905827	0.892523	0.056374
O37	O	0.818834	1.118106	-0.056412
O38	O	0.731841	1.118100	0.056386
C39	C	0.775337	0.703797	-0.000021
C40	C	0.775337	0.601466	-0.000023
C41	C	0.820744	0.553393	-0.058903
C42	C	0.820748	0.457233	-0.058892
C43	C	0.729929	0.457232	0.058880
C44	C	0.729931	0.553383	0.058875
C45	C	0.542790	1.005300	-0.000005
C46	C	0.463865	1.005296	-0.000001
C47	C	0.472193	0.887545	0.058868
C48	C	0.398032	0.887550	0.058869
C49	C	0.315544	1.005306	-0.000007
C50	C	0.307217	1.123066	-0.058878
C51	C	0.381377	1.123060	-0.058872
C52	C	0.152647	1.123070	-0.058890
C53	C	0.078482	1.123076	-0.058898
C54	C	0.169302	0.887559	0.058851
C55	C	0.243462	0.887553	0.058857
C56	C	0.235130	1.005314	-0.000016
C57	C	1.007885	1.005321	-0.000025
C58	C	1.086810	1.005325	-0.000029
C59	C	0.775337	1.005316	-0.301535
C60	C	0.775337	1.005318	-0.403868
C61	C	0.775338	1.306824	-0.000009
C62	C	0.775338	1.409155	-0.000008
C63	C	0.839555	1.005322	-0.451946
C64	C	0.839557	1.005310	-0.548092
C65	C	0.711116	1.005295	-0.548075
C66	C	0.711118	1.005298	-0.451926
C67	C	0.775338	1.005305	0.301504
C68	C	0.775338	1.005303	0.403837
C69	C	1.007885	0.703808	-0.000031
C70	C	1.086809	0.601480	-0.000036
C71	C	0.775337	0.703791	0.301499
C72	C	0.775337	0.601459	0.403830
C73	C	1.007885	0.703802	0.301489
C74	C	1.086810	0.601473	0.403816
C75	C	0.542790	1.306819	-0.301519
C76	C	0.463865	1.409148	-0.403846
C77	C	0.542790	1.306814	0.000001
C78	C	0.463866	1.409141	0.000006
C79	C	0.775337	1.306830	-0.301529
C80	C	0.775338	1.409163	-0.403860
C81	C	1.078463	0.553425	-0.058925
C82	C	1.152614	0.457291	-0.058952
C83	C	1.235110	0.409207	-0.000084
C84	C	1.243454	0.457272	0.058806
C85	C	1.169304	0.553411	0.058826
C86	C	1.169291	0.553421	0.392991
C87	C	1.243456	0.457286	0.489129
C88	C	1.235138	0.409197	0.596092
C89	C	1.152648	0.457258	0.606915
C90	C	1.078485	0.553398	0.510778
C91	C	0.381384	1.457212	-0.393021
C92	C	0.307219	1.553377	-0.489159
C93	C	0.315537	1.601471	-0.596122
C94	C	0.398027	1.553404	-0.606946
C95	C	0.472190	1.457246	-0.510808
C96	C	0.472211	1.457206	0.058884
C97	C	0.398061	1.553367	0.058885
C98	C	0.315565	1.601454	0.000014
C99	C	0.307221	1.553385	-0.058872
C100	C	0.381371	1.457233	-0.058878
C101	C	0.820746	0.553382	0.510781
C102	C	0.820736	0.457238	0.606928
C103	C	0.729907	0.457253	0.489159
C104	C	0.729913	0.553402	0.393015
H105	H	0.404821	0.791665	0.106808
C106	C	0.870702	0.606255	0.522671
H107	H	0.864210	0.670395	0.450095
H108	H	0.848278	0.643762	0.562624
H109	H	0.930448	0.537220	0.562620
C110	C	0.640475	1.005292	-0.600951
H111	H	0.649665	1.005305	-0.665108
H112	H	0.643136	0.929961	-0.547529
H113	H	0.585036	1.080632	-0.622859
H114	H	0.692954	0.592523	0.106827
H115	H	1.145888	0.418090	0.694017
H116	H	0.539355	0.791654	0.106816
C117	C	0.987760	0.606231	0.522700
H118	H	0.993437	0.563805	0.600174
H119	H	0.956927	0.697006	0.487647
H120	H	0.956951	0.590445	0.487653
H121	H	0.374595	1.418059	-0.305935
C122	C	0.216473	1.606281	-0.123615
H123	H	0.173514	1.670416	-0.115160
H124	H	0.209951	1.643797	-0.201080
H125	H	0.209963	1.537252	-0.094524
H126	H	0.692960	0.418073	0.106831
H127	H	0.310626	0.791666	0.106788
H128	H	0.240059	1.592497	-0.480325
H129	H	0.404872	1.592489	0.106841
C130	C	0.234008	1.707215	0.000034
H131	H	0.250801	1.728939	0.043543
H132	H	0.200455	1.782242	-0.074973
H133	H	0.200460	1.675696	0.031572
C134	C	0.178469	0.758025	0.123624
H135	H	0.122490	0.774889	0.115204
H136	H	0.209280	0.709636	0.094551
H137	H	0.209280	0.709647	0.201088
H138	H	0.374563	1.418101	-0.106821
H139	H	0.891847	1.005335	-0.412818
C140	C	0.562947	1.404326	0.123649
H141	H	0.557285	1.446744	0.158702
H142	H	0.593763	1.313553	0.179368
H143	H	0.593764	1.420090	0.072822
H144	H	0.857711	0.418100	0.694009
C145	C	0.870700	0.404346	-0.123652
H146	H	0.864207	0.340183	-0.115204
H147	H	0.848278	0.473362	-0.201113
H148	H	0.930445	0.366837	-0.094569
H149	H	1.176080	0.592561	0.305905
H150	H	0.857718	0.592537	-0.106859
H151	H	0.255141	1.679768	-0.674394
C152	C	1.143425	0.404422	-0.123721
H153	H	1.199396	0.340288	-0.115319
H154	H	1.112616	0.366909	-0.094631
H155	H	1.112602	0.473461	-0.201182
H156	H	0.011317	1.218963	-0.106841
H157	H	0.692926	0.418112	0.480367
H158	H	1.011298	0.592574	-0.106876
H159	H	0.145856	1.218963	-0.106809
C160	C	0.372216	1.252586	-0.123633
H161	H	0.312469	1.322719	-0.158707
H162	H	0.399257	1.257479	-0.072810
H163	H	0.399260	1.257479	-0.179352
H164	H	0.658823	1.005290	-0.412776
C165	C	1.334183	0.404423	0.477203
H166	H	1.328508	0.446820	0.399730
H167	H	1.365008	0.420188	0.512245
H168	H	1.364999	0.313642	0.512263
H169	H	0.240048	1.218945	-0.106810
C170	C	1.334202	0.404360	0.123565
H171	H	1.377161	0.340210	0.115124
H172	H	1.340725	0.473367	0.094508
H173	H	1.340710	0.366827	0.201034
H174	H	0.891850	1.005311	-0.587234
H175	H	1.295534	0.330913	0.674364
C176	C	1.316667	0.303445	-0.000104
H177	H	1.299874	0.281708	-0.043600
H178	H	1.350223	0.334946	-0.031627
H179	H	1.350211	0.228415	0.074911
H180	H	0.404789	1.592574	-0.694046
H181	H	0.539348	1.418114	-0.519636
C182	C	1.178495	0.606246	0.123623
H183	H	1.238248	0.563823	0.158685
H184	H	1.151459	0.697022	0.072826
H185	H	1.151464	0.590459	0.179354
H186	H	0.692931	0.592550	0.305924
