data_functionalizedCrystal
_audit_creation_method	'MofGen! by Chris Wilmer'
_symmetry_space_group_name_H-M	'P1'
_symmetry_Int_Tables_number	1
_symmetry_cell_setting	triclinic
loop_
_symmetry_equiv_pos_as_xyz
  x,y,z
_cell_length_a	13.897449
_cell_length_b	21.295411
_cell_length_c	13.897447
_cell_angle_alpha	89.985452
_cell_angle_beta	90.020810
_cell_angle_gamma	89.976615
loop_
_atom_site_label
_atom_site_type_symbol
_atom_site_fract_x
_atom_site_fract_y
_atom_site_fract_z
Zn1	Zn	1.474715	-0.355923	-0.384092
Zn2	Zn	1.974715	0.144077	0.115908
Zn3	Zn	1.474597	-0.250661	-0.545372
Zn4	Zn	1.974597	0.249339	-0.045372
Zn5	Zn	1.313397	-0.250670	-0.384096
Zn6	Zn	1.813397	0.249330	0.115904
Zn7	Zn	1.313381	-0.355895	-0.545350
Zn8	Zn	1.813381	0.144105	-0.045350
O9	O	1.394023	-0.303287	-0.464728
O10	O	1.894023	0.196713	0.035272
O11	O	1.609681	-0.341967	-0.405493
O12	O	2.109681	0.158033	0.094507
O13	O	1.453170	-0.162573	-0.523989
O14	O	1.953170	0.337427	-0.023989
O15	O	1.334853	-0.264647	-0.249114
O16	O	1.834853	0.235353	0.250886
O17	O	1.609594	-0.264632	-0.523985
O18	O	2.109594	0.235368	-0.023985
O19	O	1.453373	-0.341976	-0.249111
O20	O	1.953373	0.158024	0.250889
O21	O	1.334738	-0.162579	-0.405501
O22	O	1.834738	0.337421	0.094499
O23	O	1.178413	-0.264620	-0.405480
O24	O	1.678413	0.235380	0.094520
O25	O	1.334825	-0.443988	-0.523948
O26	O	1.834825	0.056012	-0.023948
O27	O	1.178402	-0.341929	-0.523952
O28	O	1.678402	0.158071	-0.023952
O29	O	1.453357	-0.444008	-0.405472
O30	O	1.953357	0.055992	0.094528
O31	O	1.453155	-0.264605	-0.680351
O32	O	1.953155	0.235395	-0.180351
O33	O	1.334710	-0.341920	-0.680335
O34	O	1.834710	0.158080	-0.180335
C35	C	1.143408	-0.303273	-0.464715
C36	C	1.643408	0.196727	0.035285
C37	C	1.036194	-0.303282	-0.464732
C38	C	1.536194	0.196718	0.035268
C39	C	0.839899	-0.303298	-0.464736
C40	C	1.339899	0.196702	0.035264
C41	C	0.949132	-0.303287	-0.464731
C42	C	1.449132	0.196713	0.035269
C43	C	1.394103	-0.467478	-0.464707
C44	C	1.894103	0.032522	0.035293
C45	C	1.394137	-0.537446	-0.464699
C46	C	1.894137	-0.037446	0.035301
C47	C	1.455854	-0.570324	-0.403005
C48	C	1.955854	-0.070324	0.096995
C49	C	1.455852	-0.636066	-0.402964
C50	C	1.955852	-0.136066	0.097036
C51	C	1.394144	-0.668928	-0.464632
C52	C	1.894144	-0.168928	0.035368
C53	C	1.332416	-0.636042	-0.526330
C54	C	1.832416	-0.136042	-0.026330
C55	C	1.332412	-0.570301	-0.526363
C56	C	1.832412	-0.070301	-0.026363
N57	N	1.386718	-0.772151	-0.549014
N58	N	1.886718	-0.272151	-0.049014
N59	N	1.386728	-0.834602	-0.548980
N60	N	1.886728	-0.334602	-0.048980
C61	C	1.394150	-0.867003	-0.464534
C62	C	1.894150	-0.367003	0.035466
N63	N	1.401582	-0.834593	-0.380123
N64	N	1.901582	-0.334593	0.119877
N65	N	1.401578	-0.772136	-0.380158
N66	N	1.901578	-0.272136	0.119842
C67	C	1.394141	-0.740214	-0.464603
C68	C	1.894141	-0.240214	0.035397
C69	C	1.455869	-0.971167	-0.402791
C70	C	1.955869	-0.471167	0.097209
C71	C	1.455861	-1.036911	-0.402747
C72	C	1.955861	-0.536911	0.097253
C73	C	1.332429	-1.036885	-0.526122
C74	C	1.832429	-0.536885	-0.026122
C75	C	1.332432	-0.971142	-0.526157
C76	C	1.832432	-0.471142	-0.026157
C77	C	1.394157	-0.938287	-0.464492
C78	C	1.894157	-0.438287	0.035508
C79	C	1.645616	-0.303302	-0.464741
C80	C	2.145616	0.196698	0.035259
C81	C	1.752830	-0.303308	-0.464747
C82	C	2.252830	0.196692	0.035253
C83	C	1.393944	-0.303273	-0.715342
C84	C	1.893944	0.196727	-0.215342
C85	C	1.393999	-0.303287	-0.822556
C86	C	1.893999	0.196713	-0.322556
C87	C	1.393998	-0.139736	-0.464678
C88	C	1.893998	0.360264	0.035322
C89	C	1.394151	-0.069768	-0.464415
C90	C	1.894151	0.430232	0.035585
C91	C	1.394046	-0.303302	-0.909626
C92	C	1.894046	0.196698	-0.409626
C93	C	1.394113	-0.303318	-1.018858
C94	C	1.894113	0.196682	-0.518858
C95	C	1.394128	-0.303316	-0.213135
C96	C	1.894128	0.196684	0.286865
C97	C	1.394172	-0.303328	-0.105921
C98	C	1.894172	0.196672	0.394079
H99	H	1.506114	-0.543577	-0.352792
H100	H	2.006114	-0.043577	0.147208
H101	H	1.506107	-0.662841	-0.352720
H102	H	2.006107	-0.162841	0.147280
C103	C	1.264534	-0.534133	-0.594242
C104	C	1.764534	-0.034133	-0.094242
H105	H	1.227786	-0.563118	-0.630970
H106	H	1.727786	-0.063118	-0.130970
H107	H	1.222521	-0.508469	-0.557364
H108	H	1.722521	-0.008469	-0.057364
H109	H	1.301430	-0.508505	-0.636287
H110	H	1.801430	-0.008505	-0.136287
C111	C	1.264550	-0.934975	-0.594027
C112	C	1.764550	-0.434975	-0.094027
H113	H	1.227803	-0.963960	-0.630754
H114	H	1.727803	-0.463960	-0.130754
H115	H	1.222537	-0.909316	-0.557140
H116	H	1.722537	-0.409316	-0.057140
H117	H	1.301436	-0.909341	-0.636075
H118	H	1.801436	-0.409341	-0.136075
C119	C	1.264543	-0.672187	-0.594167
C120	C	1.764543	-0.172187	-0.094167
H121	H	1.273392	-0.716050	-0.585320
H122	H	1.773392	-0.216050	-0.085320
H123	H	1.199737	-0.661399	-0.580056
H124	H	1.699737	-0.161399	-0.080056
H125	H	1.278640	-0.661417	-0.658986
H126	H	1.778640	-0.161417	-0.158986
C127	C	1.523746	-0.935024	-0.334948
C128	C	2.023746	-0.435024	0.165052
H129	H	1.560491	-0.964023	-0.298186
H130	H	2.060491	-0.464023	0.201814
H131	H	1.565762	-0.909389	-0.371854
H132	H	2.065762	-0.409389	0.128146
H133	H	1.486850	-0.909369	-0.292932
H134	H	1.986850	-0.409369	0.207068
H135	H	1.506117	-1.063679	-0.352504
H136	H	2.006117	-0.563679	0.147496
C137	C	1.264558	-1.073025	-0.593962
C138	C	1.764558	-0.573025	-0.093962
H139	H	1.273404	-1.116888	-0.585113
H140	H	1.773404	-0.616888	-0.085113
H141	H	1.199751	-1.062236	-0.579856
H142	H	1.699751	-0.562236	-0.079856
H143	H	1.278661	-1.062256	-0.658780
H144	H	1.778661	-0.562256	-0.158780
