data_functionalizedCrystal
_audit_creation_method	'MofGen! by Chris Wilmer'
_symmetry_space_group_name_H-M	'P1'
_symmetry_Int_Tables_number	1
_symmetry_cell_setting	triclinic
loop_
_symmetry_equiv_pos_as_xyz
  x,y,z
_cell_length_a	10.489741
_cell_length_b	10.489716
_cell_length_c	8.965430
_cell_angle_alpha	89.996523
_cell_angle_beta	89.996023
_cell_angle_gamma	95.465845
loop_
_atom_site_label
_atom_site_type_symbol
_atom_site_fract_x
_atom_site_fract_y
_atom_site_fract_z
O1	O	-0.179809	1.694072	-0.124014
O2	O	-0.196735	1.322872	-0.124019
O3	O	-0.002673	1.516918	-0.124020
O4	O	-0.373871	1.500025	-0.124013
O5	O	-0.002686	1.516902	0.124059
O6	O	-0.196748	1.322856	0.124060
O7	O	-0.179822	1.694055	0.124064
Cu8	Cu	-0.188286	1.508454	0.146714
Cu9	Cu	-0.188271	1.508473	-0.146668
O10	O	-0.373884	1.500009	0.124066
C11	C	-0.195470	1.275332	0.000020
C12	C	-0.191665	1.133701	0.000018
C13	C	-0.310669	1.036027	0.000016
C14	C	-0.247791	0.958673	0.122338
C15	C	-0.247750	0.958695	-0.122249
C16	C	-0.128837	1.058212	0.122440
C17	C	-0.128813	1.058240	-0.122256
C18	C	-0.065848	0.980935	0.000095
C19	C	-0.421409	1.501293	0.000027
C20	C	-0.563038	1.505110	0.000029
C21	C	-0.631167	1.628576	0.000019
C22	C	-0.723299	1.570244	0.122333
C23	C	-0.723265	1.570231	-0.122253
C24	C	-0.653305	1.446727	0.122444
C25	C	-0.653260	1.446731	-0.122252
C26	C	-0.745365	1.388309	0.000092
C27	C	0.044852	1.515634	0.000015
C28	C	0.186481	1.511817	0.000003
C29	C	-0.181087	1.741596	0.000022
C30	C	-0.184892	1.883227	0.000015
N31	N	-0.188296	1.508450	0.353063
N32	N	-0.188251	1.508488	-0.353017
C33	C	-0.278013	1.418682	0.450369
C34	C	-0.303814	1.534179	0.549785
C35	C	-0.162507	1.393000	0.549775
C36	C	-0.214155	1.624006	0.450290
C37	C	-0.072797	1.482751	0.450270
C38	C	-0.098549	1.598331	0.549641
H39	H	-0.078634	1.101521	0.225955
H40	H	0.037744	0.956505	0.000164
H41	H	0.024828	1.460952	0.406525
H42	H	-0.078609	1.101743	-0.225675
H43	H	-0.622218	1.394541	-0.225667
H44	H	-0.298033	0.915183	0.225751
C45	C	-0.765186	1.640805	0.262042
N46	N	-0.796727	1.693958	0.367269
H47	H	-0.298006	0.915219	-0.225647
H48	H	-0.581510	1.730090	0.000142
H49	H	-0.622482	1.394521	0.225966
C50	C	-0.243761	1.755955	0.391507
N51	N	-0.266067	1.855335	0.347229
C52	C	-0.812165	1.251053	0.000188
N53	N	-0.862484	1.147675	0.000271
C54	C	-0.765102	1.640842	-0.261953
N55	N	-0.796607	1.694034	-0.367170
H56	H	-0.353954	1.342838	0.406781
C57	C	-0.435739	1.563572	0.608854
N58	N	-0.535107	1.585700	0.653344
H59	H	-0.022655	1.674345	0.592956
H60	H	-0.140714	1.295351	0.593478
H61	H	-0.414185	1.060696	0.000132
