data_functionalizedCrystal
_audit_creation_method	'MofGen! by Chris Wilmer'
_symmetry_space_group_name_H-M	'P1'
_symmetry_Int_Tables_number	1
_symmetry_cell_setting	triclinic
loop_
_symmetry_equiv_pos_as_xyz
  x,y,z
_cell_length_a	8.497374
_cell_length_b	12.827892
_cell_length_c	12.827893
_cell_angle_alpha	89.984638
_cell_angle_beta	89.998425
_cell_angle_gamma	90.007313
loop_
_atom_site_label
_atom_site_type_symbol
_atom_site_fract_x
_atom_site_fract_y
_atom_site_fract_z
Zn1	Zn	0.891962	-0.416215	-1.597487
Zn2	Zn	0.628170	-0.590924	-1.597435
Zn3	Zn	0.628190	-0.416197	-1.422782
Zn4	Zn	0.891902	-0.590915	-1.422714
O5	O	0.760056	-0.503563	-1.510105
O6	O	0.856986	-0.439402	-1.743716
O7	O	0.407411	-0.567742	-1.574274
O8	O	0.663214	-0.269964	-1.446008
O9	O	0.663179	-0.567760	-1.743678
O10	O	0.857006	-0.269977	-1.574363
O11	O	0.407425	-0.439372	-1.445958
O12	O	0.663156	-0.439363	-1.276537
O13	O	1.112673	-0.567744	-1.445891
O14	O	0.856904	-0.567727	-1.276487
O15	O	1.112717	-0.439393	-1.574296
O16	O	0.663121	-0.737159	-1.574207
O17	O	0.856884	-0.737152	-1.445840
C18	C	0.760028	-0.775073	-1.510039
C19	C	0.760069	-0.891226	-1.510107
C20	C	0.760026	-0.503543	-1.238595
C21	C	0.760051	-0.503559	-1.122442
C22	C	0.664296	-0.942979	-1.573702
C23	C	0.664336	-1.063030	-1.573774
C24	C	1.171537	-0.503564	-1.510097
C25	C	1.350181	-0.503575	-1.510099
C26	C	0.760087	-0.503584	-1.782675
C27	C	0.760101	-0.503593	-1.898828
C28	C	0.760119	-0.230993	-1.510199
C29	C	0.760145	-0.114839	-1.510239
C30	C	0.855776	-0.567177	-1.070659
C31	C	0.855803	-0.567195	-0.950609
H32	H	0.582276	-0.898413	-1.628101
H33	H	0.582336	-1.107536	-1.628217
C34	C	0.869541	-0.950775	-1.437745
C35	C	0.970645	-1.013380	-1.496951
C36	C	1.071501	-1.068259	-1.430325
H37	H	0.929774	-0.902858	-1.397812
H38	H	0.809132	-0.993469	-1.392328
H39	H	1.031048	-0.970690	-1.542349
H40	H	0.910456	-1.061317	-1.536882
H41	H	1.011092	-1.110953	-1.384908
H42	H	1.131723	-1.020334	-1.390395
H43	H	1.140102	-1.110750	-1.470486
H44	H	0.937714	-0.621625	-1.115204
H45	H	0.678137	-0.449128	-0.943352
C46	C	0.965027	-0.639710	-0.891053
C47	C	0.943378	-0.625287	-0.783822
C48	C	1.043986	-0.692060	-0.728924
H49	H	0.941883	-0.709956	-0.908753
H50	H	1.071118	-0.624527	-0.908842
H51	H	0.837312	-0.640476	-0.766040
H52	H	0.966535	-0.555055	-0.766091
H53	H	1.150077	-0.676878	-0.746714
H54	H	1.020833	-0.762302	-0.746633
H55	H	1.029322	-0.682277	-0.656163
C56	C	0.650580	-0.431130	-1.063010
C57	C	0.549389	-0.490271	-1.000356
C58	C	0.448498	-0.423587	-0.945610
H59	H	0.710910	-0.385677	-1.020354
H60	H	0.590427	-0.391239	-1.111038
H61	H	0.609536	-0.530144	-0.952334
H62	H	0.489025	-0.535721	-1.042986
H63	H	0.388345	-0.383696	-0.993638
H64	H	0.508841	-0.378138	-0.902960
H65	H	0.379819	-0.463705	-0.903100
H66	H	0.842139	-1.070340	-1.455785
