data_functionalizedCrystal
_audit_creation_method	'MofGen! by Chris Wilmer'
_symmetry_space_group_name_H-M	'P1'
_symmetry_Int_Tables_number	1
_symmetry_cell_setting	triclinic
loop_
_symmetry_equiv_pos_as_xyz
  x,y,z
_cell_length_a	16.109301
_cell_length_b	14.421503
_cell_length_c	16.109304
_cell_angle_alpha	89.992899
_cell_angle_beta	83.462059
_cell_angle_gamma	90.004909
loop_
_atom_site_label
_atom_site_type_symbol
_atom_site_fract_x
_atom_site_fract_y
_atom_site_fract_z
O1	O	1.103138	0.077047	0.106856
O2	O	0.861076	0.077061	0.120155
O3	O	0.988756	0.077054	-0.007526
O4	O	0.975459	0.077054	0.234536
O5	O	0.988734	-0.077169	-0.007507
O6	O	0.861055	-0.077162	0.120174
O7	O	1.103117	-0.077176	0.106875
Cu8	Cu	0.982084	-0.091251	0.113526
Cu9	Cu	0.982109	0.091136	0.113503
O10	O	0.975437	-0.077169	0.234555
C11	C	0.830091	-0.000049	0.119626
C12	C	0.737795	-0.000043	0.118010
C13	C	0.515524	-0.000054	0.190018
C14	C	0.428803	-0.000060	0.188494
C15	C	0.448676	-0.000056	0.037005
C16	C	0.535395	-0.000057	0.038530
C17	C	0.568816	-0.000051	0.115039
C18	C	0.395377	-0.000056	0.111990
C19	C	0.301351	-0.000063	0.110337
C20	C	0.662848	-0.000046	0.116693
N21	N	0.982072	-0.219532	0.113541
C22	C	0.923023	-0.469183	0.172554
C23	C	0.998145	-0.530990	0.188671
C24	C	0.982093	-0.408694	0.113521
C25	C	0.906991	-0.530980	0.097424
C26	C	0.982106	-0.591415	0.113504
C27	C	1.057252	-0.469140	0.129675
C28	C	0.966049	-0.469125	0.038396
C29	C	1.041224	-0.530904	0.054481
C30	C	0.982084	-0.303433	0.113533
C31	C	0.982123	-0.696674	0.113491
C32	C	1.134102	-0.000064	0.107404
C33	C	1.226398	-0.000064	0.109019
C34	C	0.988206	-0.000055	-0.038491
C35	C	0.986590	-0.000049	-0.130786
N36	N	0.982127	0.219417	0.113482
C37	C	0.982868	0.084015	-0.343134
C38	C	0.981342	0.084014	-0.429854
C39	C	0.981323	-0.084129	-0.429830
C40	C	0.982843	-0.084127	-0.343111
C41	C	0.983620	-0.000052	-0.299766
C42	C	0.980573	-0.000055	-0.473205
C43	C	0.978919	-0.000056	-0.567231
C44	C	0.985273	-0.000050	-0.205734
C45	C	0.975987	-0.000058	0.265520
C46	C	0.977603	-0.000058	0.357816
H47	H	0.873121	-0.442082	0.222516
H48	H	0.421454	-0.000066	-0.025285
C49	C	1.107980	-0.566641	-0.012113
C50	C	1.149788	-0.491457	-0.052925
C51	C	1.211298	-0.524344	-0.114264
H52	H	1.082573	-0.602881	-0.051494
H53	H	1.146764	-0.603701	0.013349
H54	H	1.111011	-0.454413	-0.078387
H55	H	1.175213	-0.455210	-0.013567
H56	H	1.250081	-0.561404	-0.088801
H57	H	1.185883	-0.560583	-0.153638
H58	H	1.239677	-0.473337	-0.141957
H59	H	0.843473	-0.558147	0.083817
H60	H	0.578788	-0.000057	-0.022530
C61	C	1.016092	-0.567181	0.273439
C62	C	0.954049	-0.535935	0.335015
C63	C	0.970543	-0.569261	0.413112
H64	H	1.069008	-0.545119	0.285389
H65	H	1.016434	-0.633053	0.272698
H66	H	0.953716	-0.470077	0.335757
H67	H	0.901127	-0.557994	0.323092
H68	H	0.970885	-0.635133	0.412372
H69	H	1.023460	-0.547197	0.425054
H70	H	0.928446	-0.548073	0.454900
H71	H	0.542732	-0.000056	0.252316
H72	H	0.983450	-0.152589	-0.307799
C73	C	0.980622	-0.175476	-0.476804
C74	C	1.052462	-0.226203	-0.465054
C75	C	1.051842	-0.310364	-0.508301
H76	H	0.979654	-0.163572	-0.534681
H77	H	0.932438	-0.210069	-0.456219
H78	H	1.100632	-0.191617	-0.485642
H79	H	1.053444	-0.238132	-0.407186
H80	H	1.003659	-0.344957	-0.487716
H81	H	1.050872	-0.298451	-0.566176
H82	H	1.100580	-0.344797	-0.500328
H83	H	0.983498	0.152474	-0.307844
C84	C	1.141969	-0.433241	0.148079
C85	C	1.158689	-0.465396	0.226487
C86	C	1.236725	-0.432366	0.243474
H87	H	1.141556	-0.367376	0.148072
H88	H	1.183981	-0.454905	0.106424
H89	H	1.116688	-0.443726	0.268131
H90	H	1.159119	-0.531256	0.226513
H91	H	1.278738	-0.454031	0.201819
H92	H	1.236305	-0.366502	0.243464
H93	H	1.248083	-0.454185	0.296671
H94	H	0.952443	-0.441930	-0.025108
C95	C	0.980399	0.175357	-0.476817
C96	C	0.909303	0.226091	-0.446337
C97	C	0.908410	0.310249	-0.489572
H98	H	0.979337	0.163450	-0.534679
H99	H	1.029084	0.209948	-0.468945
H100	H	0.860631	0.191508	-0.454217
H101	H	0.910350	0.238023	-0.388481
H102	H	0.957095	0.344840	-0.481699
H103	H	0.907350	0.298333	-0.547432
H104	H	0.860177	0.344686	-0.468892
C105	C	0.371081	-0.000012	0.269991
C106	C	0.418915	0.000015	0.337315
C107	C	0.365771	0.000070	0.412406
H108	H	0.336817	-0.053780	0.272672
H109	H	0.336855	0.053789	0.272584
H110	H	0.453127	-0.053781	0.334724
H111	H	0.453178	0.053779	0.334662
H112	H	0.331544	0.053871	0.414999
H113	H	0.331509	-0.053699	0.415078
H114	H	0.398218	0.000097	0.458094
