data_functionalizedCrystal
_audit_creation_method	'MofGen! by Chris Wilmer'
_symmetry_space_group_name_H-M	'P1'
_symmetry_Int_Tables_number	1
_symmetry_cell_setting	triclinic
loop_
_symmetry_equiv_pos_as_xyz
  x,y,z
_cell_length_a	6.817900
_cell_length_b	16.254434
_cell_length_c	16.418055
_cell_angle_alpha	83.903229
_cell_angle_beta	103.389726
_cell_angle_gamma	79.300613
loop_
_atom_site_label
_atom_site_type_symbol
_atom_site_fract_x
_atom_site_fract_y
_atom_site_fract_z
V1	V	-3.995009	0.261442	-0.116547
O2	O	-3.983636	0.256166	0.004920
O3	O	-3.946253	0.259941	-0.230439
O4	O	-3.932984	0.375334	-0.115053
O5	O	-3.996998	0.139974	-0.111265
V6	V	-4.480449	0.246878	-0.101983
O7	O	-4.252063	0.293388	-0.148495
O8	O	-4.673592	0.214932	-0.070035
O9	O	-4.305998	0.248379	0.011909
O10	O	-4.609219	0.252154	-0.223451
O11	O	-4.595857	0.368346	-0.107266
O12	O	-4.319268	0.132986	-0.103477
C13	C	-3.791609	0.255891	-0.258194
C14	C	-3.832941	0.255424	-0.351305
C15	C	-4.148429	0.258144	-0.657298
C16	C	-4.109606	0.258570	-0.569809
C17	C	-3.746389	0.250176	-0.561244
C18	C	-3.785212	0.249745	-0.648730
C19	C	-3.986238	0.253733	-0.696755
C20	C	-3.908593	0.254590	-0.521781
C21	C	-3.866498	0.255052	-0.426921
C22	C	-4.028337	0.253269	-0.791620
C23	C	-4.140913	0.105230	-0.107526
C24	C	-4.089583	0.012120	-0.107990
C25	C	-3.798390	-0.197830	-0.113234
C26	C	-3.750171	-0.285318	-0.113664
C27	C	-4.096457	-0.293850	-0.105292
C28	C	-4.144669	-0.206364	-0.104856
C29	C	-3.995632	-0.158355	-0.108832
C30	C	-3.899201	-0.333330	-0.109698
C31	C	-3.846921	-0.428188	-0.110164
C32	C	-4.047913	-0.063491	-0.108364
C33	C	-3.774681	0.403085	-0.111007
C34	C	-3.805249	0.496195	-0.110539
C35	C	-4.123985	0.252426	0.039660
C36	C	-4.061890	0.252899	0.132769
H37	H	-3.582716	0.246931	-0.522131
H38	H	-3.653125	0.246151	-0.680856
H39	H	-3.677029	-0.158744	-0.116468
O40	O	-4.241444	-0.340366	-0.101399
C41	C	-4.425892	-0.286758	-0.097441
H42	H	-4.389395	-0.227368	-0.071701
H43	H	-4.535194	-0.268066	-0.163644
C44	C	-4.573849	-0.406622	-0.070072
C45	C	-4.529021	-0.333681	-0.038451
H46	H	-4.637471	-0.435566	-0.033688
H47	H	-4.449587	-0.442739	-0.072742
H48	H	-4.664926	-0.391034	-0.125241
H49	H	-4.437926	-0.349270	0.016712
H50	H	-4.653271	-0.297567	-0.035771
O51	O	-4.343671	0.261861	-0.703888
C52	C	-4.415217	0.191622	-0.673557
H53	H	-4.277692	0.138330	-0.638936
H54	H	-4.512572	0.210969	-0.628052
C55	C	-4.716541	0.226201	-0.791183
C56	C	-4.547631	0.160746	-0.748667
H57	H	-4.798229	0.207157	-0.837514
H58	H	-4.668345	0.273525	-0.811617
H59	H	-4.797647	0.242318	-0.753254
H60	H	-4.466516	0.144637	-0.786593
H61	H	-4.595817	0.113418	-0.728242
O62	O	-4.267037	0.262968	-0.531403
C63	C	-4.284930	0.336383	-0.492610
H64	H	-4.131255	0.357108	-0.479630
H65	H	-4.410131	0.389341	-0.536521
C66	C	-4.531687	0.291587	-0.424393
C67	C	-4.342935	0.317039	-0.408445
H68	H	-4.567477	0.279658	-0.372478
H69	H	-4.519640	0.242128	-0.450531
H70	H	-4.635998	0.335724	-0.460988
H71	H	-4.238623	0.272899	-0.371860
H72	H	-4.354967	0.366491	-0.382299
O73	O	-3.558747	-0.323708	-0.118103
C74	C	-3.575595	-0.362460	-0.191545
H75	H	-3.737012	-0.375455	-0.212234
H76	H	-3.547411	-0.318514	-0.244507
C77	C	-3.215767	-0.430643	-0.146865
C78	C	-3.414017	-0.446610	-0.172272
H79	H	-3.116093	-0.482548	-0.134979
H80	H	-3.204413	-0.404532	-0.097387
H81	H	-3.192310	-0.394019	-0.191005
H82	H	-3.437481	-0.483224	-0.128129
H83	H	-3.425371	-0.472729	-0.221743
O84	O	-4.336299	-0.167900	-0.100696
C85	C	-4.429559	-0.106017	-0.173109
H86	H	-4.304788	-0.085361	-0.200985
H87	H	-4.534941	-0.133750	-0.222264
C88	C	-4.710871	-0.054228	-0.113917
C89	C	-4.557624	-0.028853	-0.148150
H90	H	-4.789876	-0.006631	-0.098523
H91	H	-4.648045	-0.095922	-0.065132
H92	H	-4.798668	-0.077339	-0.154885
H93	H	-4.469816	-0.005752	-0.107179
H94	H	-4.620438	0.012847	-0.196928
