data_functionalizedCrystal
_audit_creation_method	'MofGen! by Chris Wilmer'
_symmetry_space_group_name_H-M	'P1'
_symmetry_Int_Tables_number	1
_symmetry_cell_setting	triclinic
loop_
_symmetry_equiv_pos_as_xyz
  x,y,z
_cell_length_a	19.077105
_cell_length_b	18.215404
_cell_length_c	18.215399
_cell_angle_alpha	90.027515
_cell_angle_beta	87.683200
_cell_angle_gamma	92.279820
loop_
_atom_site_label
_atom_site_type_symbol
_atom_site_fract_x
_atom_site_fract_y
_atom_site_fract_z
Zn1	Zn	1.075989	0.338266	-0.461261
Zn2	Zn	1.575989	0.838266	0.038739
Zn3	Zn	1.075904	0.461333	-0.338192
Zn4	Zn	1.575904	0.961333	0.161808
Zn5	Zn	0.958291	0.333336	-0.333271
Zn6	Zn	1.458291	0.833336	0.166729
Zn7	Zn	0.958261	0.456341	-0.456281
Zn8	Zn	1.458261	0.956341	0.043719
O9	O	1.017111	0.397319	-0.397251
O10	O	1.517111	0.897319	0.102749
O11	O	1.174469	0.358743	-0.449080
O12	O	1.674469	0.858743	0.050920
O13	O	1.060279	0.444380	-0.234554
O14	O	1.560279	0.944380	0.265446
O15	O	0.973953	0.231008	-0.350273
O16	O	1.473953	0.731008	0.149727
O17	O	1.174406	0.449160	-0.358661
O18	O	1.674406	0.949160	0.141339
O19	O	1.060425	0.234629	-0.444307
O20	O	1.560425	0.734629	0.055693
O21	O	0.973870	0.350342	-0.230938
O22	O	1.473870	0.850342	0.269062
O23	O	0.859796	0.345501	-0.345444
O24	O	1.359796	0.845501	0.154556
O25	O	0.973901	0.440652	-0.559927
O26	O	1.473901	0.940652	-0.059927
O27	O	0.859774	0.435872	-0.435820
O28	O	1.359774	0.935872	0.064180
O29	O	1.060395	0.353902	-0.563586
O30	O	1.560395	0.853902	-0.063586
O31	O	1.060250	0.563653	-0.353833
O32	O	1.560250	1.063653	0.146167
O33	O	0.973818	0.559986	-0.440592
O34	O	1.473818	1.059986	0.059408
C35	C	0.834248	0.389611	-0.389558
C36	C	1.334248	0.889611	0.110442
C37	C	0.756018	0.386331	-0.386284
C38	C	1.256018	0.886331	0.113716
C39	C	1.017041	0.588522	-0.397223
C40	C	1.517041	1.088522	0.102777
C41	C	1.017075	0.670323	-0.397238
C42	C	1.517075	1.170323	0.102762
C43	C	1.017154	0.397270	-0.589206
C44	C	1.517154	0.897270	-0.089206
C45	C	1.017173	0.397249	-0.671006
C46	C	1.517173	0.897249	-0.171006
C47	C	0.719272	0.431912	-0.431726
C48	C	1.219272	0.931912	0.068274
C49	C	0.645767	0.428821	-0.428654
C50	C	1.145767	0.928821	0.071346
C51	C	0.609008	0.380151	-0.380135
C52	C	1.109008	0.880151	0.119865
C53	C	0.645759	0.334564	-0.334692
C54	C	1.145759	0.834564	0.165308
C55	C	0.719263	0.337653	-0.337768
C56	C	1.219263	0.837653	0.162232
C57	C	0.389174	0.365858	-0.365899
C58	C	0.889174	0.865858	0.134101
C59	C	0.315665	0.362774	-0.362825
C60	C	0.815665	0.862774	0.137175
C61	C	0.315677	0.457030	-0.456788
C62	C	0.815677	0.957030	0.043212
C63	C	0.389183	0.460117	-0.459857
C64	C	0.889183	0.960117	0.040143
C65	C	0.425927	0.414528	-0.414416
C66	C	0.925927	0.914528	0.085584
N67	N	0.533874	0.376991	-0.376992
N68	N	1.033874	0.876991	0.123008
N69	N	0.501060	0.417685	-0.417564
N70	N	1.001060	0.917685	0.082436
C71	C	1.200689	0.405058	-0.404975
C72	C	1.700689	0.905058	0.095025
C73	C	1.278919	0.408356	-0.408266
C74	C	1.778919	0.908356	0.091734
C75	C	1.062189	0.860406	-0.352164
C76	C	1.562189	1.360406	0.147836
C77	C	1.062221	0.937267	-0.352187
C78	C	1.562221	1.437267	0.147813
C79	C	0.972142	0.933484	-0.442449
C80	C	1.472142	1.433484	0.057551
C81	C	0.972113	0.856626	-0.442429
C82	C	1.472113	1.356626	0.057571
C83	C	1.017136	0.820089	-0.397282
C84	C	1.517136	1.320089	0.102718
C85	C	1.017197	0.973807	-0.397326
C86	C	1.517197	1.473807	0.102674
C87	C	1.017232	1.057142	-0.397351
C88	C	1.517232	1.557142	0.102649
C89	C	1.017101	0.736748	-0.397258
C90	C	1.517101	1.236748	0.102742
C91	C	1.017206	1.205370	-0.397310
C92	C	1.517206	1.705370	0.102690
C93	C	1.017258	1.123573	-0.397370
C94	C	1.517258	1.623573	0.102630
C95	C	1.062227	0.352035	-0.861107
C96	C	1.562227	0.852035	-0.361107
C97	C	1.062235	0.352014	-0.937966
C98	C	1.562235	0.852014	-0.437966
C99	C	0.972169	0.442351	-0.934145
C100	C	1.472169	0.942351	-0.434145
C101	C	0.972157	0.442368	-0.857287
C102	C	1.472157	0.942368	-0.357287
C103	C	1.017190	0.397211	-0.820770
C104	C	1.517190	0.897211	-0.320770
C105	C	1.017210	0.397174	-0.974487
C106	C	1.517210	0.897174	-0.474487
C107	C	1.017219	0.397151	-1.057821
C108	C	1.517219	0.897151	-0.557821
C109	C	1.017181	0.397233	-0.737431
C110	C	1.517181	0.897233	-0.237431
C111	C	1.017109	0.397316	-0.206045
C112	C	1.517109	0.897316	0.293955
C113	C	1.017227	0.397136	-0.124252
C114	C	1.517227	0.897136	0.375748
H115	H	0.615851	0.465939	-0.465657
H116	H	1.115851	0.965939	0.034343
O117	O	0.928481	0.968949	-0.486407
O118	O	1.428481	1.468949	0.013593
C119	C	0.894222	0.990932	-0.610121
C120	C	1.394222	1.490932	-0.110121
C121	C	0.943725	0.950740	-0.560427
C122	C	1.443725	1.450740	-0.060427
H123	H	0.906519	0.976213	-0.669975
H124	H	1.406519	1.476213	-0.169975
H125	H	0.901983	1.052799	-0.602448
H126	H	1.401983	1.552799	-0.102448
H127	H	0.837477	0.973498	-0.594718
H128	H	1.337477	1.473498	-0.094718
H129	H	1.000489	0.968113	-0.575799
H130	H	1.500489	1.468113	-0.075799
H131	H	0.935903	0.888880	-0.568107
H132	H	1.435903	1.388880	-0.068107
H133	H	0.285739	0.323133	-0.323320
H134	H	0.785739	0.823133	0.176680
H135	H	0.285752	0.494145	-0.493784
H136	H	0.785752	0.994145	0.006216
H137	H	0.419083	0.328741	-0.328893
H138	H	0.919083	0.828741	0.171107
O139	O	0.928531	0.486301	-0.969657
O140	O	1.428531	0.986301	-0.469657
C141	C	0.919032	0.585212	-1.056039
C142	C	1.419032	1.085212	-0.556039
C143	C	0.968531	0.535497	-1.015860
C144	C	1.468531	1.035497	-0.515860
H145	H	0.951352	0.624989	-1.093415
H146	H	1.451352	1.124989	-0.593415
H147	H	0.886851	0.617557	-1.014039
H148	H	1.386851	1.117557	-0.514039
H149	H	0.882237	0.549851	-1.090448
H150	H	1.382237	1.049851	-0.590448
H151	H	1.005369	0.570803	-0.981452
H152	H	1.505369	1.070803	-0.481452
H153	H	1.000663	0.503148	-1.057897
H154	H	1.500663	1.003148	-0.557897
O155	O	0.609946	0.287347	-0.287583
O156	O	1.109946	0.787347	0.212417
C157	C	0.496706	0.240779	-0.241236
C158	C	0.996706	0.740779	0.258764
C159	C	0.537175	0.294300	-0.294608
C160	C	1.037175	0.794300	0.205392
H161	H	0.437864	0.246371	-0.246908
H162	H	0.937864	0.746371	0.253092
H163	H	0.511076	0.254226	-0.182455
H164	H	1.011076	0.754226	0.317545
H165	H	0.511228	0.182074	-0.254870
H166	H	1.011228	0.682074	0.245130
H167	H	0.522675	0.353023	-0.281041
H168	H	1.022675	0.853023	0.218959
H169	H	0.522802	0.280790	-0.353373
H170	H	1.022802	0.780790	0.146627
H171	H	1.098909	0.970090	-0.315448
H172	H	1.598909	1.470090	0.184552
O173	O	0.755069	0.293405	-0.293698
O174	O	1.255069	0.793405	0.206302
C175	C	0.868303	0.256420	-0.256765
C176	C	1.368303	0.756420	0.243235
C177	C	0.827842	0.306563	-0.306726
C178	C	1.327842	0.806563	0.193274
H179	H	0.927147	0.267051	-0.267269
H180	H	1.427147	0.767051	0.232731
H181	H	0.853928	0.196475	-0.269194
H182	H	1.353928	0.696475	0.230806
H183	H	0.853781	0.268647	-0.196801
H184	H	1.353781	0.768647	0.303199
H185	H	0.842343	0.294401	-0.366706
H186	H	1.342343	0.794401	0.133294
H187	H	0.842220	0.366492	-0.294234
H188	H	1.342220	0.866492	0.205766
O189	O	1.105890	0.824993	-0.308211
O190	O	1.605890	1.324993	0.191789
C191	C	1.140094	0.802946	-0.184489
C192	C	1.640094	1.302946	0.315511
C193	C	1.090567	0.843106	-0.234182
C194	C	1.590567	1.343106	0.265818
H195	H	1.127714	0.817563	-0.124626
H196	H	1.627714	1.317563	0.375374
H197	H	1.196856	0.820402	-0.199796
H198	H	1.696856	1.320402	0.300204
H199	H	1.132347	0.741091	-0.192261
H200	H	1.632347	1.241091	0.307739
H201	H	1.098253	0.904968	-0.226436
H202	H	1.598253	1.404968	0.273564
H203	H	1.033824	0.825590	-0.218863
H204	H	1.533824	1.325590	0.281137
O205	O	0.928446	0.817427	-0.486343
O206	O	1.428446	1.317427	0.013657
C207	C	0.918892	0.730151	-0.585239
C208	C	1.418892	1.230151	-0.085239
C209	C	0.968419	0.774513	-0.535569
C210	C	1.468419	1.274513	-0.035569
H211	H	0.951189	0.695432	-0.625040
H212	H	1.451189	1.195432	-0.125040
H213	H	0.886726	0.769432	-0.617561
H214	H	1.386726	1.269432	-0.117561
H215	H	0.882084	0.692706	-0.549846
H216	H	1.382084	1.192706	-0.049846
H217	H	1.005269	0.811960	-0.570907
H218	H	1.505269	1.311960	-0.070907
H219	H	1.000534	0.735189	-0.503243
H220	H	1.500534	1.235189	-0.003243
H221	H	1.098893	0.315264	-0.831377
H222	H	1.598893	0.815264	-0.331377
H223	H	1.098907	0.315226	-0.970805
H224	H	1.598907	0.815226	-0.470805
H225	H	0.935478	0.479155	-0.824444
H226	H	1.435478	0.979155	-0.324444
H227	H	0.749195	0.471547	-0.471233
H228	H	1.249195	0.971547	0.028767
H229	H	0.419106	0.499751	-0.499364
H230	H	0.919106	0.999751	0.000636
