data_functionalizedCrystal
_audit_creation_method	'MofGen! by Chris Wilmer'
_symmetry_space_group_name_H-M	'P1'
_symmetry_Int_Tables_number	1
_symmetry_cell_setting	triclinic
loop_
_symmetry_equiv_pos_as_xyz
  x,y,z
_cell_length_a	14.044220
_cell_length_b	19.188930
_cell_length_c	13.101039
_cell_angle_alpha	93.345801
_cell_angle_beta	86.340132
_cell_angle_gamma	88.166830
loop_
_atom_site_label
_atom_site_type_symbol
_atom_site_fract_x
_atom_site_fract_y
_atom_site_fract_z
O1	O	1.262233	0.164759	-0.085127
O2	O	1.762233	0.664759	0.414873
O3	O	0.986290	0.158685	-0.085152
O4	O	1.486290	0.658685	0.414848
O5	O	1.132223	0.060581	-0.085119
O6	O	1.632223	0.560581	0.414881
O7	O	1.116300	0.262863	-0.085160
O8	O	1.616300	0.762863	0.414840
O9	O	1.121753	0.067633	0.085309
O10	O	1.621753	0.567633	0.585309
O11	O	0.975820	0.165737	0.085275
O12	O	1.475820	0.665737	0.585275
O13	O	1.251762	0.171810	0.085300
O14	O	1.751762	0.671810	0.585300
Zn15	Zn	1.112128	0.169893	0.112347
Zn16	Zn	1.612128	0.669893	0.612347
Zn17	Zn	1.125924	0.160602	-0.112199
Zn18	Zn	1.625924	0.660602	0.387801
O19	O	1.105829	0.269914	0.085267
O20	O	1.605829	0.769914	0.585267
C21	C	0.945752	0.159553	0.000059
C22	C	1.445752	0.659553	0.500059
C23	C	0.840559	0.151623	0.000050
C24	C	1.340559	0.651623	0.500050
C25	C	0.647957	0.137129	0.000073
C26	C	1.147957	0.637129	0.500073
C27	C	0.590091	0.193363	0.000066
C28	C	1.090091	0.693363	0.500066
C29	C	0.482920	0.185298	0.000079
C30	C	0.982920	0.685298	0.500079
C31	C	0.755137	0.145193	0.000060
C32	C	1.255137	0.645193	0.500060
C33	C	1.126472	0.038063	0.000098
C34	C	1.626472	0.538063	0.500098
C35	C	1.124923	-0.039541	0.000106
C36	C	1.624923	0.460459	0.500106
C37	C	1.210553	-0.078939	0.000119
C38	C	1.710553	0.421061	0.500119
C39	C	1.209099	-0.151857	0.000103
C40	C	1.709099	0.348143	0.500103
C41	C	1.122010	-0.185374	0.000094
C42	C	1.622010	0.314626	0.500094
C43	C	1.036370	-0.145968	0.000075
C44	C	1.536370	0.354032	0.500075
C45	C	1.037827	-0.073051	0.000082
C46	C	1.537827	0.426949	0.500082
N47	N	1.051878	-0.295275	0.058088
N48	N	1.551878	0.204725	0.558088
N49	N	1.050500	-0.364543	0.058084
N50	N	1.550500	0.135457	0.558084
C51	C	1.117617	-0.405067	0.000073
C52	C	1.617617	0.094933	0.500073
N53	N	1.186177	-0.373707	-0.057921
N54	N	1.686177	0.126293	0.442079
N55	N	1.187558	-0.304433	-0.057913
N56	N	1.687558	0.195567	0.442087
C57	C	1.120421	-0.264440	0.000086
C58	C	1.620421	0.235560	0.500086
C59	C	1.201676	-0.523532	0.000066
C60	C	1.701676	-0.023532	0.500066
C61	C	1.200219	-0.596452	0.000043
C62	C	1.700219	-0.096452	0.500043
C63	C	1.027487	-0.590560	0.000026
C64	C	1.527487	-0.090560	0.500026
C65	C	1.028947	-0.517642	0.000039
C66	C	1.528947	-0.017642	0.500039
C67	C	1.116043	-0.484132	0.000064
C68	C	1.616043	0.015868	0.500064
C69	C	1.292301	0.170943	0.000087
C70	C	1.792301	0.670943	0.500087
C71	C	1.397494	0.178872	0.000089
C72	C	1.897494	0.678872	0.500089
C73	C	1.111580	0.292433	0.000048
C74	C	1.611580	0.792433	0.500048
C75	C	1.113129	0.370037	0.000033
C76	C	1.613129	0.870037	0.500033
N77	N	1.102720	0.176234	0.265593
N78	N	1.602720	0.676234	0.765593
N79	N	1.135340	0.154257	-0.265445
N80	N	1.635340	0.654257	0.234555
C81	C	1.089920	0.184867	0.474633
C82	C	1.589920	0.684867	0.974633
C83	C	1.148137	0.145626	0.525522
C84	C	1.648137	0.645626	1.025522
C85	C	1.141014	0.150429	0.641839
C86	C	1.641014	0.650429	1.141839
C87	C	1.097041	0.180064	0.358306
C88	C	1.597041	0.680064	0.858306
H89	H	0.617011	0.082932	0.000090
H90	H	1.117011	0.582932	0.500090
O91	O	1.213783	0.101164	0.473132
O92	O	1.713783	0.601164	0.973132
C93	C	1.206232	0.106091	0.366975
C94	C	1.706232	0.606091	0.866975
H95	H	1.171824	0.158886	0.352371
H96	H	1.671824	0.658886	0.852371
H97	H	1.280428	0.100839	0.326007
H98	H	1.780428	0.600839	0.826007
H99	H	1.160341	0.062531	0.336707
H100	H	1.660341	0.562531	0.836707
O101	O	0.945819	-0.479285	0.000174
O102	O	1.445819	0.020715	0.500174
C103	C	0.936060	-0.433303	0.088455
C104	C	1.436060	0.066697	0.588455
H105	H	1.009454	-0.423724	0.117892
H106	H	1.509454	0.076276	0.617892
H107	H	0.901755	-0.381599	0.068604
H108	H	1.401755	0.118401	0.568604
H109	H	0.889080	-0.457401	0.150255
H110	H	1.389080	0.042599	0.650255
H111	H	1.281474	-0.051660	0.000136
H112	H	1.781474	0.448340	0.500136
O113	O	1.286225	-0.490900	-0.000060
O114	O	1.786225	0.009100	0.499940
C115	C	1.297663	-0.452550	-0.088331
C116	C	1.797663	0.047450	0.411669
H117	H	1.224704	-0.440285	-0.117760
H118	H	1.724704	0.059715	0.382240
H119	H	1.334016	-0.401702	-0.068470
H120	H	1.834016	0.098298	0.431530
H121	H	1.343517	-0.484651	-0.150141
H122	H	1.843517	0.015349	0.349859
O123	O	1.292367	-0.190031	0.000164
O124	O	1.792367	0.309969	0.500164
C125	C	1.369553	-0.144820	0.000156
C126	C	1.869553	0.355180	0.500156
H127	H	1.343293	-0.090647	0.032419
H128	H	1.843293	0.409353	0.532419
H129	H	1.426487	-0.165908	0.049648
H130	H	1.926487	0.334092	0.549648
H131	H	1.401295	-0.141346	-0.081600
H132	H	1.901295	0.358654	0.418400
H133	H	0.968095	-0.040974	0.000072
H134	H	1.468095	0.459026	0.500072
H135	H	0.965462	-0.173262	0.000066
H136	H	1.465462	0.326738	0.500066
O137	O	1.024170	0.229238	0.527022
O138	O	1.524170	0.729238	1.027022
C139	C	1.031603	0.224209	0.633177
C140	C	1.531603	0.724209	1.133177
H141	H	1.106127	0.203334	0.647697
H142	H	1.606127	0.703334	1.147697
H143	H	1.018510	0.278080	0.674034
H144	H	1.518510	0.778080	1.174034
H145	H	0.976184	0.187147	0.663639
H146	H	1.476184	0.687147	1.163639
O147	O	0.942955	-0.623193	-0.000122
O148	O	1.442955	-0.123193	0.499878
C149	C	0.942359	-0.668819	-0.088408
C150	C	1.442359	-0.168819	0.411592
H151	H	1.018932	-0.683514	-0.117826
H152	H	1.518932	-0.183514	0.382174
H153	H	0.903561	-0.718029	-0.068570
H154	H	1.403561	-0.218029	0.431430
H155	H	0.904102	-0.641811	-0.150217
H156	H	1.404102	-0.141811	0.349783
O157	O	0.627164	0.257972	-0.000024
O158	O	1.127164	0.757972	0.499976
C159	C	0.727468	0.251749	-0.000020
C160	C	1.227468	0.751749	0.499980
H161	H	0.752760	0.197355	-0.032249
H162	H	1.252760	0.697355	0.467751
H163	H	0.760771	0.292643	-0.049541
H164	H	1.260771	0.792643	0.450459
H165	H	0.749982	0.260216	0.081732
H166	H	1.249982	0.760216	0.581732
H167	H	1.269952	-0.628529	0.000048
H168	H	1.769952	-0.128529	0.500048
