data_functionalizedCrystal
_audit_creation_method	'MofGen! by Chris Wilmer'
_symmetry_space_group_name_H-M	'P1'
_symmetry_Int_Tables_number	1
_symmetry_cell_setting	triclinic
loop_
_symmetry_equiv_pos_as_xyz
  x,y,z
_cell_length_a	15.944564
_cell_length_b	26.809956
_cell_length_c	15.944551
_cell_angle_alpha	89.996609
_cell_angle_beta	96.498664
_cell_angle_gamma	89.995659
loop_
_atom_site_label
_atom_site_type_symbol
_atom_site_fract_x
_atom_site_fract_y
_atom_site_fract_z
O1	O	-1.114524	0.041429	0.108371
O2	O	-0.869976	0.041441	0.121716
O3	O	-0.998928	0.041430	-0.007231
O4	O	-0.985572	0.041440	0.237318
O5	O	-0.998904	-0.041529	-0.007211
O6	O	-0.869952	-0.041518	0.121736
O7	O	-1.114500	-0.041531	0.108391
Zn8	Zn	-0.992222	-0.054696	0.115066
Zn9	Zn	-0.992254	0.054607	0.115041
O10	O	-0.985548	-0.041519	0.237338
C11	C	-0.838670	-0.000037	0.121170
C12	C	-0.745425	-0.000032	0.119504
C13	C	-0.530569	-0.000045	0.035589
C14	C	-0.469561	0.040860	0.074539
C15	C	-0.574700	-0.000038	0.116488
C16	C	-0.469560	-0.040932	0.074578
C17	C	-0.409788	-0.000046	0.113570
C18	C	-0.514920	0.040900	0.155461
C19	C	-0.514925	-0.040928	0.155488
C20	C	-0.453935	-0.000013	0.194497
C21	C	-0.669701	-0.000033	0.118167
C22	C	-0.314787	-0.000048	0.111898
N23	N	-0.992206	-0.129292	0.115084
C24	C	-1.049347	-0.473923	0.057957
C25	C	-1.049366	-0.682801	0.057944
O26	O	-1.097915	-0.709809	0.009378
N27	N	-0.992258	-0.708919	0.115022
C28	C	-0.935138	-0.682815	0.172104
O29	O	-0.886558	-0.709823	0.220646
C30	C	-0.935114	-0.473938	0.172112
C31	C	-0.992232	-0.447822	0.115036
C32	C	-1.106459	-0.447807	0.000885
C33	C	-1.106456	-0.395591	0.000892
C34	C	-1.049342	-0.369490	0.057971
C35	C	-0.992229	-0.395606	0.115042
C36	C	-0.877990	-0.447835	0.229188
C37	C	-0.877988	-0.395612	0.229184
C38	C	-0.935106	-0.369497	0.172108
C39	C	-0.935112	-0.317289	0.172128
N40	N	-0.992220	-0.291171	0.115050
C41	C	-1.049335	-0.317271	0.057971
C42	C	-0.935155	-0.792478	0.172096
C43	C	-0.935162	-0.844697	0.172095
C44	C	-1.049390	-0.844679	0.057935
C45	C	-1.049386	-0.792459	0.057940
C46	C	-0.992263	-0.766360	0.115018
C47	C	-1.049326	-0.207613	0.057991
C48	C	-1.049321	-0.155392	0.058005
C49	C	-0.935090	-0.155415	0.172162
C50	C	-0.935098	-0.207631	0.172151
C51	C	-0.992219	-0.233729	0.115058
O52	O	-0.886583	-0.290249	0.220662
O53	O	-1.097895	-0.290254	0.009424
C54	C	-1.049349	-0.526139	0.057950
C55	C	-0.992237	-0.552255	0.115022
C56	C	-0.935122	-0.526154	0.172101
C57	C	-0.992244	-0.604474	0.115021
C58	C	-1.049358	-0.630574	0.057942
C59	C	-1.106466	-0.604456	0.000864
C60	C	-1.106464	-0.552240	0.000871
C61	C	-0.878014	-0.552273	0.229179
C62	C	-0.878022	-0.604489	0.229168
C63	C	-0.935137	-0.630590	0.172089
C64	C	-0.145807	-0.000051	0.108925
C65	C	-0.239057	-0.000053	0.110558
C66	C	-0.998361	-0.000050	-0.038515
C67	C	-0.996699	-0.000050	-0.131761
N68	N	-0.992276	0.129202	0.115017
C69	C	-0.912795	-0.000039	-0.346622
C70	C	-0.951745	-0.040945	-0.407627
C71	C	-0.993692	-0.000046	-0.302487
C72	C	-0.951789	0.040847	-0.407630
C73	C	-0.990781	-0.000040	-0.467400
C74	C	-1.032664	-0.040985	-0.362265
C75	C	-1.032696	0.040843	-0.362261
C76	C	-1.071705	-0.000073	-0.423249
C77	C	-0.995366	-0.000050	-0.207485
C78	C	-0.989113	-0.000039	-0.562401
C79	C	-0.986114	-0.000039	0.268622
C80	C	-0.987777	-0.000035	0.361868
H81	H	-0.449463	-0.075512	0.040354
Cl82	Cl	-1.085434	-0.094437	-0.331392
H83	H	-0.535046	-0.075509	0.189685
Cl84	Cl	-1.121132	-0.122564	-0.013752
H85	H	-1.152968	-0.469053	-0.045599
H86	H	-1.095896	-0.771199	0.011464
Cl87	Cl	-1.121138	-0.240414	-0.013783
H88	H	-1.095896	-0.865939	0.011460
Cl89	Cl	-0.863339	-0.759673	0.243861
H90	H	-1.066893	0.075424	-0.342137
Cl91	Cl	-0.898906	-0.094332	-0.438664
H92	H	-0.845647	-0.000076	-0.313317
H93	H	-0.888590	-0.134156	0.218638
Cl94	Cl	-0.898956	0.094236	-0.438664
H95	H	-1.152974	-0.625715	-0.045609
H96	H	-0.888660	-0.865957	0.218581
H97	H	-1.138912	-0.000100	-0.456405
Cl98	Cl	-0.806207	-0.519467	0.300942
Cl99	Cl	-0.581995	0.000011	-0.068078
H100	H	-0.449461	0.075439	0.040314
H101	H	-0.420776	0.000013	0.261702
Cl102	Cl	-0.806169	-0.362805	0.300943
Cl103	Cl	-1.178258	-0.362765	-0.070869
Cl104	Cl	-0.545790	0.094351	0.208236
H105	H	-1.152974	-0.530980	-0.045605
Cl106	Cl	-0.806180	-0.480655	0.300942
Cl107	Cl	-0.806213	-0.637315	0.300931
Cl108	Cl	-0.863300	-0.240461	0.243915
