data_functionalizedCrystal
_audit_creation_method	'MofGen! by Chris Wilmer'
_symmetry_space_group_name_H-M	'P1'
_symmetry_Int_Tables_number	1
_symmetry_cell_setting	triclinic
loop_
_symmetry_equiv_pos_as_xyz
  x,y,z
_cell_length_a	19.121241
_cell_length_b	29.839131
_cell_length_c	29.839126
_cell_angle_alpha	90.031806
_cell_angle_beta	92.463783
_cell_angle_gamma	92.469032
loop_
_atom_site_label
_atom_site_type_symbol
_atom_site_fract_x
_atom_site_fract_y
_atom_site_fract_z
Zn1	Zn	1.073716	-0.149653	0.283340
Zn2	Zn	1.073607	-0.224776	0.208197
Zn3	Zn	0.956260	-0.152856	0.205011
Zn4	Zn	0.956207	-0.227956	0.280088
O5	O	1.014948	-0.188810	0.244159
O6	O	1.171989	-0.156947	0.276066
O7	O	1.058017	-0.215246	0.144906
O8	O	0.971909	-0.089562	0.215429
O9	O	1.171909	-0.212140	0.220859
O10	O	1.058203	-0.087209	0.272977
O11	O	0.971803	-0.162407	0.142566
O12	O	0.857965	-0.165490	0.212276
O13	O	0.971818	-0.217559	0.343387
O14	O	0.857926	-0.220665	0.267435
O15	O	1.058151	-0.160030	0.345776
O16	O	1.057966	-0.288067	0.217706
O17	O	0.971712	-0.290403	0.270524
C18	C	0.832461	-0.193771	0.239157
C19	C	0.754392	-0.195903	0.237028
C20	C	0.717758	-0.168215	0.264815
C21	C	0.644404	-0.170217	0.262811
C22	C	0.607686	-0.199909	0.233021
C23	C	0.644326	-0.227599	0.205231
C24	C	0.717678	-0.225595	0.207234
C25	C	0.386207	-0.207395	0.225533
C26	C	0.312850	-0.209398	0.223533
C27	C	0.312933	-0.152015	0.281113
C28	C	0.386287	-0.150015	0.283114
C29	C	0.422920	-0.177703	0.255323
C30	C	0.532707	-0.201957	0.230973
C31	C	0.497898	-0.175652	0.257369
C32	C	1.014840	-0.305536	0.244118
C33	C	1.014859	-0.355470	0.244118
C34	C	1.059871	-0.663851	0.274165
C35	C	1.059947	-0.851522	0.274194
O36	O	1.098113	-0.874716	0.299710
N37	N	1.015067	-0.876249	0.244212
C38	C	0.970161	-0.854056	0.214223
O39	O	0.931984	-0.879395	0.188725
C40	C	0.970082	-0.666386	0.214196
C41	C	1.014970	-0.641661	0.244177
C42	C	1.104755	-0.639126	0.304144
C43	C	1.104739	-0.592211	0.304134
C44	C	1.059837	-0.570021	0.274146
C45	C	1.014953	-0.594746	0.244168
C46	C	0.925172	-0.644194	0.184210
C47	C	0.925155	-0.597274	0.184206
C48	C	0.970044	-0.572549	0.214187
C49	C	0.970035	-0.525641	0.214171
N50	N	1.014916	-0.500914	0.244153
C51	C	1.059817	-0.523104	0.274140
C52	C	0.970207	-0.952586	0.214238
C53	C	0.970227	-0.999503	0.214244
C54	C	1.060013	-0.996965	0.274216
C55	C	1.059995	-0.950047	0.274208
C56	C	1.015087	-0.927858	0.244220
C57	C	1.059779	-0.424579	0.274119
C58	C	1.059760	-0.377660	0.274105
C59	C	0.969972	-0.380202	0.214135
C60	C	0.969993	-0.427117	0.214147
C61	C	1.014899	-0.449304	0.244142
O62	O	0.931884	-0.502418	0.188671
O63	O	1.097977	-0.497757	0.299641
C64	C	1.059888	-0.710766	0.274174
C65	C	1.015004	-0.735491	0.244195
C66	C	0.970103	-0.713301	0.214208
C67	C	1.015024	-0.782408	0.244201
C68	C	1.059925	-0.804598	0.274189
C69	C	1.104806	-0.779870	0.304171
C70	C	1.104789	-0.732955	0.304162
C71	C	0.925222	-0.738029	0.184226
C72	C	0.925243	-0.784944	0.184237
C73	C	0.970144	-0.807133	0.214225
C74	C	1.198147	-0.183831	0.249181
C75	C	1.276215	-0.181710	0.251320
C76	C	1.014991	-0.188792	0.361339
C77	C	1.015010	-0.188784	0.411274
C78	C	1.015074	-0.071629	0.244210
C79	C	1.015128	-0.021693	0.244232
C80	C	1.014945	-0.188795	0.127436
C81	C	1.015062	-0.188673	0.077505
C82	C	0.970132	-0.161225	0.719702
C83	C	0.970152	-0.161194	0.907375
O84	O	0.931960	-0.137808	0.930606
N85	N	1.015043	-0.188699	0.932060
C86	C	1.059929	-0.216216	0.909823
O87	O	1.098107	-0.239614	0.935125
C88	C	1.059905	-0.216250	0.722150
C89	C	1.015016	-0.188740	0.697468
C90	C	0.925246	-0.133718	0.695020
C91	C	0.925244	-0.133724	0.648104
C92	C	0.970128	-0.161238	0.625870
C93	C	1.015014	-0.188746	0.650552
C94	C	1.104787	-0.243770	0.699914
C95	C	1.104776	-0.243776	0.652993
C96	C	1.059887	-0.216266	0.628311
C97	C	1.059896	-0.216267	0.581403
N98	N	1.015005	-0.188761	0.556719
C99	C	0.970121	-0.161247	0.578952
C100	C	1.059939	-0.216196	1.008354
C101	C	1.059946	-0.216187	1.055272
C102	C	0.970168	-0.161165	1.052821
C103	C	0.970165	-0.161172	1.005902
C104	C	1.015048	-0.188691	0.983669
C105	C	0.970121	-0.161262	0.480427
C106	C	0.970126	-0.161270	0.433507
C107	C	1.059901	-0.216294	0.435962
C108	C	1.059899	-0.216285	0.482878
C109	C	1.015004	-0.188768	0.505109
O110	O	1.098062	-0.239644	0.558143
O111	O	0.931938	-0.137860	0.553642
C112	C	0.970134	-0.161219	0.766617
C113	C	1.015020	-0.188727	0.791299
C114	C	1.059904	-0.216241	0.769066
C115	C	1.015027	-0.188718	0.838217
C116	C	0.970143	-0.161204	0.860451
C117	C	0.925252	-0.133698	0.835766
C118	C	0.925250	-0.133705	0.788851
C119	C	1.104795	-0.243747	0.793750
C120	C	1.104793	-0.243737	0.840666
C121	C	1.059909	-0.216223	0.862899
H122	H	0.282956	-0.233580	0.199275
H123	H	0.283099	-0.129472	0.303739
H124	H	1.141343	-0.266154	0.775652
Br125	Br	1.165657	-0.558662	0.344828
Br126	Br	1.120724	-0.454683	0.314826
Br127	Br	0.909084	-0.460673	0.173452
H128	H	1.096507	-0.238584	1.075364
Br129	Br	0.864326	-0.096367	0.755361
Br130	Br	0.909039	-0.350078	0.173439
Br131	Br	0.864321	-0.818494	0.143542
Br132	Br	0.482870	-0.242253	0.190545
Br133	Br	0.909255	-0.123824	1.083004
Br134	Br	0.909316	-1.033053	0.173547
H135	H	0.933613	-0.138770	0.985809
Br136	Br	0.767582	-0.127919	0.305249
H137	H	0.614580	-0.147671	0.285439
H138	H	0.933572	-0.138866	0.413413
Br139	Br	0.436114	-0.109721	0.323549
Br140	Br	0.909250	-0.922479	0.173539
Br141	Br	1.120861	-0.253545	0.978188
H142	H	1.141354	-0.266139	0.860758
Br143	Br	0.767397	-0.263172	0.169520
Br144	Br	1.120817	-0.253629	0.405779
Br145	Br	0.864247	-0.677738	0.143520
Br146	Br	1.165712	-0.699407	0.344852
Br147	Br	0.909196	-0.123915	0.510590
H148	H	1.141368	-0.797945	0.328587
H149	H	0.888657	-0.719966	0.159807
Br150	Br	0.547730	-0.135354	0.297794
H151	H	1.096316	-0.357529	0.298519
H152	H	1.141340	-0.266172	0.720002
H153	H	1.141330	-0.266183	0.634893
Br154	Br	1.120917	-0.916496	0.314897
H155	H	1.096459	-0.238681	0.502975
H156	H	1.141319	-0.657187	0.328566
H157	H	0.888708	-0.111293	0.853877
Br158	Br	1.120951	-1.027089	0.314913
Br159	Br	0.864203	-0.567163	0.143507
Br160	Br	0.864317	-0.096389	0.614614
H161	H	0.416025	-0.229941	0.202903
H162	H	0.614424	-0.251773	0.180974
H163	H	0.888693	-0.111312	0.713117
