data_functionalizedCrystal
_audit_creation_method	'MofGen! by Chris Wilmer'
_symmetry_space_group_name_H-M	'P1'
_symmetry_Int_Tables_number	1
_symmetry_cell_setting	triclinic
loop_
_symmetry_equiv_pos_as_xyz
  x,y,z
_cell_length_a	12.811434
_cell_length_b	12.837943
_cell_length_c	14.184680
_cell_angle_alpha	104.575860
_cell_angle_beta	97.988751
_cell_angle_gamma	90.587059
loop_
_atom_site_label
_atom_site_type_symbol
_atom_site_fract_x
_atom_site_fract_y
_atom_site_fract_z
O1	O	-1.395417	0.151930	0.043551
O2	O	-1.098317	0.159525	0.016516
O3	O	-1.240279	0.004627	0.029433
O4	O	-1.253455	0.306828	0.030634
O5	O	-1.198285	0.050390	0.192472
O6	O	-1.056323	0.205288	0.179554
O7	O	-1.353423	0.197693	0.206590
Cu8	Cu	-1.201039	0.205669	0.207959
Cu9	Cu	-1.250701	0.151549	0.015147
O10	O	-1.211461	0.352591	0.193672
C11	C	-1.039028	0.180577	0.094550
C12	C	-0.924930	0.175112	0.084167
C13	C	-0.786999	0.142467	-0.019328
C14	C	-0.894206	0.147599	-0.009581
C15	C	-0.848437	0.197492	0.168174
C16	C	-0.741229	0.192360	0.158427
C17	C	-0.710515	0.164848	0.064673
C18	C	-0.603305	0.159724	0.054926
C19	C	-0.557538	0.209610	0.232680
C20	C	-0.664745	0.214742	0.242427
N21	N	-1.166116	0.243734	0.343573
C22	C	-1.214832	-0.011246	0.110545
C23	C	-1.201559	-0.126723	0.109330
C24	C	-0.412712	0.176641	0.128554
C25	C	-0.526812	0.182104	0.138933
C26	C	-1.236909	0.368464	0.112558
C27	C	-1.250183	0.483939	0.113767
C28	C	-1.090599	0.720109	0.099226
C29	C	-1.103067	0.828608	0.100361
C30	C	-1.287589	0.809437	0.117163
C31	C	-1.275121	0.700938	0.116028
C32	C	-1.176622	0.656278	0.107061
C33	C	-1.164153	0.547779	0.105934
C34	C	-1.348676	0.528608	0.122729
C35	C	-1.361144	0.637107	0.123863
N36	N	-1.285631	0.113476	-0.120467
C37	C	-1.063620	0.355505	0.491814
C38	C	-1.090041	0.326690	0.389181
C39	C	-1.215804	0.189564	0.400589
C40	C	-1.189397	0.218371	0.503225
C41	C	-1.113303	0.301341	0.548830
C42	C	-1.239081	0.164207	0.560241
C43	C	-1.212672	0.193008	0.662868
C44	C	-1.136579	0.275973	0.708480
C45	C	-1.086894	0.330142	0.651457
C46	C	-1.315169	0.081232	0.514634
C47	C	-1.364853	0.027068	0.571649
C48	C	-1.338450	0.055874	0.674279
C49	C	-1.262357	0.138839	0.719891
C50	C	-1.388134	0.001705	0.731302
C51	C	-1.361725	0.030506	0.833929
C52	C	-1.235947	0.167640	0.822518
H53	H	-0.873465	0.219879	0.244504
H54	H	-0.689769	0.237137	0.318759
H55	H	-1.033018	0.880576	0.093980
H56	H	-1.367766	0.845836	0.124525
F57	F	-1.108468	0.306621	0.817706
H58	H	-1.441338	0.673486	0.131168
H59	H	-0.956478	0.129373	-0.077983
F60	F	-0.476129	0.233438	0.322085
F61	F	-0.985768	0.672580	0.089697
F62	F	-1.440233	0.460667	0.131070
F63	F	-1.154969	0.255958	0.871057
H64	H	-1.024939	0.397713	0.688590
H65	H	-1.001664	0.423075	0.528947
H66	H	-1.049574	0.370804	0.342763
H67	H	-1.277758	0.122006	0.363445
H68	H	-1.402182	-0.013601	0.880352
H69	H	-1.450083	-0.065858	0.694157
H70	H	-1.336665	0.057782	0.431067
F71	F	-1.059323	0.500251	0.096395
F72	F	-1.445833	-0.061236	0.523105
H73	H	-0.578300	0.137327	-0.021413
H74	H	-0.761991	0.120077	-0.095666
