data_functionalizedCrystal
_audit_creation_method	'MofGen! by Chris Wilmer'
_symmetry_space_group_name_H-M	'P1'
_symmetry_Int_Tables_number	1
_symmetry_cell_setting	triclinic
loop_
_symmetry_equiv_pos_as_xyz
  x,y,z
_cell_length_a	14.519731
_cell_length_b	12.996460
_cell_length_c	14.519731
_cell_angle_alpha	90.007128
_cell_angle_beta	96.311147
_cell_angle_gamma	89.993310
loop_
_atom_site_label
_atom_site_type_symbol
_atom_site_fract_x
_atom_site_fract_y
_atom_site_fract_z
O1	O	-1.223866	0.085596	0.120985
O2	O	-0.973866	0.335596	0.370985
O3	O	-0.723866	0.585596	0.620985
O4	O	-0.473866	0.835596	0.870985
O5	O	-0.955393	0.085592	0.135201
O6	O	-0.705393	0.335592	0.385201
O7	O	-0.455393	0.585592	0.635201
O8	O	-0.205393	0.835592	0.885201
O9	O	-1.096737	0.085585	-0.006143
O10	O	-0.846737	0.335585	0.243857
O11	O	-0.596737	0.585585	0.493857
O12	O	-0.346737	0.835585	0.743857
O13	O	-1.082521	0.085603	0.262330
O14	O	-0.832521	0.335603	0.512330
O15	O	-0.582521	0.585603	0.762330
O16	O	-0.332521	0.835603	1.012330
O17	O	-1.096723	-0.085549	-0.006151
O18	O	-0.846723	0.164451	0.243849
O19	O	-0.596723	0.414451	0.493849
O20	O	-0.346723	0.664451	0.743849
O21	O	-0.955378	-0.085542	0.135193
O22	O	-0.705378	0.164458	0.385193
O23	O	-0.455378	0.414458	0.635193
O24	O	-0.205378	0.664458	0.885193
O25	O	-1.223851	-0.085538	0.120977
O26	O	-0.973851	0.164462	0.370977
O27	O	-0.723851	0.414462	0.620977
O28	O	-0.473851	0.664462	0.870977
Cu29	Cu	-1.089613	-0.101166	0.128085
Cu30	Cu	-0.839613	0.148834	0.378085
Cu31	Cu	-0.589613	0.398834	0.628085
Cu32	Cu	-0.339613	0.648834	0.878085
Cu33	Cu	-1.089631	0.101220	0.128094
Cu34	Cu	-0.839631	0.351220	0.378094
Cu35	Cu	-0.589631	0.601220	0.628094
Cu36	Cu	-0.339631	0.851220	0.878094
O37	O	-1.082507	-0.085531	0.262322
O38	O	-0.832507	0.164469	0.512322
O39	O	-0.582507	0.414469	0.762322
O40	O	-0.332507	0.664469	1.012322
C41	C	-0.921026	0.000025	0.134531
C42	C	-0.671026	0.250025	0.384531
C43	C	-0.421026	0.500025	0.634531
C44	C	-0.171026	0.750025	0.884531
C45	C	-0.818645	0.000023	0.132535
C46	C	-0.568645	0.250023	0.382535
C47	C	-0.318645	0.500023	0.632535
C48	C	-0.068645	0.750023	0.882535
N49	N	-1.089608	-0.243513	0.128078
N50	N	-0.839608	0.006487	0.378078
N51	N	-0.589608	0.256487	0.628078
N52	N	-0.339608	0.506487	0.878078
C53	C	-0.735501	0.000026	0.130913
C54	C	-0.485501	0.250026	0.380913
C55	C	-0.235501	0.500026	0.630913
C56	C	0.014499	0.750026	0.880913
C57	C	-0.631192	0.000024	0.128887
C58	C	-0.381192	0.250024	0.378887
C59	C	-0.131192	0.500024	0.628887
C60	C	0.118808	0.750024	0.878887
C61	C	-0.548053	0.000022	0.127278
C62	C	-0.298053	0.250022	0.377278
C63	C	-0.048053	0.500022	0.627278
C64	C	0.201947	0.750022	0.877278
C65	C	-0.443738	0.000022	0.125252
C66	C	-0.193738	0.250022	0.375252
C67	C	0.056262	0.500022	0.625252
C68	C	0.306262	0.750022	0.875252
C69	C	-1.089629	-0.663327	0.128095
C70	C	-0.839629	-0.413327	0.378095
C71	C	-0.589629	-0.163327	0.628095
C72	C	-0.339629	0.086673	0.878095
C73	C	-1.089621	-0.546522	0.128093
C74	C	-0.839621	-0.296522	0.378093
C75	C	-0.589621	-0.046522	0.628093
C76	C	-0.339621	0.203478	0.878093
C77	C	-1.089619	-0.453424	0.128087
C78	C	-0.839619	-0.203424	0.378087
C79	C	-0.589619	0.046576	0.628087
C80	C	-0.339619	0.296576	0.878087
C81	C	-1.089609	-0.336611	0.128084
C82	C	-0.839609	-0.086611	0.378084
C83	C	-0.589609	0.163389	0.628084
C84	C	-0.339609	0.413389	0.878084
C85	C	-0.258218	0.000027	0.121648
C86	C	-0.008218	0.250027	0.371648
C87	C	0.241782	0.500027	0.621648
C88	C	0.491782	0.750027	0.871648
C89	C	-0.360598	0.000020	0.123644
C90	C	-0.110598	0.250020	0.373644
C91	C	0.139402	0.500020	0.623644
C92	C	0.389402	0.750020	0.873644
C93	C	-1.096064	0.000018	-0.040507
C94	C	-0.846064	0.250018	0.209493
C95	C	-0.596064	0.500018	0.459493
C96	C	-0.346064	0.750018	0.709493
C97	C	-1.094068	0.000017	-0.142887
C98	C	-0.844068	0.250017	0.107113
C99	C	-0.594068	0.500017	0.357113
C100	C	-0.344068	0.750017	0.607113
N101	N	-1.089644	0.243567	0.128094
N102	N	-0.839644	0.493567	0.378094
N103	N	-0.589644	0.743567	0.628094
N104	N	-0.339644	0.993567	0.878094
C105	C	-1.092446	0.000019	-0.226031
C106	C	-0.842446	0.250019	0.023969
C107	C	-0.592446	0.500019	0.273969
C108	C	-0.342446	0.750019	0.523969
C109	C	-1.090419	0.000027	-0.330340
C110	C	-0.840419	0.250027	-0.080340
C111	C	-0.590419	0.500027	0.169660
C112	C	-0.340419	0.750027	0.419660
C113	C	-1.088811	0.000034	-0.413479
C114	C	-0.838811	0.250034	-0.163479
C115	C	-0.588811	0.500034	0.086521
C116	C	-0.338811	0.750034	0.336521
C117	C	-1.086785	0.000040	-0.517795
C118	C	-0.836785	0.250040	-0.267795
C119	C	-0.586785	0.500040	-0.017795
C120	C	-0.336785	0.750040	0.232205
C121	C	-1.083180	0.000039	0.296685
C122	C	-0.833180	0.250039	0.546685
C123	C	-0.583180	0.500039	0.796685
C124	C	-0.333180	0.750039	1.046685
C125	C	-1.085176	0.000046	0.399066
C126	C	-0.835176	0.250046	0.649066
C127	C	-0.585176	0.500046	0.899066
C128	C	-0.335176	0.750046	1.149066
