data_functionalizedCrystal
_audit_creation_method	'MofGen! by Chris Wilmer'
_symmetry_space_group_name_H-M	'P1'
_symmetry_Int_Tables_number	1
_symmetry_cell_setting	triclinic
loop_
_symmetry_equiv_pos_as_xyz
  x,y,z
_cell_length_a	10.489741
_cell_length_b	19.188922
_cell_length_c	9.565339
_cell_angle_alpha	90.009171
_cell_angle_beta	90.000413
_cell_angle_gamma	83.840134
loop_
_atom_site_label
_atom_site_type_symbol
_atom_site_fract_x
_atom_site_fract_y
_atom_site_fract_z
O1	O	-1.691842	-0.098505	-0.116182
O2	O	-1.320439	-0.107751	-0.116205
O3	O	-1.516865	-0.001544	-0.116175
O4	O	-1.495417	-0.204712	-0.116212
O5	O	-1.516854	-0.001536	0.116345
O6	O	-1.320428	-0.107743	0.116315
O7	O	-1.691831	-0.098497	0.116338
Zn8	Zn	-1.506128	-0.103119	0.153244
Zn9	Zn	-1.506143	-0.103129	-0.153111
O10	O	-1.495406	-0.204705	0.116308
C11	C	-1.516167	0.024476	0.000087
C12	C	-1.514087	0.101995	0.000092
C13	C	-1.272918	-0.107049	0.000053
C14	C	-1.131335	-0.104960	0.000045
C15	C	-1.739353	-0.099199	0.000077
C16	C	-1.880935	-0.101289	0.000076
C17	C	-1.513123	0.138396	-0.126655
C18	C	-1.511151	0.211232	-0.126665
C19	C	-1.510170	0.247666	0.000080
C20	C	-1.511127	0.211255	0.126843
C21	C	-1.513086	0.138420	0.126849
N22	N	-1.579671	0.366866	0.094418
N23	N	-1.577813	0.436057	0.094403
C24	C	-1.504265	0.467115	0.000069
N25	N	-1.432661	0.426368	-0.094272
N26	N	-1.434525	0.357171	-0.094262
C27	C	-1.508045	0.326643	0.000087
C28	C	-1.501161	0.582493	-0.126697
C29	C	-1.499181	0.655330	-0.126701
C30	C	-1.499170	0.655352	0.126810
C31	C	-1.501136	0.582516	0.126811
C32	C	-1.502138	0.546091	0.000053
C33	C	-1.064710	-0.037383	0.000070
C34	C	-0.971873	-0.069309	-0.114577
C35	C	-0.971896	-0.069318	0.114669
C36	C	-1.040363	-0.136914	-0.114698
C37	C	-1.040395	-0.136913	0.114652
C38	C	-0.947585	-0.168888	-0.000023
C39	C	-1.496108	0.769276	0.000047
C40	C	-1.498197	0.691758	0.000044
N41	N	-1.506153	-0.103131	-0.362190
C42	C	-1.597174	-0.054098	-0.453334
C43	C	-1.621274	-0.117351	-0.546575
C44	C	-1.482084	-0.039865	-0.546504
C45	C	-1.530310	-0.166416	-0.453380
C46	C	-1.391071	-0.088888	-0.453301
C47	C	-1.415121	-0.152186	-0.546501
N48	N	-1.506128	-0.103112	0.362324
H49	H	-1.513935	0.108743	-0.229871
H50	H	-1.501932	0.552878	0.230022
H51	H	-1.070796	-0.165479	0.211574
O52	O	-0.935738	-0.035295	0.230452
C53	C	-0.972393	-0.070326	0.351131
H54	H	-0.983651	-0.127216	0.324208
H55	H	-0.895683	-0.068572	0.435105
H56	H	-1.067481	-0.043518	0.391665
O57	O	-1.510379	0.246679	-0.249715
C58	C	-1.619698	0.296152	-0.257328
H59	H	-1.656217	0.309538	-0.147281
H60	H	-1.593482	0.345705	-0.311000
H61	H	-1.697790	0.273221	-0.319859
O62	O	-1.554689	-0.230301	-0.405032
C63	C	-1.571749	-0.274973	-0.519003
H64	H	-1.522148	-0.255525	-0.615263
H65	H	-1.528373	-0.330453	-0.492749
H66	H	-1.678519	-0.275065	-0.541156
H67	H	-1.674207	-0.012688	-0.412428
O68	O	-1.510000	0.246707	0.249875
C69	C	-1.398413	0.281472	0.257459
H70	H	-1.361313	0.289923	0.147404
H71	H	-1.421870	0.334348	0.311106
H72	H	-1.321828	0.248257	0.319999
H73	H	-1.513866	0.108782	0.230064
H74	H	-0.896914	-0.224499	-0.000096
H75	H	-1.501969	0.552834	-0.229910
O76	O	-1.737266	-0.131738	-0.595703
C77	C	-1.735263	-0.132137	-0.743087
H78	H	-1.632023	-0.142856	-0.781110
H79	H	-1.793383	-0.174854	-0.783422
H80	H	-1.778762	-0.079024	-0.783906
H81	H	-1.338132	-0.193690	-0.587150
O82	O	-1.498085	0.690602	-0.249923
C83	C	-1.388129	0.665453	-0.327047
H84	H	-1.352722	0.610122	-0.291006
H85	H	-1.413063	0.664601	-0.442993
H86	H	-1.309690	0.701299	-0.309510
H87	H	-1.293790	-0.076826	-0.412300
O88	O	-1.457955	0.024009	-0.595141
C89	C	-1.554188	0.075527	-0.547699
H90	H	-1.600702	0.055940	-0.449586
H91	H	-1.509738	0.125730	-0.522547
H92	H	-1.629938	0.086572	-0.632598
O93	O	-1.125391	0.028909	-0.000302
C94	C	-1.090677	0.064277	-0.121386
H95	H	-1.057045	0.024361	-0.205452
H96	H	-1.177116	0.099750	-0.161399
H97	H	-1.009804	0.097318	-0.095218
O98	O	-1.498019	0.690792	0.249850
C99	C	-1.386416	0.725543	0.257423
H100	H	-1.349331	0.734000	0.147364
H101	H	-1.409845	0.778416	0.311091
H102	H	-1.309830	0.692316	0.319939
H103	H	-0.941504	-0.040719	-0.211495
O104	O	-1.076506	-0.171066	-0.230322
C105	C	-1.136962	-0.229996	-0.189429
H106	H	-1.176120	-0.221789	-0.078791
H107	H	-1.219160	-0.237143	-0.264236
H108	H	-1.064496	-0.278706	-0.192193
