data_functionalizedCrystal
_audit_creation_method	'MofGen! by Chris Wilmer'
_symmetry_space_group_name_H-M	'P1'
_symmetry_Int_Tables_number	1
_symmetry_cell_setting	triclinic
loop_
_symmetry_equiv_pos_as_xyz
  x,y,z
_cell_length_a	14.853567
_cell_length_b	16.992695
_cell_length_c	16.053802
_cell_angle_alpha	87.249318
_cell_angle_beta	87.415238
_cell_angle_gamma	92.848423
loop_
_atom_site_label
_atom_site_type_symbol
_atom_site_fract_x
_atom_site_fract_y
_atom_site_fract_z
O1	O	1.200023	-0.105674	0.069373
O2	O	1.700023	0.394326	0.569373
O3	O	0.938424	-0.117870	0.069387
O4	O	1.438424	0.382130	0.569387
O5	O	1.068175	0.002372	0.069373
O6	O	1.568175	0.502372	0.569373
O7	O	1.070272	-0.225916	0.069387
O8	O	1.570272	0.274084	0.569387
O9	O	1.075310	0.008970	-0.069486
O10	O	1.575310	0.508970	0.430514
O11	O	0.945559	-0.111272	-0.069472
O12	O	1.445559	0.388728	0.430528
O13	O	1.207158	-0.099075	-0.069487
O14	O	1.707158	0.400925	0.430513
Zn15	Zn	1.077491	-0.104126	-0.091527
Zn16	Zn	1.577491	0.395874	0.408473
Zn17	Zn	1.068090	-0.112820	0.091427
Zn18	Zn	1.568090	0.387180	0.591427
O19	O	1.077407	-0.219318	-0.069473
O20	O	1.577407	0.280682	0.430527
C21	C	0.908363	-0.114019	-0.000041
C22	C	1.408363	0.385981	0.499959
C23	C	0.808162	-0.112363	-0.000036
C24	C	1.308162	0.387637	0.499964
N25	N	1.061675	-0.118747	0.216288
N26	N	1.561675	0.381253	0.716288
C27	C	1.069044	0.034887	-0.000056
C28	C	1.569044	0.534887	0.499944
C29	C	1.060994	0.121940	-0.000055
C30	C	1.560994	0.621940	0.499945
C31	C	0.390092	-0.033936	-0.000059
C32	C	0.890092	0.466064	0.499941
C33	C	0.378897	-0.176786	-0.000050
C34	C	0.878897	0.323214	0.499950
C35	C	0.473041	-0.178343	-0.000047
C36	C	0.973041	0.321657	0.499953
C37	C	0.525714	-0.107696	-0.000049
C38	C	1.025714	0.392304	0.499951
C39	C	0.484245	-0.035491	-0.000053
C40	C	0.984245	0.464509	0.499947
C41	C	0.514517	-0.250547	-0.000034
C42	C	1.014517	0.249453	0.499966
C43	C	0.608666	-0.252107	-0.000030
C44	C	1.108666	0.247893	0.499970
C45	C	0.661342	-0.181458	-0.000038
C46	C	1.161342	0.318542	0.499962
C47	C	0.619867	-0.109251	-0.000044
C48	C	1.119867	0.390749	0.499956
C49	C	0.672540	-0.038603	-0.000045
C50	C	1.172540	0.461397	0.499955
C51	C	0.631067	0.033606	-0.000057
C52	C	1.131067	0.533606	0.499943
C53	C	0.536920	0.035158	-0.000061
C54	C	1.036920	0.535158	0.499939
C55	C	0.755489	-0.183011	-0.000034
C56	C	1.255489	0.316989	0.499966
C57	C	0.766693	-0.040158	-0.000040
C58	C	1.266693	0.459842	0.499960
C59	C	1.237218	-0.102927	-0.000057
C60	C	1.737218	0.397073	0.499943
C61	C	1.337419	-0.104583	-0.000057
C62	C	1.837419	0.395417	0.499943
C63	C	1.076537	-0.251833	-0.000042
C64	C	1.576537	0.248167	0.499958
C65	C	1.084587	-0.338886	-0.000037
C66	C	1.584587	0.161114	0.499963
C67	C	1.138669	0.172096	-0.000061
C68	C	1.638669	0.672096	0.499939
C69	C	1.131099	0.253890	-0.000052
C70	C	1.631099	0.753890	0.499948
C71	C	1.045853	0.285527	-0.000045
C72	C	1.545853	0.785527	0.499955
C73	C	0.968172	0.235364	-0.000037
C74	C	1.468172	0.735364	0.499963
C75	C	0.975742	0.153571	-0.000039
C76	C	1.475742	0.653571	0.499961
C77	C	1.014476	0.529158	-0.000032
C78	C	1.514476	1.029158	0.499968
C79	C	1.006912	0.610958	-0.000032
C80	C	1.506912	1.110958	0.499968
C81	C	1.169840	0.629478	-0.000045
C82	C	1.669840	1.129478	0.499955
C83	C	1.177404	0.547683	-0.000053
C84	C	1.677404	1.047683	0.499947
C85	C	1.099722	0.497527	-0.000041
C86	C	1.599722	0.997527	0.499959
N87	N	1.038114	0.369134	-0.000039
N88	N	1.538114	0.869134	0.499961
N89	N	1.107462	0.413921	-0.000041
N90	N	1.607462	0.913921	0.499959
N91	N	1.083913	-0.098192	-0.216388
N92	N	1.583913	0.401808	0.283612
C93	C	1.117004	-0.067682	0.259976
C94	C	1.617004	0.432318	0.759976
C95	C	1.112514	-0.071827	0.347383
C96	C	1.612514	0.428173	0.847383
C97	C	1.052690	-0.127034	0.391101
C98	C	1.552690	0.372966	0.891101
C99	C	0.997359	-0.178104	0.347407
C100	C	1.497359	0.321896	0.847407
C101	C	1.001854	-0.173963	0.260001
C102	C	1.501854	0.326037	0.760001
C103	C	1.033077	-0.145121	0.652513
C104	C	1.533077	0.354879	1.152513
C105	C	1.028584	-0.149258	0.739924
C106	C	1.528584	0.350742	1.239924
C107	C	1.143741	-0.042981	0.739895
C108	C	1.643741	0.457019	1.239895
C109	C	1.148227	-0.038841	0.652488
C110	C	1.648227	0.461159	1.152488
C111	C	1.092899	-0.089914	0.608801
C112	C	1.592899	0.410086	1.108801
N113	N	1.048097	-0.131270	0.480445
N114	N	1.548097	0.368730	0.980445
N115	N	1.097497	-0.085681	0.519458
N116	N	1.597497	0.414319	1.019458
H117	H	0.809574	0.017373	-0.000045
H118	H	1.309574	0.517373	0.499955
H119	H	0.642425	-0.310904	-0.000021
H120	H	1.142425	0.189096	0.499979
H121	H	0.948651	-0.223059	0.383006
H122	H	1.448651	0.276941	0.883006
H123	H	0.673966	0.091127	-0.000053
H124	H	1.173966	0.591127	0.499947
Br125	Br	0.891213	0.653894	-0.000030
Br126	Br	1.391213	1.153894	0.499970
Br127	Br	1.236522	0.321957	-0.000059
Br128	Br	1.736522	0.821957	0.499941
H129	H	1.196941	0.006113	0.616895
H130	H	1.696941	0.506113	1.116895
Br131	Br	0.480630	0.133146	-0.000074
Br132	Br	0.980630	0.633146	0.499926
H133	H	0.336005	-0.234304	-0.000041
H134	H	0.836005	0.265696	0.499959
H135	H	1.165716	-0.022724	0.224387
H136	H	1.665716	0.477276	0.724387
H137	H	1.188788	-0.001400	0.775473
H138	H	1.688788	0.498600	1.275473
H139	H	0.979864	-0.194216	0.775515
H140	H	1.479864	0.305784	1.275515
Br141	Br	0.333812	0.064058	-0.000082
Br142	Br	0.833812	0.564058	0.499918
Br143	Br	0.909050	0.461100	-0.000010
Br144	Br	1.409050	0.961100	0.499990
H145	H	0.471623	-0.308065	-0.000024
H146	H	0.971623	0.191935	0.499976
H147	H	1.233084	0.670323	-0.000054
H148	H	1.733084	1.170323	0.499946
H149	H	0.988025	-0.186706	0.616950
H150	H	1.488025	0.313294	1.116950
H151	H	1.208086	0.146344	-0.000072
H152	H	1.708086	0.646344	0.499928
Br153	Br	0.852478	0.278299	-0.000013
Br154	Br	1.352478	0.778299	0.499987
Br155	Br	0.811771	-0.281000	-0.000008
Br156	Br	1.311771	0.219000	0.499992
H157	H	0.956800	-0.215546	0.224431
H158	H	1.456800	0.284454	0.724431
H159	H	0.912490	0.112734	-0.000035
H160	H	1.412490	0.612734	0.499965
Br161	Br	1.293098	0.504751	-0.000036
Br162	Br	1.793098	1.004751	0.499964
H163	H	1.157568	-0.030246	0.382954
H164	H	1.657568	0.469754	0.882954
