data_functionalizedCrystal
_audit_creation_method	'MofGen! by Chris Wilmer'
_symmetry_space_group_name_H-M	'P1'
_symmetry_Int_Tables_number	1
_symmetry_cell_setting	triclinic
loop_
_symmetry_equiv_pos_as_xyz
  x,y,z
_cell_length_a	13.635800
_cell_length_b	19.453103
_cell_length_c	19.453046
_cell_angle_alpha	83.679538
_cell_angle_beta	101.708137
_cell_angle_gamma	78.290822
loop_
_atom_site_label
_atom_site_type_symbol
_atom_site_fract_x
_atom_site_fract_y
_atom_site_fract_z
V1	V	1.998997	-0.097929	0.219330
O2	O	1.997548	0.003937	0.214819
O3	O	1.970507	-0.193438	0.218153
O4	O	1.970507	-0.096760	0.314840
O5	O	1.997548	-0.093410	0.117463
V6	V	2.241923	-0.085705	0.207107
O7	O	2.127073	-0.124744	0.246143
O8	O	2.338947	-0.058890	0.180294
O9	O	2.158810	0.009804	0.208284
O10	O	2.302071	-0.187571	0.211618
O11	O	2.302071	-0.090224	0.308974
O12	O	2.158810	-0.086874	0.111597
V13	V	2.498997	-0.097929	0.219330
O14	O	2.497548	0.003937	0.214819
O15	O	2.470507	-0.193438	0.218153
O16	O	2.470507	-0.096760	0.314840
O17	O	2.497548	-0.093410	0.117463
V18	V	2.741923	-0.085705	0.207107
O19	O	2.627073	-0.124744	0.246143
O20	O	2.838947	-0.058890	0.180294
O21	O	2.658810	0.009804	0.208284
O22	O	2.802071	-0.187571	0.211618
O23	O	2.802071	-0.090224	0.308974
O24	O	2.658810	-0.086874	0.111597
C25	C	1.892103	-0.216710	0.214777
C26	C	1.909423	-0.294792	0.214451
C27	C	2.008290	-0.335059	0.217810
C28	C	2.024566	-0.408427	0.217512
C29	C	1.941967	-0.441522	0.213839
C30	C	1.843088	-0.401246	0.210483
C31	C	1.826816	-0.327881	0.210789
N32	N	1.889528	-0.547639	0.170553
N33	N	1.904991	-0.617332	0.170261
C34	C	1.990988	-0.662566	0.212918
N35	N	2.060951	-0.635472	0.255870
N36	N	2.045488	-0.565772	0.256159
C37	C	1.959601	-0.521073	0.213507
C38	C	2.107510	-0.782386	0.215955
C39	C	2.123785	-0.855756	0.215660
C40	C	1.942301	-0.848573	0.208624
C41	C	1.926032	-0.775206	0.208926
C42	C	2.008639	-0.742117	0.212588
C43	C	1.892102	-0.093387	0.338110
C44	C	1.909422	-0.093063	0.416192
C45	C	2.068885	0.033073	0.211658
C46	C	2.041184	0.111154	0.211989
C47	C	2.068886	-0.090249	0.088324
C48	C	2.041186	-0.090570	0.010241
C49	C	2.392103	-0.216710	0.214777
C50	C	2.409423	-0.294792	0.214451
C51	C	2.049799	-0.155080	0.983815
C52	C	2.033519	-0.155390	0.910449
C53	C	2.008646	-0.091186	0.863512
C54	C	2.000027	-0.026666	0.889945
C55	C	2.016297	-0.026358	0.963310
N56	N	2.027298	-0.045960	0.742934
N57	N	2.011845	-0.046257	0.673242
C58	C	1.959622	-0.092110	0.642469
N59	N	1.923451	-0.137666	0.684023
N60	N	1.938910	-0.137371	0.753722
C61	C	1.991001	-0.091513	0.783960
C62	C	1.950582	-0.156961	0.536492
C63	C	1.934295	-0.157268	0.463124
C64	C	1.900814	-0.028543	0.442621
C65	C	1.917091	-0.028237	0.515988
C66	C	1.941979	-0.092449	0.562919
C67	C	2.392102	-0.093387	0.338110
C68	C	2.409422	-0.093063	0.416192
C69	C	2.568885	0.033073	0.211658
C70	C	2.541184	0.111154	0.211989
C71	C	2.568886	-0.090249	0.088324
C72	C	2.541186	-0.090570	0.010241
C73	C	2.508301	-0.335054	0.217819
C74	C	2.524593	-0.408422	0.217524
C75	C	2.442004	-0.441527	0.213855
C76	C	2.343118	-0.401260	0.210489
C77	C	2.326829	-0.327894	0.210789
C78	C	2.508297	-0.096425	0.456452
C79	C	2.524583	-0.096112	0.529817
C80	C	2.441992	-0.092441	0.562922
C81	C	2.343108	-0.089076	0.522656
C82	C	2.326822	-0.089385	0.449291
C83	C	2.614799	0.151415	0.208622
C84	C	2.588779	0.224783	0.208921
C85	C	2.489146	0.257887	0.212591
C86	C	2.415524	0.217621	0.215956
C87	C	2.441543	0.144256	0.215652
C88	C	2.441546	-0.094232	-0.022846
C89	C	2.415501	-0.094525	-0.096214
C90	C	2.489101	-0.091160	-0.136493
C91	C	2.588749	-0.087495	-0.103402
C92	C	2.614789	-0.087197	-0.030036
H93	H	2.075558	-0.308123	0.220797
H94	H	2.695929	-0.084219	-0.003102
H95	H	2.246309	-0.295118	0.208042
N96	N	2.366337	-0.097654	0.018276
N97	N	2.277371	-0.100907	-0.011289
H98	H	2.224243	-0.103314	0.017747
H99	H	2.575561	-0.308109	0.220803
N100	N	2.313721	-0.098274	-0.130018
N101	N	2.259386	-0.049461	-0.178076
H102	H	2.187506	-0.052110	-0.201950
H103	H	2.381593	0.111479	0.218400
N104	N	2.663938	-0.084066	-0.144539
N105	N	2.752906	-0.080799	-0.114997
H106	H	2.806010	-0.078380	-0.144050
N107	N	2.458619	-0.092131	0.637863
N108	N	2.384876	-0.088854	0.667419
H109	H	2.396623	-0.088634	0.720347
N110	N	1.975973	-0.222546	0.584435
N111	N	1.918622	-0.234014	0.624885
H112	H	1.936552	-0.280334	0.658744
H113	H	1.941305	-0.209802	0.441611
N114	N	2.258760	-0.085325	0.556488
N115	N	2.273329	-0.085054	0.621993
H116	H	2.213761	-0.082408	0.645891
H117	H	2.467887	-0.091412	-0.196230
H118	H	2.105078	-0.441218	0.220247
H119	H	1.880551	0.023734	0.404405
N120	N	2.592682	-0.100174	0.422657
N121	N	2.680953	-0.103169	0.458623
H122	H	2.740556	-0.105813	0.434760
N123	N	1.908293	0.037666	0.542973
N124	N	1.886080	0.094988	0.501060
H125	H	1.879862	0.141536	0.520118
N126	N	2.224785	-0.896892	0.219107
N127	N	2.296667	-0.899025	0.271262
H128	H	2.368001	-0.928079	0.273697
H129	H	2.246306	-0.086649	0.416517
H130	H	2.605116	-0.441197	0.220264
H131	H	2.695931	0.124471	0.205634
N132	N	1.758726	-0.435061	0.206738
N133	N	1.773266	-0.500565	0.206465
H134	H	1.713684	-0.524447	0.203823
H135	H	2.455281	-0.501267	0.213611
H136	H	1.746306	-0.295096	0.208054
H137	H	2.275879	-0.428225	0.207502
N138	N	2.042058	-0.221236	0.883354
N139	N	1.984750	-0.261459	0.895607
H140	H	1.990688	-0.307944	0.876438
N141	N	2.462593	0.332830	0.212898
N142	N	2.528341	0.368764	0.209892
H143	H	2.509595	0.421693	0.210110
H144	H	1.979771	0.025609	0.851724
H145	H	2.334401	0.244586	0.218944
H146	H	2.174774	-0.755444	0.218935
H147	H	2.648739	0.257558	0.206182
H148	H	2.009285	0.026176	0.984824
H149	H	1.875048	-0.875519	0.205639
N150	N	1.825028	-0.734080	0.205479
N151	N	1.753150	-0.731947	0.153322
H152	H	1.681811	-0.702903	0.150889
H153	H	2.605106	-0.098854	0.562592
H154	H	2.070062	-0.207367	1.022023
