data_functionalizedCrystal
_audit_creation_method	'MofGen! by Chris Wilmer'
_symmetry_space_group_name_H-M	'P1'
_symmetry_Int_Tables_number	1
_symmetry_cell_setting	triclinic
loop_
_symmetry_equiv_pos_as_xyz
  x,y,z
_cell_length_a	15.995350
_cell_length_b	15.995350
_cell_length_c	14.472310
_cell_angle_alpha	89.998838
_cell_angle_beta	89.990621
_cell_angle_gamma	96.507625
loop_
_atom_site_label
_atom_site_type_symbol
_atom_site_fract_x
_atom_site_fract_y
_atom_site_fract_z
O1	O	1.110997	-0.107921	-0.076758
O2	O	1.360997	0.142079	0.173242
O3	O	1.610997	0.392079	0.423242
O4	O	1.860997	0.642079	0.673242
O5	O	0.867221	-0.121248	-0.076776
O6	O	1.117221	0.128752	0.173224
O7	O	1.367221	0.378752	0.423224
O8	O	1.617221	0.628752	0.673224
O9	O	0.995773	0.007303	-0.076766
O10	O	1.245773	0.257303	0.173234
O11	O	1.495773	0.507303	0.423234
O12	O	1.745773	0.757303	0.673234
O13	O	0.982445	-0.236472	-0.076769
O14	O	1.232445	0.013528	0.173231
O15	O	1.482445	0.263528	0.423231
O16	O	1.732445	0.513528	0.673231
O17	O	0.995740	0.007296	0.076916
O18	O	1.245740	0.257296	0.326916
O19	O	1.495740	0.507296	0.576916
O20	O	1.745740	0.757296	0.826916
O21	O	0.867188	-0.121256	0.076906
O22	O	1.117188	0.128744	0.326906
O23	O	1.367188	0.378744	0.576906
O24	O	1.617188	0.628744	0.826906
O25	O	1.110963	-0.107928	0.076924
O26	O	1.360963	0.142072	0.326924
O27	O	1.610963	0.392072	0.576924
O28	O	1.860963	0.642072	0.826924
Cu29	Cu	0.989073	-0.114593	0.090947
Cu30	Cu	1.239073	0.135407	0.340947
Cu31	Cu	1.489073	0.385407	0.590947
Cu32	Cu	1.739073	0.635407	0.840947
Cu33	Cu	0.989112	-0.114584	-0.090800
Cu34	Cu	1.239112	0.135416	0.159200
Cu35	Cu	1.489112	0.385416	0.409200
Cu36	Cu	1.739112	0.635416	0.659200
O37	O	0.982412	-0.236480	0.076913
O38	O	1.232412	0.013520	0.326913
O39	O	1.482412	0.263520	0.576913
O40	O	1.732412	0.513520	0.826913
C41	C	0.836010	-0.120701	0.000062
C42	C	1.086010	0.129299	0.250062
C43	C	1.336010	0.379299	0.500062
C44	C	1.586010	0.629299	0.750062
C45	C	0.743060	-0.119049	0.000055
C46	C	0.993060	0.130951	0.250055
C47	C	1.243060	0.380951	0.500055
C48	C	1.493060	0.630951	0.750055
C49	C	0.405312	-0.113117	0.000074
C50	C	0.655312	0.136883	0.250074
C51	C	0.905312	0.386883	0.500074
C52	C	1.155312	0.636883	0.750074
C53	C	0.452746	-0.021565	0.000418
C54	C	0.702746	0.228435	0.250418
C55	C	0.952746	0.478435	0.500418
C56	C	1.202746	0.728435	0.750418
C57	C	0.549436	-0.023217	0.000065
C58	C	0.799436	0.226783	0.250065
C59	C	1.049436	0.476783	0.500065
C60	C	1.299436	0.726783	0.750065
C61	C	0.572873	-0.116060	0.000065
C62	C	0.822873	0.133940	0.250065
C63	C	1.072873	0.383940	0.500065
C64	C	1.322873	0.633940	0.750065
C65	C	0.531804	-0.161212	-0.087692
C66	C	0.781804	0.088788	0.162308
C67	C	1.031804	0.338788	0.412308
C68	C	1.281804	0.588788	0.662308
C69	C	0.435169	-0.158912	-0.087759
C70	C	0.685169	0.091088	0.162241
C71	C	0.935169	0.341088	0.412241
C72	C	1.185169	0.591088	0.662241
C73	C	0.434792	-0.160812	0.087007
C74	C	0.684792	0.089188	0.337007
C75	C	0.934792	0.339188	0.587007
C76	C	1.184792	0.589188	0.837007
C77	C	0.531737	-0.160790	0.088160
C78	C	0.781737	0.089210	0.338160
C79	C	1.031737	0.339210	0.588160
C80	C	1.281737	0.589210	0.838160
C81	C	0.667570	-0.117727	0.000057
C82	C	0.917570	0.132273	0.250057
C83	C	1.167570	0.382273	0.500057
C84	C	1.417570	0.632273	0.750057
C85	C	0.310614	-0.111452	0.000076
C86	C	0.560614	0.138548	0.250076
C87	C	0.810614	0.388548	0.500076
C88	C	1.060614	0.638548	0.750076
C89	C	0.995205	0.038494	0.000073
C90	C	1.245205	0.288494	0.250073
C91	C	1.495205	0.538494	0.500073
C92	C	1.745205	0.788494	0.750073
C93	C	0.993553	0.131444	0.000068
C94	C	1.243553	0.381444	0.250068
C95	C	1.493553	0.631444	0.500068
C96	C	1.743553	0.881444	0.750068
C97	C	1.142175	-0.108476	0.000083
C98	C	1.392175	0.141524	0.250083
C99	C	1.642175	0.391524	0.500083
C100	C	1.892175	0.641524	0.750083
C101	C	1.235125	-0.110127	0.000084
C102	C	1.485125	0.139873	0.250084
C103	C	1.735125	0.389873	0.500084
C104	C	1.985125	0.639873	0.750084
C105	C	0.982980	-0.267671	0.000072
C106	C	1.232980	-0.017671	0.250072
C107	C	1.482980	0.232329	0.500072
C108	C	1.732980	0.482329	0.750072
C109	C	0.984631	-0.360621	0.000071
C110	C	1.234631	-0.110621	0.250071
C111	C	1.484631	0.139379	0.500071
C112	C	1.734631	0.389379	0.750071
N113	N	0.989051	-0.114598	0.218778
N114	N	1.239051	0.135402	0.468778
N115	N	1.489051	0.385402	0.718778
N116	N	1.739051	0.635402	0.968778
C117	C	0.987621	0.469192	0.000071
C118	C	1.237621	0.719192	0.250071
C119	C	1.487621	0.969192	0.500071
C120	C	1.737621	1.219192	0.750071
C121	C	0.896069	0.421758	-0.000281
C122	C	1.146069	0.671758	0.249719
C123	C	1.396069	0.921758	0.499719
C124	C	1.646069	1.171758	0.749719
C125	C	0.897721	0.325068	0.000066
C126	C	1.147721	0.575068	0.250066
C127	C	1.397721	0.825068	0.500066
C128	C	1.647721	1.075068	0.750066
C129	C	0.990564	0.301631	0.000069
C130	C	1.240564	0.551631	0.250069
C131	C	1.490564	0.801631	0.500069
C132	C	1.740564	1.051631	0.750069
C133	C	1.035701	0.342705	0.087831
C134	C	1.285701	0.592705	0.337831
C135	C	1.535701	0.842705	0.587831
C136	C	1.785701	1.092705	0.837831
C137	C	1.033401	0.439340	0.087904
C138	C	1.283401	0.689340	0.337904
C139	C	1.533401	0.939340	0.587904
C140	C	1.783401	1.189340	0.837904
C141	C	1.035330	0.439707	-0.086861
C142	C	1.285330	0.689707	0.163139
C143	C	1.535330	0.939707	0.413139
C144	C	1.785330	1.189707	0.663139
C145	C	1.035309	0.342762	-0.088021
C146	C	1.285309	0.592762	0.161979
C147	C	1.535309	0.842762	0.411979
C148	C	1.785309	1.092762	0.661979
C149	C	0.992231	0.206934	0.000071
C150	C	1.242231	0.456934	0.250071
C151	C	1.492231	0.706934	0.500071
C152	C	1.742231	0.956934	0.750071
C153	C	0.985956	0.563890	0.000075
C154	C	1.235956	0.813890	0.250075
C155	C	1.485956	1.063890	0.500075
C156	C	1.735956	1.313890	0.750075
N157	N	0.989140	-0.114572	-0.218631
N158	N	1.239140	0.135428	0.031369
N159	N	1.489140	0.385428	0.281369
N160	N	1.739140	0.635428	0.531369
C161	C	0.989111	-0.114581	0.592869
C162	C	1.239111	0.135419	0.842869
C163	C	1.489111	0.385419	1.092869
C164	C	1.739111	0.635419	1.342869
C165	C	0.920095	-0.183135	0.553698
C166	C	1.170095	0.066865	0.803698
C167	C	1.420095	0.316865	1.053698
C168	C	1.670095	0.566865	1.303698
C169	C	0.920254	-0.183385	0.446610
C170	C	1.170254	0.066615	0.696610
C171	C	1.420254	0.316615	0.946610
C172	C	1.670254	0.566615	1.196610
C173	C	0.989081	-0.114590	0.407278
C174	C	1.239081	0.135410	0.657278
C175	C	1.489081	0.385410	0.907278
C176	C	1.739081	0.635410	1.157278
C177	C	1.076445	-0.133671	0.446122
C178	C	1.326445	0.116329	0.696122
C179	C	1.576445	0.366329	0.946122
C180	C	1.826445	0.616329	1.196122
C181	C	1.076057	-0.134159	0.553243
C182	C	1.326057	0.115841	0.803243
C183	C	1.576057	0.365841	1.053243
C184	C	1.826057	0.615841	1.303243
C185	C	0.971542	-0.026741	0.553398
C186	C	1.221542	0.223259	0.803398
C187	C	1.471542	0.473259	1.053398
C188	C	1.721542	0.723259	1.303398
C189	C	0.969538	-0.027327	0.446270
C190	C	1.219538	0.222673	0.696270
C191	C	1.469538	0.472673	0.946270
C192	C	1.719538	0.722673	1.196270
C193	C	0.989069	-0.114593	0.302390
C194	C	1.239069	0.135407	0.552390
C195	C	1.489069	0.385407	0.802390
C196	C	1.739069	0.635407	1.052390
C197	C	0.989128	-0.114579	0.697757
C198	C	1.239128	0.135421	0.947757
C199	C	1.489128	0.385421	1.197757
C200	C	1.739128	0.635421	1.447757
H201	H	0.433166	0.014865	-0.062168
H202	H	0.683166	0.264865	0.187832
H203	H	0.933166	0.514865	0.437832
H204	H	1.183166	0.764865	0.687832
H205	H	1.005412	0.460250	-0.153379
H206	H	1.255412	0.710250	0.096621
H207	H	1.505412	0.960250	0.346621
H208	H	1.755412	1.210250	0.596621
H209	H	0.402921	-0.226128	-0.091741
H210	H	0.652921	0.023872	0.158259
H211	H	0.902921	0.273872	0.408259
H212	H	1.152921	0.523872	0.658259
H213	H	0.577308	0.012521	-0.062951
H214	H	0.827308	0.262521	0.187049
H215	H	1.077308	0.512521	0.437049
H216	H	1.327308	0.762521	0.687049
H217	H	1.002307	0.315516	-0.152945
H218	H	1.252307	0.565516	0.097055
H219	H	1.502307	0.815516	0.347055
H220	H	1.752307	1.065516	0.597055
H221	H	1.100617	0.471588	0.091888
H222	H	1.350617	0.721588	0.341888
H223	H	1.600617	0.971588	0.591888
H224	H	1.850617	1.221588	0.841888
H225	H	0.931159	-0.247952	0.580608
H226	H	1.181159	0.002048	0.830608
H227	H	1.431159	0.252048	1.080608
H228	H	1.681159	0.502048	1.330608
H229	H	0.861973	0.297200	0.063079
H230	H	1.111973	0.547200	0.313079
H231	H	1.361973	0.797200	0.563079
H232	H	1.611973	1.047200	0.813079
H233	H	0.931473	-0.248569	0.420976
H234	H	1.181473	0.001431	0.670976
H235	H	1.431473	0.251431	0.920976
H236	H	1.681473	0.501431	1.170976
H237	H	1.102831	0.471468	-0.087449
H238	H	1.352831	0.721468	0.162551
H239	H	1.602831	0.971468	0.412551
H240	H	1.852831	1.221468	0.662551
H241	H	1.129018	-0.086196	0.579154
H242	H	1.379018	0.163804	0.829154
H243	H	1.629018	0.413804	1.079154
H244	H	1.879018	0.663804	1.329154
H245	H	0.545930	-0.229421	-0.090955
H246	H	0.795930	0.020579	0.159045
H247	H	1.045930	0.270579	0.409045
H248	H	1.295930	0.520579	0.659045
H249	H	0.905272	-0.012845	0.420883
H250	H	1.155272	0.237155	0.670883
H251	H	1.405272	0.487155	0.920883
H252	H	1.655272	0.737155	1.170883
H253	H	1.016541	0.026079	0.419500
H254	H	1.266541	0.276079	0.669500
H255	H	1.516541	0.526079	0.919500
H256	H	1.766541	0.776079	1.169500
H257	H	0.416874	-0.125979	-0.153359
H258	H	0.666874	0.124021	0.096641
H259	H	0.916874	0.374021	0.346641
H260	H	1.166874	0.624021	0.596641
H261	H	0.547101	-0.228494	0.093461
H262	H	0.797101	0.021506	0.343461
H263	H	1.047101	0.271506	0.593461
H264	H	1.297101	0.521506	0.843461
H265	H	0.577852	0.012275	0.062973
H266	H	0.827852	0.262275	0.312973
H267	H	1.077852	0.512275	0.562973
H268	H	1.327852	0.762275	0.812973
H269	H	1.103014	0.327400	-0.093317
H270	H	1.353014	0.577400	0.156683
H271	H	1.603014	0.827400	0.406683
H272	H	1.853014	1.077400	0.656683
H273	H	0.560193	-0.129845	-0.153002
H274	H	0.810193	0.120155	0.096998
H275	H	1.060193	0.370155	0.346998
H276	H	1.310193	0.620155	0.596998
H277	H	0.434210	0.015027	0.063352
H278	H	0.684210	0.265027	0.313352
H279	H	0.934210	0.515027	0.563352
H280	H	1.184210	0.765027	0.813352
H281	H	1.091540	-0.198219	0.578220
H282	H	1.341540	0.051781	0.828220
H283	H	1.591540	0.301781	1.078220
H284	H	1.841540	0.551781	1.328220
H285	H	1.129029	-0.085068	0.420643
H286	H	1.379029	0.164932	0.670643
H287	H	1.629029	0.414932	0.920643
H288	H	1.879029	0.664932	1.170643
H289	H	0.414242	-0.130885	0.153524
H290	H	0.664242	0.119115	0.403524
H291	H	0.914242	0.369115	0.653524
H292	H	1.164242	0.619115	0.903524
H293	H	0.559040	-0.127830	0.153082
H294	H	0.809040	0.122170	0.403082
H295	H	1.059040	0.372170	0.653082
H296	H	1.309040	0.622170	0.903082
H297	H	0.403031	-0.228313	0.087600
H298	H	0.653031	0.021687	0.337600
H299	H	0.903031	0.271687	0.587600
H300	H	1.153031	0.521687	0.837600
H301	H	0.859490	0.440293	-0.063217
H302	H	1.109490	0.690293	0.186783
H303	H	1.359490	0.940293	0.436783
H304	H	1.609490	1.190293	0.686783
H305	H	0.855314	-0.172016	0.420349
H306	H	1.105314	0.077984	0.670349
H307	H	1.355314	0.327984	0.920349
H308	H	1.605314	0.577984	1.170349
H309	H	0.909219	-0.008392	0.580461
H310	H	1.159219	0.241608	0.830461
H311	H	1.409219	0.491608	1.080461
H312	H	1.659219	0.741608	1.330461
H313	H	0.862239	0.296649	-0.062846
H314	H	1.112239	0.546649	0.187154
H315	H	1.362239	0.796649	0.437154
H316	H	1.612239	1.046649	0.687154
H317	H	1.021872	0.024275	0.578728
H318	H	1.271872	0.274275	0.828728
H319	H	1.521872	0.524275	1.078728
H320	H	1.771872	0.774275	1.328728
H321	H	1.004324	0.314320	0.153137
H322	H	1.254324	0.564320	0.403137
H323	H	1.504324	0.814320	0.653137
H324	H	1.754324	1.064320	0.903137
H325	H	1.092297	-0.197002	0.419285
H326	H	1.342297	0.052998	0.669285
H327	H	1.592297	0.302998	0.919285
H328	H	1.842297	0.552998	1.169285
H329	H	0.854945	-0.171953	0.579481
H330	H	1.104945	0.078047	0.829481
H331	H	1.354945	0.328047	1.079481
H332	H	1.604945	0.578047	1.329481
H333	H	0.859626	0.441349	0.062299
H334	H	1.109626	0.691349	0.312299
H335	H	1.359626	0.941349	0.562299
H336	H	1.609626	1.191349	0.812299
H337	H	1.000459	0.457639	0.153505
H338	H	1.250459	0.707639	0.403505
H339	H	1.500459	0.957639	0.653505
H340	H	1.750459	1.207639	0.903505
H341	H	1.103909	0.328579	0.091097
H342	H	1.353909	0.578579	0.341097
H343	H	1.603909	0.828579	0.591097
H344	H	1.853909	1.078579	0.841097
