data_functionalizedCrystal
_audit_creation_method	'MofGen! by Chris Wilmer'
_symmetry_space_group_name_H-M	'P1'
_symmetry_Int_Tables_number	1
_symmetry_cell_setting	triclinic
loop_
_symmetry_equiv_pos_as_xyz
  x,y,z
_cell_length_a	15.297475
_cell_length_b	10.686203
_cell_length_c	10.685314
_cell_angle_alpha	89.693711
_cell_angle_beta	85.385255
_cell_angle_gamma	104.723559
loop_
_atom_site_label
_atom_site_type_symbol
_atom_site_fract_x
_atom_site_fract_y
_atom_site_fract_z
Zn1	Zn	1.375818	0.910575	-0.976282
Zn2	Zn	1.398792	1.110276	-0.755562
Zn3	Zn	1.235268	0.858111	-0.735350
Zn4	Zn	1.237040	1.084289	-0.929400
O5	O	1.311730	0.990813	-0.849148
O6	O	1.505380	0.969897	-0.975082
O7	O	1.385974	1.065745	-0.579298
O8	O	1.243556	0.686838	-0.778472
O9	O	1.522260	1.116617	-0.812920
O10	O	1.346818	0.725383	-0.955483
O11	O	1.265833	0.880480	-0.564449
O12	O	1.108988	0.855282	-0.733012
O13	O	1.246576	1.072326	-1.109201
O14	O	1.110290	1.021454	-0.875580
O15	O	1.348536	0.944699	-1.143645
O16	O	1.387692	1.285060	-0.767460
O17	O	1.268853	1.265968	-0.895178
C18	C	1.076836	0.929856	-0.797016
C19	C	0.976347	0.903811	-0.774741
C20	C	1.330981	1.321736	-0.828458
C21	C	1.339297	1.463330	-0.819666
C22	C	1.295191	1.011466	-1.172690
C23	C	1.288143	1.020267	-1.310564
C24	C	0.695954	1.176968	-1.008354
C25	C	0.790368	1.201448	-1.029278
C26	C	0.836868	1.127041	-0.965646
C27	C	0.788943	1.028150	-0.881085
C28	C	0.694520	1.003675	-0.860151
C29	C	0.835434	0.953747	-0.817444
C30	C	0.787509	0.854856	-0.732883
C31	C	0.693095	0.830385	-0.711954
C32	C	0.646596	0.904792	-0.775586
C33	C	0.929857	0.978222	-0.838378
C34	C	0.928423	0.804929	-0.690175
C35	C	0.834009	0.780449	-0.669251
C36	C	1.547541	1.052008	-0.901485
C37	C	1.648030	1.078086	-0.923788
C38	C	1.292417	1.658604	-0.869964
C39	C	1.284163	1.517032	-0.878862
C40	C	1.328251	0.970161	-0.526883
C41	C	1.335453	0.961046	-0.389071
H42	H	0.968868	1.058740	-0.907229
Br43	Br	0.965004	1.160263	-0.994046
Br44	Br	1.428571	1.567243	-0.723952
Br45	Br	1.211643	1.116000	-1.374334
H46	H	1.381342	0.903593	-1.350800
H47	H	1.230598	1.454686	-0.936271
H48	H	0.829382	1.281968	-1.098124
H49	H	0.569716	0.884864	-0.758556
Br50	Br	0.628058	0.696189	-0.597178
Br51	Br	0.768958	0.646241	-0.554497
Br52	Br	0.632848	1.277969	-1.094666
Br53	Br	0.991522	0.703950	-0.603802
