data_functionalizedCrystal
_audit_creation_method	'MofGen! by Chris Wilmer'
_symmetry_space_group_name_H-M	'P1'
_symmetry_Int_Tables_number	1
_symmetry_cell_setting	triclinic
loop_
_symmetry_equiv_pos_as_xyz
  x,y,z
_cell_length_a	12.594517
_cell_length_b	12.594516
_cell_length_c	12.594509
_cell_angle_alpha	89.973801
_cell_angle_beta	89.978673
_cell_angle_gamma	90.015853
loop_
_atom_site_label
_atom_site_type_symbol
_atom_site_fract_x
_atom_site_fract_y
_atom_site_fract_z
Zn1	Zn	1.627267	-0.423716	-0.601875
Zn2	Zn	1.960600	-0.090382	-0.268542
Zn3	Zn	2.293934	0.242951	0.064792
Zn4	Zn	1.627158	-0.601726	-0.423903
Zn5	Zn	1.960491	-0.268393	-0.090570
Zn6	Zn	2.293824	0.064941	0.242764
Zn7	Zn	1.449271	-0.423761	-0.423904
Zn8	Zn	1.782604	-0.090428	-0.090571
Zn9	Zn	2.115938	0.242905	0.242763
Zn10	Zn	1.449253	-0.601652	-0.601833
Zn11	Zn	1.782586	-0.268319	-0.268500
Zn12	Zn	2.115920	0.065015	0.064834
O13	O	1.538237	-0.512714	-0.512879
O14	O	1.871570	-0.179380	-0.179545
O15	O	2.204904	0.153953	0.153788
O16	O	1.776198	-0.447341	-0.578284
O17	O	2.109532	-0.114008	-0.244951
O18	O	2.442865	0.219326	0.088383
O19	O	1.603522	-0.578169	-0.274957
O20	O	1.936856	-0.244835	0.058376
O21	O	2.270189	0.088498	0.391710
O22	O	1.472936	-0.274809	-0.447530
O23	O	1.806269	0.058524	-0.114197
O24	O	2.139602	0.391857	0.219136
O25	O	1.776118	-0.578124	-0.447528
O26	O	2.109451	-0.244791	-0.114195
O27	O	2.442785	0.088542	0.219138
O28	O	1.603709	-0.274776	-0.578285
O29	O	1.937042	0.058557	-0.244952
O30	O	2.270375	0.391891	0.088382
O31	O	1.472830	-0.447419	-0.274958
O32	O	1.806163	-0.114085	0.058375
O33	O	2.139496	0.219248	0.391709
O34	O	1.300323	-0.447347	-0.447489
O35	O	1.633656	-0.114014	-0.114156
O36	O	1.966989	0.219320	0.219177
O37	O	1.472905	-0.577998	-0.750784
O38	O	1.806239	-0.244665	-0.417451
O39	O	2.139572	0.088668	-0.084118
O40	O	1.300310	-0.578042	-0.578213
O41	O	1.633643	-0.244709	-0.244880
O42	O	1.966976	0.088624	0.088454
O43	O	1.603691	-0.447269	-0.750815
O44	O	1.937025	-0.113936	-0.417482
O45	O	2.270358	0.219397	-0.084149
O46	O	1.603505	-0.750662	-0.447488
O47	O	1.936839	-0.417329	-0.114154
O48	O	2.270172	-0.083995	0.219179
O49	O	1.472799	-0.750608	-0.578212
O50	O	1.806133	-0.417274	-0.244879
O51	O	2.139466	-0.083941	0.088455
C52	C	1.261696	-0.512692	-0.512847
C53	C	1.595030	-0.179359	-0.179514
C54	C	1.928363	0.153974	0.153819
C55	C	1.143391	-0.512709	-0.512859
C56	C	1.476724	-0.179376	-0.179526
C57	C	1.810057	0.153958	0.153807
C58	C	1.074114	-0.441526	-0.441894
C59	C	1.407447	-0.108193	-0.108561
C60	C	1.740781	0.225140	0.224773
C61	C	1.003303	-0.538615	-0.415718
C62	C	1.336636	-0.205282	-0.082384
C63	C	1.669970	0.128051	0.250949
C64	C	1.003403	-0.415668	-0.539054
C65	C	1.336736	-0.082334	-0.205721
C66	C	1.670069	0.250999	0.127613
C67	C	1.074138	-0.609849	-0.486632
C68	C	1.407471	-0.276515	-0.153298
C69	C	1.740805	0.056818	0.180035
C70	C	1.074244	-0.486836	-0.610013
C71	C	1.407577	-0.153502	-0.276680
C72	C	1.740911	0.179831	0.056653
C73	C	1.003465	-0.583991	-0.583874
C74	C	1.336798	-0.250658	-0.250540
C75	C	1.670132	0.082675	0.082793
C76	C	1.538167	-0.789255	-0.512868
C77	C	1.871501	-0.455921	-0.179535
C78	C	2.204834	-0.122588	0.153798
C79	C	1.538235	-0.907560	-0.512899
C80	C	1.871568	-0.574227	-0.179566
C81	C	2.204902	-0.240893	0.153767
C82	C	1.467137	-0.976822	-0.583950
C83	C	1.800470	-0.643489	-0.250617
C84	C	2.133804	-0.310156	0.082716
C85	C	1.441204	-1.047688	-0.486827
C86	C	1.774537	-0.714354	-0.153494
C87	C	2.107870	-0.381021	0.179839
C88	C	1.564265	-1.047494	-0.610039
C89	C	1.897599	-0.714160	-0.276706
C90	C	2.230932	-0.380827	0.056627
C91	C	1.512250	-0.976867	-0.415725
C92	C	1.845584	-0.643534	-0.082391
C93	C	2.178917	-0.310201	0.250942
C94	C	1.635357	-0.976667	-0.539002
C95	C	1.968690	-0.643334	-0.205669
C96	C	2.302024	-0.310000	0.127664
C97	C	1.609460	-1.047500	-0.441812
C98	C	1.942794	-0.714167	-0.108479
C99	C	2.276127	-0.380834	0.224855
C100	C	1.815858	-0.512736	-0.512911
C101	C	2.149191	-0.179403	-0.179577
C102	C	2.482525	0.153931	0.153756
C103	C	1.934163	-0.512745	-0.512924
C104	C	2.267497	-0.179412	-0.179591
C105	C	2.600830	0.153921	0.153742
C106	C	1.538308	-0.512620	-0.790500
C107	C	1.871642	-0.179287	-0.457166
C108	C	2.204975	0.154046	-0.123833
C109	C	1.538339	-0.512581	-0.908805
C110	C	1.871672	-0.179247	-0.575472
C111	C	2.205005	0.154086	-0.242139
C112	C	1.538336	-0.235093	-0.512912
C113	C	1.871670	0.098240	-0.179579
C114	C	2.205003	0.431574	0.153754
C115	C	1.538378	-0.116787	-0.512927
C116	C	1.871712	0.216546	-0.179594
C117	C	2.205045	0.549879	0.153740
C118	C	1.467227	-0.583644	-0.978042
C119	C	1.800560	-0.250311	-0.644708
C120	C	2.133893	0.083023	-0.311375
C121	C	1.564347	-0.609650	-1.048833
C122	C	1.897681	-0.276317	-0.715500
C123	C	2.231014	0.057016	-0.382166
C124	C	1.441294	-0.486510	-1.048813
C125	C	1.774627	-0.153177	-0.715480
C126	C	2.107961	0.180157	-0.382146
C127	C	1.635510	-0.538638	-0.978038
C128	C	1.968844	-0.205305	-0.644705
C129	C	2.302177	0.128028	-0.311372
C130	C	1.512391	-0.415453	-0.978012
C131	C	1.845725	-0.082119	-0.644679
C132	C	2.179058	0.251214	-0.311346
C133	C	1.609579	-0.441422	-1.048772
C134	C	1.942912	-0.108089	-0.715438
C135	C	2.276246	0.225244	-0.382105
C136	C	1.538227	-0.512730	-0.236338
C137	C	1.871561	-0.179396	0.096996
C138	C	2.204894	0.153937	0.430329
C139	C	1.538403	-0.512470	-0.118033
C140	C	1.871737	-0.179136	0.215301
C141	C	2.205070	0.154197	0.548634
H142	H	1.105135	-0.381389	-0.381807
H143	H	1.438468	-0.048055	-0.048474
H144	H	1.771801	0.285278	0.284859
H145	H	1.407136	-0.643833	-0.946986
H146	H	1.740470	-0.310500	-0.613653
H147	H	2.073803	0.022834	-0.280320
H148	H	1.717631	-0.560736	-0.947080
H149	H	2.050964	-0.227402	-0.613747
H150	H	2.384297	0.105931	-0.280413
H151	H	0.972276	-0.333597	-0.561146
H152	H	1.305609	-0.000263	-0.227812
H153	H	1.638943	0.333070	0.105521
H154	H	1.359136	-1.078906	-0.464772
H155	H	1.692470	-0.745573	-0.131438
H156	H	2.025803	-0.412240	0.201895
H157	H	1.717406	-0.945451	-0.561104
H158	H	2.050739	-0.612118	-0.227771
H159	H	2.384072	-0.278784	0.105562
H160	H	0.972639	-0.644273	-0.643914
H161	H	1.305973	-0.310940	-0.310581
H162	H	1.639306	0.022394	0.022752
H163	H	1.105429	-0.464899	-0.692122
H164	H	1.438762	-0.131566	-0.358789
H165	H	1.772095	0.201767	-0.025455
H166	H	0.972144	-0.560522	-0.333584
H167	H	1.305477	-0.227189	-0.000251
H168	H	1.638811	0.106145	0.333082
H169	H	1.490197	-0.945972	-0.333563
H170	H	1.823530	-0.612638	-0.000230
H171	H	2.156863	-0.279305	0.333103
H172	H	1.586329	-0.691742	-1.079941
H173	H	1.919662	-0.358409	-0.746607
H174	H	2.252995	-0.025075	-0.413274
H175	H	1.669647	-1.078338	-0.381669
H176	H	2.002980	-0.745005	-0.048336
H177	H	2.336314	-0.411672	0.284998
H178	H	1.669813	-0.381279	-1.079632
H179	H	2.003147	-0.047946	-0.746298
H180	H	2.336480	0.285388	-0.412965
H181	H	1.586224	-1.078518	-0.692178
H182	H	1.919557	-0.745184	-0.358845
H183	H	2.252891	-0.411851	-0.025511
H184	H	1.490382	-0.333385	-0.946881
H185	H	1.823715	-0.000052	-0.613548
H186	H	2.157048	0.333282	-0.280214
H187	H	1.359198	-0.464506	-1.079902
H188	H	1.692531	-0.131172	-0.746569
H189	H	2.025864	0.202161	-0.413236
H190	H	1.105080	-0.691955	-0.464413
H191	H	1.438413	-0.358621	-0.131079
H192	H	1.771746	-0.025288	0.202254
H193	H	1.406905	-0.945788	-0.643949
H194	H	1.740238	-0.612454	-0.310615
H195	H	2.073571	-0.279121	0.022718
