data_functionalizedCrystal
_audit_creation_method	'MofGen! by Chris Wilmer'
_symmetry_space_group_name_H-M	'P1'
_symmetry_Int_Tables_number	1
_symmetry_cell_setting	triclinic
loop_
_symmetry_equiv_pos_as_xyz
  x,y,z
_cell_length_a	12.594516
_cell_length_b	18.101398
_cell_length_c	12.594510
_cell_angle_alpha	89.972199
_cell_angle_beta	90.031906
_cell_angle_gamma	89.988680
loop_
_atom_site_label
_atom_site_type_symbol
_atom_site_fract_x
_atom_site_fract_y
_atom_site_fract_z
Zn1	Zn	-0.423784	-1.132224	0.602017
Zn2	Zn	0.076216	-0.632224	1.102017
Zn3	Zn	-0.601812	-1.132145	0.424045
Zn4	Zn	-0.101812	-0.632145	0.924045
Zn5	Zn	-0.423834	-1.008375	0.424031
Zn6	Zn	0.076166	-0.508375	0.924031
Zn7	Zn	-0.601707	-1.008366	0.601960
Zn8	Zn	-0.101707	-0.508366	1.101960
O9	O	-0.512784	-1.070278	0.513013
O10	O	-0.012784	-0.570278	1.013013
O11	O	-0.447424	-1.235846	0.578439
O12	O	0.052576	-0.735846	1.078439
O13	O	-0.578268	-1.115697	0.275097
O14	O	-0.078268	-0.615697	0.775097
O15	O	-0.274881	-1.024841	0.447659
O16	O	0.225119	-0.524841	0.947659
O17	O	-0.578220	-1.235788	0.447684
O18	O	-0.078220	-0.735788	0.947684
O19	O	-0.274845	-1.115832	0.578425
O20	O	0.225155	-0.615832	1.078425
O21	O	-0.447508	-1.024764	0.275087
O22	O	0.052492	-0.524764	0.775087
O23	O	-0.447405	-0.904741	0.447603
O24	O	0.052595	-0.404741	0.947603
O25	O	-0.578040	-1.024825	0.750913
O26	O	-0.078040	-0.524825	1.250913
O27	O	-0.578088	-0.904734	0.578327
O28	O	-0.078088	-0.404734	1.078327
O29	O	-0.447321	-1.115823	0.750956
O30	O	0.052679	-0.615823	1.250956
O31	O	-0.750744	-1.115688	0.447628
O32	O	-0.250744	-0.615688	0.947628
O33	O	-0.750666	-1.024749	0.578341
O34	O	-0.250666	-0.524749	1.078341
C35	C	-0.512741	-0.877867	0.512958
C36	C	-0.012741	-0.377867	1.012958
C37	C	-0.512748	-0.795553	0.512959
C38	C	-0.012748	-0.295553	1.012959
C39	C	-0.789325	-1.070229	0.513003
C40	C	-0.289325	-0.570229	1.013003
C41	C	-0.907631	-1.070276	0.513034
C42	C	-0.407631	-0.570276	1.013034
C43	C	-0.512663	-1.070332	0.790634
C44	C	-0.012663	-0.570332	1.290634
C45	C	-0.512612	-1.070355	0.908940
C46	C	-0.012612	-0.570355	1.408940
C47	C	-0.976880	-1.020809	0.584079
C48	C	-0.476880	-0.520809	1.084079
C49	C	-1.047753	-1.002764	0.486953
C50	C	-0.547753	-0.502764	0.986953
C51	C	-1.047557	-1.088389	0.610176
C52	C	-0.547557	-0.588389	1.110176
C53	C	-0.976945	-1.052195	0.415857
C54	C	-0.476945	-0.552195	0.915857
C55	C	-0.976743	-1.137852	0.539145
C56	C	-0.476743	-0.637852	1.039145
C57	C	-1.047584	-1.119832	0.441953
C58	C	-0.547584	-0.619832	0.941953
C59	C	-0.235163	-1.070346	0.513047
C60	C	0.264837	-0.570346	1.013047
C61	C	-0.116858	-1.070376	0.513061
C62	C	0.383142	-0.570376	1.013061
C63	C	-0.512828	-1.263439	0.513070
C64	C	-0.012828	-0.763439	1.013070
C65	C	-0.512847	-1.345754	0.513094
C66	C	-0.012847	-0.845754	1.013094
C67	C	-0.512815	-0.496462	0.513049
C68	C	-0.012815	0.003538	1.013049
C69	C	-0.430182	-0.527767	0.431202
C70	C	0.069818	-0.027767	0.931202
C71	C	-0.430403	-0.613385	0.430853
C72	C	0.069597	-0.113385	0.930853
C73	C	-0.512781	-0.644844	0.513004
C74	C	-0.012781	-0.144844	1.013004
C75	C	-0.624908	-0.613746	0.482367
C76	C	-0.124908	-0.113746	0.982367
C77	C	-0.624448	-0.528100	0.481798
C78	C	-0.124448	-0.028100	0.981798
C79	C	-0.484296	-0.528076	0.625725
C80	C	0.015704	-0.028076	1.125725
C81	C	-0.481799	-0.613726	0.625110
C82	C	0.018201	-0.113726	1.125110
C83	C	-0.512768	-0.728704	0.512981
C84	C	-0.012768	-0.228704	1.012981
C85	C	-0.512834	-0.412602	0.513069
C86	C	-0.012834	0.087398	1.013069
C87	C	-0.512828	-1.070266	0.236472
C88	C	-0.012828	-0.570266	0.736472
C89	C	-0.512580	-1.070386	0.118167
C90	C	-0.012580	-0.570386	0.618167
C91	C	-0.441493	-1.119867	1.048980
C92	C	0.058507	-0.619867	1.548980
C93	C	-0.538616	-1.137948	0.978165
C94	C	-0.038616	-0.637948	1.478165
C95	C	-0.415500	-1.052307	0.978183
C96	C	0.084500	-0.552307	1.478183
C97	C	-0.609753	-1.088503	1.048910
C98	C	-0.109753	-0.588503	1.548910
C99	C	-0.486572	-1.002830	1.048935
C100	C	0.013428	-0.502830	1.548935
C101	C	-0.583762	-1.020886	0.978152
C102	C	-0.083762	-0.520886	1.478152
H103	H	-0.945835	-0.978902	0.644072
H104	H	-0.445835	-0.478902	1.144072
H105	H	-1.078968	-0.945663	0.464891
H106	H	-0.578968	-0.445663	0.964891
H107	H	-0.464525	-0.945729	1.080047
H108	H	0.035475	-0.445729	1.580047
F109	F	-0.717112	-1.108561	1.089344
F110	F	-0.217112	-0.608561	1.589344
F111	F	-0.362997	-1.174616	1.089630
F112	F	0.137003	-0.674616	1.589630
F113	F	-0.554734	-0.641717	0.709090
F114	F	-0.054734	-0.141717	1.209090
H115	H	-0.946056	-1.036849	0.333694
H116	H	-0.446056	-0.536849	0.833694
F117	F	-0.373955	-0.640308	0.655316
F118	F	0.126045	-0.140308	1.155316
F119	F	-1.087906	-1.174568	0.363352
F120	F	-0.587906	-0.674568	0.863352
H121	H	-0.945531	-1.194940	0.561255
H122	H	-0.445531	-0.694940	1.061255
F123	F	-1.088103	-1.108360	0.717538
F124	F	-0.588103	-0.608360	1.217538
H125	H	-0.544482	-0.507833	0.686708
H126	H	-0.044482	-0.007833	1.186708
H127	H	-0.403955	-0.506491	0.653582
H128	H	0.096045	-0.006491	1.153582
H129	H	-0.560632	-1.195065	0.947075
H130	H	-0.060632	-0.695065	1.447075
H131	H	-0.347257	-0.634411	0.450055
H132	H	0.152743	-0.134411	0.950055
H133	H	-0.333388	-1.037029	0.947112
H134	H	0.166612	-0.537029	1.447112
F135	F	-0.707651	-0.501031	0.556313
F136	F	-0.207651	-0.001031	1.056313
H137	H	-0.346781	-0.507182	0.450193
H138	H	0.153219	-0.007182	0.950193
H139	H	-0.448823	-0.506217	0.348196
H140	H	0.051177	-0.006217	0.848196
H141	H	-0.648632	-0.508089	0.399427
H142	H	-0.148632	-0.008089	0.899427
F143	F	-0.455043	-0.640122	0.321721
F144	F	0.044957	-0.140122	0.821721
F145	F	-0.707540	-0.640373	0.557853
F146	F	-0.207540	-0.140373	1.057853
F147	F	-0.657067	-0.641735	0.375864
F148	F	-0.157067	-0.141735	0.875864
F149	F	-0.662443	-0.966173	0.937761
F150	F	-0.162443	-0.466173	1.437761
