data_functionalizedCrystal
_audit_creation_method	'MofGen! by Chris Wilmer'
_symmetry_space_group_name_H-M	'P1'
_symmetry_Int_Tables_number	1
_symmetry_cell_setting	triclinic
loop_
_symmetry_equiv_pos_as_xyz
  x,y,z
_cell_length_a	29.917948
_cell_length_b	29.917021
_cell_length_c	29.913391
_cell_angle_alpha	60.005297
_cell_angle_beta	60.010472
_cell_angle_gamma	59.993667
loop_
_atom_site_label
_atom_site_type_symbol
_atom_site_fract_x
_atom_site_fract_y
_atom_site_fract_z
O1	O	0.061938	-0.653075	0.546110
O2	O	0.023328	-0.508466	0.440017
O3	O	0.114898	-0.599963	0.439941
O4	O	-0.029633	-0.561578	0.546186
O5	O	0.145278	-0.569587	0.470242
O6	O	0.053708	-0.478090	0.470318
O7	O	0.092318	-0.622699	0.576411
Zn8	Zn	0.077836	-0.545572	0.528175
Zn9	Zn	0.037809	-0.585593	0.488253
O10	O	0.000747	-0.531202	0.576487
N11	N	0.105154	-0.518262	0.555424
N12	N	0.010496	-0.612908	0.461004
C13	C	0.164136	-0.309209	0.614352
C14	C	0.164251	-0.459335	0.764424
C15	C	0.164150	-0.459313	0.614341
C16	C	0.314282	-0.459305	0.614278
C17	C	0.180666	-0.358742	0.630849
C18	C	0.180732	-0.442815	0.714891
C19	C	0.264747	-0.442797	0.630809
C20	C	0.180676	-0.442802	0.630843
C21	C	0.143097	-0.246161	0.593354
C22	C	0.143120	-0.480326	0.593337
C23	C	0.201706	-0.421790	0.651848
C24	C	0.405963	-0.443499	0.565998
C25	C	0.463273	-0.462598	0.546874
C26	C	0.463297	-0.555329	0.582235
C27	C	0.405988	-0.536228	0.601360
C28	C	0.156905	-0.217495	0.537012
C29	C	0.137776	-0.160180	0.517926
C30	C	0.091035	-0.160201	0.611524
C31	C	0.110164	-0.217516	0.630611
C32	C	0.086772	-0.466488	0.607209
C33	C	0.067659	-0.485590	0.588108
C34	C	0.161236	-0.532368	0.541277
C35	C	0.180352	-0.513266	0.560371
C36	C	0.086942	-0.466529	0.856152
C37	C	0.067877	-0.485647	0.913465
C38	C	0.161489	-0.532436	0.913415
C39	C	0.180552	-0.513318	0.856101
C40	C	0.143277	-0.480363	0.827471
C41	C	0.377323	-0.480313	0.593239
C42	C	-0.111377	-0.650681	0.422736
C43	C	-0.027364	-0.650787	0.422929
C44	C	-0.048335	-0.671770	0.401835
C45	C	-0.064214	-0.763416	0.450041
C46	C	-0.045160	-0.820731	0.469172
C47	C	0.047573	-0.820841	0.433980
C48	C	0.028517	-0.763527	0.414847
C49	C	-0.140115	-0.664483	0.479060
C50	C	-0.197425	-0.645309	0.498058
C51	C	-0.197256	-0.598535	0.404405
C52	C	-0.139946	-0.617709	0.385407
C53	C	-0.041168	-0.594444	0.409067
C54	C	-0.022104	-0.575374	0.428250
C55	C	0.024568	-0.668986	0.475143
C56	C	0.005504	-0.688059	0.455967
C57	C	-0.041000	-0.594453	0.310105
C58	C	-0.021803	-0.575386	0.252792
C59	C	0.024951	-0.669004	0.252854
C60	C	0.005755	-0.688070	0.310168
C61	C	-0.027222	-0.650793	0.338792
C62	C	-0.027377	-0.734817	0.422881
N63	N	0.491125	-0.518235	0.555255
O64	O	0.678406	-0.527360	0.420422
O65	O	0.678588	-0.633782	0.564887
O66	O	0.678516	-0.633539	0.473265
O67	O	0.678478	-0.527602	0.512044
O68	O	0.587469	-0.603251	0.503685
O69	O	0.587541	-0.603493	0.595307
O70	O	0.587359	-0.497071	0.450842
Zn71	Zn	0.572994	-0.545473	0.527905
Zn72	Zn	0.692953	-0.585380	0.487825
O73	O	0.587431	-0.497313	0.542465
N74	N	0.774821	-0.612618	0.460470
N75	N	0.105125	-0.132348	0.555445
O76	O	-0.029633	0.055031	0.546198
O77	O	0.114837	0.055047	0.439777
O78	O	0.023189	0.055024	0.440050
O79	O	0.062016	0.055054	0.545925
O80	O	0.053572	-0.036031	0.470398
O81	O	0.145220	-0.036008	0.470125
O82	O	0.000750	-0.036024	0.576546
Zn83	Zn	0.077809	-0.050473	0.528154
Zn84	Zn	0.037778	0.069496	0.488169
O85	O	0.092399	-0.036001	0.576273
N86	N	0.010456	0.151371	0.460879
N87	N	0.105414	-0.518315	0.941279
O88	O	0.096182	-0.653057	1.128644
O89	O	-0.010215	-0.508539	1.128670
O90	O	-0.009968	-0.600172	1.128636
O91	O	0.095935	-0.561424	1.128678
O92	O	0.020367	-0.569808	1.037586
O93	O	0.020121	-0.478175	1.037620
O94	O	0.126517	-0.622693	1.037594
Zn95	Zn	0.078135	-0.545613	1.023151
Zn96	Zn	0.038167	-0.585619	1.143113
O97	O	0.126270	-0.531061	1.037628
N98	N	0.010887	-0.612923	1.224985
C99	C	0.034899	-0.475056	0.440551
C100	C	0.148298	-0.588365	0.440456
C101	C	0.080746	-0.656109	0.575876
C102	C	-0.032653	-0.542801	0.575971
C103	C	0.633086	-0.633292	0.598298
C104	C	0.632998	-0.632993	0.484834
C105	C	0.632857	-0.497559	0.417433
C106	C	0.632949	-0.497860	0.530895
C107	C	0.148191	0.009634	0.440259
C108	C	0.034733	0.009493	0.440634
C109	C	-0.032641	0.009502	0.576027
C110	C	0.080854	0.009529	0.575690
C111	C	-0.009699	-0.475150	1.083148
C112	C	-0.009388	-0.588620	1.083088
C113	C	0.126001	-0.656082	1.083116
C114	C	0.125697	-0.542605	1.083155
H115	H	0.022003	-0.474373	0.936811
H116	H	0.026418	0.009490	0.407371
H117	H	0.159407	-0.697586	1.083101
C118	C	-0.088732	-0.531754	0.621046
C119	C	-0.124030	-0.567290	0.644633
C120	C	-0.180109	-0.556243	0.689707
C121	C	-0.200890	-0.509660	0.711195
C122	C	-0.165591	-0.474121	0.687607
C123	C	-0.109512	-0.485168	0.642533
H124	H	-0.108647	-0.601776	0.628726
H125	H	-0.206239	-0.582552	0.707168
H126	H	-0.242403	-0.501483	0.744561
H127	H	-0.180974	-0.439635	0.703514
H128	H	-0.083382	-0.458859	0.625072
C129	C	0.091882	-0.712226	0.620894
C130	C	0.138502	-0.732993	0.642326
C131	C	0.149639	-0.789111	0.687343
C132	C	0.114155	-0.824461	0.710928
C133	C	0.067532	-0.803694	0.689496
C134	C	0.056396	-0.747577	0.644478
H135	H	0.164772	-0.706825	0.624867
H136	H	0.184152	-0.804483	0.703209
H137	H	0.122399	-0.866002	0.744253
H138	H	0.041262	-0.829863	0.706955
H139	H	0.021882	-0.732205	0.628613
H140	H	0.158967	-0.534314	1.083161
C141	C	0.632932	-0.452899	0.542101
C142	C	0.632862	-0.396729	0.497170
C143	C	0.632845	-0.351768	0.508376
C144	C	0.632898	-0.362977	0.564512
C145	C	0.632968	-0.419149	0.609447
C146	C	0.632985	-0.464110	0.598241
H147	H	0.632822	-0.388429	0.455611
H148	H	0.632793	-0.310185	0.475112
H149	H	0.632885	-0.329694	0.572807
H150	H	0.633007	-0.427449	0.651006
H151	H	0.633037	-0.505693	0.631505
H152	H	-0.074131	0.009496	0.609437
H153	H	0.633132	-0.666701	0.639790
C154	C	0.632781	-0.452418	0.361385
C155	C	0.632752	-0.463358	0.316272
C156	C	0.632676	-0.418218	0.260225
C157	C	0.632629	-0.362137	0.249291
C158	C	0.632659	-0.351194	0.294406
C159	C	0.632735	-0.396335	0.350453
H160	H	0.632786	-0.504875	0.324364
H161	H	0.632654	-0.426318	0.226828
H162	H	0.632573	-0.328721	0.207802
H163	H	0.632625	-0.309677	0.286313
H164	H	0.632757	-0.388234	0.383850
C165	C	0.045936	-0.430276	0.824661
C166	C	-0.016032	-0.415058	0.856211
C167	C	-0.057037	-0.378808	0.824720
C168	C	-0.036073	-0.357777	0.761679
C169	C	0.025899	-0.372995	0.730126
C170	C	0.066903	-0.409244	0.761617
H171	H	-0.031554	-0.430627	0.902881
H172	H	-0.102912	-0.367543	0.848078
H173	H	-0.066426	-0.330943	0.738367
H174	H	0.041421	-0.357426	0.683456
H175	H	0.112779	-0.420510	0.738258
C176	C	0.202492	-0.568675	0.944909
C177	C	0.264461	-0.583889	0.913362
C178	C	0.305463	-0.620131	0.944855
C179	C	0.284496	-0.641159	1.007896
C180	C	0.222524	-0.625945	1.039447
C181	C	0.181522	-0.589703	1.007953
H182	H	0.279985	-0.568323	0.866692
H183	H	0.351339	-0.631393	0.921499
H184	H	0.314848	-0.667987	1.031210
H185	H	0.207000	-0.641511	1.086117
H186	H	0.135646	-0.578441	1.031310
C187	C	0.633017	-0.677954	0.473628
C188	C	0.632965	-0.666746	0.417491
C189	C	0.632984	-0.711707	0.406285
C190	C	0.633055	-0.767878	0.451216
C191	C	0.633107	-0.779089	0.507356
C192	C	0.633088	-0.734127	0.518562
H193	H	0.632912	-0.625163	0.384228
H194	H	0.632945	-0.703408	0.364726
H195	H	0.633069	-0.801161	0.442920
H196	H	0.633159	-0.820672	0.540620
H197	H	0.633127	-0.742427	0.560122
C198	C	0.023761	-0.418940	0.395533
C199	C	0.059244	-0.383588	0.371946
C200	C	0.048106	-0.327472	0.326927
C201	C	0.001486	-0.306708	0.305496
C202	C	-0.034000	-0.342061	0.329083
C203	C	-0.022862	-0.398177	0.374102
H204	H	0.093758	-0.398958	0.387810
H205	H	0.074375	-0.301302	0.309466
H206	H	-0.006759	-0.265168	0.272170
H207	H	-0.068513	-0.326690	0.313219
H208	H	-0.049131	-0.424347	0.391563
H209	H	0.189596	0.009891	0.406765
C210	C	0.204375	-0.599413	0.395381
C211	C	0.249448	-0.655509	0.406411
C212	C	0.305526	-0.666557	0.361336
C213	C	0.316531	-0.621509	0.305229
C214	C	0.271457	-0.565408	0.294196
C215	C	0.215379	-0.554360	0.339272
H216	H	0.241302	-0.688860	0.447947
H217	H	0.338892	-0.708086	0.369503
H218	H	0.358043	-0.629687	0.271862
H219	H	0.279603	-0.532057	0.252661
H220	H	0.182013	-0.512831	0.331104
H221	H	0.089168	0.009538	0.608950
H222	H	-0.043102	-0.433644	1.083156
C223	C	-0.054317	-0.599794	1.083018
C224	C	-0.075723	-0.646431	1.130258
C225	C	-0.120652	-0.657605	1.130188
C226	C	-0.144176	-0.622143	1.082878
C227	C	-0.122771	-0.575503	1.035634
C228	C	-0.077841	-0.564328	1.035704
H229	H	-0.058309	-0.672686	1.165283
H230	H	-0.136497	-0.692132	1.165161
H231	H	-0.177436	-0.630414	1.082826
H232	H	-0.140185	-0.549248	1.000609
H233	H	-0.061996	-0.529802	1.000732
C234	C	0.242526	-0.528536	0.824553
C235	C	0.268499	-0.483221	0.785149
C236	C	0.330471	-0.498438	0.753603
C237	C	0.366470	-0.558969	0.761461
C238	C	0.340497	-0.604288	0.800866
C239	C	0.278525	-0.589072	0.832412
H240	H	0.241849	-0.438408	0.779331
H241	H	0.349697	-0.464889	0.724432
H242	H	0.412346	-0.570233	0.738108
H243	H	0.367147	-0.649101	0.806685
H244	H	0.259299	-0.622620	0.861583
C245	C	0.202195	-0.568607	0.505017
C246	C	0.243453	-0.623888	0.526922
C247	C	0.284409	-0.660125	0.490662
C248	C	0.284108	-0.641081	0.432497
C249	C	0.242850	-0.585797	0.410589
C250	C	0.201893	-0.549560	0.446849
H251	H	0.243676	-0.637988	0.569983
H252	H	0.314951	-0.701050	0.506881
H253	H	0.314427	-0.667905	0.405655
H254	H	0.242626	-0.571696	0.367528
H255	H	0.171351	-0.508635	0.430630
H256	H	0.056452	-0.439666	0.634048
H257	H	0.021776	-0.474310	0.599390
C258	C	0.193129	-0.249002	0.496028
C259	C	0.248386	-0.241106	0.454772
C260	C	0.284610	-0.272616	0.413789
C261	C	0.265577	-0.312022	0.414061
C262	C	0.210317	-0.319920	0.455318
C263	C	0.174093	-0.288411	0.496301
H264	H	0.262478	-0.211933	0.454569
H265	H	0.325517	-0.266769	0.383247
H266	H	0.292392	-0.335348	0.383722
H267	H	0.196225	-0.349093	0.455521
H268	H	0.133186	-0.294258	0.526843
H269	H	0.226235	-0.524529	0.549071
H270	H	0.486634	-0.600858	0.588843
C271	C	0.374486	-0.576726	0.631318
C272	C	0.406022	-0.638229	0.640237
C273	C	0.374520	-0.678728	0.670191
C274	C	0.311481	-0.657724	0.691225
C275	C	0.279941	-0.596218	0.682306
C276	C	0.311443	-0.555719	0.652353
H277	H	0.452690	-0.653780	0.624666
H278	H	0.397869	-0.724259	0.676793
H279	H	0.288162	-0.687704	0.713398
H280	H	0.233273	-0.580667	0.697877
H281	H	0.288095	-0.510188	0.645750
H282	H	0.486593	-0.432619	0.524694
H283	H	0.149018	-0.136838	0.472047
C284	C	0.374429	-0.381990	0.557068
C285	C	0.382276	-0.340314	0.498587
C286	C	0.350744	-0.278805	0.489655
C287	C	0.311365	-0.258973	0.539204
C288	C	0.303517	-0.300649	0.597689
C289	C	0.335048	-0.362158	0.606622
H290	H	0.411428	-0.354994	0.461904
H291	H	0.356555	-0.247954	0.446359
H292	H	0.288024	-0.213441	0.532592
H293	H	0.274365	-0.285969	0.634372
H294	H	0.329238	-0.393010	0.649917
C295	C	0.054813	-0.128689	0.652507
C296	C	0.076778	-0.136572	0.693719
C297	C	0.040555	-0.105063	0.734703
C298	C	-0.017634	-0.065670	0.734475
C299	C	-0.039602	-0.057785	0.693262
C300	C	-0.003378	-0.089295	0.652278
H301	H	0.119856	-0.165734	0.693889
H302	H	0.056817	-0.110900	0.765212
H303	H	-0.044448	-0.042345	0.764814
H304	H	-0.082679	-0.028623	0.693092
H305	H	-0.019641	-0.083457	0.621769
C306	C	0.094974	-0.249047	0.692588
C307	C	0.058746	-0.217536	0.733567
C308	C	0.043553	-0.249069	0.795547
C309	C	0.064588	-0.312113	0.816547
C310	C	0.100818	-0.343628	0.775567
C311	C	0.116011	-0.312095	0.713587
H312	H	0.043173	-0.170864	0.718023
H313	H	0.016733	-0.225739	0.825883
H314	H	0.053342	-0.335455	0.862427
H315	H	0.116392	-0.390300	0.791111
H316	H	0.142831	-0.335424	0.683251
H317	H	-0.033030	-0.529506	0.229442
H318	H	-0.067855	-0.564093	0.333408
H319	H	0.016979	-0.733950	0.333522
C320	C	0.061214	-0.710012	0.221372
C321	C	0.116441	-0.751304	0.229369
C322	C	0.152705	-0.792313	0.197888
C323	C	0.133743	-0.792031	0.158411
C324	C	0.078513	-0.750738	0.150413
C325	C	0.042249	-0.709728	0.181894
H326	H	0.130480	-0.751514	0.258593
H327	H	0.193589	-0.822881	0.203809
H328	H	0.160587	-0.822389	0.135107
H329	H	0.064474	-0.750528	0.121188
H330	H	0.001365	-0.679160	0.175973
H331	H	-0.067926	-0.564092	0.382165
H332	H	-0.033345	-0.529494	0.416965
H333	H	0.016742	-0.733938	0.467255
C334	C	0.069041	-0.732066	0.384972
C335	C	0.130521	-0.763649	0.376144
C336	C	0.171045	-0.732188	0.346267
C337	C	0.150088	-0.669144	0.325220
C338	C	0.088605	-0.637558	0.334048
C339	C	0.048081	-0.669019	0.363925
H340	H	0.146038	-0.810321	0.391725
H341	H	0.216559	-0.755571	0.339732
H342	H	0.180086	-0.645855	0.303104
H343	H	0.073088	-0.590886	0.318468
H344	H	0.002567	-0.645636	0.370460
C345	C	0.109057	-0.852430	0.425151
C346	C	0.138576	-0.844588	0.449302
C347	C	0.200059	-0.876177	0.440473
C348	C	0.232022	-0.915606	0.407493
C349	C	0.202503	-0.923449	0.383340
C350	C	0.141020	-0.891861	0.392169
H351	H	0.114915	-0.815399	0.473717
H352	H	0.221911	-0.870370	0.458353
H353	H	0.277535	-0.938990	0.400958
H354	H	0.226164	-0.952639	0.358925
H355	H	0.119169	-0.897667	0.374289
C356	C	0.060738	-0.709994	0.511465
C357	C	0.118915	-0.709805	0.492529
C358	C	0.155091	-0.750819	0.528847
C359	C	0.133091	-0.792021	0.584101
C360	C	0.074911	-0.792212	0.603039
C361	C	0.038735	-0.751198	0.566721
H362	H	0.135203	-0.679304	0.451625
H363	H	0.198160	-0.750678	0.514827
H364	H	0.159871	-0.822382	0.610985
H365	H	0.058623	-0.822714	0.643943
H366	H	-0.004334	-0.751339	0.580741
H367	H	-0.109727	-0.740044	0.456586
C368	C	-0.085689	-0.852185	0.499056
C369	C	-0.132667	-0.844241	0.552237
C370	C	-0.173200	-0.875692	0.582124
C371	C	-0.166757	-0.915087	0.558830
C372	C	-0.119777	-0.923033	0.505645
C373	C	-0.079243	-0.891582	0.475758
H374	H	-0.137439	-0.815076	0.569484
H375	H	-0.207978	-0.869810	0.621495
H376	H	-0.196762	-0.938369	0.580954
H377	H	-0.115005	-0.952197	0.488398
H378	H	-0.044465	-0.897464	0.436387
H379	H	-0.116855	-0.691337	0.509456
H380	H	-0.220518	-0.571693	0.374008
C381	C	-0.229043	-0.660484	0.560018
C382	C	-0.221228	-0.643820	0.596058
C383	C	-0.252846	-0.658994	0.658017
C384	C	-0.292280	-0.690832	0.683936
C385	C	-0.300097	-0.707498	0.647896
C386	C	-0.268479	-0.692324	0.585937
H387	H	-0.192035	-0.620250	0.576872
H388	H	-0.247059	-0.646657	0.684696
H389	H	-0.315686	-0.702065	0.729802
H390	H	-0.329290	-0.731068	0.667082
H391	H	-0.274266	-0.704661	0.559258
C392	C	-0.108326	-0.602533	0.323447
C393	C	-0.116122	-0.542016	0.287445
C394	C	-0.084501	-0.526840	0.225487
C395	C	-0.045085	-0.572183	0.199530
C396	C	-0.037288	-0.632704	0.235533
C397	C	-0.068909	-0.647880	0.297491
H398	H	-0.145301	-0.508447	0.306659
H399	H	-0.090273	-0.482038	0.198836
H400	H	-0.021678	-0.560949	0.153665
H401	H	-0.008109	-0.666273	0.216318
H402	H	-0.063137	-0.692682	0.324142
