data_functionalizedCrystal
_audit_creation_method	'MofGen! by Chris Wilmer'
_symmetry_space_group_name_H-M	'P1'
_symmetry_Int_Tables_number	1
_symmetry_cell_setting	triclinic
loop_
_symmetry_equiv_pos_as_xyz
  x,y,z
_cell_length_a	14.044220
_cell_length_b	12.503572
_cell_length_c	14.044220
_cell_angle_alpha	86.156832
_cell_angle_beta	93.188878
_cell_angle_gamma	93.835250
loop_
_atom_site_label
_atom_site_type_symbol
_atom_site_fract_x
_atom_site_fract_y
_atom_site_fract_z
O1	O	1.282200	0.089210	0.225116
O2	O	1.532200	0.339210	0.475116
O3	O	1.782200	0.589210	0.725116
O4	O	2.032200	0.839210	0.975116
O5	O	1.005530	0.089237	0.216809
O6	O	1.255530	0.339237	0.466809
O7	O	1.505530	0.589237	0.716809
O8	O	1.755530	0.839237	0.966809
O9	O	1.139712	0.089213	0.082627
O10	O	1.389712	0.339213	0.332627
O11	O	1.639712	0.589213	0.582627
O12	O	1.889712	0.839213	0.832627
O13	O	1.148019	0.089234	0.359298
O14	O	1.398019	0.339234	0.609298
O15	O	1.648019	0.589234	0.859298
O16	O	1.898019	0.839234	1.109298
O17	O	1.129622	-0.089427	0.092737
O18	O	1.379622	0.160573	0.342737
O19	O	1.629622	0.410573	0.592737
O20	O	1.879622	0.660573	0.842737
O21	O	0.995440	-0.089403	0.226918
O22	O	1.245440	0.160597	0.476918
O23	O	1.495440	0.410597	0.726918
O24	O	1.745440	0.660597	0.976918
O25	O	1.272110	-0.089430	0.235226
O26	O	1.522110	0.160570	0.485226
O27	O	1.772110	0.410570	0.735226
O28	O	2.022110	0.660570	0.985226
Cu29	Cu	1.132854	-0.105728	0.231995
Cu30	Cu	1.382854	0.144272	0.481995
Cu31	Cu	1.632854	0.394272	0.731995
Cu32	Cu	1.882854	0.644272	0.981995
Cu33	Cu	1.144786	0.105535	0.220040
Cu34	Cu	1.394786	0.355535	0.470040
Cu35	Cu	1.644786	0.605535	0.720040
Cu36	Cu	1.894786	0.855535	0.970040
O37	O	1.137929	-0.089406	0.369407
O38	O	1.387929	0.160594	0.619407
O39	O	1.637929	0.410594	0.869407
O40	O	1.887929	0.660594	1.119407
C41	C	0.964864	-0.000080	0.218228
C42	C	1.214864	0.249920	0.468228
C43	C	1.464864	0.499920	0.718228
C44	C	1.714864	0.749920	0.968228
C45	C	0.858721	-0.000070	0.207383
C46	C	1.108721	0.249930	0.457383
C47	C	1.358721	0.499930	0.707383
C48	C	1.608721	0.749930	0.957383
N49	N	1.124469	-0.254319	0.240404
N50	N	1.374469	-0.004319	0.490404
N51	N	1.624469	0.245681	0.740404
N52	N	1.874469	0.495681	0.990404
C53	C	0.664382	-0.000092	0.187558
C54	C	0.914382	0.249908	0.437558
C55	C	1.164382	0.499908	0.687558
C56	C	1.414382	0.749908	0.937558
C57	C	0.613253	-0.000091	0.264472
C58	C	0.863253	0.249909	0.514472
C59	C	1.113253	0.499909	0.764472
C60	C	1.363253	0.749909	1.014472
C61	C	0.505116	-0.000104	0.253441
C62	C	0.755116	0.249896	0.503441
C63	C	1.005116	0.499896	0.753441
C64	C	1.255116	0.749896	1.003441
C65	C	0.772529	-0.000080	0.198587
C66	C	1.022529	0.249920	0.448587
C67	C	1.272529	0.499920	0.698587
C68	C	1.522529	0.749920	0.948587
C69	C	1.112134	-0.473432	0.252782
C70	C	1.362134	-0.223432	0.502782
C71	C	1.612134	0.026568	0.752782
C72	C	1.862134	0.276568	1.002782
C73	C	1.165511	-0.526768	0.199249
C74	C	1.415511	-0.276768	0.449249
C75	C	1.665511	-0.026768	0.699249
C76	C	1.915511	0.223232	0.949249
C77	C	1.158648	-0.648690	0.206136
C78	C	1.408648	-0.398690	0.456136
C79	C	1.658648	-0.148690	0.706136
C80	C	1.908648	0.101310	0.956136
C81	C	1.118996	-0.351499	0.245896
C82	C	1.368996	-0.101499	0.495896
C83	C	1.618996	0.148501	0.745896
C84	C	1.868996	0.398501	0.995896
C85	C	1.312777	-0.000111	0.233807
C86	C	1.562777	0.249889	0.483807
C87	C	1.812777	0.499889	0.733807
C88	C	2.062777	0.749889	0.983807
C89	C	1.418920	-0.000114	0.244651
C90	C	1.668920	0.249886	0.494651
C91	C	1.918920	0.499886	0.744651
C92	C	2.168920	0.749886	0.994651
C93	C	1.131031	-0.000107	0.052060
C94	C	1.381031	0.249893	0.302060
C95	C	1.631031	0.499893	0.552060
C96	C	1.881031	0.749893	0.802060
C97	C	1.120187	-0.000107	-0.054082
C98	C	1.370187	0.249893	0.195918
C99	C	1.620187	0.499893	0.445918
C100	C	1.870187	0.749893	0.695918
N101	N	1.153179	0.254126	0.211624
N102	N	1.403179	0.504126	0.461624
N103	N	1.653179	0.754126	0.711624
N104	N	1.903179	1.004126	0.961624
C105	C	1.100361	-0.000090	-0.248421
C106	C	1.350361	0.249910	0.001579
C107	C	1.600361	0.499910	0.251579
C108	C	1.850361	0.749910	0.501579
C109	C	1.177275	-0.000094	-0.299551
C110	C	1.427275	0.249906	-0.049551
C111	C	1.677275	0.499906	0.200449
C112	C	1.927275	0.749906	0.450449
C113	C	1.166244	-0.000084	-0.407687
C114	C	1.416244	0.249916	-0.157687
C115	C	1.666244	0.499916	0.092313
C116	C	1.916244	0.749916	0.342313
C117	C	1.111391	-0.000099	-0.140274
C118	C	1.361391	0.249901	0.109726
C119	C	1.611391	0.499901	0.359726
C120	C	1.861391	0.749901	0.609726
C121	C	1.146609	-0.000084	0.399974
C122	C	1.396609	0.249916	0.649974
C123	C	1.646609	0.499916	0.899974
C124	C	1.896609	0.749916	1.149974
C125	C	1.157454	-0.000077	0.506117
C126	C	1.407454	0.249923	0.756117
C127	C	1.657454	0.499923	1.006117
C128	C	1.907454	0.749923	1.256117
H129	H	0.650692	-0.000081	0.338605
H130	H	0.900692	0.249919	0.588605
H131	H	1.150692	0.499919	0.838605
H132	H	1.400692	0.749919	1.088605
C133	C	0.613812	-0.000093	0.087417
C134	C	0.863812	0.249907	0.337417
C135	C	1.113812	0.499907	0.587417
C136	C	1.363812	0.749907	0.837417
H137	H	0.546714	-0.000089	0.093047
H138	H	0.796714	0.249911	0.343047
H139	H	1.046714	0.499911	0.593047
H140	H	1.296714	0.749911	0.843047
H141	H	0.628242	-0.062384	0.057229
H142	H	0.878242	0.187616	0.307229
H143	H	1.128242	0.437616	0.557229
H144	H	1.378242	0.687616	0.807229
H145	H	0.635265	0.062216	0.050197
H146	H	0.885265	0.312216	0.300197
H147	H	1.135265	0.562216	0.550197
H148	H	1.385265	0.812216	0.800197
H149	H	1.216364	-0.480864	0.148245
H150	H	1.466364	-0.230864	0.398245
H151	H	1.716364	0.019136	0.648245
H152	H	1.966364	0.269136	0.898245
H153	H	1.061285	-0.519330	0.303783
H154	H	1.311285	-0.269330	0.553783
H155	H	1.561285	-0.019330	0.803783
H156	H	1.811285	0.230670	1.053783
C157	C	1.277422	-0.000128	-0.248978
C158	C	1.527422	0.249872	0.001022
C159	C	1.777422	0.499872	0.251022
C160	C	2.027422	0.749872	0.501022
H161	H	1.271796	-0.000145	-0.181878
H162	H	1.521796	0.249855	0.068122
H163	H	1.771796	0.499855	0.318122
H164	H	2.021796	0.749855	0.568122
H165	H	1.314656	0.062158	-0.270435
H166	H	1.564656	0.312158	-0.020435
H167	H	1.814656	0.562158	0.229565
H168	H	2.064656	0.812158	0.479565
H169	H	1.307589	-0.062441	-0.263408
H170	H	1.557589	0.187559	-0.013408
H171	H	1.807589	0.437559	0.236592
H172	H	2.057589	0.687559	0.486592
C173	C	1.000220	-0.000089	-0.298992
C174	C	1.250220	0.249911	-0.048992
C175	C	1.500220	0.499911	0.201008
C176	C	1.750220	0.749911	0.451008
H177	H	1.005851	-0.000095	-0.366090
H178	H	1.255851	0.249905	-0.116090
H179	H	1.505851	0.499905	0.133910
H180	H	1.755851	0.749905	0.383910
H181	H	0.970026	0.062203	-0.284571
H182	H	1.220026	0.312203	-0.034571
H183	H	1.470026	0.562203	0.215429
H184	H	1.720026	0.812203	0.465429
H185	H	0.963008	-0.062396	-0.277529
H186	H	1.213008	0.187604	-0.027529
H187	H	1.463008	0.437604	0.222471
H188	H	1.713008	0.687604	0.472471
