data_functionalizedCrystal
_audit_creation_method	'MofGen! by Chris Wilmer'
_symmetry_space_group_name_H-M	'P1'
_symmetry_Int_Tables_number	1
_symmetry_cell_setting	triclinic
loop_
_symmetry_equiv_pos_as_xyz
  x,y,z
_cell_length_a	27.440280
_cell_length_b	27.440280
_cell_length_c	27.440280
_cell_angle_alpha	90.008670
_cell_angle_beta	59.992170
_cell_angle_gamma	59.999099
loop_
_atom_site_label
_atom_site_type_symbol
_atom_site_fract_x
_atom_site_fract_y
_atom_site_fract_z
Zr1	Zr	0.533431	0.469473	-0.063983
O2	O	0.635127	0.391639	-0.141827
O3	O	0.431747	0.493335	-0.040108
O4	O	0.533436	0.493318	-0.141798
O5	O	0.533430	0.391668	0.040065
O6	O	0.533427	0.573521	-0.141788
O7	O	0.533438	0.391657	-0.040137
O8	O	0.351524	0.573552	0.040117
O9	O	0.715333	0.391636	-0.141840
O10	O	0.473560	0.563364	-0.029932
O11	O	0.473561	0.503517	0.029914
O12	O	0.593287	0.503497	-0.089813
O13	O	0.593288	0.443650	-0.029966
Zr14	Zr	0.533403	0.597404	0.063946
Zr15	Zr	0.533416	0.597387	-0.063967
Zr16	Zr	0.533418	0.469490	0.063930
Zr17	Zr	0.661351	0.469468	-0.064003
Zr18	Zr	0.405484	0.597409	0.063967
O19	O	0.635087	0.573541	0.040072
O20	O	0.635106	0.573517	-0.141804
O21	O	0.635109	0.391664	0.040049
O22	O	0.431708	0.675237	0.141791
O23	O	0.431726	0.675213	-0.040085
O24	O	0.431729	0.493360	0.141768
O25	O	0.533405	0.675209	-0.040102
O26	O	0.533398	0.573559	0.141762
O27	O	0.533408	0.493356	0.141752
O28	O	0.533397	0.675220	0.040100
O29	O	0.715321	0.493311	-0.141827
O30	O	0.351514	0.573566	0.141791
O31	O	0.351502	0.675240	0.141803
O32	O	0.351512	0.675227	0.040130
O33	O	0.715323	0.391650	-0.040166
O34	O	0.715311	0.493325	-0.040153
O35	O	0.473548	0.563380	0.089776
O36	O	0.473547	0.623226	0.029929
O37	O	0.593274	0.563359	-0.029951
O38	O	0.593275	0.503513	0.029895
C39	C	0.373410	0.533444	0.000007
C40	C	0.319105	0.533446	0.000016
C41	C	0.026616	0.489245	-0.044232
C42	C	-0.024401	0.489245	-0.044238
O43	O	-0.013200	0.451674	-0.081840
N44	N	-0.094115	0.533436	-0.000042
C45	C	-0.112812	0.577634	0.044161
O46	O	-0.176793	0.615223	0.081752
C47	C	-0.061795	0.577637	0.044164
C48	C	0.007919	0.533439	-0.000032
C49	C	0.096326	0.445052	-0.088425
C50	C	0.147340	0.445052	-0.088418
C51	C	0.128643	0.489245	-0.044218
C52	C	0.058932	0.533439	-0.000025
C53	C	-0.080492	0.621837	0.088363
C54	C	-0.029468	0.621835	0.088362
C55	C	0.040246	0.577638	0.044166
C56	C	0.091249	0.577632	0.044182
N57	N	0.160962	0.533441	-0.000015
C58	C	0.179659	0.489248	-0.044215
C59	C	-0.219947	0.577627	0.044150
C60	C	-0.270963	0.577622	0.044149
C61	C	-0.182549	0.489234	-0.044250
C62	C	-0.131532	0.489236	-0.044247
C63	C	-0.150233	0.533435	-0.000047
C64	C	0.286788	0.489250	-0.044196
C65	C	0.337802	0.489253	-0.044184
C66	C	0.249383	0.577643	0.044214
C67	C	0.198374	0.577639	0.044203
C68	C	0.217081	0.533440	-0.000007
O69	O	0.080100	0.615186	0.081762
O70	O	0.243641	0.451670	-0.081805
C71	C	0.533436	0.373437	-0.000038
C72	C	0.533443	0.319134	-0.000045
C73	C	0.470910	0.013687	0.031255
C74	C	0.470906	-0.037332	0.031260
O75	O	0.417756	-0.037143	0.057862
N76	N	0.533402	-0.094099	0.000003
C77	C	0.595905	-0.099846	-0.031257
O78	O	0.649062	-0.152815	-0.057843
C79	C	0.595908	-0.048828	-0.031259
C80	C	0.533408	0.007938	-0.000004
C81	C	0.408415	0.070450	0.062508
C82	C	0.408420	0.121465	0.062502
C83	C	0.470918	0.115716	0.031242
C84	C	0.533412	0.058953	-0.000010
C85	C	0.658411	-0.054576	-0.062515
C86	C	0.658408	-0.003552	-0.062513
C87	C	0.595909	0.053214	-0.031258
C88	C	0.595915	0.104219	-0.031276
N89	N	0.533420	0.160985	-0.000018
C90	C	0.470921	0.166734	0.031241
C91	C	0.595894	-0.206985	-0.031251
C92	C	0.595891	-0.258002	-0.031253
C93	C	0.470892	-0.195484	0.031265
C94	C	0.470895	-0.144466	0.031264
C95	C	0.533398	-0.150218	0.000007
C96	C	0.470934	0.273867	0.031225
C97	C	0.470944	0.324883	0.031214
C98	C	0.595943	0.262361	-0.031302
C99	C	0.595933	0.211349	-0.031294
C100	C	0.533424	0.217105	-0.000026
O101	O	0.649038	0.104076	-0.057861
O102	O	0.417773	0.219705	0.057829
C103	C	0.693425	0.533432	-0.000044
C104	C	0.747730	0.533430	-0.000053
C105	C	0.533434	0.533417	-0.160018
C106	C	0.533439	0.533409	-0.214321
C107	C	0.533399	0.693440	0.000002
C108	C	0.533392	0.747742	0.000009
C109	C	0.533397	0.577639	-0.551012
C110	C	0.533392	0.577644	-0.602030
O111	O	0.533361	0.615235	-0.628400
N112	N	0.533398	0.533459	-0.627554
C113	C	0.533403	0.489270	-0.602053
O114	O	0.533407	0.451688	-0.628447
C115	C	0.533403	0.489268	-0.551033
C116	C	0.533403	0.533452	-0.525516
C117	C	0.533397	0.621820	-0.525495
C118	C	0.533403	0.621814	-0.474481
C119	C	0.533409	0.577627	-0.448985
C120	C	0.533410	0.533446	-0.474503
C121	C	0.533402	0.445081	-0.525531
C122	C	0.533402	0.445083	-0.474508
C123	C	0.533402	0.489267	-0.448991
C124	C	0.533422	0.489252	-0.397993
N125	N	0.533416	0.533437	-0.372470
C126	C	0.533409	0.577625	-0.397966
C127	C	0.533401	0.489279	-0.709196
C128	C	0.533406	0.489278	-0.760217
C129	C	0.533394	0.577653	-0.760191
C130	C	0.533394	0.577651	-0.709171
C131	C	0.533395	0.533464	-0.683673
C132	C	0.533423	0.577608	-0.290834
C133	C	0.533433	0.577597	-0.239817
C134	C	0.533441	0.489223	-0.239846
C135	C	0.533435	0.489233	-0.290860
C136	C	0.533424	0.533430	-0.316352
O137	O	0.533450	0.451683	-0.371589
O138	O	0.533396	0.615205	-0.371561
C139	C	0.533401	0.533460	0.159981
C140	C	0.533396	0.533467	0.214284
C141	C	0.373391	0.693446	0.000027
C142	C	0.319080	0.747751	0.000043
C143	C	0.373394	0.533466	0.160007
C144	C	0.319083	0.533475	0.214318
C145	C	0.373375	0.693467	0.160027
C146	C	0.319058	0.747779	0.214345
C147	C	0.693460	0.373410	-0.160064
C148	C	0.747777	0.319097	-0.214382
C149	C	0.693444	0.373431	-0.000064
C150	C	0.747755	0.319126	-0.000079
C151	C	0.693441	0.533411	-0.160044
C152	C	0.747752	0.533401	-0.214355
C153	C	0.293581	0.742005	-0.031202
C154	C	0.242557	0.793025	-0.031200
C155	C	0.217028	0.849791	0.000052
C156	C	0.242532	0.855535	0.031298
C157	C	0.293559	0.804515	0.031291
C158	C	0.293572	0.564727	0.271076
C159	C	0.242548	0.564734	0.322112
C160	C	0.217034	0.533492	0.316389
C161	C	0.242550	0.502236	0.259625
C162	C	0.293576	0.502226	0.208591
C163	C	0.293550	0.804530	0.208614
C164	C	0.242520	0.855567	0.259647
C165	C	0.216997	0.849852	0.316410
C166	C	0.242510	0.793096	0.322139
C167	C	0.293542	0.742060	0.271107
C168	C	0.773291	0.262347	-0.208651
C169	C	0.824337	0.211310	-0.259683
C170	C	0.849863	0.217024	-0.316446
C171	C	0.824346	0.273781	-0.322176
C172	C	0.773305	0.324816	-0.271144
C173	C	0.773259	0.324872	0.031160
C174	C	0.824297	0.273851	0.031144
C175	C	0.849828	0.217086	-0.000110
C176	C	0.824322	0.211342	-0.031353
C177	C	0.773288	0.262362	-0.031340
C178	C	0.773250	0.564650	-0.208613
C179	C	0.824274	0.564653	-0.259639
C180	C	0.849802	0.533403	-0.316407
C181	C	0.824299	0.502154	-0.322148
C182	C	0.773272	0.502155	-0.271122
H183	H	0.141608	0.613623	0.080197
H184	H	0.357519	0.075141	0.087966
C185	C	0.226765	0.814266	0.415782
C186	C	0.214442	0.786826	0.384539
H187	H	0.209429	0.810400	0.454307
H188	H	0.274938	0.795645	0.394578
H189	H	0.204273	0.855366	0.419659
H190	H	0.236938	0.745724	0.380659
H191	H	0.166260	0.805445	0.405748
H192	H	0.845104	0.165102	-0.255006
C193	C	-0.049277	0.401870	-0.131626
C194	C	-0.054904	0.440657	-0.092833
H195	H	-0.001970	0.371882	-0.161624
H196	H	-0.071014	0.383724	-0.109802
H197	H	-0.071021	0.423700	-0.149767
H198	H	-0.033164	0.418828	-0.074688
H199	H	-0.033157	0.458804	-0.114659
C200	C	0.268516	0.576356	0.391065
C201	C	0.214504	0.599099	0.384500
H202	H	0.251203	0.597575	0.429578
H203	H	0.288420	0.535257	0.386591
H204	H	0.302551	0.580822	0.361481
H205	H	0.180471	0.594629	0.414081
H206	H	0.194589	0.640208	0.388980
C207	C	0.288345	0.616887	0.083457
C208	C	0.228840	0.626223	0.092794
H209	H	0.275661	0.646883	0.113445
H210	H	0.314854	0.578750	0.085290
H211	H	0.314869	0.618707	0.045307
H212	H	0.202318	0.624398	0.130943
H213	H	0.202320	0.664369	0.090966
H214	H	0.891383	0.175547	-0.000116
H215	H	0.752517	0.476706	-0.275805
H216	H	0.752511	0.257683	-0.162436
H217	H	0.533416	0.453294	-0.780995
C218	C	0.592348	0.599423	-0.377666
C219	C	0.533414	0.626188	-0.318850
H220	H	0.592342	0.629414	-0.394963
H221	H	0.632323	0.577593	-0.377760
H222	H	0.592339	0.573117	-0.400165
H223	H	0.533426	0.652491	-0.296350
H224	H	0.493429	0.648029	-0.318752
C225	C	0.922958	0.109905	-0.355513
C226	C	0.905963	0.160921	-0.372538
H227	H	0.957587	0.075269	-0.390141
H228	H	0.939678	0.109919	-0.332439
H229	H	0.883135	0.109926	-0.332422
H230	H	0.945785	0.160902	-0.395626
H231	H	0.889245	0.160907	-0.395623
C232	C	0.902558	0.105380	-0.059104
C233	C	0.852384	0.148942	-0.065700
H234	H	0.919876	0.066857	-0.080303
H235	H	0.939182	0.109857	-0.074543
H236	H	0.882637	0.109879	-0.017992
H237	H	0.872306	0.144446	-0.106813
H238	H	0.815753	0.144463	-0.050263
C239	C	0.778436	0.195439	-0.093101
C240	C	0.745249	0.256040	-0.065673
H241	H	0.761123	0.191535	-0.114295
H242	H	0.826606	0.176840	-0.120079
H243	H	0.770075	0.176847	-0.063528
H244	H	0.753614	0.274631	-0.095247
H245	H	0.697068	0.274647	-0.038693
C246	C	0.288381	0.685451	0.338014
C247	C	0.321569	0.679681	0.277413
H248	H	0.305679	0.646940	0.341909
H249	H	0.296751	0.706648	0.356609
H250	H	0.240203	0.706670	0.356621
H251	H	0.369746	0.658466	0.258808
H252	H	0.313205	0.658474	0.258811
C253	C	0.695086	0.430793	-0.220675
C254	C	0.745272	0.387196	-0.277449
H255	H	0.677790	0.469302	-0.224572
H256	H	0.658449	0.426333	-0.199476
H257	H	0.714990	0.426314	-0.199477
H258	H	0.725367	0.391672	-0.298646
H259	H	0.781915	0.391658	-0.298657
H260	H	0.845091	0.476711	-0.368374
C261	C	0.695022	0.430842	0.058938
C262	C	0.745205	0.387265	0.065515
H263	H	0.677705	0.469359	0.080150
H264	H	0.714929	0.426359	0.017835
H265	H	0.658392	0.426367	0.074379
H266	H	0.781838	0.391738	0.050070
H267	H	0.725298	0.391750	0.106627
H268	H	0.845136	0.278426	-0.368399
C269	C	0.651401	-0.363970	-0.059017
C270	C	0.664592	-0.320397	-0.065617
H271	H	0.693817	-0.402489	-0.080234
H272	H	0.625726	-0.359483	-0.017912
H273	H	0.625724	-0.359492	-0.074441
H274	H	0.690265	-0.324872	-0.050189
H275	H	0.690278	-0.324886	-0.106731
C276	C	0.226807	0.424341	0.280775
C277	C	0.214484	0.467909	0.253347
H278	H	0.209468	0.403158	0.276905
H279	H	0.274980	0.397357	0.262147
H280	H	0.204317	0.442963	0.321880
H281	H	0.236977	0.449287	0.212242
H282	H	0.166301	0.494897	0.271974
H283	H	0.420003	-0.098248	0.056720
C284	C	0.778353	0.626435	-0.151966
C285	C	0.745193	0.599006	-0.146218
H286	H	0.761028	0.647651	-0.113446
H287	H	0.826525	0.596868	-0.173175
H288	H	0.769983	0.653396	-0.173167
H289	H	0.753567	0.572042	-0.125020
H290	H	0.697009	0.628577	-0.125000
C291	C	0.819120	0.340775	0.092938
C292	C	0.852319	0.280175	0.065496
H293	H	0.836416	0.344679	0.114149
H294	H	0.827484	0.359372	0.063375
H295	H	0.770944	0.359370	0.119908
H296	H	0.900495	0.261581	0.038522
H297	H	0.843960	0.261570	0.095062
C298	C	0.923324	0.559233	-0.280771
C299	C	0.852307	0.598998	-0.253322
H300	H	0.940630	0.580437	-0.276872
H301	H	0.931687	0.529669	-0.262177
H302	H	0.945820	0.540632	-0.321882
H303	H	0.829811	0.617595	-0.212209
H304	H	0.843939	0.628572	-0.271913
C305	C	-0.221506	0.449924	-0.083435
C306	C	-0.162002	0.440607	-0.092791
H307	H	-0.208823	0.419893	-0.113388
H308	H	-0.248044	0.448155	-0.045265
H309	H	-0.248002	0.488041	-0.085319
H310	H	-0.135508	0.402492	-0.090903
H311	H	-0.135453	0.442371	-0.130971
C312	C	0.881217	0.592087	-0.372464
C313	C	0.905894	0.533403	-0.372492
H314	H	0.915849	0.592086	-0.407086
H315	H	0.841416	0.608806	-0.372463
H316	H	0.869660	0.615165	-0.337829
H317	H	0.917446	0.510326	-0.407125
H318	H	0.945707	0.516676	-0.372498
H319	H	0.221739	0.901760	0.056742
C320	C	0.428870	0.443376	-0.148993
C321	C	0.414434	0.440670	-0.092771
H322	H	0.476178	0.413387	-0.178986
H323	H	0.401162	0.437053	-0.155315
H324	H	0.419071	0.481523	-0.150807
H325	H	0.424229	0.402525	-0.090955
H326	H	0.442151	0.446989	-0.086446
C327	C	0.280726	0.408494	-0.066016
C328	C	0.307364	0.440652	-0.092784
H329	H	0.293429	0.378489	-0.096009
H330	H	0.298776	0.390369	-0.044183
H331	H	0.231905	0.434816	-0.039710
H332	H	0.356186	0.414331	-0.119087
H333	H	0.289318	0.458777	-0.114627
H334	H	0.204101	0.409066	-0.124412
H335	H	-0.327724	0.613607	0.080144
C336	C	0.188854	0.357681	-0.175794
C337	C	0.116890	0.396465	-0.137012
H338	H	0.201552	0.327680	-0.205787
H339	H	0.206912	0.379506	-0.193938
H340	H	0.206902	0.339547	-0.153957
H341	H	0.098842	0.414603	-0.158849
H342	H	0.098825	0.374637	-0.118867
H343	H	-0.137249	0.657828	0.124352
C344	C	-0.312473	0.664989	0.131536
C345	C	-0.240510	0.626208	0.092746
H346	H	-0.325168	0.694978	0.161538
H347	H	-0.330527	0.683134	0.109711
H348	H	-0.330528	0.643155	0.149672
H349	H	-0.222455	0.648042	0.074607
H350	H	-0.222448	0.608062	0.114574
H351	H	-0.044704	0.657829	0.124356
H352	H	0.175478	0.891330	0.000053
C353	C	0.533416	0.664957	-0.244920
C354	C	0.533428	0.626170	-0.211767
H355	H	0.533408	0.694945	-0.227601
H356	H	0.573393	0.643130	-0.284817
H357	H	0.493430	0.683108	-0.244819
H358	H	0.573417	0.608015	-0.211872
H359	H	0.493447	0.648000	-0.171859
H360	H	0.420047	0.371105	0.056667
H361	H	0.420033	0.278563	0.056687
C362	C	0.288343	0.871416	0.151983
C363	C	0.321541	0.810822	0.146224
H364	H	0.305609	0.875303	0.113467
H365	H	0.240168	0.890018	0.173241
H366	H	0.296749	0.890018	0.173140
H367	H	0.313131	0.792220	0.125071
H368	H	0.369727	0.792212	0.124957
C369	C	0.284867	0.178119	0.124303
C370	C	0.339717	0.183859	0.096865
H371	H	0.242452	0.216638	0.145522
H372	H	0.287470	0.156915	0.094737
H373	H	0.287477	0.156918	0.151264
H374	H	0.337111	0.205057	0.069900
H375	H	0.337113	0.205072	0.126434
C376	C	0.371788	0.592470	0.220600
C377	C	0.321613	0.599070	0.277376
H378	H	0.389095	0.613674	0.224495
H379	H	0.408420	0.551366	0.199391
H380	H	0.351872	0.607904	0.199414
H381	H	0.341529	0.583632	0.298561
H382	H	0.284974	0.640183	0.298594
C383	C	0.415394	-0.245941	0.059037
C384	C	0.402191	-0.189171	0.065635
H385	H	0.372982	-0.242044	0.080258
H386	H	0.441066	-0.267143	0.017932
H387	H	0.441077	-0.267132	0.074457
H388	H	0.376511	-0.167981	0.050211
H389	H	0.376507	-0.167959	0.106748
H390	H	0.709304	-0.100790	-0.087965
C391	C	0.719450	-0.273914	-0.093057
C392	C	0.664603	-0.213313	-0.065622
H393	H	0.761867	-0.277821	-0.114278
H394	H	0.716846	-0.292504	-0.063489
H395	H	0.716839	-0.292514	-0.120017
H396	H	0.667212	-0.194714	-0.038658
H397	H	0.667209	-0.194715	-0.095192
C398	C	0.702495	0.224783	-0.126256
C399	C	0.664639	0.256049	-0.065659
H400	H	0.744903	0.220891	-0.147463
H401	H	0.711441	0.186278	-0.130726
H402	H	0.676815	0.245984	-0.141677
H403	H	0.690317	0.234846	-0.050237
H404	H	0.655695	0.294561	-0.061186
C405	C	0.533381	0.665014	-0.755051
C406	C	0.533383	0.626229	-0.788220
H407	H	0.533378	0.694997	-0.772360
H408	H	0.493404	0.683166	-0.715156
H409	H	0.573367	0.643181	-0.755153
H410	H	0.493394	0.648061	-0.788114
H411	H	0.573364	0.608075	-0.828126
H412	H	0.533389	0.657805	-0.546248
H413	H	0.646826	0.165126	-0.056752
C414	C	0.781966	-0.070478	-0.124306
C415	C	0.727115	-0.009878	-0.096876
H416	H	0.824381	-0.074382	-0.145523
H417	H	0.779358	-0.089065	-0.094737
H418	H	0.779362	-0.089082	-0.151269
H419	H	0.729717	0.008726	-0.069909
H420	H	0.729724	0.008717	-0.126448
H421	H	0.533394	0.613630	-0.688398
C422	C	0.474336	0.726630	-0.429398
C423	C	0.533315	0.670473	-0.446473
H424	H	0.474256	0.756697	-0.412118
H425	H	0.474364	0.732850	-0.463459
H426	H	0.434388	0.728429	-0.401029
H427	H	0.573264	0.668672	-0.474846
H428	H	0.533294	0.664252	-0.412407
C429	C	0.533426	0.401917	-0.714362
C430	C	0.533416	0.440696	-0.681178
H431	H	0.533439	0.371923	-0.697068
H432	H	0.493445	0.423747	-0.714260
H433	H	0.573408	0.383773	-0.754262
H434	H	0.493431	0.458843	-0.641279
H435	H	0.573401	0.418862	-0.681274
H436	H	0.314313	0.809202	0.056738
C437	C	0.371811	0.636035	-0.058973
C438	C	0.321638	0.679612	-0.065560
H439	H	0.389127	0.597518	-0.080184
H440	H	0.408437	0.640508	-0.074403
H441	H	0.351891	0.640520	-0.017863
H442	H	0.341560	0.675129	-0.106670
H443	H	0.285005	0.675137	-0.050132
C444	C	0.533396	0.357738	-0.520402
C445	C	0.533397	0.396514	-0.553568
H446	H	0.533387	0.327756	-0.537709
H447	H	0.573377	0.339584	-0.520504
H448	H	0.493414	0.379579	-0.480501
H449	H	0.573381	0.374674	-0.593469
H450	H	0.493411	0.414669	-0.553472
C451	C	0.592346	0.364334	-0.446631
C452	C	0.533406	0.396508	-0.446482
H453	H	0.592346	0.334349	-0.429326
H454	H	0.632317	0.346183	-0.486530
H455	H	0.592339	0.390651	-0.424128
H456	H	0.533415	0.370192	-0.468988
H457	H	0.493424	0.414660	-0.406576
C458	C	0.533439	0.449993	-0.161640
C459	C	0.533441	0.440658	-0.211811
H460	H	0.533430	0.420014	-0.144328
H461	H	0.573420	0.448148	-0.173279
H462	H	0.493457	0.488145	-0.133285
H463	H	0.573426	0.402507	-0.240168
H464	H	0.493456	0.442497	-0.200173
C465	C	0.474496	0.467446	-0.318764
C466	C	0.533440	0.440665	-0.318918
H467	H	0.474498	0.437464	-0.336085
H468	H	0.434527	0.489264	-0.278863
H469	H	0.474496	0.493764	-0.341250
H470	H	0.533437	0.414350	-0.296429
H471	H	0.573419	0.418837	-0.358826
C472	C	0.247701	0.726102	-0.092961
C473	C	0.214524	0.786702	-0.065541
H474	H	0.230391	0.722198	-0.114157
H475	H	0.295873	0.707495	-0.119935
H476	H	0.239329	0.707516	-0.063382
H477	H	0.222900	0.805286	-0.095119
H478	H	0.166341	0.805316	-0.038564
H479	H	0.314341	0.476779	0.162378
C480	C	0.143937	0.567545	0.423515
C481	C	0.160940	0.533511	0.372491
H482	H	0.109304	0.567562	0.458151
H483	H	0.183751	0.550811	0.423496
H484	H	0.127215	0.607348	0.423506
H485	H	0.177667	0.493706	0.372498
H486	H	0.121118	0.550243	0.372511
C487	C	0.226838	0.949189	0.280743
C488	C	0.214493	0.917945	0.253331
H489	H	0.209544	0.987695	0.276838
H490	H	0.204328	0.953101	0.321850
H491	H	0.275019	0.927963	0.262124
H492	H	0.166312	0.939169	0.271954
H493	H	0.237002	0.914035	0.212217
H494	H	0.175443	0.891414	0.357958
