data_functionalizedCrystal
_audit_creation_method	'MofGen! by Chris Wilmer'
_symmetry_space_group_name_H-M	'P1'
_symmetry_Int_Tables_number	1
_symmetry_cell_setting	triclinic
loop_
_symmetry_equiv_pos_as_xyz
  x,y,z
_cell_length_a	16.120530
_cell_length_b	18.215404
_cell_length_c	18.215399
_cell_angle_alpha	89.972485
_cell_angle_beta	92.916648
_cell_angle_gamma	92.880662
loop_
_atom_site_label
_atom_site_type_symbol
_atom_site_fract_x
_atom_site_fract_y
_atom_site_fract_z
Zn1	Zn	1.274544	0.350119	0.473096
Zn2	Zn	1.524544	0.600119	0.723096
Zn3	Zn	1.774544	0.850119	0.973096
Zn4	Zn	2.024544	1.100119	1.223096
Zn5	Zn	1.274443	0.473186	0.350026
Zn6	Zn	1.524443	0.723186	0.600026
Zn7	Zn	1.774443	0.973186	0.850026
Zn8	Zn	2.024443	1.223186	1.100026
Zn9	Zn	1.135127	0.343893	0.343810
Zn10	Zn	1.385127	0.593893	0.593810
Zn11	Zn	1.635127	0.843893	0.843810
Zn12	Zn	1.885127	1.093893	1.093810
Zn13	Zn	1.135091	0.466898	0.466821
Zn14	Zn	1.385091	0.716898	0.716821
Zn15	Zn	1.635091	0.966898	0.966821
Zn16	Zn	1.885091	1.216898	1.216821
O17	O	1.204801	0.408524	0.408438
O18	O	1.454801	0.658524	0.658438
O19	O	1.704801	0.908524	0.908438
O20	O	1.954801	1.158524	1.158438
O21	O	1.391196	0.371681	0.461997
O22	O	1.641196	0.621681	0.711997
O23	O	1.891196	0.871681	0.961997
O24	O	2.141196	1.121681	1.211997
O25	O	1.255935	0.456061	0.246216
O26	O	1.505935	0.706061	0.496216
O27	O	1.755935	0.956061	0.746216
O28	O	2.005935	1.206061	0.996216
O29	O	1.153678	0.241737	0.360985
O30	O	1.403678	0.491737	0.610985
O31	O	1.653678	0.741737	0.860985
O32	O	1.903678	0.991737	1.110985
O33	O	1.391122	0.462098	0.371578
O34	O	1.641122	0.712098	0.621578
O35	O	1.891122	0.962098	0.871578
O36	O	2.141122	1.212098	1.121578
O37	O	1.256108	0.246312	0.455970
O38	O	1.506108	0.496312	0.705970
O39	O	1.756108	0.746312	0.955970
O40	O	2.006108	0.996312	1.205970
O41	O	1.153580	0.361070	0.241649
O42	O	1.403580	0.611070	0.491649
O43	O	1.653580	0.861070	0.741649
O44	O	1.903580	1.111070	0.991649
O45	O	1.018457	0.354973	0.354901
O46	O	1.268457	0.604973	0.604901
O47	O	1.518457	0.854973	0.854901
O48	O	1.768457	1.104973	1.104901
O49	O	1.153617	0.451381	0.570639
O50	O	1.403617	0.701381	0.820639
O51	O	1.653617	0.951381	1.070639
O52	O	1.903617	1.201381	1.320639
O53	O	1.018430	0.445344	0.445276
O54	O	1.268430	0.695344	0.695276
O55	O	1.518430	0.945344	0.945276
O56	O	1.768430	1.195344	1.195276
O57	O	1.256073	0.365584	0.575249
O58	O	1.506073	0.615584	0.825249
O59	O	1.756073	0.865584	1.075249
O60	O	2.006073	1.115584	1.325249
O61	O	1.255900	0.575333	0.365494
O62	O	1.505900	0.825333	0.615494
O63	O	1.755900	1.075333	0.865494
O64	O	2.005900	1.325333	1.115494
O65	O	1.153519	0.570714	0.451303
O66	O	1.403519	0.820714	0.701303
O67	O	1.653519	1.070714	0.951303
O68	O	1.903519	1.320714	1.201303
C69	C	0.988193	0.398801	0.398734
C70	C	1.238193	0.648801	0.648734
C71	C	1.488193	0.898801	0.898734
C72	C	1.738193	1.148801	1.148734
C73	C	0.895527	0.394659	0.394600
C74	C	1.145527	0.644659	0.644600
C75	C	1.395527	0.894659	0.894600
C76	C	1.645527	1.144659	1.144600
C77	C	1.204717	0.599727	0.408409
C78	C	1.454717	0.849727	0.658409
C79	C	1.704717	1.099727	0.908409
C80	C	1.954717	1.349727	1.158409
C81	C	1.204758	0.681527	0.408425
C82	C	1.454758	0.931527	0.658425
C83	C	1.704758	1.181527	0.908425
C84	C	1.954758	1.431527	1.158425
C85	C	1.204852	0.408476	0.600393
C86	C	1.454852	0.658476	0.850393
C87	C	1.704852	0.908476	1.100393
C88	C	1.954852	1.158476	1.350393
C89	C	1.204874	0.408455	0.682193
C90	C	1.454874	0.658455	0.932193
C91	C	1.704874	0.908455	1.182193
C92	C	1.954874	1.158455	1.432193
C93	C	0.725866	0.387081	0.387058
C94	C	0.975866	0.637081	0.637058
C95	C	1.225866	0.887081	0.887058
C96	C	1.475866	1.137081	1.137058
C97	C	0.684577	0.430022	0.429872
C98	C	0.934577	0.680022	0.679872
C99	C	1.184577	0.930022	0.929872
C100	C	1.434577	1.180022	1.179872
C101	C	0.590172	0.425805	0.425676
C102	C	0.840172	0.675805	0.675676
C103	C	1.090172	0.925805	0.925676
C104	C	1.340172	1.175805	1.175676
C105	C	0.820280	0.391297	0.391253
C106	C	1.070280	0.641297	0.641253
C107	C	1.320280	0.891297	0.891253
C108	C	1.570280	1.141297	1.141253
C109	C	1.422255	0.418285	0.418181
C110	C	1.672255	0.668285	0.668181
C111	C	1.922255	0.918285	0.918181
C112	C	2.172255	1.168285	1.168181
C113	C	1.514921	0.422445	0.422333
C114	C	1.764921	0.672445	0.672333
C115	C	2.014921	0.922445	0.922333
C116	C	2.264921	1.172445	1.172333
C117	C	1.258197	0.872108	0.363846
C118	C	1.508197	1.122108	0.613846
C119	C	1.758197	1.372108	0.863846
C120	C	2.008197	1.622108	1.113846
C121	C	1.258235	0.948968	0.363870
C122	C	1.508235	1.198968	0.613870
C123	C	1.758235	1.448968	0.863870
C124	C	2.008235	1.698968	1.113870
C125	C	1.151534	0.944194	0.453142
C126	C	1.401534	1.194194	0.703142
C127	C	1.651534	1.444194	0.953142
C128	C	1.901534	1.694194	1.203142
C129	C	1.151500	0.867335	0.453121
C130	C	1.401500	1.117335	0.703121
C131	C	1.651500	1.367335	0.953121
C132	C	1.901500	1.617335	1.203121
C133	C	1.204830	0.831294	0.408469
C134	C	1.454830	1.081294	0.658469
C135	C	1.704830	1.331294	0.908469
C136	C	1.954830	1.581294	1.158469
C137	C	1.204903	0.985013	0.408513
C138	C	1.454903	1.235013	0.658513
C139	C	1.704903	1.485013	0.908513
C140	C	1.954903	1.735013	1.158513
C141	C	1.204945	1.068349	0.408539
C142	C	1.454945	1.318349	0.658539
C143	C	1.704945	1.568349	0.908539
C144	C	1.954945	1.818349	1.158539
C145	C	1.204789	0.747953	0.408444
C146	C	1.454789	0.997953	0.658444
C147	C	1.704789	1.247953	0.908444
C148	C	1.954789	1.497953	1.158444
C149	C	1.204914	1.216576	0.408498
C150	C	1.454914	1.466576	0.658498
C151	C	1.704914	1.716576	0.908498
C152	C	1.954914	1.966576	1.158498
C153	C	1.204975	1.134780	0.408558
C154	C	1.454975	1.384780	0.658558
C155	C	1.704975	1.634780	0.908558
C156	C	1.954975	1.884780	1.158558
C157	C	1.204799	0.408521	0.217232
C158	C	1.454799	0.658521	0.467232
C159	C	1.704799	0.908521	0.717232
C160	C	1.954799	1.158521	0.967232
C161	C	1.204939	0.408342	0.135440
C162	C	1.454939	0.658342	0.385440
C163	C	1.704939	0.908342	0.635440
C164	C	1.954939	1.158342	0.885440
C165	C	1.258241	0.363737	0.872790
C166	C	1.508241	0.613737	1.122790
C167	C	1.758241	0.863737	1.372790
C168	C	2.008241	1.113737	1.622790
C169	C	1.258251	0.363716	0.949649
C170	C	1.508251	0.613716	1.199649
C171	C	1.758251	0.863716	1.449649
C172	C	2.008251	1.113716	1.699649
C173	C	1.151565	0.453061	0.944837
C174	C	1.401565	0.703061	1.194837
C175	C	1.651565	0.953061	1.444837
C176	C	1.901565	1.203061	1.694837
C177	C	1.151551	0.453078	0.867980
C178	C	1.401551	0.703078	1.117980
C179	C	1.651551	0.953078	1.367980
C180	C	1.901551	1.203078	1.617980
C181	C	1.204894	0.408417	0.831958
C182	C	1.454894	0.658417	1.081958
C183	C	1.704894	0.908417	1.331958
C184	C	1.954894	1.158417	1.581958
C185	C	1.204918	0.408380	0.985675
C186	C	1.454918	0.658380	1.235675
C187	C	1.704918	0.908380	1.485675
C188	C	1.954918	1.158380	1.735675
C189	C	1.204928	0.408357	1.069009
C190	C	1.454928	0.658357	1.319009
C191	C	1.704928	0.908357	1.569009
C192	C	1.954928	1.158357	1.819009
C193	C	1.204883	0.408438	0.748618
C194	C	1.454883	0.658438	0.998618
C195	C	1.704883	0.908438	1.248618
C196	C	1.954883	1.158438	1.498618
H197	H	0.720130	0.469951	0.469678
H198	H	0.970130	0.719951	0.719678
H199	H	1.220130	0.969951	0.969678
H200	H	1.470130	1.219951	1.219678
H201	H	0.690315	0.347154	0.347255
H202	H	0.940315	0.597154	0.597255
H203	H	1.190315	0.847154	0.847255
H204	H	1.440315	1.097154	1.097255
O205	O	1.315724	0.833232	0.315698
O206	O	1.565724	1.083232	0.565698
O207	O	1.815724	1.333232	0.815698
O208	O	2.065724	1.583232	1.065698
H209	H	1.352846	0.874529	0.284680
H210	H	1.602846	1.124529	0.534680
H211	H	1.852846	1.374529	0.784680
H212	H	2.102846	1.624529	1.034680
O213	O	1.093936	0.823311	0.501256
O214	O	1.343936	1.073311	0.751256
O215	O	1.593936	1.323311	1.001256
O216	O	1.843936	1.573311	1.251256
H217	H	1.102881	0.763812	0.493746
H218	H	1.352881	1.013812	0.743746
H219	H	1.602881	1.263812	0.993746
H220	H	1.852881	1.513812	1.243746
H221	H	1.301675	0.327370	0.843463
H222	H	1.551675	0.577370	1.093463
H223	H	1.801675	0.827370	1.343463
H224	H	2.051675	1.077370	1.593463
O225	O	1.093984	0.501255	0.823941
O226	O	1.343984	0.751255	1.073941
O227	O	1.593984	1.001255	1.323941
O228	O	1.843984	1.251255	1.573941
H229	H	1.108238	0.559657	0.839305
H230	H	1.358238	0.809657	1.089305
H231	H	1.608238	1.059657	1.339305
H232	H	1.858238	1.309657	1.589305
O233	O	1.315794	0.315531	0.993692
O234	O	1.565794	0.565531	1.243692
O235	O	1.815794	0.815531	1.493692
O236	O	2.065794	1.065531	1.743692
H237	H	1.352887	0.284485	0.955729
H238	H	1.602887	0.534485	1.205729
H239	H	1.852887	0.784485	1.455729
H240	H	2.102887	1.034485	1.705729
H241	H	1.108137	0.489424	0.974176
H242	H	1.358137	0.739424	1.224176
H243	H	1.608137	0.989424	1.474176
H244	H	1.858137	1.239424	1.724176
H245	H	1.108113	0.973548	0.489494
H246	H	1.358113	1.223548	0.739494
H247	H	1.608113	1.473548	0.989494
H248	H	1.858113	1.723548	1.239494
O249	O	1.315790	0.992992	0.315737
O250	O	1.565790	1.242992	0.565737
O251	O	1.815790	1.492992	0.815737
O252	O	2.065790	1.742992	1.065737
H253	H	1.352861	0.955015	0.284682
H254	H	1.602861	1.205015	0.534682
H255	H	1.852861	1.455015	0.784682
H256	H	2.102861	1.705015	1.034682
