data_functionalizedCrystal
_audit_creation_method	'MofGen! by Chris Wilmer'
_symmetry_space_group_name_H-M	'P1'
_symmetry_Int_Tables_number	1
_symmetry_cell_setting	triclinic
loop_
_symmetry_equiv_pos_as_xyz
  x,y,z
_cell_length_a	21.395362
_cell_length_b	19.077068
_cell_length_c	21.395356
_cell_angle_alpha	92.269849
_cell_angle_beta	89.957023
_cell_angle_gamma	92.343691
loop_
_atom_site_label
_atom_site_type_symbol
_atom_site_fract_x
_atom_site_fract_y
_atom_site_fract_z
Zn1	Zn	0.947857	-0.279924	-0.364584
Zn2	Zn	0.943558	-0.397624	-0.264010
Zn3	Zn	0.843072	-0.279976	-0.259787
Zn4	Zn	0.838838	-0.397620	-0.368715
O5	O	0.893331	-0.338786	-0.314274
O6	O	1.034965	-0.295518	-0.351281
O7	O	0.930201	-0.382041	-0.175773
O8	O	0.860543	-0.181477	-0.270192
O9	O	1.031807	-0.381991	-0.277390
O10	O	0.937528	-0.181439	-0.347186
O11	O	0.856374	-0.295606	-0.172670
O12	O	0.754831	-0.295601	-0.274198
O13	O	0.853327	-0.381984	-0.455844
O14	O	0.751721	-0.382034	-0.354227
O15	O	0.933423	-0.295514	-0.452809
O16	O	0.926095	-0.496116	-0.281396
O17	O	0.849158	-0.496113	-0.358322
C18	C	0.730542	-0.338823	-0.314203
C19	C	0.660900	-0.338856	-0.314188
C20	C	0.626581	-0.383921	-0.355801
C21	C	0.561146	-0.383904	-0.355828
C22	C	0.530032	-0.338829	-0.314231
C23	C	0.564359	-0.293755	-0.272615
C24	C	0.629793	-0.293769	-0.272593
C25	C	0.426511	-0.333169	-0.257624
C26	C	0.361078	-0.333161	-0.257645
C27	C	0.328213	-0.338783	-0.314299
C28	C	0.360789	-0.344429	-0.370934
C29	C	0.426222	-0.344443	-0.370912
C30	C	0.459081	-0.338809	-0.314251
C31	C	0.222943	-0.383832	-0.355945
C32	C	0.157507	-0.383810	-0.355973
C33	C	0.160721	-0.293665	-0.272755
C34	C	0.226156	-0.293683	-0.272732
C35	C	0.257262	-0.338771	-0.314326
C36	C	0.886718	-0.521652	-0.320779
C37	C	0.883946	-0.599883	-0.323583
C38	C	0.922732	-0.636615	-0.284883
C39	C	0.920129	-0.710121	-0.287523
C40	C	0.878736	-0.746895	-0.328862
C41	C	0.839948	-0.710158	-0.367567
C42	C	0.842555	-0.636653	-0.364929
C43	C	0.866643	-0.966733	-0.341047
C44	C	0.864038	-1.040243	-0.343681
C45	C	0.944219	-1.040201	-0.263637
C46	C	0.946820	-0.966695	-0.261000
C47	C	0.908035	-0.929965	-0.299707
N48	N	0.876072	-0.822030	-0.331561
N49	N	0.910702	-0.854831	-0.297011
C50	C	1.056756	-0.338749	-0.314346
C51	C	1.126398	-0.338734	-0.314377
C52	C	0.893382	-0.338743	-0.477696
C53	C	0.893404	-0.338724	-0.547337
C54	C	0.899987	-0.155206	-0.307757
C55	C	0.902824	-0.076975	-0.304980
C56	C	0.854973	-0.293712	-0.578424
C57	C	0.854971	-0.293699	-0.643859
C58	C	0.893412	-0.338690	-0.678204
C59	C	0.931845	-0.383711	-0.647109
C60	C	0.931841	-0.383728	-0.581675
C61	C	0.949667	-0.344206	-0.782106
C62	C	0.949672	-0.344185	-0.847538
C63	C	0.893424	-0.338643	-0.880023
C64	C	0.837169	-0.333108	-0.847067
C65	C	0.837165	-0.333125	-0.781633
C66	C	0.893420	-0.338678	-0.749156
C67	C	0.854988	-0.293614	-0.982062
C68	C	0.854985	-0.293606	-1.047499
C69	C	0.931864	-0.383615	-1.050747
C70	C	0.931862	-0.383627	-0.985312
C71	C	0.893424	-0.338623	-0.950973
C72	C	0.893318	-0.338779	-0.151486
C73	C	0.893425	-0.338599	-0.081839
H74	H	0.248271	-0.420541	-0.389817
C75	C	0.725961	-0.322160	-0.840020
C76	C	0.775334	-0.327016	-0.882764
H77	H	0.687789	-0.318393	-0.862061
H78	H	0.723668	-0.362961	-0.815945
H79	H	0.732937	-0.281825	-0.813072
H80	H	0.768360	-0.367354	-0.909709
H81	H	0.777626	-0.286211	-0.906849
C82	C	0.367084	-0.355545	-0.482918
C83	C	0.324674	-0.350593	-0.433216
H84	H	0.344785	-0.359352	-0.521366
H85	H	0.394105	-0.314762	-0.482320
H86	H	0.391116	-0.395889	-0.478780
H87	H	0.300645	-0.310247	-0.437352
H88	H	0.297642	-0.391381	-0.433815
H89	H	0.951712	-0.740025	-0.256009
C90	C	0.750134	-0.259329	-1.066338
C91	C	0.812735	-0.244124	-1.081667
H92	H	0.724051	-0.228776	-1.087430
H93	H	0.739251	-0.306611	-1.078737
H94	H	0.744645	-0.252898	-1.022452
H95	H	0.818225	-0.250560	-1.125554
H96	H	0.823621	-0.196831	-1.069273
C97	C	0.763038	-0.644073	-0.444313
C98	C	0.799921	-0.596275	-0.407471
H99	H	0.736717	-0.619145	-0.470576
H100	H	0.789310	-0.672692	-0.469336
H101	H	0.738064	-0.672792	-0.418009
H102	H	0.824899	-0.567560	-0.433775
H103	H	0.773646	-0.567644	-0.382446
H104	H	0.657735	-0.257069	-0.238707
H105	H	0.956436	-0.606679	-0.251217
C106	C	0.778984	-0.204739	-0.581791
C107	C	0.812718	-0.244249	-0.540680
H108	H	0.752895	-0.174207	-0.558487
H109	H	0.807262	-0.177806	-0.606373
H110	H	0.753908	-0.235411	-0.608386
H111	H	0.837797	-0.213578	-0.514087
H112	H	0.784436	-0.271184	-0.516087
H113	H	0.452743	-0.349038	-0.417027
C114	C	0.160906	-0.472931	-0.438214
C115	C	0.119781	-0.433353	-0.401716
H116	H	0.137614	-0.503520	-0.466450
H117	H	0.187574	-0.442311	-0.461130
H118	H	0.185415	-0.499812	-0.411813
H119	H	0.095275	-0.406467	-0.428117
H120	H	0.093102	-0.463976	-0.378798
C121	C	0.144887	-0.174440	-0.238166
C122	C	0.126517	-0.244125	-0.227032
H123	H	0.123762	-0.143858	-0.209941
H124	H	0.188761	-0.167995	-0.232187
H125	H	0.134585	-0.164206	-0.279920
H126	H	0.136823	-0.254360	-0.185279
H127	H	0.082632	-0.250573	-0.233006
H128	H	0.539022	-0.257054	-0.238748
H129	H	0.806248	-0.740105	-0.401229
C130	C	0.247448	-0.259253	-0.165454
C131	C	0.263883	-0.244153	-0.226983
H132	H	0.270743	-0.228675	-0.137211
H133	H	0.204031	-0.252791	-0.159519
H134	H	0.256434	-0.306534	-0.157903
H135	H	0.254893	-0.196874	-0.234536
H136	H	0.307310	-0.250610	-0.232921
H137	H	0.334560	-0.328568	-0.211529
C138	C	0.785052	-1.032906	-0.422552
C139	C	0.818541	-1.080667	-0.389130
H140	H	0.756970	-1.057863	-0.450611
H141	H	0.762110	-1.004288	-0.394202
H142	H	0.813366	-1.004183	-0.445518
H143	H	0.790227	-1.109386	-0.366161
H144	H	0.841485	-1.109297	-0.417484
H145	H	0.980525	-0.936755	-0.227339
H146	H	0.823678	-0.257041	-0.669175
C147	C	0.696709	-0.478625	-0.367719
C148	C	0.660775	-0.433472	-0.401527
H149	H	0.717817	-0.509216	-0.395951
H150	H	0.726512	-0.451789	-0.342936
H151	H	0.670164	-0.505503	-0.341348
H152	H	0.687320	-0.406591	-0.427894
H153	H	0.630968	-0.460312	-0.426320
H154	H	0.823690	-0.256970	-0.954102
C155	C	0.966020	-0.423541	-1.152490
C156	C	0.974128	-0.433063	-1.088491
H157	H	0.992117	-0.454065	-1.175792
H158	H	0.923556	-0.433858	-1.163550
H159	H	0.976899	-0.376241	-1.161532
H160	H	0.963244	-0.480362	-1.079448
H161	H	1.016601	-0.422751	-1.077427
C162	C	0.860818	-0.884037	-0.422358
C163	C	0.824004	-0.926371	-0.383591
H164	H	0.834491	-0.859122	-0.448626
H165	H	0.885835	-0.851614	-0.397366
H166	H	0.887089	-0.912668	-0.447382
H167	H	0.797737	-0.897739	-0.358563
H168	H	0.798976	-0.958798	-0.408586
H169	H	0.533199	-0.420601	-0.389717
C170	C	0.765077	-0.386526	-0.709888
C171	C	0.775334	-0.327051	-0.745406
H172	H	0.726906	-0.382775	-0.687520
H173	H	0.762784	-0.427308	-0.736863
H174	H	0.798583	-0.389822	-0.681184
H175	H	0.741830	-0.323757	-0.774113
H176	H	0.777622	-0.286257	-0.718428
H177	H	0.453264	-0.328588	-0.211486
H178	H	0.963138	-0.420382	-0.556364
C179	C	1.021758	-0.290842	-0.706675
C180	C	1.011501	-0.350296	-0.746403
H181	H	1.059929	-0.294605	-0.684632
H182	H	1.024051	-0.250045	-0.730755
H183	H	0.988252	-0.287561	-0.677687
H184	H	1.045004	-0.353574	-0.775394
H185	H	1.009213	-0.391104	-0.722321
C186	C	0.975839	-1.152860	-0.232150
C187	C	0.986861	-1.080577	-0.221103
H188	H	1.002172	-1.177784	-0.205895
H189	H	0.933324	-1.164966	-0.223353
H190	H	0.984556	-1.164853	-0.274694
H191	H	0.978140	-1.068583	-0.178561
H192	H	1.029386	-1.068466	-0.229896
C193	C	1.007859	-0.472584	-0.995097
C194	C	0.974115	-0.433097	-0.951136
H195	H	1.033947	-0.503123	-0.973997
H196	H	0.979586	-0.499508	-1.021552
H197	H	1.032935	-0.441898	-1.019550
H198	H	0.949035	-0.463783	-0.926687
H199	H	1.002391	-0.406171	-0.924670
C200	C	1.052396	-0.293822	-0.865946
C201	C	1.011511	-0.350263	-0.883751
H202	H	1.090577	-0.297577	-0.888296
H203	H	1.033919	-0.250982	-0.875140
H204	H	1.060428	-0.294636	-0.822325
H205	H	1.003475	-0.349446	-0.927371
H206	H	1.029992	-0.393114	-0.874561
C207	C	1.036701	-0.417968	-0.668539
C208	C	0.974102	-0.433167	-0.684856
H209	H	1.062786	-0.448506	-0.691839
H210	H	1.047582	-0.370679	-0.677593
H211	H	1.042188	-0.424422	-0.625118
H212	H	0.968613	-0.426708	-0.728276
H213	H	0.963217	-0.480467	-0.675806
