data_functionalizedCrystal
_audit_creation_method	'MofGen! by Chris Wilmer'
_symmetry_space_group_name_H-M	'P1'
_symmetry_Int_Tables_number	1
_symmetry_cell_setting	triclinic
loop_
_symmetry_equiv_pos_as_xyz
  x,y,z
_cell_length_a	10.540510
_cell_length_b	10.723022
_cell_length_c	9.798715
_cell_angle_alpha	90.002605
_cell_angle_beta	89.996061
_cell_angle_gamma	95.509732
loop_
_atom_site_label
_atom_site_type_symbol
_atom_site_fract_x
_atom_site_fract_y
_atom_site_fract_z
O1	O	1.685817	-0.175685	-0.113498
O2	O	1.316390	-0.192293	-0.113499
O3	O	1.509626	-0.002416	-0.113491
O4	O	1.492581	-0.365562	-0.113505
O5	O	1.509611	-0.002416	0.113491
O6	O	1.316376	-0.192293	0.113484
O7	O	1.685802	-0.175684	0.113484
Zn8	Zn	1.501087	-0.183989	0.149522
Zn9	Zn	1.501106	-0.183989	-0.149537
O10	O	1.492567	-0.365562	0.113477
C11	C	1.269080	-0.191055	-0.000008
C12	C	1.128132	-0.187353	-0.000008
C13	C	0.910608	-0.319260	-0.000534
C14	C	1.057202	-0.323209	-0.000015
C15	C	1.083400	-0.117807	0.129610
C16	C	0.936641	-0.114819	0.129710
C17	C	0.936852	-0.111990	-0.128411
C18	C	1.083190	-0.118434	-0.130116
C19	C	1.508379	0.044084	-0.000001
C20	C	1.504669	0.182640	-0.000004
C21	C	1.608956	0.400778	-0.000008
C22	C	1.612793	0.257573	-0.000005
C23	C	1.733112	-0.176922	-0.000010
C24	C	1.874060	-0.180625	-0.000019
C25	C	1.493814	0.587938	-0.000013
C26	C	1.497524	0.449382	-0.000010
N27	N	1.501083	-0.183987	0.353622
N28	N	1.501120	-0.183981	-0.353636
C29	C	1.582217	-0.103912	0.421402
C30	C	1.582238	-0.103907	0.578565
H31	H	1.132310	-0.019249	-0.137939
H32	H	1.651705	-0.035356	0.636853
H33	H	1.086525	-0.377617	-0.092933
H34	H	0.868633	-0.372188	-0.093491
H35	H	1.708201	0.215724	-0.000052
H36	H	0.867068	-0.371883	0.091891
H37	H	1.409257	0.224481	-0.000013
H38	H	0.914752	-0.009989	-0.129283
H39	H	1.431658	-0.252545	0.588085
H40	H	1.431631	-0.252536	0.411944
H41	H	1.651661	-0.035353	0.363082
H42	H	1.085571	-0.377947	0.093052
H43	H	1.701517	0.465184	-0.000001
H44	H	1.404963	0.384976	-0.000000
H45	H	0.896393	-0.162347	0.226597
H46	H	0.913698	-0.013207	0.135602
H47	H	1.114223	-0.166105	0.226068
H48	H	1.130842	-0.017792	0.134435
H49	H	0.894288	-0.154834	-0.226654
H50	H	1.111788	-0.169035	-0.226006
