data_functionalizedCrystal
_audit_creation_method	'MofGen! by Chris Wilmer'
_symmetry_space_group_name_H-M	'P1'
_symmetry_Int_Tables_number	1
_symmetry_cell_setting	triclinic
loop_
_symmetry_equiv_pos_as_xyz
  x,y,z
_cell_length_a	21.606444
_cell_length_b	18.760492
_cell_length_c	21.606444
_cell_angle_alpha	59.998298
_cell_angle_beta	90.000833
_cell_angle_gamma	59.999773
loop_
_atom_site_label
_atom_site_type_symbol
_atom_site_fract_x
_atom_site_fract_y
_atom_site_fract_z
Zr1	Zr	0.596193	0.780286	-0.081269
O2	O	0.497361	0.928999	-0.180098
O3	O	0.626493	0.631574	-0.050970
O4	O	0.626482	0.780293	-0.180097
O5	O	0.497377	0.780275	0.050884
O6	O	0.728332	0.780298	-0.180101
O7	O	0.497372	0.780280	-0.050970
O8	O	0.728352	0.514267	0.050884
O9	O	0.497357	1.046306	-0.180101
O10	O	0.715422	0.692745	-0.038055
O11	O	0.639416	0.692738	0.037961
O12	O	0.639403	0.867835	-0.114070
O13	O	0.563398	0.867827	-0.038055
Zr14	Zr	0.758640	0.780286	0.081170
Zr15	Zr	0.758631	0.780294	-0.081275
Zr16	Zr	0.596201	0.780278	0.081176
Zr17	Zr	0.596187	0.967378	-0.081276
Zr18	Zr	0.758645	0.593195	0.081176
O19	O	0.728339	0.928999	0.050871
O20	O	0.728327	0.929010	-0.180106
O21	O	0.497372	0.928987	0.050879
O22	O	0.857472	0.631574	0.179998
O23	O	0.857460	0.631585	-0.050978
O24	O	0.626505	0.631562	0.180007
O25	O	0.857455	0.780298	-0.050983
O26	O	0.728350	0.780280	0.179998
O27	O	0.626500	0.780275	0.180002
O28	O	0.857461	0.780293	0.050871
O29	O	0.626474	1.046312	-0.180106
O30	O	0.728358	0.514260	0.180007
O31	O	0.857475	0.514267	0.180002
O32	O	0.857469	0.514273	0.050879
O33	O	0.497363	1.046300	-0.050979
O34	O	0.626480	1.046306	-0.050983
O35	O	0.715429	0.692738	0.113971
O36	O	0.791435	0.692745	0.037955
O37	O	0.715416	0.867835	-0.038060
O38	O	0.639411	0.867827	0.037955
C39	C	0.677423	0.546264	-0.000042
C40	C	0.677426	0.466839	-0.000040
C41	C	0.474230	0.780276	-0.000042
C42	C	0.405271	0.780273	-0.000040
C43	C	0.412553	0.688878	0.039637
C44	C	0.347755	0.688881	0.039637
C45	C	0.275677	0.780279	-0.000043
C46	C	0.268397	0.871681	-0.039721
C47	C	0.333193	0.871677	-0.039717
C48	C	0.007079	0.871698	-0.039738
C49	C	-0.057719	0.871695	-0.039741
C50	C	0.021640	0.688903	0.039616
C51	C	0.086437	0.688899	0.039621
C52	C	0.079151	0.780300	-0.000054
C53	C	0.149413	0.780295	-0.000053
C54	C	0.205417	0.780285	-0.000049
C55	C	0.637732	0.131040	0.039623
C56	C	0.717083	0.131053	-0.039739
C57	C	0.717089	0.205668	-0.039734
C58	C	0.677415	0.242974	-0.000052
C59	C	0.637735	0.205665	0.039627
C60	C	0.756762	0.242990	-0.079418
C61	C	0.756768	0.317611	-0.079416
C62	C	0.717098	0.354913	-0.039728
C63	C	0.677418	0.317599	-0.000048
C64	C	0.637743	0.354905	0.039635
C65	C	0.598067	0.317586	0.079320
C66	C	0.598065	0.242967	0.079314
C67	C	0.717100	0.429533	-0.039722
C68	C	0.637746	0.429529	0.039639
C69	C	0.880602	0.780296	-0.000057
C70	C	0.949561	0.780300	-0.000060
C71	C	0.677406	0.780296	-0.203244
C72	C	0.677402	0.780300	-0.272207
C73	C	0.677409	1.014309	-0.000057
C74	C	0.677406	1.093734	-0.000060
C75	C	0.637721	0.871694	-0.344285
C76	C	0.637728	0.871691	-0.409080
C77	C	0.677411	0.780293	-0.401795
C78	C	0.717098	0.688892	-0.329709
C79	C	0.717095	0.688896	-0.264916
C80	C	0.717110	0.688874	-0.591012
C81	C	0.717107	0.688877	-0.655813
C82	C	0.637742	0.871670	-0.735176
C83	C	0.637740	0.871674	-0.670382
C84	C	0.677429	0.780273	-0.598303
C85	C	0.677422	0.780277	-0.528045
C86	C	0.677414	0.780288	-0.472051
C87	C	0.677426	0.780276	0.203145
C88	C	0.677430	0.780273	0.272107
C89	C	0.880609	0.546274	-0.000049
C90	C	0.949571	0.466852	-0.000049
C91	C	0.677434	0.546254	0.203152
C92	C	0.677440	0.466825	0.272117
C93	C	0.880620	0.546264	0.203145
C94	C	0.949585	0.466839	0.272108
C95	C	0.474213	1.014309	-0.203244
C96	C	0.405247	1.093734	-0.272207
C97	C	0.474223	1.014299	-0.000050
C98	C	0.405261	1.093721	-0.000050
C99	C	0.677399	1.014319	-0.203252
C100	C	0.677393	1.093747	-0.272217
C101	C	0.942278	0.429555	-0.039733
C102	C	1.007069	0.354940	-0.039748
C103	C	1.079152	0.317619	-0.000075
C104	C	1.086443	0.354923	0.039610
C105	C	1.021653	0.429542	0.039620
C106	C	0.717121	0.429525	0.344187
C107	C	0.717123	0.354904	0.408993
C108	C	0.677449	0.317579	0.401728
C109	C	0.637763	0.354887	0.329651
C110	C	0.637757	0.429512	0.264846
C111	C	1.021653	0.429544	0.264814
C112	C	1.086459	0.354926	0.329605
C113	C	1.079196	0.317599	0.401690
C114	C	1.007121	0.354901	0.408982
C115	C	0.942316	0.429523	0.344191
C116	C	0.333180	1.131038	-0.264913
C117	C	0.268373	1.205679	-0.329705
C118	C	0.275636	1.243010	-0.401789
C119	C	0.347711	1.205703	-0.409081
C120	C	0.412516	1.131068	-0.344290
C121	C	0.412554	1.131026	0.039626
C122	C	0.347763	1.205661	0.039624
C123	C	0.275680	1.242985	-0.000051
C124	C	0.268389	1.205677	-0.039733
C125	C	0.333179	1.131048	-0.039734
C126	C	0.717075	1.131048	-0.264927
C127	C	0.717084	1.205670	-0.329721
C128	C	0.677406	1.242994	-0.401803
C129	C	0.637723	1.205686	-0.409092
C130	C	0.637719	1.131061	-0.344299
H131	H	0.471239	0.614451	0.071953
Br132	Br	0.170576	0.995723	-0.093567
H133	H	0.749385	1.100670	-0.206240
Br134	Br	1.031531	0.480190	0.166993
H135	H	0.327260	0.946100	-0.072016
H136	H	0.883591	0.459941	-0.072048
Br137	Br	1.184277	0.304259	0.093450
H138	H	0.605401	0.946121	-0.350225
H139	H	0.749413	0.614474	-0.323782
Br140	Br	0.583852	1.080456	-0.354206
Br141	Br	0.770915	0.080433	-0.093600
H142	H	0.677416	1.303760	-0.454556
Br143	Br	-0.155544	0.995744	-0.093598
H144	H	0.471195	1.100696	-0.350238
H145	H	1.145140	0.324562	0.323654
H146	H	1.131902	0.256859	-0.000089
Br147	Br	0.583871	1.256361	-0.506924
H148	H	0.789059	0.212618	-0.111731
H149	H	0.565762	0.212575	0.111624
H150	H	1.131971	0.256837	0.454440
H151	H	0.145124	0.614473	0.071930
Br152	Br	1.031565	0.480146	0.093485
Br153	Br	0.357676	1.256275	0.093483
H154	H	0.027566	0.614480	0.071923
Br155	Br	0.997156	0.304326	-0.093607
H156	H	0.222861	1.303782	-0.454539
H157	H	0.749400	0.459919	-0.072038
Br158	Br	-0.002817	0.995743	-0.093583
H159	H	0.353691	0.614459	0.071947
Br160	Br	0.770940	1.256290	-0.319812
H161	H	0.605462	0.324486	0.323746
Br162	Br	0.997277	0.304233	0.506817
Br163	Br	0.770975	0.480158	0.354069
Br164	Br	0.583877	0.995717	-0.833003
Br165	Br	0.323268	1.080424	-0.093582
Br166	Br	0.544217	0.368234	0.133165
H167	H	0.605431	0.100649	0.071936
Br168	Br	0.583907	0.480145	0.093504
H169	H	0.883638	0.459879	0.350140
H170	H	0.789076	0.347990	-0.111729
H171	H	0.677461	0.256815	0.454502
H172	H	0.222930	1.303753	-0.000044
Br173	Br	0.583872	0.995732	-0.506900
Br174	Br	0.323302	1.080389	-0.167093
H175	H	0.605422	0.946100	-0.676321
Br176	Br	0.770967	0.564828	-0.645923
Br177	Br	0.770988	0.304286	0.506803
Br178	Br	0.170567	1.256292	-0.319790
H179	H	0.605446	0.459872	0.206166
Br180	Br	0.770939	0.564830	-0.493198
Br181	Br	0.510373	1.080391	0.093475
H182	H	0.209690	1.236077	-0.072035
Br183	Br	0.770962	0.564855	-0.167093
Br184	Br	0.357555	1.256374	-0.506916
