data_functionalizedCrystal
_audit_creation_method	'MofGen! by Chris Wilmer'
_symmetry_space_group_name_H-M	'P1'
_symmetry_Int_Tables_number	1
_symmetry_cell_setting	triclinic
loop_
_symmetry_equiv_pos_as_xyz
  x,y,z
_cell_length_a	15.297327
_cell_length_b	15.297476
_cell_length_c	13.032268
_cell_angle_alpha	88.674854
_cell_angle_beta	105.380838
_cell_angle_gamma	91.626159
loop_
_atom_site_label
_atom_site_type_symbol
_atom_site_fract_x
_atom_site_fract_y
_atom_site_fract_z
Zn1	Zn	-0.664847	1.159254	-0.956033
Zn2	Zn	-0.798172	1.152453	-0.806640
Zn3	Zn	-0.621238	1.038707	-0.748449
Zn4	Zn	-0.784991	0.988661	-0.945908
O5	O	-0.717312	1.084769	-0.864257
O6	O	-0.706300	1.277348	-0.964806
O7	O	-0.761967	1.155462	-0.653761
O8	O	-0.502695	1.078489	-0.755869
O9	O	-0.804253	1.272351	-0.855048
O10	O	-0.534734	1.167054	-0.908381
O11	O	-0.631974	1.071894	-0.611009
O12	O	-0.619194	0.913072	-0.746051
O13	O	-0.781789	0.993193	-1.092410
O14	O	-0.739503	0.876304	-0.891124
O15	O	-0.693519	1.118526	-1.099849
O16	O	-0.920752	1.106935	-0.845230
O17	O	-0.911068	0.986598	-0.947549
C18	C	-0.673186	0.863833	-0.811175
C19	C	-0.654333	0.769309	-0.788494
C20	C	-0.582748	0.744028	-0.702392
C21	C	-0.565032	0.655219	-0.681080
C22	C	-0.618894	0.591681	-0.745872
C23	C	-0.690476	0.616961	-0.831981
C24	C	-0.708199	0.705779	-0.853290
C25	C	-0.744345	0.553432	-0.896770
C26	C	-0.815927	0.578712	-0.982879
C27	C	-0.833646	0.667522	-1.004185
C28	C	-0.779784	0.731060	-0.939392
C29	C	-0.726622	0.464614	-0.875461
C30	C	-0.852073	0.426365	-1.026359
C31	C	-0.869789	0.515174	-1.047671
C32	C	-0.948153	1.040618	-0.901633
C33	C	-1.046927	1.021803	-0.917676
C34	C	-1.345447	1.219546	-0.750034
C35	C	-1.252644	1.237224	-0.734955
C36	C	-1.201210	1.183370	-0.780634
C37	C	-1.242589	1.111836	-0.841394
C38	C	-1.335399	1.094153	-0.856467
C39	C	-1.191162	1.057977	-0.887068
C40	C	-1.232540	0.986442	-0.947828
C41	C	-1.325342	0.968763	-0.962899
C42	C	-1.376776	1.022616	-0.917220
C43	C	-1.098352	1.075660	-0.871995
C44	C	-1.088304	0.950267	-0.978429
C45	C	-1.181107	0.932589	-0.993507
C46	C	-0.485576	1.129113	-0.826764
C47	C	-0.386824	1.148010	-0.810786
C48	C	-0.741048	1.051036	-1.134820
C49	C	-0.751163	1.036660	-1.250118
C50	C	-0.761611	1.306567	-0.917548
C51	C	-0.780488	1.401084	-0.940257
C52	C	-0.711999	1.092264	-1.305202
C53	C	-0.722452	1.077408	-1.424368
C54	C	-0.693614	1.118432	-0.594748
C55	C	-0.683282	1.133020	-0.479450
H56	H	-0.604465	0.519369	-0.728515
O57	O	-0.495552	0.630787	-0.597315
C58	C	-0.510122	0.661681	-0.502236
H59	H	-0.556961	0.719898	-0.521058
H60	H	-0.442482	0.682793	-0.446176
H61	H	-0.542701	0.607334	-0.462591
H62	H	-1.214810	0.874345	-1.042978
H63	H	-0.538905	0.795767	-0.649643
O64	O	-0.797055	0.817339	-0.959933
C65	C	-0.816897	0.855057	-0.871242
H66	H	-0.841595	0.801828	-0.822268
H67	H	-0.872003	0.905419	-0.899733
H68	H	-0.753138	0.888425	-0.820007
O69	O	-0.939426	0.539625	-1.131257
C70	C	-1.021619	0.503862	-1.117532
H71	H	-1.007045	0.443998	-1.062472
H72	H	-1.067518	0.483882	-1.198062
H73	H	-1.056757	0.554786	-1.080965
O74	O	-0.903095	0.692040	-1.087949
C75	C	-0.888575	0.661131	-1.183046
H76	H	-0.813202	0.649620	-1.171071
H77	H	-0.912449	0.711683	-1.249546
H78	H	-0.928330	0.597098	-1.205419
O79	O	-0.657139	0.440169	-0.791708
C80	C	-0.671687	0.471046	-0.696611
H81	H	-0.718518	0.529270	-0.715405
H82	H	-0.604040	0.492143	-0.640557
H83	H	-0.704267	0.416695	-0.656972
H84	H	-0.895933	0.374631	-1.079118
O85	O	-1.058240	1.145103	-0.812843
C86	C	-1.068181	1.135134	-0.708675
H87	H	-1.128873	1.089872	-0.709591
H88	H	-1.079506	1.201729	-0.677482
H89	H	-1.004204	1.105742	-0.654721
H90	H	-1.125646	1.197767	-0.768352
H91	H	-0.763717	1.018797	-1.465425
O92	O	-1.038345	0.898065	-1.022942
C93	C	-1.000122	0.948323	-1.092860
H94	H	-1.041972	1.009167	-1.119955
H95	H	-0.999917	0.907766	-1.165087
H96	H	-0.927571	0.968673	-1.050077
O97	O	-0.662690	1.162085	-1.256074
C98	C	-0.590164	1.132412	-1.172499
H99	H	-0.607220	1.063967	-1.145963
H100	H	-0.578541	1.178761	-1.102659
H101	H	-0.526087	1.130513	-1.201293
O102	O	-1.466959	1.005504	-0.932056
C103	C	-1.510973	1.008964	-1.041756
H104	H	-1.468594	1.050847	-1.084876
H105	H	-1.580516	1.038855	-1.054252
H106	H	-1.519399	0.939991	-1.074846
O107	O	-0.633951	1.202838	-1.430335
C108	C	-0.561424	1.173149	-1.346773
H109	H	-0.578496	1.104712	-1.320228
H110	H	-0.549771	1.219503	-1.276934
H111	H	-0.497358	1.171224	-1.375586
O112	O	-0.800525	0.966844	-1.299185
C113	C	-0.873021	0.996523	-1.382792
H114	H	-0.889032	1.066497	-1.367055
H115	H	-0.935371	0.952522	-1.387801
H116	H	-0.853285	0.994547	-1.461127
H117	H	-1.218957	1.295465	-0.685484
H118	H	-1.359026	0.910506	-1.012359
O119	O	-1.395541	1.271764	-0.705741
C120	C	-1.486315	1.240788	-0.732029
H121	H	-1.500451	1.200526	-0.807437
H122	H	-1.533652	1.298637	-0.746023
H123	H	-1.498244	1.198154	-0.663887
