data_functionalizedCrystal
_audit_creation_method	'MofGen! by Chris Wilmer'
_symmetry_space_group_name_H-M	'P1'
_symmetry_Int_Tables_number	1
_symmetry_cell_setting	triclinic
loop_
_symmetry_equiv_pos_as_xyz
  x,y,z
_cell_length_a	11.026607
_cell_length_b	11.792241
_cell_length_c	9.482900
_cell_angle_alpha	99.398500
_cell_angle_beta	78.636152
_cell_angle_gamma	96.389716
loop_
_atom_site_label
_atom_site_type_symbol
_atom_site_fract_x
_atom_site_fract_y
_atom_site_fract_z
O1	O	1.632118	0.461983	-0.120906
O2	O	2.132118	0.961983	0.379094
O3	O	1.278456	0.407791	-0.120907
O4	O	1.778456	0.907791	0.379093
O5	O	1.463868	0.271422	-0.120897
O6	O	1.963868	0.771422	0.379103
O7	O	1.446706	0.598353	-0.120917
O8	O	1.946706	1.098353	0.379083
O9	O	1.426207	0.299264	0.120894
O10	O	1.926207	0.799264	0.620894
O11	O	1.240795	0.435633	0.120883
O12	O	1.740795	0.935633	0.620883
O13	O	1.594458	0.489825	0.120884
O14	O	2.094458	0.989825	0.620884
Cu15	Cu	1.414188	0.465271	0.142961
Cu16	Cu	1.914188	0.965271	0.642961
Cu17	Cu	1.458726	0.432345	-0.142984
Cu18	Cu	1.958726	0.932345	0.357016
O19	O	1.409046	0.626195	0.120873
O20	O	1.909046	1.126195	0.620873
C21	C	1.214349	0.411715	-0.000012
C22	C	1.714349	0.911715	0.499988
C23	C	1.079439	0.381912	-0.000012
C24	C	1.579439	0.881912	0.499988
C25	C	1.006176	0.464202	-0.000018
C26	C	1.506176	0.964202	0.499982
C27	C	0.866739	0.433401	-0.000018
C28	C	1.366739	0.933401	0.499982
C29	C	1.443960	0.242838	-0.000002
C30	C	1.943960	0.742838	0.499998
C31	C	1.440733	0.116183	-0.000003
C32	C	1.940733	0.616183	0.499997
C33	C	1.434802	-0.115710	-0.000028
C34	C	1.934802	0.384290	0.499972
C35	C	1.438097	0.013331	-0.000014
C36	C	1.938097	0.513331	0.499986
C37	C	1.658565	0.485901	-0.000014
C38	C	2.158565	0.985901	0.499986
C39	C	1.793477	0.515703	-0.000024
C40	C	2.293477	1.015703	0.499976
C41	C	1.428955	0.654778	-0.000025
C42	C	1.928955	1.154778	0.499975
C43	C	1.432183	0.781432	-0.000033
C44	C	1.932183	1.281432	0.499967
N45	N	1.382871	0.488431	0.344079
N46	N	1.882871	0.988431	0.844079
N47	N	1.490052	0.409178	-0.344102
N48	N	1.990052	0.909178	0.155898
C49	C	1.449480	0.439169	0.416282
C50	C	1.949480	0.939169	0.916282
C51	C	1.423433	0.458448	0.583698
C52	C	1.923433	0.958448	1.083698
H53	H	0.826244	0.340138	-0.000049
H54	H	1.326244	0.840138	0.499951
Cl55	Cl	1.265045	0.575580	0.439986
Cl56	Cl	1.765045	1.075580	0.939986
H57	H	0.833974	0.608964	-0.000020
H58	H	1.333974	1.108964	0.499980
Cl59	Cl	1.567024	0.351703	0.320376
Cl60	Cl	2.067024	0.851703	0.820376
Cl61	Cl	1.016911	0.237933	0.000007
Cl62	Cl	1.516911	0.737933	0.500007
Cl63	Cl	1.068702	0.608183	-0.000023
Cl64	Cl	1.568702	1.108183	0.499977
H65	H	1.347114	0.514896	0.645818
H66	H	1.847114	1.014896	1.145818
H67	H	1.566362	0.352721	0.593777
H68	H	2.066362	0.852721	1.093777
