data_functionalizedCrystal
_audit_creation_method	'MofGen! by Chris Wilmer'
_symmetry_space_group_name_H-M	'P1'
_symmetry_Int_Tables_number	1
_symmetry_cell_setting	triclinic
loop_
_symmetry_equiv_pos_as_xyz
  x,y,z
_cell_length_a	12.594517
_cell_length_b	13.032721
_cell_length_c	13.033429
_cell_angle_alpha	89.068252
_cell_angle_beta	97.160047
_cell_angle_gamma	97.204386
loop_
_atom_site_label
_atom_site_type_symbol
_atom_site_fract_x
_atom_site_fract_y
_atom_site_fract_z
Zn1	Zn	1.501909	-0.335506	-0.633494
Zn2	Zn	1.496124	-0.529360	-0.483356
Zn3	Zn	1.343317	-0.357403	-0.461539
Zn4	Zn	1.298824	-0.507440	-0.655268
O5	O	1.410044	-0.432427	-0.558414
O6	O	1.650084	-0.361230	-0.613596
O7	O	1.492054	-0.524887	-0.336552
O8	O	1.385397	-0.210579	-0.466107
O9	O	1.645834	-0.503654	-0.503290
O10	O	1.501914	-0.194491	-0.592441
O11	O	1.379787	-0.398551	-0.320524
O12	O	1.188473	-0.377297	-0.487220
O13	O	1.309564	-0.466295	-0.796289
O14	O	1.155784	-0.487528	-0.629551
O15	O	1.458770	-0.339976	-0.780292
O16	O	1.448910	-0.670372	-0.524403
O17	O	1.303954	-0.654268	-0.650706
C18	C	1.371003	-0.699634	-0.592307
C19	C	1.354394	-0.813941	-0.606841
C20	C	1.133509	-0.432411	-0.558381
C21	C	1.015200	-0.432425	-0.558395
C22	C	1.418763	-0.872831	-0.550875
C23	C	1.401599	-0.990974	-0.565895
C24	C	0.963695	-0.372360	-0.481100
C25	C	0.882056	-0.469385	-0.467710
C26	C	0.886031	-0.335444	-0.571808
C27	C	0.935118	-0.529506	-0.544962
C28	C	0.939104	-0.395496	-0.649096
C29	C	0.857484	-0.492581	-0.635750
C30	C	1.687658	-0.432445	-0.558448
C31	C	1.805961	-0.432452	-0.558462
C32	C	1.379849	-0.398248	-0.826648
C33	C	1.366982	-0.383683	-0.940953
C34	C	1.449264	-0.164175	-0.524412
C35	C	1.465977	-0.049862	-0.509922
C36	C	1.403499	-0.424659	-1.117983
C37	C	1.416799	-0.439707	-0.999842
C38	C	1.440193	-0.466400	-0.291215
C39	C	1.453309	-0.480675	-0.176873
H40	H	1.486583	-0.835786	-0.491844
Br41	Br	1.288567	-1.052704	-0.664307
H42	H	1.505804	-0.539770	-1.139828
H43	H	1.469297	-0.498806	-0.962801
Br44	Br	1.241367	-0.875676	-0.705248
H45	H	1.314494	-0.324574	-0.977991
Br46	Br	1.040450	-0.287803	-0.372052
Br47	Br	1.579025	-0.988132	-0.411526
H48	H	0.956912	-0.611568	-0.533559
Br49	Br	0.839905	-0.521478	-0.339918
Br50	Br	0.781028	-0.577368	-0.744763
Br51	Br	0.981303	-0.343367	-0.776851
Br52	Br	0.849488	-0.198730	-0.590669
Br53	Br	1.316018	-0.326144	-1.179714
