data_functionalizedCrystal
_audit_creation_method	'MofGen! by Chris Wilmer'
_symmetry_space_group_name_H-M	'P1'
_symmetry_Int_Tables_number	1
_symmetry_cell_setting	triclinic
loop_
_symmetry_equiv_pos_as_xyz
  x,y,z
_cell_length_a	19.805407
_cell_length_b	18.050590
_cell_length_c	19.805398
_cell_angle_alpha	89.971550
_cell_angle_beta	89.986879
_cell_angle_gamma	90.018553
loop_
_atom_site_label
_atom_site_type_symbol
_atom_site_fract_x
_atom_site_fract_y
_atom_site_fract_z
Zn1	Zn	1.034730	-0.295669	-0.382720
Zn2	Zn	1.534730	0.204331	0.117280
Zn3	Zn	1.034673	-0.419864	-0.269532
Zn4	Zn	1.534673	0.080136	0.230468
Zn5	Zn	0.921557	-0.295692	-0.269545
Zn6	Zn	1.421557	0.204308	0.230455
Zn7	Zn	0.921523	-0.419822	-0.382679
Zn8	Zn	1.421523	0.080178	0.117321
O9	O	0.978121	-0.357762	-0.326119
O10	O	1.478121	0.142238	0.173881
O11	O	1.129439	-0.312152	-0.367718
O12	O	1.629439	0.187848	0.132282
O13	O	1.019658	-0.403419	-0.174817
O14	O	1.519658	0.096581	0.325183
O15	O	0.936607	-0.191764	-0.284580
O16	O	1.436607	0.308236	0.215420
O17	O	1.129397	-0.403397	-0.284559
O18	O	1.629397	0.096603	0.215441
O19	O	1.019755	-0.191748	-0.367730
O20	O	1.519755	0.308252	0.132270
O21	O	0.936552	-0.312190	-0.174827
O22	O	1.436552	0.187810	0.325173
O23	O	0.826836	-0.312150	-0.284540
O24	O	1.326836	0.187850	0.215460
O25	O	0.936550	-0.403326	-0.477401
O26	O	1.436550	0.096674	0.022599
O27	O	0.826811	-0.403348	-0.367660
O28	O	1.326811	0.096652	0.132340
O29	O	1.019722	-0.312111	-0.477432
O30	O	1.519722	0.187889	0.022568
O31	O	1.019625	-0.523783	-0.284519
O32	O	1.519625	-0.023783	0.215481
O33	O	0.936495	-0.523752	-0.367648
O34	O	1.436495	-0.023752	0.132352
C35	C	0.802265	-0.357747	-0.326097
C36	C	1.302265	0.142253	0.173903
C37	C	0.727033	-0.357759	-0.326104
C38	C	1.227033	0.142241	0.173896
C39	C	0.691693	-0.405317	-0.369314
C40	C	1.191693	0.094683	0.130686
C41	C	0.621005	-0.405319	-0.369324
C42	C	1.121005	0.094681	0.130676
C43	C	0.585657	-0.357765	-0.326119
C44	C	1.085657	0.142235	0.173881
C45	C	0.621001	-0.310202	-0.282907
C46	C	1.121001	0.189798	0.217093
C47	C	0.691688	-0.310197	-0.282902
C48	C	1.191688	0.189803	0.217098
C49	C	0.335928	-0.310218	-0.282930
C50	C	0.835928	0.189782	0.217070
C51	C	0.265236	-0.310228	-0.282937
C52	C	0.765236	0.189772	0.217063
C53	C	0.265244	-0.405340	-0.369352
C54	C	0.765244	0.094660	0.130648
C55	C	0.335932	-0.405335	-0.369346
C56	C	0.835932	0.094665	0.130654
C57	C	0.371270	-0.357769	-0.326137
C58	C	0.871270	0.142231	0.173863
C59	C	0.447918	-0.357767	-0.326128
C60	C	0.947918	0.142233	0.173872
C61	C	0.509010	-0.357770	-0.326124
C62	C	1.009010	0.142230	0.173876
C63	C	0.978069	-0.550714	-0.326092
C64	C	1.478069	-0.050714	0.173908
C65	C	0.978108	-0.633259	-0.326103
C66	C	1.478108	-0.133259	0.173897
C67	C	1.023409	-0.832700	-0.280961
C68	C	1.523409	-0.332700	0.219039
C69	C	1.039934	-0.882032	-0.342736
C70	C	1.539934	-0.382032	0.157264
C71	C	0.978147	-0.784390	-0.326130
C72	C	1.478147	-0.284390	0.173870
C73	C	0.961690	-0.882139	-0.264383
C74	C	1.461690	-0.382139	0.235617
C75	C	0.978185	-0.930375	-0.326151
C76	C	1.478185	-0.430375	0.173849
C77	C	0.994704	-0.832635	-0.387938
C78	C	1.494704	-0.332635	0.112062
C79	C	0.916431	-0.832737	-0.309543
C80	C	1.416431	-0.332737	0.190457
C81	C	0.932933	-0.882048	-0.371361
C82	C	1.432933	-0.382048	0.128639
C83	C	0.978126	-0.700292	-0.326118
C84	C	1.478126	-0.200292	0.173882
C85	C	0.978205	-1.014471	-0.326171
C86	C	1.478205	-0.514471	0.173829
C87	C	1.154663	-0.357776	-0.326142
C88	C	1.654663	0.142224	0.173858
C89	C	1.229895	-0.357783	-0.326151
C90	C	1.729895	0.142217	0.173849
C91	C	0.978139	-0.357711	-0.502662
C92	C	1.478139	0.142289	-0.002662
C93	C	0.978146	-0.357690	-0.577894
C94	C	1.478146	0.142310	-0.077894
C95	C	0.978191	-0.164056	-0.326161
C96	C	1.478191	0.335944	0.173839
C97	C	0.978221	-0.081510	-0.326179
C98	C	1.478221	0.418490	0.173821
C99	C	1.021526	-0.405074	-1.039678
C100	C	1.521526	0.094926	-0.539678
C101	C	1.021507	-0.405095	-0.968990
C102	C	1.521507	0.094905	-0.468990
C103	C	0.978230	-0.357606	-0.933656
C104	C	1.478230	0.142394	-0.433656
C105	C	0.934964	-0.310100	-0.969015
C106	C	1.434964	0.189900	-0.469015
C107	C	0.934980	-0.310084	-1.039702
C108	C	1.434980	0.189916	-0.539702
C109	C	0.934899	-0.310163	-0.683941
C110	C	1.434899	0.189837	-0.183941
C111	C	0.934888	-0.310181	-0.613249
C112	C	1.434888	0.189819	-0.113249
C113	C	1.021426	-0.405174	-0.613229
C114	C	1.521426	0.094826	-0.113229
C115	C	1.021442	-0.405158	-0.683916
C116	C	1.521442	0.094842	-0.183916
C117	C	0.978174	-0.357655	-0.719269
C118	C	1.478174	0.142345	-0.219269
C119	C	0.978194	-0.357635	-0.795917
C120	C	1.478194	0.142365	-0.295917
C121	C	0.978213	-0.357622	-0.857009
C122	C	1.478213	0.142378	-0.357009
C123	C	0.978142	-0.357758	-0.150263
C124	C	1.478142	0.142242	0.349737
C125	C	0.978265	-0.357570	-0.075032
C126	C	1.478265	0.142430	0.424968
H127	H	0.236464	-0.444067	-0.404537
H128	H	0.736464	0.055933	0.095463
H129	H	0.720468	-0.444044	-0.404494
H130	H	1.220468	0.055956	0.095506
H131	H	1.061698	-0.811031	-0.242803
H132	H	1.561698	-0.311031	0.257197
H133	H	0.894673	-0.903579	-0.409612
H134	H	1.394673	-0.403579	0.090388
Cl135	Cl	0.220799	-0.250440	-0.228620
Cl136	Cl	0.720799	0.249560	0.271380
Cl137	Cl	0.380344	-0.250419	-0.228611
Cl138	Cl	0.880344	0.249581	0.271389
H139	H	0.592235	-0.444046	-0.404509
H140	H	1.092235	0.055954	0.095491
Cl141	Cl	0.835845	-0.799281	-0.287836
Cl142	Cl	1.335845	-0.299281	0.212164
H143	H	1.056771	-0.443742	-1.068442
H144	H	1.556771	0.056258	-0.568442
H145	H	1.056655	-0.443856	-0.584437
H146	H	1.556655	0.056144	-0.084437
H147	H	0.364708	-0.444061	-0.404525
H148	H	0.864708	0.055939	0.095475
H149	H	0.592215	-0.271479	-0.247732
H150	H	1.092215	0.228521	0.252268
Cl151	Cl	0.940174	-0.915711	-0.183750
Cl152	Cl	1.440174	-0.415711	0.316250
H153	H	1.056727	-0.443786	-0.940208
H154	H	1.556727	0.056214	-0.440208
Cl155	Cl	0.880477	-0.250478	-0.568830
Cl156	Cl	1.380477	0.249522	-0.068830
Cl157	Cl	0.736115	-0.250405	-0.228580
Cl158	Cl	1.236115	0.249595	0.271420
Cl159	Cl	0.880474	-0.250478	-0.728375
Cl160	Cl	1.380474	0.249522	-0.228375
H161	H	1.056685	-0.443826	-0.712681
H162	H	1.556685	0.056174	-0.212681
H163	H	1.092142	-0.903688	-0.356779
H164	H	1.592142	-0.403688	0.143221
H165	H	0.899724	-0.271437	-0.940240
H166	H	1.399724	0.228563	-0.440240
Cl167	Cl	1.016323	-0.799211	-0.468594
Cl168	Cl	1.516323	-0.299211	0.031406
H169	H	0.899753	-0.271400	-1.068486
H170	H	1.399753	0.228600	-0.568486
