data_functionalizedCrystal
_audit_creation_method	'MofGen! by Chris Wilmer'
_symmetry_space_group_name_H-M	'P1'
_symmetry_Int_Tables_number	1
_symmetry_cell_setting	triclinic
loop_
_symmetry_equiv_pos_as_xyz
  x,y,z
_cell_length_a	21.395362
_cell_length_b	11.169416
_cell_length_c	21.395356
_cell_angle_alpha	90.020097
_cell_angle_beta	90.042977
_cell_angle_gamma	90.026221
loop_
_atom_site_label
_atom_site_type_symbol
_atom_site_fract_x
_atom_site_fract_y
_atom_site_fract_z
Zn1	Zn	0.957942	-0.477329	0.354619
Zn2	Zn	1.457942	0.022671	0.854619
Zn3	Zn	0.957884	-0.678032	0.249855
Zn4	Zn	1.457884	-0.178032	0.749855
Zn5	Zn	0.853159	-0.477417	0.249820
Zn6	Zn	1.353159	0.022583	0.749820
Zn7	Zn	0.853164	-0.678024	0.354560
Zn8	Zn	1.353164	-0.178024	0.854560
O9	O	0.905537	-0.577700	0.302213
O10	O	1.405537	-0.077700	0.802213
O11	O	1.045612	-0.503919	0.340761
O12	O	1.545612	-0.003919	0.840761
O13	O	0.943965	-0.651459	0.162172
O14	O	1.443965	-0.151459	0.662172
O15	O	0.867081	-0.309455	0.263732
O16	O	1.367081	0.190545	0.763732
O17	O	1.045569	-0.651374	0.263792
O18	O	1.545569	-0.151374	0.763792
O19	O	0.944065	-0.309391	0.340727
O20	O	1.444065	0.190609	0.840727
O21	O	0.867024	-0.504069	0.162147
O22	O	1.367024	-0.004069	0.662147
O23	O	0.765482	-0.504061	0.263675
O24	O	1.265482	-0.004061	0.763675
O25	O	0.867089	-0.651362	0.442246
O26	O	1.367089	-0.151362	0.942246
O27	O	0.765485	-0.651447	0.340626
O28	O	1.265485	-0.151447	0.840626
O29	O	0.944070	-0.503911	0.442289
O30	O	1.444070	-0.003911	0.942289
O31	O	0.943970	-0.845980	0.263734
O32	O	1.443970	-0.345980	0.763734
O33	O	0.867032	-0.845975	0.340661
O34	O	1.367032	-0.345975	0.840661
C35	C	0.742749	-0.577764	0.302141
C36	C	1.242749	-0.077764	0.802141
C37	C	0.673108	-0.577820	0.302124
C38	C	1.173108	-0.077820	0.802124
C39	C	0.640413	-0.654665	0.342133
C40	C	1.140413	-0.154665	0.842133
C41	C	0.574978	-0.654636	0.342161
C42	C	1.074978	-0.154636	0.842161
C43	C	0.542240	-0.577774	0.302169
C44	C	1.042240	-0.077774	0.802169
C45	C	0.574943	-0.500913	0.262157
C46	C	1.074943	-0.000913	0.762157
C47	C	0.640377	-0.500937	0.262135
C48	C	1.140377	-0.000937	0.762135
C49	C	0.438514	-0.568122	0.245763
C50	C	0.938514	-0.068122	0.745763
C51	C	0.373081	-0.568108	0.245784
C52	C	0.873081	-0.068108	0.745784
C53	C	0.340419	-0.577695	0.302238
C54	C	0.840419	-0.077695	0.802238
C55	C	0.373198	-0.587323	0.358673
C56	C	0.873198	-0.087323	0.858673
C57	C	0.438632	-0.587346	0.358650
C58	C	0.938632	-0.087346	0.858650
C59	C	0.471287	-0.577739	0.302189
C60	C	0.971287	-0.077739	0.802189
C61	C	0.236772	-0.654513	0.342281
C62	C	0.736772	-0.154513	0.842281
C63	C	0.171335	-0.654475	0.342310
C64	C	0.671335	-0.154475	0.842310
C65	C	0.171301	-0.500759	0.262300
C66	C	0.671301	-0.000759	0.762300
C67	C	0.236737	-0.500790	0.262277
C68	C	0.736737	-0.000790	0.762277
C69	C	0.269468	-0.577674	0.302266
C70	C	0.769468	-0.077674	0.802266
C71	C	0.905512	-0.889525	0.302209
C72	C	1.405512	-0.389525	0.802209
C73	C	0.905559	-1.022925	0.302228
C74	C	1.405559	-0.522925	0.802228
C75	C	1.068960	-0.577637	0.302287
C76	C	1.568960	-0.077637	0.802287
C77	C	1.138602	-0.577611	0.302318
C78	C	1.638602	-0.077611	0.802318
C79	C	0.905586	-0.577626	0.465637
C80	C	1.405586	-0.077626	0.965637
C81	C	0.905607	-0.577594	0.535278
C82	C	1.405607	-0.077594	1.035278
C83	C	0.905579	-0.264658	0.302232
C84	C	1.405579	0.235342	0.802232
C85	C	0.905597	-0.131258	0.302240
C86	C	1.405597	0.368742	0.802240
C87	C	0.905524	-0.577688	0.139426
C88	C	1.405524	-0.077688	0.639426
C89	C	0.905624	-0.577381	0.069785
C90	C	1.405624	-0.077381	0.569785
C91	C	0.865555	-0.500839	0.567968
C92	C	1.365555	-0.000839	1.067968
C93	C	0.865553	-0.500817	0.633403
C94	C	1.365553	-0.000817	1.133403
C95	C	0.905614	-0.577537	0.666146
C96	C	1.405614	-0.077537	1.166146
C97	C	0.945669	-0.654307	0.633449
C98	C	1.445669	-0.154307	1.133449
C99	C	0.945666	-0.654336	0.568014
C100	C	1.445666	-0.154336	1.068014
C101	C	0.962068	-0.586943	0.769852
C102	C	1.462068	-0.086943	1.269852
C103	C	0.962073	-0.586906	0.835285
C104	C	1.462073	-0.086906	1.335285
C105	C	0.905625	-0.577456	0.867967
C106	C	1.405625	-0.077456	1.367967
C107	C	0.849170	-0.568018	0.835208
C108	C	1.349170	-0.068018	1.335208
C109	C	0.849167	-0.568046	0.769774
C110	C	1.349167	-0.068046	1.269774
C111	C	0.905622	-0.577515	0.737099
C112	C	1.405622	-0.077515	1.237099
C113	C	0.865566	-0.500673	0.971610
C114	C	1.365566	-0.000673	1.471610
C115	C	0.865563	-0.500659	1.037046
C116	C	1.365563	-0.000659	1.537046
C117	C	0.945686	-0.654143	1.037090
C118	C	1.445686	-0.154143	1.537090
C119	C	0.945683	-0.654163	0.971655
C120	C	1.445683	-0.154163	1.471655
C121	C	0.905624	-0.577422	0.938919
C122	C	1.405624	-0.077422	1.438919
H123	H	0.144647	-0.438171	0.229741
H124	H	0.644647	0.061829	0.729741
Cl125	Cl	1.033042	-0.598784	0.876462
Cl126	Cl	1.533042	-0.098784	1.376462
Cl127	Cl	0.815211	-0.404291	0.674508
Cl128	Cl	1.315211	0.095709	1.174508
Cl129	Cl	0.815192	-0.404370	0.526817
Cl130	Cl	1.315192	0.095630	1.026817
Cl131	Cl	0.681481	-0.404323	0.211834
Cl132	Cl	1.181481	0.095677	0.711834
Cl133	Cl	0.681558	-0.751313	0.392408
Cl134	Cl	1.181558	-0.251313	0.892408
H135	H	0.978306	-0.716607	1.063749
H136	H	1.478306	-0.216607	1.563749
Cl137	Cl	0.533867	-0.751249	0.392462
Cl138	Cl	1.033867	-0.251249	0.892462
H139	H	0.346398	-0.560276	0.199832
H140	H	0.846398	-0.060276	0.699832
H141	H	0.263357	-0.438221	0.229694
H142	H	0.763357	0.061779	0.729694
Cl143	Cl	0.479568	-0.556073	0.174785
Cl144	Cl	0.979568	-0.056073	0.674785
Cl145	Cl	0.778199	-0.556190	0.728593
Cl146	Cl	1.278199	-0.056190	1.228593
Cl147	Cl	0.996042	-0.750652	0.930557
Cl148	Cl	1.496042	-0.250652	1.430557
Cl149	Cl	1.033038	-0.598833	0.728774
Cl150	Cl	1.533038	-0.098833	1.228774
Cl151	Cl	0.815189	-0.404192	1.078143
Cl152	Cl	1.315189	0.095808	1.578143
H153	H	0.803205	-0.560315	0.861816
H154	H	1.303205	-0.060315	1.361816
H155	H	0.978288	-0.716773	0.660112
H156	H	1.478288	-0.216773	1.160112
H157	H	0.263423	-0.717110	0.374846
H158	H	0.763423	-0.217110	0.874846
Cl159	Cl	0.130232	-0.751083	0.392615
Cl160	Cl	0.630232	-0.251083	0.892615
H161	H	0.978284	-0.716838	0.541399
H162	H	1.478284	-0.216838	1.041399
H163	H	0.832948	-0.438186	0.944954
H164	H	1.332948	0.061814	1.444954
H165	H	0.465318	-0.595182	0.404601
H166	H	0.965318	-0.095182	0.904601
H167	H	0.346606	-0.595128	0.404643
H168	H	0.846606	-0.095128	0.904643
Cl169	Cl	0.533787	-0.404281	0.211885
Cl170	Cl	1.033787	0.095719	0.711885
