data_functionalizedCrystal
_audit_creation_method	'MofGen! by Chris Wilmer'
_symmetry_space_group_name_H-M	'P1'
_symmetry_Int_Tables_number	1
_symmetry_cell_setting	triclinic
loop_
_symmetry_equiv_pos_as_xyz
  x,y,z
_cell_length_a	14.395555
_cell_length_b	12.970454
_cell_length_c	12.970454
_cell_angle_alpha	59.999644
_cell_angle_beta	90.001866
_cell_angle_gamma	59.999613
loop_
_atom_site_label
_atom_site_type_symbol
_atom_site_fract_x
_atom_site_fract_y
_atom_site_fract_z
Zr1	Zr	0.894914	1.128477	-0.135253
O2	O	0.746583	1.343576	-0.299887
O3	O	0.940385	0.913383	-0.084783
O4	O	0.940384	1.128475	-0.299875
O5	O	0.746584	1.128483	0.084872
O6	O	1.093259	1.128468	-0.299866
O7	O	0.746584	1.128484	-0.084795
O8	O	1.093260	0.743707	0.084894
O9	O	0.746583	1.513243	-0.299888
O10	O	1.073867	1.001847	-0.063252
O11	O	0.959779	1.001852	0.063362
O12	O	0.959778	1.255095	-0.189881
O13	O	0.845690	1.255100	-0.063267
Zr14	Zr	1.138731	1.128463	0.135361
Zr15	Zr	1.138730	1.128465	-0.135238
Zr16	Zr	0.894915	1.128475	0.135347
Zr17	Zr	0.894914	1.399077	-0.135254
Zr18	Zr	1.138731	0.857863	0.135363
O19	O	1.093260	1.343557	0.084891
O20	O	1.093259	1.343558	-0.299867
O21	O	0.746584	1.343574	0.084871
O22	O	1.287063	0.913364	0.299996
O23	O	1.287061	0.913366	-0.084762
O24	O	0.940387	0.913381	0.299975
O25	O	1.287061	1.128457	-0.084763
O26	O	1.093261	1.128465	0.299983
O27	O	0.940387	1.128472	0.299974
O28	O	1.287062	1.128456	0.084904
O29	O	0.940384	1.513234	-0.299877
O30	O	1.093261	0.743706	0.299985
O31	O	1.287062	0.743697	0.299997
O32	O	1.287062	0.743698	0.084906
O33	O	0.746584	1.513242	-0.084797
O34	O	0.940385	1.513232	-0.084786
O35	O	1.073868	1.001845	0.189990
O36	O	1.187955	1.001840	0.063375
O37	O	1.073867	1.255088	-0.063253
O38	O	0.959779	1.255093	0.063361
C39	C	1.016823	0.789991	0.000056
C40	C	1.016823	0.675114	0.000057
C41	C	0.711845	1.128485	0.000036
C42	C	0.608339	1.128490	0.000030
C43	C	0.485544	1.266572	-0.069003
C44	C	0.454708	1.197545	-0.119031
C45	C	0.454751	1.197512	0.050049
C46	C	0.578867	1.059463	-0.050067
C47	C	0.578906	1.059449	0.119078
C48	C	0.548144	0.990321	0.069080
C49	C	1.321800	1.128455	0.000072
C50	C	1.425307	1.128450	0.000078
C51	C	1.016821	1.128472	-0.338425
C52	C	1.016821	1.128472	-0.453302
C53	C	1.016823	1.466949	0.000053
C54	C	1.016823	1.581826	0.000052
C55	C	1.016824	1.128468	0.338534
C56	C	1.016824	1.128468	0.453410
C57	C	1.321800	0.789975	0.000074
C58	C	1.425306	0.675094	0.000081
C59	C	1.016824	0.789989	0.338535
C60	C	1.016824	0.675112	0.453413
C61	C	1.321801	0.789974	0.338553
C62	C	1.425308	0.675091	0.453437
C63	C	0.711844	1.466966	-0.338445
C64	C	0.608337	1.581849	-0.453328
C65	C	0.711845	1.466964	0.000035
C66	C	0.608339	1.581846	0.000028
C67	C	1.016821	1.466951	-0.338427
C68	C	1.016821	1.581828	-0.453304
C69	C	1.473916	0.527658	0.093561
C70	C	1.571161	0.419699	0.093571
C71	C	1.619800	0.459179	0.000106
C72	C	1.571183	0.606630	-0.093383
C73	C	1.473934	0.714585	-0.093398
C74	C	1.473924	0.527656	0.507387
C75	C	1.571191	0.419695	0.615320
C76	C	1.619835	0.459172	0.669306
C77	C	1.571215	0.606622	0.615346
C78	C	1.473954	0.714580	0.507410
C79	C	0.559730	1.729284	-0.507288
C80	C	0.462484	1.837245	-0.615245
C81	C	0.413844	1.797767	-0.669235
C82	C	0.462460	1.650317	-0.615270
C83	C	0.559708	1.542359	-0.507320
C84	C	0.559730	1.542321	0.093510
C85	C	0.462485	1.650250	0.093529
C86	C	0.413845	1.797703	0.000060
C87	C	0.462462	1.837228	-0.093426
C88	C	0.559711	1.729301	-0.093440
H89	H	0.460100	1.383334	-0.127470
C90	C	0.650944	0.980688	-0.107355
N91	N	0.705232	0.921363	-0.150509
C92	C	0.613156	1.380179	-0.447965
N93	N	0.653407	1.258024	-0.403263
C94	C	0.582793	0.832459	0.147950
N95	N	0.608885	0.713560	0.207347
H96	H	1.434367	0.834633	-0.169519
H97	H	1.699030	0.371251	0.757196
H98	H	0.599277	1.761504	-0.169569
C99	C	1.420438	0.484196	0.448016
N100	N	1.380164	0.451449	0.403300
C101	C	0.408929	1.999438	-0.196251
N102	N	0.368596	2.121617	-0.273708
C103	C	0.613221	1.772745	-0.447925
N104	N	0.653509	1.805492	-0.403224
H105	H	0.599317	1.422263	0.169623
C106	C	1.624706	0.650035	-0.196184
N107	N	1.665027	0.682724	-0.273607
C108	C	1.420481	0.876761	0.448084
N109	N	1.380210	0.998916	0.403405
C110	C	0.651221	0.980709	0.255017
N111	N	0.705690	0.921423	0.357404
H112	H	0.422913	1.957297	-0.659166
H113	H	0.401246	1.255897	0.092331
C114	C	0.409017	1.606740	0.196368
N115	N	0.368746	1.573965	0.273824
C116	C	0.382366	1.276402	-0.255000
N117	N	0.327863	1.335811	-0.357408
H118	H	1.434326	0.495484	0.169675
H119	H	0.334658	1.885688	-0.757135
H120	H	1.610733	0.299646	0.169705
C121	C	1.624647	0.257509	0.674663
N122	N	1.664904	0.135354	0.719360
H123	H	1.610836	0.638745	0.659318
H124	H	1.698984	0.371260	0.000130
H125	H	0.422842	1.618194	-0.659245
H126	H	0.334658	1.885571	0.000085
