data_functionalizedCrystal
_audit_creation_method	'MofGen! by Chris Wilmer'
_symmetry_space_group_name_H-M	'P1'
_symmetry_Int_Tables_number	1
_symmetry_cell_setting	triclinic
loop_
_symmetry_equiv_pos_as_xyz
  x,y,z
_cell_length_a	18.050589
_cell_length_b	16.625548
_cell_length_c	16.625539
_cell_angle_alpha	89.977655
_cell_angle_beta	90.024824
_cell_angle_gamma	89.971920
loop_
_atom_site_label
_atom_site_type_symbol
_atom_site_fract_x
_atom_site_fract_y
_atom_site_fract_z
Zn1	Zn	-0.295661	-1.232648	0.455967
Zn2	Zn	-0.045661	-0.982648	0.705967
Zn3	Zn	0.204339	-0.732648	0.955967
Zn4	Zn	0.454339	-0.482648	1.205967
Zn5	Zn	-0.419859	-1.232538	0.321142
Zn6	Zn	-0.169859	-0.982538	0.571142
Zn7	Zn	0.080141	-0.732538	0.821142
Zn8	Zn	0.330141	-0.482538	1.071142
Zn9	Zn	-0.295687	-1.097810	0.321143
Zn10	Zn	-0.045687	-0.847810	0.571143
Zn11	Zn	0.204313	-0.597810	0.821143
Zn12	Zn	0.454313	-0.347810	1.071143
Zn13	Zn	-0.419813	-1.097767	0.455928
Zn14	Zn	-0.169813	-0.847767	0.705928
Zn15	Zn	0.080187	-0.597767	0.955928
Zn16	Zn	0.330187	-0.347767	1.205928
O17	O	-0.357755	-1.165191	0.388545
O18	O	-0.107755	-0.915191	0.638545
O19	O	0.142245	-0.665191	0.888545
O20	O	0.392245	-0.415191	1.138545
O21	O	-0.312144	-1.345466	0.438098
O22	O	-0.062144	-1.095466	0.688098
O23	O	0.187856	-0.845466	0.938098
O24	O	0.437856	-0.595466	1.188098
O25	O	-0.403417	-1.214638	0.208310
O26	O	-0.153417	-0.964638	0.458310
O27	O	0.096583	-0.714638	0.708310
O28	O	0.346583	-0.464638	0.958310
O29	O	-0.191759	-1.115761	0.339045
O30	O	0.058241	-0.865761	0.589045
O31	O	0.308241	-0.615761	0.839045
O32	O	0.558241	-0.365761	1.089045
O33	O	-0.403392	-1.345385	0.339043
O34	O	-0.153392	-1.095385	0.589043
O35	O	0.096608	-0.845385	0.839043
O36	O	0.346608	-0.595385	1.089043
O37	O	-0.191740	-1.214826	0.438099
O38	O	0.058260	-0.964826	0.688099
O39	O	0.308260	-0.714826	0.938099
O40	O	0.558260	-0.464826	1.188099
O41	O	-0.312188	-1.115654	0.208311
O42	O	-0.062188	-0.865654	0.458311
O43	O	0.187812	-0.615654	0.708311
O44	O	0.437812	-0.365654	0.958311
O45	O	-0.312144	-0.984972	0.339007
O46	O	-0.062144	-0.734972	0.589007
O47	O	0.187856	-0.484972	0.839007
O48	O	0.437856	-0.234972	1.089007
O49	O	-0.403315	-1.115687	0.568766
O50	O	-0.153315	-0.865687	0.818766
O51	O	0.096685	-0.615687	1.068766
O52	O	0.346685	-0.365687	1.318766
O53	O	-0.403339	-0.984940	0.438033
O54	O	-0.153339	-0.734940	0.688033
O55	O	0.096661	-0.484940	0.938033
O56	O	0.346661	-0.234940	1.188033
O57	O	-0.312100	-1.214784	0.568794
O58	O	-0.062100	-0.964784	0.818794
O59	O	0.187900	-0.714784	1.068794
O60	O	0.437900	-0.464784	1.318794
O61	O	-0.523777	-1.214596	0.339005
O62	O	-0.273777	-0.964596	0.589005
O63	O	-0.023777	-0.714596	0.839005
O64	O	0.226223	-0.464596	1.089005
O65	O	-0.523744	-1.115580	0.438032
O66	O	-0.273744	-0.865580	0.688032
O67	O	-0.023744	-0.615580	0.938032
O68	O	0.226256	-0.365580	1.188032
C69	C	-0.357740	-0.955700	0.388516
C70	C	-0.107740	-0.705700	0.638516
C71	C	0.142260	-0.455700	0.888516
C72	C	0.392260	-0.205700	1.138516
C73	C	-0.357752	-0.866079	0.388523
C74	C	-0.107752	-0.616079	0.638523
C75	C	0.142248	-0.366079	0.888523
C76	C	0.392248	-0.116079	1.138523
C77	C	-0.550707	-1.165093	0.388532
C78	C	-0.300707	-0.915093	0.638532
C79	C	-0.050707	-0.665093	0.888532
C80	C	0.199293	-0.415093	1.138532
C81	C	-0.633253	-1.165126	0.388553
C82	C	-0.383253	-0.915126	0.638553
C83	C	-0.133253	-0.665126	0.888553
C84	C	0.116747	-0.415126	1.138553
C85	C	-0.357750	-0.537903	0.388547
C86	C	-0.107750	-0.287903	0.638547
C87	C	0.142250	-0.037903	0.888547
C88	C	0.392250	0.212097	1.138547
C89	C	-0.357749	-0.629212	0.388538
C90	C	-0.107749	-0.379212	0.638538
C91	C	0.142251	-0.129212	0.888538
C92	C	0.392251	0.120788	1.138538
C93	C	-0.357751	-0.701988	0.388534
C94	C	-0.107751	-0.451988	0.638534
C95	C	0.142249	-0.201988	0.888534
C96	C	0.392249	0.048012	1.138534
C97	C	-0.357749	-0.793302	0.388526
C98	C	-0.107749	-0.543302	0.638526
C99	C	0.142251	-0.293302	0.888526
C100	C	0.392251	-0.043302	1.138526
C101	C	-0.832712	-1.111334	0.442385
C102	C	-0.582712	-0.861334	0.692385
C103	C	-0.332712	-0.611334	0.942385
C104	C	-0.082712	-0.361334	1.192385
C105	C	-0.882154	-1.091677	0.368808
C106	C	-0.632154	-0.841677	0.618808
C107	C	-0.382154	-0.591677	0.868808
C108	C	-0.132154	-0.341677	1.118808
C109	C	-0.784383	-1.165205	0.388564
C110	C	-0.534383	-0.915205	0.638564
C111	C	-0.284383	-0.665205	0.888564
C112	C	-0.034383	-0.415205	1.138564
C113	C	-0.882023	-1.184901	0.462149
C114	C	-0.632023	-0.934901	0.712149
C115	C	-0.382023	-0.684901	0.962149
C116	C	-0.132023	-0.434901	1.212149
C117	C	-0.930368	-1.165280	0.388580
C118	C	-0.680368	-0.915280	0.638580
C119	C	-0.430368	-0.665280	0.888580
C120	C	-0.180368	-0.415280	1.138580
C121	C	-0.832738	-1.145510	0.314948
C122	C	-0.582738	-0.895510	0.564948
C123	C	-0.332738	-0.645510	0.814948
C124	C	-0.082738	-0.395510	1.064948
C125	C	-0.832602	-1.238767	0.408338
C126	C	-0.582602	-0.988767	0.658338
C127	C	-0.332602	-0.738767	0.908338
C128	C	-0.082602	-0.488767	1.158338
C129	C	-0.882022	-1.219139	0.334711
C130	C	-0.632022	-0.969139	0.584711
C131	C	-0.382022	-0.719139	0.834711
C132	C	-0.132022	-0.469139	1.084711
C133	C	-0.700285	-1.165160	0.388555
C134	C	-0.450285	-0.915160	0.638555
C135	C	-0.200285	-0.665160	0.888555
C136	C	0.049715	-0.415160	1.138555
C137	C	-1.014465	-1.165325	0.388580
C138	C	-0.764465	-0.915325	0.638580
C139	C	-0.514465	-0.665325	0.888580
C140	C	-0.264465	-0.415325	1.138580
C141	C	-0.164049	-1.165310	0.388576
C142	C	0.085951	-0.915310	0.638576
C143	C	0.335951	-0.665310	0.888576
C144	C	0.585951	-0.415310	1.138576
C145	C	-0.081503	-1.165361	0.388590
C146	C	0.168497	-0.915361	0.638590
C147	C	0.418497	-0.665361	0.888590
C148	C	0.668497	-0.415361	1.138590
C149	C	-0.357699	-1.165243	0.598854
C150	C	-0.107699	-0.915243	0.848854
C151	C	0.142301	-0.665243	1.098854
C152	C	0.392301	-0.415243	1.348854
C153	C	-0.357676	-1.165266	0.688475
C154	C	-0.107676	-0.915266	0.938475
C155	C	0.142324	-0.665266	1.188475
C156	C	0.392324	-0.415266	1.438475
C157	C	-0.357765	-0.375500	0.388567
C158	C	-0.107765	-0.125500	0.638567
C159	C	0.142235	0.124500	0.888567
C160	C	0.392235	0.374500	1.138567
C161	C	-0.357757	-0.465121	0.388557
C162	C	-0.107757	-0.215121	0.638557
C163	C	0.142243	0.034879	0.888557
C164	C	0.392243	0.284879	1.138557
C165	C	-0.357756	-1.165185	0.179054
C166	C	-0.107756	-0.915185	0.429054
C167	C	0.142244	-0.665185	0.679054
C168	C	0.392244	-0.415185	0.929054
C169	C	-0.357571	-1.165319	0.089434
C170	C	-0.107571	-0.915319	0.339434
C171	C	0.142429	-0.665319	0.589434
C172	C	0.392429	-0.415319	0.839434
C173	C	-0.357593	-1.165303	1.016651
C174	C	-0.107593	-0.915303	1.266651
C175	C	0.142407	-0.665303	1.516651
C176	C	0.392407	-0.415303	1.766651
C177	C	-0.357618	-1.165290	0.925343
C178	C	-0.107618	-0.915290	1.175343
C179	C	0.142382	-0.665290	1.425343
C180	C	0.392382	-0.415290	1.675343
C181	C	-0.357635	-1.165285	0.852566
C182	C	-0.107635	-0.915285	1.102566
C183	C	0.142365	-0.665285	1.352566
C184	C	0.392365	-0.415285	1.602566
C185	C	-0.357659	-1.165271	0.761252
C186	C	-0.107659	-0.915271	1.011252
C187	C	0.142341	-0.665271	1.261252
C188	C	0.392341	-0.415271	1.511252
H189	H	-0.811060	-1.065710	0.487835
H190	H	-0.561060	-0.815710	0.737835
H191	H	-0.311060	-0.565710	0.987835
H192	H	-0.061060	-0.315710	1.237835
H193	H	-0.810823	-1.300928	0.425083
H194	H	-0.560823	-1.050928	0.675083
H195	H	-0.310823	-0.800928	0.925083
H196	H	-0.060823	-0.550928	1.175083
O197	O	-0.910698	-1.206936	0.544568
O198	O	-0.660698	-0.956936	0.794568
O199	O	-0.410698	-0.706936	1.044568
O200	O	-0.160698	-0.456936	1.294568
H201	H	-0.890949	-1.162089	0.589116
H202	H	-0.640949	-0.912089	0.839116
H203	H	-0.390949	-0.662089	1.089116
H204	H	-0.140949	-0.412089	1.339116
H205	H	-0.811178	-1.128809	0.252708
H206	H	-0.561178	-0.878809	0.502708
H207	H	-0.311178	-0.628809	0.752708
H208	H	-0.061178	-0.378809	1.002708
O209	O	-0.910987	-1.009320	0.346648
O210	O	-0.660987	-0.759320	0.596648
O211	O	-0.410987	-0.509320	0.846648
O212	O	-0.160987	-0.259320	1.096648
H213	H	-0.891243	-0.964676	0.391401
H214	H	-0.641243	-0.714676	0.641401
H215	H	-0.391243	-0.464676	0.891401
H216	H	-0.141243	-0.214676	1.141401
H217	H	-0.903536	-1.264728	0.289150
H218	H	-0.653536	-1.014728	0.539150
H219	H	-0.403536	-0.764728	0.789150
H220	H	-0.153536	-0.514728	1.039150
