data_functionalizedCrystal
_audit_creation_method	'MofGen! by Chris Wilmer'
_symmetry_space_group_name_H-M	'P1'
_symmetry_Int_Tables_number	1
_symmetry_cell_setting	triclinic
loop_
_symmetry_equiv_pos_as_xyz
  x,y,z
_cell_length_a	31.640172
_cell_length_b	18.426585
_cell_length_c	31.640172
_cell_angle_alpha	60.008656
_cell_angle_beta	89.999175
_cell_angle_gamma	59.992705
loop_
_atom_site_label
_atom_site_type_symbol
_atom_site_fract_x
_atom_site_fract_y
_atom_site_fract_z
Zr1	Zr	0.407174	0.794266	-0.055460
O2	O	0.339684	0.945663	-0.122935
O3	O	0.427864	0.642868	-0.034777
O4	O	0.427862	0.794248	-0.122942
O5	O	0.339686	0.794298	0.034778
O6	O	0.497418	0.794236	-0.122945
O7	O	0.339686	0.794282	-0.034771
O8	O	0.497421	0.523444	0.034766
O9	O	0.339683	1.065089	-0.122932
O10	O	0.488596	0.705131	-0.025956
O11	O	0.436688	0.705152	0.025949
O12	O	0.436686	0.883383	-0.077853
O13	O	0.384778	0.883403	-0.025948
Zr14	Zr	0.518110	0.794271	0.055457
Zr15	Zr	0.518108	0.794247	-0.055464
Zr16	Zr	0.407176	0.794290	0.055462
Zr17	Zr	0.407174	0.984738	-0.055456
Zr18	Zr	0.518110	0.603799	0.055453
O19	O	0.497420	0.945669	0.034775
O20	O	0.497418	0.945635	-0.122941
O21	O	0.339686	0.945697	0.034781
O22	O	0.585600	0.642874	0.122932
O23	O	0.585598	0.642840	-0.034784
O24	O	0.427866	0.642902	0.122939
O25	O	0.585597	0.794239	-0.034780
O26	O	0.497422	0.794289	0.122939
O27	O	0.427866	0.794301	0.122942
O28	O	0.585598	0.794254	0.034768
O29	O	0.427861	1.065074	-0.122936
O30	O	0.497423	0.523463	0.122933
O31	O	0.585600	0.523447	0.122930
O32	O	0.585599	0.523428	0.034762
O33	O	0.339685	1.065108	-0.034765
O34	O	0.427863	1.065093	-0.034768
O35	O	0.488598	0.705154	0.077850
O36	O	0.540506	0.705134	0.025945
O37	O	0.488596	0.883385	-0.025952
O38	O	0.436688	0.883405	0.025953
C39	C	0.462643	0.556018	-0.000007
C40	C	0.462643	0.475157	-0.000008
C41	C	0.462640	0.179048	0.000007
C42	C	0.462639	0.261435	0.000004
C43	C	0.462641	0.327101	-0.000001
C44	C	0.462641	0.409491	-0.000003
C45	C	0.323880	0.794293	0.000004
C46	C	0.276786	0.794301	0.000006
C47	C	-0.015220	0.794242	-0.038315
C48	C	-0.192207	0.794229	-0.038319
O49	O	-0.215080	0.794176	-0.070891
N50	N	-0.214337	0.794239	-0.000005
C51	C	-0.192216	0.794246	0.038315
O52	O	-0.215097	0.794244	0.070907
C53	C	-0.015228	0.794251	0.038321
C54	C	0.006897	0.794251	0.000001
C55	C	0.006905	0.794240	-0.076631
C56	C	0.051147	0.794249	-0.076632
C57	C	0.073264	0.794259	-0.038316
C58	C	0.051139	0.794260	0.000001
C59	C	0.006895	0.794251	0.076642
C60	C	0.051145	0.794250	0.076641
C61	C	0.073270	0.794250	0.038321
C62	C	0.117499	0.794279	0.038316
N63	N	0.139629	0.794269	0.000002
C64	C	0.117512	0.794259	-0.038314
C65	C	-0.285137	0.794245	0.038309
C66	C	-0.329385	0.794245	0.038307
C67	C	-0.329372	0.794226	-0.038326
C68	C	-0.285126	0.794233	-0.038326
C69	C	-0.263007	0.794235	-0.000005
C70	C	0.210424	0.794278	-0.038312
C71	C	0.254669	0.794291	-0.038310
C72	C	0.254654	0.794305	0.038325
C73	C	0.210411	0.794297	0.038322
C74	C	0.188298	0.794280	0.000001
O75	O	0.140403	0.794320	0.070875
O76	O	0.140407	0.794238	-0.070894
C77	C	-0.059463	0.794233	-0.038315
C78	C	-0.081588	0.794234	0.000002
C79	C	-0.059471	0.794244	0.038318
C80	C	-0.125835	0.794234	-0.000000
C81	C	-0.147952	0.794224	-0.038316
C82	C	-0.125822	0.794214	-0.076630
C83	C	-0.081580	0.794223	-0.076631
C84	C	-0.081601	0.794254	0.076632
C85	C	-0.125843	0.794246	0.076629
C86	C	-0.147961	0.794237	0.038313
C87	C	0.601404	0.794244	-0.000007
C88	C	0.648498	0.794236	-0.000009
C89	C	0.462640	0.794238	-0.138747
C90	C	0.462639	0.794228	-0.185836
C91	C	0.462641	1.032519	0.000004
C92	C	0.462641	1.113379	0.000006
C93	C	0.435550	0.887323	-0.504961
C94	C	0.435551	0.887341	-0.681957
O95	O	0.412525	0.966473	-0.727882
N96	N	0.462646	0.794296	-0.676997
C97	C	0.489747	0.701241	-0.627784
O98	O	0.512797	0.622101	-0.627626
C99	C	0.489749	0.701224	-0.450789
C100	C	0.462647	0.794275	-0.455753
C101	C	0.408451	0.980366	-0.509923
C102	C	0.408449	0.980361	-0.465676
C103	C	0.435546	0.887313	-0.416468
C104	C	0.462645	0.794269	-0.411507
C105	C	0.516852	0.608169	-0.401577
C106	C	0.516851	0.608174	-0.357328
C107	C	0.489749	0.701224	-0.362292
C108	C	0.489739	0.701216	-0.318052
N109	N	0.462644	0.794260	-0.323012
C110	C	0.435547	0.887309	-0.372220
C111	C	0.489743	0.701256	-0.720710
C112	C	0.489741	0.701260	-0.764958
C113	C	0.435546	0.887361	-0.819128
C114	C	0.435545	0.887356	-0.774879
C115	C	0.462647	0.794301	-0.725670
C116	C	0.435544	0.887290	-0.279297
C117	C	0.435543	0.887277	-0.235044
C118	C	0.489740	0.701177	-0.180878
C119	C	0.489739	0.701190	-0.225127
C120	C	0.462640	0.794255	-0.274338
O121	O	0.512758	0.622125	-0.272112
O122	O	0.412509	0.966437	-0.372366
C123	C	0.435552	0.887329	-0.549208
C124	C	0.462651	0.794286	-0.544246
C125	C	0.489748	0.701237	-0.495038
C126	C	0.462650	0.794289	-0.588494
C127	C	0.435553	0.887338	-0.637702
C128	C	0.408458	0.980383	-0.642662
C129	C	0.408455	0.980377	-0.598416
C130	C	0.516844	0.608192	-0.490078
C131	C	0.516843	0.608205	-0.534327
C132	C	0.489746	0.701254	-0.583535
C133	C	0.462644	0.794298	0.138744
C134	C	0.462645	0.794309	0.185834
C135	C	0.601404	0.555993	-0.000012
C136	C	0.648499	0.475125	-0.000016
C137	C	0.462645	0.556048	0.138739
C138	C	0.462646	0.475198	0.185827
C139	C	0.601406	0.556023	0.138734
C140	C	0.648502	0.475165	0.185819
C141	C	0.323878	1.032514	-0.138736
C142	C	0.276782	1.113372	-0.185822
C143	C	0.323880	1.032544	0.000009
C144	C	0.276785	1.113412	0.000013
C145	C	0.462639	1.032489	-0.138742
C146	C	0.462638	1.113339	-0.185829
C147	C	0.643519	0.437147	-0.027114
C148	C	0.687765	0.361173	-0.027128
C149	C	0.736991	0.323173	-0.000040
C150	C	0.741970	0.361158	0.027059
C151	C	0.697724	0.437136	0.027069
C152	C	0.489742	0.437231	0.235036
C153	C	0.489741	0.361274	0.279284
C154	C	0.462646	0.323281	0.274321
C155	C	0.435546	0.361255	0.225107
C156	C	0.435544	0.437216	0.180860
C157	C	0.697718	0.437182	0.180837
C158	C	0.741974	0.361218	0.225075
C159	C	0.737011	0.323232	0.274294
C160	C	0.687789	0.361222	0.279275
C161	C	0.643535	0.437191	0.235038
C162	C	0.227566	1.151364	-0.180840
C163	C	0.183310	1.227351	-0.225077
C164	C	0.188273	1.265341	-0.274296
C165	C	0.237495	1.227346	-0.279278
C166	C	0.281749	1.151365	-0.235040
C167	C	0.281765	1.151398	0.027107
C168	C	0.237519	1.227393	0.027108
C169	C	0.188293	1.265395	0.000019
C170	C	0.183314	1.227406	-0.027078
C171	C	0.227559	1.151418	-0.027082
C172	C	0.489739	1.151308	-0.180850
C173	C	0.489748	1.227265	-0.225089
C174	C	0.462654	1.265257	-0.274307
C175	C	0.435552	1.227280	-0.279285
C176	C	0.435546	1.151319	-0.235047
H177	H	0.272681	0.794294	-0.069516
N178	N	0.407862	0.475981	0.130599
N179	N	0.383675	0.442041	0.126181
H180	H	0.364122	0.469415	0.090685
N181	N	0.792252	0.322409	0.219989
N182	N	0.822993	0.330899	0.238620
H183	H	0.858502	0.303490	0.235029
H184	H	0.321822	1.120433	-0.239103
N185	N	0.407864	0.982397	-0.779944
N186	N	0.372185	1.003173	-0.761300
H187	H	0.352635	1.070301	-0.764881
N188	N	0.380770	1.075431	-0.560181
N189	N	0.356580	1.158489	-0.564593
H190	H	0.337026	1.225636	-0.600087
N191	N	0.187832	0.794287	-0.077463
N192	N	0.142188	0.866239	-0.106964
H193	H	0.126231	0.866253	-0.134616
N194	N	0.143099	1.343026	0.000020
N195	N	0.135455	1.427807	-0.017510
H196	H	0.103538	1.482634	-0.017507
N197	N	0.702816	0.475931	0.054748
N198	N	0.725904	0.518311	0.043261
H199	H	0.729503	0.545708	0.062810
N200	N	0.073732	0.794266	-0.115783
N201	N	0.053969	0.794267	-0.149991
H202	H	0.069916	0.794283	-0.177646
N203	N	0.517432	0.322467	0.329554
N204	N	0.517435	0.254644	0.369060
H205	H	0.536992	0.227234	0.404563
H206	H	0.386386	1.056149	-0.602464
N207	N	0.242603	1.266199	0.054785
N208	N	0.223967	1.359465	0.031209
H209	H	0.227558	1.386872	0.050756
N210	N	0.517427	0.476014	0.240122
N211	N	0.541614	0.442097	0.284067
H212	H	0.561167	0.469485	0.287664
N213	N	0.133033	1.266199	-0.054738
N214	N	0.128586	1.232271	-0.078923
H215	H	0.093074	1.259662	-0.098454
H216	H	0.462662	1.327109	-0.310325
N217	N	0.407881	1.266102	-0.329566
N218	N	0.407893	1.333927	-0.369056
H219	H	0.388348	1.361352	-0.404568
H220	H	0.603441	0.468086	-0.049178
H221	H	0.773015	0.261306	-0.000052
H222	H	0.538922	0.532395	-0.317261
H223	H	0.683756	0.330283	0.319355
H224	H	0.223497	1.120492	-0.049144
H225	H	0.386382	1.056133	-0.469724
H226	H	0.511816	1.258178	-0.221026
N227	N	0.517415	0.606134	-0.220051
N228	N	0.541602	0.523062	-0.176110
H229	H	0.561151	0.455927	-0.172521
N230	N	0.593258	0.475964	0.240122
N231	N	0.553745	0.543776	0.200626
H232	H	0.518237	0.571152	0.204219
N233	N	0.517414	1.112502	-0.130575
N234	N	0.493832	1.120996	-0.099837
H235	H	0.513381	1.093589	-0.064331
N236	N	-0.148434	0.794226	0.115781
N237	N	-0.152159	0.722261	0.145281
H238	H	-0.168109	0.722236	0.172934
H239	H	0.462651	0.261429	0.310354
N240	N	0.407859	1.112552	-0.240146
N241	N	0.383670	1.146490	-0.284096
H242	H	0.364114	1.119114	-0.287702
N243	N	-0.351992	0.794280	0.077440
N244	N	-0.368008	0.866240	0.082144
H245	H	-0.383973	0.866262	0.109784
H246	H	-0.011098	0.794229	-0.107833
N247	N	0.407863	0.982361	-0.329556
N248	N	0.383671	1.065422	-0.333969
H249	H	0.364119	1.132567	-0.369464
N250	N	-0.262532	0.794223	-0.077469
N251	N	-0.282289	0.794212	-0.111675
H252	H	-0.266332	0.794198	-0.139320
N253	N	0.407864	0.982400	-0.869402
N254	N	0.407868	0.982378	-0.908901
H255	H	0.388319	1.049495	-0.944408
H256	H	0.701769	0.468099	0.140764
N257	N	0.517428	0.606187	-0.670450
N258	N	0.541612	0.523126	-0.666036
H259	H	0.561163	0.455981	-0.630541
N260	N	0.407873	0.322429	0.220052
N261	N	0.407886	0.254603	0.259565
H262	H	0.388344	0.227175	0.255997
N263	N	0.782224	0.245633	0.319473
N264	N	0.826163	0.211733	0.315011
H265	H	0.858097	0.156926	0.346917
H266	H	-0.347388	0.794220	-0.069526
H267	H	-0.267131	0.794247	0.069516
H268	H	0.223515	1.120437	-0.140767
N269	N	0.133038	1.266116	-0.219978
N270	N	0.102303	1.257623	-0.238617
H271	H	0.066800	1.284992	-0.235014
N272	N	-0.015689	0.794243	0.115792
N273	N	0.004077	0.794237	0.150000
H274	H	-0.011871	0.794226	0.177654
H275	H	0.511804	0.625489	-0.760911
N276	N	0.143060	1.342957	-0.319476
N277	N	0.099121	1.376861	-0.315014
H278	H	0.067187	1.431676	-0.346920
H279	H	0.538921	0.532397	-0.397525
N280	N	0.242550	1.266172	-0.329559
N281	N	0.203029	1.334009	-0.369048
H282	H	0.206597	1.361430	-0.404561
N283	N	0.332040	1.112612	0.054776
N284	N	0.345236	1.171981	0.043281
H285	H	0.380742	1.144598	0.062821
N286	N	0.073724	0.794269	0.115787
N287	N	0.047815	0.866225	0.120493
H288	H	0.063757	0.866243	0.148139
N289	N	0.187791	0.794344	0.077448
N290	N	0.171764	0.866317	0.082144
H291	H	0.155790	0.866351	0.109776
N292	N	0.277271	0.794269	0.077472
N293	N	0.316786	0.794237	0.077473
H294	H	0.332768	0.794186	0.105128
H295	H	-0.143839	0.794211	-0.107831
N296	N	-0.058991	0.794226	-0.115779
N297	N	-0.078751	0.794218	-0.149984
H298	H	-0.062800	0.794219	-0.177634
N299	N	0.792251	0.322347	0.054729
N300	N	0.805465	0.381686	0.043250
H301	H	0.840977	0.354271	0.062794
H302	H	-0.063596	0.794260	0.107834
N303	N	0.407867	0.982321	-0.240107
N304	N	0.407868	0.982312	-0.200599
H305	H	0.388324	1.049435	-0.204174
N306	N	0.517411	0.606143	-0.130606
N307	N	0.517403	0.606164	-0.091106
H308	H	0.536949	0.539046	-0.055600
H309	H	0.683701	0.330255	-0.049195
H310	H	0.386392	1.056146	-0.682736
H311	H	0.538911	0.532427	-0.530277
H312	H	0.538911	0.532419	-0.450014
