data_functionalizedCrystal
_audit_creation_method	'MofGen! by Chris Wilmer'
_symmetry_space_group_name_H-M	'P1'
_symmetry_Int_Tables_number	1
_symmetry_cell_setting	triclinic
loop_
_symmetry_equiv_pos_as_xyz
  x,y,z
_cell_length_a	17.077404
_cell_length_b	12.759399
_cell_length_c	12.759387
_cell_angle_alpha	90.062176
_cell_angle_beta	89.958169
_cell_angle_gamma	89.984659
loop_
_atom_site_label
_atom_site_type_symbol
_atom_site_fract_x
_atom_site_fract_y
_atom_site_fract_z
Zn1	Zn	1.200270	0.417885	-0.594066
Zn2	Zn	1.700270	0.917885	-0.094066
Zn3	Zn	1.200144	0.593696	-0.418384
Zn4	Zn	1.700144	1.093696	0.081616
Zn5	Zn	1.068951	0.418033	-0.418395
Zn6	Zn	1.568951	0.918033	0.081605
Zn7	Zn	1.068988	0.593523	-0.594017
Zn8	Zn	1.568988	1.093523	-0.094017
O9	O	1.134588	0.505784	-0.506216
O10	O	1.634588	1.005784	-0.006216
O11	O	1.310100	0.441217	-0.570777
O12	O	1.810100	0.941217	-0.070777
O13	O	1.182672	0.570529	-0.271365
O14	O	1.682672	1.070529	0.228635
O15	O	1.086408	0.270992	-0.441724
O16	O	1.586408	0.770992	0.058276
O17	O	1.310007	0.570385	-0.441705
O18	O	1.810007	1.070385	0.058295
O19	O	1.182888	0.270883	-0.570788
O20	O	1.682888	0.770883	-0.070788
O21	O	1.086285	0.441469	-0.271373
O22	O	1.586285	0.941469	0.228627
O23	O	0.959109	0.441301	-0.441676
O24	O	1.459109	0.941301	0.058324
O25	O	1.086471	0.570090	-0.741044
O26	O	1.586471	1.070090	-0.241044
O27	O	0.959136	0.570233	-0.570704
O28	O	1.459136	1.070233	-0.070704
O29	O	1.182923	0.441049	-0.741080
O30	O	1.682923	0.941049	-0.241080
O31	O	1.182708	0.740694	-0.441657
O32	O	1.682708	1.240694	0.058343
O33	O	1.086348	0.740567	-0.570693
O34	O	1.586348	1.240567	-0.070693
C35	C	1.134540	0.778752	-0.506192
C36	C	1.634540	1.278752	-0.006192
C37	C	1.134591	0.895528	-0.506217
C38	C	1.634591	1.395528	-0.006217
C39	C	0.930640	0.505765	-0.506187
C40	C	1.430640	1.005765	-0.006187
C41	C	0.843390	0.505782	-0.506199
C42	C	1.343390	1.005782	-0.006199
C43	C	1.134715	0.505534	-0.780249
C44	C	1.634715	1.005534	-0.280249
C45	C	1.134770	0.505427	-0.897026
C46	C	1.634770	1.005427	-0.397026
C47	C	0.802435	0.573019	-0.573276
C48	C	1.302435	1.073019	-0.073276
C49	C	0.720454	0.573021	-0.573293
C50	C	1.220454	1.073021	-0.073293
C51	C	0.679431	0.505791	-0.506227
C52	C	1.179431	1.005791	-0.006227
C53	C	0.720392	0.438548	-0.439146
C54	C	1.220392	0.938548	0.060854
C55	C	0.802371	0.438541	-0.439136
C56	C	1.302371	0.938541	0.060864
C57	C	0.549522	0.438568	-0.439172
C58	C	1.049522	0.938568	0.060828
C59	C	0.467538	0.438576	-0.439181
C60	C	0.967538	0.938576	0.060819
C61	C	0.467605	0.573048	-0.573329
C62	C	0.967605	1.073048	-0.073329
C63	C	0.549584	0.573042	-0.573318
C64	C	1.049584	1.073042	-0.073318
C65	C	0.590540	0.505799	-0.506236
C66	C	1.090540	1.005799	-0.006236
C67	C	1.339332	0.505804	-0.506245
C68	C	1.839332	1.005804	-0.006245
C69	C	1.426582	0.505813	-0.506258
C70	C	1.926582	1.005813	-0.006258
C71	C	1.134658	0.231751	-0.506262
C72	C	1.634658	0.731751	-0.006262
C73	C	1.134687	0.114974	-0.506283
C74	C	1.634687	0.614974	-0.006283
C75	C	1.184823	0.950421	-0.439104
C76	C	1.684823	1.450421	0.060896
C77	C	1.184873	1.060145	-0.439139
C78	C	1.684873	1.560145	0.060861
C79	C	1.084453	1.060073	-0.573403
C80	C	1.584453	1.560073	-0.073403
C81	C	1.084407	0.950351	-0.573372
C82	C	1.584407	1.450351	-0.073372
C83	C	1.134506	0.505958	-0.233248
C84	C	1.634506	1.005958	0.266752
C85	C	1.134604	0.505769	-0.116472
C86	C	1.634604	1.005769	0.383528
C87	C	1.184580	0.437843	0.047822
C88	C	1.684580	0.937843	0.547822
C89	C	1.184496	0.438011	-0.061902
C90	C	1.684496	0.938011	0.438098
C91	C	1.084788	0.573356	-0.061312
C92	C	1.584788	1.073356	0.438688
C93	C	1.084869	0.573182	0.048410
C94	C	1.584869	1.073182	0.548410
H95	H	0.835830	0.627768	-0.627886
H96	H	1.335830	1.127768	-0.127886
H97	H	1.225055	0.382976	-0.106802
H98	H	1.725055	0.882976	0.393198
F99	F	0.423879	0.367027	-0.367797
F100	F	0.923879	0.867027	0.132203
F101	F	1.030944	0.891926	-0.644811
F102	F	1.530944	1.391926	-0.144811
H103	H	1.044302	0.628216	0.093316
H104	H	1.544302	1.128216	0.593316
H105	H	0.434256	0.627797	-0.627953
H106	H	0.934256	1.127797	-0.127953
F107	F	1.238339	1.118562	-0.367711
F108	F	1.738339	1.618562	0.132289
H109	H	1.225210	0.382670	0.092244
H110	H	1.725210	0.882670	0.592244
F111	F	1.031687	0.645465	-0.119391
F112	F	1.531687	1.145465	0.380609
F113	F	0.676870	0.644583	-0.644686
F114	F	1.176870	1.144583	-0.144686
F115	F	0.593108	0.366999	-0.367777
F116	F	1.093108	0.866999	0.132223
F117	F	0.593243	0.644602	-0.644691
F118	F	1.093243	1.144602	-0.144691
F119	F	0.676730	0.366990	-0.367776
F120	F	1.176730	0.866990	0.132224
F121	F	1.238234	0.892078	-0.367633
F122	F	1.738234	1.392078	0.132367
F123	F	0.845959	0.366977	-0.367745
F124	F	1.345959	0.866977	0.132255
H125	H	1.043594	1.104724	-0.628077
H126	H	1.543594	1.604724	-0.128077
