data_functionalizedCrystal
_audit_creation_method	'MofGen! by Chris Wilmer'
_symmetry_space_group_name_H-M	'P1'
_symmetry_Int_Tables_number	1
_symmetry_cell_setting	triclinic
loop_
_symmetry_equiv_pos_as_xyz
  x,y,z
_cell_length_a	21.295420
_cell_length_b	18.050589
_cell_length_c	18.050582
_cell_angle_alpha	89.981795
_cell_angle_beta	90.015064
_cell_angle_gamma	89.973528
loop_
_atom_site_label
_atom_site_type_symbol
_atom_site_fract_x
_atom_site_fract_y
_atom_site_fract_z
Zn1	Zn	0.962306	0.295741	0.419938
Zn2	Zn	0.962230	0.419925	0.295757
Zn3	Zn	0.857046	0.295749	0.295762
Zn4	Zn	0.857002	0.419890	0.419906
O5	O	0.909646	0.357826	0.357841
O6	O	1.050385	0.312226	0.403477
O7	O	0.948264	0.403470	0.191833
O8	O	0.871059	0.191823	0.312249
O9	O	1.050329	0.403463	0.312242
O10	O	0.948393	0.191818	0.403481
O11	O	0.870986	0.312239	0.191836
O12	O	0.768951	0.312206	0.312218
O13	O	0.870984	0.403404	0.523834
O14	O	0.768919	0.403411	0.403426
O15	O	0.948350	0.312192	0.523858
O16	O	0.948221	0.523845	0.312210
O17	O	0.870911	0.523819	0.403422
C18	C	0.746094	0.357806	0.357819
C19	C	0.676126	0.357815	0.357828
C20	C	0.909570	0.550778	0.357828
C21	C	0.909595	0.633324	0.357848
C22	C	0.176668	0.405405	0.405287
C23	C	0.242411	0.405405	0.405279
C24	C	0.275287	0.357843	0.357864
C25	C	0.242415	0.310291	0.310440
C26	C	0.176674	0.310297	0.310444
N27	N	0.378526	0.292818	0.352271
N28	N	0.440978	0.292814	0.352272
C29	C	0.473362	0.357822	0.357848
N30	N	0.440935	0.422836	0.363439
N31	N	0.378478	0.422839	0.363442
C32	C	0.346572	0.357831	0.357854
C33	C	0.577511	0.405375	0.405257
C34	C	0.643255	0.405377	0.405244
C35	C	0.643258	0.310256	0.310409
C36	C	0.577516	0.310261	0.310418
C37	C	0.544646	0.357820	0.357846
C38	C	0.909671	0.357793	0.551546
C39	C	0.909681	0.357779	0.634092
C40	C	1.073836	0.357847	0.357862
C41	C	1.143804	0.357856	0.357872
C42	C	0.909739	0.164121	0.357869
C43	C	0.909779	0.081575	0.357881
C44	C	0.867595	0.832788	0.407431
C45	C	0.852255	0.882221	0.339664
C46	C	0.909657	0.784455	0.357858
C47	C	0.925028	0.882103	0.425633
C48	C	0.909716	0.930440	0.357873
C49	C	0.894287	0.832801	0.290054
C50	C	0.967086	0.832678	0.376069
C51	C	0.951768	0.882089	0.308255
C52	C	0.909622	0.700356	0.357850
C53	C	0.909751	1.014536	0.357873
C54	C	0.909658	0.357806	0.164889
C55	C	0.909769	0.357610	0.082343
C56	C	0.867642	0.407312	0.833530
C57	C	0.925073	0.425468	0.882923
C58	C	0.909712	0.357723	0.785223
C59	C	0.852313	0.339547	0.882911
C60	C	0.909737	0.357669	0.931208
C61	C	0.967174	0.375914	0.833528
C62	C	0.894374	0.289961	0.833512
C63	C	0.951845	0.308090	0.882883
C64	C	0.909697	0.357755	0.701124
C65	C	0.909759	0.357637	1.015304
H66	H	0.149910	0.444133	0.443903
O67	O	0.144650	0.264184	0.264398
C68	C	0.043373	0.222032	0.222387
C69	C	0.079563	0.274298	0.274565
H70	H	-0.009256	0.230179	0.230599
H71	H	0.056236	0.235010	0.162470
H72	H	0.056354	0.162167	0.235501
H73	H	0.066602	0.334180	0.261517
H74	H	0.066697	0.261256	0.334466
O75	O	0.878751	0.807203	0.221611
C76	C	0.850253	0.838482	0.096240
C77	C	0.867855	0.867572	0.173707
H78	H	0.841426	0.887275	0.057492
H79	H	0.890337	0.803279	0.073570
H80	H	0.805918	0.803345	0.100325
H81	H	0.912174	0.902740	0.169685
H82	H	0.827735	0.902735	0.196348
O83	O	0.825230	0.457458	0.807795
C84	C	0.747814	0.549768	0.838823
C85	C	0.795830	0.493018	0.868067
H86	H	0.724021	0.578523	0.887537
H87	H	0.772908	0.592724	0.803234
H88	H	0.710933	0.520028	0.804037
H89	H	0.832724	0.522695	0.902884
H90	H	0.770692	0.450066	0.903615
O91	O	0.794423	0.321267	0.908915
C92	C	0.729756	0.300036	1.016366
C93	C	0.795342	0.320755	0.987020
H94	H	0.730481	0.299600	1.079516
H95	H	0.693916	0.342403	0.996145
H96	H	0.716325	0.242710	0.995152
H97	H	0.808832	0.378063	1.008221
H98	H	0.831143	0.278340	1.007233
H99	H	0.831973	0.811140	0.449295
O100	O	0.994224	0.907885	0.258250
C101	C	1.042239	1.015108	0.202466
C102	C	0.994152	0.985992	0.259137
H103	H	1.042187	1.078261	0.203152
H104	H	1.091048	0.993910	0.217483
H105	H	1.029047	0.994701	0.144763
H106	H	1.007285	1.006388	0.316859
H107	H	0.945356	1.007185	0.244055
H108	H	1.015614	0.810901	0.391491
O109	O	0.940441	0.907852	0.494058
C110	C	0.913448	0.912038	0.623623
C111	C	0.895936	0.882818	0.546175
H112	H	0.877468	0.891822	0.665778
H113	H	0.962020	0.890787	0.639606
H114	H	0.913800	0.975188	0.622806
H115	H	0.895548	0.819670	0.546933
H116	H	0.847375	0.904125	0.530222
H117	H	0.938061	0.482750	0.904626
H118	H	0.803716	0.904000	0.324274
H119	H	1.015740	0.391330	0.811927
H120	H	0.987474	0.266131	0.904416
H121	H	0.881370	0.232695	0.811793
H122	H	0.550758	0.271539	0.271810
O123	O	0.274316	0.451512	0.451450
C124	C	0.294430	0.487736	0.577718
C125	C	0.258271	0.435465	0.525514
H126	H	0.281461	0.474791	0.637609
H127	H	0.347070	0.479555	0.569632
H128	H	0.281494	0.547602	0.564550
H129	H	0.271155	0.375579	0.538650
H130	H	0.205640	0.443711	0.533609
O131	O	0.274419	0.264193	0.264346
C132	C	0.348594	0.254067	0.164065
C133	C	0.312401	0.306354	0.216236
H134	H	0.379301	0.288133	0.125145
H135	H	0.379435	0.215288	0.198183
H136	H	0.313799	0.220064	0.130208
H137	H	0.347151	0.340404	0.250104
H138	H	0.281550	0.345084	0.182076
H139	H	0.550747	0.444101	0.443875
H140	H	0.670011	0.444102	0.443853
H141	H	0.670025	0.271533	0.271800
