data_functionalizedCrystal
_audit_creation_method	'MofGen! by Chris Wilmer'
_symmetry_space_group_name_H-M	'P1'
_symmetry_Int_Tables_number	1
_symmetry_cell_setting	triclinic
loop_
_symmetry_equiv_pos_as_xyz
  x,y,z
_cell_length_a	17.639044
_cell_length_b	17.640968
_cell_length_c	13.032721
_cell_angle_alpha	92.706512
_cell_angle_beta	95.439994
_cell_angle_gamma	87.838083
loop_
_atom_site_label
_atom_site_type_symbol
_atom_site_fract_x
_atom_site_fract_y
_atom_site_fract_z
Zn1	Zn	1.198615	-0.267934	0.664498
Zn2	Zn	1.158695	-0.162310	0.856838
Zn3	Zn	1.046936	-0.165243	0.651480
Zn4	Zn	1.062219	-0.307783	0.792126
O5	O	1.116616	-0.225818	0.741236
O6	O	1.297172	-0.236019	0.722542
O7	O	1.120767	-0.058842	0.851232
O8	O	1.077368	-0.163415	0.513852
O9	O	1.267843	-0.158417	0.863854
O10	O	1.188805	-0.238862	0.523415
O11	O	1.038659	-0.060996	0.700356
O12	O	0.945111	-0.202055	0.637607
O13	O	1.103415	-0.406355	0.753561
O14	O	0.956339	-0.306779	0.740939
O15	O	1.203624	-0.377078	0.659793
O16	O	1.135586	-0.197057	0.987610
O17	O	1.064706	-0.303936	0.940066
C18	C	0.923797	-0.259060	0.680839
C19	C	0.841310	-0.273302	0.655021
C20	C	0.740325	-0.333857	0.545148
C21	C	0.817832	-0.320471	0.569417
C22	C	0.787283	-0.239497	0.716388
C23	C	0.709771	-0.252874	0.692129
C24	C	0.686299	-0.300055	0.606509
C25	C	0.655745	-0.219071	0.753489
C26	C	0.578240	-0.232450	0.729235
C27	C	0.554762	-0.279632	0.643620
C28	C	0.608794	-0.313434	0.582254
C29	C	0.679219	-0.171894	0.839114
C30	C	0.625194	-0.138092	0.900474
C31	C	0.547687	-0.151467	0.876216
C32	C	0.524208	-0.198648	0.790601
C33	C	0.493655	-0.117664	0.937582
C34	C	0.416150	-0.131043	0.913327
C35	C	0.446704	-0.212027	0.766347
C36	C	1.159677	-0.419398	0.700911
C37	C	1.178027	-0.501891	0.683727
C38	C	0.977538	-0.849409	0.871328
C39	C	0.994797	-0.926920	0.855173
C40	C	1.099136	-0.896426	0.757541
C41	C	1.081883	-0.818911	0.773683
C42	C	1.021084	-0.795410	0.830578
C43	C	1.125429	-0.764912	0.732934
C44	C	1.108180	-0.687404	0.749080
C45	C	1.047385	-0.663896	0.805975
C46	C	1.003835	-0.717902	0.846724
C47	C	1.186232	-0.788415	0.676045
C48	C	1.229778	-0.734415	0.635296
C49	C	1.212526	-0.656906	0.651435
C50	C	1.151730	-0.633398	0.708330
C51	C	1.256076	-0.602900	0.610686
C52	C	1.238827	-0.525392	0.626832
C53	C	1.134481	-0.555890	0.724476
C54	C	1.310189	-0.192446	0.801869
C55	C	1.392678	-0.178225	0.827707
C56	C	1.097496	-0.254515	0.999974
C57	C	1.089390	-0.266805	1.110679
C58	C	1.073771	-0.032975	0.781345
C59	C	1.055585	0.049574	0.798293
C60	C	1.135835	-0.197021	0.481490
C61	C	1.144024	-0.184749	0.370802
C62	C	1.120894	-0.219430	1.183530
C63	C	1.112516	-0.232131	1.297951
H64	H	0.742328	-0.160990	0.858845
H65	H	1.148641	-0.915572	0.711220
O66	O	0.648101	-0.092356	0.983693
C67	C	0.697552	-0.133936	1.053368
H68	H	0.724275	-0.184340	1.010280
H69	H	0.744341	-0.095755	1.090002
H70	H	0.664029	-0.155335	1.116163
H71	H	0.491652	-0.290527	0.623877
H72	H	0.589681	-0.351845	0.512524
O73	O	0.809985	-0.193573	0.799504
C74	C	0.776219	-0.120465	0.787038
H75	H	0.722441	-0.124442	0.731447
H76	H	0.760837	-0.095516	0.864958
H77	H	0.818073	-0.082320	0.754629
H78	H	1.177203	-0.134785	1.348470
O79	O	0.717649	-0.379736	0.461964
C80	C	0.781950	-0.406686	0.412982
H81	H	0.834753	-0.404192	0.470537
H82	H	0.773350	-0.467873	0.383296
H83	H	0.789744	-0.369786	0.345506
H84	H	0.928013	-0.830274	0.917628
O85	O	0.952478	-0.979447	0.894587
C86	C	0.918700	-1.026246	0.813532
H87	H	0.953043	-1.024978	0.743846
H88	H	0.917876	-1.086963	0.839625
H89	H	0.857867	-1.004643	0.791583
H90	H	0.861819	-0.347997	0.519441
H91	H	1.056221	-0.316770	1.133018
O92	O	0.516564	-0.071933	1.020806
C93	C	0.566012	-0.113522	1.090474
H94	H	0.592732	-0.163924	1.047377
H95	H	0.612804	-0.075347	1.127113
H96	H	0.532488	-0.134925	1.153265
H97	H	1.200275	-0.851527	0.662904
O98	O	0.944859	-0.695091	0.902166
C99	C	0.957953	-0.722252	1.002546
H100	H	1.021609	-0.733909	1.021684
H101	H	0.936602	-0.677828	1.060366
H102	H	0.926236	-0.776980	1.006758
H103	H	0.372160	-0.103520	0.963295
O104	O	1.288789	-0.757379	0.580016
C105	C	1.294691	-0.837368	0.574527
H106	H	1.237363	-0.861451	0.587002
H107	H	1.311796	-0.857687	0.495374
H108	H	1.339685	-0.857647	0.636765
O109	O	1.075506	-0.533080	0.779918
C110	C	1.088599	-0.560240	0.880298
H111	H	1.152255	-0.571897	0.899436
H112	H	1.067248	-0.515816	0.938118
H113	H	1.056882	-0.614968	0.884510
O114	O	1.073044	-0.291830	1.324542
C115	C	1.107495	-0.360226	1.288753
H116	H	1.169713	-0.350633	1.277782
H117	H	1.104253	-0.405539	1.347577
H118	H	1.076378	-0.379813	1.211965
O119	O	1.030543	-0.588635	0.821795
C120	C	0.967531	-0.579474	0.880725
H121	H	0.962777	-0.632385	0.926347
H122	H	0.975586	-0.527948	0.936330
H123	H	0.913277	-0.570681	0.827152
H124	H	1.305583	-0.622047	0.564371
O125	O	1.281061	-0.472962	0.587076
C126	C	1.276415	-0.483698	0.478799
H127	H	1.222245	-0.514677	0.450757
H128	H	1.275099	-0.426165	0.442228
H129	H	1.328144	-0.518932	0.455855
O130	O	1.160401	-0.159737	1.157008
C131	C	1.125923	-0.091340	1.192747
H132	H	1.091555	-0.103028	1.259758
H133	H	1.171869	-0.049237	1.219855
H134	H	1.086469	-0.066446	1.127528
O135	O	0.423810	-0.257921	0.683276
C136	C	0.385459	-0.319832	0.716084
H137	H	0.362444	-0.303933	0.793343
H138	H	0.336169	-0.334735	0.656409
H139	H	0.426752	-0.370889	0.725028
