data_functionalizedCrystal
_audit_creation_method	'MofGen! by Chris Wilmer'
_symmetry_space_group_name_H-M	'P1'
_symmetry_Int_Tables_number	1
_symmetry_cell_setting	triclinic
loop_
_symmetry_equiv_pos_as_xyz
  x,y,z
_cell_length_a	10.268362
_cell_length_b	17.699083
_cell_length_c	17.699083
_cell_angle_alpha	83.283015
_cell_angle_beta	89.993826
_cell_angle_gamma	90.001444
loop_
_atom_site_label
_atom_site_type_symbol
_atom_site_fract_x
_atom_site_fract_y
_atom_site_fract_z
O1	O	0.108120	-1.004076	-0.095712
O2	O	0.108163	-0.783697	-0.108164
O3	O	0.108129	-0.900113	0.008251
O4	O	0.108154	-0.887660	-0.212127
O5	O	-0.108472	-0.900103	0.008256
O6	O	-0.108437	-0.783687	-0.108160
O7	O	-0.108480	-1.004066	-0.095707
Cu8	Cu	-0.128236	-0.893876	-0.101933
Cu9	Cu	0.127919	-0.893888	-0.101938
O10	O	-0.108446	-0.887650	-0.212122
C11	C	-0.000132	-0.755495	-0.107716
C12	C	-0.000116	-0.671477	-0.106377
N13	N	-0.308402	-0.893873	-0.101928
C14	C	-0.000171	-0.899662	0.036451
C15	C	-0.000172	-0.898323	0.120469
C16	C	-0.574073	-0.893884	-0.101937
C17	C	-0.426235	-0.893875	-0.101934
N18	N	0.308085	-0.893896	-0.101937
C19	C	-0.000183	-1.032268	-0.096156
C20	C	-0.000190	-1.116286	-0.097494
C21	C	-0.000108	-0.622856	-0.174710
C22	C	-0.000125	-0.543913	-0.173448
C23	C	-0.000140	-0.513592	-0.103852
C24	C	-0.000152	-0.562219	-0.035513
C25	C	-0.000144	-0.641161	-0.036776
C26	C	-0.000184	-0.243856	-0.030418
C27	C	-0.000188	-0.164908	-0.029160
C28	C	-0.000166	-0.146608	-0.167090
C29	C	-0.000158	-0.225550	-0.168353
C30	C	-0.000176	-0.274170	-0.100015
C31	C	-0.000160	-0.359769	-0.101384
C32	C	-0.000147	-0.427995	-0.102481
C33	C	-0.000143	-0.888102	-0.240322
C34	C	-0.000134	-0.889440	-0.324340
C35	C	-0.000187	-0.966656	0.169090
C36	C	-0.000175	-0.965394	0.248033
C37	C	-0.000157	-0.895798	0.278354
C38	C	-0.000138	-0.827459	0.229727
C39	C	-0.000141	-0.828722	0.150785
C40	C	-0.000127	-0.822364	0.548090
C41	C	-0.000128	-0.821106	0.627038
C42	C	-0.000161	-0.959036	0.645338
C43	C	-0.000163	-0.960299	0.566396
C44	C	-0.000138	-0.891961	0.517776
C45	C	-0.000148	-0.893330	0.432177
C46	C	-0.000156	-0.894427	0.363951
H47	H	-0.000095	-0.647537	-0.231384
C48	C	-0.000196	-0.297328	0.044751
H49	H	-0.000192	-0.267962	0.086379
H50	H	-0.075728	-0.328507	0.047130
H51	H	0.075349	-0.328501	0.047126
C52	C	-0.000168	-1.034208	0.698822
H53	H	-0.000148	-1.023492	0.750180
H54	H	-0.075708	-1.062749	0.689652
H55	H	0.075368	-1.062753	0.689636
H56	H	-0.000116	-0.764429	0.651721
H57	H	-0.000183	-0.537526	0.021154
H58	H	-0.000202	-0.140225	0.027517
C59	C	-0.000139	-0.694644	0.038390
H60	H	-0.000135	-0.665282	0.080021
H61	H	-0.075668	-0.725826	0.040769
H62	H	0.075409	-0.725813	0.040760
H63	H	-0.000106	-0.766718	0.508512
H64	H	-0.000128	-0.773078	0.111198
C65	C	-0.000154	-0.093127	-0.242264
H66	H	-0.000127	-0.122493	-0.283892
H67	H	-0.075689	-0.061954	-0.244644
H68	H	0.075388	-0.061950	-0.244636
C69	C	-0.000206	-1.043214	0.135744
H70	H	-0.000201	-1.083729	0.176010
H71	H	-0.075740	-1.046572	0.105334
H72	H	0.075336	-1.046576	0.105325
H73	H	-0.000116	-0.770792	0.254420
H74	H	-0.000184	-1.016971	0.541714
C75	C	-0.000113	-0.490433	-0.248615
H76	H	-0.000086	-0.519797	-0.290244
H77	H	-0.075650	-0.459262	-0.250992
H78	H	0.075427	-0.459254	-0.250988
C79	C	-0.000147	-0.258899	-0.244909
H80	H	-0.000158	-0.218635	-0.285426
H81	H	0.075387	-0.289312	-0.248272
H82	H	-0.075690	-0.289315	-0.248262
C83	C	-0.000205	-1.040561	0.301513
H84	H	-0.000235	-1.082190	0.272149
H85	H	0.075327	-1.042947	0.332685
H86	H	-0.075749	-1.042926	0.332691
