data_functionalizedCrystal
_audit_creation_method	'MofGen! by Chris Wilmer'
_symmetry_space_group_name_H-M	'P1'
_symmetry_Int_Tables_number	1
_symmetry_cell_setting	triclinic
loop_
_symmetry_equiv_pos_as_xyz
  x,y,z
_cell_length_a	16.959453
_cell_length_b	12.759401
_cell_length_c	16.959447
_cell_angle_alpha	90.016152
_cell_angle_beta	90.029791
_cell_angle_gamma	90.019073
loop_
_atom_site_label
_atom_site_type_symbol
_atom_site_fract_x
_atom_site_fract_y
_atom_site_fract_z
Zn1	Zn	-0.314695	1.606190	0.446866
Zn2	Zn	-0.446885	1.606076	0.314686
Zn3	Zn	-0.314722	1.430500	0.314708
Zn4	Zn	-0.446833	1.430464	0.446829
O5	O	-0.380784	1.518307	0.380772
O6	O	-0.332241	1.753196	0.429339
O7	O	-0.429386	1.582753	0.204078
O8	O	-0.204108	1.453868	0.332264
O9	O	-0.429360	1.753112	0.332227
O10	O	-0.204088	1.582947	0.429360
O11	O	-0.332286	1.453758	0.204094
O12	O	-0.332237	1.283474	0.332228
O13	O	-0.429272	1.453807	0.557445
O14	O	-0.429298	1.283448	0.429296
O15	O	-0.332191	1.582912	0.557472
O16	O	-0.557489	1.582718	0.332190
O17	O	-0.557451	1.453697	0.429275
C18	C	-0.380765	1.245340	0.380761
C19	C	-0.380777	1.128563	0.380774
C20	C	-0.330316	0.964009	0.431424
C21	C	-0.330301	1.073733	0.431419
C22	C	-0.431277	1.073665	0.330137
C23	C	-0.431296	0.963943	0.330147
C24	C	-0.586150	1.518220	0.380743
C25	C	-0.674007	1.518279	0.380757
C26	C	-1.045413	1.585605	0.431426
C27	C	-1.045551	1.451304	0.330236
C28	C	-0.963005	1.451265	0.330218
C29	C	-0.921660	1.518396	0.380805
C30	C	-0.962860	1.585566	0.431411
C31	C	-0.921799	1.384088	0.279619
C32	C	-0.839248	1.384046	0.279600
C33	C	-0.797901	1.451183	0.330184
C34	C	-0.839106	1.518357	0.380790
C35	C	-0.797761	1.585488	0.431378
C36	C	-0.838965	1.652667	0.481981
C37	C	-0.921513	1.652703	0.481995
C38	C	-0.715352	1.451147	0.330170
C39	C	-0.715207	1.585449	0.431363
C40	C	-0.174616	1.518424	0.380819
C41	C	-0.086759	1.518474	0.380838
C42	C	-0.380723	1.518369	0.586941
C43	C	-0.380697	1.518395	0.674797
C44	C	-0.380803	1.792341	0.380784
C45	C	-0.380811	1.909117	0.380790
C46	C	-0.380787	1.518307	0.175406
C47	C	-0.380591	1.518485	0.087550
C48	C	-0.431239	1.585570	0.716064
C49	C	-0.330135	1.451238	0.716084
C50	C	-0.330112	1.451256	0.798630
C51	C	-0.380654	1.518431	0.839897
C52	C	-0.431219	1.585588	0.798618
C53	C	-0.279553	1.384092	0.839914
C54	C	-0.279529	1.384107	0.922465
C55	C	-0.330067	1.451288	0.963734
C56	C	-0.380634	1.518449	0.922450
C57	C	-0.431176	1.585624	0.963718
C58	C	-0.481739	1.652790	0.922435
C59	C	-0.481758	1.652769	0.839887
C60	C	-0.330049	1.451309	1.046283
C61	C	-0.431156	1.585642	1.046271
H62	H	-0.681549	1.640119	0.472554
H63	H	-0.472419	0.919249	0.288914
N64	N	-0.485769	1.658017	0.671546
H65	H	-0.478204	1.647699	0.612989
H66	H	-0.542211	1.641753	0.686052
H67	H	-0.238410	1.329395	0.806309
H68	H	-0.522924	1.707451	0.806267
H69	H	-0.805292	1.707321	0.523173
H70	H	-0.955069	1.707396	0.523194
H71	H	-0.472378	1.118317	0.288905
N72	N	-1.089847	1.658065	0.485999
H73	H	-1.148416	1.647911	0.478334
H74	H	-1.075388	1.641662	0.542438
H75	H	-0.289184	1.118420	0.472652
H76	H	-0.289208	0.919373	0.472660
N77	N	-0.485677	1.658096	1.090771
H78	H	-0.522299	1.615388	1.125003
H79	H	-0.453495	1.706794	1.124992
H80	H	-1.079219	1.396644	0.289054
H81	H	-0.522893	1.707481	0.956046
H82	H	-0.238357	1.329416	0.956070
N83	N	-0.966389	1.311695	0.225055
H84	H	-1.024936	1.321924	0.232737
H85	H	-0.951984	1.328095	0.168614
N86	N	-0.275630	1.378781	0.671579
H87	H	-0.283317	1.388958	0.613020
H88	H	-0.219174	1.395166	0.686022
N89	N	-0.275526	1.378868	1.090809
H90	H	-0.243515	1.336306	1.052141
H91	H	-0.238936	1.421655	1.125073
N92	N	-0.794809	1.311599	0.225020
H93	H	-0.833528	1.269079	0.192976
H94	H	-0.760568	1.354385	0.188462
H95	H	-0.681808	1.396446	0.288973
