data_functionalizedCrystal
_audit_creation_method	'MofGen! by Chris Wilmer'
_symmetry_space_group_name_H-M	'P1'
_symmetry_Int_Tables_number	1
_symmetry_cell_setting	triclinic
loop_
_symmetry_equiv_pos_as_xyz
  x,y,z
_cell_length_a	16.959454
_cell_length_b	16.625548
_cell_length_c	16.959447
_cell_angle_alpha	89.981950
_cell_angle_beta	90.021798
_cell_angle_gamma	89.997942
loop_
_atom_site_label
_atom_site_type_symbol
_atom_site_fract_x
_atom_site_fract_y
_atom_site_fract_z
Zn1	Zn	0.314643	1.232781	-0.446979
Zn2	Zn	0.647976	1.566114	-0.113646
Zn3	Zn	0.981309	1.899447	0.219687
Zn4	Zn	0.446835	1.232740	-0.314821
Zn5	Zn	0.780169	1.566074	0.018513
Zn6	Zn	1.113502	1.899407	0.351846
Zn7	Zn	0.314677	1.097949	-0.314814
Zn8	Zn	0.648011	1.431282	0.018519
Zn9	Zn	0.981344	1.764615	0.351852
Zn10	Zn	0.446786	1.097964	-0.446957
Zn11	Zn	0.780119	1.431297	-0.113623
Zn12	Zn	1.113452	1.764630	0.219710
O13	O	0.380735	1.165358	-0.380893
O14	O	0.714069	1.498692	-0.047559
O15	O	1.047402	1.832025	0.285774
O16	O	0.332185	1.345608	-0.429460
O17	O	0.665518	1.678941	-0.096127
O18	O	0.998851	2.012274	0.237206
O19	O	0.429340	1.214837	-0.204209
O20	O	0.762673	1.548170	0.129124
O21	O	1.096006	1.881504	0.462458
O22	O	0.204062	1.115845	-0.332353
O23	O	0.537395	1.449178	0.000980
O24	O	0.870728	1.782512	0.334314
O25	O	0.429306	1.345578	-0.332364
O26	O	0.762639	1.678912	0.000969
O27	O	1.095973	2.012245	0.334303
O28	O	0.204036	1.214906	-0.429454
O29	O	0.537370	1.548239	-0.096121
O30	O	0.870703	1.881572	0.237212
O31	O	0.332244	1.115806	-0.204204
O32	O	0.665577	1.449139	0.129129
O33	O	0.998910	1.782472	0.462462
O34	O	0.332195	0.985118	-0.332331
O35	O	0.665529	1.318451	0.001002
O36	O	0.998862	1.651785	0.334336
O37	O	0.429221	1.115870	-0.557571
O38	O	0.762555	1.449204	-0.224237
O39	O	1.095888	1.782537	0.109096
O40	O	0.429255	0.985129	-0.429416
O41	O	0.762588	1.318462	-0.096082
O42	O	1.095921	1.651796	0.237251
O43	O	0.332136	1.214920	-0.557587
O44	O	0.665470	1.548253	-0.224254
O45	O	0.998803	1.881587	0.109079
O46	O	0.557440	1.214851	-0.332342
O47	O	0.890773	1.548185	0.000991
O48	O	1.224106	1.881518	0.334325
O49	O	0.557403	1.115831	-0.429422
O50	O	0.890736	1.449165	-0.096088
O51	O	1.224070	1.782498	0.237245
C52	C	0.380724	0.955867	-0.380871
C53	C	0.714057	1.289201	-0.047537
C54	C	1.047391	1.622534	0.285796
C55	C	0.380738	0.866246	-0.380880
C56	C	0.714071	1.199580	-0.047547
C57	C	1.047405	1.532913	0.285787
C58	C	0.174567	1.165378	-0.380905
C59	C	0.507900	1.498711	-0.047572
C60	C	0.841234	1.832045	0.285761
C61	C	0.086710	1.165386	-0.380911
C62	C	0.420044	1.498720	-0.047578
C63	C	0.753377	1.832053	0.285756
C64	C	-0.284781	1.217007	-0.431480
C65	C	0.048552	1.550341	-0.098147
C66	C	0.381886	1.883674	0.235186
C67	C	-0.284750	1.113855	-0.330368
C68	C	0.048584	1.447188	0.002965
C69	C	0.381917	1.780521	0.336299
C70	C	-0.202204	1.113843	-0.330365
C71	C	0.131130	1.447176	0.002968
C72	C	0.464463	1.780510	0.336302
C73	C	-0.160943	1.165415	-0.380920
C74	C	0.172391	1.498748	-0.047586
C75	C	0.505724	1.832082	0.285747
C76	C	-0.202227	1.216999	-0.431477
C77	C	0.131106	1.550332	-0.098144
C78	C	0.464439	1.883666	0.235189
C79	C	-0.160913	1.062266	-0.279803
C80	C	0.172421	1.395599	0.053530
C81	C	0.505754	1.728933	0.386864
C82	C	-0.078362	1.062253	-0.279797
C83	C	0.254972	1.395586	0.053536
C84	C	0.588305	1.728919	0.386869
C85	C	-0.037099	1.113821	-0.330357
C86	C	0.296234	1.447155	0.002977
C87	C	0.629567	1.780488	0.336310
C88	C	-0.078389	1.165407	-0.380917
C89	C	0.254944	1.498740	-0.047583
C90	C	0.588278	1.832073	0.285750
C91	C	-0.037128	1.216979	-0.431471
C92	C	0.296205	1.550312	-0.098138
C93	C	0.629539	1.883645	0.235195
C94	C	-0.078416	1.268561	-0.482036
C95	C	0.254917	1.601894	-0.148703
C96	C	0.588250	1.935227	0.184630
C97	C	-0.160965	1.268568	-0.482037
C98	C	0.172369	1.601901	-0.148703
C99	C	0.505702	1.935234	0.184630
C100	C	0.045449	1.113814	-0.330356
C101	C	0.378783	1.447148	0.002977
C102	C	0.712116	1.780481	0.336310
C103	C	0.045426	1.216970	-0.431468
C104	C	0.378759	1.550304	-0.098135
C105	C	0.712092	1.883637	0.235198
C106	C	0.380743	0.538071	-0.380914
C107	C	0.714077	0.871404	-0.047580
C108	C	1.047410	1.204737	0.285753
C109	C	0.380740	0.629379	-0.380902
C110	C	0.714073	0.962713	-0.047568
C111	C	1.047406	1.296046	0.285765
C112	C	0.380741	0.702156	-0.380896
C113	C	0.714074	1.035489	-0.047563
C114	C	1.047408	1.368822	0.285770
C115	C	0.380737	0.793470	-0.380886
C116	C	0.714070	1.126803	-0.047552
C117	C	1.047403	1.460137	0.285781
C118	C	0.586101	1.165361	-0.380897
C119	C	0.919435	1.498694	-0.047564
C120	C	1.252768	1.832027	0.285769
C121	C	0.673958	1.165435	-0.380926
C122	C	1.007291	1.498769	-0.047592
C123	C	1.340625	1.832102	0.285741
C124	C	0.380669	1.165401	-0.587061
C125	C	0.714003	1.498735	-0.253728
C126	C	1.047336	1.832068	0.079606
C127	C	0.380641	1.165420	-0.674918
C128	C	0.713975	1.498753	-0.341584
C129	C	1.047308	1.832087	-0.008251
C130	C	0.380747	1.375667	-0.380915
C131	C	0.714080	1.709001	-0.047582
C132	C	1.047414	2.042334	0.285751
C133	C	0.380752	1.465288	-0.380925
C134	C	0.714086	1.798622	-0.047592
C135	C	1.047419	2.131955	0.285742
C136	C	0.330005	1.113930	-1.046397
C137	C	0.663338	1.447263	-0.713064
C138	C	0.996671	1.780597	-0.379731
C139	C	0.431112	1.217052	-1.046390
C140	C	0.764445	1.550385	-0.713056
C141	C	1.097778	1.883718	-0.379723
C142	C	0.431130	1.217038	-0.963844
C143	C	0.764464	1.550371	-0.630510
C144	C	1.097797	1.883704	-0.297177
C145	C	0.380586	1.165468	-0.922571
C146	C	0.713919	1.498802	-0.589237
C147	C	1.047253	1.832135	-0.255904
C148	C	0.330023	1.113913	-0.963844
C149	C	0.663357	1.447246	-0.630510
C150	C	0.996690	1.780579	-0.297177
C151	C	0.481698	1.268587	-0.922565
C152	C	0.815031	1.601920	-0.589231
C153	C	1.148364	1.935253	-0.255898
C154	C	0.481719	1.268574	-0.840014
C155	C	0.815052	1.601907	-0.506680
C156	C	1.148385	1.935241	-0.173347
C157	C	0.431170	1.217008	-0.798739
C158	C	0.764503	1.550341	-0.465406
C159	C	1.097836	1.883675	-0.132073
C160	C	0.380604	1.165451	-0.840017
C161	C	0.713938	1.498784	-0.506684
C162	C	1.047271	1.832118	-0.173351
C163	C	0.330060	1.113882	-0.798744
C164	C	0.663394	1.447215	-0.465411
C165	C	0.996727	1.780548	-0.132078
C166	C	0.279490	1.062328	-0.840021
C167	C	0.612824	1.395661	-0.506687
C168	C	0.946157	1.728995	-0.173354
C169	C	0.279474	1.062347	-0.922569
C170	C	0.612808	1.395680	-0.589236
C171	C	0.946141	1.729013	-0.255903
C172	C	0.431186	1.216989	-0.716191
C173	C	0.764519	1.550323	-0.382857
C174	C	1.097852	1.883656	-0.049524
C175	C	0.330079	1.113864	-0.716191
C176	C	0.663412	1.447198	-0.382857
C177	C	0.996745	1.780531	-0.049524
C178	C	0.380744	1.165362	-0.175527
C179	C	0.714077	1.498695	0.157807
C180	C	1.047410	1.832028	0.491140
C181	C	0.380549	1.165499	-0.087670
C182	C	0.713882	1.498833	0.245663
C183	C	1.047216	1.832166	0.578996
H184	H	0.079015	1.258961	-0.472643
H185	H	0.412348	1.592294	-0.139309
H186	H	0.745681	1.925628	0.194024
N187	N	0.224971	1.006715	-0.795499
N188	N	0.558304	1.340049	-0.462166
N189	N	0.891637	1.673382	-0.128833
H190	H	0.192930	0.974060	-0.834169
H191	H	0.526263	1.307394	-0.500835
H192	H	0.859596	1.640727	-0.167502
H193	H	0.257152	0.969390	-0.761242
H194	H	0.590485	1.302723	-0.427908
H195	H	0.923818	1.636057	-0.094575
N196	N	0.224960	1.006722	-0.967087
N197	N	0.558293	1.340055	-0.633754
N198	N	0.891627	1.673389	-0.300421
H199	H	0.232630	1.014548	-1.025644
H200	H	0.565963	1.347882	-0.692310
H201	H	0.899297	1.681215	-0.358977
H202	H	0.237287	0.949141	-0.952635
H203	H	0.570620	1.282475	-0.619302
H204	H	0.903954	1.615808	-0.285968
N205	N	0.275559	1.058238	-0.671686
N206	N	0.608892	1.391571	-0.338353
N207	N	0.942225	1.724904	-0.005020
H208	H	0.307684	1.020858	-0.637429
H209	H	0.641018	1.354191	-0.304096
H210	H	0.974351	1.687525	0.029237
H211	H	0.238948	1.091057	-0.637490
H212	H	0.572282	1.424390	-0.304156
H213	H	0.905615	1.757724	0.029177
N214	N	-0.205505	1.324201	-0.536559
N215	N	0.127828	1.657534	-0.203226
N216	N	0.461161	1.990867	0.130107
H217	H	-0.191131	1.381807	-0.524289
H218	H	0.142202	1.715140	-0.190955
H219	H	0.475536	2.048474	0.142378
H220	H	-0.191151	1.311623	-0.593015
H221	H	0.142183	1.644956	-0.259682
H222	H	0.475516	1.978290	0.073652
N223	N	-0.329243	1.058228	-0.275844
N224	N	0.004091	1.391562	0.057489
N225	N	0.337424	1.724895	0.390822
H226	H	-0.314854	1.070736	-0.219369
H227	H	0.018479	1.404069	0.113964
H228	H	0.351812	1.737402	0.447297
H229	H	-0.387789	1.066084	-0.283581
H230	H	-0.054455	1.399418	0.049752
H231	H	0.278878	1.732751	0.383086
H232	H	0.288830	1.071959	-1.080008
H233	H	0.622163	1.405292	-0.746675
H234	H	0.955496	1.738625	-0.413342
N235	N	0.485636	1.272659	-1.090901
N236	N	0.818969	1.605992	-0.757567
N237	N	1.152303	1.939326	-0.424234
H238	H	0.477956	1.264843	-1.149458
H239	H	0.811289	1.598176	-0.816125
H240	H	1.144622	1.931510	-0.482791
H241	H	0.473345	1.330246	-1.076487
H242	H	0.806678	1.663579	-0.743153
H243	H	1.140012	1.996912	-0.409820
H244	H	0.522857	1.310563	-0.956175
H245	H	0.856190	1.643896	-0.622842
H246	H	1.189523	1.977229	-0.289508
H247	H	0.522897	1.310551	-0.806413
H248	H	0.856230	1.643885	-0.473080
H249	H	1.189563	1.977218	-0.139747
H250	H	0.472354	1.258969	-0.682587
H251	H	0.805687	1.592302	-0.349254
H252	H	1.139020	1.925636	-0.015920
H253	H	-0.318400	1.259002	-0.472652
H254	H	0.014933	1.592336	-0.139318
H255	H	0.348267	1.925669	0.194015
N256	N	-0.033910	1.324190	-0.536556
N257	N	0.299423	1.657523	-0.203223
N258	N	0.632756	1.990856	0.130110
H259	H	0.024648	1.316356	-0.528875
H260	H	0.357981	1.649690	-0.195541
H261	H	0.691314	1.983023	0.137792
H262	H	-0.048351	1.311653	-0.593010
H263	H	0.284982	1.644987	-0.259676
H264	H	0.618316	1.978320	0.073657
H265	H	-0.194510	1.020281	-0.238639
H266	H	0.138823	1.353615	0.094695
H267	H	0.472157	1.686948	0.428028
H268	H	-0.044752	1.020251	-0.238625
H269	H	0.288582	1.353584	0.094708
H270	H	0.621915	1.686918	0.428042
H271	H	0.079063	1.071820	-0.289185
H272	H	0.412396	1.405153	0.044149
H273	H	0.745729	1.738487	0.377482
