data_functionalizedCrystal
_audit_creation_method	'MofGen! by Chris Wilmer'
_symmetry_space_group_name_H-M	'P1'
_symmetry_Int_Tables_number	1
_symmetry_cell_setting	triclinic
loop_
_symmetry_equiv_pos_as_xyz
  x,y,z
_cell_length_a	19.805407
_cell_length_b	19.077713
_cell_length_c	19.805399
_cell_angle_alpha	92.272310
_cell_angle_beta	89.982197
_cell_angle_gamma	87.730174
loop_
_atom_site_label
_atom_site_type_symbol
_atom_site_fract_x
_atom_site_fract_y
_atom_site_fract_z
Zn1	Zn	1.045542	-0.280249	-0.393524
Zn2	Zn	1.545542	0.219751	0.106476
Zn3	Zn	1.049995	-0.397939	-0.284887
Zn4	Zn	1.549995	0.102061	0.215113
Zn5	Zn	0.932357	-0.280262	-0.280353
Zn6	Zn	1.432357	0.219738	0.219647
Zn7	Zn	0.936857	-0.397896	-0.398035
Zn8	Zn	1.436857	0.102104	0.101965
O9	O	0.991188	-0.339087	-0.339200
O10	O	1.491188	0.160913	0.160800
O11	O	1.140850	-0.295873	-0.379123
O12	O	1.640850	0.204127	0.120877
O13	O	1.034371	-0.382353	-0.189569
O14	O	1.534371	0.117647	0.310431
O15	O	0.943625	-0.181776	-0.291580
O16	O	1.443625	0.318224	0.208420
O17	O	1.144122	-0.382340	-0.299307
O18	O	1.644122	0.117660	0.200693
O19	O	1.026781	-0.181766	-0.374726
O20	O	1.526781	0.318234	0.125274
O21	O	0.947943	-0.295896	-0.186238
O22	O	1.447943	0.204104	0.313762
O23	O	0.838237	-0.295855	-0.295954
O24	O	1.338237	0.204145	0.204046
O25	O	0.951294	-0.382266	-0.492152
O26	O	1.451294	0.117734	0.007848
O27	O	0.841543	-0.382280	-0.382415
O28	O	1.341543	0.117720	0.117585
O29	O	1.031144	-0.295831	-0.488838
O30	O	1.531144	0.204169	0.011162
O31	O	1.038734	-0.496418	-0.303681
O32	O	1.538734	0.003582	0.196319
O33	O	0.955612	-0.496386	-0.386811
O34	O	1.455612	0.003614	0.113189
C35	C	0.815331	-0.339065	-0.339182
C36	C	1.315331	0.160935	0.160818
C37	C	0.740099	-0.339072	-0.339192
C38	C	1.240099	0.160928	0.160808
C39	C	0.703055	-0.294129	-0.380820
C40	C	1.203055	0.205871	0.119180
C41	C	0.632367	-0.294132	-0.380823
C42	C	1.132367	0.205868	0.119177
C43	C	0.598724	-0.339084	-0.339200
C44	C	1.098724	0.160916	0.160800
C45	C	0.635773	-0.384029	-0.297567
C46	C	1.135773	0.115971	0.202433
C47	C	0.706460	-0.384022	-0.297561
C48	C	1.206460	0.115978	0.202439
C49	C	0.350701	-0.384061	-0.297589
C50	C	0.850701	0.115939	0.202411
C51	C	0.280009	-0.384067	-0.297599
C52	C	0.780009	0.115933	0.202401
C53	C	0.276608	-0.294172	-0.380851
C54	C	0.776608	0.205828	0.119149
C55	C	0.347295	-0.294164	-0.380845
C56	C	0.847295	0.205836	0.119155
C57	C	0.384338	-0.339107	-0.339209
C58	C	0.884338	0.160893	0.160791
C59	C	0.460986	-0.339101	-0.339206
C60	C	0.960986	0.160899	0.160794
C61	C	0.522077	-0.339093	-0.339207
C62	C	1.022077	0.160907	0.160793
C63	C	0.998163	-0.521938	-0.346242
C64	C	1.498163	-0.021938	0.153758
C65	C	1.001208	-0.600162	-0.349278
C66	C	1.501208	-0.100162	0.150722
C67	C	1.023051	-1.040476	-0.371030
C68	C	1.523051	-0.540476	0.128970
C69	C	1.020181	-0.966976	-0.368172
C70	C	1.520181	-0.466976	0.131828
C71	C	0.975486	-0.930298	-0.323424
C72	C	1.475486	-0.430298	0.176576
C73	C	0.933662	-0.967123	-0.281526
C74	C	1.433662	-0.467123	0.218474
C75	C	0.936535	-1.040622	-0.284382
C76	C	1.436535	-0.540622	0.215618
C77	C	0.962258	-0.710487	-0.310236
C78	C	1.462258	-0.210487	0.189764
C79	C	0.959386	-0.636983	-0.307385
C80	C	1.459386	-0.136983	0.192615
C81	C	1.045907	-0.636841	-0.394030
C82	C	1.545907	-0.136841	0.105970
C83	C	1.048773	-0.710341	-0.396884
C84	C	1.548773	-0.210341	0.103116
C85	C	1.006952	-0.747160	-0.354985
C86	C	1.506952	-0.247160	0.145015
N87	N	0.972551	-0.855169	-0.320503
N88	N	1.472551	-0.355169	0.179497
N89	N	1.009891	-0.822288	-0.357903
N90	N	1.509891	-0.322288	0.142097
C91	C	1.167732	-0.339109	-0.339217
C92	C	1.667732	0.160891	0.160783
C93	C	1.242964	-0.339119	-0.339225
C94	C	1.742964	0.160881	0.160775
C95	C	0.991224	-0.339042	-0.515741
C96	C	1.491224	0.160958	-0.015741
C97	C	0.991240	-0.339023	-0.590972
C98	C	1.491240	0.160977	-0.090972
C99	C	0.984204	-0.155521	-0.332144
C100	C	1.484204	0.344479	0.167856
C101	C	0.981229	-0.077297	-0.329137
C102	C	1.481229	0.422703	0.170863
C103	C	1.032819	-0.294014	-0.624591
C104	C	1.532819	0.205986	-0.124591
C105	C	1.032825	-0.293994	-0.695279
C106	C	1.532825	0.206006	-0.195279
C107	C	0.991255	-0.338987	-0.732346
C108	C	1.491255	0.161013	-0.232346
C109	C	0.949671	-0.383998	-0.698722
C110	C	1.449671	0.116002	-0.198722
C111	C	0.949662	-0.384014	-0.628035
C112	C	1.449662	0.115986	-0.128035
C113	C	0.949707	-0.383932	-0.983793
C114	C	1.449707	0.116068	-0.483793
C115	C	0.949721	-0.383914	-1.054484
C116	C	1.449721	0.116086	-0.554484
C117	C	1.032870	-0.293912	-1.051037
C118	C	1.532870	0.206088	-0.551037
C119	C	1.032861	-0.293928	-0.980350
C120	C	1.532861	0.206072	-0.480350
C121	C	0.991274	-0.338937	-0.946732
C122	C	1.491274	0.161063	-0.446732
C123	C	0.991267	-0.338957	-0.870084
C124	C	1.491267	0.161043	-0.370084
C125	C	0.991265	-0.338970	-0.808993
C126	C	1.491265	0.161030	-0.308993
C127	C	0.991189	-0.339080	-0.163343
C128	C	1.491189	0.160920	0.336657
C129	C	0.991297	-0.338901	-0.088105
C130	C	1.491297	0.161099	0.411895
H131	H	0.380853	-0.420657	-0.263687
H132	H	0.880853	0.079343	0.236313
H133	H	0.915867	-0.420554	-1.084663
H134	H	1.415867	0.079446	-0.584663
H135	H	0.730442	-0.257526	-0.414717
H136	H	1.230442	0.242474	0.085283
H137	H	1.059440	-1.070335	-0.407476
H138	H	1.559440	-0.570335	0.092524
O139	O	0.904820	-0.432438	-0.947535
O140	O	1.404820	0.067562	-0.447535
H141	H	0.875908	-0.463711	-0.985187
H142	H	1.375908	0.036289	-0.485187
O143	O	0.904829	-0.432524	-0.738696
O144	O	1.404829	0.067476	-0.238696
H145	H	0.911823	-0.424956	-0.793498
H146	H	1.411823	0.075044	-0.293498
O147	O	1.077676	-0.245450	-0.731537
O148	O	1.577676	0.254550	-0.231537
H149	H	1.070695	-0.252990	-0.786917
H150	H	1.570695	0.247010	-0.286917
H151	H	0.928204	-0.740456	-0.276118
H152	H	1.428204	-0.240456	0.223882
H153	H	1.066729	-0.257262	-1.078417
H154	H	1.566729	0.242738	-0.578417
O155	O	1.096980	-0.749902	-0.445148
O156	O	1.596980	-0.249902	0.054852
H157	H	1.125584	-0.711950	-0.473797
H158	H	1.625584	-0.211950	0.026203
O159	O	1.077659	-0.245484	-0.584619
O160	O	1.577659	0.254516	-0.084619
H161	H	1.113294	-0.276997	-0.553636
H162	H	1.613294	0.223003	-0.053636
O163	O	0.599492	-0.432513	-0.252669
O164	O	1.099492	0.067487	0.247331
H165	H	0.544115	-0.424973	-0.259670
H166	H	1.044115	0.075027	0.240330
O167	O	0.383582	-0.245681	-0.425739
O168	O	0.883582	0.254319	0.074261
H169	H	0.414407	-0.209837	-0.394114
H170	H	0.914407	0.290163	0.105886
H171	H	0.915797	-0.420658	-0.600663
H172	H	1.415797	0.079342	-0.100663
O173	O	0.236656	-0.245684	-0.425751
O174	O	0.736656	0.254316	0.074249
H175	H	0.181850	-0.253231	-0.418758
H176	H	0.681850	0.246769	0.081242
O177	O	0.746414	-0.432499	-0.252660
O178	O	1.246414	0.067501	0.247340
H179	H	0.777391	-0.400945	-0.217052
H180	H	1.277391	0.099055	0.282948
O181	O	0.592413	-0.245659	-0.425726
O182	O	1.092413	0.254341	0.074274
H183	H	0.558832	-0.209808	-0.394110
H184	H	1.058832	0.290192	0.105890
H185	H	0.902479	-1.070601	-0.250268
H186	H	1.402479	-0.570601	0.249732
H187	H	0.252620	-0.420673	-0.263702
H188	H	0.752620	0.079327	0.236298
O189	O	1.065307	-0.927260	-0.413337
O190	O	1.565307	-0.427260	0.086663
H191	H	1.096870	-0.965112	-0.444932
H192	H	1.596870	-0.465112	0.055068
O193	O	1.091021	-0.597131	-0.439213
O194	O	1.591021	-0.097131	0.060787
H195	H	1.081522	-0.539860	-0.429707
H196	H	1.581522	-0.039860	0.070293
H197	H	0.897273	-0.937256	-0.245088
H198	H	1.397273	-0.437256	0.254912
O199	O	0.911183	-0.597420	-0.259113
O200	O	1.411183	-0.097420	0.240887
H201	H	0.858606	-0.611575	-0.271215
H202	H	1.358606	-0.111575	0.228785
O203	O	1.077697	-0.245402	-0.940368
O204	O	1.577697	0.254598	-0.440368
H205	H	1.106607	-0.214096	-0.975622
H206	H	1.606607	0.285904	-0.475622
