data_functionalizedCrystal
_audit_creation_method	'MofGen! by Chris Wilmer'
_symmetry_space_group_name_H-M	'P1'
_symmetry_Int_Tables_number	1
_symmetry_cell_setting	triclinic
loop_
_symmetry_equiv_pos_as_xyz
  x,y,z
_cell_length_a	14.908783
_cell_length_b	12.645330
_cell_length_c	14.908803
_cell_angle_alpha	93.290341
_cell_angle_beta	90.199445
_cell_angle_gamma	86.682654
loop_
_atom_site_label
_atom_site_type_symbol
_atom_site_fract_x
_atom_site_fract_y
_atom_site_fract_z
Zn1	Zn	1.345148	0.371030	0.587846
Zn2	Zn	1.353748	0.537483	0.437499
Zn3	Zn	1.203498	0.369817	0.428820
Zn4	Zn	1.194739	0.557842	0.579120
O5	O	1.274283	0.459043	0.508321
O6	O	1.472116	0.385098	0.575187
O7	O	1.341081	0.506214	0.310526
O8	O	1.222354	0.221627	0.449934
O9	O	1.478434	0.507391	0.464727
O10	O	1.326424	0.222519	0.566770
O11	O	1.230693	0.383030	0.304149
O12	O	1.076509	0.402771	0.441473
O13	O	1.207427	0.542089	0.706100
O14	O	1.070074	0.540912	0.551898
O15	O	1.317932	0.404839	0.712511
O16	O	1.332589	0.688534	0.456266
O17	O	1.215766	0.703492	0.560315
C18	C	1.040666	0.473920	0.494798
C19	C	0.940723	0.480312	0.489033
C20	C	0.746327	0.365177	0.593399
C21	C	0.652420	0.371179	0.587986
C22	C	0.659003	0.498311	0.472790
C23	C	0.752909	0.492309	0.478203
C24	C	0.796567	0.425741	0.538510
C25	C	0.890475	0.419745	0.543927
C26	C	0.897056	0.546871	0.428728
C27	C	0.803149	0.552873	0.423315
C28	C	1.274184	0.734479	0.508307
C29	C	1.274221	0.852308	0.508335
C30	C	1.200981	1.029325	0.574024
C31	C	1.200656	0.906770	0.573779
C32	C	1.254059	0.891705	0.412097
C33	C	1.253597	1.014362	0.412496
C34	C	1.368044	1.015077	0.538143
C35	C	1.367355	0.892655	0.540181
C36	C	1.508813	0.444109	0.521899
C37	C	1.608755	0.437745	0.527684
C38	C	1.260743	0.475870	0.742842
C39	C	1.254973	0.483041	0.842780
C40	C	1.274375	1.182534	0.508359
C41	C	1.274333	1.064708	0.508379
C42	C	1.359197	0.353573	1.037253
C43	C	1.353778	0.360307	1.131154
C44	C	1.238714	0.503237	1.124486
C45	C	1.244132	0.496503	1.030585
C46	C	1.304377	0.421670	0.986972
C47	C	1.309799	0.414942	0.893069
C48	C	1.194731	0.557866	0.886402
C49	C	1.189312	0.564600	0.980303
C50	C	1.287765	0.442306	1.274713
C51	C	1.293540	0.435137	1.174774
H52	H	0.781874	0.310980	0.642507
Cl53	Cl	0.748256	0.636551	0.347502
H54	H	0.937971	0.596196	0.384041
H55	H	1.212634	0.880660	0.644967
H56	H	1.212791	1.062806	0.645435
Cl57	Cl	0.945359	0.336063	0.619743
Cl58	Cl	1.390988	0.853510	0.649573
Cl59	Cl	0.589263	0.295035	0.656989
H60	H	1.186474	0.863972	0.387190
Cl61	Cl	1.162978	0.597297	1.179329
Cl62	Cl	1.094212	1.082189	0.543286
H63	H	1.306042	0.855583	0.361608
Cl64	Cl	1.398084	1.067953	0.645098
Cl65	Cl	0.604103	0.581975	0.396972
Cl66	Cl	1.093234	0.866779	0.542668
H67	H	1.185258	1.046005	0.387920
H68	H	1.305003	1.037069	0.361622
Cl69	Cl	1.422697	0.274695	1.194363
Cl70	Cl	1.455514	0.834737	0.472417
Cl71	Cl	1.452318	1.049121	0.464444
Cl72	Cl	1.385536	0.320869	0.838242
Cl73	Cl	1.434940	0.259511	0.982422
H74	H	1.140261	0.625525	1.015826
H75	H	1.150095	0.613318	0.845453
