data_functionalizedCrystal
_audit_creation_method	'MofGen! by Chris Wilmer'
_symmetry_space_group_name_H-M	'P1'
_symmetry_Int_Tables_number	1
_symmetry_cell_setting	triclinic
loop_
_symmetry_equiv_pos_as_xyz
  x,y,z
_cell_length_a	14.908558
_cell_length_b	19.120786
_cell_length_c	14.908308
_cell_angle_alpha	90.683525
_cell_angle_beta	90.175599
_cell_angle_gamma	89.019029
loop_
_atom_site_label
_atom_site_type_symbol
_atom_site_fract_x
_atom_site_fract_y
_atom_site_fract_z
Zn1	Zn	1.326488	-0.364772	-0.566465
Zn2	Zn	1.329367	-0.475326	-0.409708
Zn3	Zn	1.185495	-0.351345	-0.408241
Zn4	Zn	1.170437	-0.474494	-0.551409
O5	O	1.252947	-0.416484	-0.483956
O6	O	1.452388	-0.385405	-0.552585
O7	O	1.317789	-0.453609	-0.283994
O8	O	1.209295	-0.255320	-0.434916
O9	O	1.454504	-0.466628	-0.437417
O10	O	1.312881	-0.265185	-0.551162
O11	O	1.212087	-0.362521	-0.282915
O12	O	1.057979	-0.361713	-0.420317
O13	O	1.183631	-0.465210	-0.678926
O14	O	1.046916	-0.452190	-0.525503
O15	O	1.298281	-0.384597	-0.689987
O16	O	1.303188	-0.573021	-0.422819
O17	O	1.186423	-0.572410	-0.526926
C18	C	1.019902	-0.405405	-0.471118
C19	C	0.920202	-0.400683	-0.465646
C20	C	0.785412	-0.346860	-0.403267
C21	C	0.879089	-0.351293	-0.408405
C22	C	0.867632	-0.445642	-0.517755
C23	C	0.773955	-0.441209	-0.512617
C24	C	0.732848	-0.391817	-0.455370
C25	C	0.639169	-0.387388	-0.450228
C26	C	0.627714	-0.481733	-0.559582
C27	C	0.721392	-0.486166	-0.564720
C28	C	1.243507	-0.598078	-0.473419
C29	C	1.239549	-0.675769	-0.468945
C30	C	1.291576	-0.717344	-0.527412
C31	C	1.287853	-0.790344	-0.523210
C32	C	1.232108	-0.821767	-0.460537
C33	C	1.180075	-0.780186	-0.402068
C34	C	1.183794	-0.707188	-0.406275
C35	C	1.218180	-1.041919	-0.444809
C36	C	1.214468	-1.114923	-0.440605
C37	C	1.322245	-1.125076	-0.561748
C38	C	1.325963	-1.052076	-0.565946
C39	C	1.273927	-1.010502	-0.507480
C40	C	1.228304	-0.896384	-0.456239
C41	C	1.277727	-0.935886	-0.511784
C42	C	1.486901	-0.427607	-0.496844
C43	C	1.586599	-0.432347	-0.502337
C44	C	1.238955	-0.426308	-0.717913
C45	C	1.232993	-0.430495	-0.817611
C46	C	1.262447	-0.234184	-0.494555
C47	C	1.266495	-0.156498	-0.499071
C48	C	1.341171	-0.354404	-1.016476
C49	C	1.335572	-0.358335	-1.110152
C50	C	1.216191	-0.442285	-1.098641
C51	C	1.221790	-0.438353	-1.004965
C52	C	1.284283	-0.394412	-0.963886
C53	C	1.289886	-0.390485	-0.870208
C54	C	1.170502	-0.474431	-0.858699
C55	C	1.164902	-0.478362	-0.952375
C56	C	1.266938	-0.406650	-0.250915
C57	C	1.273085	-0.402275	-0.151238
H58	H	1.336974	-0.691765	-0.578443
H59	H	1.323111	-0.910299	-0.562815
O60	O	0.761471	-0.534125	-0.620248
C61	C	0.900707	-0.582743	-0.676665
C62	C	0.855437	-0.528406	-0.613729
H63	H	0.976685	-0.578128	-0.671429
H64	H	0.880384	-0.637562	-0.656513
H65	H	0.878556	-0.572733	-0.748703
H66	H	0.877565	-0.538351	-0.541672
H67	H	0.875759	-0.473605	-0.633957
O68	O	0.930246	-0.307724	-0.357745
C69	C	1.043675	-0.298096	-0.242975
C70	C	0.985809	-0.347520	-0.300306
H71	H	1.088598	-0.330250	-0.196509
H72	H	1.087029	-0.265419	-0.288709
H73	H	0.998182	-0.262020	-0.201221
H74	H	1.031234	-0.383639	-0.342068
H75	H	0.942447	-0.380147	-0.254524
O76	O	1.401854	-0.311785	-0.976422
C77	C	1.463357	-0.268500	-0.837208
C78	C	1.394605	-0.316806	-0.882451
H79	H	1.457507	-0.272532	-0.761225
H80	H	1.533965	-0.284987	-0.858829
H81	H	1.449452	-0.212176	-0.858085
H82	H	1.408426	-0.373143	-0.861596
H83	H	1.324019	-0.300259	-0.860829
H84	H	1.340773	-0.354707	-0.836763
O85	O	0.599129	-0.339380	-0.394741
C86	C	0.498994	-0.239475	-0.382546
C87	C	0.544262	-0.293812	-0.445484
H88	H	0.454638	-0.202610	-0.423549
H89	H	0.456219	-0.267422	-0.331327
H90	H	0.552671	-0.208135	-0.346168
H91	H	0.490645	-0.325168	-0.481924
H92	H	0.587056	-0.265823	-0.496647
O93	O	1.390928	-0.319449	-1.161105
C94	C	1.509891	-0.235735	-1.162633
C95	C	1.447267	-0.279751	-1.104821
H96	H	1.555444	-0.203617	-1.117151
H97	H	1.552565	-0.271859	-1.207188
H98	H	1.467973	-0.199104	-1.206367
H99	H	1.489116	-0.316386	-1.061034
H100	H	1.404589	-0.243585	-1.060325
O101	O	0.576520	-0.525334	-0.610167
C102	C	0.427129	-0.560355	-0.650669
C103	C	0.484999	-0.510923	-0.593353
H104	H	0.353124	-0.548731	-0.637081
H105	H	0.441799	-0.552076	-0.724756
H106	H	0.443634	-0.616894	-0.632553
H107	H	0.468527	-0.454365	-0.611391
H108	H	0.470321	-0.519262	-0.519281
O109	O	1.167617	-1.001644	-0.387915
C110	C	1.060304	-0.999284	-0.267333
C111	C	1.117533	-1.044982	-0.331706
H112	H	1.019782	-1.034304	-0.221884
H113	H	1.106032	-0.965100	-0.224645
H114	H	1.012681	-0.964608	-0.307866
H115	H	1.165162	-1.079700	-0.291244
H116	H	1.071751	-1.079120	-0.374396
O117	O	1.155555	-0.484942	-1.138698
C118	C	1.093959	-0.528137	-1.277915
C119	C	1.162691	-0.479818	-1.232667
H120	H	1.099692	-0.524001	-1.353896
H121	H	1.107857	-0.584495	-1.257172
H122	H	1.023391	-0.511650	-1.256165
H123	H	1.233284	-0.496243	-1.254395
H124	H	1.148714	-0.423472	-1.253410
O125	O	1.125869	-0.810788	-0.341305
C126	C	1.001272	-0.886998	-0.317713
C127	C	1.062607	-0.852401	-0.386625
H128	H	0.950098	-0.920638	-0.354328
H129	H	1.043504	-0.921192	-0.271156
H130	H	0.964768	-0.844730	-0.276631
H131	H	1.099124	-0.894622	-0.427769
H132	H	1.020328	-0.818192	-0.433121
H133	H	0.901118	-0.485852	-0.564367
H134	H	1.330227	-0.824192	-0.570813
O135	O	1.372644	-1.165494	-0.618630
C136	C	1.373160	-1.253555	-0.735615
C137	C	1.315979	-1.207810	-0.671254
H138	H	1.327371	-1.287790	-0.778165
H139	H	1.413620	-1.218594	-0.781199
H140	H	1.420836	-1.288183	-0.695077
H141	H	1.268253	-1.173176	-0.711720
H142	H	1.275580	-1.242811	-0.625668
O143	O	0.745619	-0.298826	-0.347640
C144	C	0.766866	-0.205748	-0.239670
C145	C	0.812045	-0.260103	-0.302647
H146	H	0.820551	-0.174436	-0.203262
H147	H	0.722470	-0.168859	-0.280597
H148	H	0.724119	-0.233750	-0.188478
H149	H	0.854836	-0.232161	-0.353850
H150	H	0.856387	-0.296989	-0.261661
O151	O	1.380136	-1.021667	-0.626903
C152	C	1.486699	-1.039444	-0.746568
C153	C	1.425363	-1.073972	-0.677598
H154	H	1.523295	-1.081716	-0.787560
H155	H	1.444465	-1.005313	-0.793198
H156	H	1.537795	-1.005731	-0.709954
H157	H	1.374256	-1.107719	-0.714136
H158	H	1.467655	-1.108061	-0.630971
O159	O	1.104277	-0.521031	-0.992427
C160	C	1.042703	-0.564260	-1.131638
C161	C	1.111415	-0.515919	-1.086398
H162	H	1.048437	-0.560132	-1.207619
H163	H	1.056622	-0.620611	-1.110881
H164	H	0.972129	-0.547786	-1.109893
H165	H	1.182015	-0.532330	-1.108120
H166	H	1.097418	-0.459579	-1.107154
O167	O	1.115362	-0.513334	-0.807522
C168	C	1.104702	-0.602724	-0.695664
C169	C	1.167246	-0.558700	-0.753550
H170	H	1.146625	-0.639424	-0.652027
H171	H	1.062107	-0.566607	-0.651024
H172	H	1.059061	-0.634769	-0.741141
H173	H	1.212943	-0.526650	-0.708141
H174	H	1.209780	-0.594855	-0.798198
H175	H	1.169069	-1.140505	-0.389569
O176	O	1.133124	-0.666871	-0.349515
C177	C	0.984320	-0.635541	-0.298777
C178	C	1.041604	-0.681252	-0.363087
H179	H	0.910314	-0.647141	-0.309741
H180	H	1.003645	-0.647622	-0.226485
H181	H	0.996598	-0.577976	-0.312540
H182	H	1.029355	-0.738831	-0.349405
H183	H	1.022268	-0.669111	-0.435359
H184	H	1.182918	-0.921976	-0.405208
