data_functionalizedCrystal
_audit_creation_method	'MofGen! by Chris Wilmer'
_symmetry_space_group_name_H-M	'P1'
_symmetry_Int_Tables_number	1
_symmetry_cell_setting	triclinic
loop_
_symmetry_equiv_pos_as_xyz
  x,y,z
_cell_length_a	6.817900
_cell_length_b	15.300992
_cell_length_c	15.301140
_cell_angle_alpha	94.939617
_cell_angle_beta	104.177739
_cell_angle_gamma	104.175078
loop_
_atom_site_label
_atom_site_type_symbol
_atom_site_fract_x
_atom_site_fract_y
_atom_site_fract_z
V1	V	-4.037890	-0.125369	-0.281418
O2	O	-4.021624	0.005396	-0.275781
O3	O	-3.992762	-0.247982	-0.279762
O4	O	-3.992778	-0.123716	-0.404031
O5	O	-4.021609	-0.119729	-0.150652
V6	V	-4.520668	-0.109695	-0.265745
O7	O	-4.300783	-0.159750	-0.315799
O8	O	-4.707973	-0.075314	-0.231364
O9	O	-4.342590	0.012917	-0.267400
O10	O	-4.654331	-0.240461	-0.271381
O11	O	-4.654347	-0.115335	-0.396511
O12	O	-4.342574	-0.111348	-0.143131
C13	C	-3.838453	-0.277863	-0.275392
C14	C	-3.882864	-0.378103	-0.274855
C15	C	-3.860873	-0.412139	-0.191999
C16	C	-3.902622	-0.506325	-0.191498
C17	C	-3.966348	-0.566473	-0.273853
C18	C	-3.988346	-0.532432	-0.356716
C19	C	-3.946611	-0.438248	-0.357216
C20	C	-4.075326	-0.728741	-0.355667
C21	C	-4.117059	-0.822932	-0.355166
C22	C	-4.031337	-0.796818	-0.189949
C23	C	-3.989602	-0.702634	-0.190449
C24	C	-4.011599	-0.668599	-0.273312
C25	C	-3.838471	-0.119349	-0.433909
C26	C	-3.882892	-0.118809	-0.534147
C27	C	-4.086122	-0.123070	-0.585843
C28	C	-4.127848	-0.122562	-0.680028
C29	C	-3.966344	-0.117800	-0.722516
C30	C	-3.763096	-0.113536	-0.670813
C31	C	-3.721369	-0.114037	-0.576629
C32	C	-3.850081	-0.112493	-0.867123
C33	C	-3.891810	-0.111993	-0.961313
C34	C	-4.256559	-0.121018	-0.970522
C35	C	-4.214833	-0.121519	-0.876338
C36	C	-4.011588	-0.117257	-0.824641
C37	C	-4.160241	0.042794	-0.271768
C38	C	-4.095068	0.143032	-0.272311
C39	C	-4.160223	-0.115718	-0.113249
C40	C	-4.095040	-0.116254	-0.013009
H41	H	-3.964542	-0.410539	-0.424687
H42	H	-4.346350	-0.125404	-0.841748
H43	H	-4.013419	-0.824533	-0.122479
H44	H	-4.168945	-0.871903	-0.422227
H45	H	-4.422051	-0.124490	-1.012618
Br46	Br	-4.105198	-0.682552	-0.468125
Br47	Br	-4.074852	-0.614062	-0.468486
H48	H	-4.217646	-0.126954	-0.551258
H49	H	-3.760294	-0.108109	-0.995903
H50	H	-3.684563	-0.108989	-0.825029
Br51	Br	-4.403676	-0.128355	-0.750186
H52	H	-3.631597	-0.109652	-0.705413
H53	H	-3.555870	-0.110545	-0.534535
H54	H	-3.884717	-0.534032	-0.124029
Br55	Br	-3.774367	-0.330516	-0.080224
H56	H	-3.937702	-0.653662	-0.123388
