data_functionalizedCrystal
_audit_creation_method	'MofGen! by Chris Wilmer'
_symmetry_space_group_name_H-M	'P1'
_symmetry_Int_Tables_number	1
_symmetry_cell_setting	triclinic
loop_
_symmetry_equiv_pos_as_xyz
  x,y,z
_cell_length_a	6.817900
_cell_length_b	15.866870
_cell_length_c	16.255661
_cell_angle_alpha	112.481265
_cell_angle_beta	103.488922
_cell_angle_gamma	102.655915
loop_
_atom_site_label
_atom_site_type_symbol
_atom_site_fract_x
_atom_site_fract_y
_atom_site_fract_z
V1	V	-4.052302	-0.133532	-0.305528
O2	O	-4.013114	0.005619	-0.257095
O3	O	-4.028858	-0.264004	-0.344425
O4	O	-4.003538	-0.131828	-0.420080
O5	O	-4.038609	-0.127472	-0.180917
V6	V	-4.532744	-0.116847	-0.285644
O7	O	-4.320320	-0.170133	-0.349144
O8	O	-4.714923	-0.080246	-0.242028
O9	O	-4.332981	0.013626	-0.246747
O10	O	-4.689329	-0.255998	-0.334077
O11	O	-4.663834	-0.122906	-0.410255
O12	O	-4.358302	-0.118551	-0.171093
C13	C	-3.879942	-0.295800	-0.350182
C14	C	-3.942057	-0.402465	-0.382749
C15	C	-3.847642	-0.127194	-0.446685
C16	C	-3.889220	-0.126665	-0.540600
C17	C	-3.931920	-0.683662	-0.080662
C18	C	-3.990297	-0.783895	-0.111292
C19	C	-4.076067	-0.811728	-0.274974
C20	C	-4.017687	-0.711496	-0.244357
C21	C	-3.945618	-0.647470	-0.147200
C22	C	-4.031385	-0.675303	-0.310896
C23	C	-3.973020	-0.575079	-0.280281
C24	C	-3.900957	-0.511048	-0.183129
C25	C	-3.887253	-0.547246	-0.116586
C26	C	-4.103469	-0.739331	-0.408053
C27	C	-4.117168	-0.703138	-0.474591
C28	C	-4.058788	-0.602912	-0.443977
C29	C	-3.986724	-0.538881	-0.346824
C30	C	-4.072491	-0.566714	-0.510520
C31	C	-4.014126	-0.466491	-0.479906
C32	C	-3.928359	-0.438657	-0.316210
C33	C	-3.798563	-0.120335	-0.761444
C34	C	-3.970636	-0.202032	-0.856407
C35	C	-3.965414	-0.125671	-0.712539
C36	C	-3.867453	-0.043038	-0.784922
C37	C	-4.038997	-0.124707	-0.878622
C38	C	-4.136983	-0.207441	-0.806294
C39	C	-4.033723	-0.048376	-0.734772
C40	C	-4.205937	-0.130096	-0.829722
C41	C	-3.923020	-0.126227	-0.616863
C42	C	-4.081410	-0.124158	-0.974299
C43	C	-4.145241	0.045416	-0.240990
C44	C	-4.062363	0.152080	-0.208429
C45	C	-4.177540	-0.123187	-0.144484
C46	C	-4.115200	-0.123712	-0.050566
H47	H	-3.853443	-0.429440	-0.158205
H48	H	-3.626039	-0.116313	-0.731710
O49	O	-3.939754	-0.279608	-0.918954
C50	C	-4.132595	-0.338302	-0.997036
H51	H	-4.274234	-0.324886	-0.974984
H52	H	-4.149879	-0.417995	-1.021399
H53	H	-4.129609	-0.319487	-1.057863
H54	H	-3.979130	-0.813357	-0.057100
O55	O	-4.412048	-0.135214	-0.865128
C56	C	-4.553822	-0.221934	-0.877224
H57	H	-4.468736	-0.277310	-0.884087
H58	H	-4.700376	-0.252168	-0.944324
H59	H	-4.606999	-0.206450	-0.813044
H60	H	-4.059868	0.016591	-0.682396
O61	O	-4.187520	-0.765308	-0.568987
C62	C	-4.373233	-0.753922	-0.616771
H63	H	-4.453660	-0.721479	-0.564289
H64	H	-4.489450	-0.827708	-0.675864
H65	H	-4.326765	-0.703373	-0.648800
O66	O	-4.272220	-0.290391	-0.815965
C67	C	-4.231036	-0.289915	-0.726637
H68	H	-4.060187	-0.239515	-0.678076
H69	H	-4.250184	-0.366624	-0.736126
H70	H	-4.349430	-0.263225	-0.693476
O71	O	-3.731700	0.039834	-0.775164
C72	C	-3.517706	0.044638	-0.740336
H73	H	-3.509605	-0.001933	-0.701720
H74	H	-3.411995	0.123158	-0.688881
H75	H	-3.458475	0.016575	-0.802241
H76	H	-4.134760	-0.863871	-0.354080
H77	H	-3.869641	-0.386522	-0.237094
H78	H	-3.873202	-0.631528	-0.001546
O79	O	-3.817472	-0.484950	-0.022241
C80	C	-3.955107	-0.430821	-0.005106
H81	H	-4.041598	-0.429457	-0.073411
H82	H	-3.856804	-0.353400	0.052280
H83	H	-4.078210	-0.465832	0.019668
O84	O	-4.159964	-0.836702	-0.437904
C85	C	-4.029045	-0.873161	-0.487549
H86	H	-3.962469	-0.821975	-0.515873
H87	H	-4.128304	-0.948098	-0.549498
H88	H	-3.890504	-0.878893	-0.437422
O89	O	-4.142861	-0.628886	-0.604915
C90	C	-4.328574	-0.617494	-0.652691
H91	H	-4.408980	-0.585044	-0.600202
H92	H	-4.444807	-0.691279	-0.711780
H93	H	-4.282112	-0.566949	-0.684725
H94	H	-4.025313	-0.437024	-0.534089
