data_functionalizedCrystal
_audit_creation_method	'MofGen! by Chris Wilmer'
_symmetry_space_group_name_H-M	'P1'
_symmetry_Int_Tables_number	1
_symmetry_cell_setting	triclinic
loop_
_symmetry_equiv_pos_as_xyz
  x,y,z
_cell_length_a	17.038272
_cell_length_b	17.019311
_cell_length_c	14.421503
_cell_angle_alpha	93.885869
_cell_angle_beta	90.009295
_cell_angle_gamma	87.245400
loop_
_atom_site_label
_atom_site_type_symbol
_atom_site_fract_x
_atom_site_fract_y
_atom_site_fract_z
O1	O	0.099642	1.053368	0.161224
O2	O	0.112335	0.824555	0.142956
O3	O	-0.007826	0.937602	0.151974
O4	O	0.219802	0.940321	0.152206
O5	O	-0.007840	0.937588	-0.002250
O6	O	0.112321	0.824541	-0.011269
O7	O	0.099628	1.053354	0.007000
Cu8	Cu	0.105974	0.938946	-0.016216
Cu9	Cu	0.105989	0.938963	0.166172
O10	O	0.219789	0.940307	-0.002019
C11	C	0.111845	0.795126	0.063494
C12	C	0.110398	0.707459	0.056494
C13	C	0.102238	0.211627	0.012690
C14	C	0.103598	0.294000	0.019269
C15	C	0.104279	0.335195	0.106628
C16	C	0.103608	0.294012	0.187413
C17	C	0.102254	0.211640	0.180833
C18	C	0.108373	0.583904	0.130700
C19	C	0.109725	0.666282	0.137274
C20	C	0.109716	0.666264	-0.030871
C21	C	0.108357	0.583891	-0.037443
C22	C	0.107690	0.542715	0.043342
C23	C	0.105666	0.419393	0.113354
C24	C	0.106309	0.458518	0.036614
C25	C	-0.036959	0.935121	0.074664
C26	C	-0.123746	0.927740	0.074075
C27	C	-0.173916	0.995501	0.079485
C28	C	-0.255461	0.988561	0.078939
C29	C	-0.286834	0.913861	0.072978
C30	C	-0.236657	0.846096	0.067571
C31	C	-0.155114	0.853036	0.068123
C32	C	-0.532572	0.889343	0.071033
C33	C	-0.614121	0.882408	0.070479
C34	C	-0.632919	1.024875	0.081849
C35	C	-0.551373	1.031808	0.082394
C36	C	-0.501204	0.964043	0.076993
C37	C	-0.370186	0.906766	0.072418
C38	C	-0.417854	0.971138	0.077560
C39	C	0.248922	0.942788	0.075293
C40	C	0.335709	0.950168	0.075888
C41	C	0.100117	1.082783	0.086463
C42	C	0.101565	1.170450	0.093469
N43	N	0.105995	0.938974	0.294454
N44	N	0.105962	0.938940	-0.144498
C45	C	0.050510	0.991364	0.548257
C46	C	0.121186	1.011235	0.611686
C47	C	0.105985	0.938963	0.483615
C48	C	0.035300	0.919118	0.604282
C49	C	0.105970	0.938954	0.666335
C50	C	0.176697	0.958872	0.545686
C51	C	0.090765	0.866721	0.538274
C52	C	0.161492	0.886565	0.601673
C53	C	0.105993	0.938971	0.378354
C54	C	0.105970	0.938946	0.771594
H55	H	0.107828	0.550389	0.196481
C56	C	0.212015	1.114995	0.624149
C57	C	0.138566	1.093699	0.654972
H58	H	0.222736	1.165907	0.650868
H59	H	0.251453	1.077820	0.642330
H60	H	0.211660	1.115713	0.558342
H61	H	0.138922	1.092976	0.720778
H62	H	0.099117	1.130884	0.636796
H63	H	-0.395739	0.845945	0.067562
H64	H	0.107785	0.550357	-0.108580
C65	C	0.003390	1.126845	0.553678
C66	C	-0.012739	1.051233	0.516403
H67	H	-0.035652	1.163805	0.534006
H68	H	0.003260	1.127585	0.619592
H69	H	0.053498	1.140428	0.532699
H70	H	-0.062844	1.037648	0.537388
H71	H	-0.012616	1.050492	0.450475
H72	H	0.077870	0.805648	0.506200
C73	C	-0.470588	1.122249	0.010334
C74	C	-0.516887	1.113920	0.088952
H75	H	-0.449301	1.172943	0.014379
H76	H	-0.429045	1.082888	0.007197
H77	H	-0.502026	1.116578	-0.043892
H78	H	-0.485448	1.119585	0.143178
H79	H	-0.558436	1.153292	0.092098
C80	C	0.256657	0.981497	0.413935
C81	C	0.257396	0.981654	0.511037
H82	H	0.306472	0.995575	0.392547
H83	H	0.245782	0.930344	0.388150
H84	H	0.217223	1.018478	0.395257
H85	H	0.296826	0.944668	0.529715
H86	H	0.268280	1.032815	0.536832
H87	H	0.105758	0.424974	-0.034513
C88	C	-0.164820	1.119069	0.168637
C89	C	-0.139432	1.077613	0.086042
H90	H	-0.143528	1.169761	0.172689
H91	H	-0.220558	1.124633	0.169075
H92	H	-0.147581	1.090933	0.220163
H93	H	-0.156676	1.105747	0.034516
H94	H	-0.083682	1.072053	0.085596
C95	C	-0.103372	0.951421	0.612295
C96	C	-0.045387	0.896457	0.639100
H97	H	-0.153185	0.937431	0.633785
H98	H	-0.092184	1.002370	0.638462
H99	H	-0.104079	0.951727	0.546455
H100	H	-0.044675	0.896155	0.704941
H101	H	-0.056578	0.845494	0.612937
H102	H	0.101708	0.178114	0.246612
C103	C	0.105679	0.420288	0.272159
C104	C	0.104355	0.339291	0.283440
H105	H	0.106133	0.448239	0.331445
H106	H	0.151465	0.430829	0.238473
H107	H	0.060329	0.436729	0.238921
H108	H	0.149708	0.322849	0.316672
H109	H	0.058564	0.328745	0.317141
C110	C	-0.766266	1.077497	0.086061
C111	C	-0.688067	1.099359	0.087799
H112	H	-0.800310	1.123485	0.089743
H113	H	-0.775773	1.047096	0.029854
H114	H	-0.775749	1.047095	0.137417
H115	H	-0.678581	1.129757	0.036439
H116	H	-0.678555	1.129773	0.144012
H117	H	0.110260	0.699799	-0.096641
C118	C	-0.587353	0.742276	0.059324
C119	C	-0.648608	0.800291	0.063941
H120	H	-0.608647	0.691584	0.055295
H121	H	-0.555948	0.747929	0.005996
H122	H	-0.555931	0.747963	0.113562
H123	H	-0.680027	0.794608	0.009700
H124	H	-0.680026	0.794636	0.117274
H125	H	0.208450	0.842248	0.625091
H126	H	0.101686	0.178092	-0.058447
H127	H	0.104144	0.327523	-0.046510
H128	H	0.106219	0.452943	0.184482
C129	C	0.109629	0.658028	0.302825
C130	C	0.110491	0.711564	0.233306
H131	H	0.110109	0.685984	0.362106
H132	H	0.063534	0.628857	0.297008
H133	H	0.154670	0.622941	0.296514
H134	H	0.065447	0.746646	0.239612
H135	H	0.156592	0.740747	0.239125
H136	H	-0.491733	0.834163	0.066634
C137	C	-0.358044	1.063424	0.164206
C138	C	-0.310604	1.063049	0.084889
H139	H	-0.392081	1.109416	0.167883
H140	H	-0.388400	1.017952	0.160573
H141	H	-0.325821	1.063172	0.217957
H142	H	-0.342826	1.063295	0.031138
H143	H	-0.280245	1.108534	0.088514
C144	C	-0.353309	0.772199	0.061666
C145	C	-0.271141	0.763983	0.061016
H146	H	-0.374594	0.721504	0.057610
H147	H	-0.370524	0.800327	0.117690
H148	H	-0.370534	0.800327	0.010127
H149	H	-0.253916	0.735860	0.112559
H150	H	-0.253919	0.735842	0.004985
H151	H	-0.114266	0.797858	0.063719
H152	H	-0.392306	1.031959	0.082434
