data_functionalizedCrystal
_audit_creation_method	'MofGen! by Chris Wilmer'
_symmetry_space_group_name_H-M	'P1'
_symmetry_Int_Tables_number	1
_symmetry_cell_setting	triclinic
loop_
_symmetry_equiv_pos_as_xyz
  x,y,z
_cell_length_a	12.827893
_cell_length_b	12.594516
_cell_length_c	12.594517
_cell_angle_alpha	90.001204
_cell_angle_beta	90.000323
_cell_angle_gamma	90.011976
loop_
_atom_site_label
_atom_site_type_symbol
_atom_site_fract_x
_atom_site_fract_y
_atom_site_fract_z
Zn1	Zn	1.597500	-0.423986	0.601797
Zn2	Zn	1.597463	-0.601913	0.423820
Zn3	Zn	1.422799	-0.423949	0.423833
Zn4	Zn	1.422738	-0.601923	0.601757
O5	O	1.510125	-0.512943	0.512802
O6	O	1.743731	-0.447599	0.578199
O7	O	1.574304	-0.578286	0.274876
O8	O	1.446015	-0.275008	0.447463
O9	O	1.743704	-0.578322	0.447440
O10	O	1.574367	-0.275035	0.578212
O11	O	1.445979	-0.447537	0.274886
O12	O	1.276555	-0.447547	0.447424
O13	O	1.445910	-0.578339	0.750708
O14	O	1.276510	-0.578303	0.578144
O15	O	1.574307	-0.447609	0.750737
O16	O	1.574244	-0.750860	0.447401
O17	O	1.445874	-0.750867	0.578131
C18	C	1.238615	-0.512923	0.512781
C19	C	1.122462	-0.512940	0.512798
C20	C	1.510077	-0.789484	0.512783
C21	C	1.510151	-0.907789	0.512811
C22	C	1.070691	-0.448370	0.577603
C23	C	0.950640	-0.448386	0.577621
C24	C	1.580053	-0.977000	0.441783
C25	C	1.605559	-1.047741	0.538931
C26	C	1.484776	-1.047846	0.415724
C27	C	1.535706	-0.976973	0.610010
C28	C	1.414879	-0.977071	0.486738
C29	C	1.440349	-1.047781	0.583953
C30	C	1.782695	-0.512963	0.512823
C31	C	1.898848	-0.512972	0.512832
C32	C	1.510106	-0.512979	0.790422
C33	C	1.510098	-0.512994	0.908728
C34	C	1.510202	-0.235322	0.512844
C35	C	1.510235	-0.117016	0.512861
C36	C	1.440261	-0.584071	1.048729
C37	C	1.414727	-0.486975	0.977927
C38	C	1.535585	-0.610080	0.977958
C39	C	1.484506	-0.415806	1.048712
C40	C	1.605408	-0.538976	1.048749
C41	C	1.579910	-0.441813	0.977979
C42	C	1.510122	-0.512940	1.236261
C43	C	1.510089	-0.512953	1.117955
H44	H	0.906118	-0.393108	0.633106
C45	C	1.714265	-0.568734	1.090821
C46	C	1.762190	-0.677313	1.062967
C47	C	1.871047	-0.707085	1.105043
C48	C	1.931980	-0.628279	1.174972
C49	C	1.884056	-0.519693	1.202829
C50	C	1.775199	-0.489920	1.160753
H51	H	1.717083	-0.735657	1.011199
H52	H	1.906523	-0.787468	1.084421
H53	H	2.012563	-0.650318	1.206119
H54	H	1.929163	-0.461349	1.254598
H55	H	1.739723	-0.409537	1.181375
H56	H	1.557147	-0.692201	0.946879
C57	C	1.564874	-0.935109	0.720994
C58	C	1.671027	-0.963908	0.770282
C59	C	1.700194	-0.922045	0.881264
C60	C	1.623207	-0.851384	0.942958
C61	C	1.517047	-0.822582	0.893671
C62	C	1.487881	-0.864444	0.782689
H63	H	1.728023	-1.016219	0.724612
H64	H	1.778781	-0.943367	0.917750
H65	H	1.644798	-0.820395	1.025114
H66	H	1.460051	-0.770271	0.939341
H67	H	1.409293	-0.843123	0.746203
H68	H	1.115244	-0.393072	0.633066
C69	C	1.714448	-1.089684	0.568769
C70	C	1.809348	-1.061729	0.499296
C71	C	1.918240	-1.103665	0.529127
C72	C	1.932231	-1.173555	0.628432
C73	C	1.837328	-1.201514	0.697912
C74	C	1.728436	-1.159578	0.668081
H75	H	1.798994	-1.009989	0.425778
H76	H	1.988493	-1.082968	0.477693
H77	H	2.012839	-1.204598	0.650516
H78	H	1.847682	-1.253254	0.771430
H79	H	1.658183	-1.180275	0.719515
C80	C	1.360539	-1.089513	0.665214
C81	C	1.372198	-1.061266	0.783584
C82	C	1.292394	-1.103001	0.864847
C83	C	1.200930	-1.172983	0.827741
C84	C	1.189267	-1.201233	0.709365
C85	C	1.269071	-1.159499	0.628102
H86	H	1.439909	-1.009459	0.811057
H87	H	1.301028	-1.082088	0.952476
H88	H	1.141854	-1.203878	0.887897
H89	H	1.121556	-1.253041	0.681892
H90	H	1.260437	-1.180412	0.540473
H91	H	0.943364	-0.568262	0.457353
C92	C	1.360428	-0.665192	1.090707
C93	C	1.370935	-0.783367	1.061217
C94	C	1.291100	-0.864481	1.103197
C95	C	1.200758	-0.827420	1.174668
C96	C	1.190247	-0.709239	1.204162
C97	C	1.270082	-0.628125	1.162182
H98	H	1.437815	-0.810806	1.008306
H99	H	1.298882	-0.951966	1.081363
H100	H	1.141660	-0.887466	1.205745
H101	H	1.123367	-0.681800	1.257073
H102	H	1.262300	-0.540640	1.184016
C103	C	1.306019	-0.935091	0.456871
C104	C	1.292406	-0.863581	0.358669
C105	C	1.183546	-0.821599	0.328788
C106	C	1.088297	-0.851126	0.397108
C107	C	1.101907	-0.922639	0.495315
C108	C	1.210767	-0.964621	0.525196
H109	H	1.362918	-0.841721	0.308090
H110	H	1.173472	-0.768660	0.256088
H111	H	1.007712	-0.820048	0.374987
H112	H	1.031395	-0.944500	0.545895
H113	H	1.220841	-1.017560	0.597896
H114	H	1.077909	-0.568232	0.457328
H115	H	1.334122	-0.464975	0.946819
H116	H	1.462853	-0.333661	1.079662
H117	H	1.639176	-0.945921	0.381771
H118	H	1.638966	-0.381620	0.947112
C119	C	1.455722	-1.089899	0.304780
C120	C	1.524102	-1.061953	0.208245
C121	C	1.495058	-1.104000	0.097299
C122	C	1.397634	-1.173993	0.082889
C123	C	1.329249	-1.201942	0.179427
C124	C	1.358293	-1.159895	0.290373
H125	H	1.596226	-1.010138	0.218910
H126	H	1.545682	-1.083310	0.025836
H127	H	1.376134	-1.205119	0.000760
H128	H	1.257125	-1.253758	0.168762
H129	H	1.307669	-1.180585	0.361836
