data_functionalizedCrystal
_audit_creation_method	'MofGen! by Chris Wilmer'
_symmetry_space_group_name_H-M	'P1'
_symmetry_Int_Tables_number	1
_symmetry_cell_setting	triclinic
loop_
_symmetry_equiv_pos_as_xyz
  x,y,z
_cell_length_a	18.050591
_cell_length_b	19.120786
_cell_length_c	18.050583
_cell_angle_alpha	87.525261
_cell_angle_beta	89.975765
_cell_angle_gamma	92.460873
loop_
_atom_site_label
_atom_site_type_symbol
_atom_site_fract_x
_atom_site_fract_y
_atom_site_fract_z
Zn1	Zn	1.122716	-0.279681	-0.407401
Zn2	Zn	1.456049	0.053652	-0.074068
Zn3	Zn	1.789383	0.386985	0.259265
Zn4	Zn	1.117327	-0.397152	-0.277906
Zn5	Zn	1.450660	-0.063819	0.055427
Zn6	Zn	1.783993	0.269514	0.388760
Zn7	Zn	0.998527	-0.279704	-0.283211
Zn8	Zn	1.331860	0.053629	0.050122
Zn9	Zn	1.665193	0.386962	0.383455
Zn10	Zn	0.993193	-0.397095	-0.402044
Zn11	Zn	1.326526	-0.063762	-0.068711
Zn12	Zn	1.659860	0.269572	0.264622
O13	O	1.057941	-0.338408	-0.342641
O14	O	1.391274	-0.005075	-0.009308
O15	O	1.724607	0.328258	0.324026
O16	O	1.225925	-0.295278	-0.390245
O17	O	1.559258	0.038055	-0.056912
O18	O	1.892592	0.371388	0.276421
O19	O	1.101545	-0.381606	-0.174684
O20	O	1.434878	-0.048273	0.158649
O21	O	1.768211	0.285060	0.491983
O22	O	1.019488	-0.181411	-0.304147
O23	O	1.352822	0.151922	0.029186
O24	O	1.686155	0.485256	0.362519
O25	O	1.221966	-0.381584	-0.295106
O26	O	1.555299	-0.048250	0.038227
O27	O	1.888632	0.285083	0.371561
O28	O	1.110729	-0.181394	-0.395389
O29	O	1.444063	0.151939	-0.062056
O30	O	1.777396	0.485273	0.271277
O31	O	1.014263	-0.295318	-0.178581
O32	O	1.347596	0.038016	0.154752
O33	O	1.680929	0.371349	0.488085
O34	O	0.893895	-0.295262	-0.298953
O35	O	1.227229	0.038071	0.034380
O36	O	1.560562	0.371405	0.367714
O37	O	1.010398	-0.381486	-0.506681
O38	O	1.343731	-0.048153	-0.173348
O39	O	1.677064	0.285181	0.159985
O40	O	0.889977	-0.381508	-0.386259
O41	O	1.223310	-0.048175	-0.052926
O42	O	1.556643	0.285158	0.280407
O43	O	1.105557	-0.295223	-0.510617
O44	O	1.438891	0.038111	-0.177284
O45	O	1.772224	0.371444	0.156050
O46	O	1.096372	-0.495435	-0.289912
O47	O	1.429706	-0.162102	0.043422
O48	O	1.763039	0.171232	0.376755
O49	O	1.005172	-0.495393	-0.381115
O50	O	1.338505	-0.162059	-0.047782
O51	O	1.671839	0.171274	0.285551
C52	C	0.864990	-0.338382	-0.342601
C53	C	1.198323	-0.005049	-0.009268
C54	C	1.531656	0.328285	0.324066
C55	C	0.782444	-0.338388	-0.342601
C56	C	1.115777	-0.005054	-0.009267
C57	C	1.449110	0.328279	0.324066
C58	C	0.585105	-0.291433	-0.295240
C59	C	0.918438	0.041901	0.038093
C60	C	1.251772	0.375234	0.371426
C61	C	0.532798	-0.355499	-0.274071
C62	C	0.866131	-0.022166	0.059262
C63	C	1.199464	0.311167	0.392596
C64	C	0.631312	-0.338409	-0.342633
C65	C	0.964646	-0.005076	-0.009300
C66	C	1.297979	0.328258	0.324033
C67	C	0.536537	-0.274365	-0.363800
C68	C	0.869870	0.058969	-0.030466
C69	C	1.203204	0.392302	0.302867
C70	C	0.485327	-0.338424	-0.342664
C71	C	0.818660	-0.005091	-0.009330
C72	C	1.151993	0.328243	0.324003
C73	C	0.580091	-0.402509	-0.321427
C74	C	0.913424	-0.069176	0.011906
C75	C	1.246757	0.264157	0.345239
C76	C	0.583836	-0.321332	-0.411189
C77	C	0.917170	0.012002	-0.077856
C78	C	1.250503	0.345335	0.255477
C79	C	0.531549	-0.385442	-0.390044
C80	C	0.864883	-0.052109	-0.056710
C81	C	1.198216	0.281224	0.276623
C82	C	0.715411	-0.338400	-0.342614
C83	C	1.048744	-0.005066	-0.009281
C84	C	1.382078	0.328267	0.324053
C85	C	0.401229	-0.338441	-0.342683
C86	C	0.734563	-0.005107	-0.009350
C87	C	1.067896	0.328226	0.323984
C88	C	1.049629	-0.520899	-0.334373
C89	C	1.382962	-0.187566	-0.001039
C90	C	1.716295	0.145767	0.332294
C91	C	1.046141	-0.598970	-0.330860
C92	C	1.379474	-0.265637	0.002473
C93	C	1.712808	0.067697	0.335806
C94	C	1.091971	-0.635579	-0.376754
C95	C	1.425305	-0.302245	-0.043420
C96	C	1.758638	0.031088	0.289913
C97	C	1.088691	-0.708934	-0.373455
C98	C	1.422024	-0.375601	-0.040121
C99	C	1.755358	-0.042267	0.293212
C100	C	1.039584	-0.745680	-0.324258
C101	C	1.372917	-0.412347	0.009075
C102	C	1.706250	-0.079013	0.342408
C103	C	0.993748	-0.709066	-0.278363
C104	C	1.327082	-0.375733	0.054970
C105	C	1.660415	-0.042400	0.388303
C106	C	0.997025	-0.635712	-0.281666
C107	C	1.330359	-0.302379	0.051667
C108	C	1.663692	0.030955	0.385000
C109	C	1.027311	-0.967166	-0.311910
C110	C	1.360644	-0.633832	0.021424
C111	C	1.693978	-0.300499	0.354757
C112	C	1.024039	-1.040525	-0.308608
C113	C	1.357372	-0.707192	0.024725
C114	C	1.690706	-0.373858	0.358058
C115	C	1.118981	-1.040388	-0.403701
C116	C	1.452315	-0.707055	-0.070368
C117	C	1.785648	-0.373721	0.262965
C118	C	1.122257	-0.967032	-0.406997
C119	C	1.455590	-0.633699	-0.073664
C120	C	1.788924	-0.300366	0.259670
C121	C	1.076419	-0.930425	-0.361105
C122	C	1.409752	-0.597092	-0.027771
C123	C	1.743086	-0.263758	0.305562
C124	C	1.036231	-0.820661	-0.320883
C125	C	1.369565	-0.487328	0.012450
C126	C	1.702898	-0.153994	0.345783
C127	C	1.079768	-0.855445	-0.364484
C128	C	1.413102	-0.522112	-0.031150
C129	C	1.746435	-0.188779	0.302183
C130	C	1.251645	-0.338435	-0.342681
C131	C	1.584978	-0.005102	-0.009348
C132	C	1.918312	0.328232	0.323985
C133	C	1.334190	-0.338446	-0.342699
C134	C	1.667524	-0.005113	-0.009365
C135	C	2.000857	0.328220	0.323968
C136	C	1.057984	-0.338345	-0.536349
C137	C	1.391317	-0.005012	-0.203016
C138	C	1.724650	0.328321	0.130317
C139	C	1.058002	-0.338319	-0.618896
C140	C	1.391335	-0.004985	-0.285563
C141	C	1.724669	0.328348	0.047770
C142	C	1.066305	-0.155204	-0.350958
C143	C	1.399638	0.178129	-0.017624
C144	C	1.732972	0.511462	0.315709
C145	C	1.069869	-0.077134	-0.354502
C146	C	1.403203	0.256200	-0.021168
C147	C	1.736536	0.589533	0.312165
C148	C	1.109799	-0.291361	-0.869865
C149	C	1.443132	0.041972	-0.536531
C150	C	1.776465	0.375305	-0.203198
C151	C	1.125033	-0.355452	-0.817558
C152	C	1.458366	-0.022119	-0.484225
C153	C	1.791699	0.311215	-0.150891
C154	C	1.058052	-0.338274	-0.916019
C155	C	1.391385	-0.004941	-0.582686
C156	C	1.724719	0.328393	-0.249352
C157	C	1.042828	-0.274209	-0.821243
C158	C	1.376161	0.059124	-0.487909
C159	C	1.709495	0.392458	-0.154576
C160	C	1.058029	-0.338293	-0.770033
C161	C	1.391363	-0.004959	-0.436700
C162	C	1.724696	0.328374	-0.103366
C163	C	1.073320	-0.402398	-0.864798
C164	C	1.406653	-0.069065	-0.531465
C165	C	1.739987	0.264268	-0.198132
C166	C	0.991086	-0.321112	-0.868489
C167	C	1.324419	0.012221	-0.535156
C168	C	1.657752	0.345554	-0.201822
C169	C	1.006292	-0.385247	-0.816203
C170	C	1.339625	-0.051914	-0.482870
C171	C	1.672959	0.281419	-0.149536
C172	C	1.058067	-0.338262	-1.000118
C173	C	1.391400	-0.004929	-0.666785
C174	C	1.724734	0.328404	-0.333451
C175	C	1.058014	-0.338311	-0.685936
C176	C	1.391347	-0.004978	-0.352602
C177	C	1.724681	0.328355	-0.019269
C178	C	1.057943	-0.338420	-0.149688
C179	C	1.391276	-0.005087	0.183645
C180	C	1.724609	0.328247	0.516978
C181	C	1.058077	-0.338249	-0.067151
C182	C	1.391410	-0.004916	0.266183
C183	C	1.724744	0.328418	0.599516
H184	H	0.508238	-0.425221	-0.430133
H185	H	0.841571	-0.091888	-0.096800
H186	H	1.174905	0.241446	0.236533
Cl187	Cl	1.177418	-0.230174	-0.906134
Cl188	Cl	1.510752	0.103159	-0.572800
Cl189	Cl	1.844085	0.436492	-0.239467
H190	H	1.086270	-0.456596	-0.883936
H191	H	1.419603	-0.123263	-0.550602
H192	H	1.752936	0.210070	-0.217269
Cl193	Cl	1.176599	-1.086412	-0.461394
Cl194	Cl	1.509933	-0.753079	-0.128061
Cl195	Cl	1.843266	-0.419746	0.205273
Cl196	Cl	1.153713	-0.589391	-0.438600
Cl197	Cl	1.487047	-0.256058	-0.105267
Cl198	Cl	1.820380	0.077276	0.228067
Cl199	Cl	1.212452	-0.377884	-0.783055
Cl200	Cl	1.545785	-0.044551	-0.449722
Cl201	Cl	1.879118	0.288782	-0.116389
Cl202	Cl	0.939406	-0.589690	-0.223970
Cl203	Cl	1.272740	-0.256356	0.109363
Cl204	Cl	1.606073	0.076977	0.442696
Cl205	Cl	0.498223	-0.377818	-0.184581
Cl206	Cl	0.831556	-0.044485	0.148752
Cl207	Cl	1.164889	0.288849	0.482085
H208	H	0.996250	-0.850588	-0.280826
H209	H	1.329583	-0.517254	0.052508
H210	H	1.662917	-0.183921	0.385841
Cl211	Cl	0.609631	-0.486165	-0.293702
Cl212	Cl	0.942964	-0.152831	0.039631
Cl213	Cl	1.276298	0.180502	0.372964
H214	H	1.126017	-0.738737	-0.410820
H215	H	1.459350	-0.405404	-0.077487
H216	H	1.792683	-0.072071	0.255847
Cl217	Cl	0.938709	-0.446578	-0.780141
Cl218	Cl	1.272043	-0.113245	-0.446807
Cl219	Cl	1.605376	0.220089	-0.113474
Cl220	Cl	0.618437	-0.298985	-0.500658
Cl221	Cl	0.951770	0.034348	-0.167325
Cl222	Cl	1.285104	0.367681	0.166008
H223	H	1.029961	-0.220023	-0.802012
H224	H	1.363295	0.113311	-0.468678
H225	H	1.696628	0.446644	-0.135345
Cl226	Cl	0.962302	-1.086719	-0.246754
Cl227	Cl	1.295635	-0.753386	0.086579
Cl228	Cl	1.628969	-0.420052	0.419912
Cl229	Cl	0.506845	-0.190736	-0.391419
Cl230	Cl	0.840178	0.142597	-0.058085
Cl231	Cl	1.173512	0.475931	0.275248
H232	H	0.608548	-0.251749	-0.255114
H233	H	0.941881	0.081584	0.078219
H234	H	1.275215	0.414918	0.411552
H235	H	1.162244	-0.937115	-0.447057
H236	H	1.495578	-0.603782	-0.113723
H237	H	1.828911	-0.270449	0.219610
Cl238	Cl	0.903693	-0.298652	-0.903024
Cl239	Cl	1.237026	0.034682	-0.569690
Cl240	Cl	1.570359	0.368015	-0.236357
H241	H	0.953761	-0.738991	-0.238309
H242	H	1.287094	-0.405657	0.095024
H243	H	1.620428	-0.072324	0.428357
Cl244	Cl	0.969679	-0.921155	-0.254223
Cl245	Cl	1.303012	-0.587822	0.079111
Cl246	Cl	1.636345	-0.254488	0.412444
Cl247	Cl	1.141497	-0.809249	-0.426332
Cl248	Cl	1.474830	-0.475916	-0.092999
Cl249	Cl	1.808164	-0.142583	0.240334
