data_functionalizedCrystal
_audit_creation_method	'MofGen! by Chris Wilmer'
_symmetry_space_group_name_H-M	'P1'
_symmetry_Int_Tables_number	1
_symmetry_cell_setting	triclinic
loop_
_symmetry_equiv_pos_as_xyz
  x,y,z
_cell_length_a	8.634740
_cell_length_b	7.681481
_cell_length_c	16.992695
_cell_angle_alpha	96.134400
_cell_angle_beta	84.380735
_cell_angle_gamma	96.617751
loop_
_atom_site_label
_atom_site_type_symbol
_atom_site_fract_x
_atom_site_fract_y
_atom_site_fract_z
O1	O	-2.064062	0.146483	0.264431
O2	O	-1.612444	0.146475	0.242793
O3	O	-1.836444	0.146465	0.139332
O4	O	-1.840062	0.146493	0.367892
O5	O	-1.864010	-0.146394	0.126564
O6	O	-1.640011	-0.146384	0.230025
O7	O	-2.091628	-0.146376	0.251663
Zn8	Zn	-1.870196	-0.192878	0.238817
Zn9	Zn	-1.833876	0.192977	0.255639
O10	O	-1.867629	-0.146366	0.355124
C11	C	-1.568173	0.000045	0.231507
C12	C	-1.395189	0.000042	0.216891
N13	N	-1.894995	-0.456213	0.227336
C14	C	-1.135899	0.000052	0.262949
C15	C	-1.308884	0.000049	0.277565
C16	C	-1.845569	0.000036	0.103383
C17	C	-1.831671	0.000036	0.015289
N18	N	-1.809089	0.456312	0.267114
C19	C	-1.965768	0.000036	-0.024820
C20	C	-1.952699	0.000053	-0.107593
C21	C	-1.805532	0.000056	-0.150256
C22	C	-1.671424	0.000061	-0.110140
C23	C	-1.684494	0.000057	-0.027368
C24	C	-1.751362	0.000080	-0.397945
C25	C	-1.738303	0.000078	-0.480723
C26	C	-2.019579	0.000073	-0.478170
C27	C	-2.032637	0.000058	-0.395397
C28	C	-1.898528	0.000073	-0.355288
N29	N	-1.792170	0.000067	-0.234864
N30	N	-1.911890	0.000074	-0.270681
C31	C	-1.858503	0.000067	0.391073
C32	C	-1.872400	0.000079	0.479167
H33	H	-1.367341	0.000046	0.340695
C34	C	-2.013481	-0.557814	0.172486
N35	N	-2.102721	-0.634341	0.131172
H36	H	-1.551596	0.000075	-0.144883
H37	H	-1.336736	0.000078	0.153766
C38	C	-2.127665	0.000032	0.022101
N39	N	-2.249609	0.000037	0.057440
H40	H	-1.721396	-0.468487	0.307716
C41	C	-1.603835	0.000105	-0.353836
N42	N	-1.492710	0.000129	-0.320610
H43	H	-2.061896	0.000049	-0.140247
C44	C	-2.167086	0.000074	-0.522296
N45	N	-2.278195	0.000083	-0.555531
C46	C	-2.194532	0.000053	-0.348474
N47	N	-2.316474	0.000041	-0.313132
H48	H	-1.618458	0.000053	-0.515458
H49	H	-1.575297	0.000057	0.005288
