data_functionalizedCrystal
_audit_creation_method	'MofGen! by Chris Wilmer'
_symmetry_space_group_name_H-M	'P1'
_symmetry_Int_Tables_number	1
_symmetry_cell_setting	triclinic
loop_
_symmetry_equiv_pos_as_xyz
  x,y,z
_cell_length_a	18.215407
_cell_length_b	12.594516
_cell_length_c	18.215407
_cell_angle_alpha	90.007506
_cell_angle_beta	90.009037
_cell_angle_gamma	90.016501
loop_
_atom_site_label
_atom_site_type_symbol
_atom_site_fract_x
_atom_site_fract_y
_atom_site_fract_z
Zn1	Zn	1.125039	-0.423894	0.416146
Zn2	Zn	1.458372	-0.090560	0.749479
Zn3	Zn	1.791705	0.242773	1.082812
Zn4	Zn	1.124989	-0.601846	0.293092
Zn5	Zn	1.458323	-0.268513	0.626425
Zn6	Zn	1.791656	0.064821	0.959759
Zn7	Zn	1.001994	-0.423883	0.293093
Zn8	Zn	1.335328	-0.090550	0.626426
Zn9	Zn	1.668661	0.242784	0.959760
Zn10	Zn	1.001956	-0.601832	0.416117
Zn11	Zn	1.335289	-0.268499	0.749450
Zn12	Zn	1.668623	0.064835	1.082783
O13	O	1.063495	-0.512864	0.354612
O14	O	1.396828	-0.179530	0.687945
O15	O	1.730161	0.153803	1.021278
O16	O	1.228016	-0.447510	0.399834
O17	O	1.561350	-0.114176	0.733167
O18	O	1.894683	0.219157	1.066500
O19	O	1.108669	-0.578240	0.190108
O20	O	1.442002	-0.244907	0.523441
O21	O	1.775336	0.088427	0.856774
O22	O	1.018353	-0.274939	0.309429
O23	O	1.351687	0.058395	0.642762
O24	O	1.685020	0.391728	0.976095
O25	O	1.227980	-0.578250	0.309427
O26	O	1.561313	-0.244917	0.642760
O27	O	1.894647	0.088416	0.976093
O28	O	1.108753	-0.274947	0.399835
O29	O	1.442087	0.058387	0.733168
O30	O	1.775420	0.391720	1.066502
O31	O	1.018305	-0.447492	0.190109
O32	O	1.351639	-0.114158	0.523442
O33	O	1.684972	0.219175	0.856775
O34	O	0.899005	-0.447478	0.309401
O35	O	1.232338	-0.114145	0.642734
O36	O	1.565672	0.219188	0.976067
O37	O	1.018288	-0.578227	0.519105
O38	O	1.351621	-0.244893	0.852438
O39	O	1.684955	0.088440	1.185771
O40	O	0.898977	-0.578216	0.399786
O41	O	1.232310	-0.244883	0.733119
O42	O	1.565644	0.088450	1.066452
O43	O	1.108716	-0.447496	0.519126
O44	O	1.442049	-0.114163	0.852459
O45	O	1.775383	0.219170	1.185793
O46	O	1.108632	-0.750790	0.309399
O47	O	1.441965	-0.417456	0.642732
O48	O	1.775299	-0.084123	0.976066
O49	O	1.018240	-0.750780	0.399785
O50	O	1.351573	-0.417446	0.733118
O51	O	1.684907	-0.084113	1.066451
C52	C	0.872288	-0.512845	0.354591
C53	C	1.205622	-0.179512	0.687924
C54	C	1.538955	0.153821	1.021257
C55	C	0.790489	-0.512863	0.354599
C56	C	1.123823	-0.179530	0.687932
C57	C	1.457156	0.153803	1.021266
C58	C	0.602300	-0.581046	0.401603
C59	C	0.935633	-0.247712	0.734937
C60	C	1.268967	0.085621	1.068270
C61	C	0.525441	-0.581049	0.401613
C62	C	0.858775	-0.247716	0.734946
C63	C	1.192108	0.085618	1.068279
C64	C	0.525441	-0.444701	0.307636
C65	C	0.858774	-0.111368	0.640969
C66	C	1.192108	0.221966	0.974303
C67	C	0.602298	-0.444693	0.307631
C68	C	0.935632	-0.111360	0.640965
C69	C	1.268965	0.221974	0.974298
C70	C	0.640726	-0.512871	0.354614
C71	C	0.974059	-0.179538	0.687947
C72	C	1.307393	0.153795	1.021280
C73	C	0.487010	-0.512883	0.354628
C74	C	0.820343	-0.179549	0.687961
C75	C	1.153677	0.153784	1.021295
C76	C	0.403676	-0.512886	0.354637
C77	C	0.737010	-0.179552	0.687971
C78	C	1.070343	0.153781	1.021304
C79	C	0.724065	-0.512867	0.354605
C80	C	1.057398	-0.179534	0.687939
C81	C	1.390732	0.153799	1.021272
C82	C	1.063446	-0.789405	0.354605
C83	C	1.396780	-0.456071	0.687938
C84	C	1.730113	-0.122738	1.021271
C85	C	1.063493	-0.907710	0.354626
C86	C	1.396826	-0.574377	0.687959
C87	C	1.730160	-0.241043	1.021293
C88	C	1.014324	-0.976996	0.403752
C89	C	1.347657	-0.643663	0.737086
C90	C	1.680991	-0.310330	1.070419
C91	C	0.996407	-1.047830	0.336599
C92	C	1.329741	-0.714497	0.669933
C93	C	1.663074	-0.381163	1.003266
C94	C	1.081477	-1.047675	0.421790
C95	C	1.414810	-0.714342	0.755124
C96	C	1.748143	-0.381009	1.088457
C97	C	1.045541	-0.976986	0.287438
C98	C	1.378874	-0.643652	0.620771
C99	C	1.712208	-0.310319	0.954104
C100	C	1.130641	-0.976824	0.372674
C101	C	1.463975	-0.643491	0.706007
C102	C	1.797308	-0.310158	1.039341
C103	C	1.112750	-1.047626	0.305475
C104	C	1.446084	-0.714293	0.638808
C105	C	1.779417	-0.380960	0.972141
C106	C	1.255448	-0.512883	0.354633
C107	C	1.588781	-0.179549	0.687967
C108	C	1.922114	0.153784	1.021300
C109	C	1.337246	-0.512891	0.354643
C110	C	1.670580	-0.179558	0.687976
C111	C	2.003913	0.153776	1.021309
C112	C	1.063503	-0.512861	0.546565
C113	C	1.396837	-0.179528	0.879898
C114	C	1.730170	0.153806	1.213231
C115	C	1.063507	-0.512860	0.628364
C116	C	1.396840	-0.179527	0.961697
C117	C	1.730174	0.153807	1.295030
C118	C	1.063563	-0.235243	0.354635
C119	C	1.396896	0.098091	0.687968
C120	C	1.730230	0.431424	1.021302
C121	C	1.063592	-0.116937	0.354645
C122	C	1.396926	0.216396	0.687978
C123	C	1.730259	0.549729	1.021312
C124	C	1.110572	-0.444797	0.893433
C125	C	1.443906	-0.111464	1.226767
C126	C	1.777239	0.221869	1.560100
C127	C	1.110578	-0.444797	0.816575
C128	C	1.443911	-0.111464	1.149908
C129	C	1.777244	0.221870	1.483241
C130	C	1.016420	-0.580940	0.816542
C131	C	1.349753	-0.247607	1.149876
C132	C	1.683086	0.085727	1.483209
C133	C	1.016419	-0.580945	0.893400
C134	C	1.349752	-0.247612	1.226733
C135	C	1.683085	0.085722	1.560066
C136	C	1.063494	-0.512868	0.931843
C137	C	1.396827	-0.179534	1.265176
C138	C	1.730161	0.153799	1.598510
C139	C	1.063500	-0.512862	0.778127
C140	C	1.396833	-0.179529	1.111460
C141	C	1.730167	0.153804	1.444794
C142	C	1.063505	-0.512862	0.694793
C143	C	1.396839	-0.179529	1.028127
C144	C	1.730172	0.153804	1.361460
C145	C	1.063490	-0.512869	1.015182
C146	C	1.396823	-0.179535	1.348515
C147	C	1.730157	0.153798	1.681849
C148	C	1.063483	-0.512885	1.163405
C149	C	1.396816	-0.179551	1.496739
C150	C	1.730150	0.153782	1.830072
C151	C	1.063487	-0.512870	1.081607
C152	C	1.396821	-0.179537	1.414940
C153	C	1.730154	0.153797	1.748273
H154	H	0.633586	-0.636558	0.439862
H155	H	0.966919	-0.303225	0.773195
H156	H	1.300252	0.030108	1.106528
H157	H	0.494158	-0.636562	0.439877
H158	H	0.827492	-0.303228	0.773211
H159	H	1.160825	0.030105	1.106544
H160	H	0.633586	-0.389171	0.269366
H161	H	0.966919	-0.055837	0.602700
H162	H	1.300252	0.277496	0.936033
H163	H	0.972669	-0.945982	0.445236
H164	H	1.306003	-0.612648	0.778570
H165	H	1.639336	-0.279315	1.111903
N166	N	0.921247	-1.089134	0.316373
N167	N	1.254580	-0.755801	0.649706
N168	N	1.587914	-0.422468	0.983039
H169	H	0.884101	-1.063448	0.353501
H170	H	1.217434	-0.730114	0.686834
H171	H	1.550768	-0.396781	1.020168
H172	H	0.922025	-1.169315	0.316047
H173	H	1.255358	-0.835982	0.649380
H174	H	1.588691	-0.502648	0.982714
H175	H	1.030305	-0.946064	0.230630
H176	H	1.363638	-0.612730	0.563963
H177	H	1.696971	-0.279397	0.897296
H178	H	0.494144	-0.389194	0.269383
H179	H	0.827477	-0.055861	0.602717
H180	H	1.160811	0.277472	0.936050
H181	H	1.154373	-1.078444	0.263890
H182	H	1.487707	-0.745111	0.597224
H183	H	1.821040	-0.411777	0.930557
N184	N	1.205783	-0.935481	0.392914
N185	N	1.539116	-0.602148	0.726248
N186	N	1.872450	-0.268815	1.059581
H187	H	1.202023	-0.890198	0.438524
H188	H	1.535356	-0.556865	0.771857
H189	H	1.868689	-0.223531	1.105190
H190	H	1.225802	-0.891395	0.351153
H191	H	1.559135	-0.558062	0.684486
H192	H	1.892469	-0.224728	1.017820
H193	H	1.096647	-1.078726	0.478583
H194	H	1.429981	-0.745392	0.811916
H195	H	1.763314	-0.412059	1.145250
H196	H	0.978081	-0.636382	0.924674
H197	H	1.311415	-0.303049	1.258007
H198	H	1.644748	0.030285	1.591340
H199	H	0.978092	-0.636365	0.785232
H200	H	1.311425	-0.303032	1.118565
H201	H	1.644758	0.030302	1.451899
N202	N	1.161347	-0.371371	0.934892
N203	N	1.494680	-0.038038	1.268226
N204	N	1.828013	0.295295	1.601559
H205	H	1.213925	-0.387903	0.921524
H206	H	1.547259	-0.054569	1.254857
H207	H	1.880592	0.278764	1.588191
H208	H	1.154142	-0.381727	0.989397
H209	H	1.487475	-0.048394	1.322731
H210	H	1.820809	0.284939	1.656064
N211	N	1.161357	-0.371383	0.775146
N212	N	1.494691	-0.038049	1.108479
N213	N	1.828024	0.295284	1.441813
H214	H	1.191178	-0.328261	0.811165
H215	H	1.524511	0.005073	1.144498
H216	H	1.857844	0.338406	1.477831
H217	H	1.131413	-0.322125	0.743255
H218	H	1.464746	0.011208	1.076589
H219	H	1.798079	0.344541	1.409922
