data_functionalizedCrystal
_audit_creation_method	'MofGen! by Chris Wilmer'
_symmetry_space_group_name_H-M	'P1'
_symmetry_Int_Tables_number	1
_symmetry_cell_setting	triclinic
loop_
_symmetry_equiv_pos_as_xyz
  x,y,z
_cell_length_a	16.109301
_cell_length_b	17.699083
_cell_length_c	14.586319
_cell_angle_alpha	89.995320
_cell_angle_beta	89.999213
_cell_angle_gamma	83.372248
loop_
_atom_site_label
_atom_site_type_symbol
_atom_site_fract_x
_atom_site_fract_y
_atom_site_fract_z
O1	O	1.102963	0.097285	-0.076184
O2	O	1.602963	0.597285	0.423816
O3	O	0.860880	0.109391	-0.076199
O4	O	1.360880	0.609391	0.423801
O5	O	0.988761	-0.006841	-0.076183
O6	O	1.488761	0.493159	0.423817
O7	O	0.975082	0.213517	-0.076200
O8	O	1.475082	0.713517	0.423800
O9	O	0.988752	-0.006843	0.076298
O10	O	1.488752	0.493157	0.576298
O11	O	0.860872	0.109390	0.076282
O12	O	1.360872	0.609390	0.576282
O13	O	1.102954	0.097283	0.076297
O14	O	1.602954	0.597283	0.576297
Cu15	Cu	0.981912	0.103336	0.090212
Cu16	Cu	1.481912	0.603336	0.590212
Cu17	Cu	0.981923	0.103338	-0.090114
Cu18	Cu	1.481923	0.603338	0.409886
O19	O	0.975074	0.213516	0.076281
O20	O	1.475074	0.713516	0.576281
C21	C	0.829902	0.108900	0.000040
C22	C	1.329902	0.608900	0.500040
C23	C	0.737609	0.107430	0.000034
C24	C	1.237609	0.607430	0.500034
C25	C	0.988267	-0.035040	0.000057
C26	C	1.488267	0.464960	0.500057
C27	C	0.986796	-0.119060	0.000058
C28	C	1.486796	0.380940	0.500058
C29	C	0.515224	0.172981	0.000040
C30	C	1.015224	0.672981	0.500040
C31	C	0.428506	0.171594	0.000046
C32	C	0.928506	0.671594	0.500046
C33	C	0.448618	0.033688	0.000053
C34	C	0.948618	0.533688	0.500053
C35	C	0.535334	0.035076	0.000053
C36	C	1.035334	0.535076	0.500053
C37	C	0.568635	0.104725	0.000042
C38	C	1.068635	0.604725	0.500042
C39	C	0.395200	0.101949	0.000047
C40	C	0.895200	0.601949	0.500047
C41	C	0.301177	0.100445	0.000054
C42	C	0.801177	0.600445	0.500054
C43	C	0.662664	0.106230	0.000037
C44	C	1.162664	0.606230	0.500037
C45	C	1.061860	-0.167574	0.000064
C46	C	1.561860	0.332426	0.500064
C47	C	1.060473	-0.246519	0.000055
C48	C	1.560473	0.253481	0.500055
C49	C	0.984022	-0.276949	0.000048
C50	C	1.484022	0.223051	0.500048
C51	C	0.908953	-0.228429	0.000039
C52	C	1.408953	0.271571	0.500039
C53	C	0.910341	-0.149485	0.000041
C54	C	1.410341	0.350515	0.500041
C55	C	0.903356	-0.546800	0.000031
C56	C	1.403356	-0.046800	0.500031
C57	C	0.901974	-0.625750	0.000033
C58	C	1.401974	-0.125750	0.500033
C59	C	1.053488	-0.643834	0.000046
C60	C	1.553488	-0.143834	0.500046
C61	C	1.054876	-0.564890	0.000048
C62	C	1.554876	-0.064890	0.500048
C63	C	0.979807	-0.516377	0.000034
C64	C	1.479807	-0.016377	0.500034
C65	C	0.981312	-0.430776	0.000041
C66	C	1.481312	0.069224	0.500041
C67	C	0.982517	-0.362549	0.000047
C68	C	1.482517	0.137451	0.500047
C69	C	1.133933	0.097774	0.000056
C70	C	1.633933	0.597774	0.500056
C71	C	1.226226	0.099244	0.000055
C72	C	1.726226	0.599244	0.500055
C73	C	0.975568	0.241714	0.000038
C74	C	1.475568	0.741714	0.500038
C75	C	0.977039	0.325734	0.000032
C76	C	1.477039	0.825734	0.500032
N77	N	0.981911	0.103334	0.217044
N78	N	1.481911	0.603334	0.717044
N79	N	0.981931	0.103334	-0.216946
N80	N	1.481931	0.603334	0.283054
C81	C	1.038555	0.051884	0.452057
C82	C	1.538555	0.551884	0.952057
C83	C	1.038558	0.051882	0.548038
C84	C	1.538558	0.551882	1.048038
C85	C	0.925280	0.154787	0.548034
C86	C	1.425280	0.654787	1.048034
C87	C	0.925274	0.154785	0.452054
C88	C	1.425274	0.654785	0.952054
C89	C	0.981917	0.103334	0.404068
C90	C	1.481917	0.603334	0.904068
C91	C	0.981925	0.103334	0.596029
C92	C	1.481925	0.603334	1.096029
C93	C	0.981927	0.103333	0.700096
C94	C	1.481927	0.603333	1.200096
C95	C	0.981914	0.103334	0.299995
C96	C	1.481914	0.603334	0.799995
H97	H	0.385022	0.227175	0.000046
H98	H	0.885022	0.727175	0.500046
N99	N	0.412691	-0.041426	0.000065
N100	N	0.912691	0.458574	0.500065
H101	H	0.377162	-0.045075	-0.056460
H102	H	0.877162	0.454925	0.443540
H103	H	0.459729	-0.084415	0.000106
H104	H	0.959729	0.415585	0.500106
N105	N	1.099655	-0.003605	0.599795
N106	N	1.599655	0.496395	1.099795
H107	H	1.091065	0.004200	0.667880
H108	H	1.591065	0.504200	1.167880
H109	H	1.090164	-0.057302	0.583025
H110	H	1.590164	0.442698	1.083025
N111	N	0.592949	-0.038547	0.000066
N112	N	1.092949	0.461453	0.500066
H113	H	0.558697	-0.082880	0.000068
H114	H	1.058697	0.417120	0.500068
H115	H	0.629371	-0.040974	-0.056457
H116	H	1.129371	0.459026	0.443543
N117	N	1.144318	-0.134756	0.000080
N118	N	1.644318	0.365244	0.500080
H119	H	1.191659	-0.177471	0.000081
H120	H	1.691659	0.322529	0.500081
H121	H	1.148199	-0.102390	-0.056444
H122	H	1.648199	0.397610	0.443556
H123	H	0.879149	0.196682	0.412979
H124	H	1.379149	0.696682	0.912979
N125	N	0.819513	-0.658574	0.000030
N126	N	1.319513	-0.158574	0.500030
H127	H	0.772167	-0.615862	0.000021
H128	H	1.272167	-0.115862	0.500021
H129	H	0.815645	-0.690935	-0.056494
H130	H	1.315645	-0.190935	0.443506
N131	N	0.864190	0.210279	0.599790
N132	N	1.364190	0.710279	1.099790
H133	H	0.872788	0.202475	0.667875
H134	H	1.372788	0.702475	1.167875
H135	H	0.873682	0.263974	0.583004
H136	H	1.373682	0.763974	1.083004
N137	N	0.551143	0.248099	0.000027
N138	N	1.051143	0.748099	0.500027
H139	H	0.504146	0.291128	0.000027
H140	H	1.004146	0.791128	0.500027
H141	H	0.586686	0.251678	0.056552
H142	H	1.086686	0.751678	0.556552
N143	N	1.141434	-0.298846	0.000067
N144	N	1.641434	0.201154	0.500067
H145	H	1.190075	-0.267590	0.000080
H146	H	1.690075	0.232410	0.500080
H147	H	1.144148	-0.331997	0.056594
H148	H	1.644148	0.168003	0.556594
N149	N	1.137333	-0.532069	0.000063
N150	N	1.637333	-0.032069	0.500063
H151	H	1.184676	-0.574783	0.000064
H152	H	1.684676	-0.074783	0.500064
H153	H	1.141211	-0.499704	-0.056462
H154	H	1.641211	0.000296	0.443538
N155	N	1.134455	-0.696165	0.000058
N156	N	1.634455	-0.196165	0.500058
H157	H	1.137266	-0.729317	-0.056468
H158	H	1.637266	-0.229317	0.443532
H159	H	1.183050	-0.664857	0.000103
H160	H	1.683050	-0.164857	0.500103
N161	N	0.822393	-0.494482	0.000021
N162	N	1.322393	0.005518	0.500021
H163	H	0.773754	-0.525740	0.000021
H164	H	1.273754	-0.025740	0.500021
H165	H	0.819664	-0.461336	0.056547
H166	H	1.319664	0.038664	0.556547
N167	N	0.826491	-0.261241	0.000030
N168	N	1.326491	0.238759	0.500030
H169	H	0.822541	-0.293590	-0.056493
H170	H	1.322541	0.206410	0.443507
H171	H	0.822583	-0.293556	0.056594
H172	H	1.322583	0.206444	0.556594
N173	N	0.829380	-0.097156	0.000029
N174	N	1.329380	0.402844	0.500029
H175	H	0.780737	-0.128410	0.000025
H176	H	1.280737	0.371590	0.500025
H177	H	0.826649	-0.064009	0.056554
H178	H	1.326649	0.435991	0.556554
N179	N	1.099643	-0.003608	0.400299
N180	N	1.599643	0.496392	0.900299
H181	H	1.135522	-0.036202	0.445268
H182	H	1.635522	0.463798	0.945268
H183	H	1.067881	-0.037077	0.360483
H184	H	1.567881	0.462923	0.860483
