data_functionalizedCrystal
_audit_creation_method	'MofGen! by Chris Wilmer'
_symmetry_space_group_name_H-M	'P1'
_symmetry_Int_Tables_number	1
_symmetry_cell_setting	triclinic
loop_
_symmetry_equiv_pos_as_xyz
  x,y,z
_cell_length_a	10.540539
_cell_length_b	16.109301
_cell_length_c	14.586319
_cell_angle_alpha	90.000787
_cell_angle_beta	89.998343
_cell_angle_gamma	96.006514
loop_
_atom_site_label
_atom_site_type_symbol
_atom_site_fract_x
_atom_site_fract_y
_atom_site_fract_z
O1	O	0.163159	-1.104129	-0.076178
O2	O	0.183464	-0.862191	-0.076192
O3	O	-0.011474	-0.988679	-0.076184
O4	O	0.358096	-0.977640	-0.076186
O5	O	-0.011477	-0.988670	0.076297
O6	O	0.183461	-0.862182	0.076289
O7	O	0.163156	-1.104120	0.076303
Cu8	Cu	0.173308	-0.983150	0.090219
Cu9	Cu	0.173312	-0.983160	-0.090108
O10	O	0.358094	-0.977631	0.076294
C11	C	0.182640	-0.831206	0.000047
C12	C	0.180174	-0.738896	0.000041
C13	C	-0.058767	-0.987847	0.000055
C14	C	-0.199679	-0.985370	0.000050
N15	N	0.173305	-0.983149	0.217050
C16	C	-0.381753	-0.890460	-0.000298
C17	C	-0.235171	-0.892971	0.000046
C18	C	-0.261973	-1.029832	0.087127
C19	C	-0.408472	-1.026678	0.087200
C20	C	-0.409014	-1.028567	-0.086199
C21	C	-0.262044	-1.029419	-0.087350
C22	C	0.405386	-0.978463	0.000054
C23	C	0.546299	-0.980940	0.000053
C24	C	0.163980	-1.135104	0.000062
C25	C	0.166446	-1.227414	0.000062
C26	C	0.290112	-0.517296	0.000051
C27	C	0.287785	-0.430561	0.000057
C28	C	0.056499	-0.449021	0.000055
C29	C	0.058827	-0.535754	0.000055
C30	C	0.175637	-0.569889	0.000049
C31	C	0.170982	-0.396421	0.000054
C32	C	0.168459	-0.302380	0.000060
C33	C	0.178162	-0.663936	0.000044
N34	N	0.173305	-0.983168	-0.216939
C35	C	0.087015	-1.039177	0.452060
C36	C	0.087012	-1.039179	0.548042
C37	C	0.259598	-0.927134	0.548044
C38	C	0.259594	-0.927129	0.452064
C39	C	0.173304	-0.983154	0.404075
C40	C	0.173305	-0.983163	0.596036
C41	C	0.173303	-0.983165	0.700103
C42	C	0.173305	-0.983151	0.300001
H43	H	-0.192068	-0.857986	-0.062374
H44	H	0.016751	-1.084795	0.412990
C45	C	-0.007903	-1.100802	0.600826
H46	H	0.004444	-1.092777	0.664862
H47	H	0.005905	-1.156368	0.585094
H48	H	-0.092628	-1.091264	0.585097
H49	H	0.329855	-0.881520	0.587126
C50	C	-0.474566	-1.116441	0.092566
H51	H	-0.564464	-1.115124	0.092645
H52	H	-0.449412	-1.142197	0.147278
H53	H	-0.450605	-1.147376	0.041077
H54	H	-0.409832	-0.853964	-0.062742
H55	H	-0.411444	-0.854105	0.061793
C56	C	0.418594	-0.554846	0.000051
H57	H	0.403590	-0.614034	0.000042
H58	H	0.465725	-0.536839	0.053225
H59	H	0.465728	-0.536839	-0.053129
C60	C	-0.206114	-0.985537	-0.174377
H61	H	-0.145004	-0.940562	-0.157527
H62	H	-0.272658	-0.964724	-0.208568
H63	H	-0.166143	-1.024256	-0.210718
H64	H	0.381003	-0.387743	0.000060
H65	H	-0.240586	-1.097687	0.090368
C66	C	0.354520	-0.865503	0.399276
H67	H	0.405924	-0.832145	0.441602
H68	H	0.308840	-0.830624	0.361839
H69	H	0.407373	-0.895728	0.361831
C70	C	-0.067102	-0.593610	0.000049
H71	H	-0.137003	-0.560860	0.000039
H72	H	-0.071004	-0.627829	0.053222
H73	H	-0.070991	-0.627827	-0.053132
H74	H	-0.192914	-0.857734	0.062566
C75	C	-0.474094	-1.118725	-0.086995
H76	H	-0.446708	-1.147190	-0.139265
H77	H	-0.564017	-1.117877	-0.089231
H78	H	-0.451686	-1.146731	-0.032976
H79	H	-0.440139	-0.998666	-0.152197
C80	C	-0.445941	-0.982269	0.175118
H81	H	-0.371662	-0.966318	0.210451
H82	H	-0.503521	-1.019067	0.209936
H83	H	-0.485735	-0.934008	0.159203
C84	C	-0.230632	-1.120426	-0.094450
H85	H	-0.178849	-1.132807	-0.043976
H86	H	-0.186147	-1.127737	-0.150024
H87	H	-0.307534	-1.156886	-0.093708
H88	H	-0.038605	-0.421218	0.000066
C89	C	-0.203854	-0.988093	0.174662
H90	H	-0.141643	-0.943579	0.158330
H91	H	-0.164851	-1.028027	0.209897
H92	H	-0.269223	-0.966904	0.209756
