data_functionalizedCrystal
_audit_creation_method	'MofGen! by Chris Wilmer'
_symmetry_space_group_name_H-M	'P1'
_symmetry_Int_Tables_number	1
_symmetry_cell_setting	triclinic
loop_
_symmetry_equiv_pos_as_xyz
  x,y,z
_cell_length_a	16.109301
_cell_length_b	12.376457
_cell_length_c	16.109301
_cell_angle_alpha	101.271640
_cell_angle_beta	96.538519
_cell_angle_gamma	101.287118
loop_
_atom_site_label
_atom_site_type_symbol
_atom_site_fract_x
_atom_site_fract_y
_atom_site_fract_z
O1	O	1.119069	0.093935	-0.090939
O2	O	0.877010	0.093954	-0.104235
O3	O	1.004687	0.093933	0.023442
O4	O	0.991392	0.093957	-0.218616
O5	O	0.972779	-0.094074	-0.008434
O6	O	0.845102	-0.094053	-0.136111
O7	O	1.087161	-0.094071	-0.122815
Zn8	Zn	0.961065	-0.123912	-0.134524
Zn9	Zn	1.003105	0.123795	-0.092526
O10	O	0.959484	-0.094050	-0.250492
C11	C	0.830081	-0.000047	-0.119634
C12	C	0.737787	-0.000041	-0.118018
N13	N	0.932380	-0.292966	-0.163185
C14	C	0.515514	-0.000047	-0.190026
C15	C	0.428792	-0.000054	-0.188503
C16	C	0.448665	-0.000064	-0.037016
C17	C	0.535383	-0.000065	-0.038541
C18	C	0.568806	-0.000050	-0.115048
C19	C	0.395366	-0.000057	-0.112000
C20	C	0.301339	-0.000065	-0.110348
C21	C	0.662839	-0.000045	-0.116700
C22	C	1.098385	-0.647978	0.002692
C23	C	1.118457	-0.529642	0.022753
C24	C	1.071939	-0.470467	-0.023730
C25	C	1.005346	-0.529640	-0.090277
C26	C	0.985277	-0.647988	-0.110344
C27	C	0.958831	-0.470477	-0.136766
C28	C	0.892238	-0.529650	-0.203313
C29	C	0.872172	-0.647987	-0.223376
C30	C	0.918689	-0.707162	-0.176894
C31	C	0.978901	-0.352129	-0.116699
C32	C	0.865793	-0.352139	-0.229735
C33	C	0.845721	-0.470476	-0.249796
C34	C	1.134090	-0.000068	-0.107415
C35	C	1.226385	-0.000067	-0.109030
C36	C	0.988194	-0.000071	0.038479
C37	C	0.986579	-0.000073	0.130774
N38	N	1.031797	0.292848	-0.063858
C39	C	0.975977	-0.000044	-0.265528
C40	C	0.977594	-0.000035	-0.357822
C41	C	1.058589	-0.000060	0.353049
C42	C	1.057066	-0.000051	0.439771
C43	C	0.905579	-0.000044	0.419897
C44	C	0.907103	-0.000045	0.333178
C45	C	0.983610	-0.000059	0.299756
C46	C	0.980563	-0.000048	0.473197
C47	C	0.978911	-0.000038	0.567224
C48	C	0.985262	-0.000067	0.205722
H49	H	0.385404	-0.000053	-0.249559
H50	H	0.817954	-0.696166	-0.277569
H51	H	0.542722	-0.000043	-0.252324
O52	O	0.416328	-0.000114	0.037364
C53	C	0.481969	-0.000088	0.103221
H54	H	0.534830	-0.035688	0.073895
H55	H	0.454600	-0.054667	0.147386
H56	H	0.509555	0.090108	0.141633
H57	H	0.578776	-0.000071	0.022518
H58	H	0.846043	-0.000041	0.289785
O59	O	0.831199	0.000013	0.452236
C60	C	0.765343	-0.000012	0.386594
H61	H	0.794675	0.035580	0.333724
H62	H	0.721192	0.054575	0.413952
H63	H	0.726910	-0.090207	0.359029
H64	H	0.791500	-0.518669	-0.303980
H65	H	1.033121	-0.303961	-0.062517
H66	H	0.827915	-0.303960	-0.267587
H67	H	1.088285	-0.374112	-0.007393
H68	H	1.172676	-0.481467	0.076934
H69	H	1.136258	-0.696166	0.040528
O70	O	0.899062	-0.822117	-0.196313
C71	C	0.813438	-0.861668	-0.186115
H72	H	0.792525	-0.793475	-0.140065
H73	H	0.808302	-0.940838	-0.159094
H74	H	0.770249	-0.882673	-0.250937
H75	H	1.118122	-0.000049	0.483159
H76	H	1.120885	-0.000069	0.325839
