data_functionalizedCrystal
_audit_creation_method	'MofGen! by Chris Wilmer'
_symmetry_space_group_name_H-M	'P1'
_symmetry_Int_Tables_number	1
_symmetry_cell_setting	triclinic
loop_
_symmetry_equiv_pos_as_xyz
  x,y,z
_cell_length_a	19.120904
_cell_length_b	17.077404
_cell_length_c	17.077402
_cell_angle_alpha	90.023108
_cell_angle_beta	87.587932
_cell_angle_gamma	87.577137
loop_
_atom_site_label
_atom_site_type_symbol
_atom_site_fract_x
_atom_site_fract_y
_atom_site_fract_z
Zn1	Zn	-0.397109	-1.181100	0.331454
Zn2	Zn	-0.063776	-0.847766	0.664788
Zn3	Zn	0.269558	-0.514433	0.998121
Zn4	Zn	-0.279660	-1.186613	0.457124
Zn5	Zn	0.053674	-0.853280	0.790458
Zn6	Zn	0.387007	-0.519946	1.123791
Zn7	Zn	-0.279675	-1.055437	0.325878
Zn8	Zn	0.053658	-0.722104	0.659211
Zn9	Zn	0.386992	-0.388770	0.992544
Zn10	Zn	-0.397068	-1.049801	0.462681
Zn11	Zn	-0.063735	-0.716468	0.796014
Zn12	Zn	0.269598	-0.383135	1.129347
O13	O	-0.338378	-1.118238	0.394284
O14	O	-0.005045	-0.784904	0.727618
O15	O	0.328289	-0.451571	1.060951
O16	O	-0.381540	-1.291677	0.348133
O17	O	-0.048206	-0.958344	0.681467
O18	O	0.285127	-0.625011	1.014800
O19	O	-0.181379	-1.173878	0.435055
O20	O	0.151954	-0.840545	0.768388
O21	O	0.485287	-0.507211	1.101722
O22	O	-0.295276	-1.072157	0.216772
O23	O	0.038057	-0.738824	0.550105
O24	O	0.371390	-0.405491	0.883438
O25	O	-0.295250	-1.295728	0.440462
O26	O	0.038083	-0.962395	0.773796
O27	O	0.371416	-0.629061	1.107129
O28	O	-0.381554	-1.164481	0.220869
O29	O	-0.048221	-0.831148	0.554202
O30	O	0.285112	-0.497815	0.887536
O31	O	-0.181391	-1.077503	0.338629
O32	O	0.151943	-0.744170	0.671962
O33	O	0.485276	-0.410837	1.005295
O34	O	-0.295237	-0.944843	0.344016
O35	O	0.038097	-0.611510	0.677350
O36	O	0.371430	-0.278176	1.010683
O37	O	-0.495356	-1.062553	0.449933
O38	O	-0.162023	-0.729219	0.783266
O39	O	0.171311	-0.395886	1.116599
O40	O	-0.381485	-0.940703	0.444525
O41	O	-0.048152	-0.607369	0.777858
O42	O	0.285181	-0.274036	1.111192
O43	O	-0.495386	-1.159017	0.353521
O44	O	-0.162053	-0.825683	0.686854
O45	O	0.171281	-0.492350	1.020188
O46	O	-0.295211	-1.168413	0.567707
O47	O	0.038122	-0.835080	0.901041
O48	O	0.371456	-0.501747	1.234374
O49	O	-0.381470	-1.067899	0.571790
O50	O	-0.048137	-0.734565	0.905123
O51	O	0.285196	-0.401232	1.238456
C52	C	-0.338359	-0.914291	0.394269
C53	C	-0.005025	-0.580957	0.727603
C54	C	0.328308	-0.247624	1.060936
C55	C	-0.338367	-0.827041	0.394282
C56	C	-0.005034	-0.493707	0.727616
C57	C	0.328300	-0.160374	1.060949
C58	C	-0.338350	-1.118163	0.598231
C59	C	-0.005017	-0.784830	0.931564
C60	C	0.328317	-0.451497	1.264898
C61	C	-0.338361	-1.118202	0.685481
C62	C	-0.005028	-0.784869	1.018815
C63	C	0.328305	-0.451535	1.352148
C64	C	-0.521567	-1.109541	0.402969
C65	C	-0.188234	-0.776208	0.736302
C66	C	0.145100	-0.442874	1.069635
C67	C	-0.599631	-1.105835	0.406669
C68	C	-0.266298	-0.772502	0.740003
C69	C	0.067035	-0.439168	1.073336
C70	C	-0.636323	-1.154315	0.358214
C71	C	-0.302989	-0.820982	0.691547
C72	C	0.030344	-0.487649	1.024881
C73	C	-0.709672	-1.150824	0.361688
C74	C	-0.376339	-0.817490	0.695022
C75	C	-0.043006	-0.484157	1.028355
C76	C	-0.746329	-1.098855	0.413623
C77	C	-0.412996	-0.765522	0.746956
C78	C	-0.079663	-0.432188	1.080289
C79	C	-0.709633	-1.050370	0.462080
C80	C	-0.376299	-0.717036	0.795413
C81	C	-0.042966	-0.383703	1.128747
C82	C	-0.636284	-1.053858	0.458601
C83	C	-0.302951	-0.720525	0.791934
C84	C	0.030382	-0.387191	1.125268
C85	C	-0.967793	-1.085806	0.426634
C86	C	-0.634460	-0.752473	0.759967
C87	C	-0.301126	-0.419140	1.093300
C88	C	-1.041146	-1.082324	0.430111
C89	C	-0.707813	-0.748990	0.763444
C90	C	-0.374480	-0.415657	1.096777
C91	C	-1.041181	-1.182777	0.329718
C92	C	-0.707848	-0.849443	0.663051
C93	C	-0.374514	-0.516110	0.996384
C94	C	-0.967831	-1.186264	0.326247
C95	C	-0.634498	-0.852930	0.659580
C96	C	-0.301165	-0.519597	0.992913
C97	C	-0.931141	-1.137775	0.374701
C98	C	-0.597808	-0.804442	0.708034
C99	C	-0.264474	-0.471109	1.041368
C100	C	-0.821304	-1.095287	0.417177
C101	C	-0.487971	-0.761953	0.750510
C102	C	-0.154638	-0.428620	1.083843
C103	C	-0.856167	-1.141341	0.371142
C104	C	-0.522834	-0.808007	0.704476
C105	C	-0.189501	-0.474674	1.037809
C106	C	-0.155902	-1.126946	0.385577
C107	C	0.177432	-0.793612	0.718910
C108	C	0.510765	-0.460279	1.052244
C109	C	-0.077838	-1.130804	0.381655
C110	C	0.255495	-0.797470	0.714989
C111	C	0.588829	-0.464137	1.048322
C112	C	-0.338398	-1.322981	0.394300
C113	C	-0.005065	-0.989648	0.727633
C114	C	0.328269	-0.656314	1.060967
C115	C	-0.338406	-1.410230	0.394307
C116	C	-0.005073	-1.076897	0.727640
C117	C	0.328260	-0.743564	1.060974
C118	C	-0.383204	-0.783918	0.446689
C119	C	-0.049871	-0.450585	0.780023
C120	C	0.283462	-0.117252	1.113356
C121	C	-0.383216	-0.701937	0.446692
C122	C	-0.049882	-0.368604	0.780025
C123	C	0.283451	-0.035271	1.113358
C124	C	-0.338385	-0.663080	0.394290
C125	C	-0.005052	-0.329747	0.727623
C126	C	0.328281	0.003586	1.060957
C127	C	-0.293546	-0.706208	0.341877
C128	C	0.039787	-0.372875	0.675211
C129	C	0.373121	-0.039541	1.008544
C130	C	-0.293539	-0.788187	0.341872
C131	C	0.039795	-0.454854	0.675205
C132	C	0.373128	-0.121521	1.008539
C133	C	-0.293563	-0.535337	0.341894
C134	C	0.039771	-0.202004	0.675227
C135	C	0.373104	0.131329	1.008560
C136	C	-0.293569	-0.453352	0.341900
C137	C	0.039764	-0.120019	0.675233
C138	C	0.373098	0.213314	1.008566
C139	C	-0.383240	-0.449087	0.446713
C140	C	-0.049906	-0.115754	0.780047
C141	C	0.283427	0.217579	1.113380
C142	C	-0.383233	-0.531067	0.446708
C143	C	-0.049899	-0.197733	0.780041
C144	C	0.283434	0.135600	1.113375
C145	C	-0.338392	-0.574189	0.394296
C146	C	-0.005059	-0.240856	0.727629
C147	C	0.328275	0.092478	1.060963
C148	C	-0.338422	-1.118333	0.189542
C149	C	-0.005088	-0.785000	0.522875
C150	C	0.328245	-0.451666	0.856209
C151	C	-0.338440	-1.118374	0.102293
C152	C	-0.005107	-0.785040	0.435626
C153	C	0.328227	-0.451707	0.768960
C154	C	-0.293494	-1.170589	0.724322
C155	C	0.039839	-0.837256	1.057655
C156	C	0.373172	-0.503922	1.390989
C157	C	-0.293512	-1.170627	0.806303
C158	C	0.039821	-0.837293	1.139637
C159	C	0.373154	-0.503960	1.472970
C160	C	-0.338394	-1.118273	0.849442
C161	C	-0.005061	-0.784939	1.182775
C162	C	0.328272	-0.451606	1.516109
C163	C	-0.383266	-1.065883	0.810596
C164	C	-0.049933	-0.732550	1.143929
C165	C	0.283400	-0.399217	1.477263
C166	C	-0.383251	-1.065850	0.728616
C167	C	-0.049918	-0.732517	1.061950
C168	C	0.283415	-0.399183	1.395283
C169	C	-0.383293	-1.065955	0.981467
C170	C	-0.049960	-0.732621	1.314800
C171	C	0.283374	-0.399288	1.648134
C172	C	-0.383307	-1.065987	1.063452
C173	C	-0.049974	-0.732653	1.396786
C174	C	0.283360	-0.399320	1.730119
C175	C	-0.293554	-1.170731	1.059154
C176	C	0.039779	-0.837398	1.392487
C177	C	0.373113	-0.504065	1.725821
C178	C	-0.293539	-1.170698	0.977174
C179	C	0.039794	-0.837365	1.310508
C180	C	0.373128	-0.504031	1.643841
C181	C	-0.338410	-1.118307	0.938334
C182	C	-0.005077	-0.784974	1.271667
C183	C	0.328256	-0.451641	1.605001
H184	H	-0.606482	-1.196636	0.315926
H185	H	-0.273149	-0.863303	0.649259
H186	H	0.060185	-0.529969	0.982593
Cl187	Cl	-0.439586	-0.647730	0.512578
Cl188	Cl	-0.106252	-0.314397	0.845911
Cl189	Cl	0.227081	0.018937	1.179245
H190	H	-0.606411	-1.014372	0.498051
H191	H	-0.273078	-0.681039	0.831384
H192	H	0.060256	-0.347706	1.164717
H193	H	-0.256989	-1.213325	0.942051
H194	H	0.076344	-0.879991	1.275384
H195	H	0.409677	-0.546658	1.608717
Cl196	Cl	-0.439587	-0.579915	0.512591
Cl197	Cl	-0.106253	-0.246582	0.845924
Cl198	Cl	0.227080	0.086752	1.179257
Cl199	Cl	-0.237063	-1.236405	0.670098
Cl200	Cl	0.096270	-0.903071	1.003431
Cl201	Cl	0.429603	-0.569738	1.336765
Cl202	Cl	-1.087229	-1.016982	0.495400
Cl203	Cl	-0.753895	-0.683649	0.828733
Cl204	Cl	-0.420562	-0.350316	1.162066
Cl205	Cl	-0.755796	-1.211808	0.300805
Cl206	Cl	-0.422462	-0.878474	0.634138
Cl207	Cl	-0.089129	-0.545141	0.967471
H208	H	-0.257055	-0.570445	0.299207
H209	H	0.076278	-0.237112	0.632541
H210	H	0.409612	0.096222	0.965874
H211	H	-0.257020	-1.213392	1.090782
H212	H	0.076313	-0.880059	1.424115
H213	H	0.409646	-0.546725	1.757449
Cl214	Cl	-0.810083	-1.206662	0.305848
Cl215	Cl	-0.476750	-0.873329	0.639182
Cl216	Cl	-0.143417	-0.539995	0.972515
Cl217	Cl	-0.921678	-1.024850	0.487549
Cl218	Cl	-0.588344	-0.691516	0.820882
Cl219	Cl	-0.255011	-0.358183	1.154216
Cl220	Cl	-0.237107	-1.236490	0.855128
Cl221	Cl	0.096226	-0.903157	1.188461
Cl222	Cl	0.429559	-0.569824	1.521795
Cl223	Cl	-0.237207	-0.404504	0.276026
Cl224	Cl	0.096127	-0.071171	0.609359
Cl225	Cl	0.429460	0.262162	0.942692
H226	H	-0.419788	-1.023192	0.696993
H227	H	-0.086454	-0.689859	1.030326
H228	H	0.246879	-0.356526	1.363660
Cl229	Cl	-0.237171	-0.842398	0.275984
Cl230	Cl	0.096162	-0.509065	0.609317
Cl231	Cl	0.429496	-0.175732	0.942651
Cl232	Cl	-0.439723	-1.000161	1.117683
Cl233	Cl	-0.106390	-0.666828	1.451016
Cl234	Cl	0.226943	-0.333494	1.784350
H235	H	-0.419835	-1.023295	0.949846
H236	H	-0.086501	-0.689962	1.283180
H237	H	0.246832	-0.356628	1.616513
H238	H	-0.419708	-0.815550	0.489364
H239	H	-0.086375	-0.482217	0.822697
H240	H	0.246958	-0.148883	1.156030
Cl241	Cl	-1.087310	-1.243726	0.268805
Cl242	Cl	-0.753976	-0.910393	0.602138
Cl243	Cl	-0.420643	-0.577060	0.935471
H244	H	-0.739485	-1.008053	0.504363
H245	H	-0.406151	-0.674720	0.837696
H246	H	-0.072818	-0.341386	1.171030
Cl247	Cl	-0.921754	-1.251599	0.260956
Cl248	Cl	-0.588420	-0.918265	0.594289
Cl249	Cl	-0.255087	-0.584932	0.927623
Cl250	Cl	-0.867393	-1.029960	0.482467
Cl251	Cl	-0.534060	-0.696627	0.815800
Cl252	Cl	-0.200727	-0.363294	1.149134
H253	H	-0.419753	-0.413973	0.489387
H254	H	-0.086419	-0.080640	0.822720
H255	H	0.246914	0.252694	1.156054
H256	H	-0.257047	-0.674564	0.299208
H257	H	0.076286	-0.341231	0.632541
H258	H	0.409619	-0.007897	0.965874
H259	H	-0.419813	-1.023259	0.845726
H260	H	-0.086480	-0.689926	1.179060
H261	H	0.246854	-0.356592	1.512393
