data_functionalizedCrystal
_audit_creation_method	'MofGen! by Chris Wilmer'
_symmetry_space_group_name_H-M	'P1'
_symmetry_Int_Tables_number	1
_symmetry_cell_setting	triclinic
loop_
_symmetry_equiv_pos_as_xyz
  x,y,z
_cell_length_a	14.853567
_cell_length_b	17.699083
_cell_length_c	16.176319
_cell_angle_alpha	89.992304
_cell_angle_beta	89.995559
_cell_angle_gamma	83.458973
loop_
_atom_site_label
_atom_site_type_symbol
_atom_site_fract_x
_atom_site_fract_y
_atom_site_fract_z
O1	O	1.196004	0.098817	-0.068691
O2	O	0.933502	0.110588	-0.068706
O3	O	1.072169	-0.005467	-0.068691
O4	O	1.057337	0.214872	-0.068706
O5	O	1.072150	-0.005475	0.068802
O6	O	0.933483	0.110581	0.068788
O7	O	1.195985	0.098809	0.068802
Cu8	Cu	1.064732	0.104694	0.081349
Cu9	Cu	1.064755	0.104703	-0.081253
O10	O	1.057318	0.214865	0.068787
C11	C	1.071628	-0.033670	0.000056
C12	C	1.070034	-0.117692	0.000056
C13	C	0.899905	0.110051	0.000039
C14	C	0.799828	0.108453	0.000034
C15	C	1.151429	-0.166101	0.000062
C16	C	1.149925	-0.245049	0.000054
C17	C	1.067026	-0.275585	0.000047
C18	C	0.985625	-0.227169	0.000039
C19	C	0.987129	-0.148223	0.000041
C20	C	0.979555	-0.545548	0.000032
C21	C	0.978057	-0.624499	0.000033
C22	C	1.142352	-0.642373	0.000046
C23	C	1.143856	-0.563428	0.000047
C24	C	1.062455	-0.515019	0.000035
C25	C	1.064087	-0.429415	0.000041
C26	C	1.065394	-0.361187	0.000047
C27	C	0.387572	0.032757	0.000058
C28	C	0.365784	0.170634	0.000047
C29	C	0.459812	0.172136	0.000045
C30	C	0.517725	0.103948	0.000047
C31	C	0.481610	0.034258	0.000053
C32	C	0.495934	0.241826	0.000031
C33	C	0.589968	0.243332	0.000027
C34	C	0.647883	0.175143	0.000036
C35	C	0.611762	0.105449	0.000042
C36	C	0.669675	0.037261	0.000045
C37	C	0.633556	-0.032433	0.000057
C38	C	0.539524	-0.033931	0.000061
C39	C	0.741915	0.176641	0.000031
C40	C	0.763712	0.038762	0.000039
C41	C	1.229582	0.099347	0.000055
C42	C	1.329659	0.100945	0.000055
C43	C	1.057859	0.243067	0.000039
C44	C	1.059453	0.327089	0.000033
N45	N	1.064723	0.104688	0.195714
N46	N	1.064771	0.104704	-0.195618
C47	C	1.126144	0.053319	0.238985
C48	C	1.126148	0.053319	0.325532
C49	C	1.064736	0.104690	0.368807
C50	C	1.003309	0.156061	0.325530
C51	C	1.003301	0.156058	0.238984
C52	C	1.003340	0.156075	0.674558
C53	C	1.003354	0.156076	0.761110
C54	C	1.126187	0.053336	0.761106
C55	C	1.126179	0.053333	0.674560
C56	C	1.064749	0.104701	0.631291
C57	C	1.064744	0.104700	0.537447
C58	C	1.064745	0.104695	0.462649
H59	H	1.218935	-0.141246	0.000073
H60	H	0.953301	0.197887	0.360769
H61	H	1.176204	0.011507	0.796345
O62	O	0.352598	-0.034988	-0.000043
C63	C	0.342411	-0.153267	-0.071290
C64	C	0.382097	-0.076582	-0.071268
H65	H	0.366230	-0.186911	-0.128878
H66	H	0.366302	-0.187024	-0.013788
H67	H	0.265258	-0.142612	-0.071244
H68	H	0.459251	-0.087168	-0.071343
H69	H	0.358135	-0.042850	-0.128765
H70	H	1.216206	-0.284461	0.000061
H71	H	0.953285	0.197886	0.203754
H72	H	0.448775	0.297341	0.000020
O73	O	1.224464	-0.533892	0.000017
C74	C	1.387269	-0.559955	0.000072
C75	C	1.296044	-0.593503	0.000091
H76	H	1.445166	-0.608134	0.000149
H77	H	1.392148	-0.523462	-0.057482
H78	H	1.392024	-0.523421	0.057599
H79	H	1.291228	-0.630071	-0.057397
H80	H	1.291204	-0.629952	0.057683
H81	H	0.953342	0.197911	0.796343
O82	O	0.943763	0.206084	0.632575
C83	C	0.890607	0.337611	0.606137
C84	C	0.958144	0.281055	0.653720
H85	H	0.902197	0.398237	0.623228
H86	H	0.901135	0.328859	0.536835
H87	H	0.818436	0.327599	0.623164
H88	H	1.030341	0.291033	0.636762
H89	H	0.947536	0.289821	0.723010
H90	H	0.920849	-0.108808	0.000036
H91	H	1.208632	-0.681798	0.000052
O92	O	1.185868	0.003357	0.632652
C93	C	1.307738	-0.098525	0.641785
C94	C	1.240177	-0.041977	0.689346
H95	H	1.351677	-0.135181	0.687601
H96	H	1.268943	-0.136448	0.601304
H97	H	1.352654	-0.065766	0.601229
H98	H	1.195244	-0.074674	0.729947
H99	H	1.279029	-0.004054	0.729775
O100	O	0.624937	0.311079	-0.000091
C101	C	0.635111	0.429368	-0.071358
C102	C	0.595435	0.352678	-0.071319
H103	H	0.611290	0.463016	-0.128949
H104	H	0.611214	0.463117	-0.013859
H105	H	0.712265	0.418720	-0.071318
H106	H	0.518280	0.363257	-0.071388
H107	H	0.619403	0.318954	-0.128813
O108	O	0.897445	-0.654037	-0.000017
C109	C	0.734639	-0.627982	0.000004
C110	C	0.825861	-0.594429	0.000041
H111	H	0.676739	-0.579805	0.000069
H112	H	0.729784	-0.664464	-0.057550
H113	H	0.729864	-0.664527	0.057531
H114	H	0.830697	-0.557849	-0.057447
H115	H	0.830676	-0.557990	0.057634
H116	H	0.771318	0.233385	0.000023
H117	H	0.918126	-0.252037	0.000028
O118	O	1.185694	0.003346	0.367598
C119	C	1.205150	-0.099966	0.465354
C120	C	1.137611	-0.043423	0.417756
H121	H	1.166301	-0.137782	0.505931
H122	H	1.249031	-0.136731	0.419590
H123	H	1.250129	-0.067200	0.505823
H124	H	1.092572	-0.076127	0.377286
H125	H	1.093794	-0.006658	0.463564
H126	H	0.318626	0.226149	0.000038
O127	O	1.185835	0.003343	0.197080
C128	C	1.307706	-0.098537	0.206221
C129	C	1.240141	-0.041988	0.253777
H130	H	1.351643	-0.135191	0.252040
H131	H	1.268914	-0.136462	0.165738
H132	H	1.352624	-0.065778	0.165666
H133	H	1.195206	-0.074685	0.294377
H134	H	1.278990	-0.004064	0.294207
O135	O	0.900508	-0.498502	-0.000121
C136	C	0.806872	-0.398966	-0.071336
C137	C	0.896423	-0.452216	-0.071275
H138	H	0.803549	-0.361519	-0.128849
H139	H	0.747335	-0.434320	-0.071391
H140	H	0.803466	-0.361598	-0.013770
H141	H	0.899918	-0.489595	-0.128831
H142	H	0.955918	-0.416816	-0.071177
O143	O	0.819838	-0.027548	0.000004
C144	C	0.831525	-0.164463	0.000068
C145	C	0.767861	-0.089425	0.000089
H146	H	0.789528	-0.214510	0.000155
H147	H	0.876074	-0.167259	-0.057491
H148	H	0.876115	-0.167168	0.057591
H149	H	0.723215	-0.086670	-0.057394
H150	H	0.723375	-0.086661	0.057686
H151	H	0.510108	-0.090673	0.000091
O152	O	0.689780	-0.098689	-0.000090
C153	C	0.737153	-0.216087	-0.071291
C154	C	0.673438	-0.141077	-0.071236
H155	H	0.723949	-0.250386	-0.128798
H156	H	0.810579	-0.203081	-0.071356
H157	H	0.724055	-0.250351	-0.013719
H158	H	0.686455	-0.106777	-0.128798
H159	H	0.600033	-0.154137	-0.071128
