data_functionalizedCrystal
_audit_creation_method	'MofGen! by Chris Wilmer'
_symmetry_space_group_name_H-M	'P1'
_symmetry_Int_Tables_number	1
_symmetry_cell_setting	triclinic
loop_
_symmetry_equiv_pos_as_xyz
  x,y,z
_cell_length_a	12.759395
_cell_length_b	25.639240
_cell_length_c	25.639234
_cell_angle_alpha	90.028287
_cell_angle_beta	90.009129
_cell_angle_gamma	90.033519
loop_
_atom_site_label
_atom_site_type_symbol
_atom_site_fract_x
_atom_site_fract_y
_atom_site_fract_z
Zn1	Zn	1.606013	-0.208192	0.295568
Zn2	Zn	1.605885	-0.295614	0.208121
Zn3	Zn	1.430348	-0.208196	0.208148
Zn4	Zn	1.430249	-0.295599	0.295527
O5	O	1.518124	-0.251900	0.251841
O6	O	1.753017	-0.219793	0.283974
O7	O	1.582588	-0.284026	0.134960
O8	O	1.453746	-0.135030	0.219773
O9	O	1.752923	-0.284022	0.219727
O10	O	1.582806	-0.135027	0.284000
O11	O	1.453621	-0.219800	0.134979
O12	O	1.283314	-0.219785	0.219733
O13	O	1.453576	-0.283996	0.368698
O14	O	1.283241	-0.284000	0.283931
O15	O	1.582710	-0.219778	0.368728
O16	O	1.582491	-0.368777	0.219688
O17	O	1.453452	-0.368766	0.283905
C18	C	1.245156	-0.251892	0.251831
C19	C	1.128380	-0.251901	0.251839
C20	C	0.909043	-0.185139	0.318864
C21	C	0.963958	-0.151747	0.352362
C22	C	1.073680	-0.151738	0.352353
C23	C	1.128489	-0.185126	0.318844
C24	C	1.073573	-0.218518	0.285346
C25	C	0.963849	-0.218522	0.285357
C26	C	1.073464	-0.285293	0.218341
C27	C	0.963743	-0.285300	0.218347
C28	C	1.128273	-0.318681	0.184832
C29	C	1.073358	-0.352071	0.151330
C30	C	0.963630	-0.352078	0.151340
C31	C	0.908828	-0.318692	0.184849
C32	C	1.517975	-0.387743	0.251800
C33	C	1.518008	-0.445857	0.251800
C34	C	1.585359	-0.806180	0.285344
C35	C	1.585390	-0.860784	0.285355
O36	O	1.642478	-0.888987	0.313833
N37	N	1.518270	-0.888139	0.251892
C38	C	1.451106	-0.860887	0.218419
O39	O	1.394017	-0.889169	0.189957
C40	C	1.451071	-0.806284	0.218412
C41	C	1.518203	-0.778931	0.251873
C42	C	1.652485	-0.778827	0.318804
C43	C	1.652455	-0.724227	0.318792
C44	C	1.585299	-0.696979	0.285321
C45	C	1.518173	-0.724331	0.251862
C46	C	1.383903	-0.779033	0.184942
C47	C	1.383873	-0.724426	0.184938
C48	C	1.451005	-0.697073	0.218400
C49	C	1.450987	-0.642482	0.218380
N50	N	1.518108	-0.615127	0.251843
C51	C	1.585264	-0.642375	0.285314
C52	C	1.451185	-0.975558	0.218438
C53	C	1.451225	-1.030160	0.218443
C54	C	1.585507	-1.030053	0.285380
C55	C	1.585472	-0.975450	0.285372
C56	C	1.518305	-0.948203	0.251902
C57	C	1.585197	-0.527710	0.285287
C58	C	1.585164	-0.473105	0.285271
C59	C	1.450878	-0.473216	0.218337
C60	C	1.450914	-0.527817	0.218350
C61	C	1.518077	-0.555063	0.251830
O62	O	1.393926	-0.614245	0.189917
O63	O	1.642333	-0.614087	0.313776
C64	C	1.792157	-0.251909	0.251852
C65	C	1.908934	-0.251912	0.251856
C66	C	1.518146	-0.251885	0.388214
C67	C	1.518156	-0.251879	0.446328
C68	C	1.518301	-0.115527	0.251894
C69	C	1.518377	-0.057413	0.251916
C70	C	1.518162	-0.251877	0.115999
C71	C	1.518356	-0.251736	0.057885
C72	C	1.450986	-0.285251	0.697501
C73	C	1.450968	-0.285263	0.642896
O74	O	1.393757	-0.313690	0.614642
N75	N	1.518196	-0.251837	0.615602
C76	C	1.585439	-0.218393	0.642915
O77	O	1.642620	-0.189961	0.614686
C78	C	1.585452	-0.218379	0.697519
C79	C	1.518227	-0.251811	0.724810
C80	C	1.383765	-0.318681	0.724792
C81	C	1.383786	-0.318670	0.779392
C82	C	1.451026	-0.285229	0.806702
C83	C	1.518247	-0.251800	0.779410
C84	C	1.652689	-0.184932	0.724831
C85	C	1.652695	-0.184921	0.779438
C86	C	1.585470	-0.218353	0.806729
C87	C	1.585507	-0.218348	0.861320
N88	N	1.518279	-0.251775	0.888614
C89	C	1.451038	-0.285215	0.861305
C90	C	1.585407	-0.218424	0.528245
C91	C	1.585401	-0.218440	0.473642
C92	C	1.450927	-0.285310	0.473627
C93	C	1.450940	-0.285296	0.528230
C94	C	1.518179	-0.251850	0.555539
C95	C	1.451086	-0.285189	0.975970
C96	C	1.451115	-0.285177	1.030576
C97	C	1.585585	-0.218305	1.030586
C98	C	1.585560	-0.218319	0.975986
C99	C	1.518302	-0.251763	0.948679
O100	O	1.642686	-0.189934	0.889610
O101	O	1.393858	-0.313636	0.889541
H102	H	1.639835	-0.450836	0.312520
H103	H	1.396258	-0.550088	0.191099
H104	H	0.819702	-0.185132	0.318864
H105	H	1.707432	-0.157708	0.702620
H106	H	1.217614	-0.318674	0.184830
H107	H	0.919321	-0.124564	0.379646
Br108	Br	1.277398	-0.185122	0.318841
Br109	Br	1.359744	-0.436226	0.172913
H110	H	1.639880	-0.549887	0.312553
H111	H	1.707117	-0.701960	0.346041
H112	H	1.329237	-0.801294	0.157694
Br113	Br	1.676657	-0.173075	0.436611
Br114	Br	1.743632	-0.815797	0.364238
Br115	Br	1.360026	-0.938585	0.173007
H116	H	1.329041	-0.345892	0.801608
Br117	Br	1.676839	-0.172925	1.067659
H118	H	1.329004	-0.345912	0.702562
H119	H	1.329174	-0.702244	0.157683
Br120	Br	0.889111	-0.397405	0.105882
Br121	Br	1.148212	-0.106424	0.397818
Br122	Br	1.359674	-0.330696	0.436554
H123	H	0.819486	-0.318688	0.184854
H124	H	1.640169	-0.191189	0.550476
H125	H	1.707446	-0.157682	0.801669
Br126	Br	1.359881	-0.330555	1.067611
H127	H	1.117992	-0.379255	0.124052
H128	H	1.640136	-0.953183	0.312620
H129	H	1.396309	-0.312418	0.953744
H130	H	1.640307	-0.191099	0.953764
Br131	Br	1.360131	-1.067274	0.173020
Br132	Br	1.676649	-1.067043	0.330805
Br133	Br	1.359702	-0.330670	0.565263
