data_functionalizedCrystal
_audit_creation_method	'MofGen! by Chris Wilmer'
_symmetry_space_group_name_H-M	'P1'
_symmetry_Int_Tables_number	1
_symmetry_cell_setting	triclinic
loop_
_symmetry_equiv_pos_as_xyz
  x,y,z
_cell_length_a	16.625546
_cell_length_b	13.897449
_cell_length_c	13.897441
_cell_angle_alpha	89.978743
_cell_angle_beta	89.967525
_cell_angle_gamma	90.023294
loop_
_atom_site_label
_atom_site_type_symbol
_atom_site_fract_x
_atom_site_fract_y
_atom_site_fract_z
Zn1	Zn	-0.320966	1.474650	-0.545431
Zn2	Zn	-0.070966	1.724650	-0.295431
Zn3	Zn	0.179034	1.974650	-0.045431
Zn4	Zn	0.429034	2.224650	0.204569
Zn5	Zn	-0.455814	1.474537	-0.384124
Zn6	Zn	-0.205814	1.724537	-0.134124
Zn7	Zn	0.044186	1.974537	0.115876
Zn8	Zn	0.294186	2.224537	0.365876
Zn9	Zn	-0.321001	1.313345	-0.384141
Zn10	Zn	-0.071001	1.563345	-0.134141
Zn11	Zn	0.178999	1.813345	0.115859
Zn12	Zn	0.428999	2.063345	0.365859
Zn13	Zn	-0.455762	1.313308	-0.545369
Zn14	Zn	-0.205762	1.563308	-0.295369
Zn15	Zn	0.044238	1.813308	-0.045369
Zn16	Zn	0.294238	2.063308	0.204631
O17	O	-0.388386	1.393960	-0.464766
O18	O	-0.138386	1.643960	-0.214766
O19	O	0.111614	1.893960	0.035234
O20	O	0.361614	2.143960	0.285234
O21	O	-0.338861	1.609617	-0.524051
O22	O	-0.088861	1.859617	-0.274051
O23	O	0.161139	2.109617	-0.024051
O24	O	0.411139	2.359617	0.225949
O25	O	-0.437967	1.453123	-0.249145
O26	O	-0.187967	1.703123	0.000855
O27	O	0.062033	1.953123	0.250855
O28	O	0.312033	2.203123	0.500855
O29	O	-0.208164	1.334806	-0.405570
O30	O	0.041836	1.584806	-0.155570
O31	O	0.291836	1.834806	0.094430
O32	O	0.541836	2.084806	0.344430
O33	O	-0.437933	1.609534	-0.405540
O34	O	-0.187933	1.859534	-0.155540
O35	O	0.062067	2.109534	0.094460
O36	O	0.312067	2.359534	0.344460
O37	O	-0.208138	1.453316	-0.524068
O38	O	0.041862	1.703316	-0.274068
O39	O	0.291862	1.953316	-0.024068
O40	O	0.541862	2.203316	0.225932
O41	O	-0.338920	1.334696	-0.249157
O42	O	-0.088920	1.584696	0.000843
O43	O	0.161080	1.834696	0.250843
O44	O	0.411080	2.084696	0.500843
O45	O	-0.338870	1.178359	-0.405510
O46	O	-0.088870	1.428359	-0.155510
O47	O	0.161130	1.678359	0.094490
O48	O	0.411130	1.928359	0.344490
O49	O	-0.437845	1.334742	-0.680359
O50	O	-0.187845	1.584742	-0.430359
O51	O	0.062155	1.834742	-0.180359
O52	O	0.312155	2.084742	0.069641
O53	O	-0.437879	1.178331	-0.523963
O54	O	-0.187879	1.428331	-0.273963
O55	O	0.062121	1.678331	-0.023963
O56	O	0.312121	1.928331	0.226037
O57	O	-0.338811	1.453280	-0.680404
O58	O	-0.088811	1.703280	-0.430404
O59	O	0.161189	1.953280	-0.180404
O60	O	0.411189	2.203280	0.069596
O61	O	-0.568639	1.453086	-0.405480
O62	O	-0.318639	1.703086	-0.155480
O63	O	-0.068639	1.953086	0.094520
O64	O	0.181361	2.203086	0.344520
O65	O	-0.568601	1.334632	-0.523946
O66	O	-0.318601	1.584632	-0.273946
O67	O	-0.068601	1.834632	-0.023946
O68	O	0.181399	2.084632	0.226054
C69	C	-0.388373	1.143346	-0.464733
C70	C	-0.138373	1.393346	-0.214733
C71	C	0.111627	1.643346	0.035267
C72	C	0.361627	1.893346	0.285267
C73	C	-0.388387	1.036132	-0.464741
C74	C	-0.138387	1.286132	-0.214741
C75	C	0.111613	1.536132	0.035259
C76	C	0.361613	1.786132	0.285259
C77	C	-0.388390	0.949062	-0.464757
C78	C	-0.138390	1.199062	-0.214757
C79	C	0.111610	1.449062	0.035243
C80	C	0.361610	1.699062	0.285243
C81	C	-0.388396	0.839830	-0.464787
C82	C	-0.138396	1.089830	-0.214787
C83	C	0.111604	1.339830	0.035213
C84	C	0.361604	1.589830	0.285213
C85	C	-0.597877	1.393869	-0.464726
C86	C	-0.347877	1.643869	-0.214726
C87	C	-0.097877	1.893869	0.035274
C88	C	0.152123	2.143869	0.285274
C89	C	-0.687498	1.393918	-0.464741
C90	C	-0.437498	1.643918	-0.214741
C91	C	-0.187498	1.893918	0.035259
C92	C	0.062502	2.143918	0.285259
C93	C	-1.015673	1.394086	-0.464841
C94	C	-0.765673	1.644086	-0.214841
C95	C	-0.515673	1.894086	0.035159
C96	C	-0.265673	2.144086	0.285159
C97	C	-0.924365	1.394036	-0.464816
C98	C	-0.674365	1.644036	-0.214816
C99	C	-0.424365	1.894036	0.035184
C100	C	-0.174365	2.144036	0.285184
C101	C	-0.851588	1.394001	-0.464791
C102	C	-0.601588	1.644001	-0.214791
C103	C	-0.351588	1.894001	0.035209
C104	C	-0.101588	2.144001	0.285209
C105	C	-0.760274	1.393953	-0.464766
C106	C	-0.510274	1.643953	-0.214766
C107	C	-0.260274	1.893953	0.035234
C108	C	-0.010274	2.143953	0.285234
C109	C	-0.178077	1.394078	-0.464828
C110	C	0.071923	1.644078	-0.214828
C111	C	0.321923	1.894078	0.035172
C112	C	0.571923	2.144078	0.285172
C113	C	-0.088456	1.394128	-0.464854
C114	C	0.161544	1.644128	-0.214854
C115	C	0.411544	1.894128	0.035146
C116	C	0.661544	2.144128	0.285146
C117	C	-0.388318	1.394019	-0.716359
C118	C	-0.138318	1.644019	-0.466359
C119	C	0.111682	1.894019	-0.216359
C120	C	0.361682	2.144019	0.033641
C121	C	-0.388289	1.394044	-0.823573
C122	C	-0.138289	1.644044	-0.573573
C123	C	0.111711	1.894044	-0.323573
C124	C	0.361711	2.144044	-0.073573
C125	C	-0.388399	1.645553	-0.464801
C126	C	-0.138399	1.895553	-0.214801
C127	C	0.111601	2.145553	0.035199
C128	C	0.361601	2.395553	0.285199
C129	C	-0.388404	1.752767	-0.464815
C130	C	-0.138404	2.002767	-0.214815
C131	C	0.111596	2.252767	0.035185
C132	C	0.361596	2.502767	0.285185
C133	C	-0.388266	1.394064	-0.910643
C134	C	-0.138266	1.644064	-0.660643
C135	C	0.111734	1.894064	-0.410643
C136	C	0.361734	2.144064	-0.160643
C137	C	-0.388230	1.394092	-1.019876
C138	C	-0.138230	1.644092	-0.769876
C139	C	0.111770	1.894092	-0.519876
C140	C	0.361770	2.144092	-0.269876
C141	C	-0.388395	1.393957	-0.214152
C142	C	-0.138395	1.643957	0.035848
C143	C	0.111605	1.893957	0.285848
C144	C	0.361605	2.143957	0.535848
C145	C	-0.388197	1.394118	-0.106939
C146	C	-0.138197	1.644118	0.143061
C147	C	0.111803	1.894118	0.393061
C148	C	0.361803	2.144118	0.643061
