data_functionalizedCrystal
_audit_creation_method	'MofGen! by Chris Wilmer'
_symmetry_space_group_name_H-M	'P1'
_symmetry_Int_Tables_number	1
_symmetry_cell_setting	triclinic
loop_
_symmetry_equiv_pos_as_xyz
  x,y,z
_cell_length_a	16.109301
_cell_length_b	16.109301
_cell_length_c	15.186229
_cell_angle_alpha	89.999362
_cell_angle_beta	89.994833
_cell_angle_gamma	83.461481
loop_
_atom_site_label
_atom_site_type_symbol
_atom_site_fract_x
_atom_site_fract_y
_atom_site_fract_z
O1	O	0.106866	1.103131	-0.073176
O2	O	0.120165	0.861069	-0.073190
O3	O	-0.007515	0.988749	-0.073174
O4	O	0.234547	0.975450	-0.073192
O5	O	-0.007517	0.988741	0.073284
O6	O	0.120164	0.861060	0.073267
O7	O	0.106864	1.103122	0.073282
Zn8	Zn	0.113514	0.982090	0.096528
Zn9	Zn	0.113516	0.982101	-0.096436
O10	O	0.234545	0.975441	0.073265
C11	C	0.119626	0.830090	0.000037
C12	C	0.118011	0.737794	0.000032
C13	C	-0.038491	0.988206	0.000056
C14	C	-0.130786	0.986591	0.000057
C15	C	0.190018	0.515522	0.000036
C16	C	0.188494	0.428801	0.000042
C17	C	0.037006	0.448676	0.000050
C18	C	0.038530	0.535394	0.000051
C19	C	0.115039	0.568815	0.000039
C20	C	0.111990	0.395376	0.000045
C21	C	0.110337	0.301350	0.000051
C22	C	0.116693	0.662847	0.000035
C23	C	-0.353059	1.058599	0.000047
C24	C	-0.439779	1.057075	0.000040
C25	C	-0.419905	0.905586	0.000034
C26	C	-0.333186	0.907111	0.000035
C27	C	-0.299766	0.983620	0.000046
C28	C	-0.473205	0.980571	0.000038
C29	C	-0.567231	0.978918	0.000030
C30	C	-0.205734	0.985273	0.000052
C31	C	0.265521	0.975984	0.000034
C32	C	0.357816	0.977600	0.000027
N33	N	0.113511	0.982088	0.228220
C34	C	0.107404	1.134101	0.000053
C35	C	0.109019	1.226397	0.000052
N36	N	0.113512	0.982109	-0.228129
C37	C	0.056994	1.038644	0.453950
C38	C	0.056992	1.038647	0.546140
C39	C	0.170032	0.925547	0.546135
C40	C	0.170030	0.925541	0.453947
C41	C	0.113511	0.982094	0.407857
C42	C	0.113512	0.982103	0.592235
C43	C	0.113510	0.982105	0.692191
C44	C	0.113512	0.982091	0.307894
H45	H	0.252317	0.542730	0.000034
C46	C	-0.112581	0.477032	0.000058
C47	C	-0.047091	0.411938	0.000052
H48	H	-0.164499	0.454351	0.000062
H49	H	-0.108831	0.510442	-0.051010
H50	H	-0.108833	0.510440	0.051136
H51	H	-0.050835	0.378533	-0.051030
H52	H	-0.050842	0.378513	0.051125
H53	H	-0.022530	0.578788	0.000056
H54	H	-0.483168	1.118130	0.000039
H55	H	0.216053	0.879487	0.416415
H56	H	-0.289792	0.846050	0.000032
C57	C	0.338385	0.417873	0.000021
C58	C	0.270914	0.370221	0.000032
H59	H	0.389269	0.381706	0.000010
H60	H	0.335829	0.452108	0.051090
H61	H	0.335821	0.452112	-0.051056
H62	H	0.273474	0.335987	0.051113
H63	H	0.273471	0.335972	-0.051042
C64	C	0.218806	0.781611	0.574534
C65	C	0.232156	0.863389	0.596803
H66	H	0.257157	0.743239	0.605820
H67	H	0.226898	0.773517	0.513042
H68	H	0.163312	0.772613	0.589654
H69	H	0.287648	0.872389	0.581678
H70	H	0.224070	0.871486	0.658309
C71	C	-0.056188	1.056661	0.350339
C72	C	-0.005175	1.100779	0.403309
H73	H	-0.094578	1.095016	0.319081
H74	H	-0.086059	1.022049	0.386327
H75	H	-0.022520	1.023006	0.309676
H76	H	-0.038842	1.134429	0.443977
H77	H	0.024698	1.135405	0.367318
H78	H	0.010969	1.084694	0.583667
H79	H	-0.325851	1.120897	0.000054
C80	C	-0.544015	0.835984	0.000041
C81	C	-0.456644	0.821490	0.000035
H82	H	-0.566692	0.784064	0.000050
H83	H	-0.562301	0.866848	-0.051029
H84	H	-0.562303	0.866857	0.051117
H85	H	-0.438355	0.790622	-0.051045
H86	H	-0.438350	0.790613	0.051110
