data_functionalizedCrystal
_audit_creation_method	'MofGen! by Chris Wilmer'
_symmetry_space_group_name_H-M	'P1'
_symmetry_Int_Tables_number	1
_symmetry_cell_setting	triclinic
loop_
_symmetry_equiv_pos_as_xyz
  x,y,z
_cell_length_a	15.298114
_cell_length_b	12.645330
_cell_length_c	15.299447
_cell_angle_alpha	80.300189
_cell_angle_beta	88.376804
_cell_angle_gamma	80.354983
loop_
_atom_site_label
_atom_site_type_symbol
_atom_site_fract_x
_atom_site_fract_y
_atom_site_fract_z
Zn1	Zn	1.424612	-0.657911	-0.263119
Zn2	Zn	1.399167	-0.859817	-0.116677
Zn3	Zn	1.252809	-0.647674	-0.142059
Zn4	Zn	1.278134	-0.800219	-0.288481
O5	O	1.338681	-0.741405	-0.202584
O6	O	1.543790	-0.713921	-0.222457
O7	O	1.358505	-0.852333	0.002520
O8	O	1.275649	-0.500693	-0.158127
O9	O	1.525095	-0.862260	-0.114866
O10	O	1.401872	-0.508214	-0.247069
O11	O	1.250977	-0.696473	-0.016128
O12	O	1.133616	-0.638682	-0.182719
O13	O	1.318812	-0.760684	-0.407681
O14	O	1.152222	-0.750757	-0.290294
O15	O	1.426429	-0.656131	-0.389048
O16	O	1.383062	-1.000250	-0.139458
O17	O	1.294139	-0.956463	-0.265682
C18	C	1.111142	-0.687142	-0.242013
C19	C	1.013804	-0.663950	-0.258902
C20	C	0.700427	-0.907133	-0.082092
C21	C	0.791880	-0.928923	-0.066218
C22	C	0.847366	-0.862682	-0.114388
C23	C	0.811389	-0.774647	-0.178434
C24	C	0.719926	-0.752850	-0.194306
C25	C	0.866864	-0.708398	-0.226601
C26	C	0.830888	-0.620363	-0.290648
C27	C	0.739434	-0.598571	-0.306517
C28	C	0.683948	-0.664811	-0.258347
C29	C	0.958327	-0.730196	-0.210730
C30	C	0.977826	-0.575912	-0.322943
C31	C	0.886373	-0.554122	-0.338818
C32	C	1.338615	-1.016822	-0.202583
C33	C	1.338672	-1.134660	-0.202598
C34	C	1.283045	-1.274754	-0.282165
C35	C	1.282663	-1.152149	-0.282007
C36	C	1.297710	-1.188828	-0.114621
C37	C	1.297370	-1.311259	-0.115105
C38	C	1.435541	-1.319884	-0.210187
C39	C	1.435322	-1.196802	-0.212304
C40	C	1.567108	-0.795881	-0.163001
C41	C	1.664450	-0.819095	-0.146133
C42	C	1.378283	-0.702901	-0.431032
C43	C	1.395160	-0.686493	-0.528383
C44	C	1.338774	-0.464916	-0.202600
C45	C	1.338814	-0.347092	-0.202607
C46	C	1.218612	-0.857985	-0.841605
C47	C	1.202748	-0.873394	-0.750140
C48	C	1.250849	-0.826670	-0.694697
C49	C	1.314818	-0.764535	-0.730726
C50	C	1.330680	-0.749118	-0.822201
C51	C	1.362917	-0.717803	-0.675293
C52	C	1.426886	-0.655667	-0.711323
C53	C	1.442745	-0.640254	-0.802788
C54	C	1.394643	-0.686977	-0.858232
C55	C	1.347055	-0.733220	-0.583818
C56	C	1.459123	-0.624353	-0.564414
C57	C	1.474988	-0.608944	-0.655879
C58	C	1.299282	-0.779695	0.024984
C59	C	1.282576	-0.795845	0.122364
H60	H	0.821165	-1.000600	-0.014069
H61	H	1.407560	-0.674439	-0.932710
H62	H	1.494827	-0.589651	-0.832122
N63	N	1.169470	-0.905670	-0.898250
N64	N	1.122536	-0.846432	-0.958960
H65	H	1.087824	-0.880105	-0.998972
H66	H	1.527072	-0.558352	-0.685228
N67	N	1.508279	-0.576625	-0.507801
N68	N	1.565387	-0.521146	-0.539980
H69	H	1.600101	-0.487439	-0.499994
H70	H	0.987610	-0.801875	-0.158583
H71	H	1.335361	-1.360926	-0.054669
N72	N	1.137404	-0.936857	-0.713354
N73	N	1.094462	-0.978568	-0.762862
H74	H	1.048309	-1.023394	-0.736882
H75	H	0.655243	-0.961051	-0.042873
H76	H	1.227170	-1.145671	-0.105851
H77	H	0.921830	-0.880429	-0.101459
H78	H	1.226186	-1.327175	-0.106819
N79	N	0.590525	-0.642565	-0.274541
N80	N	0.537855	-0.622069	-0.213332
H81	H	0.471872	-0.606362	-0.224764
N82	N	1.317358	-1.301723	-0.364973
N83	N	1.344380	-1.230962	-0.421500
H84	H	1.368610	-1.249997	-0.479992
H85	H	0.710144	-0.526880	-0.358662
H86	H	1.211276	-1.109176	-0.278252
N87	N	1.491813	-1.183869	-0.143313
N88	N	1.559244	-1.140830	-0.162270
H89	H	1.599138	-1.131698	-0.113539
H90	H	0.857068	-0.482442	-0.390965
N91	N	1.487900	-1.381720	-0.137243
N92	N	1.454240	-1.445581	-0.079880
H93	H	1.491210	-1.489256	-0.028361
H94	H	1.336335	-1.179759	-0.054429
N95	N	1.234633	-0.842415	-0.601270
N96	N	1.177517	-0.897895	-0.569112
H97	H	1.166063	-0.909021	-0.503126
N98	N	1.034490	-0.508228	-0.372141
N99	N	1.080201	-0.457958	-0.332560
H100	H	1.120223	-0.410157	-0.367301
N101	N	1.317147	-1.104552	-0.364466
N102	N	1.394263	-1.139118	-0.387490
H103	H	1.418618	-1.105509	-0.445731
N104	N	1.194077	-1.296382	-0.277610
N105	N	1.171565	-1.364839	-0.216025
H106	H	1.108731	-1.380119	-0.212805
H107	H	1.465922	-1.160715	-0.276971
N108	N	1.478511	-1.351441	-0.288225
N109	N	1.489422	-1.448727	-0.298641
H110	H	1.519763	-1.471015	-0.353759
N111	N	1.281708	-0.796672	-0.547022
N112	N	1.202672	-0.768637	-0.571247
H113	H	1.156516	-0.813453	-0.545261
