data_functionalizedCrystal
_audit_creation_method	'MofGen! by Chris Wilmer'
_symmetry_space_group_name_H-M	'P1'
_symmetry_Int_Tables_number	1
_symmetry_cell_setting	triclinic
loop_
_symmetry_equiv_pos_as_xyz
  x,y,z
_cell_length_a	19.805407
_cell_length_b	19.805405
_cell_length_c	19.805407
_cell_angle_alpha	90.015038
_cell_angle_beta	90.007450
_cell_angle_gamma	90.023727
loop_
_atom_site_label
_atom_site_type_symbol
_atom_site_fract_x
_atom_site_fract_y
_atom_site_fract_z
Zn1	Zn	1.034666	-0.269623	0.382679
Zn2	Zn	1.534666	0.230377	0.882679
Zn3	Zn	1.034602	-0.382783	0.269488
Zn4	Zn	1.534602	0.117217	0.769488
Zn5	Zn	0.921502	-0.269608	0.269507
Zn6	Zn	1.421502	0.230392	0.769507
Zn7	Zn	0.921445	-0.382770	0.382638
Zn8	Zn	1.421445	0.117230	0.882638
O9	O	0.978054	-0.326196	0.326078
O10	O	1.478054	0.173804	0.826078
O11	O	1.129374	-0.284645	0.367673
O12	O	1.629374	0.215355	0.867673
O13	O	1.019596	-0.367769	0.174774
O14	O	1.519596	0.132231	0.674774
O15	O	0.936564	-0.174893	0.284546
O16	O	1.436564	0.325107	0.784546
O17	O	1.129327	-0.367784	0.284512
O18	O	1.629327	0.132216	0.784512
O19	O	1.019706	-0.174904	0.367692
O20	O	1.519706	0.325096	0.867692
O21	O	0.936501	-0.284620	0.174788
O22	O	1.436501	0.215380	0.674788
O23	O	0.826777	-0.284607	0.284505
O24	O	1.326777	0.215393	0.784505
O25	O	0.936467	-0.367761	0.477360
O26	O	1.436467	0.132239	0.977360
O27	O	0.826736	-0.367747	0.367622
O28	O	1.326736	0.132253	0.867622
O29	O	1.019651	-0.284633	0.477390
O30	O	1.519651	0.215367	0.977390
O31	O	1.019540	-0.477498	0.284472
O32	O	1.519540	0.022502	0.784472
O33	O	0.936404	-0.477488	0.367603
O34	O	1.436404	0.022512	0.867603
C35	C	0.802198	-0.326175	0.326062
C36	C	1.302198	0.173825	0.826062
C37	C	0.726966	-0.326182	0.326071
C38	C	1.226966	0.173818	0.826071
C39	C	0.691647	-0.282968	0.369439
C40	C	1.191647	0.217032	0.869439
C41	C	0.620958	-0.282972	0.369441
C42	C	1.120958	0.217028	0.869441
C43	C	0.585590	-0.326193	0.326079
C44	C	1.085590	0.173807	0.826079
C45	C	0.620914	-0.369408	0.282706
C46	C	1.120914	0.130592	0.782706
C47	C	0.691601	-0.369401	0.282701
C48	C	1.191601	0.130599	0.782701
C49	C	0.335840	-0.369439	0.282727
C50	C	0.835840	0.130561	0.782727
C51	C	0.265148	-0.369444	0.282737
C52	C	0.765148	0.130556	0.782737
C53	C	0.265198	-0.283010	0.369468
C54	C	0.765198	0.216990	0.869468
C55	C	0.335885	-0.283002	0.369462
C56	C	0.835885	0.216998	0.869462
C57	C	0.371203	-0.326215	0.326087
C58	C	0.871203	0.173785	0.826087
C59	C	0.447851	-0.326210	0.326084
C60	C	0.947851	0.173790	0.826084
C61	C	0.508943	-0.326202	0.326085
C62	C	1.008943	0.173798	0.826085
C63	C	0.977977	-0.502052	0.326045
C64	C	1.477977	-0.002052	0.826045
C65	C	0.978007	-0.577284	0.326054
C66	C	1.478007	-0.077284	0.826054
C67	C	1.021338	-0.612610	0.282813
C68	C	1.521338	-0.112610	0.782813
C69	C	1.021366	-0.683299	0.282828
C70	C	1.521366	-0.183299	0.782828
C71	C	0.978060	-0.718659	0.326081
C72	C	1.478060	-0.218659	0.826081
C73	C	0.934727	-0.683328	0.369327
C74	C	1.434727	-0.183328	0.869327
C75	C	0.934703	-0.612641	0.369315
C76	C	1.434703	-0.112641	0.869315
C77	C	0.934827	-0.968401	0.369377
C78	C	1.434827	-0.468401	0.869377
C79	C	0.934854	-1.039093	0.369384
C80	C	1.434854	-0.539093	0.869384
C81	C	1.021491	-1.039059	0.282890
C82	C	1.521491	-0.539059	0.782890
C83	C	1.021466	-0.968372	0.282878
C84	C	1.521466	-0.468372	0.782878
C85	C	0.978136	-0.933047	0.326126
C86	C	1.478136	-0.433047	0.826126
C87	C	0.978107	-0.856398	0.326110
C88	C	1.478107	-0.356398	0.826110
C89	C	0.978086	-0.795306	0.326094
C90	C	1.478086	-0.295306	0.826094
C91	C	1.154596	-0.326218	0.326095
C92	C	1.654596	0.173782	0.826095
C93	C	1.229828	-0.326227	0.326102
C94	C	1.729828	0.173773	0.826102
C95	C	0.978060	-0.326197	0.502621
C96	C	1.478060	0.173803	1.002621
C97	C	0.978062	-0.326198	0.577853
C98	C	1.478062	0.173802	1.077853
C99	C	0.978148	-0.149653	0.326126
C100	C	1.478148	0.350347	0.826126
C101	C	0.978189	-0.074421	0.326146
C102	C	1.478189	0.425579	0.826146
C103	C	1.021370	-0.282919	0.613214
C104	C	1.521370	0.217081	1.113214
C105	C	1.021365	-0.282917	0.683902
C106	C	1.521365	0.217083	1.183902
C107	C	0.978053	-0.326198	0.719228
C108	C	1.478053	0.173802	1.219228
C109	C	0.934740	-0.369478	0.683862
C110	C	1.434740	0.130522	1.183862
C111	C	0.934743	-0.369476	0.613175
C112	C	1.434743	0.130524	1.113175
C113	C	0.934727	-0.369486	0.968936
C114	C	1.434727	0.130514	1.468936
C115	C	0.934729	-0.369486	1.039628
C116	C	1.434729	0.130514	1.539628
C117	C	1.021348	-0.282927	1.039663
C118	C	1.521348	0.217073	1.539663
C119	C	1.021351	-0.282925	0.968976
C120	C	1.521351	0.217075	1.468976
C121	C	0.978036	-0.326203	0.933616
C122	C	1.478036	0.173797	1.433616
C123	C	0.978042	-0.326203	0.856967
C124	C	1.478042	0.173797	1.356967
C125	C	0.978050	-0.326201	0.795876
C126	C	1.478050	0.173799	1.295876
C127	C	0.978041	-0.326208	1.150222
C128	C	1.478041	0.173792	1.650222
C129	C	0.978034	-0.326203	1.074990
C130	C	1.478034	0.173797	1.574990
H131	H	0.720439	-0.247774	0.404751
H132	H	1.220439	0.252226	0.904751
H133	H	0.364587	-0.404626	0.247409
H134	H	0.864587	0.095374	0.747409
H135	H	1.056642	-0.247677	0.584456
H136	H	1.556642	0.252323	1.084456
Cl137	Cl	0.880276	-0.423899	1.084037
Cl138	Cl	1.380276	0.076101	1.584037
Cl139	Cl	0.576450	-0.423740	0.228189
Cl140	Cl	1.076450	0.076260	0.728189
H141	H	0.236434	-0.247822	0.404783
H142	H	0.736434	0.252178	0.904783
H143	H	0.899473	-0.404715	0.712631
H144	H	1.399473	0.095285	1.212631
Cl145	Cl	0.880294	-0.423883	0.568721
Cl146	Cl	1.380294	0.076117	1.068721
Cl147	Cl	1.075779	-0.568164	0.228430
Cl148	Cl	1.575779	-0.068164	0.728430
Cl149	Cl	0.880229	-0.568230	0.423679
Cl150	Cl	1.380229	-0.068230	0.923679
Cl151	Cl	0.576561	-0.228646	0.423966
Cl152	Cl	1.076561	0.271354	0.923966
Cl153	Cl	0.736002	-0.423729	0.228179
Cl154	Cl	1.236002	0.076271	0.728179
Cl155	Cl	0.220686	-0.423782	0.228218
Cl156	Cl	0.720686	0.076218	0.728218
H157	H	1.056650	-0.712059	0.247616
H158	H	1.556650	-0.212059	0.747616
Cl159	Cl	1.075842	-0.228537	0.728353
Cl160	Cl	1.575842	0.271463	1.228353
Cl161	Cl	1.075804	-0.228515	0.924570
Cl162	Cl	1.575804	0.271485	1.424570
Cl163	Cl	0.380344	-0.228668	0.423980
Cl164	Cl	0.880344	0.271332	0.923980
H165	H	1.056775	-1.067830	0.247678
H166	H	1.556775	-0.567830	0.747678
Cl167	Cl	1.075911	-0.923923	0.228501
Cl168	Cl	1.575911	-0.423923	0.728501
Cl169	Cl	0.880409	-1.083545	0.423765
Cl170	Cl	1.380409	-0.583545	0.923765
Cl171	Cl	0.880354	-0.924001	0.423745
Cl172	Cl	1.380354	-0.424001	0.923745
Cl173	Cl	0.880289	-0.727781	0.423706
Cl174	Cl	1.380289	-0.227781	0.923706
H175	H	0.899467	-0.404735	0.940154
H176	H	1.399467	0.095265	1.440154
Cl177	Cl	1.075800	-0.228517	1.084119
Cl178	Cl	1.575800	0.271483	1.584119
