data_functionalizedCrystal
_audit_creation_method	'MofGen! by Chris Wilmer'
_symmetry_space_group_name_H-M	'P1'
_symmetry_Int_Tables_number	1
_symmetry_cell_setting	triclinic
loop_
_symmetry_equiv_pos_as_xyz
  x,y,z
_cell_length_a	29.999520
_cell_length_b	29.998686
_cell_length_c	29.995014
_cell_angle_alpha	60.005185
_cell_angle_beta	60.010401
_cell_angle_gamma	59.993433
loop_
_atom_site_label
_atom_site_type_symbol
_atom_site_fract_x
_atom_site_fract_y
_atom_site_fract_z
O1	O	0.061772	-0.651300	0.544623
O2	O	0.561772	-0.151300	1.044623
O3	O	0.023267	-0.507084	0.438819
O4	O	0.523267	-0.007084	0.938819
O5	O	0.114589	-0.598332	0.438743
O6	O	0.614589	-0.098332	0.938743
O7	O	-0.029550	-0.560051	0.544699
O8	O	0.470450	-0.060051	1.044699
O9	O	0.144886	-0.568039	0.468961
O10	O	0.644886	-0.068039	0.968961
O11	O	0.053564	-0.476791	0.469038
O12	O	0.553564	0.023209	0.969038
O13	O	0.092069	-0.621007	0.574841
O14	O	0.592069	-0.121007	1.074841
Zn15	Zn	0.077627	-0.544089	0.526737
Zn16	Zn	0.577627	-0.044089	1.026737
Zn17	Zn	0.037709	-0.584002	0.486923
Zn18	Zn	0.537709	-0.084002	0.986923
O19	O	0.000748	-0.529758	0.574918
O20	O	0.500748	-0.029758	1.074918
N21	N	0.104871	-0.516854	0.553912
N22	N	0.604871	-0.016854	1.053912
N23	N	0.010470	-0.611242	0.459748
N24	N	0.510470	-0.111242	0.959748
C25	C	0.143162	-0.478782	0.827124
C26	C	0.643162	0.021218	1.327124
C27	C	0.378203	-0.478734	0.591892
C28	C	0.878203	0.021266	1.091892
C29	C	0.143005	-0.478752	0.591997
C30	C	0.643005	0.021248	1.091997
C31	C	0.142986	-0.243586	0.592008
C32	C	0.642986	0.256414	1.092008
C33	C	0.180857	-0.357087	0.629814
C34	C	0.680857	0.142913	1.129814
C35	C	0.180866	-0.440920	0.629807
C36	C	0.680866	0.059080	1.129807
C37	C	0.201840	-0.419964	0.650755
C38	C	0.701840	0.080036	1.150755
C39	C	0.293272	-0.404201	0.602606
C40	C	0.793272	0.095799	1.102606
C41	C	0.350426	-0.423248	0.583534
C42	C	0.850426	0.076752	1.083534
C43	C	0.350451	-0.515727	0.618798
C44	C	0.850451	-0.015727	1.118798
C45	C	0.293297	-0.496678	0.637872
C46	C	0.793297	0.003322	1.137872
C47	C	0.194628	-0.328499	0.573626
C48	C	0.694628	0.171501	1.073626
C49	C	0.175551	-0.271340	0.554591
C50	C	0.675551	0.228660	1.054591
C51	C	0.128936	-0.271362	0.647935
C52	C	0.628936	0.228638	1.147935
C53	C	0.148014	-0.328521	0.666970
C54	C	0.648014	0.171479	1.166970
C55	C	0.124672	-0.427119	0.643641
C56	C	0.624672	0.072881	1.143641
C57	C	0.105611	-0.446170	0.624592
C58	C	0.605611	0.053830	1.124592
C59	C	0.198934	-0.492820	0.577889
C60	C	0.698934	0.007180	1.077889
C61	C	0.217998	-0.473770	0.596931
C62	C	0.717998	0.026230	1.096931
C63	C	0.124740	-0.427136	0.742229
C64	C	0.624740	0.072864	1.242229
C65	C	0.105728	-0.446202	0.799386
C66	C	0.605728	0.053798	1.299386
C67	C	0.199085	-0.492863	0.799337
C68	C	0.699085	0.007137	1.299337
C69	C	0.218096	-0.473798	0.742178
C70	C	0.718096	0.026202	1.242178
C71	C	0.180923	-0.440933	0.713626
C72	C	0.680923	0.059067	1.213626
C73	C	0.264710	-0.440915	0.629773
C74	C	0.764710	0.059085	1.129773
C75	C	0.121509	-0.499370	0.889991
C76	C	0.621509	0.000630	1.389991
C77	C	0.441068	-0.498953	0.570621
C78	C	0.941068	0.001047	1.070621
C79	C	0.121297	-0.499349	0.571429
C80	C	0.621297	0.000651	1.071429
C81	C	0.121653	-0.180715	0.571802
C82	C	0.621653	0.319285	1.071802
C83	C	-0.111071	-0.648912	0.421584
C84	C	0.388929	-0.148912	0.921584
C85	C	-0.027286	-0.649018	0.421777
C86	C	0.472714	-0.149018	0.921777
C87	C	-0.048200	-0.669944	0.400740
C88	C	0.451800	-0.169944	0.900740
C89	C	-0.064036	-0.761340	0.448814
C90	C	0.435964	-0.261340	0.948814
C91	C	-0.045033	-0.818500	0.467893
C92	C	0.454967	-0.318500	0.967893
C93	C	0.047447	-0.818609	0.432797
C94	C	0.547447	-0.318609	0.932797
C95	C	0.028444	-0.761451	0.413717
C96	C	0.528444	-0.261451	0.913717
C97	C	-0.139731	-0.662677	0.477755
C98	C	0.360269	-0.162677	0.977755
C99	C	-0.196885	-0.643554	0.496701
C100	C	0.303115	-0.143554	0.996701
C101	C	-0.196717	-0.596907	0.403303
C102	C	0.303283	-0.096907	0.903303
C103	C	-0.139562	-0.616030	0.384357
C104	C	0.360438	-0.116030	0.884357
C105	C	-0.041053	-0.592827	0.407952
C106	C	0.458947	-0.092827	0.907952
C107	C	-0.022041	-0.573809	0.427083
C108	C	0.477959	-0.073809	0.927083
C109	C	0.024504	-0.667167	0.473848
C110	C	0.524504	-0.167167	0.973848
C111	C	0.005492	-0.686188	0.454725
C112	C	0.505492	-0.186188	0.954725
C113	C	-0.040886	-0.592836	0.309259
C114	C	0.459114	-0.092836	0.809259
C115	C	-0.021740	-0.573821	0.252102
C116	C	0.478260	-0.073821	0.752102
C117	C	0.024886	-0.667185	0.252163
C118	C	0.524886	-0.167185	0.752163
C119	C	0.005743	-0.686199	0.309322
C120	C	0.505743	-0.186199	0.809322
C121	C	-0.027145	-0.649023	0.337868
C122	C	0.472855	-0.149023	0.837868
C123	C	-0.027299	-0.732818	0.421728
C124	C	0.472701	-0.232818	0.921728
N125	N	0.492511	-0.516826	0.553742
N126	N	0.992511	-0.016826	1.053742
O127	O	0.679283	-0.525926	0.419277
O128	O	1.179283	-0.025926	0.919277
O129	O	0.679465	-0.632059	0.563349
O130	O	1.179465	-0.132059	1.063349
O131	O	0.679393	-0.631817	0.471975
O132	O	1.179393	-0.131817	0.971975
O133	O	0.679355	-0.526168	0.510650
O134	O	1.179355	-0.026168	1.010650
O135	O	0.588593	-0.601610	0.502313
O136	O	1.088593	-0.101610	1.002313
O137	O	0.588665	-0.601852	0.593686
O138	O	1.088665	-0.101852	1.093686
O139	O	0.588483	-0.495720	0.449614
O140	O	1.088483	0.004280	0.949614
Zn141	Zn	0.574158	-0.543990	0.526467
Zn142	Zn	1.074158	-0.043990	1.026467
Zn143	Zn	0.693790	-0.583788	0.486496
Zn144	Zn	1.193790	-0.083788	0.986496
O145	O	0.588555	-0.495962	0.540987
O146	O	1.088555	0.004038	1.040987
N147	N	0.775436	-0.610952	0.459215
N148	N	1.275436	-0.110952	0.959215
N149	N	0.104844	-0.129269	0.553931
N150	N	0.604844	0.370731	1.053931
O151	O	-0.029548	0.057600	0.544709
O152	O	0.470452	0.557600	1.044709
O153	O	0.114530	0.057617	0.438578
O154	O	0.614530	0.557617	0.938578
O155	O	0.023130	0.057594	0.438850
O156	O	0.523130	0.557594	0.938850
O157	O	0.061852	0.057623	0.544437
O158	O	0.561852	0.557623	1.044437
O159	O	0.053431	-0.033213	0.469115
O160	O	0.553431	0.466787	0.969115
O161	O	0.144831	-0.033190	0.468843
O162	O	0.644831	0.466810	0.968843
O163	O	0.000753	-0.033207	0.574974
O164	O	0.500753	0.466793	1.074974
Zn165	Zn	0.077603	-0.047616	0.526714
Zn166	Zn	0.577603	0.452384	1.026714
Zn167	Zn	0.037680	0.072026	0.486838
Zn168	Zn	0.537680	0.572026	0.986838
O169	O	0.092153	-0.033184	0.574702
O170	O	0.592153	0.466816	1.074702
N171	N	0.010432	0.153679	0.459622
N172	N	0.510432	0.653679	0.959622
N173	N	0.105130	-0.516904	0.941437
N174	N	0.605130	-0.016904	1.441437
O175	O	0.095923	-0.651280	1.128292
O176	O	0.595923	-0.151280	1.628292
O177	O	-0.010184	-0.507155	1.128318
O178	O	0.489816	-0.007155	1.628318
O179	O	-0.009938	-0.598539	1.128284
O180	O	0.490062	-0.098539	1.628284
O181	O	0.095677	-0.559897	1.128326
O182	O	0.595677	-0.059897	1.628326
O183	O	0.020315	-0.568257	1.037481
O184	O	0.520315	-0.068257	1.537481
O185	O	0.020068	-0.476874	1.037515
O186	O	0.520068	0.023126	1.537515
O187	O	0.126176	-0.620999	1.037489
O188	O	0.626176	-0.120999	1.537489
Zn189	Zn	0.077925	-0.544128	1.023085
Zn190	Zn	0.577925	-0.044128	1.523085
Zn191	Zn	0.038066	-0.584026	1.142722
Zn192	Zn	0.538066	-0.084026	1.642722
O193	O	0.125929	-0.529616	1.037523
O194	O	0.625929	-0.029616	1.537523
N195	N	0.010860	-0.611256	1.224371
N196	N	0.510860	-0.111256	1.724371
C197	C	0.034807	-0.473765	0.439352
C198	C	0.534807	0.026235	0.939352
C199	C	0.147897	-0.586765	0.439257
C200	C	0.647897	-0.086765	0.939257
C201	C	0.080529	-0.654326	0.574308
C202	C	0.580529	-0.154326	1.074308
C203	C	-0.032561	-0.541326	0.574403
C204	C	0.467439	-0.041326	1.074403
C205	C	0.634087	-0.631571	0.596668
C206	C	1.134087	-0.131571	1.096668
C207	C	0.633999	-0.631272	0.483513
C208	C	1.133999	-0.131272	0.983513
C209	C	0.633858	-0.496206	0.416295
C210	C	1.133858	0.003794	0.916295
C211	C	0.633949	-0.496507	0.529449
C212	C	1.133949	0.003493	1.029449
C213	C	0.147793	0.012327	0.439058
C214	C	0.647793	0.512327	0.939058
C215	C	0.034644	0.012187	0.439432
C216	C	0.534644	0.512187	0.939432
C217	C	-0.032548	0.012195	0.574457
C218	C	0.467452	0.512195	1.074457
C219	C	0.080639	0.012222	0.574120
C220	C	0.580639	0.512222	1.074120
C221	C	-0.009670	-0.473857	1.082920
C222	C	0.490330	0.026143	1.582920
C223	C	-0.009359	-0.587018	1.082860
C224	C	0.490641	-0.087018	1.582860
C225	C	0.125662	-0.654297	1.082887
C226	C	0.625662	-0.154297	1.582887
C227	C	0.125358	-0.541129	1.082927
C228	C	0.625358	-0.041129	1.582927
H229	H	0.059977	-0.434960	0.822668
H230	H	0.559977	0.065040	1.322668
H231	H	0.634133	-0.664888	0.638048
H232	H	1.134133	-0.164888	1.138048
O233	O	0.024746	0.012271	0.399812
O234	O	0.524746	0.512271	0.899812
C235	C	0.030796	0.059291	0.353761
C236	C	0.530796	0.559291	0.853761
H237	H	0.024889	0.092172	0.366814
H238	H	0.524889	0.592172	0.866814
H239	H	-0.001027	0.075064	0.334413
H240	H	0.498973	0.575064	0.834413
H241	H	0.073417	0.048660	0.322819
H242	H	0.573417	0.548660	0.822819
O243	O	0.164997	-0.531368	1.082957
O244	O	0.664997	-0.031368	1.582957
C245	C	0.212119	-0.578253	1.082934
C246	C	0.712119	-0.078253	1.582934
H247	H	0.200202	-0.615788	1.100116
H248	H	0.700202	-0.115788	1.600116
H249	H	0.232459	-0.583038	1.109299
H250	H	0.732459	-0.083038	1.609299
H251	H	0.241801	-0.573845	1.039369
H252	H	0.741801	-0.073845	1.539369
O253	O	-0.081924	-0.531539	0.614116
O254	O	0.418076	-0.031539	1.114116
C255	C	-0.091695	-0.487344	0.626713
C256	C	0.408305	0.012656	1.126713
H257	H	-0.051156	-0.482958	0.614636
H258	H	0.448844	0.017042	1.114636
H259	H	-0.113785	-0.495134	0.672419
H260	H	0.386215	0.004866	1.172419
H261	H	-0.118045	-0.448205	0.603273
H262	H	0.381955	0.051795	1.103273
H263	H	-0.067667	-0.562559	0.332499
H264	H	0.432333	-0.062559	0.832499
H265	H	0.094434	-0.400372	0.670409
H266	H	0.594434	0.099628	1.170409
H267	H	0.088930	0.012231	0.607291
H268	H	0.588930	0.512231	1.107291
O269	O	0.088553	-0.395236	0.714578
O270	O	0.588553	0.104764	1.214578
C271	C	0.034887	-0.387132	0.752081
C272	C	0.534887	0.112868	1.252081
H273	H	0.035019	-0.421597	0.792816
H274	H	0.535019	0.078403	1.292816
H275	H	0.007734	-0.386832	0.735583
H276	H	0.507734	0.113168	1.235583
H277	H	0.018512	-0.346417	0.758168
H278	H	0.518512	0.153583	1.258168
H279	H	0.229358	-0.519614	0.822579
H280	H	0.729358	-0.019614	1.322579
H281	H	0.158977	-0.695688	1.082873
H282	H	0.658977	-0.195688	1.582873
O283	O	0.197074	0.012661	0.399257
O284	O	0.697074	0.512661	0.899257
C285	C	0.231036	0.012762	0.418866
C286	C	0.731036	0.512762	0.918866
H287	H	0.204776	0.029775	0.454040
H288	H	0.704776	0.529775	0.954040
H289	H	0.256978	0.039339	0.384581
H290	H	0.756978	0.539339	0.884581
H291	H	0.258816	-0.030743	0.433831
H292	H	0.758816	0.469257	0.933831
H293	H	0.263847	-0.485039	0.718893
H294	H	0.763847	0.014961	1.218893
O295	O	0.633910	-0.456963	0.539416
O296	O	1.133910	0.043037	1.039416
C297	C	0.633982	-0.476859	0.593069
C298	C	1.133982	0.023141	1.093069
H299	H	0.616832	-0.511927	0.618903
H300	H	1.116832	-0.011927	1.118903
H301	H	0.607614	-0.442674	0.611458
H302	H	1.107614	0.057326	1.111458
H303	H	0.677555	-0.492064	0.592232
H304	H	1.177555	0.007936	1.092232
O305	O	0.634112	-0.670918	0.473638
O306	O	1.134112	-0.170918	0.973638
C307	C	0.681166	-0.716942	0.479678
C308	C	1.181166	-0.216942	0.979678
H309	H	0.714025	-0.703849	0.473743
H310	H	1.214025	-0.203849	0.973743
H311	H	0.696938	-0.736304	0.447866
H312	H	1.196938	-0.236304	0.947866
H313	H	0.670586	-0.747889	0.522306
H314	H	1.170586	-0.247889	1.022306
H315	H	-0.073925	0.012190	0.607776
H316	H	0.426075	0.512190	1.107776
H317	H	0.059853	-0.434921	0.635844
H318	H	0.559853	0.065079	1.135844
O319	O	0.025096	-0.424368	0.399653
O320	O	0.525096	0.075632	0.899653
C321	C	0.071999	-0.424243	0.352566
C322	C	0.571999	0.075757	0.852566
H323	H	0.109508	-0.456533	0.364543
H324	H	0.609508	0.043467	0.864543
H325	H	0.076823	-0.382346	0.332181
H326	H	0.576823	0.117654	0.832181
H327	H	0.067591	-0.433749	0.322899
H328	H	0.567591	0.066251	0.822899
O329	O	-0.049363	-0.424455	1.082952
O330	O	0.450637	0.075545	1.582952
C331	C	-0.029707	-0.390477	1.082955
C332	C	0.470293	0.109523	1.582955
H333	H	0.005343	-0.416735	1.100148
H334	H	0.505343	0.083265	1.600148
H335	H	-0.064017	-0.364320	1.109324
H336	H	0.435983	0.135680	1.609324
H337	H	-0.014554	-0.362903	1.039397
H338	H	0.485446	0.137097	1.539397
O339	O	0.633812	-0.456519	0.366898
O340	O	1.133812	0.043481	0.866898
C341	C	0.633781	-0.476171	0.332928
C342	C	1.133781	0.023829	0.832928
H343	H	0.651017	-0.522679	0.347690
H344	H	1.151017	-0.022679	0.847690
H345	H	0.660094	-0.459404	0.289183
H346	H	1.160094	0.040596	0.789183
H347	H	0.590208	-0.462323	0.334442
H348	H	1.090208	0.037677	0.834442
H349	H	-0.042525	-0.595273	1.082811
H350	H	0.457475	-0.095273	1.582811
H351	H	-0.220220	-0.654760	0.542443
H352	H	0.279780	-0.154760	1.042443
H353	H	0.263756	-0.485001	0.585661
H354	H	0.763756	0.014999	1.085661
O355	O	0.235033	-0.524648	0.545876
O356	O	0.735033	-0.024648	1.045876
C357	C	0.268055	-0.495772	0.497948
C358	C	0.768055	0.004228	0.997948
H359	H	0.245962	-0.450045	0.490020
H360	H	0.745962	0.049955	0.990020
H361	H	0.276688	-0.505987	0.461937
H362	H	0.776688	-0.005987	0.961937
H363	H	0.308216	-0.507933	0.503130
H364	H	0.808216	-0.007933	1.003130
O365	O	0.265635	-0.532414	0.664229
O366	O	0.765635	-0.032414	1.164229
C367	C	0.303126	-0.585718	0.667294
C368	C	0.803126	-0.085718	1.167294
H369	H	0.343853	-0.583540	0.633524
H370	H	0.843853	-0.083540	1.133524
H371	H	0.286606	-0.609178	0.662126
H372	H	0.786606	-0.109178	1.162126
H373	H	0.309234	-0.607540	0.708707
H374	H	0.809234	-0.107540	1.208707
H375	H	0.373728	-0.561133	0.625383
H376	H	0.873728	-0.061133	1.125383
O377	O	0.378089	-0.387508	0.557132
O378	O	0.878089	0.112492	1.057132
C379	C	0.340600	-0.334206	0.554085
C380	C	0.840600	0.165794	1.054085
H381	H	0.299852	-0.331982	0.557845
H382	H	0.799852	0.168018	1.057845
H383	H	0.357092	-0.303998	0.513233
H384	H	0.857092	0.196002	1.013233
H385	H	0.334542	-0.323538	0.588712
H386	H	0.834542	0.176462	1.088712
H387	H	0.189295	-0.594927	0.405983
H388	H	0.689295	-0.094927	0.905983
H389	H	0.221368	-0.351757	0.543370
H390	H	0.721368	0.148243	1.043370
O391	O	0.265444	-0.350054	0.594836
O392	O	0.765444	0.149946	1.094836
C393	C	0.232420	-0.342285	0.645858
C394	C	0.732420	0.157715	1.145858
H395	H	0.223876	-0.381583	0.677709
H396	H	0.723876	0.118417	1.177709
H397	H	0.192219	-0.307965	0.642575
H398	H	0.692219	0.192035	1.142575
H399	H	0.254461	-0.331024	0.658546
H400	H	0.754461	0.168976	1.158546
O401	O	0.188994	-0.243650	0.499989
O402	O	0.688994	0.256350	0.999989
C403	C	0.222061	-0.281121	0.471276
C404	C	0.722061	0.218879	0.971276
H405	H	0.242866	-0.321868	0.498520
H406	H	0.742866	0.178132	0.998520
H407	H	0.254377	-0.264595	0.433124
H408	H	0.754377	0.235405	0.933124
H409	H	0.195681	-0.287200	0.458966
H410	H	0.695681	0.212800	0.958966
H411	H	0.102202	-0.248101	0.678192
H412	H	0.602202	0.251899	1.178192
H413	H	-0.067739	-0.562558	0.381123
H414	H	0.432261	-0.062558	0.881123
O415	O	0.090331	-0.703789	0.613904
O416	O	0.590331	-0.203789	1.113904
C417	C	0.103167	-0.744908	0.595158
C418	C	0.603167	-0.244908	1.095158
H419	H	0.085574	-0.726281	0.561235
H420	H	0.585574	-0.226281	1.061235
H421	H	0.084907	-0.777585	0.630343
H422	H	0.584907	-0.277585	1.130343
H423	H	0.149400	-0.764107	0.578739
H424	H	0.649400	-0.264107	1.078739
O425	O	0.134607	-0.356210	0.721572
O426	O	0.634607	0.143790	1.221572
C427	C	0.101515	-0.318739	0.750285
C428	C	0.601515	0.181261	1.250285
H429	H	0.108787	-0.277989	0.723029
H430	H	0.608787	0.222011	1.223029
H431	H	0.112252	-0.335261	0.788420
H432	H	0.612252	0.164739	1.288420
H433	H	0.056747	-0.312669	0.762625
H434	H	0.556747	0.187331	1.262625
H435	H	0.051655	-0.697459	0.228927
H436	H	0.551655	-0.197459	0.728927
O437	O	-0.035169	-0.519219	0.224401
O438	O	0.464831	-0.019219	0.724401
C439	C	-0.068290	-0.490489	0.261857
C440	C	0.431710	0.009511	0.761857
H441	H	-0.089125	-0.517716	0.302576
H442	H	0.410875	-0.017716	0.802576
H443	H	-0.100581	-0.452323	0.245275
H444	H	0.399419	0.047677	0.745275
H445	H	-0.041948	-0.478197	0.268007
H446	H	0.458052	0.021803	0.768007
H447	H	-0.033252	-0.528055	0.415829
H448	H	0.466748	-0.028055	0.915829
O449	O	0.019122	-0.740800	0.337027
O450	O	0.519122	-0.240800	0.837027
C451	C	0.052260	-0.769532	0.299572
C452	C	0.552260	-0.269532	0.799572
H453	H	0.045044	-0.742272	0.258788
H454	H	0.545044	-0.242272	0.758788
H455	H	0.041519	-0.807646	0.316057
H456	H	0.541519	-0.307646	0.816057
H457	H	0.097014	-0.781909	0.293586
H458	H	0.597014	-0.281909	0.793586
H459	H	0.051198	-0.697438	0.500669
H460	H	0.551198	-0.197438	1.000669
H461	H	0.016700	-0.731943	0.465981
H462	H	0.516700	-0.231943	0.965981
H463	H	0.092838	-0.841923	0.426277
H464	H	0.592838	-0.341923	0.926277
O465	O	0.064203	-0.733828	0.387437
O466	O	0.564203	-0.233828	0.887437
C467	C	0.117478	-0.771360	0.384450
C468	C	0.617478	-0.271360	0.884450
H469	H	0.115246	-0.812084	0.418211
H470	H	0.615246	-0.312084	0.918211
H471	H	0.140919	-0.754877	0.389689
H472	H	0.640919	-0.254877	0.889689
H473	H	0.139349	-0.777466	0.343035
H474	H	0.639349	-0.277466	0.843035
H475	H	-0.109425	-0.738032	0.455342
H476	H	0.390575	-0.238032	0.955342
O477	O	-0.080805	-0.846122	0.494279
O478	O	0.419195	-0.346122	0.994279
C479	C	-0.134083	-0.808593	0.497282
C480	C	0.365917	-0.308593	0.997282
H481	H	-0.136266	-0.767844	0.493477
H482	H	0.363734	-0.267844	0.993477
H483	H	-0.164313	-0.825040	0.538137
H484	H	0.335687	-0.325040	1.038137
H485	H	-0.144752	-0.802549	0.462661
H486	H	0.355248	-0.302549	0.962661
O487	O	-0.112138	-0.694592	0.513988
O488	O	0.387862	-0.194592	1.013988
C489	C	-0.149691	-0.702646	0.567631
C490	C	0.350309	-0.202646	1.067631
H491	H	-0.190405	-0.668147	0.567454
H492	H	0.309595	-0.168147	1.067454
H493	H	-0.133231	-0.702964	0.594828
H494	H	0.366769	-0.202964	1.094828
H495	H	-0.155805	-0.743339	0.583988
H496	H	0.344195	-0.243339	1.083988
H497	H	-0.219915	-0.570138	0.372989
H498	H	0.280085	-0.070138	0.872989
O499	O	-0.111804	-0.602632	0.329771
O500	O	0.388196	-0.102632	0.829771
C501	C	-0.149207	-0.569497	0.300977
C502	C	0.350793	-0.069497	0.800977
H503	H	-0.189977	-0.576733	0.328165
H504	H	0.310023	-0.076733	0.828165
H505	H	-0.132638	-0.580229	0.262830
H506	H	0.367362	-0.080229	0.762830
H507	H	-0.155249	-0.524737	0.288650
H508	H	0.344751	-0.024737	0.788650
