data_functionalizedCrystal
_audit_creation_method	'MofGen! by Chris Wilmer'
_symmetry_space_group_name_H-M	'P1'
_symmetry_Int_Tables_number	1
_symmetry_cell_setting	triclinic
loop_
_symmetry_equiv_pos_as_xyz
  x,y,z
_cell_length_a	19.188929
_cell_length_b	19.188905
_cell_length_c	18.266242
_cell_angle_alpha	89.983837
_cell_angle_beta	90.028140
_cell_angle_gamma	96.860334
loop_
_atom_site_label
_atom_site_type_symbol
_atom_site_fract_x
_atom_site_fract_y
_atom_site_fract_z
O1	O	-0.087085	0.926160	-0.061036
O2	O	0.412915	1.426160	0.438964
O3	O	-0.098838	0.722847	-0.061016
O4	O	0.401162	1.222847	0.438984
O5	O	0.008694	0.830371	-0.060982
O6	O	0.508694	1.330371	0.439018
O7	O	-0.194618	0.818636	-0.061071
O8	O	0.305382	1.318636	0.438929
O9	O	0.008700	0.830353	0.060780
O10	O	0.508700	1.330353	0.560780
O11	O	-0.098833	0.722828	0.060746
O12	O	0.401167	1.222828	0.560746
O13	O	-0.087080	0.926142	0.060726
O14	O	0.412920	1.426142	0.560726
Zn15	Zn	-0.092955	0.824482	0.080068
Zn16	Zn	0.407045	1.324482	0.580068
Zn17	Zn	-0.092963	0.824506	-0.080359
Zn18	Zn	0.407037	1.324506	0.419641
O19	O	-0.194612	0.818618	0.060691
O20	O	0.305388	1.318618	0.560691
C21	C	-0.098458	0.696826	-0.000132
C22	C	0.401542	1.196826	0.499868
C23	C	-0.097324	0.619321	-0.000122
C24	C	0.402676	1.119321	0.499878
C25	C	-0.096782	0.582939	-0.066496
C26	C	0.403218	1.082939	0.433504
C27	C	-0.095709	0.510115	-0.066504
C28	C	0.404291	1.010115	0.433496
C29	C	-0.095164	0.473678	-0.000135
C30	C	0.404836	0.973678	0.499865
C31	C	-0.095709	0.510068	0.066248
C32	C	0.404291	1.010068	0.566248
C33	C	-0.096790	0.582890	0.066255
C34	C	0.403210	1.082890	0.566255
N35	N	-0.053733	0.364651	0.049275
N36	N	0.446267	0.864651	0.549275
N37	N	-0.052705	0.295474	0.049264
N38	N	0.447295	0.795474	0.549264
C39	C	-0.091911	0.254272	-0.000151
C40	C	0.408089	0.754272	0.499849
N41	N	-0.132174	0.284861	-0.049567
N42	N	0.367826	0.784861	0.450433
N43	N	-0.133199	0.354045	-0.049558
N44	N	0.366801	0.854045	0.450442
C45	C	-0.093993	0.394716	-0.000135
C46	C	0.406007	0.894716	0.499865
C47	C	-0.090207	0.138926	-0.066539
C48	C	0.409793	0.638926	0.433461
C49	C	-0.089138	0.066100	-0.066545
C50	C	0.410862	0.566100	0.433455
C51	C	-0.089132	0.066056	0.066209
C52	C	0.410868	0.566056	0.566209
C53	C	-0.090207	0.138879	0.066213
C54	C	0.409793	0.638879	0.566213
C55	C	-0.090742	0.175310	-0.000163
C56	C	0.409258	0.675310	0.499837
C57	C	-0.220626	0.819007	-0.000202
C58	C	0.279374	1.319007	0.499798
C59	C	-0.298131	0.820148	-0.000237
C60	C	0.201869	1.320148	0.499763
C61	C	-0.343060	0.757056	-0.000215
C62	C	0.156940	1.257056	0.499785
C63	C	-0.415884	0.758128	-0.000199
C64	C	0.084116	1.258128	0.499801
C65	C	-0.443775	0.822295	-0.000189
C66	C	0.056225	1.322295	0.499811
C67	C	-0.398835	0.885395	-0.000214
C68	C	0.101165	1.385395	0.499786
C69	C	-0.326013	0.884321	-0.000238
C70	C	0.173987	1.384321	0.499762
N71	N	-0.551737	0.871336	0.041291
N72	N	-0.051737	1.371336	0.541291
N73	N	-0.620915	0.872352	0.041315
N74	N	-0.120915	1.372352	0.541315
C75	C	-0.663183	0.825533	-0.000119
C76	C	-0.163183	1.325533	0.499881
N77	N	-0.633660	0.777650	-0.041568
N78	N	-0.133660	1.277650	0.458432
N79	N	-0.564476	0.776633	-0.041589
N80	N	-0.064476	1.276633	0.458411
C81	C	-0.522737	0.823466	-0.000164
C82	C	-0.022737	1.323466	0.499836
C83	C	-0.787077	0.763599	-0.000081
C84	C	-0.287077	1.263599	0.499919
C85	C	-0.859902	0.764673	-0.000069
C86	C	-0.359902	1.264673	0.499931
C87	C	-0.842851	0.891942	-0.000077
C88	C	-0.342851	1.391942	0.499923
C89	C	-0.770028	0.890866	-0.000096
C90	C	-0.270028	1.390866	0.499904
C91	C	-0.742146	0.826693	-0.000095
C92	C	-0.242146	1.326693	0.499905
C93	C	0.034708	0.829982	-0.000090
C94	C	0.534708	1.329982	0.499910
C95	C	0.112213	0.828841	-0.000060
C96	C	0.612213	1.328841	0.499940
C97	C	-0.087460	0.952163	-0.000160
C98	C	0.412540	1.452163	0.499840
C99	C	-0.088594	1.029668	-0.000175
C100	C	0.411406	1.529668	0.499825
N101	N	-0.092950	0.824471	0.189555
N102	N	0.407050	1.324471	0.689555
N103	N	-0.092962	0.824523	-0.189845
N104	N	0.407038	1.324523	0.310155
C105	C	-0.045358	0.872098	0.227879
C106	C	0.454642	1.372098	0.727879
C107	C	-0.045355	0.872103	0.304524
C108	C	0.454645	1.372103	0.804524
C109	C	-0.092956	0.824487	0.342842
C110	C	0.407044	1.324487	0.842842
C111	C	-0.140551	0.776851	0.304509
C112	C	0.359449	1.276851	0.804509
C113	C	-0.140549	0.776843	0.227865
C114	C	0.359451	1.276843	0.727865
N115	N	-0.154764	0.815411	0.463148
N116	N	0.345236	1.315411	0.963148
N117	N	-0.154764	0.815423	0.535956
N118	N	0.345236	1.315423	1.035956
C119	C	-0.092966	0.824506	0.573764
C120	C	0.407034	1.324506	1.073764
N121	N	-0.031165	0.833592	0.536014
N122	N	0.468835	1.333592	1.036014
N123	N	-0.031165	0.833584	0.463199
N124	N	0.468835	1.333584	0.963199
C125	C	-0.092964	0.824490	0.425949
C126	C	0.407036	1.324490	0.925949
C127	C	-0.045366	0.872141	0.695196
C128	C	0.454634	1.372141	1.195196
C129	C	-0.045362	0.872141	0.771842
C130	C	0.454638	1.372141	1.271842
C131	C	-0.140565	0.776892	0.771825
C132	C	0.359435	1.276892	1.271825
C133	C	-0.140563	0.776889	0.695180
C134	C	0.359437	1.276889	1.195180
C135	C	-0.092964	0.824517	0.656870
C136	C	0.407036	1.324517	1.156870
H137	H	-0.097218	0.612597	-0.120544
H138	H	0.402782	1.112597	0.379456
H139	H	-0.090650	0.168589	-0.120587
H140	H	0.409350	0.668589	0.379413
C141	C	-0.088539	0.026080	-0.139561
C142	C	0.411461	0.526080	0.360439
H143	H	-0.089004	0.058211	-0.179088
H144	H	0.410996	0.558211	0.320912
H145	H	-0.128824	-0.007783	-0.142348
H146	H	0.371176	0.492217	0.357652
H147	H	-0.047406	0.003132	-0.142297
H148	H	0.452594	0.503132	0.357703
C149	C	-0.097374	0.622913	0.139269
C150	C	0.402626	1.122913	0.639269
H151	H	-0.096891	0.590786	0.178797
H152	H	0.403109	1.090786	0.678797
H153	H	-0.138497	0.645869	0.142017
H154	H	0.361503	1.145869	0.642017
H155	H	-0.057079	0.656771	0.142043
H156	H	0.442921	1.156771	0.642043
C157	C	-0.720604	0.960268	-0.000107
C158	C	-0.220604	1.460268	0.499893
H159	H	-0.747642	0.998638	-0.000092
H160	H	-0.247642	1.498638	0.499908
H161	H	-0.691870	0.962503	-0.042576
H162	H	-0.191870	1.462503	0.457424
H163	H	-0.691813	0.962484	0.042352
H164	H	-0.191813	1.462484	0.542352
C165	C	-0.312393	0.686469	-0.000223
C166	C	0.187607	1.186469	0.499777
H167	H	-0.349586	0.649047	-0.000214
H168	H	0.150414	1.149047	0.499786
H169	H	-0.284306	0.683397	0.042228
H170	H	0.215694	1.183397	0.542228
H171	H	-0.284374	0.683411	-0.042700
H172	H	0.215626	1.183411	0.457300
H173	H	-0.095269	0.480487	-0.120556
H174	H	0.404731	0.980487	0.379444
C175	C	0.006996	0.924522	0.653052
C176	C	0.506996	1.424522	1.153052
H177	H	0.035349	0.952881	0.686856
H178	H	0.535349	1.452881	1.186856
H179	H	-0.018044	0.953505	0.623128
H180	H	0.481956	1.453505	1.123128
H181	H	0.035998	0.899488	0.623179
H182	H	0.535998	1.399488	1.123179
H183	H	-0.006603	0.910922	0.803046
H184	H	0.493397	1.410922	1.303046
C185	C	0.006980	0.924503	0.185739
C186	C	0.506980	1.424503	0.685739
H187	H	0.000157	0.917689	0.134603
H188	H	0.500157	1.417689	0.634603
H189	H	0.053568	0.917093	0.198318
H190	H	0.553568	1.417093	0.698318
H191	H	-0.000514	0.971069	0.198289
H192	H	0.499486	1.471069	0.698289
H193	H	-0.179308	0.738080	0.335711
H194	H	0.320692	1.238080	0.835711
H195	H	-0.179319	0.738109	0.663975
H196	H	0.320681	1.238109	1.163975
H197	H	-0.179304	0.738058	0.196661
H198	H	0.320696	1.238058	0.696661
C199	C	-0.090794	0.178902	0.139225
C200	C	0.409206	0.678902	0.639225
H201	H	-0.090310	0.146774	0.178753
H202	H	0.409690	0.646774	0.678753
H203	H	-0.131921	0.201854	0.141971
H204	H	0.368079	0.701854	0.641971
H205	H	-0.050503	0.212764	0.142003
H206	H	0.449497	0.712764	0.642003
H207	H	-0.452473	0.706750	-0.000180
H208	H	0.047527	1.206750	0.499820
H209	H	-0.095267	0.480396	0.120286
H210	H	0.404733	0.980396	0.620286
C211	C	-0.088763	0.025953	0.139214
C212	C	0.411237	0.525953	0.639214
H213	H	-0.088108	-0.022637	0.129704
H214	H	0.411892	0.477363	0.629704
H215	H	-0.129715	0.032499	0.166315
H216	H	0.370285	0.532499	0.666315
H217	H	-0.048295	0.043240	0.166657
H218	H	0.451705	0.543240	0.666657
C219	C	-0.429509	0.955978	-0.000201
C220	C	0.070491	1.455978	0.499799
H221	H	-0.392317	0.993401	-0.000222
H222	H	0.107683	1.493401	0.499778
H223	H	-0.457530	0.959037	0.042269
H224	H	0.042470	1.459037	0.542269
H225	H	-0.457594	0.959047	-0.042658
H226	H	0.042406	1.459047	0.457342
C227	C	-0.276589	0.953725	-0.000254
C228	C	0.223411	1.453725	0.499746
H229	H	-0.303626	0.992096	-0.000242
H230	H	0.196374	1.492096	0.499758
H231	H	-0.247854	0.955959	-0.042722
H232	H	0.252146	1.455959	0.457278
H233	H	-0.247800	0.955943	0.042206
H234	H	0.252200	1.455943	0.542206
C235	C	-0.756403	0.693013	-0.000096
C236	C	-0.256403	1.193013	0.499904
H237	H	-0.793594	0.655590	-0.000094
H238	H	-0.293594	1.155590	0.499906
H239	H	-0.728317	0.689936	0.042355
H240	H	-0.228317	1.189936	0.542355
H241	H	-0.728381	0.689962	-0.042572
H242	H	-0.228381	1.189962	0.457428
H243	H	-0.896483	0.713294	-0.000057
H244	H	-0.396483	1.213294	0.499943
C245	C	-0.873519	0.962526	-0.000069
C246	C	-0.373519	1.462526	0.499931
H247	H	-0.836327	0.999949	-0.000088
H248	H	-0.336327	1.499949	0.499912
H249	H	-0.901544	0.965587	0.042398
H250	H	-0.401544	1.465587	0.542398
H251	H	-0.901601	0.965595	-0.042529
H252	H	-0.401601	1.465595	0.457471
C253	C	0.006997	0.924496	0.346690
C254	C	0.506997	1.424496	0.846690
H255	H	0.035343	0.952862	0.312896
H256	H	0.535343	1.452862	0.812896
H257	H	0.035997	0.899477	0.376617
H258	H	0.535997	1.399477	0.876617
H259	H	-0.018056	0.953483	0.376560
H260	H	0.481944	1.453483	0.876560
C261	C	-0.192925	0.724515	0.813965
C262	C	0.307075	1.224515	1.313965
H263	H	-0.186113	0.731342	0.865101
H264	H	0.313887	1.231342	1.365101
H265	H	-0.185462	0.677941	0.801427
H266	H	0.314538	1.177941	1.301427
H267	H	-0.239506	0.731956	0.801376
H268	H	0.260494	1.231956	1.301376
