data_functionalizedCrystal
_audit_creation_method	'MofGen! by Chris Wilmer'
_symmetry_space_group_name_H-M	'P1'
_symmetry_Int_Tables_number	1
_symmetry_cell_setting	triclinic
loop_
_symmetry_equiv_pos_as_xyz
  x,y,z
_cell_length_a	16.992694
_cell_length_b	23.532407
_cell_length_c	16.053802
_cell_angle_alpha	92.544672
_cell_angle_beta	87.249047
_cell_angle_gamma	86.758451
loop_
_atom_site_label
_atom_site_type_symbol
_atom_site_fract_x
_atom_site_fract_y
_atom_site_fract_z
O1	O	1.042772	0.118472	-0.069339
O2	O	1.542772	0.618472	0.430661
O3	O	0.814498	0.117146	-0.069363
O4	O	1.314498	0.617146	0.430637
O5	O	0.935518	0.035219	-0.069335
O6	O	1.435518	0.535219	0.430665
O7	O	0.921752	0.200399	-0.069367
O8	O	1.421752	0.700399	0.430633
O9	O	0.928857	0.039709	0.069523
O10	O	1.428857	0.539709	0.569523
O11	O	0.807837	0.121636	0.069494
O12	O	1.307837	0.621636	0.569494
O13	O	1.036111	0.122961	0.069519
O14	O	1.536111	0.622961	0.569519
Zn15	Zn	0.920917	0.123011	0.091553
Zn16	Zn	1.420917	0.623011	0.591553
Zn17	Zn	0.929693	0.117096	-0.091397
Zn18	Zn	1.429693	0.617096	0.408603
O19	O	0.915091	0.204888	0.069490
O20	O	1.415091	0.704888	0.569490
C21	C	0.781969	0.117687	0.000063
C22	C	1.281969	0.617687	0.500063
C23	C	0.694964	0.112604	0.000054
C24	C	1.194964	0.612604	0.500054
C25	C	0.644342	0.161650	0.000045
C26	C	1.144342	0.661650	0.500045
C27	C	0.562592	0.156871	0.000058
C28	C	1.062592	0.656871	0.500058
C29	C	0.531466	0.103045	0.000073
C30	C	1.031466	0.603045	0.500073
C31	C	0.582095	0.053995	0.000084
C32	C	1.082095	0.553995	0.500084
C33	C	0.663843	0.058775	0.000078
C34	C	1.163843	0.558775	0.500078
C35	C	0.288022	0.083234	0.000099
C36	C	0.788022	0.583234	0.500099
C37	C	0.206267	0.078457	0.000103
C38	C	0.706267	0.578457	0.500103
C39	C	0.186770	0.181334	0.000078
C40	C	0.686770	0.681334	0.500078
C41	C	0.268521	0.186109	0.000066
C42	C	0.768521	0.686109	0.500066
C43	C	0.319142	0.137059	0.000082
C44	C	0.819142	0.637059	0.500082
N45	N	0.447905	0.098158	0.000083
N46	N	0.947905	0.598158	0.500083
N47	N	0.402702	0.141946	0.000078
N48	N	0.902702	0.641946	0.500078
C49	C	0.931837	0.016231	0.000096
C50	C	1.431837	0.516231	0.500096
C51	C	0.930783	-0.047038	0.000102
C52	C	1.430783	0.452962	0.500102
C53	C	0.995791	-0.442917	0.000063
C54	C	1.495791	0.057083	0.500063
C55	C	0.994812	-0.502366	0.000057
C56	C	1.494812	-0.002366	0.500057
O57	O	1.055075	-0.536121	0.000033
O58	O	1.555075	-0.036121	0.500033
N59	N	0.922865	-0.528562	0.000050
N60	N	1.422865	-0.028562	0.500050
C61	C	0.851893	-0.495307	0.000041
C62	C	1.351893	0.004693	0.500041
O63	O	0.790607	-0.523048	0.000033
O64	O	1.290607	-0.023048	0.500033
C65	C	0.852873	-0.435859	0.000041
C66	C	1.352873	0.064141	0.500041
C67	C	0.924824	-0.409666	0.000057
C68	C	1.424824	0.090334	0.500057
C69	C	1.067736	-0.416723	0.000078
C70	C	1.567736	0.083277	0.500078
C71	C	1.068715	-0.357278	0.000086
C72	C	1.568715	0.142722	0.500086
C73	C	0.997748	-0.324027	0.000079
C74	C	1.497748	0.175973	0.500079
C75	C	0.925803	-0.350221	0.000065
C76	C	1.425803	0.149779	0.500065
C77	C	0.781902	-0.402605	0.000026
C78	C	1.281902	0.097395	0.500026
C79	C	0.782889	-0.343154	0.000026
C80	C	1.282889	0.156846	0.500026
C81	C	0.854840	-0.316960	0.000042
C82	C	1.354840	0.183040	0.500042
C83	C	0.855814	-0.257525	0.000066
C84	C	1.355814	0.242475	0.500066
N85	N	0.927761	-0.231328	0.000073
N86	N	1.427761	0.268672	0.500073
C87	C	0.998728	-0.264579	0.000080
C88	C	1.498728	0.235421	0.500080
C89	C	0.849841	-0.620151	0.000038
C90	C	1.349841	-0.120151	0.500038
C91	C	0.848860	-0.679598	0.000044
C92	C	1.348860	-0.179598	0.500044
C93	C	0.991779	-0.686653	0.000058
C94	C	1.491779	-0.186653	0.500058
C95	C	0.992759	-0.627205	0.000059
C96	C	1.492759	-0.127205	0.500059
C97	C	0.921788	-0.593955	0.000045
C98	C	1.421788	-0.093955	0.500045
C99	C	1.000777	-0.139740	0.000097
C100	C	1.500777	0.360260	0.500097
C101	C	1.001749	-0.080289	0.000109
C102	C	1.501749	0.419711	0.500109
C103	C	0.858831	-0.073240	0.000090
C104	C	1.358831	0.426760	0.500090
C105	C	0.857858	-0.132685	0.000083
C106	C	1.357858	0.367315	0.500083
C107	C	0.928838	-0.165934	0.000084
C108	C	1.428838	0.334066	0.500084
O109	O	0.795583	-0.223734	0.000087
O110	O	1.295583	0.276266	0.500087
O111	O	1.060004	-0.236831	0.000076
O112	O	1.560004	0.263169	0.500076
C113	C	1.068641	0.122420	0.000091
C114	C	1.568641	0.622420	0.500091
C115	C	1.155645	0.127503	0.000094
C116	C	1.655645	0.627503	0.500094
C117	C	0.918773	0.223877	0.000058
C118	C	1.418773	0.723877	0.500058
C119	C	0.919827	0.287146	0.000046
C120	C	1.419827	0.787146	0.500046
N121	N	0.914933	0.127048	0.216412
N122	N	1.414933	0.627048	0.716412
N123	N	0.935683	0.113055	-0.216256
N124	N	1.435683	0.613055	0.283744
C125	C	0.966445	0.092202	0.260118
C126	C	1.466445	0.592202	0.760118
C127	C	0.962267	0.095032	0.347524
C128	C	1.462267	0.595032	0.847524
C129	C	0.906579	0.132711	0.391222
C130	C	1.406579	0.632711	0.891222
C131	C	0.855061	0.167558	0.347510
C132	C	1.355061	0.667558	0.847510
C133	C	0.859236	0.164725	0.260106
C134	C	1.359236	0.664725	0.760106
C135	C	0.888340	0.145069	0.652627
C136	C	1.388340	0.645069	1.152627
C137	C	0.884170	0.147901	0.740038
C138	C	1.384170	0.647901	1.240038
C139	C	0.991376	0.075374	0.740045
C140	C	1.491376	0.575374	1.240045
C141	C	0.995550	0.072546	0.652640
C142	C	1.495550	0.572546	1.152640
C143	C	0.944029	0.107392	0.608935
C144	C	1.444029	0.607392	1.108935
N145	N	0.902308	0.135606	0.480565
N146	N	1.402308	0.635606	0.980565
N147	N	0.948296	0.104494	0.519594
N148	N	1.448296	0.604494	1.019594
H149	H	0.293858	0.229939	0.000044
H150	H	0.793858	0.729939	0.500044
H151	H	0.723313	-0.423922	0.000008
H152	H	1.223313	0.076078	0.500008
O153	O	1.060732	-0.718931	0.000204
O154	O	1.560732	-0.218931	0.500204
C155	C	1.101012	-0.704232	0.072112
C156	C	1.601012	-0.204232	0.572112
H157	H	1.057067	-0.684202	0.122378
H158	H	1.557067	-0.184202	0.622378
H159	H	1.131617	-0.744155	0.096247
H160	H	1.631617	-0.244155	0.596247
H161	H	1.146923	-0.672455	0.055858
H162	H	1.646923	-0.172455	0.555858
H163	H	1.011796	0.061523	0.224545
H164	H	1.511796	0.561523	0.724545
H165	H	1.004212	0.066657	0.383109
H166	H	1.504212	0.566657	0.883109
O167	O	1.138637	-0.331871	-0.000055
O168	O	1.638637	0.168129	0.499945
C169	C	1.185318	-0.350880	-0.071958
C170	C	1.685318	0.149120	0.428042
H171	H	1.145641	-0.366771	-0.122225
H172	H	1.645641	0.133229	0.377775
H173	H	1.219544	-0.314170	-0.096096
H174	H	1.719544	0.185830	0.403904
H175	H	1.228516	-0.387070	-0.055697
H176	H	1.728516	0.112930	0.444303
H177	H	1.040895	0.041865	0.617062
H178	H	1.540895	0.541865	1.117062
O179	O	0.789971	-0.040851	0.000045
O180	O	1.289971	0.459149	0.500045
C181	C	0.806271	0.017235	0.000072
C182	C	1.306271	0.517235	0.500072
H183	H	0.869082	0.021468	-0.026202
H184	H	1.369082	0.521468	0.473798
H185	H	0.762950	0.040787	-0.040251
H186	H	1.262950	0.540787	0.459749
H187	H	0.799963	0.036420	0.066689
H188	H	1.299963	0.536420	0.566689
H189	H	0.180928	0.034624	0.000115
H190	H	0.680928	0.534624	0.500115
O191	O	0.787899	-0.158043	0.000034
O192	O	1.287899	0.341957	0.500034
C193	C	0.725472	-0.115943	0.000054
C194	C	1.225472	0.384057	0.500054
H195	H	0.748384	-0.075445	-0.026217
H196	H	1.248384	0.424555	0.473783
H197	H	0.677149	-0.131944	-0.040276
H198	H	1.177149	0.368056	0.459724
H199	H	0.700403	-0.106396	0.066668
H200	H	1.200403	0.393604	0.566668
H201	H	0.846391	0.173443	0.617050
H202	H	1.346391	0.673443	1.117050
O203	O	0.337078	0.035530	0.000074
O204	O	0.837078	0.535530	0.500074
C205	C	0.292071	-0.013000	0.000107
C206	C	0.792071	0.487000	0.500107
H207	H	0.232200	-0.002176	-0.026184
H208	H	0.732200	0.497824	0.473816
H209	H	0.324437	-0.048900	-0.040197
H210	H	0.824437	0.451100	0.459803
H211	H	0.283184	-0.027168	0.066729
H212	H	0.783184	0.472832	0.566729
O213	O	0.809274	0.198660	0.217684
O214	O	1.309274	0.698660	0.717684
C215	C	0.820537	0.256293	0.239033
C216	C	1.320537	0.756293	0.739033
H217	H	0.882139	0.260235	0.263051
H218	H	1.382139	0.760235	0.763051
H219	H	0.814042	0.282587	0.181543
H220	H	1.314042	0.782587	0.681543
H221	H	0.774539	0.272664	0.289767
H222	H	1.274539	0.772664	0.789767
O223	O	1.041333	0.041546	0.782630
O224	O	1.541333	0.541546	1.282630
C225	C	1.025723	0.052133	0.869145
C226	C	1.525723	0.552133	1.369145
H227	H	0.962673	0.070937	0.881086
H228	H	1.462673	0.570937	1.381086
H229	H	1.033194	0.010496	0.902376
H230	H	1.533194	0.510496	1.402376
H231	H	1.068679	0.083527	0.893932
H232	H	1.568679	0.583527	1.393932
H233	H	0.790270	-0.700919	0.000046
H234	H	1.290270	-0.200919	0.500046
O235	O	0.829994	0.184512	0.782358
O236	O	1.329994	0.684512	1.282358
C237	C	0.785424	0.214667	0.725042
C238	C	1.285424	0.714667	1.225042
H239	H	0.787703	0.189269	0.662744
H240	H	1.287703	0.689269	1.162744
H241	H	0.721556	0.221285	0.750305
H242	H	1.221556	0.721285	1.250305
H243	H	0.810971	0.257832	0.715731
H244	H	1.310971	0.757832	1.215731
O245	O	0.801034	0.204146	0.390085
O246	O	1.301034	0.704146	0.890085
C247	C	0.808382	0.199167	0.476603
C248	C	1.308382	0.699167	0.976603
H249	H	0.870293	0.181139	0.488539
H250	H	1.370293	0.681139	0.988539
H251	H	0.797738	0.242957	0.509805
H252	H	1.297738	0.742957	1.009805
H253	H	0.763059	0.169380	0.501426
H254	H	1.263059	0.669380	1.001426
O255	O	0.551733	0.001751	0.000064
O256	O	1.051733	0.501751	0.500064
C257	C	0.468723	0.008048	0.000086
C258	C	0.968723	0.508048	0.500086
H259	H	0.450435	0.050750	-0.026212
H260	H	0.950435	0.550750	0.473788
H261	H	0.445811	-0.027923	-0.040219
H262	H	0.945811	0.472077	0.459781
H263	H	0.442800	0.006408	0.066705
H264	H	0.942800	0.506408	0.566705
H265	H	0.725094	-0.316084	0.000014
H266	H	1.225094	0.183916	0.500014
O267	O	1.136666	-0.449046	-0.000062
O268	O	1.636666	0.050954	0.499938
C269	C	1.143834	-0.485975	-0.071964
C270	C	1.643834	0.014025	0.428036
H271	H	1.105987	-0.467687	-0.122238
H272	H	1.605987	0.032313	0.377762
H273	H	1.208183	-0.490538	-0.096091
H274	H	1.708183	0.009462	0.403909
H275	H	1.123128	-0.529561	-0.055707
H276	H	1.623128	-0.029561	0.444293
O277	O	1.069782	-0.171976	-0.000009
O278	O	1.569782	0.328024	0.499991
C279	C	1.116937	-0.161918	-0.071925
C280	C	1.616937	0.338082	0.428075
H281	H	1.098470	-0.118526	-0.095902
H282	H	1.598470	0.381474	0.404098
H283	H	1.181564	-0.162583	-0.055738
H284	H	1.681564	0.337417	0.444262
H285	H	1.108907	-0.196511	-0.122288
H286	H	1.608907	0.303489	0.377712
O287	O	0.137636	0.228989	-0.000079
O288	O	0.637636	0.728989	0.499921
C289	C	0.155132	0.259131	-0.071990
C290	C	0.655132	0.759131	0.428010
H291	H	0.185712	0.228724	-0.122252
H292	H	0.685712	0.728724	0.377748
H293	H	0.098103	0.278541	-0.096129
H294	H	0.598103	0.778541	0.403871
H295	H	0.195727	0.294503	-0.055741
H296	H	0.695727	0.794503	0.444259
H297	H	0.705059	0.018836	0.000085
H298	H	1.205059	0.518836	0.500085
O299	O	1.062678	-0.601794	-0.000082
O300	O	1.562678	-0.101794	0.499918
C301	C	1.109364	-0.620803	-0.071982
C302	C	1.609364	-0.120803	0.428018
H303	H	1.069692	-0.636700	-0.122249
H304	H	1.569692	-0.136700	0.377751
H305	H	1.143586	-0.584091	-0.096122
H306	H	1.643586	-0.084091	0.403878
H307	H	1.152567	-0.656989	-0.055716
H308	H	1.652567	-0.156989	0.444284
H309	H	1.060343	-0.058966	0.000124
H310	H	1.560343	0.441034	0.500124
H311	H	0.669678	0.205481	0.000032
H312	H	1.169678	0.705481	0.500032
H313	H	0.521379	0.196809	0.000049
H314	H	1.021379	0.696809	0.500049
H315	H	0.792043	-0.593082	0.000034
H316	H	1.292043	-0.093082	0.500034
