data_functionalizedCrystal
_audit_creation_method	'MofGen! by Chris Wilmer'
_symmetry_space_group_name_H-M	'P1'
_symmetry_Int_Tables_number	1
_symmetry_cell_setting	triclinic
loop_
_symmetry_equiv_pos_as_xyz
  x,y,z
_cell_length_a	13.897447
_cell_length_b	18.101398
_cell_length_c	13.897441
_cell_angle_alpha	90.017233
_cell_angle_beta	90.029327
_cell_angle_gamma	90.017682
loop_
_atom_site_label
_atom_site_type_symbol
_atom_site_fract_x
_atom_site_fract_y
_atom_site_fract_z
Zn1	Zn	-0.384032	1.132202	0.545300
Zn2	Zn	-0.050698	1.465535	0.878633
Zn3	Zn	0.282635	1.798868	1.211966
Zn4	Zn	-0.545353	1.132116	0.384005
Zn5	Zn	-0.212020	1.465450	0.717338
Zn6	Zn	0.121313	1.798783	1.050671
Zn7	Zn	-0.384069	1.008354	0.384028
Zn8	Zn	-0.050736	1.341688	0.717361
Zn9	Zn	0.282598	1.675021	1.050694
Zn10	Zn	-0.545281	1.008336	0.545267
Zn11	Zn	-0.211948	1.341670	0.878600
Zn12	Zn	0.121385	1.675003	1.211934
O13	O	-0.464684	1.070252	0.464650
O14	O	-0.131350	1.403585	0.797983
O15	O	0.201983	1.736919	1.131316
O16	O	-0.405446	1.235823	0.523907
O17	O	-0.072113	1.569157	0.857241
O18	O	0.261221	1.902490	1.190574
O19	O	-0.524004	1.115671	0.249026
O20	O	-0.190671	1.449004	0.582359
O21	O	0.142662	1.782337	0.915693
O22	O	-0.249082	1.024826	0.405444
O23	O	0.084251	1.358160	0.738778
O24	O	0.417584	1.691493	1.072111
O25	O	-0.523968	1.235760	0.405405
O26	O	-0.190635	1.569094	0.738738
O27	O	0.142698	1.902427	1.072071
O28	O	-0.249055	1.115816	0.523930
O29	O	0.084278	1.449150	0.857263
O30	O	0.417612	1.782483	1.190597
O31	O	-0.405509	1.024743	0.249043
O32	O	-0.072176	1.358077	0.582376
O33	O	0.261157	1.691410	0.915710
O34	O	-0.405439	0.904719	0.405413
O35	O	-0.072106	1.238052	0.738746
O36	O	0.261227	1.571386	1.072079
O37	O	-0.523845	1.024796	0.680253
O38	O	-0.190512	1.358129	1.013586
O39	O	0.142821	1.691462	1.346920
O40	O	-0.523881	0.904706	0.523874
O41	O	-0.190548	1.238039	0.857208
O42	O	0.142785	1.571373	1.190541
O43	O	-0.405376	1.115799	0.680277
O44	O	-0.072043	1.449132	1.013610
O45	O	0.261291	1.782465	1.346944
O46	O	-0.680326	1.115653	0.405373
O47	O	-0.346992	1.448987	0.738706
O48	O	-0.013659	1.782320	1.072040
O49	O	-0.680272	1.024713	0.523852
O50	O	-0.346939	1.358046	0.857185
O51	O	-0.013606	1.691379	1.190518
C52	C	-0.464657	0.877842	0.464643
C53	C	-0.131324	1.211175	0.797976
C54	C	0.202009	1.544508	1.131310
C55	C	-0.464669	0.795528	0.464663
C56	C	-0.131336	1.128861	0.797996
C57	C	0.201998	1.462194	1.131330
C58	C	-0.464687	0.644819	0.464662
C59	C	-0.131354	0.978152	0.797995
C60	C	0.201980	1.311486	1.131328
C61	C	-0.539322	0.613482	0.539079
C62	C	-0.205989	0.946815	0.872412
C63	C	0.127344	1.280149	1.205746
C64	C	-0.539625	0.527863	0.538859
C65	C	-0.206291	0.861197	0.872192
C66	C	0.127042	1.194530	1.205525
C67	C	-0.464705	0.496437	0.464662
C68	C	-0.131372	0.829770	0.797995
C69	C	0.201962	1.163103	1.131328
C70	C	-0.491839	0.527490	0.362883
C71	C	-0.158505	0.860823	0.696217
C72	C	0.174828	1.194156	1.029550
C73	C	-0.492370	0.613135	0.363314
C74	C	-0.159037	0.946468	0.696647
C75	C	0.174297	1.279801	1.029980
C76	C	-0.362733	0.613283	0.491134
C77	C	-0.029400	0.946616	0.824467
C78	C	0.303934	1.279950	1.157800
C79	C	-0.363292	0.527633	0.493375
C80	C	-0.029958	0.860966	0.826709
C81	C	0.303375	1.194300	1.160042
C82	C	-0.464713	0.412577	0.464655
C83	C	-0.131380	0.745910	0.797989
C84	C	0.201953	1.079244	1.131322
C85	C	-0.464681	0.728679	0.464661
C86	C	-0.131348	1.062012	0.797994
C87	C	0.201986	1.395345	1.131328
C88	C	-0.715298	1.070192	0.464627
C89	C	-0.381965	1.403525	0.797961
C90	C	-0.048632	1.736859	1.131294
C91	C	-0.822512	1.070234	0.464650
C92	C	-0.489179	1.403567	0.797983
C93	C	-0.155845	1.736901	1.131317
C94	C	-0.909582	1.070270	0.464672
C95	C	-0.576249	1.403603	0.798005
C96	C	-0.242915	1.736936	1.131339
C97	C	-1.018814	1.070322	0.464697
C98	C	-0.685481	1.403655	0.798030
C99	C	-0.352148	1.736988	1.131364
C100	C	-0.213091	1.070333	0.464693
C101	C	0.120242	1.403666	0.798027
C102	C	0.453576	1.736999	1.131360
C103	C	-0.105877	1.070367	0.464712
C104	C	0.227456	1.403700	0.798045
C105	C	0.560790	1.737034	1.131379
C106	C	-0.464599	1.070305	0.716243
C107	C	-0.131265	1.403638	1.049576
C108	C	0.202068	1.736971	1.382910
C109	C	-0.464562	1.070327	0.823457
C110	C	-0.131229	1.403660	1.156790
C111	C	0.202104	1.736994	1.490124
C112	C	-0.464711	1.263414	0.464657
C113	C	-0.131378	1.596747	0.797990
C114	C	0.201955	1.930081	1.131324
C115	C	-0.464723	1.345728	0.464660
C116	C	-0.131390	1.679061	0.797993
C117	C	0.201944	2.012395	1.131327
C118	C	-0.464699	1.070242	0.214035
C119	C	-0.131366	1.403576	0.547369
C120	C	0.201968	1.736909	0.880702
C121	C	-0.464464	1.070364	0.106822
C122	C	-0.131130	1.403697	0.440155
C123	C	0.202203	1.737030	0.773489
C124	C	-0.464497	1.070347	1.019752
C125	C	-0.131164	1.403681	1.353085
C126	C	0.202170	1.737014	1.686419
C127	C	-0.464536	1.070334	0.910520
C128	C	-0.131203	1.403667	1.243853
C129	C	0.202131	1.737000	1.577186
H130	H	-0.307131	0.633549	0.436937
H131	H	0.026203	0.966883	0.770270
H132	H	0.359536	1.300216	1.103604
H133	H	-0.342823	0.507340	0.568278
H134	H	-0.009490	0.840674	0.901612
H135	H	0.323844	1.174007	1.234945
C136	C	-0.329242	0.642487	0.589705
C137	C	0.004092	0.975821	0.923038
C138	C	0.337425	1.309154	1.256372
H139	H	-0.267583	0.622796	0.604308
H140	H	0.065750	0.956129	0.937641
H141	H	0.399084	1.289462	1.270974
H142	H	-0.373842	0.627814	0.637824
H143	H	-0.040508	0.961147	0.971157
H144	H	0.292825	1.294481	1.304491
H145	H	-0.325629	0.694876	0.587789
H146	H	0.007705	1.028209	0.921122
H147	H	0.341038	1.361543	1.254456
H148	H	-0.615177	0.507353	0.521296
H149	H	-0.281844	0.840686	0.854630
H150	H	0.051489	1.174019	1.187963
C151	C	-0.593031	0.640093	0.333099
C152	C	-0.259698	0.973427	0.666432
C153	C	0.073635	1.306760	0.999766
H154	H	-0.633216	0.598703	0.320682
H155	H	-0.299883	0.932037	0.654015
H156	H	0.033450	1.265370	0.987349
H157	H	-0.587886	0.669312	0.276567
H158	H	-0.254552	1.002645	0.609900
H159	H	0.078781	1.335978	0.943234
H160	H	-0.620103	0.668886	0.383424
H161	H	-0.286770	1.002220	0.716757
H162	H	0.046563	1.335553	1.050091
H163	H	-0.522697	0.506869	0.614313
H164	H	-0.189364	0.840202	0.947647
H165	H	0.143969	1.173536	1.280980
C166	C	-0.516726	0.641336	0.641331
C167	C	-0.183393	0.974669	0.974665
C168	C	0.149940	1.308002	1.307998
H169	H	-0.461577	0.672330	0.639558
H170	H	-0.128244	1.005664	0.972891
H171	H	0.205090	1.338997	1.306224
H172	H	-0.504582	0.600370	0.682275
H173	H	-0.171248	0.933703	1.015609
H174	H	0.162085	1.267037	1.348942
H175	H	-0.570080	0.668509	0.665239
H176	H	-0.236747	1.001842	0.998573
H177	H	0.096587	1.335175	1.331906
C178	C	-0.640804	0.642516	0.515641
C179	C	-0.307471	0.975849	0.848974
C180	C	0.025862	1.309182	1.182308
H181	H	-0.637887	0.673650	0.460698
H182	H	-0.304554	1.006983	0.794032
H183	H	0.028780	1.340317	1.127365
H184	H	-0.664732	0.669773	0.568918
H185	H	-0.331399	1.003106	0.902252
H186	H	0.001935	1.336439	1.235585
H187	H	-0.682400	0.602030	0.502825
H188	H	-0.349066	0.935363	0.836158
H189	H	-0.015733	1.268697	1.169492
C190	C	-0.284203	0.498748	0.425542
C191	C	0.049131	0.832082	0.758876
C192	C	0.382464	1.165415	1.092209
H193	H	-0.312121	0.467148	0.378609
H194	H	0.021212	0.800481	0.711942
H195	H	0.354545	1.133814	1.045275
H196	H	-0.237817	0.472019	0.461714
H197	H	0.095516	0.805352	0.795047
H198	H	0.428850	1.138685	1.128380
H199	H	-0.253888	0.539266	0.394433
H200	H	0.079445	0.872599	0.727766
H201	H	0.412778	1.205932	1.061099
C202	C	-0.422089	0.641142	0.285832
C203	C	-0.088755	0.974476	0.619166
C204	C	0.244578	1.307809	0.952499
H205	H	-0.393347	0.600176	0.254226
H206	H	-0.060013	0.933509	0.587559
H207	H	0.273320	1.266842	0.920892
H208	H	-0.373448	0.670318	0.315251
H209	H	-0.040115	1.003651	0.648584
H210	H	0.293218	1.336984	0.981917
H211	H	-0.456123	0.670202	0.240207
H212	H	-0.122789	1.003535	0.573540
H213	H	0.210544	1.336868	0.906874
H214	H	-0.439145	0.507133	0.305914
H215	H	-0.105811	0.840466	0.639247
H216	H	0.227522	1.173799	0.972581
C217	C	-0.591404	0.498494	0.332140
C218	C	-0.258070	0.831827	0.665474
C219	C	0.075263	1.165161	0.998807
H220	H	-0.616569	0.467473	0.381186
H221	H	-0.283236	0.800806	0.714519
H222	H	0.050097	1.134139	1.047852
H223	H	-0.585387	0.471126	0.274123
H224	H	-0.252054	0.804459	0.607457
H225	H	0.081280	1.137793	0.940790
H226	H	-0.633691	0.539003	0.322167
H227	H	-0.300357	0.872336	0.655501
H228	H	0.032976	1.205670	0.988834
