data_functionalizedCrystal
_audit_creation_method	'MofGen! by Chris Wilmer'
_symmetry_space_group_name_H-M	'P1'
_symmetry_Int_Tables_number	1
_symmetry_cell_setting	triclinic
loop_
_symmetry_equiv_pos_as_xyz
  x,y,z
_cell_length_a	21.295420
_cell_length_b	21.295417
_cell_length_c	16.959447
_cell_angle_alpha	90.035193
_cell_angle_beta	90.015600
_cell_angle_gamma	90.028757
loop_
_atom_site_label
_atom_site_type_symbol
_atom_site_fract_x
_atom_site_fract_y
_atom_site_fract_z
Zn1	Zn	0.962299	-0.250626	0.446909
Zn2	Zn	1.462299	0.249374	0.946909
Zn3	Zn	0.962218	-0.355903	0.314719
Zn4	Zn	1.462218	0.144097	0.814719
Zn5	Zn	0.857039	-0.250648	0.314743
Zn6	Zn	1.357039	0.249352	0.814743
Zn7	Zn	0.856991	-0.355858	0.446855
Zn8	Zn	1.356991	0.144142	0.946855
O9	O	0.909637	-0.303259	0.380807
O10	O	1.409637	0.196741	0.880807
O11	O	1.050378	-0.264601	0.429386
O12	O	1.550378	0.235399	0.929386
O13	O	0.948252	-0.341969	0.204111
O14	O	1.448252	0.158031	0.704111
O15	O	0.871055	-0.162556	0.332308
O16	O	1.371055	0.337444	0.832308
O17	O	1.050318	-0.341947	0.332267
O18	O	1.550318	0.158053	0.832267
O19	O	0.948390	-0.162540	0.429410
O20	O	1.448390	0.337460	0.929410
O21	O	0.870977	-0.264639	0.204129
O22	O	1.370977	0.235361	0.704129
O23	O	0.768943	-0.264595	0.332256
O24	O	1.268943	0.235405	0.832256
O25	O	0.870975	-0.341871	0.557473
O26	O	1.370975	0.158129	1.057473
O27	O	0.768908	-0.341892	0.429317
O28	O	1.268908	0.158108	0.929317
O29	O	0.948344	-0.264557	0.557513
O30	O	1.448344	0.235443	1.057513
O31	O	0.948206	-0.443986	0.332214
O32	O	1.448206	0.056014	0.832214
O33	O	0.870896	-0.443954	0.429294
O34	O	1.370896	0.056046	0.929294
C35	C	0.746085	-0.303242	0.380784
C36	C	1.246085	0.196758	0.880784
C37	C	0.676117	-0.303250	0.380793
C38	C	1.176117	0.196750	0.880793
C39	C	0.909554	-0.466811	0.380763
C40	C	1.409554	0.033189	0.880763
C41	C	0.909577	-0.536779	0.380770
C42	C	1.409577	-0.036779	0.880770
C43	C	0.176657	-0.343582	0.431297
C44	C	0.676657	0.156418	0.931297
C45	C	0.242400	-0.343582	0.431289
C46	C	0.742400	0.156418	0.931289
C47	C	0.275278	-0.303273	0.380831
C48	C	0.775278	0.196727	0.880831
C49	C	0.242407	-0.262973	0.330364
C50	C	0.742407	0.237027	0.830364
C51	C	0.176666	-0.262978	0.330368
C52	C	0.676666	0.237022	0.830368
N53	N	0.378519	-0.248157	0.374889
N54	N	0.878519	0.251843	0.874889
N55	N	0.440971	-0.248154	0.374889
N56	N	0.940971	0.251846	0.874889
C57	C	0.473352	-0.303255	0.380815
C58	C	0.973352	0.196745	0.880815
N59	N	0.440923	-0.358362	0.386754
N60	N	0.940923	0.141638	0.886754
N61	N	0.378466	-0.358365	0.386758
N62	N	0.878466	0.141635	0.886758
C63	C	0.346563	-0.303263	0.380821
C64	C	0.846563	0.196737	0.880821
C65	C	0.577500	-0.343557	0.431266
C66	C	1.077500	0.156443	0.931266
C67	C	0.643244	-0.343558	0.431252
C68	C	1.143244	0.156442	0.931252
C69	C	0.643250	-0.262943	0.330331
C70	C	1.143250	0.237057	0.830331
C71	C	0.577508	-0.262948	0.330341
C72	C	1.077508	0.237052	0.830341
C73	C	0.544637	-0.303254	0.380812
C74	C	1.044637	0.196746	0.880812
C75	C	0.949867	-0.569641	0.330273
C76	C	1.449867	-0.069641	0.830273
C77	C	0.949897	-0.635384	0.330291
C78	C	1.449897	-0.135384	0.830291
C79	C	0.909624	-0.668261	0.380798
C80	C	1.409624	-0.168261	0.880798
C81	C	0.869331	-0.635390	0.431305
C82	C	1.369331	-0.135390	0.931305
C83	C	0.869307	-0.569649	0.431291
C84	C	1.369307	-0.069649	0.931291
N85	N	0.854557	-0.771525	0.386816
N86	N	1.354557	-0.271525	0.886816
N87	N	0.854581	-0.833976	0.386824
N88	N	1.354581	-0.333976	0.886824
C89	C	0.909695	-0.866336	0.380843
C90	C	1.409695	-0.366336	0.880843
N91	N	0.964784	-0.833885	0.374838
N92	N	1.464784	-0.333885	0.874838
N93	N	0.964759	-0.771427	0.374825
N94	N	1.464759	-0.271427	0.874825
C95	C	0.909646	-0.739546	0.380818
C96	C	1.409646	-0.239546	0.880818
C97	C	0.950021	-0.970484	0.330362
C98	C	1.450021	-0.470484	0.830362
C99	C	0.950052	-1.036228	0.330385
C100	C	1.450052	-0.536228	0.830385
C101	C	0.869480	-1.036233	0.431396
C102	C	1.369480	-0.536233	0.931396
C103	C	0.869455	-0.970491	0.431376
C104	C	1.369455	-0.470491	0.931376
C105	C	0.909725	-0.937620	0.380855
C106	C	1.409725	-0.437620	0.880855
C107	C	1.073827	-0.303276	0.380830
C108	C	1.573827	0.196724	0.880830
C109	C	1.143795	-0.303284	0.380840
C110	C	1.643795	0.196716	0.880840
C111	C	0.909663	-0.303207	0.586975
C112	C	1.409663	0.196793	1.086975
C113	C	0.909674	-0.303185	0.674831
C114	C	1.409674	0.196815	1.174831
C115	C	0.909737	-0.139069	0.380868
C116	C	1.409737	0.360931	0.880868
C117	C	0.909779	-0.069100	0.380894
C118	C	1.409779	0.430900	0.880894
C119	C	0.909647	-0.303265	0.175440
C120	C	1.409647	0.196735	0.675440
C121	C	0.909758	-0.303110	0.087584
C122	C	1.409758	0.196890	0.587584
C123	C	0.869467	-0.343372	1.046289
C124	C	1.369467	0.156628	1.546289
C125	C	0.950032	-0.262865	1.046326
C126	C	1.450032	0.237135	1.546326
C127	C	0.950015	-0.262878	0.963780
C128	C	1.450015	0.237122	1.463780
C129	C	0.909724	-0.303139	0.922485
C130	C	1.409724	0.196861	1.422485
C131	C	0.869450	-0.343388	0.963735
C132	C	1.369450	0.156612	1.463735
C133	C	0.990293	-0.222635	0.922523
C134	C	1.490293	0.277365	1.422523
C135	C	0.990278	-0.222647	0.839972
C136	C	1.490278	0.277353	1.339972
C137	C	0.949984	-0.262906	0.798675
C138	C	1.449984	0.237094	1.298675
C139	C	0.909708	-0.303155	0.839931
C140	C	1.409708	0.196845	1.339931
C141	C	0.869417	-0.343417	0.798636
C142	C	1.369417	0.156583	1.298636
C143	C	0.829137	-0.383664	0.839890
C144	C	1.329137	0.116336	1.339890
C145	C	0.829156	-0.383647	0.922439
C146	C	1.329156	0.116353	1.422439
C147	C	0.949965	-0.262923	0.716127
C148	C	1.449965	0.237077	1.216127
C149	C	0.869400	-0.343433	0.716082
C150	C	1.369400	0.156567	1.216082
H151	H	0.149898	-0.376404	0.472393
H152	H	0.649898	0.123596	0.972393
C153	C	0.557270	-0.232163	0.196566
C154	C	1.057270	0.267837	0.696566
C155	C	0.541393	-0.218644	0.274871
C156	C	1.041393	0.281356	0.774871
H157	H	0.534980	-0.204808	0.162317
H158	H	1.034980	0.295192	0.662317
H159	H	0.546468	-0.274442	0.184911
H160	H	1.046468	0.225558	0.684911
H161	H	0.601131	-0.226396	0.189364
H162	H	1.101131	0.273604	0.689364
H163	H	0.497532	-0.224415	0.282075
H164	H	0.997532	0.275585	0.782075
H165	H	0.552191	-0.176355	0.286530
H166	H	1.052191	0.323645	0.786530
H167	H	0.269180	-0.230154	0.289279
H168	H	0.769180	0.269846	0.789279
H169	H	0.670018	-0.230125	0.289244
H170	H	1.170018	0.269875	0.789244
H171	H	0.982813	-0.943720	0.289227
H172	H	1.482813	-0.443720	0.789227
H173	H	0.982659	-0.542880	0.289138
H174	H	1.482659	-0.042880	0.789138
H175	H	0.149910	-0.230161	0.289279
H176	H	0.649910	0.269839	0.789279
C177	C	0.784697	-0.352195	0.623247
C178	C	1.284697	0.147805	1.123247
C179	C	0.825109	-0.387692	0.670698
C180	C	1.325109	0.112308	1.170698
H181	H	0.757352	-0.379521	0.595234
H182	H	1.257352	0.120479	1.095234
H183	H	0.808680	-0.328239	0.586863
H184	H	1.308680	0.171761	1.086863
H185	H	0.760644	-0.324759	0.655468
H186	H	1.260644	0.175241	1.155468
H187	H	0.849166	-0.415125	0.638476
H188	H	1.349166	0.084875	1.138476
H189	H	0.801123	-0.411659	0.707086
H190	H	1.301123	0.088341	1.207086
C191	C	0.316303	-0.428260	0.442090
C192	C	0.816303	0.071740	0.942090
C193	C	0.278531	-0.387879	0.486760
C194	C	0.778531	0.112121	0.986760
H195	H	0.338603	-0.455608	0.476337
H196	H	0.838603	0.044392	0.976337
H197	H	0.345287	-0.404255	0.412042
H198	H	0.845287	0.095745	0.912042
H199	H	0.290632	-0.452311	0.407605
H200	H	0.790632	0.047689	0.907605
H201	H	0.304202	-0.363824	0.521241
H202	H	0.804202	0.136176	1.021241
H203	H	0.249544	-0.411886	0.516822
H204	H	0.749544	0.088114	1.016822
H205	H	0.550735	-0.376377	0.472362
H206	H	1.050735	0.123623	0.972362
C207	C	0.749512	-0.463256	0.848130
C208	C	1.249512	0.036744	1.348130
C209	C	0.784860	-0.427929	0.794494
C210	C	1.284860	0.072071	1.294494
H211	H	0.722184	-0.490588	0.820100
H212	H	1.222184	0.009412	1.320100
H213	H	0.725445	-0.435824	0.880327
H214	H	1.225445	0.064176	1.380327
H215	H	0.776935	-0.487323	0.880328
H216	H	1.276935	0.012677	1.380328
H217	H	0.757436	-0.403858	0.762299
H218	H	1.257436	0.096142	1.262299
H219	H	0.808928	-0.455365	0.762283
H220	H	1.308928	0.044635	1.262283
C221	C	0.636630	-0.423231	0.531021
C222	C	1.136630	0.076769	1.031021
C223	C	0.679369	-0.387857	0.486720
C224	C	1.179369	0.112143	0.986720
H225	H	0.658935	-0.450576	0.565268
H226	H	1.158935	0.049424	1.065268
H227	H	0.610970	-0.447280	0.496534
H228	H	1.110970	0.052720	0.996534
H229	H	0.611009	-0.395824	0.561316
H230	H	1.111009	0.104176	1.061316
H231	H	0.704988	-0.415263	0.456421
H232	H	1.204988	0.084737	0.956421
H233	H	0.705041	-0.363806	0.521212
H234	H	1.205041	0.136194	1.021212
C235	C	1.069932	-0.143063	0.914273
C236	C	1.569932	0.356937	1.414273
C237	C	1.034579	-0.178382	0.967913
C238	C	1.534579	0.321618	1.467913
H239	H	1.097275	-0.115745	0.942300
H240	H	1.597275	0.384255	1.442300
H241	H	1.042516	-0.118988	0.882086
H242	H	1.542516	0.381012	1.382086
H243	H	1.093988	-0.170506	0.882065
H244	H	1.593988	0.329494	1.382065
H245	H	1.010520	-0.150940	1.000118
H246	H	1.510520	0.349060	1.500118
H247	H	1.061998	-0.202459	1.000114
H248	H	1.561998	0.297541	1.500114
C249	C	1.029523	-0.628782	0.230428
C250	C	1.529523	-0.128782	0.730428
C251	C	0.994183	-0.671517	0.274774
C252	C	1.494183	-0.171517	0.774774
H253	H	1.056859	-0.651089	0.196151
H254	H	1.556859	-0.151089	0.696151
H255	H	1.053580	-0.603102	0.264884
H256	H	1.553580	-0.103102	0.764884
H257	H	1.002094	-0.603179	0.200163
H258	H	1.502094	-0.103179	0.700163
H259	H	1.021611	-0.697117	0.305044
H260	H	1.521611	-0.197117	0.805044
H261	H	0.970124	-0.697208	0.240314
H262	H	1.470124	-0.197208	0.740314
C263	C	0.789693	-0.628794	0.531150
C264	C	1.289693	-0.128794	1.031150
C265	C	0.825063	-0.671526	0.486826
C266	C	1.325063	-0.171526	0.986826
H267	H	0.762368	-0.651103	0.565433
H268	H	1.262368	-0.151103	1.065433
H269	H	0.765623	-0.603196	0.496681
H270	H	1.265623	-0.103196	0.996681
H271	H	0.817103	-0.603109	0.561408
H272	H	1.317103	-0.103109	1.061408
H273	H	0.797653	-0.697208	0.456563
H274	H	1.297653	-0.197208	0.956563
H275	H	0.849135	-0.697134	0.521300
H276	H	1.349135	-0.197134	1.021300
C277	C	0.860479	-0.495659	0.537589
C278	C	1.360479	0.004341	1.037589
C279	C	0.825014	-0.533523	0.486800
C280	C	1.325014	-0.033523	0.986800
H281	H	0.833133	-0.473359	0.571859
H282	H	1.333133	0.026641	1.071859
H283	H	0.884452	-0.466676	0.507502
H284	H	1.384452	0.033324	1.007502
H285	H	0.887898	-0.521268	0.567859
H286	H	1.387898	-0.021268	1.067859
H287	H	0.797598	-0.507913	0.456525
H288	H	1.297598	-0.007913	0.956525
H289	H	0.801030	-0.562510	0.516890
H290	H	1.301030	-0.062510	1.016890
H291	H	0.982762	-0.230157	0.682541
H292	H	1.482762	0.269843	1.182541
C293	C	0.793414	-0.419371	1.048963
C294	C	1.293414	0.080629	1.548963
C295	C	0.784886	-0.427885	0.967787
C296	C	1.284886	0.072115	1.467787
H297	H	0.766087	-0.446685	1.076959
H298	H	1.266087	0.053315	1.576959
H299	H	0.784230	-0.377077	1.062506
H300	H	1.284230	0.122923	1.562506
H301	H	0.835709	-0.428587	1.062476
H302	H	1.335709	0.071413	1.562476
H303	H	0.742592	-0.418665	0.954273
H304	H	1.242592	0.081335	1.454273
H305	H	0.794066	-0.470189	0.954238
H306	H	1.294066	0.029811	1.454238
H307	H	0.982865	-1.062984	0.289266
H308	H	1.482865	-0.562984	0.789266
H309	H	0.836692	-1.063001	0.472523
H310	H	1.336692	-0.563001	0.972523
C311	C	0.789811	-0.977101	0.531209
C312	C	1.289811	-0.477101	1.031209
C313	C	0.825157	-0.934363	0.486875
C314	C	1.325157	-0.434363	0.986875
H315	H	0.762460	-0.954797	0.565470
H316	H	1.262460	-0.454797	1.065470
H317	H	0.817230	-1.002697	0.561483
H318	H	1.317230	-0.502697	1.061483
H319	H	0.765763	-1.002788	0.496738
H320	H	1.265763	-0.502788	0.996738
H321	H	0.849208	-0.908680	0.521346
H322	H	1.349208	-0.408680	1.021346
H323	H	0.797734	-0.908757	0.456598
H324	H	1.297734	-0.408757	0.956598
C325	C	0.958848	-0.178179	1.139200
C326	C	1.458848	0.321821	1.639200
C327	C	0.994319	-0.218613	1.091715
C328	C	1.494319	0.281387	1.591715
H329	H	0.986192	-0.150856	1.167220
H330	H	1.486192	0.349144	1.667220
H331	H	0.934872	-0.202148	1.175578
H332	H	1.434872	0.297852	1.675578
H333	H	0.931432	-0.154103	1.107002
H334	H	1.431432	0.345897	1.607002
H335	H	1.021732	-0.242692	1.123915
H336	H	1.521732	0.257308	1.623915
H337	H	1.018306	-0.194641	1.055333
H338	H	1.518306	0.305359	1.555333
C339	C	0.999037	-0.137977	0.747203
C340	C	1.499037	0.362023	1.247203
C341	C	1.034540	-0.178393	0.794635
C342	C	1.534540	0.321607	1.294635
H343	H	1.026360	-0.110655	0.719213
H344	H	1.526360	0.389345	1.219213
H345	H	0.971632	-0.113905	0.779427
H346	H	1.471632	0.386095	1.279427
H347	H	0.975048	-0.161963	0.710791
H348	H	1.475048	0.338037	1.210791
H349	H	1.058526	-0.154407	0.831051
H350	H	1.558526	0.345593	1.331051
H351	H	1.061956	-0.202467	0.762408
H352	H	1.561956	0.297533	1.262408
H353	H	0.836670	-0.376138	1.079882
H354	H	1.336670	0.123862	1.579882
