data_functionalizedCrystal
_audit_creation_method	'MofGen! by Chris Wilmer'
_symmetry_space_group_name_H-M	'P1'
_symmetry_Int_Tables_number	1
_symmetry_cell_setting	triclinic
loop_
_symmetry_equiv_pos_as_xyz
  x,y,z
_cell_length_a	10.654545
_cell_length_b	14.971494
_cell_length_c	9.730223
_cell_angle_alpha	89.997316
_cell_angle_beta	89.997167
_cell_angle_gamma	84.050318
loop_
_atom_site_label
_atom_site_type_symbol
_atom_site_fract_x
_atom_site_fract_y
_atom_site_fract_z
O1	O	1.666500	0.125611	-0.114270
O2	O	1.300893	0.137585	-0.114276
O3	O	1.493490	0.001452	-0.114270
O4	O	1.473903	0.261744	-0.114276
O5	O	1.493478	0.001448	0.114310
O6	O	1.300881	0.137581	0.114304
O7	O	1.666488	0.125607	0.114309
Zn8	Zn	1.483682	0.131594	0.150599
Zn9	Zn	1.483699	0.131599	-0.150565
O10	O	1.473890	0.261741	0.114304
C11	C	1.254098	0.136705	0.000014
C12	C	1.114683	0.134077	0.000011
C13	C	1.049185	0.132838	0.124611
C14	C	0.918192	0.130354	0.124611
C15	C	0.918206	0.130352	-0.124599
C16	C	1.049197	0.132829	-0.124598
C17	C	1.492606	-0.031880	0.000018
C18	C	1.489976	-0.131191	0.000012
C19	C	1.488749	-0.177840	-0.124589
C20	C	1.486269	-0.271153	-0.124591
C21	C	1.485025	-0.317815	0.000010
C22	C	1.486247	-0.271158	0.124620
C23	C	1.488718	-0.177847	0.124620
C24	C	1.481100	-0.465650	0.124610
C25	C	1.478632	-0.558968	0.124611
C26	C	1.478651	-0.558955	-0.124600
C27	C	1.481122	-0.465644	-0.124600
C28	C	1.482347	-0.418994	0.000011
C29	C	1.713283	0.126488	0.000017
C30	C	1.852698	0.129115	0.000010
C31	C	1.474774	0.295072	0.000013
C32	C	1.477405	0.394383	0.000010
N33	N	1.483680	0.131590	0.356135
N34	N	1.483710	0.131595	-0.356101
C35	C	1.568991	0.071336	0.428064
C36	C	1.569004	0.071336	0.571947
C37	C	1.398390	0.191852	0.571960
C38	C	1.398373	0.191847	0.428080
H39	H	1.489769	-0.139855	-0.226053
H40	H	1.102499	0.133853	0.226076
H41	H	0.864872	0.129337	-0.226051
H42	H	1.102528	0.133836	-0.226068
C43	C	1.482451	-0.414335	0.261684
C44	C	1.593115	-0.359668	0.295953
C45	C	1.594473	-0.308355	0.433022
C46	C	1.485166	-0.311709	0.535823
C47	C	1.374494	-0.366379	0.501557
C48	C	1.373136	-0.417692	0.364487
H49	H	1.674037	-0.357183	0.219851
H50	H	1.676400	-0.267885	0.458388
H51	H	1.486172	-0.273724	0.637290
H52	H	1.293572	-0.368864	0.577659
H53	H	1.291209	-0.458162	0.339122
C54	C	1.477307	-0.610261	-0.261679
C55	C	1.584579	-0.683890	-0.295939
C56	C	1.583247	-0.735200	-0.433014
C57	C	1.474642	-0.712880	-0.535829
C58	C	1.367361	-0.639247	-0.501572
C59	C	1.368694	-0.587938	-0.364497
H60	H	1.664983	-0.700416	-0.219826
H61	H	1.662664	-0.789708	-0.458372
H62	H	1.473655	-0.750862	-0.637300
H63	H	1.286958	-0.622722	-0.577685
H64	H	1.289277	-0.533430	-0.339139
H65	H	1.485276	-0.309131	-0.226053
H66	H	1.638452	0.022269	0.369490
C67	C	1.490071	-0.126528	0.261682
C68	C	1.382796	-0.052901	0.295946
C69	C	1.384141	-0.001583	0.433012
C70	C	1.492761	-0.023890	0.535813
C71	C	1.600044	-0.097521	0.501552
C72	C	1.598698	-0.148840	0.364486
H73	H	1.302382	-0.036385	0.219844
H74	H	1.304723	0.052923	0.458374
H75	H	1.493757	0.014099	0.637277
H76	H	1.680458	-0.114038	0.577654
H77	H	1.678117	-0.203346	0.339124
H78	H	1.477607	-0.596957	0.226071
C79	C	1.304564	0.258140	0.651099
C80	C	1.304649	0.258206	0.809362
C81	C	1.210823	0.324498	0.888497
C82	C	1.116912	0.390725	0.809369
C83	C	1.116824	0.390662	0.651097
C84	C	1.210650	0.324370	0.571962
H85	H	1.374170	0.209178	0.867945
H86	H	1.210889	0.324544	1.005660
H87	H	1.047457	0.439799	0.867949
H88	H	1.047303	0.439690	0.592514
H89	H	1.210584	0.324324	0.454799
C90	C	1.662851	0.005058	0.651070
C91	C	1.756701	-0.061206	0.571931
C92	C	1.850551	-0.127487	0.651054
C93	C	1.850549	-0.127505	0.809317
C94	C	1.756695	-0.061238	0.888465
C95	C	1.662846	0.005043	0.809341
H96	H	1.756705	-0.061195	0.454767
H97	H	1.920028	-0.176542	0.592462
H98	H	1.920022	-0.176570	0.867888
H99	H	1.756691	-0.061249	1.005628
H100	H	1.593369	0.054098	0.867933
H101	H	1.482145	-0.427655	-0.226061
H102	H	1.485226	-0.309158	0.226071
H103	H	1.328896	0.240913	0.369511
H104	H	0.864869	0.129345	0.226073
