data_functionalizedCrystal
_audit_creation_method	'MofGen! by Chris Wilmer'
_symmetry_space_group_name_H-M	'P1'
_symmetry_Int_Tables_number	1
_symmetry_cell_setting	triclinic
loop_
_symmetry_equiv_pos_as_xyz
  x,y,z
_cell_length_a	10.654549
_cell_length_b	8.559649
_cell_length_c	9.130313
_cell_angle_alpha	90.002037
_cell_angle_beta	90.001764
_cell_angle_gamma	77.131721
loop_
_atom_site_label
_atom_site_type_symbol
_atom_site_fract_x
_atom_site_fract_y
_atom_site_fract_z
O1	O	1.644681	0.224181	0.121758
O2	O	1.276996	0.245540	0.121768
O3	O	1.493232	0.002618	0.121761
O4	O	1.428445	0.467104	0.121766
O5	O	1.493222	0.002613	-0.121838
O6	O	1.276986	0.245536	-0.121831
O7	O	1.644671	0.224176	-0.121840
Cu8	Cu	1.460827	0.234856	-0.144078
Cu9	Cu	1.460839	0.234861	0.144006
O10	O	1.428435	0.467099	-0.121833
C11	C	1.230355	0.243970	-0.000030
C12	C	1.091396	0.239278	-0.000026
C13	C	1.498136	-0.056860	-0.000036
C14	C	1.512751	-0.234078	-0.000028
C15	C	0.866564	0.377886	-0.000031
C16	C	0.997128	0.382307	-0.000022
C17	C	1.055096	0.091818	-0.000024
C18	C	0.924534	0.087400	-0.000023
C19	C	1.691312	0.225747	-0.000039
C20	C	1.830270	0.230439	-0.000033
C21	C	1.423530	0.526577	-0.000033
C22	C	1.408916	0.703795	-0.000031
N23	N	1.460828	0.234851	-0.346701
C24	C	1.556608	0.127325	-0.576703
C25	C	1.556600	0.127327	-0.423366
C26	C	1.365065	0.342390	-0.423381
C27	C	1.365079	0.342395	-0.576715
N28	N	1.460850	0.234853	0.346628
H29	H	1.026669	0.502374	-0.000019
H30	H	1.634576	0.039770	-0.360946
H31	H	1.287089	0.429946	-0.360951
C32	C	1.175737	0.554972	-0.561340
C33	C	1.259810	0.460594	-0.661001
H34	H	1.110751	0.627934	-0.613379
H35	H	1.222399	0.613005	-0.501525
H36	H	1.137026	0.487979	-0.501543
H37	H	1.298528	0.527587	-0.720791
H38	H	1.213141	0.402557	-0.720842
H39	H	1.612835	-0.316475	-0.000043
H40	H	0.789816	0.494358	-0.000038
C41	C	1.235570	-0.071724	0.125188
C42	C	1.158719	-0.065400	-0.000029
H43	H	1.299545	-0.168783	0.125174
H44	H	1.183438	-0.067422	0.210123
H45	H	1.275863	0.016734	0.125172
H46	H	1.118418	-0.153853	-0.000008
H47	H	1.210858	-0.069718	-0.084986
C48	C	0.994941	-0.199305	-0.000041
C49	C	0.884634	-0.074688	-0.000031
H50	H	0.970303	-0.299364	-0.000051
H51	H	1.044660	-0.191544	0.084901
H52	H	1.044656	-0.191533	-0.084996
H53	H	0.834922	-0.082454	0.084930
H54	H	0.834893	-0.082453	-0.084982
C55	C	1.745930	-0.085253	-0.561281
C56	C	1.661881	0.009124	-0.660965
H57	H	1.810927	-0.158219	-0.613301
H58	H	1.699251	-0.143281	-0.501488
H59	H	1.784629	-0.018259	-0.501464
H60	H	1.623175	-0.057869	-0.720775
H61	H	1.708566	0.067156	-0.720783
H62	H	1.308838	-0.213817	-0.000033
