data_functionalizedCrystal
_audit_creation_method	'MofGen! by Chris Wilmer'
_symmetry_space_group_name_H-M	'P1'
_symmetry_Int_Tables_number	1
_symmetry_cell_setting	triclinic
loop_
_symmetry_equiv_pos_as_xyz
  x,y,z
_cell_length_a	16.109301
_cell_length_b	10.967829
_cell_length_c	15.186229
_cell_angle_alpha	77.868373
_cell_angle_beta	89.999362
_cell_angle_gamma	84.100403
loop_
_atom_site_label
_atom_site_type_symbol
_atom_site_fract_x
_atom_site_fract_y
_atom_site_fract_z
O1	O	1.104076	0.160392	-0.097510
O2	O	0.862131	0.180353	-0.100553
O3	O	0.988683	-0.011279	-0.071462
O4	O	0.977524	0.352025	-0.126601
O5	O	0.988674	-0.011282	0.074995
O6	O	0.862123	0.180350	0.045905
O7	O	1.104067	0.160390	0.048948
Zn8	Zn	0.983093	0.170370	0.070680
Zn9	Zn	0.983105	0.170373	-0.122285
O10	O	0.977515	0.352022	0.019857
C11	C	0.831147	0.179543	-0.027203
C12	C	0.738838	0.177119	-0.026840
C13	C	0.517202	0.285194	-0.043232
C14	C	0.430468	0.282906	-0.042880
C15	C	0.449003	0.055541	-0.008376
C16	C	0.535735	0.057829	-0.008723
C17	C	0.569832	0.172659	-0.026156
C18	C	0.396366	0.168083	-0.025457
C19	C	0.302325	0.165602	-0.025074
C20	C	0.663879	0.175141	-0.026537
C21	C	0.987866	-0.057770	0.008820
C22	C	0.985435	-0.196294	0.029838
C23	C	0.984355	-0.258044	-0.036662
C24	C	0.981843	-0.401216	-0.014941
C25	C	1.135051	0.161200	-0.024404
C26	C	1.227360	0.163624	-0.024772
C27	C	0.978332	0.398513	-0.060427
C28	C	0.980763	0.537037	-0.081451
N29	N	0.983092	0.170366	0.202373
N30	N	0.983113	0.170367	-0.253976
C31	C	1.039148	0.085540	0.440973
C32	C	1.039151	0.085537	0.533163
C33	C	0.927050	0.255197	0.507417
C34	C	0.927044	0.255193	0.415229
C35	C	0.983098	0.170366	0.382009
C36	C	0.983107	0.170367	0.566387
C37	C	0.983109	0.170364	0.666343
C38	C	0.983095	0.170367	0.282047
H39	H	0.578589	-0.033815	0.005186
C40	C	0.980578	-0.472968	0.083705
C41	C	0.906937	-0.548291	0.117004
C42	C	0.905673	-0.620045	0.215648
C43	C	0.978049	-0.616475	0.280992
C44	C	1.051696	-0.541149	0.247693
C45	C	1.052960	-0.469396	0.149050
H46	H	0.853355	-0.550937	0.068632
H47	H	0.851155	-0.675806	0.240297
H48	H	0.977113	-0.669591	0.354013
H49	H	1.105278	-0.538504	0.296066
H50	H	1.107478	-0.413634	0.124401
C51	C	1.100799	-0.007776	0.404431
C52	C	1.098591	-0.149874	0.438679
C53	C	1.160241	-0.243197	0.402141
C54	C	1.224101	-0.194422	0.331357
C55	C	1.226312	-0.052317	0.297105
C56	C	1.164661	0.041005	0.333643
H57	H	1.051316	-0.185986	0.491081
H58	H	1.158604	-0.348392	0.427497
H59	H	1.269739	-0.263505	0.304310
H60	H	1.273587	-0.016205	0.244703
H61	H	1.166299	0.146201	0.308287
C62	C	0.865399	0.348513	0.543958
C63	C	0.865447	0.348597	0.645349
C64	C	0.803796	0.441920	0.681886
C65	C	0.742098	0.535159	0.617033
C66	C	0.742047	0.535079	0.515636
C67	C	0.803698	0.441756	0.479099
H68	H	0.911122	0.279573	0.693362
H69	H	0.803834	0.441978	0.756947
H70	H	0.696460	0.604242	0.644080
H71	H	0.696372	0.604103	0.467622
H72	H	0.803661	0.441697	0.404038
H73	H	0.984493	-0.249420	0.102851
H74	H	1.084791	0.016463	0.581169
H75	H	0.544961	0.378696	-0.057421
C76	C	0.411492	-0.070766	0.010792
C77	C	0.431057	-0.164241	0.101029
C78	C	0.393547	-0.290551	0.120196
C79	C	0.336473	-0.323385	0.049124
C80	C	0.316905	-0.229907	-0.041119
C81	C	0.354414	-0.103598	-0.060285
H82	H	0.473309	-0.139938	0.153646
H83	H	0.408033	-0.359748	0.187000
H84	H	0.308706	-0.416886	0.063313
H85	H	0.274652	-0.254211	-0.093736
H86	H	0.339929	-0.034400	-0.127090
H87	H	0.985288	-0.204917	-0.109676
C88	C	0.372575	0.406696	-0.061669
C89	C	0.277172	0.404189	-0.061283
C90	C	0.219278	0.527985	-0.080072
C91	C	0.256788	0.654287	-0.099246
C92	C	0.352195	0.656799	-0.099632
C93	C	0.410089	0.533003	-0.080844
H94	H	0.249401	0.310688	-0.047088
H95	H	0.148651	0.526125	-0.079786
H96	H	0.213931	0.745928	-0.113155
H97	H	0.379966	0.750300	-0.113827
H98	H	0.480716	0.534863	-0.081130
H99	H	0.981690	-0.409841	-0.154470
H100	H	0.881397	0.324269	0.367218
