data_functionalizedCrystal
_audit_creation_method	'MofGen! by Chris Wilmer'
_symmetry_space_group_name_H-M	'P1'
_symmetry_Int_Tables_number	1
_symmetry_cell_setting	triclinic
loop_
_symmetry_equiv_pos_as_xyz
  x,y,z
_cell_length_a	9.065218
_cell_length_b	14.971486
_cell_length_c	13.448316
_cell_angle_alpha	90.001801
_cell_angle_beta	89.995277
_cell_angle_gamma	95.684993
loop_
_atom_site_label
_atom_site_type_symbol
_atom_site_fract_x
_atom_site_fract_y
_atom_site_fract_z
O1	O	0.192261	-1.188380	-0.082573
O2	O	0.215285	-0.928152	-0.082600
O3	O	-0.010978	-1.063645	-0.082584
O4	O	0.418525	-1.052887	-0.082589
O5	O	-0.010992	-1.063628	0.082800
O6	O	0.215271	-0.928134	0.082784
O7	O	0.192248	-1.188363	0.082811
Cu8	Cu	0.203758	-1.058247	0.097898
Cu9	Cu	0.203775	-1.058268	-0.097687
O10	O	0.418511	-1.052870	0.082795
C11	C	-0.065951	-1.062602	0.000106
C12	C	-0.229731	-1.059511	0.000101
C13	C	0.214248	-0.894811	0.000089
C14	C	0.211163	-0.795491	0.000078
C15	C	0.193284	-1.221704	0.000120
C16	C	0.196370	-1.321024	0.000124
C17	C	0.473483	-1.053912	0.000102
C18	C	0.637264	-1.057004	0.000101
N19	N	0.203746	-1.058239	0.235462
C20	C	0.344086	-0.739256	0.000078
C21	C	0.341178	-0.645935	0.000093
C22	C	0.205345	-0.608850	0.000101
C23	C	0.072412	-0.665092	0.000104
C24	C	0.075321	-0.758411	0.000096
C25	C	0.066357	-0.470584	0.000118
C26	C	0.063446	-0.377259	0.000124
C27	C	0.332214	-0.358108	0.000115
C28	C	0.335123	-0.451427	0.000107
C29	C	0.202189	-0.507663	0.000108
N30	N	0.203775	-1.058283	-0.235252
C31	C	0.103597	-1.118255	0.287510
C32	C	0.103596	-1.118260	0.391613
C33	C	0.203751	-1.058254	0.443667
C34	C	0.303904	-0.998232	0.391612
C35	C	0.303897	-0.998223	0.287511
C36	C	0.303914	-0.998257	0.608592
C37	C	0.303924	-0.998267	0.712701
C38	C	0.103613	-1.118294	0.712694
C39	C	0.103606	-1.118285	0.608593
C40	C	0.203761	-1.058264	0.556546
H41	H	0.454697	-0.769442	0.000071
H42	H	0.385446	-0.949351	0.245135
H43	H	0.449418	-0.600152	0.000092
C44	C	-0.005304	-1.183283	0.448168
C45	C	-0.095789	-1.134925	0.507926
C46	C	-0.196144	-1.194798	0.560025
H47	H	0.047699	-1.220969	0.488850
H48	H	-0.065028	-1.219007	0.402283
H49	H	-0.036073	-1.099217	0.553805
H50	H	-0.148825	-1.097243	0.467269
H51	H	-0.255867	-1.230521	0.514140
H52	H	-0.143129	-1.232480	0.600701
H53	H	-0.257559	-1.161996	0.600570
H54	H	0.445730	-0.481618	0.000091
C55	C	-0.077927	-0.531684	0.000320
C56	C	-0.084143	-0.585808	0.085413
C57	C	-0.217039	-0.642095	0.085634
H58	H	-0.082513	-0.568566	-0.057289
H59	H	-0.159283	-0.496264	0.000376
H60	H	-0.002810	-0.621225	0.085349
H61	H	-0.079583	-0.548951	0.143037
H62	H	-0.298395	-0.606674	0.085690
H63	H	-0.221613	-0.678970	0.028021
H64	H	-0.221281	-0.678819	0.143373
H65	H	-0.038186	-0.634890	0.000125
H66	H	0.022064	-1.167165	0.755078
C67	C	-0.068953	-0.819513	0.000297
C68	C	-0.075158	-0.873633	0.085393
C69	C	-0.208053	-0.929920	0.085623
H70	H	-0.073544	-0.856397	-0.057310
H71	H	-0.150309	-0.784093	0.000355
H72	H	0.006176	-0.909049	0.085327
H73	H	-0.070592	-0.836773	0.143014
H74	H	-0.289409	-0.894501	0.085681
H75	H	-0.212632	-0.966799	0.028012
H76	H	-0.212287	-0.966641	0.143364
C77	C	0.412420	-0.932987	0.552030
C78	C	0.333682	-0.877578	0.492300
C79	C	0.433589	-0.817438	0.440191
H80	H	0.473957	-0.965550	0.511329
H81	H	0.472052	-0.897201	0.597909
H82	H	0.274076	-0.913360	0.446426
H83	H	0.272150	-0.844995	0.532976
H84	H	0.493221	-0.781652	0.486070
H85	H	0.495121	-0.850009	0.399496
H86	H	0.380180	-0.779831	0.399665
H87	H	0.440454	-0.312316	0.000118
H88	H	0.022060	-1.167151	0.566211
H89	H	-0.047161	-0.347068	0.000132
H90	H	0.385479	-0.949403	0.755078
C91	C	-0.005311	-1.183445	0.231179
C92	C	-0.093044	-1.235988	0.299047
C93	C	-0.193405	-1.296042	0.247194
H94	H	0.047684	-1.221188	0.190554
H95	H	-0.066898	-1.150792	0.190601
H96	H	-0.031465	-1.268638	0.339607
H97	H	-0.146072	-1.198270	0.339673
H98	H	-0.254992	-1.263389	0.206617
H99	H	-0.140397	-1.333778	0.206572
H100	H	-0.252953	-1.331693	0.293235
H101	H	0.385448	-0.949369	0.434001
