data_functionalizedCrystal
_audit_creation_method	'MofGen! by Chris Wilmer'
_symmetry_space_group_name_H-M	'P1'
_symmetry_Int_Tables_number	1
_symmetry_cell_setting	triclinic
loop_
_symmetry_equiv_pos_as_xyz
  x,y,z
_cell_length_a	10.654550
_cell_length_b	10.654550
_cell_length_c	9.130313
_cell_angle_alpha	89.999890
_cell_angle_beta	89.996220
_cell_angle_gamma	84.484903
loop_
_atom_site_label
_atom_site_type_symbol
_atom_site_fract_x
_atom_site_fract_y
_atom_site_fract_z
O1	O	1.667834	0.176393	-0.121916
O2	O	1.302356	0.193199	-0.121892
O3	O	1.493498	0.002057	-0.121899
O4	O	1.476692	0.367535	-0.121909
O5	O	1.493496	0.002062	0.121700
O6	O	1.302353	0.193204	0.121707
O7	O	1.667832	0.176398	0.121683
Cu8	Cu	1.485092	0.184802	0.143937
Cu9	Cu	1.485095	0.184796	-0.144146
O10	O	1.476689	0.367540	0.121690
C11	C	1.255556	0.191968	-0.000089
C12	C	1.116113	0.188276	-0.000080
C13	C	1.036627	0.300817	-0.000105
C14	C	0.905607	0.297341	-0.000130
C15	C	0.933570	0.068771	-0.000113
C16	C	1.064588	0.072249	-0.000077
C17	C	1.020482	0.432780	-0.000121
C18	C	0.889461	0.429304	-0.000146
C19	C	1.492263	-0.044739	-0.000101
C20	C	1.488571	-0.184182	-0.000106
C21	C	1.601112	-0.263668	-0.000109
C22	C	1.597636	-0.394688	-0.000119
C23	C	1.369066	-0.366725	-0.000117
C24	C	1.372544	-0.235707	-0.000118
C25	C	1.733075	-0.279813	-0.000104
C26	C	1.729599	-0.410834	-0.000114
C27	C	1.714631	0.177630	-0.000123
C28	C	1.854074	0.181321	-0.000141
C29	C	1.477925	0.414336	-0.000111
C30	C	1.481616	0.553779	-0.000116
N31	N	1.485099	0.184805	0.346560
N32	N	1.485098	0.184782	-0.346769
C33	C	1.569759	0.100196	0.423209
C34	C	1.569756	0.100181	0.576546
C35	C	1.400429	0.269395	0.576571
C36	C	1.400427	0.269403	0.423237
C37	C	1.667523	0.002506	0.423195
C38	C	1.667519	0.002491	0.576532
H39	H	1.056138	0.474797	-0.105294
C40	C	1.789110	-0.232520	0.140247
C41	C	1.912704	-0.288380	0.156739
C42	C	1.964254	-0.244886	0.286098
H43	H	1.739722	-0.254144	0.221404
H44	H	1.789648	-0.143491	0.135639
H45	H	1.912159	-0.377388	0.161360
H46	H	1.962124	-0.266761	0.075615
H47	H	1.964792	-0.155858	0.281490
H48	H	1.914857	-0.266513	0.367245
H49	H	2.048122	-0.282771	0.297298
H50	H	1.779319	-0.452592	0.101827
C51	C	1.308445	0.361395	0.340282
C52	C	1.234321	0.435498	0.440256
C53	C	1.149580	0.520268	0.363892
H54	H	1.255664	0.315870	0.280463
H55	H	1.354033	0.414177	0.280496
H56	H	1.188736	0.382723	0.500016
H57	H	1.287067	0.481051	0.500078
H58	H	1.195168	0.573050	0.304106
H59	H	1.096808	0.474732	0.304076
H60	H	1.099284	0.570565	0.431712
C61	C	1.801871	-0.240900	-0.136157
C62	C	1.840478	-0.348082	-0.219379
C63	C	1.903838	-0.312282	-0.344727
H64	H	1.873603	-0.200156	-0.108033
H65	H	1.746915	-0.184665	-0.192874
H66	H	1.895432	-0.404296	-0.162673
H67	H	1.768771	-0.388839	-0.247541
H68	H	1.848881	-0.256047	-0.401444
H69	H	1.975564	-0.271537	-0.316589
H70	H	1.930030	-0.384997	-0.401216
C71	C	1.250217	-0.149616	-0.000053
C72	C	1.147868	-0.222787	-0.000022
C73	C	1.035157	-0.143524	0.000057
H74	H	1.246653	-0.097899	-0.084978
H75	H	1.246744	-0.097943	0.084930
H76	H	1.151339	-0.274439	-0.084995
H77	H	1.151391	-0.274502	0.084897
H78	H	1.031684	-0.091851	0.085040
H79	H	1.031605	-0.091810	-0.084869
H80	H	0.965700	-0.193158	0.000092
C81	C	1.638843	-0.126265	0.367977
C82	C	1.621302	-0.205043	0.487495
C83	C	1.594864	-0.323666	0.436685
H84	H	1.707284	-0.162113	0.310203
H85	H	1.564344	-0.117445	0.310227
H86	H	1.695792	-0.213867	0.545221
H87	H	1.552858	-0.169236	0.545282
H88	H	1.520365	-0.314846	0.378935
H89	H	1.663308	-0.359501	0.378910
H90	H	1.582948	-0.377128	0.517769
C91	C	1.789221	0.043254	0.360039
C92	C	1.869840	0.070254	0.474500
C93	C	1.981964	0.107782	0.416375
H94	H	1.770875	0.116424	0.301506
H95	H	1.828952	-0.022791	0.301515
H96	H	1.830116	0.136294	0.532999
H97	H	1.888221	-0.002897	0.533042
H98	H	2.021696	0.041737	0.357851
H99	H	1.963606	0.180949	0.357843
H100	H	2.036682	0.126095	0.494027
H101	H	1.769481	-0.456479	-0.105296
H102	H	1.129302	-0.019393	-0.000036
H103	H	1.637006	-0.088732	0.624084
H104	H	0.891602	-0.025694	-0.000132
H105	H	1.049812	0.484393	0.101829
H106	H	0.843789	0.469187	0.105021
H107	H	0.847729	0.479023	-0.102101
H108	H	1.274601	-0.408693	-0.000128
H109	H	1.331490	0.338271	0.639019
H110	H	1.764031	0.024009	0.618142
