data_functionalizedCrystal
_audit_creation_method	'MofGen! by Chris Wilmer'
_symmetry_space_group_name_H-M	'P1'
_symmetry_Int_Tables_number	1
_symmetry_cell_setting	triclinic
loop_
_symmetry_equiv_pos_as_xyz
  x,y,z
_cell_length_a	12.759401
_cell_length_b	16.625546
_cell_length_c	12.759393
_cell_angle_alpha	90.036194
_cell_angle_beta	90.018496
_cell_angle_gamma	90.022629
loop_
_atom_site_label
_atom_site_type_symbol
_atom_site_fract_x
_atom_site_fract_y
_atom_site_fract_z
Zn1	Zn	1.606199	-0.320951	0.593948
Zn2	Zn	2.106199	0.179049	1.093948
Zn3	Zn	1.606069	-0.455807	0.418253
Zn4	Zn	2.106069	0.044193	0.918253
Zn5	Zn	1.430501	-0.320993	0.418287
Zn6	Zn	1.930501	0.179007	0.918287
Zn7	Zn	1.430465	-0.455745	0.593895
Zn8	Zn	1.930465	0.044255	1.093895
O9	O	1.518308	-0.388374	0.506096
O10	O	2.018308	0.111626	1.006096
O11	O	1.753203	-0.338848	0.570649
O12	O	2.253203	0.161152	1.070649
O13	O	1.582740	-0.437968	0.271237
O14	O	2.082740	0.062032	0.771237
O15	O	1.453876	-0.208155	0.441625
O16	O	1.953876	0.291845	0.941625
O17	O	1.753107	-0.437927	0.441568
O18	O	2.253107	0.062073	0.941568
O19	O	1.582961	-0.208124	0.570682
O20	O	2.082961	0.291876	1.070682
O21	O	1.453751	-0.338920	0.271261
O22	O	1.953751	0.161080	0.771261
O23	O	1.283475	-0.338860	0.441574
O24	O	1.783475	0.161140	0.941574
O25	O	1.453816	-0.437821	0.740923
O26	O	1.953816	0.062179	1.240923
O27	O	1.283449	-0.437862	0.570592
O28	O	1.783449	0.062138	1.070592
O29	O	1.582927	-0.338788	0.740962
O30	O	2.082927	0.161212	1.240962
O31	O	1.582706	-0.568632	0.441517
O32	O	2.082706	-0.068632	0.941517
O33	O	1.453691	-0.568586	0.570560
O34	O	1.953691	-0.068586	1.070560
C35	C	1.245341	-0.388359	0.506081
C36	C	1.745341	0.111641	1.006081
C37	C	1.128564	-0.388372	0.506100
C38	C	1.628564	0.111628	1.006100
C39	C	1.073717	-0.440005	0.573169
C40	C	1.573717	0.059995	1.073169
C41	C	0.963992	-0.440015	0.573180
C42	C	1.463992	0.059985	1.073180
C43	C	0.963974	-0.336758	0.439045
C44	C	1.463974	0.163242	0.939045
C45	C	1.073696	-0.336744	0.439040
C46	C	1.573696	0.163256	0.939040
C47	C	1.073726	-0.499623	0.650608
C48	C	1.573726	0.000377	1.150608
C49	C	0.964002	-0.499633	0.650619
C50	C	1.464002	0.000367	1.150619
C51	C	1.518209	-0.597865	0.506052
C52	C	2.018209	-0.097865	1.006052
C53	C	1.518263	-0.687486	0.506068
C54	C	2.018263	-0.187486	1.006068
C55	C	1.518446	-1.015662	0.506177
C56	C	2.018446	-0.515662	1.006177
C57	C	1.518392	-0.924353	0.506150
C58	C	2.018392	-0.424353	1.006150
C59	C	1.518353	-0.851577	0.506122
C60	C	2.018353	-0.351577	1.006122
C61	C	1.518301	-0.760262	0.506096
C62	C	2.018301	-0.260262	1.006096
C63	C	1.792342	-0.388390	0.506111
C64	C	2.292342	0.111610	1.006111
C65	C	1.909118	-0.388396	0.506117
C66	C	2.409118	0.111604	1.006117
C67	C	1.518382	-0.388293	0.780129
C68	C	2.018382	0.111707	1.280129
C69	C	1.518413	-0.388258	0.896906
C70	C	2.018413	0.111742	1.396906
C71	C	1.518437	-0.178065	0.506163
C72	C	2.018437	0.321935	1.006163
C73	C	1.518492	-0.088444	0.506191
C74	C	2.018492	0.411556	1.006191
C75	C	1.518296	-0.388397	0.233128
C76	C	2.018296	0.111603	0.733128
C77	C	1.518468	-0.388204	0.116352
C78	C	2.018468	0.111796	0.616352
C79	C	1.585650	-0.336687	0.951790
C80	C	2.085650	0.163313	1.451790
C81	C	1.585675	-0.336657	1.061514
C82	C	2.085675	0.163343	1.561514
C83	C	1.451223	-0.439778	1.061461
C84	C	1.951223	0.060222	1.561461
C85	C	1.451194	-0.439803	0.951739
C86	C	1.951194	0.060197	1.451739
C87	C	1.663279	-0.277153	0.951821
C88	C	2.163279	0.222847	1.451821
C89	C	1.663304	-0.277124	1.061546
C90	C	2.163304	0.222876	1.561546
H91	H	0.934196	-0.562065	0.628680
H92	H	1.434196	-0.062065	1.128680
C93	C	1.318276	-0.541712	0.962712
C94	C	1.818276	-0.041712	1.462712
C95	C	1.377268	-0.496479	0.891409
C96	C	1.877268	0.003521	1.391409
H97	H	1.272638	-0.576703	0.925465
H98	H	1.772638	-0.076703	1.425465
H99	H	1.278140	-0.506563	1.005524
H100	H	1.778140	-0.006563	1.505524
H101	H	1.364047	-0.572558	1.005493
H102	H	1.864047	-0.072558	1.505493
H103	H	1.331498	-0.465628	0.848633
H104	H	1.831498	0.034372	1.348633
H105	H	1.417408	-0.531632	0.848579
H106	H	1.917408	-0.031632	1.348579
H107	H	1.107730	-0.558911	0.621317
H108	H	1.607730	-0.058911	1.121317
C109	C	1.716002	-0.162311	0.850708
C110	C	2.216002	0.337689	1.350708
C111	C	1.633900	-0.192862	0.911651
C112	C	2.133900	0.307138	1.411651
H113	H	1.697865	-0.110273	0.825915
H114	H	2.197865	0.389727	1.325915
H115	H	1.728068	-0.197016	0.792799
H116	H	2.228068	0.302984	1.292799
H117	H	1.777753	-0.158913	0.892088
H118	H	2.277753	0.341087	1.392088
H119	H	1.572151	-0.196265	0.870269
H120	H	2.072151	0.303735	1.370269
H121	H	1.621822	-0.158148	0.969568
H122	H	2.121822	0.341852	1.469568
H123	H	1.744671	-0.293849	1.091322
H124	H	2.244671	0.206151	1.591322
C125	C	1.241882	-0.290867	0.379482
C126	C	1.741882	0.209133	0.879482
C127	C	1.133988	-0.279982	0.365325
C128	C	1.633988	0.220018	0.865325
H129	H	1.279101	-0.255819	0.333975
H130	H	1.779101	0.244181	0.833975
H131	H	1.259836	-0.345018	0.363966
H132	H	1.759836	0.154982	0.863966
H133	H	1.259882	-0.279133	0.450104
H134	H	1.759882	0.220867	0.950104
H135	H	1.115986	-0.291721	0.294704
H136	H	1.615986	0.208279	0.794704
H137	H	1.116026	-0.225818	0.380833
H138	H	1.616026	0.274182	0.880833
C139	C	0.795769	-0.290935	0.379486
C140	C	1.295769	0.209065	0.879486
C141	C	0.903659	-0.280019	0.365322
C142	C	1.403659	0.219981	0.865322
H143	H	0.758537	-0.255911	0.333963
H144	H	1.258537	0.244089	0.833963
H145	H	0.777822	-0.279194	0.450095
H146	H	1.277822	0.220806	0.950095
H147	H	0.777776	-0.345102	0.363988
H148	H	1.277776	0.154898	0.863988
H149	H	0.921652	-0.225853	0.380828
H150	H	1.421652	0.274147	0.880828
H151	H	0.921613	-0.291755	0.294697
H152	H	1.421613	0.208245	0.794697
C153	C	1.521304	-0.182854	1.073607
C154	C	2.021304	0.317146	1.573607
C155	C	1.624028	-0.197026	1.107519
C156	C	2.124028	0.302974	1.607519
H157	H	1.497059	-0.133405	1.101984
H158	H	1.997059	0.366595	1.601984
H159	H	1.477227	-0.225380	1.096583
H160	H	1.977227	0.274620	1.596583
H161	H	1.519967	-0.180154	0.999253
H162	H	2.019967	0.319846	1.499253
H163	H	1.625364	-0.199732	1.181873
H164	H	2.125364	0.300268	1.681873
H165	H	1.668117	-0.154490	1.084549
H166	H	2.168117	0.345510	1.584549
C167	C	1.174983	-0.407286	0.754122
C168	C	1.674983	0.092714	1.254122
C169	C	1.113989	-0.477144	0.760499
C170	C	1.613989	0.022856	1.260499
H171	H	1.199845	-0.393415	0.821962
H172	H	1.699845	0.106585	1.321962
H173	H	1.133626	-0.364531	0.727207
H174	H	1.633626	0.135469	1.227207
H175	H	1.232857	-0.416542	0.708883
H176	H	1.732857	0.083458	1.208883
H177	H	1.056111	-0.467886	0.805733
H178	H	1.556111	0.032114	1.305733
H179	H	1.155348	-0.519909	0.787428
H180	H	1.655348	-0.019909	1.287428
H181	H	1.396493	-0.481742	1.106119
H182	H	1.896493	0.018258	1.606119
H183	H	0.930008	-0.477343	0.727974
H184	H	1.430008	0.022657	1.227974
H185	H	1.740546	-0.299539	0.917783
H186	H	2.240546	0.200461	1.417783
