data_functionalizedCrystal
_audit_creation_method	'MofGen! by Chris Wilmer'
_symmetry_space_group_name_H-M	'P1'
_symmetry_Int_Tables_number	1
_symmetry_cell_setting	triclinic
loop_
_symmetry_equiv_pos_as_xyz
  x,y,z
_cell_length_a	17.699077
_cell_length_b	17.699083
_cell_length_c	7.540329
_cell_angle_alpha	89.995522
_cell_angle_beta	89.997601
_cell_angle_gamma	83.281795
loop_
_atom_site_label
_atom_site_type_symbol
_atom_site_fract_x
_atom_site_fract_y
_atom_site_fract_z
O1	O	1.004077	0.095689	-0.147462
O2	O	1.504077	0.595689	0.352538
O3	O	0.783698	0.108146	-0.147472
O4	O	1.283698	0.608146	0.352528
O5	O	0.900114	-0.008272	-0.147451
O6	O	1.400114	0.491728	0.352549
O7	O	0.887661	0.212107	-0.147483
O8	O	1.387661	0.712107	0.352517
O9	O	0.900107	-0.008274	0.147514
O10	O	1.400107	0.491726	0.647514
O11	O	0.783691	0.108144	0.147494
O12	O	1.283691	0.608144	0.647494
O13	O	1.004070	0.095687	0.147503
O14	O	1.504070	0.595687	0.647503
Cu15	Cu	0.893880	0.101916	0.174431
Cu16	Cu	1.393880	0.601916	0.674431
Cu17	Cu	0.893888	0.101917	-0.174400
Cu18	Cu	1.393888	0.601917	0.325600
O19	O	0.887654	0.212105	0.147482
O20	O	1.387654	0.712105	0.647482
C21	C	0.755498	0.107700	0.000010
C22	C	1.255498	0.607700	0.500010
C23	C	0.671479	0.106363	0.000007
C24	C	1.171479	0.606363	0.500007
C25	C	0.632008	0.105732	0.160794
C26	C	1.132008	0.605732	0.660794
C27	C	0.553066	0.104464	0.160796
C28	C	1.053066	0.604464	0.660796
C29	C	0.513595	0.103832	0.000009
C30	C	1.013595	0.603832	0.500009
C31	C	0.553072	0.104460	-0.160791
C32	C	1.053072	0.604460	0.339209
C33	C	0.632014	0.105723	-0.160791
C34	C	1.132014	0.605723	0.339209
C35	C	0.234709	0.099367	-0.160793
C36	C	0.734709	0.599367	0.339207
C37	C	0.155761	0.098106	-0.160781
C38	C	0.655761	0.598106	0.339219
C39	C	0.155760	0.098108	0.160794
C40	C	0.655760	0.598108	0.660794
C41	C	0.234702	0.099371	0.160794
C42	C	0.734702	0.599371	0.660794
C43	C	0.274173	0.099995	-0.000005
C44	C	0.774173	0.599995	0.499995
C45	C	0.359772	0.101369	-0.000005
C46	C	0.859772	0.601369	0.499995
C47	C	0.427997	0.102464	0.000008
C48	C	0.927997	0.602464	0.500008
C49	C	0.899664	-0.036470	0.000032
C50	C	1.399664	0.463530	0.500032
C51	C	0.898326	-0.120488	0.000032
C52	C	1.398326	0.379512	0.500032
C53	C	0.966659	-0.169110	0.000038
C54	C	1.466659	0.330890	0.500038
C55	C	0.965397	-0.248054	0.000022
C56	C	1.465397	0.251946	0.500022
C57	C	0.895800	-0.278373	0.000014
C58	C	1.395800	0.221627	0.500014
C59	C	0.827461	-0.229744	0.000003
C60	C	1.327461	0.270256	0.500003
C61	C	0.828724	-0.150803	0.000006
C62	C	1.328724	0.349197	0.500006
C63	C	0.822366	-0.548107	-0.000012
C64	C	1.322366	-0.048107	0.499988
C65	C	0.821108	-0.627055	-0.000009
C66	C	1.321108	-0.127055	0.499991
C67	C	0.959039	-0.645358	0.000004
C68	C	1.459039	-0.145358	0.500004
C69	C	0.960302	-0.566417	0.000007
C70	C	1.460302	-0.066417	0.500007
C71	C	0.891963	-0.517795	-0.000013
C72	C	1.391963	-0.017795	0.499987
C73	C	0.893333	-0.432196	0.000001
C74	C	1.393333	0.067804	0.500001
C75	C	0.894430	-0.363971	0.000013
C76	C	1.394430	0.136029	0.500013
C77	C	1.032271	0.096133	0.000017
C78	C	1.532271	0.596133	0.500017
C79	C	1.116289	0.097470	0.000009
C80	C	1.616289	0.597470	0.500009
C81	C	0.888104	0.240303	-0.000004
C82	C	1.388104	0.740303	0.499996
C83	C	0.889443	0.324321	-0.000017
C84	C	1.389443	0.824321	0.499983
N85	N	0.893880	0.101914	0.419779
N86	N	1.393880	0.601914	0.919779
N87	N	0.893894	0.101913	-0.419748
N88	N	1.393894	0.601913	0.080252
H89	H	0.520929	0.103940	-0.291706
H90	H	1.020929	0.603940	0.208294
Cl91	Cl	0.106142	0.097310	-0.362929
Cl92	Cl	0.606142	0.597310	0.137071
H93	H	0.664150	0.106238	-0.291721
H94	H	1.164150	0.606238	0.208279
H95	H	0.520933	0.103938	0.291726
H96	H	1.020933	0.603938	0.791726
H97	H	0.266836	0.099873	-0.291726
H98	H	0.766836	0.599873	0.208274
Cl99	Cl	1.054157	-0.131003	0.000066
Cl100	Cl	1.554157	0.368997	0.500066
H101	H	1.021041	-0.287639	0.000030
H102	H	1.521041	0.212361	0.500030
Cl103	Cl	0.284318	0.100169	0.362934
Cl104	Cl	0.784318	0.600169	0.862934
H105	H	0.123614	0.097596	0.291724
H106	H	0.623614	0.597596	0.791724
Cl107	Cl	0.739968	-0.267860	-0.000030
Cl108	Cl	1.239968	0.232140	0.499970
Cl109	Cl	1.047798	-0.528306	0.000012
Cl110	Cl	1.547798	-0.028306	0.500012
Cl111	Cl	1.044951	-0.706488	0.000022
Cl112	Cl	1.544951	-0.206488	0.500022
H113	H	0.764431	-0.651737	-0.000013
H114	H	1.264431	-0.151737	0.499987
Cl115	Cl	0.736454	-0.486993	-0.000041
Cl116	Cl	1.236454	0.013007	0.499959
H117	H	0.664139	0.106253	0.291726
H118	H	1.164139	0.606253	0.791726
Cl119	Cl	0.742816	-0.089676	-0.000007
Cl120	Cl	1.242816	0.410324	0.499993
