data_functionalizedCrystal
_audit_creation_method	'MofGen! by Chris Wilmer'
_symmetry_space_group_name_H-M	'P1'
_symmetry_Int_Tables_number	1
_symmetry_cell_setting	triclinic
loop_
_symmetry_equiv_pos_as_xyz
  x,y,z
_cell_length_a	12.594517
_cell_length_b	12.594516
_cell_length_c	13.897441
_cell_angle_alpha	89.973623
_cell_angle_beta	89.976912
_cell_angle_gamma	90.015485
loop_
_atom_site_label
_atom_site_type_symbol
_atom_site_fract_x
_atom_site_fract_y
_atom_site_fract_z
Zn1	Zn	1.627276	-0.423724	-0.545470
Zn2	Zn	1.960610	-0.090391	-0.212137
Zn3	Zn	2.293943	0.242942	0.121197
Zn4	Zn	1.627164	-0.601735	-0.384183
Zn5	Zn	1.960498	-0.268402	-0.050850
Zn6	Zn	2.293831	0.064932	0.282483
Zn7	Zn	1.449277	-0.423769	-0.384182
Zn8	Zn	1.782611	-0.090436	-0.050848
Zn9	Zn	2.115944	0.242897	0.282485
Zn10	Zn	1.449262	-0.601659	-0.545429
Zn11	Zn	1.782596	-0.268326	-0.212096
Zn12	Zn	2.115929	0.065007	0.121237
O13	O	1.538245	-0.512722	-0.464816
O14	O	1.871578	-0.179389	-0.131483
O15	O	2.204912	0.153945	0.201851
O16	O	1.776207	-0.447351	-0.524093
O17	O	2.109540	-0.114017	-0.190759
O18	O	2.442874	0.219316	0.142574
O19	O	1.603527	-0.578178	-0.249201
O20	O	1.936860	-0.244845	0.084132
O21	O	2.270193	0.088489	0.417465
O22	O	1.472942	-0.274817	-0.405593
O23	O	1.806276	0.058516	-0.072260
O24	O	2.139609	0.391849	0.261073
O25	O	1.776125	-0.578134	-0.405596
O26	O	2.109458	-0.244801	-0.072263
O27	O	2.442792	0.088532	0.261071
O28	O	1.603717	-0.274784	-0.524091
O29	O	1.937051	0.058549	-0.190758
O30	O	2.270384	0.391882	0.142575
O31	O	1.472834	-0.447427	-0.249200
O32	O	1.806167	-0.114094	0.084133
O33	O	2.139501	0.219239	0.417466
O34	O	1.300330	-0.447354	-0.405554
O35	O	1.633663	-0.114021	-0.072221
O36	O	1.966996	0.219313	0.261113
O37	O	1.472917	-0.578005	-0.680416
O38	O	1.806250	-0.244672	-0.347083
O39	O	2.139583	0.088661	-0.013750
O40	O	1.300318	-0.578049	-0.524022
O41	O	1.633652	-0.244716	-0.190688
O42	O	1.966985	0.088618	0.142645
O43	O	1.603703	-0.447277	-0.680446
O44	O	1.937036	-0.113944	-0.347113
O45	O	2.270369	0.219389	-0.013780
O46	O	1.603512	-0.750671	-0.405557
O47	O	1.936845	-0.417337	-0.072223
O48	O	2.270179	-0.084004	0.261110
O49	O	1.472808	-0.750615	-0.524023
O50	O	1.806142	-0.417282	-0.190690
O51	O	2.139475	-0.083949	0.142643
C52	C	1.261704	-0.512699	-0.464784
C53	C	1.595037	-0.179366	-0.131451
C54	C	1.928371	0.153968	0.201883
C55	C	1.143399	-0.512715	-0.464793
C56	C	1.476732	-0.179381	-0.131460
C57	C	1.810065	0.153952	0.201874
C58	C	1.538175	-0.789263	-0.464807
C59	C	1.871509	-0.455930	-0.131473
C60	C	2.204842	-0.122596	0.201860
C61	C	1.538243	-0.907568	-0.464835
C62	C	1.871576	-0.574235	-0.131502
C63	C	2.204909	-0.240902	0.201832
C64	C	1.003357	-0.441551	-0.400506
C65	C	1.336690	-0.108218	-0.067172
C66	C	1.670024	0.225115	0.266161
C67	C	1.074217	-0.415618	-0.488525
C68	C	1.407551	-0.082285	-0.155192
C69	C	1.740884	0.251049	0.178142
C70	C	1.074110	-0.538600	-0.376783
C71	C	1.407443	-0.205267	-0.043450
C72	C	1.740777	0.128066	0.289884
C73	C	1.003473	-0.486773	-0.552929
C74	C	1.336807	-0.153439	-0.219596
C75	C	1.670140	0.179894	0.113737
C76	C	1.003360	-0.609800	-0.441128
C77	C	1.336693	-0.276467	-0.107795
C78	C	1.670027	0.056866	0.225538
C79	C	1.074188	-0.583904	-0.529208
C80	C	1.407521	-0.250570	-0.195875
C81	C	1.740855	0.082763	0.137458
C82	C	1.467146	-0.976830	-0.529224
C83	C	1.800479	-0.643497	-0.195890
C84	C	2.133813	-0.310163	0.137443
C85	C	1.441211	-1.047695	-0.441206
C86	C	1.774545	-0.714362	-0.107872
C87	C	2.107878	-0.381029	0.225461
C88	C	1.564275	-1.047502	-0.552868
C89	C	1.897608	-0.714169	-0.219535
C90	C	2.230941	-0.380835	0.113799
C91	C	1.512257	-0.976876	-0.376770
C92	C	1.845590	-0.643542	-0.043437
C93	C	2.178923	-0.310209	0.289896
C94	C	1.635365	-0.976676	-0.488492
C95	C	1.968699	-0.643343	-0.155159
C96	C	2.302032	-0.310009	0.178175
C97	C	1.609467	-1.047509	-0.400413
C98	C	1.942801	-0.714176	-0.067080
C99	C	2.276134	-0.380843	0.266253
C100	C	1.815866	-0.512746	-0.464849
C101	C	2.149199	-0.179413	-0.131516
C102	C	2.482532	0.153921	0.201818
C103	C	1.934171	-0.512756	-0.464863
C104	C	2.267505	-0.179423	-0.131530
C105	C	2.600838	0.153911	0.201803
C106	C	1.538321	-0.512628	-0.716409
C107	C	1.871654	-0.179295	-0.383076
C108	C	2.204987	0.154039	-0.049743
C109	C	1.538353	-0.512588	-0.823623
C110	C	1.871686	-0.179254	-0.490290
C111	C	2.205019	0.154079	-0.156957
C112	C	1.538344	-0.235101	-0.464847
C113	C	1.871677	0.098232	-0.131513
C114	C	2.205011	0.431566	0.201820
C115	C	1.538386	-0.116796	-0.464860
C116	C	1.871720	0.216538	-0.131526
C117	C	2.205053	0.549871	0.201807
C118	C	1.538382	-0.512516	-1.019919
C119	C	1.871715	-0.179182	-0.686585
C120	C	2.205048	0.154151	-0.353252
C121	C	1.538362	-0.512559	-0.910686
C122	C	1.871696	-0.179225	-0.577353
C123	C	2.205029	0.154108	-0.244019
C124	C	1.538231	-0.512739	-0.214202
C125	C	1.871564	-0.179406	0.119132
C126	C	2.204898	0.153928	0.452465
C127	C	1.538405	-0.512479	-0.106988
C128	C	1.871738	-0.179146	0.226345
C129	C	2.205072	0.154188	0.559678
H130	H	0.972260	-0.381308	-0.346178
H131	H	1.305593	-0.047975	-0.012844
H132	H	1.638927	0.285358	0.320489
H133	H	1.105090	-0.644102	-0.583666
H134	H	1.438424	-0.310769	-0.250333
H135	H	1.771757	0.022565	0.083000
H136	H	0.972213	-0.691863	-0.421051
H137	H	1.305547	-0.358529	-0.087718
H138	H	1.638880	-0.025196	0.245616
F139	F	1.114671	-0.567196	-0.279461
F140	F	1.448005	-0.233862	0.053872
F141	F	1.781338	0.099471	0.387205
H142	H	1.406914	-0.945795	-0.583596
H143	H	1.740248	-0.612461	-0.250263
H144	H	2.073581	-0.279128	0.083071
F145	F	1.333937	-1.088467	-0.415056
F146	F	1.667271	-0.755134	-0.081723
F147	F	2.000604	-0.421800	0.251611
H148	H	1.490202	-0.945980	-0.302312
H149	H	1.823535	-0.612647	0.031022
H150	H	2.156868	-0.279313	0.364355
H151	H	0.972573	-0.464800	-0.627410
H152	H	1.305907	-0.131467	-0.294076
H153	H	1.639240	0.201866	0.039257
H154	H	1.669653	-1.078348	-0.345910
H155	H	2.002986	-0.745015	-0.012576
H156	H	2.336320	-0.411681	0.320757
H157	H	1.717414	-0.945460	-0.508523
H158	H	2.050748	-0.612127	-0.175190
H159	H	2.384081	-0.278794	0.158144
H160	H	1.105322	-0.333528	-0.508588
H161	H	1.438656	-0.000195	-0.175254
H162	H	1.771989	0.333138	0.158079
F163	F	1.592977	-1.088057	-0.650162
F164	F	1.926310	-0.754723	-0.316829
F165	F	2.259644	-0.421390	0.016504
