data_functionalizedCrystal
_audit_creation_method	'MofGen! by Chris Wilmer'
_symmetry_space_group_name_H-M	'P1'
_symmetry_Int_Tables_number	1
_symmetry_cell_setting	triclinic
loop_
_symmetry_equiv_pos_as_xyz
  x,y,z
_cell_length_a	13.032831
_cell_length_b	16.120484
_cell_length_c	13.033109
_cell_angle_alpha	100.385715
_cell_angle_beta	76.665514
_cell_angle_gamma	86.078521
loop_
_atom_site_label
_atom_site_type_symbol
_atom_site_fract_x
_atom_site_fract_y
_atom_site_fract_z
Zn1	Zn	1.666952	-0.586070	-0.839395
Zn2	Zn	1.637544	-0.705199	-0.668483
Zn3	Zn	1.469071	-0.545521	-0.637006
Zn4	Zn	1.482563	-0.705126	-0.823523
O5	O	1.564032	-0.635479	-0.742102
O6	O	1.810726	-0.618873	-0.836539
O7	O	1.597241	-0.667078	-0.514723
O8	O	1.501982	-0.434248	-0.657323
O9	O	1.789119	-0.706397	-0.710971
O10	O	1.647364	-0.464039	-0.806017
O11	O	1.473465	-0.549763	-0.491596
O12	O	1.323186	-0.549692	-0.641932
O13	O	1.524976	-0.706272	-0.975214
O14	O	1.333099	-0.666953	-0.778966
O15	O	1.660447	-0.618802	-0.986875
O16	O	1.610324	-0.821841	-0.695581
O17	O	1.496460	-0.821787	-0.809488
C18	C	1.289852	-0.603915	-0.705312
C19	C	1.172559	-0.590435	-0.689599
C20	C	1.551696	-0.852066	-0.754255
C21	C	1.546520	-0.944738	-0.759502
C22	C	1.125182	-0.642514	-0.750302
C23	C	1.003953	-0.628583	-0.734064
C24	C	1.537077	-1.114414	-0.769106
C25	C	1.591179	-1.155726	-0.715141
C26	C	1.585925	-1.250140	-0.720484
C27	C	1.542330	-1.019992	-0.763764
C28	C	1.839283	-0.667166	-0.779037
C29	C	1.956579	-0.680669	-0.794776
C30	C	1.597497	-0.667052	-1.020915
C31	C	1.611758	-0.680506	-1.139728
C32	C	1.576448	-0.418052	-0.729929
C33	C	1.581739	-0.325397	-0.724742
C34	C	1.556873	-0.628459	-1.181256
C35	C	1.571611	-0.642364	-1.304056
C36	C	1.530762	-0.603976	-0.464379
C37	C	1.516719	-0.590310	-0.345580
H38	H	1.174370	-0.697412	-0.814298
C39	C	1.649836	-0.716469	-1.378827
H40	H	1.649486	-0.716090	-1.451554
H41	H	1.629025	-0.768651	-1.361651
H42	H	1.719266	-0.710373	-1.369417
C43	C	1.659048	-1.107716	-0.647270
H44	H	1.653700	-1.049634	-0.652516
H45	H	1.731059	-1.131802	-0.673240
H46	H	1.634224	-1.112077	-0.574165
C47	C	1.106121	-0.516266	-0.603153
H48	H	1.033357	-0.516635	-0.603577
H49	H	1.129210	-0.464115	-0.618169
H50	H	1.114799	-0.522299	-0.534374
H51	H	1.458814	-0.535454	-1.290226
H52	H	1.669656	-0.735360	-1.195086
H53	H	1.498970	-0.573609	-1.125898
H54	H	1.486816	-1.149951	-0.819315
H55	H	0.954769	-0.573676	-0.670072
C56	C	1.023007	-0.754855	-0.881210
H57	H	1.095770	-0.754498	-0.880774
H58	H	1.014334	-0.748845	-0.949993
H59	H	0.999907	-0.807000	-0.866164
