data_functionalizedCrystal
_audit_creation_method	'MofGen! by Chris Wilmer'
_symmetry_space_group_name_H-M	'P1'
_symmetry_Int_Tables_number	1
_symmetry_cell_setting	triclinic
loop_
_symmetry_equiv_pos_as_xyz
  x,y,z
_cell_length_a	19.288864
_cell_length_b	18.366186
_cell_length_c	19.288865
_cell_angle_alpha	89.989632
_cell_angle_beta	96.863755
_cell_angle_gamma	90.022929
loop_
_atom_site_label
_atom_site_type_symbol
_atom_site_fract_x
_atom_site_fract_y
_atom_site_fract_z
O1	O	0.921353	0.060791	-0.086648
O2	O	1.421353	0.560791	0.413352
O3	O	0.719092	0.060743	-0.098336
O4	O	1.219092	0.560743	0.401664
O5	O	0.826067	0.060754	0.008638
O6	O	1.326067	0.560754	0.508638
O7	O	0.814378	0.060780	-0.193622
O8	O	1.314378	0.560780	0.306378
O9	O	0.826049	-0.060345	0.008641
O10	O	1.326049	0.439655	0.508641
O11	O	0.719074	-0.060357	-0.098333
O12	O	1.219074	0.439643	0.401667
O13	O	0.921334	-0.060308	-0.086645
O14	O	1.421334	0.439692	0.413355
Zn15	Zn	0.820201	-0.079559	-0.092488
Zn16	Zn	1.320201	0.420441	0.407512
Zn17	Zn	0.820226	0.079994	-0.092492
Zn18	Zn	1.320226	0.579994	0.407508
O19	O	0.814360	-0.060319	-0.193619
O20	O	1.314360	0.439681	0.306381
C21	C	0.693207	0.000187	-0.097959
C22	C	1.193207	0.500187	0.402041
C23	C	0.616103	0.000167	-0.096830
C24	C	1.116103	0.500167	0.403170
C25	C	0.571407	0.000187	-0.159598
C26	C	1.071407	0.500187	0.340402
C27	C	0.498960	0.000195	-0.158537
C28	C	0.998960	0.500195	0.341463
C29	C	0.471212	0.000198	-0.094705
C30	C	0.971212	0.500198	0.405295
C31	C	0.515918	0.000174	-0.031929
C32	C	1.015918	0.500174	0.468071
C33	C	0.588364	0.000159	-0.032991
C34	C	1.088364	0.500159	0.467009
C35	C	0.362957	0.042642	-0.044527
C36	C	0.862957	0.542642	0.455473
C37	C	0.290512	0.042662	-0.043467
C38	C	0.790512	0.542662	0.456533
C39	C	0.247767	0.000241	-0.091425
C40	C	0.747767	0.500241	0.408575
C41	C	0.277473	-0.042189	-0.140455
C42	C	0.777473	0.457811	0.359545
C43	C	0.349918	-0.042205	-0.141518
C44	C	0.849918	0.457795	0.358482
C45	C	0.392658	0.000214	-0.093546
C46	C	0.892658	0.500214	0.406454
C47	C	0.124514	0.000269	-0.153047
C48	C	0.624514	0.500269	0.346953
C49	C	0.052066	0.000272	-0.151984
C50	C	0.552066	0.500272	0.348016
C51	C	0.069026	0.000259	-0.025374
C52	C	0.569026	0.500259	0.474626
C53	C	0.141473	0.000248	-0.026439
C54	C	0.641473	0.500248	0.473561
C55	C	0.169212	0.000256	-0.090278
C56	C	0.669212	0.500256	0.409722
N57	N	0.820190	-0.188451	-0.092485
N58	N	1.320190	0.311549	0.407515
C59	C	0.862177	-0.226528	-0.134509
C60	C	1.362177	0.273472	0.365491
C61	C	0.862189	-0.302756	-0.134507
C62	C	1.362189	0.197244	0.365493
C63	C	0.820199	-0.340903	-0.092490
C64	C	1.320199	0.159097	0.407510
C65	C	0.778209	-0.302816	-0.050457
C66	C	1.278209	0.197184	0.449543
C67	C	0.778204	-0.226590	-0.050455
C68	C	1.278204	0.273410	0.449545
C69	C	0.757588	-0.461700	-0.090733
C70	C	1.257588	0.038300	0.409267
C71	C	0.757591	-0.537925	-0.090740
C72	C	1.257591	-0.037925	0.409260
C73	C	0.820215	-0.576011	-0.092492
C74	C	1.320215	-0.076011	0.407508
C75	C	0.882837	-0.537862	-0.094252
C76	C	1.382837	-0.037862	0.405748
C77	C	0.882832	-0.461636	-0.094249
C78	C	1.382832	0.038364	0.405751
C79	C	0.820200	-0.423558	-0.092487
C80	C	1.320200	0.076442	0.407513
C81	C	0.862219	-0.696744	-0.134516
C82	C	1.362219	-0.196744	0.365484
C83	C	0.862231	-0.772973	-0.134509
C84	C	1.362231	-0.272973	0.365491
C85	C	0.778245	-0.773031	-0.050463
C86	C	1.278245	-0.273031	0.449537
C87	C	0.778239	-0.696804	-0.050466
C88	C	1.278239	-0.196804	0.449534
C89	C	0.820225	-0.658664	-0.092496
C90	C	1.320225	-0.158664	0.407504
C91	C	0.947220	0.000250	-0.087022
C92	C	1.447220	0.500250	0.412978
C93	C	1.024324	0.000274	-0.088151
C94	C	1.524324	0.500274	0.411849
C95	C	0.825682	0.000202	0.034516
C96	C	1.325682	0.500202	0.534516
C97	C	0.824553	0.000195	0.111620
C98	C	1.324553	0.500195	0.611620
N99	N	0.820243	0.188885	-0.092490
N100	N	1.320243	0.688885	0.407510
C101	C	0.814745	0.000234	-0.219497
C102	C	1.314745	0.500234	0.280503
C103	C	0.815874	0.000246	-0.296601
C104	C	1.315874	0.500246	0.203399
C105	C	0.887321	0.000207	0.156316
C106	C	1.387321	0.500207	0.656316
C107	C	0.886260	0.000218	0.228763
C108	C	1.386260	0.500218	0.728763
C109	C	0.822428	0.000203	0.256511
C110	C	1.322428	0.500203	0.756511
C111	C	0.759652	0.000196	0.211805
C112	C	1.259652	0.500196	0.711805
C113	C	0.760714	0.000192	0.139359
C114	C	1.260714	0.500192	0.639359
C115	C	0.772242	-0.042227	0.364799
C116	C	1.272242	0.457773	0.864799
C117	C	0.771182	-0.042228	0.437244
C118	C	1.271182	0.457772	0.937244
C119	C	0.819148	0.000219	0.479956
C120	C	1.319148	0.500219	0.979956
C121	C	0.868186	0.042657	0.450217
C122	C	1.368186	0.542657	0.950217
C123	C	0.869248	0.042653	0.377772
C124	C	1.369248	0.542653	0.877772
C125	C	0.821269	0.000208	0.335065
C126	C	1.321269	0.500208	0.835065
C127	C	0.880770	0.000244	0.603209
C128	C	1.380770	0.500244	1.103209
C129	C	0.879707	0.000259	0.675657
C130	C	1.379707	0.500259	1.175657
C131	C	0.753097	0.000230	0.658697
C132	C	1.253097	0.500230	1.158697
C133	C	0.754162	0.000221	0.586250
C134	C	1.254162	0.500221	1.086250
C135	C	0.818001	0.000225	0.558511
C136	C	1.318001	0.500225	1.058511
H137	H	0.462561	0.000209	-0.209652
H138	H	0.962561	0.500209	0.290348
H139	H	0.933831	-0.568870	-0.095682
H140	H	1.433831	-0.068870	0.404318
C141	C	0.920948	0.089355	0.497191
C142	C	1.420948	0.589355	0.997191
H143	H	0.913288	0.083289	0.544595
H144	H	1.413288	0.583289	1.044595
H145	H	0.967076	0.074452	0.491481
H146	H	1.467076	0.574452	0.991481
H147	H	0.915018	0.139140	0.484484
H148	H	1.415018	0.639140	0.984484
C149	C	0.257842	0.089330	0.010465
C150	C	0.757842	0.589330	0.510465
H151	H	0.293675	0.114581	0.038884
H152	H	0.793675	0.614581	0.538884
H153	H	0.226384	0.123458	-0.013128
H154	H	0.726384	0.623458	0.486872
H155	H	0.233321	0.058736	0.038924
H156	H	0.733321	0.558736	0.538924
C157	C	0.908404	-0.654784	-0.180739
C158	C	1.408404	-0.154784	0.319261
H159	H	0.902380	-0.603932	-0.174727
H160	H	1.402380	-0.103932	0.325273
H161	H	0.955968	-0.667252	-0.167713
H162	H	1.455968	-0.167252	0.332287
H163	H	0.895344	-0.667275	-0.228300
H164	H	1.395344	-0.167275	0.271700
H165	H	0.937375	0.000231	0.265162
H166	H	1.437375	0.500231	0.765162
H167	H	0.147101	0.000265	-0.205028
H168	H	0.647101	0.500265	0.294972
C169	C	0.485399	0.000182	0.038285
C170	C	0.985399	0.500182	0.538285
H171	H	0.435851	0.000202	0.029928
H172	H	0.935851	0.500202	0.529928
H173	H	0.500729	-0.042053	0.064124
H174	H	1.000729	0.457947	0.564124
H175	H	0.500782	0.042412	0.064117
H176	H	1.000782	0.542412	0.564117
C177	C	0.409970	0.089315	0.008226
C178	C	0.909970	0.589315	0.508226
H179	H	0.381903	0.114596	0.037569
H180	H	0.881903	0.614596	0.537569
H181	H	0.441974	0.058726	0.035861
H182	H	0.941974	0.558726	0.535861
H183	H	0.435028	0.123428	-0.016214
H184	H	0.935028	0.623428	0.483786
H185	H	0.909175	0.077208	0.353561
H186	H	1.409175	0.577208	0.853561
C187	C	0.732044	-0.654916	-0.004248
C188	C	1.232044	-0.154916	0.495752
H189	H	0.707033	-0.688550	0.020773
H190	H	1.207033	-0.188550	0.520773
H191	H	0.760603	-0.625171	0.027793
H192	H	1.260603	-0.125171	0.527793
H193	H	0.699983	-0.625192	-0.032799
H194	H	1.199983	-0.125192	0.467201
H195	H	0.703049	0.000208	0.549857
H196	H	1.203049	0.500208	1.049857
H197	H	0.896428	-0.803975	-0.168728
H198	H	1.396428	-0.303975	0.331272
C199	C	0.688696	-0.419813	-0.088809
C200	C	1.188696	0.080187	0.411191
H201	H	0.651402	-0.453448	-0.087773
H202	H	1.151402	0.046552	0.412227
H203	H	0.692039	-0.390082	-0.048253
H204	H	1.192039	0.109918	0.451747
H205	H	0.680142	-0.390075	-0.129227
H206	H	1.180142	0.109925	0.370773
C207	C	0.382594	-0.088881	-0.195440
C208	C	0.882594	0.411119	0.304560
H209	H	0.346766	-0.114149	-0.223849
H210	H	0.846766	0.385851	0.276151
H211	H	0.407119	-0.058299	-0.223900
H212	H	0.907119	0.441701	0.276100
H213	H	0.414051	-0.123006	-0.171830
H214	H	0.914051	0.376994	0.328170
H215	H	0.242670	-0.076733	-0.179507
H216	H	0.742670	0.423267	0.320493
C217	C	0.688713	-0.579885	-0.088807
C218	C	1.188713	-0.079885	0.411193
H219	H	0.697683	-0.630737	-0.089069
H220	H	1.197683	-0.130737	0.410931
H221	H	0.668937	-0.567414	-0.047599
H222	H	1.168937	-0.067414	0.452401
H223	H	0.657028	-0.567397	-0.128573
H224	H	1.157028	-0.067397	0.371427
H225	H	0.932751	0.000250	0.580622
H226	H	1.432751	0.500250	1.080622
C227	C	0.190644	0.000237	0.042605
C228	C	0.690644	0.500237	0.542605
H229	H	0.237763	0.000223	0.032830
H230	H	0.737763	0.500223	0.532830
H231	H	0.182278	0.042467	0.068788
H232	H	0.682278	0.542467	0.568788
H233	H	0.182232	-0.041999	0.068790
H234	H	0.682232	0.458001	0.568790
H235	H	0.744058	-0.804090	-0.016250
H236	H	1.244058	-0.304090	0.483750
C237	C	0.732020	-0.344775	-0.004241
C238	C	1.232020	0.155225	0.495759
H239	H	0.738030	-0.395626	-0.010267
H240	H	1.238030	0.104374	0.489733
H241	H	0.745074	-0.332289	0.043318
H242	H	1.245074	0.167711	0.543318
H243	H	0.684454	-0.332301	-0.017273
H244	H	1.184454	0.167699	0.482727
C245	C	0.002900	0.000294	-0.221032
C246	C	0.502900	0.500294	0.278968
H247	H	0.029799	0.000303	-0.259201
H248	H	0.529799	0.500303	0.240799
H249	H	-0.025738	-0.041931	-0.223254
H250	H	0.474262	0.458069	0.276746
H251	H	-0.025690	0.042535	-0.223245
H252	H	0.474310	0.542535	0.276755
H253	H	0.624756	0.000144	0.018124
H254	H	1.124756	0.500144	0.518124
H255	H	0.709599	0.000182	0.102967
H256	H	1.209599	0.500182	0.602967
H257	H	0.930822	0.000273	0.712049
H258	H	1.430822	0.500273	1.212049
C259	C	0.732011	-0.184703	-0.004232
C260	C	1.232011	0.315297	0.495768
H261	H	0.707001	-0.218336	0.020791
H262	H	1.207001	0.281664	0.520791
H263	H	0.760570	-0.154955	0.027806
H264	H	1.260570	0.345045	0.527806
H265	H	0.699949	-0.154981	-0.032785
H266	H	1.199949	0.345019	0.467215
C267	C	0.682883	0.000216	0.689210
C268	C	1.182883	0.500216	1.189210
H269	H	0.691238	0.000217	0.738758
H270	H	1.191238	0.500217	1.238758
H271	H	0.657053	0.042439	0.673843
H272	H	1.157053	0.542439	1.173843
H273	H	0.657041	-0.042027	0.673864
H274	H	1.157041	0.457973	1.173864
H275	H	0.939303	0.000212	0.133736
H276	H	1.439303	0.500212	0.633736
H277	H	0.896368	-0.195480	-0.168731
H278	H	1.396368	0.304520	0.331269
H279	H	0.731249	-0.076779	0.461451
H280	H	1.231249	0.423221	0.961451
H281	H	0.733180	-0.076796	0.330028
H282	H	1.233180	0.423204	0.830028
H283	H	0.707679	0.000185	0.234401
H284	H	1.207679	0.500185	0.734401
H285	H	0.896380	-0.333765	-0.168730
H286	H	1.396380	0.166235	0.331270
C287	C	0.601920	0.000192	-0.229815
C288	C	1.101920	0.500192	0.270185
H289	H	0.651468	0.000187	-0.221460
H290	H	1.151468	0.500187	0.278540
H291	H	0.586539	-0.042029	-0.255654
H292	H	1.086539	0.457971	0.244346
H293	H	0.586587	0.042436	-0.255647
H294	H	1.086587	0.542436	0.244353
C295	C	0.038516	0.000258	0.044842
C296	C	0.538516	0.500258	0.544842
H297	H	0.075515	0.000242	0.082074
H298	H	0.575515	0.500242	0.582074
H299	H	0.010629	0.042492	0.047890
H300	H	0.510629	0.542492	0.547890
H301	H	0.010587	-0.041974	0.047887
H302	H	0.510587	0.458026	0.547887
C303	C	0.951710	-0.419675	-0.096174
C304	C	1.451710	0.080325	0.403826
H305	H	0.989011	-0.453270	-0.097213
H306	H	1.489011	0.046730	0.402787
H307	H	0.948361	-0.389928	-0.136729
H308	H	1.448361	0.110072	0.363271
H309	H	0.960259	-0.389948	-0.055754
H310	H	1.460259	0.110052	0.444246
