data_functionalizedCrystal
_audit_creation_method	'MofGen! by Chris Wilmer'
_symmetry_space_group_name_H-M	'P1'
_symmetry_Int_Tables_number	1
_symmetry_cell_setting	triclinic
loop_
_symmetry_equiv_pos_as_xyz
  x,y,z
_cell_length_a	29.839131
_cell_length_b	17.640112
_cell_length_c	29.839135
_cell_angle_alpha	78.815776
_cell_angle_beta	90.015241
_cell_angle_gamma	101.262129
loop_
_atom_site_label
_atom_site_type_symbol
_atom_site_fract_x
_atom_site_fract_y
_atom_site_fract_z
Zn1	Zn	-0.039919	1.208270	0.115396
Zn2	Zn	0.210081	1.458270	0.365396
Zn3	Zn	0.460081	1.708270	0.615396
Zn4	Zn	0.710081	1.958270	0.865396
Zn5	Zn	-0.115029	1.208178	0.040266
Zn6	Zn	0.134971	1.458178	0.290266
Zn7	Zn	0.384971	1.708178	0.540266
Zn8	Zn	0.634971	1.958178	0.790266
Zn9	Zn	-0.055111	1.076115	0.055436
Zn10	Zn	0.194889	1.326115	0.305436
Zn11	Zn	0.444889	1.576115	0.555436
Zn12	Zn	0.694889	1.826115	0.805436
Zn13	Zn	-0.130241	1.076024	0.130525
Zn14	Zn	0.119759	1.326024	0.380525
Zn15	Zn	0.369759	1.576024	0.630525
Zn16	Zn	0.619759	1.826024	0.880525
O17	O	-0.085075	1.142147	0.085406
O18	O	0.164925	1.392147	0.335406
O19	O	0.414925	1.642147	0.585406
O20	O	0.664925	1.892147	0.835406
O21	O	-0.037159	1.318872	0.092749
O22	O	0.212841	1.568872	0.342749
O23	O	0.462841	1.818872	0.592749
O24	O	0.712841	2.068872	0.842749
O25	O	-0.107072	1.190659	-0.020589
O26	O	0.142928	1.440659	0.229411
O27	O	0.392928	1.690659	0.479411
O28	O	0.642928	1.940659	0.729411
O29	O	0.009780	1.093722	0.063407
O30	O	0.259780	1.343722	0.313407
O31	O	0.509780	1.593722	0.563407
O32	O	0.759780	1.843722	0.813407
O33	O	-0.092341	1.318805	0.037552
O34	O	0.157659	1.568805	0.287552
O35	O	0.407659	1.818805	0.537552
O36	O	0.657659	2.068805	0.787552
O37	O	0.020941	1.190816	0.107459
O38	O	0.270941	1.440816	0.357459
O39	O	0.520941	1.690816	0.607459
O40	O	0.770941	1.940816	0.857459
O41	O	-0.063050	1.093633	-0.009443
O42	O	0.186950	1.343633	0.240557
O43	O	0.436950	1.593633	0.490557
O44	O	0.686950	1.843633	0.740557
O45	O	-0.077801	0.965488	0.078078
O46	O	0.172199	1.215488	0.328078
O47	O	0.422199	1.465488	0.578078
O48	O	0.672199	1.715488	0.828078
O49	O	-0.118269	1.093567	0.191385
O50	O	0.131731	1.343567	0.441385
O51	O	0.381731	1.593567	0.691385
O52	O	0.631731	1.843567	0.941385
O53	O	-0.132999	0.965421	0.133245
O54	O	0.117001	1.215421	0.383245
O55	O	0.367001	1.465421	0.633245
O56	O	0.617001	1.715421	0.883245
O57	O	-0.051910	1.190727	0.180270
O58	O	0.198090	1.440727	0.430270
O59	O	0.448090	1.690727	0.680270
O60	O	0.698090	1.940727	0.930270
O61	O	-0.179923	1.190571	0.052222
O62	O	0.070077	1.440571	0.302222
O63	O	0.320077	1.690571	0.552222
O64	O	0.570077	1.940571	0.802222
O65	O	-0.191099	1.093478	0.118535
O66	O	0.058901	1.343478	0.368535
O67	O	0.308901	1.593478	0.618535
O68	O	0.558901	1.843478	0.868535
C69	C	-0.108700	0.936774	0.108950
C70	C	0.141300	1.186774	0.358950
C71	C	0.391300	1.436774	0.608950
C72	C	0.641300	1.686774	0.858950
C73	C	-0.118817	0.848914	0.119032
C74	C	0.131183	1.098914	0.369032
C75	C	0.381183	1.348914	0.619032
C76	C	0.631183	1.598914	0.869032
C77	C	-0.008205	0.560020	0.008812
C78	C	0.241795	0.810020	0.258812
C79	C	0.491795	1.060020	0.508812
C80	C	0.741795	1.310020	0.758812
C81	C	-0.017721	0.477463	0.018292
C82	C	0.232279	0.727463	0.268292
C83	C	0.482279	0.977463	0.518292
C84	C	0.732279	1.227463	0.768292
C85	C	-0.075278	0.477447	0.075639
C86	C	0.174722	0.727447	0.325639
C87	C	0.424722	0.977447	0.575639
C88	C	0.674722	1.227447	0.825639
C89	C	-0.065765	0.560006	0.066165
C90	C	0.184235	0.810006	0.316165
C91	C	0.434235	1.060006	0.566165
C92	C	0.684235	1.310006	0.816165
C93	C	-0.032229	0.601286	0.032751
C94	C	0.217771	0.851286	0.282751
C95	C	0.467771	1.101286	0.532751
C96	C	0.717771	1.351286	0.782751
C97	C	-0.089789	0.601272	0.090104
C98	C	0.160211	0.851272	0.340104
C99	C	0.410211	1.101272	0.590104
C100	C	0.660211	1.351272	0.840104
C101	C	-0.080278	0.683824	0.080629
C102	C	0.169722	0.933824	0.330629
C103	C	0.419722	1.183824	0.580629
C104	C	0.669722	1.433824	0.830629
C105	C	-0.046744	0.725110	0.047215
C106	C	0.203256	0.975110	0.297215
C107	C	0.453256	1.225110	0.547215
C108	C	0.703256	1.475110	0.797215
C109	C	-0.022718	0.683838	0.023276
C110	C	0.227282	0.933838	0.273276
C111	C	0.477282	1.183838	0.523276
C112	C	0.727282	1.433838	0.773276
C113	C	-0.123328	0.559991	0.123516
C114	C	0.126672	0.809991	0.373516
C115	C	0.376672	1.059991	0.623516
C116	C	0.626672	1.309991	0.873516
C117	C	-0.147351	0.601257	0.147455
C118	C	0.102649	0.851257	0.397455
C119	C	0.352649	1.101257	0.647455
C120	C	0.602649	1.351257	0.897455
C121	C	-0.137838	0.683811	0.137982
C122	C	0.112162	0.933811	0.387982
C123	C	0.362162	1.183811	0.637982
C124	C	0.612162	1.433811	0.887982
C125	C	-0.104304	0.725096	0.104569
C126	C	0.145696	0.975096	0.354569
C127	C	0.395696	1.225096	0.604569
C128	C	0.645696	1.475096	0.854569
C129	C	-0.161865	0.725083	0.161922
C130	C	0.088135	0.975083	0.411922
C131	C	0.338135	1.225083	0.661922
C132	C	0.588135	1.475083	0.911922
C133	C	-0.152354	0.807634	0.152447
C134	C	0.097646	1.057634	0.402447
C135	C	0.347646	1.307634	0.652447
C136	C	0.597646	1.557634	0.902447
C137	C	-0.094794	0.807648	0.095093
C138	C	0.155206	1.057648	0.345093
C139	C	0.405206	1.307648	0.595093
C140	C	0.655206	1.557648	0.845093
C141	C	-0.201812	1.142026	0.085382
C142	C	0.048188	1.392026	0.335382
C143	C	0.298188	1.642026	0.585382
C144	C	0.548188	1.892026	0.835382
C145	C	-0.251744	1.142047	0.085378
C146	C	-0.001744	1.392047	0.335378
C147	C	0.248256	1.642047	0.585378
C148	C	0.498256	1.892047	0.835378
C149	C	-0.555530	1.192692	0.108386
C150	C	-0.305530	1.442692	0.358386
C151	C	-0.055530	1.692692	0.608386
C152	C	0.194470	1.942692	0.858386
C153	C	-0.743194	1.192778	0.108403
C154	C	-0.493194	1.442778	0.358403
C155	C	-0.243194	1.692778	0.608403
C156	C	0.006806	1.942778	0.858403
O157	O	-0.762492	1.235721	0.127950
O158	O	-0.512492	1.485721	0.377950
O159	O	-0.262492	1.735721	0.627950
O160	O	-0.012492	1.985721	0.877950
N161	N	-0.772502	1.142281	0.085440
N162	N	-0.522502	1.392281	0.335440
N163	N	-0.272502	1.642281	0.585440
N164	N	-0.022502	1.892281	0.835440
C165	C	-0.754892	1.091755	0.062474
C166	C	-0.504892	1.341755	0.312474
C167	C	-0.254892	1.591755	0.562474
C168	C	-0.004892	1.841755	0.812474
O169	O	-0.784127	1.048800	0.042947
O170	O	-0.534127	1.298800	0.292947
O171	O	-0.284127	1.548800	0.542947
O172	O	-0.034127	1.798800	0.792947
C173	C	-0.567230	1.091666	0.062460
C174	C	-0.317230	1.341666	0.312460
C175	C	-0.067230	1.591666	0.562460
C176	C	0.182770	1.841666	0.812460
C177	C	-0.537923	1.142172	0.085420
C178	C	-0.287923	1.392172	0.335420
C179	C	-0.037923	1.642172	0.585420
C180	C	0.212077	1.892172	0.835420
C181	C	-0.526224	1.243194	0.131345
C182	C	-0.276224	1.493194	0.381345
C183	C	-0.026224	1.743194	0.631345
C184	C	0.223776	1.993194	0.881345
C185	C	-0.479311	1.243175	0.131338
C186	C	-0.229311	1.493175	0.381338
C187	C	0.020689	1.743175	0.631338
C188	C	0.270689	1.993175	0.881338
C189	C	-0.461704	1.192654	0.108373
C190	C	-0.211704	1.442654	0.358373
C191	C	0.038296	1.692654	0.608373
C192	C	0.288296	1.942654	0.858373
C193	C	-0.491010	1.142153	0.085414
C194	C	-0.241010	1.392153	0.335414
C195	C	0.008990	1.642153	0.585414
C196	C	0.258990	1.892153	0.835414
C197	C	-0.549622	1.041136	0.039497
C198	C	-0.299622	1.291136	0.289497
C199	C	-0.049622	1.541136	0.539497
C200	C	0.200378	1.791136	0.789497
C201	C	-0.502703	1.041117	0.039496
C202	C	-0.252703	1.291117	0.289496
C203	C	-0.002703	1.541117	0.539496
C204	C	0.247297	1.791117	0.789496
C205	C	-0.473396	1.091623	0.062457
C206	C	-0.223396	1.341623	0.312457
C207	C	0.026604	1.591623	0.562457
C208	C	0.276604	1.841623	0.812457
C209	C	-0.426490	1.091614	0.062442
C210	C	-0.176490	1.341614	0.312442
C211	C	0.073510	1.591614	0.562442
C212	C	0.323510	1.841614	0.812442
N213	N	-0.397182	1.142111	0.085404
N214	N	-0.147182	1.392111	0.335404
N215	N	0.102818	1.642111	0.585404
N216	N	0.352818	1.892111	0.835404
C217	C	-0.414789	1.192631	0.108370
C218	C	-0.164789	1.442631	0.358370
C219	C	0.085211	1.692631	0.608370
C220	C	0.335211	1.942631	0.858370
C221	C	-0.853417	1.091806	0.062482
C222	C	-0.603417	1.341806	0.312482
C223	C	-0.353417	1.591806	0.562482
C224	C	-0.103417	1.841806	0.812482
C225	C	-0.900332	1.091829	0.062485
C226	C	-0.650332	1.341829	0.312485
C227	C	-0.400332	1.591829	0.562485
C228	C	-0.150332	1.841829	0.812485
C229	C	-0.888630	1.192852	0.108415
C230	C	-0.638630	1.442852	0.358415
C231	C	-0.388630	1.692852	0.608415
C232	C	-0.138630	1.942852	0.858415
C233	C	-0.841714	1.192832	0.108409
C234	C	-0.591714	1.442832	0.358409
C235	C	-0.341714	1.692832	0.608409
C236	C	-0.091714	1.942832	0.858409
C237	C	-0.824109	1.142304	0.085445
C238	C	-0.574109	1.392304	0.335445
C239	C	-0.324109	1.642304	0.585445
C240	C	-0.074109	1.892304	0.835445
C241	C	-0.316268	1.192588	0.108354
C242	C	-0.066268	1.442588	0.358354
C243	C	0.183732	1.692588	0.608354
C244	C	0.433732	1.942588	0.858354
C245	C	-0.269351	1.192567	0.108344
C246	C	-0.019351	1.442567	0.358344
C247	C	0.230649	1.692567	0.608344
C248	C	0.480649	1.942567	0.858344
C249	C	-0.281057	1.091542	0.062416
C250	C	-0.031057	1.341542	0.312416
C251	C	0.218943	1.591542	0.562416
C252	C	0.468943	1.841542	0.812416
C253	C	-0.327969	1.091566	0.062424
C254	C	-0.077969	1.341566	0.312424
C255	C	0.172031	1.591566	0.562424
C256	C	0.422031	1.841566	0.812424
C257	C	-0.345574	1.142092	0.085396
C258	C	-0.095574	1.392092	0.335396
C259	C	0.154426	1.642092	0.585396
C260	C	0.404426	1.892092	0.835396
O261	O	-0.407160	1.048687	0.042909
O262	O	-0.157160	1.298687	0.292909
O263	O	0.092840	1.548687	0.542909
O264	O	0.342840	1.798687	0.792909
O265	O	-0.385548	1.235567	0.127902
O266	O	-0.135548	1.485567	0.377902
O267	O	0.114452	1.735567	0.627902
O268	O	0.364452	1.985567	0.877902
C269	C	-0.602444	1.192711	0.108392
C270	C	-0.352444	1.442711	0.358392
C271	C	-0.102444	1.692711	0.608392
C272	C	0.147556	1.942711	0.858392
C273	C	-0.631750	1.142210	0.085434
C274	C	-0.381750	1.392210	0.335434
C275	C	-0.131750	1.642210	0.585434
C276	C	0.118250	1.892210	0.835434
C277	C	-0.614143	1.091689	0.062468
C278	C	-0.364143	1.341689	0.312468
C279	C	-0.114143	1.591689	0.562468
C280	C	0.135857	1.841689	0.812468
C281	C	-0.678665	1.142233	0.085436
C282	C	-0.428665	1.392233	0.335436
C283	C	-0.178665	1.642233	0.585436
C284	C	0.071335	1.892233	0.835436
C285	C	-0.696272	1.192753	0.108402
C286	C	-0.446272	1.442753	0.358402
C287	C	-0.196272	1.692753	0.608402
C288	C	0.053728	1.942753	0.858402
C289	C	-0.666964	1.243251	0.131365
C290	C	-0.416964	1.493251	0.381365
C291	C	-0.166964	1.743251	0.631365
C292	C	0.083036	1.993251	0.881365
C293	C	-0.620051	1.243232	0.131358
C294	C	-0.370051	1.493232	0.381358
C295	C	-0.120051	1.743232	0.631358
C296	C	0.129949	1.993232	0.881358
C297	C	-0.643451	1.041192	0.039505
C298	C	-0.393451	1.291192	0.289505
C299	C	-0.143451	1.541192	0.539505
C300	C	0.106549	1.791192	0.789505
C301	C	-0.690364	1.041216	0.039513
C302	C	-0.440364	1.291216	0.289513
C303	C	-0.190364	1.541216	0.539513
C304	C	0.059636	1.791216	0.789513
C305	C	-0.707971	1.091736	0.062479
C306	C	-0.457971	1.341736	0.312479
C307	C	-0.207971	1.591736	0.562479
C308	C	0.042029	1.841736	0.812479
C309	C	0.032120	1.142289	0.085437
C310	C	0.282120	1.392289	0.335437
C311	C	0.532120	1.642289	0.585437
C312	C	0.782120	1.892289	0.835437
C313	C	0.082061	1.142350	0.085451
C314	C	0.332061	1.392350	0.335451
C315	C	0.582061	1.642350	0.585451
C316	C	0.832061	1.892350	0.835451
C317	C	-0.085092	1.142147	0.202584
C318	C	0.164908	1.392147	0.452584
C319	C	0.414908	1.642147	0.702584
C320	C	0.664908	1.892147	0.952584
C321	C	-0.085099	1.142147	0.252518
C322	C	0.164901	1.392147	0.502518
C323	C	0.414901	1.642147	0.752518
C324	C	0.664901	1.892147	1.002518
C325	C	-0.061358	1.348321	0.061770
C326	C	0.188642	1.598321	0.311770
C327	C	0.438642	1.848321	0.561770
C328	C	0.688642	2.098321	0.811770
C329	C	-0.051252	1.436181	0.051698
C330	C	0.198748	1.686181	0.301698
C331	C	0.448748	1.936181	0.551698
C332	C	0.698748	2.186181	0.801698
C333	C	-0.050525	1.192737	0.556377
C334	C	0.199475	1.442737	0.806377
C335	C	0.449475	1.692737	1.056377
C336	C	0.699475	1.942737	1.306377
C337	C	-0.050519	1.192743	0.744049
C338	C	0.199481	1.442743	0.994049
C339	C	0.449481	1.692743	1.244049
C340	C	0.699481	1.942743	1.494049
O341	O	-0.021126	1.235740	0.763398
O342	O	0.228874	1.485740	1.013398
O343	O	0.478874	1.735740	1.263398
O344	O	0.728874	1.985740	1.513398
N345	N	-0.085069	1.142160	0.773302
N346	N	0.164931	1.392160	1.023302
N347	N	0.414931	1.642160	1.273302
N348	N	0.664931	1.892160	1.523302
C349	C	-0.119621	1.091568	0.755635
C350	C	0.130379	1.341568	1.005635
C351	C	0.380379	1.591568	1.255635
C352	C	0.630379	1.841568	1.505635
O353	O	-0.149005	1.048538	0.784823
O354	O	0.100995	1.298538	1.034823
O355	O	0.350995	1.548538	1.284823
O356	O	0.600995	1.798538	1.534823
C357	C	-0.119625	1.091558	0.567964
C358	C	0.130375	1.341558	0.817964
C359	C	0.380375	1.591558	1.067964
C360	C	0.630375	1.841558	1.317964
C361	C	-0.085075	1.142151	0.538712
C362	C	0.164925	1.392151	0.788712
C363	C	0.414925	1.642151	1.038712
C364	C	0.664925	1.892151	1.288712
C365	C	-0.015978	1.243325	0.527126
C366	C	0.234022	1.493325	0.777126
C367	C	0.484022	1.743325	1.027126
C368	C	0.734022	1.993325	1.277126
C369	C	-0.015982	1.243326	0.480211
C370	C	0.234018	1.493326	0.730211
C371	C	0.484018	1.743326	0.980211
C372	C	0.734018	1.993326	1.230211
C373	C	-0.050532	1.192739	0.462546
C374	C	0.199468	1.442739	0.712546
C375	C	0.449468	1.692739	0.962546
C376	C	0.699468	1.942739	1.212546
C377	C	-0.085078	1.142152	0.491797
C378	C	0.164922	1.392152	0.741797
C379	C	0.414922	1.642152	0.991797
C380	C	0.664922	1.892152	1.241797
C381	C	-0.154174	1.040963	0.550297
C382	C	0.095826	1.290963	0.800297
C383	C	0.345826	1.540963	1.050297
C384	C	0.595826	1.790963	1.300297
C385	C	-0.154171	1.040964	0.503376
C386	C	0.095829	1.290964	0.753376
C387	C	0.345829	1.540964	1.003376
C388	C	0.595829	1.790964	1.253376
C389	C	-0.119622	1.091556	0.474125
C390	C	0.130378	1.341556	0.724125
C391	C	0.380378	1.591556	0.974125
C392	C	0.630378	1.841556	1.224125
C393	C	-0.119632	1.091566	0.427216
C394	C	0.130368	1.341566	0.677216
C395	C	0.380368	1.591566	0.927216
C396	C	0.630368	1.841566	1.177216
N397	N	-0.085082	1.142150	0.397964
N398	N	0.164918	1.392150	0.647964
N399	N	0.414918	1.642150	0.897964
N400	N	0.664918	1.892150	1.147964
C401	C	-0.050532	1.192736	0.415628
C402	C	0.199468	1.442736	0.665628
C403	C	0.449468	1.692736	0.915628
C404	C	0.699468	1.942736	1.165628
C405	C	-0.119617	1.091577	0.854164
C406	C	0.130383	1.341577	1.104164
C407	C	0.380383	1.591577	1.354164
C408	C	0.630383	1.841577	1.604164
C409	C	-0.119617	1.091581	0.901082
C410	C	0.130383	1.341581	1.151082
C411	C	0.380383	1.591581	1.401082
C412	C	0.630383	1.841581	1.651082
C413	C	-0.050515	1.192755	0.889493
C414	C	0.199485	1.442755	1.139493
C415	C	0.449485	1.692755	1.389493
C416	C	0.699485	1.942755	1.639493
C417	C	-0.050517	1.192755	0.842575
C418	C	0.199483	1.442755	1.092575
C419	C	0.449483	1.692755	1.342575
C420	C	0.699483	1.942755	1.592575
C421	C	-0.085067	1.142161	0.824912
C422	C	0.164933	1.392161	1.074912
C423	C	0.414933	1.642161	1.324912
C424	C	0.664933	1.892161	1.574912
C425	C	-0.050542	1.192735	0.317103
C426	C	0.199458	1.442735	0.567103
C427	C	0.449458	1.692735	0.817103
C428	C	0.699458	1.942735	1.067103
C429	C	-0.050549	1.192734	0.270183
C430	C	0.199451	1.442734	0.520183
C431	C	0.449451	1.692734	0.770183
C432	C	0.699451	1.942734	1.020183
C433	C	-0.119649	1.091557	0.281776
C434	C	0.130351	1.341557	0.531776
C435	C	0.380351	1.591557	0.781776
C436	C	0.630351	1.841557	1.031776
C437	C	-0.119644	1.091561	0.328691
C438	C	0.130356	1.341561	0.578691
C439	C	0.380356	1.591561	0.828691
C440	C	0.630356	1.841561	1.078691
C441	C	-0.085086	1.142152	0.346353
C442	C	0.164914	1.392152	0.596353
C443	C	0.414914	1.642152	0.846353
C444	C	0.664914	1.892152	1.096353
O445	O	-0.149007	1.048586	0.407837
O446	O	0.100993	1.298586	0.657837
O447	O	0.350993	1.548586	0.907837
O448	O	0.600993	1.798586	1.157837
O449	O	-0.021147	1.235747	0.386434
O450	O	0.228853	1.485747	0.636434
O451	O	0.478853	1.735747	0.886434
O452	O	0.728853	1.985747	1.136434
C453	C	-0.050522	1.192736	0.603293
C454	C	0.199478	1.442736	0.853293
C455	C	0.449478	1.692736	1.103293
C456	C	0.699478	1.942736	1.353293
C457	C	-0.085069	1.142149	0.632543
C458	C	0.164931	1.392149	0.882543
C459	C	0.414931	1.642149	1.132543
C460	C	0.664931	1.892149	1.382543
C461	C	-0.119619	1.091562	0.614879
C462	C	0.130381	1.341562	0.864879
C463	C	0.380381	1.591562	1.114879
C464	C	0.630381	1.841562	1.364879
C465	C	-0.085069	1.142152	0.679461
C466	C	0.164931	1.392152	0.929461
C467	C	0.414931	1.642152	1.179461
C468	C	0.664931	1.892152	1.429461
C469	C	-0.050519	1.192738	0.697126
C470	C	0.199481	1.442738	0.947126
C471	C	0.449481	1.692738	1.197126
C472	C	0.699481	1.942738	1.447126
C473	C	-0.015969	1.243322	0.667873
C474	C	0.234031	1.493322	0.917873
C475	C	0.484031	1.743322	1.167873
C476	C	0.734031	1.993322	1.417873
C477	C	-0.015972	1.243323	0.620958
C478	C	0.234028	1.493323	0.870958
C479	C	0.484028	1.743323	1.120958
C480	C	0.734028	1.993323	1.370958
C481	C	-0.154168	1.040979	0.644131
C482	C	0.095832	1.290979	0.894131
C483	C	0.345832	1.540979	1.144131
C484	C	0.595832	1.790979	1.394131
C485	C	-0.154163	1.040983	0.691046
C486	C	0.095837	1.290983	0.941046
C487	C	0.345837	1.540983	1.191046
C488	C	0.595837	1.790983	1.441046
C489	C	-0.119613	1.091569	0.708711
C490	C	0.130387	1.341569	0.958711
C491	C	0.380387	1.591569	1.208711
C492	C	0.630387	1.841569	1.458711
C493	C	-0.085070	1.142147	0.968683
C494	C	0.164930	1.392147	1.218683
C495	C	0.414930	1.642147	1.468683
C496	C	0.664930	1.892147	1.718683
C497	C	-0.085067	1.142167	0.918746
C498	C	0.164933	1.392167	1.168746
C499	C	0.414933	1.642167	1.418746
C500	C	0.664933	1.892167	1.668746
H501	H	-0.174658	0.567636	0.174660
H502	H	0.075342	0.817636	0.424660
H503	H	0.325342	1.067636	0.674660
H504	H	0.575342	1.317636	0.924660
F505	F	-0.544955	1.296966	0.155792
F506	F	-0.294955	1.546966	0.405792
F507	F	-0.044955	1.796966	0.655792
F508	F	0.205045	2.046966	0.905792
F509	F	-0.036624	0.812970	0.037129
F510	F	0.213376	1.062970	0.287129
F511	F	0.463376	1.312970	0.537129
F512	F	0.713376	1.562970	0.787129
H513	H	-0.131070	0.492772	0.131230
H514	H	0.118930	0.742772	0.381230
H515	H	0.368930	0.992772	0.631230
H516	H	0.618930	1.242772	0.881230
F517	F	-0.177923	0.851555	0.177924
F518	F	0.072077	1.101555	0.427924
F519	F	0.322077	1.351555	0.677924
F520	F	0.572077	1.601555	0.927924
F521	F	-0.013744	1.246593	0.908301
F522	F	0.236256	1.496593	1.158301
F523	F	0.486256	1.746593	1.408301
F524	F	0.736256	1.996593	1.658301
H525	H	-0.924189	1.050711	0.043783
H526	H	-0.674189	1.300711	0.293783
H527	H	-0.424189	1.550711	0.543783
H528	H	-0.174189	1.800711	0.793783
H529	H	0.001847	0.443867	-0.001201
H530	H	0.251847	0.693867	0.248799
H531	H	0.501847	0.943867	0.498799
H532	H	0.751847	1.193867	0.748799
F533	F	-0.834687	1.038021	0.038041
F534	F	-0.584687	1.288021	0.288041
F535	F	-0.334687	1.538021	0.538041
F536	F	-0.084687	1.788021	0.788041
H537	H	-0.573476	1.000009	0.020800
H538	H	-0.323476	1.250009	0.270800
H539	H	-0.073476	1.500009	0.520800
H540	H	0.176524	1.750009	0.770800
F541	F	-0.359160	1.037822	0.037981
F542	F	-0.109160	1.287822	0.287981
F543	F	0.140840	1.537822	0.537981
F544	F	0.390840	1.787822	0.787981
H545	H	-0.245489	1.233698	0.127040
H546	H	0.004511	1.483698	0.377040
H547	H	0.254511	1.733698	0.627040
H548	H	0.504511	1.983698	0.877040
H549	H	0.012153	1.284522	0.456398
H550	H	0.262153	1.534522	0.706398
H551	H	0.512153	1.784522	0.956398
H552	H	0.762153	2.034522	1.206398
F553	F	-0.190945	0.987111	0.484581
F554	F	0.059055	1.237111	0.734581
F555	F	0.309055	1.487111	0.984581
F556	F	0.559055	1.737111	1.234581
H557	H	0.004597	0.717450	-0.003927
H558	H	0.254597	0.967450	0.246073
H559	H	0.504597	1.217450	0.496073
H560	H	0.754597	1.467450	0.746073
H561	H	-0.147755	1.050378	0.839788
H562	H	0.102245	1.300378	1.089788
H563	H	0.352245	1.550378	1.339788
H564	H	0.602245	1.800378	1.589788
F565	F	-0.907377	1.246620	0.132856
F566	F	-0.657377	1.496620	0.382856
F567	F	-0.407377	1.746620	0.632856
F568	F	-0.157377	1.996620	0.882856
H569	H	0.012162	1.284520	0.597145
H570	H	0.262162	1.534520	0.847145
H571	H	0.512162	1.784520	1.097145
H572	H	0.762162	2.034520	1.347145
F573	F	0.020795	1.297178	0.545918
F574	F	0.270795	1.547178	0.795918
F575	F	0.520795	1.797178	1.045918
F576	F	0.770795	2.047178	1.295918
H577	H	-0.189173	0.691460	0.189125
H578	H	0.060827	0.941460	0.439125
H579	H	0.310827	1.191460	0.689125
H580	H	0.560827	1.441460	0.939125
H581	H	-0.488372	0.999968	0.020797
H582	H	-0.238372	1.249968	0.270797
H583	H	0.011628	1.499968	0.520797
H584	H	0.261628	1.749968	0.770797
F585	F	-0.059097	0.851586	0.059533
F586	F	0.190903	1.101586	0.309533
F587	F	0.440903	1.351586	0.559533
F588	F	0.690903	1.601586	0.809533
F589	F	-0.262309	1.037778	0.037975
F590	F	-0.012309	1.287778	0.287975
F591	F	0.237691	1.537778	0.537975
F592	F	0.487691	1.787778	0.787975
H593	H	-0.147780	1.050373	0.267384
H594	H	0.102220	1.300373	0.517384
H595	H	0.352220	1.550373	0.767384
H596	H	0.602220	1.800373	1.017384
H597	H	-0.596192	1.284358	0.150055
H598	H	-0.346192	1.534358	0.400055
H599	H	-0.096192	1.784358	0.650055
H600	H	0.153808	2.034358	0.900055
F601	F	-0.448126	1.296926	0.155779
F602	F	-0.198126	1.546926	0.405779
F603	F	0.051874	1.796926	0.655779
F604	F	0.301874	2.046926	0.905779
H605	H	-0.714222	1.000089	0.020812
H606	H	-0.464222	1.250089	0.270812
H607	H	-0.214222	1.500089	0.520812
H608	H	0.035778	1.750089	0.770812
F609	F	-0.013745	1.246601	0.811447
F610	F	0.236255	1.496601	1.061447
F611	F	0.486255	1.746601	1.311447
F612	F	0.736255	1.996601	1.561447
H613	H	-0.330596	1.233726	0.127064
H614	H	-0.080596	1.483726	0.377064
H615	H	0.169404	1.733726	0.627064
H616	H	0.419404	1.983726	0.877064
H617	H	-0.817854	1.233958	0.127106
H618	H	-0.567854	1.483958	0.377106
H619	H	-0.317854	1.733958	0.627106
H620	H	-0.067854	1.983958	0.877106
F621	F	0.020801	1.297162	0.686681
F622	F	0.270801	1.547162	0.936681
F623	F	0.520801	1.797162	1.186681
F624	F	0.770801	2.047162	1.436681
F625	F	-0.190943	0.987134	0.625338
F626	F	0.059057	1.237134	0.875338
F627	F	0.309057	1.487134	1.125338
F628	F	0.559057	1.737134	1.375338
H629	H	-0.681307	1.284389	0.150062
H630	H	-0.431307	1.534389	0.400062
H631	H	-0.181307	1.784389	0.650062
H632	H	0.068693	2.034389	0.900062
H633	H	-0.182301	0.999786	0.714859
H634	H	0.067699	1.249786	0.964859
H635	H	0.317699	1.499786	1.214859
H636	H	0.567699	1.749786	1.464859
H637	H	-0.022400	1.233929	0.331477
H638	H	0.227600	1.483929	0.581477
H639	H	0.477600	1.733929	0.831477
H640	H	0.727600	1.983929	1.081477
F641	F	-0.624720	0.987415	0.015063
F642	F	-0.374720	1.237415	0.265063
F643	F	-0.124720	1.487415	0.515063
F644	F	0.125280	1.737415	0.765063
F645	F	-0.190948	0.987117	0.581419
F646	F	0.059052	1.237117	0.831419
F647	F	0.309052	1.487117	1.081419
F648	F	0.559052	1.737117	1.331419
H649	H	-0.022414	1.233935	0.246368
H650	H	0.227586	1.483935	0.496368
H651	H	0.477586	1.733935	0.746368
H652	H	0.727586	1.983935	0.996368
F653	F	-0.156417	1.037720	0.359823
F654	F	0.093583	1.287720	0.609823
F655	F	0.343583	1.537720	0.859823
F656	F	0.593583	1.787720	1.109823
F657	F	0.027491	0.603957	-0.026749
F658	F	0.277491	0.853957	0.223251
F659	F	0.527491	1.103957	0.473251
F660	F	0.777491	1.353957	0.723251
F661	F	-0.156394	1.037745	0.932207
F662	F	0.093606	1.287745	1.182207
F663	F	0.343606	1.537745	1.432207
F664	F	0.593606	1.787745	1.682207
F665	F	-0.110974	0.433506	0.111196
F666	F	0.139026	0.683506	0.361196
F667	F	0.389026	0.933506	0.611196
F668	F	0.639026	1.183506	0.861196
