data_functionalizedCrystal
_audit_creation_method	'MofGen! by Chris Wilmer'
_symmetry_space_group_name_H-M	'P1'
_symmetry_Int_Tables_number	1
_symmetry_cell_setting	triclinic
loop_
_symmetry_equiv_pos_as_xyz
  x,y,z
_cell_length_a	15.995350
_cell_length_b	15.995280
_cell_length_c	14.472311
_cell_angle_alpha	90.005962
_cell_angle_beta	89.997596
_cell_angle_gamma	83.477985
loop_
_atom_site_label
_atom_site_type_symbol
_atom_site_fract_x
_atom_site_fract_y
_atom_site_fract_z
O1	O	-1.110961	-0.107920	0.076758
O2	O	-0.867183	-0.121248	0.076776
O3	O	-0.995767	0.007308	0.076766
O4	O	-0.982377	-0.236475	0.076768
O5	O	-0.995749	0.007291	-0.076916
O6	O	-0.867165	-0.121265	-0.076906
O7	O	-1.110944	-0.107937	-0.076924
Cu8	Cu	-0.989053	-0.114602	-0.090948
Cu9	Cu	-0.989074	-0.114582	0.090799
O10	O	-0.982360	-0.236492	-0.076914
C11	C	-0.835979	-0.120705	-0.000062
C12	C	-0.743029	-0.119053	-0.000055
C13	C	-0.995215	0.038495	-0.000073
C14	C	-0.993587	0.131449	-0.000068
N15	N	-0.989045	-0.114616	-0.218778
C16	C	-1.142147	-0.108479	-0.000084
C17	C	-1.235097	-0.110131	-0.000085
C18	C	-0.405283	-0.113121	-0.000075
C19	C	-0.452741	-0.021566	-0.000418
C20	C	-0.549430	-0.023218	-0.000065
C21	C	-0.572843	-0.116063	-0.000066
C22	C	-0.531755	-0.161212	0.087691
C23	C	-0.435119	-0.158912	0.087758
C24	C	-0.434760	-0.160823	-0.087007
C25	C	-0.531706	-0.160801	-0.088160
C26	C	-0.667540	-0.117731	-0.000057
C27	C	-0.310586	-0.111456	-0.000077
C28	C	-0.987600	0.469189	-0.000081
C29	C	-1.080403	0.445877	-0.000431
C30	C	-1.082163	0.349201	-0.000080
C31	C	-0.990571	0.301632	-0.000075
C32	C	-0.944184	0.330743	0.087685
C33	C	-0.943071	0.427534	0.087754
C34	C	-0.941156	0.427372	-0.087011
C35	C	-0.944591	0.330879	-0.088166
C36	C	-0.992245	0.206936	-0.000068
C37	C	-0.985924	0.563885	-0.000081
C38	C	-0.982923	0.732322	-0.000077
C39	C	-0.984584	0.639373	-0.000088
C40	C	-0.989060	-0.114597	-0.407279
C41	C	-0.920246	-0.183360	-0.446503
C42	C	-0.920010	-0.183172	-0.553591
C43	C	-0.989074	-0.114580	-0.592870
C44	C	-0.970371	-0.027107	-0.553978
C45	C	-0.969869	-0.027520	-0.446857
C46	C	-1.076788	-0.132520	-0.446744
C47	C	-1.076207	-0.134495	-0.553873
C48	C	-0.989084	-0.114565	-0.697758
C49	C	-0.989048	-0.114606	-0.302390
N50	N	-0.989088	-0.114562	0.218630
H51	H	-0.577861	0.012272	-0.062973
H52	H	-0.931139	-0.248593	-0.420755
H53	H	-1.018103	0.025204	-0.420907
H54	H	-0.560144	-0.129840	0.153001
H55	H	-1.118721	0.330803	0.062936
H56	H	-1.019181	0.025313	-0.579417
H57	H	-1.116169	0.473867	-0.063368
H58	H	-0.872846	0.441363	-0.087599
H59	H	-0.907145	-0.010980	-0.580825
H60	H	-0.905901	-0.011778	-0.421884
H61	H	-0.854907	-0.171680	-0.579231
H62	H	-1.094845	-0.194966	-0.419737
H63	H	-0.547053	-0.228507	-0.093461
H64	H	-0.545863	-0.229423	0.090954
H65	H	-1.090400	-0.198853	-0.579278
H66	H	-1.129793	-0.087681	-0.580609
H67	H	-0.414225	-0.130899	-0.153525
H68	H	-0.559023	-0.127843	-0.153083
H69	H	-0.416827	-0.125973	0.153359
H70	H	-1.127994	-0.082380	-0.421370
H71	H	-1.118493	0.330168	-0.062988
H72	H	-0.434221	0.015024	-0.063352
H73	H	-0.876784	0.298876	0.090952
H74	H	-0.433163	0.014869	0.062168
H75	H	-0.402854	-0.226129	0.091741
H76	H	-0.402982	-0.228326	-0.087601
H77	H	-0.577304	0.012525	0.062951
H78	H	-1.115984	0.474901	0.062148
H79	H	-0.875027	0.442085	0.091733
H80	H	-0.975213	0.454358	0.153353
H81	H	-0.976410	0.310690	0.152993
H82	H	-0.978368	0.312306	-0.153090
H83	H	-0.970376	0.455454	-0.153533
H84	H	-0.877737	0.297909	-0.093463
H85	H	-0.931094	-0.248184	-0.579888
H86	H	-0.855503	-0.172036	-0.419598
