data_functionalizedCrystal
_audit_creation_method	'MofGen! by Chris Wilmer'
_symmetry_space_group_name_H-M	'P1'
_symmetry_Int_Tables_number	1
_symmetry_cell_setting	triclinic
loop_
_symmetry_equiv_pos_as_xyz
  x,y,z
_cell_length_a	22.610064
_cell_length_b	14.519709
_cell_length_c	14.519709
_cell_angle_alpha	96.319856
_cell_angle_beta	89.992077
_cell_angle_gamma	89.991569
loop_
_atom_site_label
_atom_site_type_symbol
_atom_site_fract_x
_atom_site_fract_y
_atom_site_fract_z
O1	O	0.049099	-1.223881	0.120881
O2	O	0.549099	-0.723881	0.620881
O3	O	0.049116	-0.955404	0.135118
O4	O	0.549116	-0.455404	0.635118
O5	O	0.049113	-1.096761	-0.006239
O6	O	0.549113	-0.596761	0.493761
O7	O	0.049103	-1.082525	0.262238
O8	O	0.549103	-0.582525	0.762238
O9	O	-0.049257	-1.096721	-0.006223
O10	O	0.450743	-0.596721	0.493777
O11	O	-0.049253	-0.955364	0.135134
O12	O	0.450747	-0.455364	0.635134
O13	O	-0.049270	-1.223841	0.120897
O14	O	0.450730	-0.723841	0.620897
Zn15	Zn	-0.064880	-1.089597	0.128018
Zn16	Zn	0.435120	-0.589597	0.628018
Zn17	Zn	0.064726	-1.089649	0.127997
Zn18	Zn	0.564726	-0.589649	0.627997
O19	O	-0.049266	-1.082485	0.262254
O20	O	0.450734	-0.582485	0.762254
C21	C	-0.000066	-0.921025	0.134462
C22	C	0.499934	-0.421025	0.634462
C23	C	-0.000059	-0.818643	0.132474
C24	C	0.499941	-0.318643	0.632474
C25	C	-0.000069	-1.096078	-0.040591
C26	C	0.499931	-0.596078	0.459409
C27	C	-0.000061	-1.094089	-0.142972
C28	C	0.499939	-0.594089	0.357028
N29	N	-0.153332	-1.089567	0.128032
N30	N	0.346668	-0.589567	0.628032
C31	C	-0.438167	-1.033604	0.071932
C32	C	0.061833	-0.533604	0.571932
C33	C	-0.376248	-1.033595	0.071936
C34	C	0.123752	-0.533595	0.571936
O35	O	-0.344218	-0.985975	0.024241
O36	O	0.155782	-0.485975	0.524241
N37	N	-0.345284	-1.089606	0.128002
N38	N	0.154716	-0.589606	0.628002
C39	C	-0.376244	-1.145636	0.184061
C40	C	0.123756	-0.645636	0.684061
O41	O	-0.344222	-1.193277	0.231749
O42	O	0.155778	-0.693277	0.731749
C43	C	-0.438163	-1.145649	0.184051
C44	C	0.061837	-0.645649	0.684051
C45	C	-0.469123	-1.089627	0.127988
C46	C	0.030877	-0.589627	0.627988
C47	C	-0.469127	-0.977588	0.015872
C48	C	0.030873	-0.477588	0.515872
C49	C	-0.531043	-0.977595	0.015869
C50	C	-0.031043	-0.477595	0.515869
C51	C	-0.561999	-1.033619	0.071926
C52	C	-0.061999	-0.533619	0.571926
C53	C	-0.531039	-1.089635	0.127985
C54	C	-0.031039	-0.589635	0.627985
C55	C	-0.469122	-1.201683	0.240104
C56	C	0.030878	-0.701683	0.740104
C57	C	-0.531045	-1.201692	0.240088
C58	C	-0.031045	-0.701692	0.740088
C59	C	-0.562005	-1.145671	0.184025
C60	C	-0.062005	-0.645671	0.684025
C61	C	-0.623910	-1.145667	0.184038
C62	C	-0.123910	-0.645667	0.684038
N63	N	-0.654873	-1.089656	0.127972
N64	N	-0.154873	-0.589656	0.627972
C65	C	-0.623918	-1.033632	0.071916
C66	C	-0.123918	-0.533632	0.571916
C67	C	-0.246211	-1.145605	0.184076
C68	C	0.253789	-0.645605	0.684076
C69	C	-0.184293	-1.145588	0.184092
C70	C	0.315707	-0.645588	0.684092
C71	C	-0.184301	-1.033548	0.071966
C72	C	0.315699	-0.533548	0.571966
C73	C	-0.246219	-1.033561	0.071956
C74	C	0.253781	-0.533561	0.571956
C75	C	-0.277174	-1.089595	0.128010
C76	C	0.222826	-0.589595	0.628010
C77	C	-0.753945	-1.033652	0.071914
C78	C	-0.253945	-0.533652	0.571914
C79	C	-0.815866	-1.033662	0.071919
C80	C	-0.315866	-0.533662	0.571919
C81	C	-0.815853	-1.145705	0.184042
C82	C	-0.315853	-0.645705	0.684042
C83	C	-0.753937	-1.145692	0.184041
C84	C	-0.253937	-0.645692	0.684041
C85	C	-0.722985	-1.089663	0.127970
C86	C	-0.222985	-0.589663	0.627970
O87	O	-0.655979	-1.193266	0.231707
O88	O	-0.155979	-0.693266	0.731707
O89	O	-0.655947	-0.986008	0.024226
O90	O	-0.155947	-0.486008	0.524226
N91	N	0.153178	-1.089686	0.127976
N92	N	0.653178	-0.589686	0.627976
C93	C	-0.000086	-1.258221	0.121553
C94	C	0.499914	-0.758221	0.621553
C95	C	-0.000090	-1.360602	0.123541
C96	C	0.499910	-0.860602	0.623541
C97	C	-0.000086	-0.443748	0.125154
C98	C	0.499914	0.056252	0.625154
C99	C	-0.000078	-0.548056	0.127187
C100	C	0.499922	-0.048056	0.627187
C101	C	-0.000072	-0.631192	0.128814
C102	C	0.499928	-0.131192	0.628814
C103	C	-0.000065	-0.735507	0.130847
C104	C	0.499935	-0.235507	0.630847
C105	C	-0.000083	-1.083168	0.296606
C106	C	0.499917	-0.583168	0.796606
C107	C	-0.000087	-1.085156	0.398987
C108	C	0.499913	-0.585156	0.898987
C109	C	-0.000064	-1.092476	0.773883
C110	C	0.499936	-0.592476	1.273883
C111	C	-0.000071	-1.090443	0.669575
C112	C	0.499929	-0.590443	1.169575
C113	C	-0.000076	-1.088816	0.586438
C114	C	0.499924	-0.588816	1.086438
C115	C	-0.000082	-1.086783	0.482123
C116	C	0.499918	-0.586783	0.982123
H117	H	-0.728751	-0.988028	0.026256
H118	H	-0.228751	-0.488028	0.526256
H119	H	-0.841071	-0.988039	0.026266
H120	H	-0.341071	-0.488039	0.526266
C121	C	-0.684291	-1.269727	0.190083
C122	C	-0.184291	-0.769727	0.690083
C123	C	-0.719903	-1.207267	0.245669
C124	C	-0.219903	-0.707267	0.745669
H125	H	-0.663281	-1.307743	0.228128
H126	H	-0.163281	-0.807743	0.728128
H127	H	-0.708440	-1.307442	0.147734
H128	H	-0.208440	-0.807442	0.647734
H129	H	-0.656992	-1.236354	0.156702
H130	H	-0.156992	-0.736354	0.656702
H131	H	-0.747205	-1.240641	0.279044
H132	H	-0.247205	-0.740641	0.779044
H133	H	-0.695751	-1.169549	0.288035
H134	H	-0.195751	-0.669549	0.788035
C135	C	-0.315857	-1.151581	0.308131
C136	C	0.184143	-0.651581	0.808131
C137	C	-0.280236	-1.207192	0.245706
C138	C	0.219764	-0.707192	0.745706
H139	H	-0.336862	-1.189605	0.346172
H140	H	0.163138	-0.689605	0.846172
H141	H	-0.291713	-1.109203	0.345823
H142	H	0.208287	-0.609203	0.845823
H143	H	-0.343159	-1.118233	0.274732
H144	H	0.156841	-0.618233	0.774732
H145	H	-0.252930	-1.240535	0.279106
H146	H	0.247070	-0.740535	0.779106
H147	H	-0.304381	-1.249587	0.208010
H148	H	0.195619	-0.749587	0.708010
C149	C	-0.475361	-1.312452	0.350905
C150	C	0.024639	-0.812452	0.850905
C151	C	-0.435102	-1.263274	0.301722
C152	C	0.064898	-0.763274	0.801722
H153	H	-0.454358	-1.350483	0.388941
H154	H	0.045642	-0.850483	0.888941
H155	H	-0.499518	-1.270076	0.388600
H156	H	0.000482	-0.770076	0.888600
H157	H	-0.499504	-1.350160	0.308525
H158	H	0.000496	-0.850160	0.808525
H159	H	-0.410962	-1.225561	0.344102
H160	H	0.089038	-0.725561	0.844102
H161	H	-0.410934	-1.305656	0.264023
H162	H	0.089066	-0.805656	0.764023
H163	H	-0.159091	-1.191195	0.229755
H164	H	0.340909	-0.691195	0.729755
C165	C	-0.600690	-1.207676	0.364138
C166	C	-0.100690	-0.707676	0.864138
C167	C	-0.565071	-1.263285	0.301708
C168	C	-0.065071	-0.763285	0.801708
H169	H	-0.621697	-1.245702	0.402175
H170	H	-0.121697	-0.745702	0.902175
H171	H	-0.576545	-1.165304	0.401834
H172	H	-0.076545	-0.665304	0.901834
H173	H	-0.627991	-1.174322	0.330742
H174	H	-0.127991	-0.674322	0.830742
H175	H	-0.537767	-1.296635	0.335104
H176	H	-0.037767	-0.796635	0.835104
H177	H	-0.589218	-1.305674	0.264008
H178	H	-0.089218	-0.805674	0.764008
H179	H	-0.271423	-0.987943	0.026304
H180	H	0.228577	-0.487943	0.526304
H181	H	-0.159085	-0.987930	0.026321
H182	H	0.340915	-0.487930	0.526321
H183	H	-0.443930	-0.931966	-0.029780
H184	H	0.056070	-0.431966	0.470220
C185	C	-0.834904	-1.300247	0.220586
C186	C	-0.334904	-0.800247	0.720586
C187	C	-0.849887	-1.207289	0.245653
C188	C	-0.349887	-0.707289	0.745653
H189	H	-0.855915	-1.338269	0.258623
H190	H	-0.355915	-0.838269	0.758623
H191	H	-0.845040	-1.317266	0.157527
H192	H	-0.345040	-0.817266	0.657527
H193	H	-0.793597	-1.308251	0.228624
H194	H	-0.293597	-0.808251	0.728624
H195	H	-0.891194	-1.199284	0.237609
H196	H	-0.391194	-0.699284	0.737609
H197	H	-0.839756	-1.190265	0.308727
H198	H	-0.339756	-0.690265	0.808727
C199	C	-0.524818	-0.866862	-0.094971
C200	C	-0.024818	-0.366862	0.405029
C201	C	-0.565072	-0.916028	-0.045768
C202	C	-0.065072	-0.416028	0.454232
H203	H	-0.545825	-0.828858	-0.133030
H204	H	-0.045825	-0.328858	0.366970
H205	H	-0.500683	-0.829134	-0.052610
H206	H	-0.000683	-0.329134	0.447390
H207	H	-0.500653	-0.909252	-0.132653
H208	H	-0.000653	-0.409252	0.367347
H209	H	-0.589234	-0.873638	-0.008080
H210	H	-0.089234	-0.373638	0.491920
H211	H	-0.589217	-0.953758	-0.088133
H212	H	-0.089217	-0.453758	0.411867
