data_functionalizedCrystal
_audit_creation_method	'MofGen! by Chris Wilmer'
_symmetry_space_group_name_H-M	'P1'
_symmetry_Int_Tables_number	1
_symmetry_cell_setting	triclinic
loop_
_symmetry_equiv_pos_as_xyz
  x,y,z
_cell_length_a	17.699083
_cell_length_b	10.540539
_cell_length_c	16.176319
_cell_angle_alpha	89.995366
_cell_angle_beta	89.998611
_cell_angle_gamma	83.904253
loop_
_atom_site_label
_atom_site_type_symbol
_atom_site_fract_x
_atom_site_fract_y
_atom_site_fract_z
O1	O	1.005122	0.160521	-0.068627
O2	O	0.784880	0.181405	-0.068653
O3	O	0.900026	-0.013836	-0.068638
O4	O	0.889976	0.355761	-0.068642
O5	O	0.900010	-0.013848	0.068855
O6	O	0.784864	0.181392	0.068840
O7	O	1.005106	0.160508	0.068866
Cu8	Cu	0.894984	0.170949	0.081407
Cu9	Cu	0.895003	0.170964	-0.081194
O10	O	0.889960	0.355749	0.068852
C11	C	0.756670	0.180650	0.000090
C12	C	0.672637	0.178405	0.000080
C13	C	0.899264	-0.061131	0.000107
C14	C	0.897009	-0.202038	0.000102
C15	C	0.624761	0.293007	0.000079
C16	C	0.545804	0.290890	0.000090
C17	C	0.514725	0.174170	0.000095
C18	C	0.562607	0.059559	0.000098
C19	C	0.641562	0.061677	0.000094
C20	C	0.244188	0.051014	0.000119
C21	C	0.165226	0.048904	0.000121
C22	C	0.148430	0.280227	0.000115
C23	C	0.227386	0.282345	0.000110
C24	C	0.275261	0.167735	0.000118
C25	C	0.360875	0.170032	0.000108
C26	C	0.429112	0.171872	0.000099
C27	C	0.810610	-0.383885	-0.000217
C28	C	0.812896	-0.237308	0.000093
C29	C	0.937479	-0.264443	0.078622
C30	C	0.934609	-0.410935	0.078688
C31	C	0.936338	-0.411471	-0.077667
C32	C	0.937113	-0.264503	-0.078705
C33	C	1.033316	0.161263	0.000122
C34	C	1.117349	0.163508	0.000126
C35	C	0.890722	0.403044	0.000105
C36	C	0.892977	0.543951	0.000104
N37	N	0.894976	0.170938	0.195773
N38	N	0.895016	0.170965	-0.195559
C39	C	0.945978	0.084521	0.239043
C40	C	0.945982	0.084519	0.325591
C41	C	0.894987	0.170942	0.368865
C42	C	0.843979	0.257364	0.325588
C43	C	0.843972	0.257358	0.239043
C44	C	0.844005	0.257387	0.674617
C45	C	0.844017	0.257389	0.761168
C46	C	0.946015	0.084549	0.761164
C47	C	0.946008	0.084543	0.674619
C48	C	0.894998	0.170959	0.631349
C49	C	0.894993	0.170958	0.537505
C50	C	0.894994	0.170951	0.462708
H51	H	0.650060	0.388054	0.000074
C52	C	0.713396	0.332177	0.787841
C53	C	0.787953	0.352380	0.808740
H54	H	0.678788	0.390813	0.817215
H55	H	0.706092	0.344551	0.730113
H56	H	0.704742	0.247470	0.802035
H57	H	0.796609	0.437085	0.794540
H58	H	0.795260	0.340017	0.866481
H59	H	0.997092	-0.459808	-0.078188
C60	C	0.743629	-0.316388	0.123921
C61	C	0.765920	-0.423836	0.075359
H62	H	0.716035	-0.341056	0.170574
H63	H	0.787391	-0.279331	0.141984
H64	H	0.712332	-0.255917	0.092139
H65	H	0.797221	-0.484304	0.107139
H66	H	0.722151	-0.460913	0.057295
H67	H	0.109440	0.373548	0.000113
H68	H	0.998438	-0.241403	-0.083439
C69	C	0.991280	0.007770	0.458257
C70	C	1.002045	-0.010472	0.373155
H71	H	1.025890	-0.050884	0.487619
H72	H	0.999955	0.092460	0.472431
H73	H	0.940696	-0.005916	0.472437
H74	H	1.052628	0.003223	0.358973
H75	H	0.993376	-0.095182	0.358975
C76	C	0.828507	0.430179	0.577294
C77	C	0.787945	0.352396	0.627065
H78	H	0.793896	0.488834	0.547934
H79	H	0.860257	0.475756	0.611050
H80	H	0.858866	0.378694	0.539132
H81	H	0.757590	0.403879	0.665231
H82	H	0.756182	0.306815	0.593306
H83	H	0.802440	0.327726	0.203813
H84	H	0.506826	0.384211	0.000088
C85	C	0.874869	-0.345590	-0.205255
C86	C	0.899600	-0.453376	-0.158013
H87	H	0.852188	-0.371463	-0.254856
H88	H	0.838639	-0.291716	-0.174606
H89	H	0.917013	-0.300502	-0.218355
H90	H	0.857456	-0.498458	-0.144907
H91	H	0.935833	-0.507271	-0.188668
C92	C	0.741843	-0.276078	-0.122094
C93	C	0.769898	-0.178990	-0.075884
H94	H	0.715290	-0.240075	-0.168996
H95	H	0.782945	-0.335134	-0.139758
H96	H	0.708257	-0.318857	-0.088870
H97	H	0.803489	-0.136217	-0.109107
H98	H	0.728791	-0.119912	-0.058222
C99	C	1.046827	-0.086319	0.683310
C100	C	1.002061	-0.010460	0.627052
H101	H	1.081427	-0.144977	0.653943
H102	H	1.074338	-0.033539	0.717054
H103	H	1.015073	-0.131904	0.717077
H104	H	1.033815	0.035133	0.593289
H105	H	0.974547	-0.063246	0.593294
C106	C	0.798703	0.334130	0.458256
C107	C	0.787924	0.352366	0.373154
H108	H	0.764101	0.392791	0.487618
H109	H	0.790028	0.249443	0.472446
H110	H	0.849291	0.347812	0.472421
H111	H	0.737338	0.338674	0.358988
H112	H	0.796594	0.437073	0.358959
C113	C	1.046797	-0.086338	0.247742
C114	C	1.002034	-0.010482	0.191480
H115	H	1.081399	-0.144997	0.218378
H116	H	1.074306	-0.033556	0.281487
H117	H	1.015042	-0.131923	0.281508
H118	H	1.033789	0.035110	0.157718
H119	H	0.974522	-0.063272	0.157721
C120	C	0.872809	-0.338744	0.204863
C121	C	0.894205	-0.448280	0.157907
H122	H	0.847859	-0.361796	0.253767
H123	H	0.916733	-0.299074	0.219210
H124	H	0.839311	-0.281084	0.173459
H125	H	0.927707	-0.505937	0.189310
H126	H	0.850274	-0.487969	0.143562
C127	C	0.202850	0.510793	0.000115
C128	C	0.261547	0.410647	0.000108
H129	H	0.223941	0.590002	0.000121
H130	H	0.172405	0.505167	-0.047829
H131	H	0.172404	0.505139	0.048066
H132	H	0.291991	0.416296	-0.047846
H133	H	0.292005	0.416277	0.048056
H134	H	0.987548	0.014180	0.796403
H135	H	0.139925	-0.046149	0.000127
H136	H	0.999250	-0.243219	0.081549
H137	H	0.283159	-0.042309	0.000126
C138	C	1.067557	-0.384877	0.086348
C139	C	1.016268	-0.477195	0.083522
H140	H	1.117968	-0.425781	0.089341
H141	H	1.062107	-0.333725	0.037938
H142	H	1.057388	-0.332528	0.133694
H143	H	1.026434	-0.529538	0.036172
H144	H	1.021721	-0.528368	0.131938
H145	H	0.907501	-0.223097	-0.136792
C146	C	0.483564	-0.077020	-0.070578
C147	C	0.528446	-0.068744	0.000102
H148	H	0.462481	-0.156235	-0.070578
H149	H	0.443754	-0.009079	-0.070572
H150	H	0.514025	-0.071380	-0.118519
H151	H	0.497984	-0.074375	0.048044
H152	H	0.568262	-0.136705	0.000104
H153	H	0.777390	-0.411872	-0.056526
H154	H	0.680543	-0.031644	0.000094
H155	H	0.780815	-0.194971	0.056466
H156	H	0.909354	-0.221335	0.137047
