data_functionalizedCrystal
_audit_creation_method	'MofGen! by Chris Wilmer'
_symmetry_space_group_name_H-M	'P1'
_symmetry_Int_Tables_number	1
_symmetry_cell_setting	triclinic
loop_
_symmetry_equiv_pos_as_xyz
  x,y,z
_cell_length_a	16.109318
_cell_length_b	14.044220
_cell_length_c	15.186229
_cell_angle_alpha	90.001077
_cell_angle_beta	90.002030
_cell_angle_gamma	88.328720
loop_
_atom_site_label
_atom_site_type_symbol
_atom_site_fract_x
_atom_site_fract_y
_atom_site_fract_z
O1	O	1.112195	0.121908	0.073157
O2	O	0.871262	0.137053	0.073175
O3	O	0.988112	-0.008503	0.073158
O4	O	0.995345	0.267464	0.073175
O5	O	0.988097	-0.008495	-0.073299
O6	O	0.871247	0.137062	-0.073282
O7	O	1.112180	0.121917	-0.073300
Zn8	Zn	0.991712	0.129490	-0.096544
Zn9	Zn	0.991731	0.129479	0.096419
O10	O	0.995330	0.267473	-0.073283
C11	C	0.840234	0.136441	-0.000051
C12	C	0.747802	0.134593	-0.000044
C13	C	0.984939	-0.043813	-0.000071
C14	C	0.975495	-0.149036	-0.000071
C15	C	0.448292	0.128620	0.079774
C16	C	0.535142	0.130350	0.079779
C17	C	0.535144	0.130346	-0.079897
C18	C	0.448296	0.128610	-0.079901
C19	C	0.404872	0.127752	-0.000064
C20	C	0.578570	0.131218	-0.000053
C21	C	0.672737	0.133094	-0.000048
C22	C	0.310699	0.125874	-0.000069
C23	C	0.958230	-0.341693	-0.000057
C24	C	1.025209	-0.399342	-0.000060
C25	C	1.015602	-0.506544	-0.000052
C26	C	0.967835	-0.234482	-0.000065
C27	C	1.143208	0.122529	-0.000072
C28	C	1.235640	0.124377	-0.000073
C29	C	0.998503	0.302782	-0.000052
C30	C	1.007947	0.408006	-0.000046
N31	N	0.991705	0.129497	-0.228237
C32	C	1.046406	0.186993	-0.453960
C33	C	1.046414	0.186986	-0.546150
C34	C	0.937040	0.071963	-0.546158
C35	C	0.937036	0.071966	-0.453970
C36	C	0.991718	0.129486	-0.407874
C37	C	0.991730	0.129477	-0.592251
C38	C	0.991739	0.129469	-0.692207
C39	C	0.991710	0.129492	-0.307911
N40	N	0.991743	0.129465	0.228112
H41	H	0.570491	0.131057	0.144790
H42	H	0.570510	0.131047	-0.144898
C43	C	0.315159	0.125967	0.150669
C44	C	0.400559	0.127669	0.167529
H45	H	0.285694	0.125383	0.204849
H46	H	0.303172	0.070445	0.117871
H47	H	0.298692	0.180928	0.117866
H48	H	0.417027	0.072704	0.200327
H49	H	0.412550	0.183197	0.200342
C50	C	0.888426	0.020944	-0.687479
C51	C	0.876926	0.008748	-0.596828
H52	H	0.851308	-0.018079	-0.718756
H53	H	0.943996	0.003382	-0.702615
H54	H	0.877760	0.085800	-0.702544
H55	H	0.887598	-0.056107	-0.581762
H56	H	0.821344	0.026304	-0.581686
C57	C	1.188445	0.224270	-0.574507
C58	C	1.106528	0.250203	-0.596805
H59	H	1.225557	0.263304	-0.605775
H60	H	1.199082	0.159430	-0.589618
H61	H	1.196253	0.232505	-0.513003
H62	H	1.098718	0.241962	-0.658308
H63	H	1.095888	0.315059	-0.581699
C64	C	0.878317	-0.483344	-0.000059
C65	C	0.871083	-0.383745	-0.000059
H66	H	0.824516	-0.509311	-0.000068
H67	H	0.907659	-0.504132	0.051014
H68	H	0.907670	-0.504134	-0.051132
H69	H	0.841735	-0.362955	0.051019
H70	H	0.841728	-0.362948	-0.051136
C71	C	1.155626	-0.387953	0.075204
C72	C	1.112362	-0.357292	-0.000078
H73	H	1.209426	-0.361984	0.075191
H74	H	1.160516	-0.455514	0.075203
H75	H	1.126281	-0.367139	0.126276
H76	H	1.141703	-0.378112	-0.051150
H77	H	1.107475	-0.289716	-0.000085
H78	H	1.090931	0.233829	-0.416431
H79	H	0.892502	0.025132	-0.416446
H80	H	0.412943	0.127901	-0.144918
