data_functionalizedCrystal
_audit_creation_method	'MofGen! by Chris Wilmer'
_symmetry_space_group_name_H-M	'P1'
_symmetry_Int_Tables_number	1
_symmetry_cell_setting	triclinic
loop_
_symmetry_equiv_pos_as_xyz
  x,y,z
_cell_length_a	15.538191
_cell_length_b	11.804365
_cell_length_c	13.339070
_cell_angle_alpha	105.112168
_cell_angle_beta	98.549306
_cell_angle_gamma	97.107590
loop_
_atom_site_label
_atom_site_type_symbol
_atom_site_fract_x
_atom_site_fract_y
_atom_site_fract_z
O1	O	1.184052	0.099049	0.324809
O2	O	0.937649	0.099045	0.218229
O3	O	1.032571	0.099043	0.408397
O4	O	1.089130	0.099051	0.134640
O5	O	1.007572	-0.099012	0.358371
O6	O	0.912650	-0.099010	0.168202
O7	O	1.159053	-0.099007	0.274782
Cu8	Cu	1.033569	-0.117092	0.216924
Cu9	Cu	1.063133	0.117131	0.276086
O10	O	1.064131	-0.099004	0.084613
C11	C	0.892969	0.000017	0.182064
C12	C	0.797076	0.000016	0.148849
N13	N	1.012781	-0.281832	0.175316
C14	C	1.133841	-0.655784	0.417640
C15	C	1.149565	-0.531123	0.449121
C16	C	1.115370	-0.468794	0.380672
C17	C	1.065449	-0.531139	0.280738
C18	C	1.049729	-0.655812	0.249251
C19	C	1.031258	-0.468822	0.212283
C20	C	0.981337	-0.531167	0.112348
C21	C	0.965620	-0.655828	0.080867
C22	C	0.999815	-0.718157	0.149316
C23	C	1.046978	-0.344149	0.243770
C24	C	0.962867	-0.344177	0.075380
C25	C	0.947143	-0.468838	0.043900
C26	C	0.423039	0.000025	0.478834
C27	C	0.332937	0.000027	0.447601
C28	C	0.356413	0.000032	0.271919
C29	C	0.446518	0.000024	0.303136
C30	C	0.479824	0.000022	0.406595
C31	C	0.503303	0.000021	0.230897
C32	C	0.593401	0.000020	0.262114
C33	C	0.626714	0.000021	0.365570
C34	C	0.569922	0.000021	0.437812
C35	C	0.469997	0.000031	0.127440
C36	C	0.526781	0.000029	0.055201
C37	C	0.616880	0.000019	0.086415
C38	C	0.650194	0.000020	0.189871
C39	C	0.673673	0.000019	0.014173
C40	C	0.763771	0.000018	0.045389
C41	C	0.740292	0.000019	0.221088
C42	C	1.203734	0.000024	0.310947
C43	C	1.299627	0.000033	0.344164
C44	C	1.010518	0.000017	0.417566
C45	C	0.982041	0.000021	0.519412
N46	N	1.083926	0.281871	0.317705
C47	C	1.086185	0.000025	0.075446
C48	C	1.114663	0.000028	-0.026398
C49	C	1.203467	0.000024	0.965511
C50	C	1.230225	0.000013	0.869821
C51	C	1.168181	0.000016	0.782215
C52	C	1.079376	0.000028	0.790306
C53	C	1.052614	0.000030	0.886003
C54	C	1.017328	0.000021	0.702707
C55	C	0.928522	0.000034	0.710799
C56	C	0.901766	0.000036	0.806487
C57	C	0.963809	0.000034	0.894094
C58	C	1.044089	0.000020	0.607010
C59	C	0.893236	0.000025	0.527502
C60	C	0.866479	0.000036	0.623192
H61	H	1.087624	-0.293399	0.325136
H62	H	0.450157	0.000017	0.563080
O63	O	0.641382	0.000240	-0.086279
C64	C	0.683510	0.102799	-0.106190
H65	H	0.710467	0.174486	-0.028097
H66	H	0.633931	0.137242	-0.157863
H67	H	0.740196	0.079603	-0.148709
H68	H	0.286705	0.000031	0.506435
H69	H	0.810005	0.000005	-0.013438
H70	H	0.794172	0.000046	0.629795
H71	H	0.767409	0.000010	0.305333
H72	H	1.190211	-0.480366	0.530486
O73	O	0.714272	0.000179	0.395817
C74	C	0.763763	0.102769	0.383997
H75	H	0.723018	0.136968	0.323347
H76	H	0.826901	0.079699	0.355874
H77	H	0.781392	0.174594	0.463210
O78	O	1.166993	-0.716204	0.484267
C79	C	1.132961	-0.685782	0.578200
H80	H	1.111277	-0.595269	0.588810
H81	H	1.186231	-0.681521	0.648419
H82	H	1.073858	-0.755955	0.573328
O83	O	0.382472	-0.000127	0.096952
C84	C	0.345858	-0.102712	0.012439
H85	H	0.400317	-0.136904	-0.029506
H86	H	0.294264	-0.079638	-0.045802
H87	H	0.313385	-0.174544	0.044285
H88	H	1.128174	-0.367289	0.406308
H89	H	0.499652	0.000035	-0.029035
H90	H	0.924980	-0.706590	-0.000510
O91	O	1.130345	0.000175	0.599067
C92	C	1.163294	0.102765	0.572030
H93	H	1.106135	0.136963	0.531811
H94	H	1.211124	0.079696	0.515742
H95	H	1.199267	0.174591	0.646671
H96	H	0.906496	-0.519615	-0.037469
O97	O	0.929790	-0.283516	0.008917
C98	C	0.999804	-0.211410	-0.012961
H99	H	1.059818	-0.192718	0.053178
H100	H	0.978793	-0.123752	-0.018576
H101	H	1.017415	-0.259449	-0.091173
H102	H	1.189972	0.000006	0.704302
O103	O	0.602270	0.000227	0.538378
C104	C	0.586044	0.102784	0.610108
H105	H	0.577187	0.174479	0.568237
H106	H	0.644323	0.137215	0.679175
H107	H	0.523504	0.079589	0.640914
H108	H	0.987009	-0.819667	0.123686
H109	H	0.842714	0.000022	0.456169
H110	H	0.329284	0.000038	0.187683
O111	O	1.316521	0.000214	0.862070
C112	C	1.368821	0.102771	0.935564
H113	H	1.326387	0.174471	0.956713
H114	H	1.424982	0.137194	0.899364
H115	H	1.397386	0.079581	1.010042
H116	H	1.253972	0.000012	1.036843
H117	H	0.942028	0.000047	0.972017
H118	H	0.829454	0.000037	0.813067
