data_functionalizedCrystal
_audit_creation_method	'MofGen! by Chris Wilmer'
_symmetry_space_group_name_H-M	'P1'
_symmetry_Int_Tables_number	1
_symmetry_cell_setting	triclinic
loop_
_symmetry_equiv_pos_as_xyz
  x,y,z
_cell_length_a	18.050591
_cell_length_b	25.639240
_cell_length_c	18.050582
_cell_angle_alpha	89.968180
_cell_angle_beta	89.980240
_cell_angle_gamma	90.029204
loop_
_atom_site_label
_atom_site_type_symbol
_atom_site_fract_x
_atom_site_fract_y
_atom_site_fract_z
Zn1	Zn	1.135269	-0.208234	-0.419961
Zn2	Zn	1.635269	0.291766	0.080039
Zn3	Zn	1.135170	-0.295661	-0.295751
Zn4	Zn	1.635170	0.204339	0.204249
Zn5	Zn	1.011088	-0.208236	-0.295774
Zn6	Zn	1.511088	0.291764	0.204226
Zn7	Zn	1.011026	-0.295634	-0.419889
Zn8	Zn	1.511026	0.204366	0.080111
O9	O	1.073138	-0.251941	-0.357844
O10	O	1.573138	0.248059	0.142156
O11	O	1.239180	-0.219841	-0.403504
O12	O	1.739180	0.280159	0.096496
O13	O	1.118695	-0.284077	-0.191829
O14	O	1.618695	0.215923	0.308171
O15	O	1.027629	-0.135071	-0.312288
O16	O	1.527629	0.364929	0.187712
O17	O	1.239108	-0.284074	-0.312248
O18	O	1.739108	0.215926	0.187752
O19	O	1.118864	-0.135069	-0.403527
O20	O	1.618864	0.364931	0.096473
O21	O	1.027532	-0.219846	-0.191846
O22	O	1.527532	0.280154	0.308154
O23	O	0.907156	-0.219820	-0.312218
O24	O	1.407156	0.280180	0.187782
O25	O	1.027523	-0.284028	-0.523823
O26	O	1.527523	0.215972	-0.023823
O27	O	0.907110	-0.284031	-0.403404
O28	O	1.407110	0.215969	0.096596
O29	O	1.118804	-0.219815	-0.523876
O30	O	1.618804	0.280185	-0.023876
O31	O	1.118635	-0.368823	-0.312178
O32	O	1.618635	0.131177	0.187822
O33	O	1.027427	-0.368803	-0.403381
O34	O	1.527427	0.131197	0.096619
C35	C	0.880186	-0.251923	-0.357806
C36	C	1.380186	0.248077	0.142194
C37	C	0.797641	-0.251928	-0.357808
C38	C	1.297641	0.248072	0.142192
C39	C	0.548818	-0.216974	-0.308338
C40	C	1.048818	0.283026	0.191662
C41	C	0.598252	-0.204244	-0.376117
C42	C	1.098252	0.295756	0.123883
C43	C	0.500520	-0.251954	-0.357869
C44	C	1.000520	0.248046	0.142131
C45	C	0.598168	-0.264646	-0.290064
C46	C	1.098168	0.235354	0.209936
C47	C	0.646505	-0.251940	-0.357835
C48	C	1.146505	0.248060	0.142165
C49	C	0.548866	-0.239200	-0.425684
C50	C	1.048866	0.260800	0.074316
C51	C	0.548779	-0.299624	-0.339585
C52	C	1.048779	0.200376	0.160415
C53	C	0.598190	-0.286913	-0.407410
C54	C	1.098190	0.213087	0.092590
C55	C	0.416422	-0.251961	-0.357887
C56	C	0.916422	0.248039	0.142113
C57	C	0.730602	-0.251933	-0.357825
C58	C	1.230602	0.248067	0.142175
C59	C	1.073033	-0.387784	-0.357785
C60	C	1.573033	0.112216	0.142215
C61	C	1.073057	-0.445898	-0.357785
C62	C	1.573057	0.054102	0.142215
C63	C	1.120668	-0.806221	-0.405437
C64	C	1.620668	-0.306221	0.094563
C65	C	1.120690	-0.860826	-0.405453
C66	C	1.620690	-0.360826	0.094547
O67	O	1.161046	-0.889029	-0.445908
O68	O	1.661046	-0.389029	0.054092
N69	N	1.073241	-0.888180	-0.357915
N70	N	1.573241	-0.388180	0.142085
C71	C	1.025763	-0.860928	-0.310365
C72	C	1.525763	-0.360928	0.189635
O73	O	0.985405	-0.889209	-0.269933
O74	O	1.485405	-0.389209	0.230067
C75	C	1.025738	-0.806325	-0.310354
C76	C	1.525738	-0.306325	0.189646
C77	C	1.073194	-0.778973	-0.357889
C78	C	1.573194	-0.278973	0.142111
C79	C	1.168121	-0.778870	-0.452969
C80	C	1.668121	-0.278870	0.047031
C81	C	1.168100	-0.724269	-0.452953
C82	C	1.668100	-0.224269	0.047047
C83	C	1.120626	-0.697020	-0.405405
C84	C	1.620626	-0.197020	0.094595
C85	C	1.073173	-0.724372	-0.357873
C86	C	1.573173	-0.224372	0.142127
C87	C	0.978255	-0.779073	-0.262809
C88	C	1.478255	-0.279073	0.237191
C89	C	0.978234	-0.724466	-0.262802
C90	C	1.478234	-0.224466	0.237198
C91	C	1.025691	-0.697114	-0.310337
C92	C	1.525691	-0.197114	0.189663
C93	C	1.025679	-0.642523	-0.310309
C94	C	1.525679	-0.142523	0.189691
N95	N	1.073127	-0.615168	-0.357846
N96	N	1.573127	-0.115168	0.142154
C97	C	1.120601	-0.642417	-0.405394
C98	C	1.620601	-0.142417	0.094606
C99	C	1.025818	-0.975599	-0.310392
C100	C	1.525818	-0.475599	0.189608
C101	C	1.025846	-1.030201	-0.310399
C102	C	1.525846	-0.530201	0.189601
C103	C	1.120773	-1.030095	-0.405487
C104	C	1.620773	-0.530095	0.094513
C105	C	1.120748	-0.975492	-0.405477
C106	C	1.620748	-0.475492	0.094523
C107	C	1.073267	-0.948244	-0.357930
C108	C	1.573267	-0.448244	0.142070
C109	C	1.120553	-0.527752	-0.405356
C110	C	1.620553	-0.027752	0.094644
C111	C	1.120530	-0.473147	-0.405333
C112	C	1.620530	0.026853	0.094667
C113	C	1.025601	-0.473257	-0.310248
C114	C	1.525601	0.026743	0.189752
C115	C	1.025627	-0.527858	-0.310267
C116	C	1.525627	-0.027858	0.189733
C117	C	1.073105	-0.555104	-0.357827
C118	C	1.573105	-0.055104	0.142173
O119	O	0.985341	-0.614285	-0.269876
O120	O	1.485341	-0.114285	0.230124
O121	O	1.160944	-0.614129	-0.445826
O122	O	1.660944	-0.114129	0.054174
C123	C	1.266844	-0.251960	-0.357881
C124	C	1.766844	0.248040	0.142119
C125	C	1.349390	-0.251968	-0.357897
C126	C	1.849390	0.248032	0.142103
C127	C	1.073168	-0.251918	-0.551549
C128	C	1.573168	0.248082	-0.051549
C129	C	1.073180	-0.251908	-0.634095
C130	C	1.573180	0.248092	-0.134095
C131	C	1.073264	-0.115568	-0.357918
C132	C	1.573264	0.384432	0.142082
C133	C	1.073318	-0.057454	-0.357950
C134	C	1.573318	0.442546	0.142050
C135	C	1.023580	-0.286780	-0.833517
C136	C	1.523580	0.213220	-0.333517
C137	C	1.091333	-0.299563	-0.882911
C138	C	1.591333	0.200437	-0.382911
C139	C	1.073217	-0.251868	-0.785225
C140	C	1.573217	0.248132	-0.285225
C141	C	1.005500	-0.239070	-0.882913
C142	C	1.505500	0.260930	-0.382913
C143	C	1.073246	-0.251831	-0.931211
C144	C	1.573246	0.248169	-0.431211
C145	C	1.141006	-0.264677	-0.833532
C146	C	1.641006	0.235323	-0.333532
C147	C	1.055127	-0.204162	-0.833530
C148	C	1.555127	0.295838	-0.333530
C149	C	1.122927	-0.216927	-0.882902
C150	C	1.622927	0.283073	-0.382902
C151	C	1.073199	-0.251891	-0.701127
C152	C	1.573199	0.248109	-0.201127
C153	C	1.073272	-0.251808	-1.015307
C154	C	1.573272	0.248192	-0.515307
C155	C	1.073152	-0.251927	-0.164891
C156	C	1.573152	0.248073	0.335109
C157	C	1.073284	-0.251789	-0.082346
C158	C	1.573284	0.248211	0.417654
H159	H	0.619731	-0.316489	-0.449331
H160	H	1.119731	0.183511	0.050669
H161	H	0.619969	-0.163923	-0.391582
H162	H	1.119969	0.336077	0.108418
H163	H	0.981643	-0.316342	-0.811834
H164	H	1.481643	0.183658	-0.311834
C165	C	1.161307	-0.127272	-0.885942
C166	C	1.661307	0.372728	-0.385942
C167	C	1.179675	-0.177048	-0.911985
C168	C	1.679675	0.322952	-0.411985
H169	H	1.196346	-0.102655	-0.903892
H170	H	1.696346	0.397345	-0.403892
H171	H	1.113250	-0.118117	-0.902950
H172	H	1.613250	0.381883	-0.402950
H173	H	1.161880	-0.127286	-0.833318
H174	H	1.661880	0.372714	-0.333318
H175	H	1.179096	-0.177036	-0.964609
H176	H	1.679096	0.322964	-0.464609
H177	H	1.227745	-0.186206	-0.894981
H178	H	1.727745	0.313794	-0.394981
C179	C	0.929187	-0.224153	-0.989762
C180	C	1.429187	0.275847	-0.489762
C181	C	0.928177	-0.224475	-0.912197
C182	C	1.428177	0.275525	-0.412197
H183	H	0.881449	-0.215149	-1.007837
H184	H	1.381449	0.284851	-0.507837
H185	H	0.964395	-0.199303	-1.006665
H186	H	1.464395	0.300697	-0.506665
H187	H	0.942390	-0.257793	-1.007387
H188	H	1.442390	0.242207	-0.507387
H189	H	0.914979	-0.190834	-0.894571
H190	H	1.414979	0.309166	-0.394571
H191	H	0.892958	-0.249326	-0.895287
H192	H	1.392958	0.250674	-0.395287
C193	C	0.670062	-0.324623	-0.217499
C194	C	1.170062	0.175377	0.282501
C195	C	0.627407	-0.279150	-0.212676
C196	C	1.127407	0.220850	0.287324
H197	H	0.688113	-0.333571	-0.169722
H198	H	1.188113	0.166429	0.330278
H199	H	0.640361	-0.352280	-0.236031
H200	H	1.140361	0.147720	0.263969
H201	H	0.710648	-0.318852	-0.250006
H202	H	1.210648	0.181148	0.249994
H203	H	0.586818	-0.284922	-0.180172
H204	H	1.086818	0.215078	0.319828
H205	H	0.657109	-0.251487	-0.194133
H206	H	1.157109	0.248513	0.305867
H207	H	1.159178	-0.450879	-0.444042
H208	H	1.659178	0.049121	0.055958
H209	H	1.159427	-1.052291	-0.444205
H210	H	1.659427	-0.552291	0.055795
C211	C	0.545435	-0.390779	-0.369822
C212	C	1.045435	0.109221	0.130178
C213	C	0.519421	-0.354039	-0.318694
C214	C	1.019421	0.145961	0.181306
H215	H	0.527314	-0.424373	-0.356914
H216	H	1.027314	0.075627	0.143086
H217	H	0.528580	-0.381804	-0.418010
H218	H	1.028580	0.118196	0.081990
H219	H	0.598056	-0.391083	-0.369204
H220	H	1.098056	0.108917	0.130796
H221	H	0.466799	-0.353733	-0.319315
H222	H	0.966799	0.146267	0.180685
H223	H	0.536272	-0.363017	-0.270493
H224	H	1.036272	0.136983	0.229507
C225	C	1.130841	-0.589090	-0.505295
C226	C	1.630841	-0.089090	-0.005295
C227	C	1.172742	-0.557697	-0.457632
C228	C	1.672742	-0.057697	0.042368
H229	H	1.163062	-0.607574	-0.537567
H230	H	1.663062	-0.107574	-0.037567
H231	H	1.102593	-0.613196	-0.476991
H232	H	1.602593	-0.113196	0.023009
H233	H	1.098458	-0.567786	-0.533660
H234	H	1.598458	-0.067786	-0.033660
H235	H	1.205121	-0.579002	-0.429263
H236	H	1.705121	-0.079002	0.070737
H237	H	1.201002	-0.533588	-0.485939
H238	H	1.701002	-0.033588	0.014061
C239	C	0.544520	-0.127117	-0.271201
C240	C	1.044520	0.372883	0.228799
C241	C	0.519543	-0.177020	-0.251886
C242	C	1.019543	0.322980	0.248114
H243	H	0.526441	-0.102452	-0.236354
H244	H	1.026441	0.397548	0.263646
H245	H	0.597135	-0.126620	-0.271110
H246	H	1.097135	0.373380	0.228890
H247	H	0.526911	-0.118434	-0.319234
H248	H	1.026911	0.381566	0.180766
H249	H	0.537157	-0.185704	-0.203854
H250	H	1.037157	0.314296	0.296146
H251	H	0.466917	-0.177519	-0.251968
H252	H	0.966917	0.322481	0.248032
C253	C	0.963433	-0.136433	-0.829095
C254	C	1.463433	0.363567	-0.329095
C255	C	1.034421	-0.149738	-0.804214
C256	C	1.534421	0.350262	-0.304214
H257	H	0.950644	-0.102836	-0.810990
H258	H	1.450644	0.397164	-0.310990
H259	H	0.962850	-0.136098	-0.881709
H260	H	1.462850	0.363902	-0.381709
H261	H	0.928661	-0.161338	-0.811447
H262	H	1.428661	0.338662	-0.311447
H263	H	1.069194	-0.124835	-0.821865
H264	H	1.569194	0.375165	-0.321865
H265	H	1.035010	-0.150069	-0.751588
H266	H	1.535010	0.349931	-0.251588
C267	C	1.261925	-0.729666	-0.546947
C268	C	1.761925	-0.229666	-0.046947
C269	C	1.220260	-0.694209	-0.505212
C270	C	1.720260	-0.194209	-0.005212
H271	H	1.294124	-0.711110	-0.579215
H272	H	1.794124	-0.211110	-0.079215
H273	H	1.290360	-0.750961	-0.514621
H274	H	1.790360	-0.250961	-0.014621
H275	H	1.229545	-0.750969	-0.575318
H276	H	1.729545	-0.250969	-0.075318
H277	H	1.252640	-0.672908	-0.476836
H278	H	1.752640	-0.172908	0.023164
H279	H	1.191822	-0.672905	-0.537542
H280	H	1.691822	-0.172905	-0.037542
H281	H	0.987210	-1.052466	-0.271683
H282	H	1.487210	-0.552466	0.228317
H283	H	0.527299	-0.228413	-0.483028
H284	H	1.027299	0.271587	0.016972
C285	C	1.178420	-0.840212	-0.552904
C286	C	1.678420	-0.340212	-0.052904
C287	C	1.220312	-0.808815	-0.505239
C288	C	1.720312	-0.308815	-0.005239
H289	H	1.210648	-0.858692	-0.585175
H290	H	1.710648	-0.358692	-0.085175
H291	H	1.150177	-0.864321	-0.524602
H292	H	1.650177	-0.364321	-0.024602
H293	H	1.146034	-0.818912	-0.581271
H294	H	1.646034	-0.318912	-0.081271
H295	H	1.252695	-0.830115	-0.476868
H296	H	1.752695	-0.330115	0.023132
H297	H	1.248568	-0.784702	-0.533544
H298	H	1.748568	-0.284702	-0.033544
C299	C	1.220618	-0.914027	-0.415894
C300	C	1.720618	-0.414027	0.084106
C301	C	1.172910	-0.945431	-0.457733
C302	C	1.672910	-0.445431	0.042267
H303	H	1.252823	-0.895474	-0.448160
H304	H	1.752823	-0.395474	0.051840
H305	H	1.192342	-0.889981	-0.387588
H306	H	1.692342	-0.389981	0.112412
H307	H	1.249052	-0.935331	-0.383569
H308	H	1.749052	-0.435331	0.116431
H309	H	1.144471	-0.924126	-0.490055
H310	H	1.644471	-0.424126	0.009945
H311	H	1.201188	-0.969479	-0.486053
H312	H	1.701188	-0.469479	0.013947
C313	C	0.931997	-0.981196	-0.216394
C314	C	1.431997	-0.481196	0.283606
C315	C	0.973631	-0.945650	-0.258114
C316	C	1.473631	-0.445650	0.241886
H317	H	0.899783	-0.962709	-0.184118
H318	H	1.399783	-0.462709	0.315882
H319	H	0.903579	-1.002492	-0.248728
H320	H	1.403579	-0.502492	0.251272
H321	H	0.964395	-1.002491	-0.188032
H322	H	1.464395	-0.502491	0.311968
H323	H	0.941233	-0.924359	-0.286481
H324	H	1.441233	-0.424359	0.213519
H325	H	1.002051	-0.924346	-0.225775
H326	H	1.502051	-0.424346	0.274225
C327	C	0.884409	-0.773670	-0.168838
C328	C	1.384409	-0.273670	0.331162
C329	C	0.926082	-0.809128	-0.210561
C330	C	1.426082	-0.309128	0.289439
H331	H	0.852193	-0.792225	-0.136585
H332	H	1.352193	-0.292225	0.363415
H333	H	0.916776	-0.752372	-0.140457
H334	H	1.416776	-0.252372	0.359543
H335	H	0.855984	-0.752369	-0.201177
H336	H	1.355984	-0.252369	0.298823
H337	H	0.954511	-0.830426	-0.178222
H338	H	1.454511	-0.330426	0.321778
H339	H	0.893711	-0.830435	-0.238944
H340	H	1.393711	-0.330435	0.261056
H341	H	0.939567	-0.702284	-0.224084
H342	H	1.439567	-0.202284	0.275916
H343	H	0.986989	-0.550129	-0.271555
H344	H	1.486989	-0.050129	0.228445
C345	C	0.983420	-0.389596	-0.268023
C346	C	1.483420	0.110404	0.231977
C347	C	0.973416	-0.443298	-0.257988
C348	C	1.473416	0.056702	0.242012
H349	H	0.951196	-0.371101	-0.235766
H350	H	1.451196	0.128899	0.264234
H351	H	1.033315	-0.380630	-0.257196
H352	H	1.533315	0.119370	0.242804
H353	H	0.972521	-0.380638	-0.317914
H354	H	1.472521	0.119362	0.182086
H355	H	0.984321	-0.452258	-0.208099
H356	H	1.484321	0.047742	0.291901
H357	H	0.923509	-0.452269	-0.268810
H358	H	1.423509	0.047731	0.231190
H359	H	1.106652	-0.339891	-0.904602
H360	H	1.606652	0.160109	-0.404602
H361	H	1.198302	-0.275531	-0.811932
H362	H	1.698302	0.224469	-0.311932
