data_functionalizedCrystal
_audit_creation_method	'MofGen! by Chris Wilmer'
_symmetry_space_group_name_H-M	'P1'
_symmetry_Int_Tables_number	1
_symmetry_cell_setting	triclinic
loop_
_symmetry_equiv_pos_as_xyz
  x,y,z
_cell_length_a	16.625548
_cell_length_b	11.169416
_cell_length_c	11.169409
_cell_angle_alpha	90.027647
_cell_angle_beta	89.976108
_cell_angle_gamma	89.986850
loop_
_atom_site_label
_atom_site_type_symbol
_atom_site_fract_x
_atom_site_fract_y
_atom_site_fract_z
Zn1	Zn	1.232765	0.477676	-0.678688
Zn2	Zn	1.232685	0.678417	-0.478021
Zn3	Zn	1.097919	0.477750	-0.478011
Zn4	Zn	1.097922	0.678320	-0.678654
O5	O	1.165323	0.578041	-0.578344
O6	O	1.345587	0.504315	-0.652088
O7	O	1.214773	0.651869	-0.310070
O8	O	1.115839	0.309791	-0.504641
O9	O	1.345528	0.651798	-0.504658
O10	O	1.214910	0.309736	-0.652077
O11	O	1.115761	0.504440	-0.310062
O12	O	0.985087	0.504346	-0.504608
O13	O	1.115844	0.651633	-0.846609
O14	O	0.985089	0.651704	-0.652020
O15	O	1.214913	0.504221	-0.846633
O16	O	1.214776	0.846354	-0.504626
O17	O	1.115766	0.846282	-0.652030
C18	C	0.955832	0.578024	-0.578310
C19	C	0.866211	0.578045	-0.578324
C20	C	1.165284	0.889865	-0.578352
C21	C	1.165342	1.023265	-0.578395
C22	C	1.165387	0.577908	-0.891386
C23	C	1.165415	0.577851	-1.024786
C24	C	0.538035	0.578053	-0.578375
C25	C	0.629344	0.578048	-0.578357
C26	C	0.702120	0.578050	-0.578349
C27	C	0.793434	0.578043	-0.578333
C28	C	1.375632	0.578059	-0.578378
C29	C	1.465253	0.578067	-0.578393
C30	C	1.165377	1.264998	-0.578378
C31	C	1.165386	1.131598	-0.578433
C32	C	1.165305	0.578087	-0.266519
C33	C	1.165433	0.577805	-0.133119
