data_functionalizedCrystal
_audit_creation_method	'MofGen! by Chris Wilmer'
_symmetry_space_group_name_H-M	'P1'
_symmetry_Int_Tables_number	1
_symmetry_cell_setting	triclinic
loop_
_symmetry_equiv_pos_as_xyz
  x,y,z
_cell_length_a	6.394989
_cell_length_b	19.288865
_cell_length_c	17.766277
_cell_angle_alpha	90.011603
_cell_angle_beta	90.008787
_cell_angle_gamma	84.816979
loop_
_atom_site_label
_atom_site_type_symbol
_atom_site_fract_x
_atom_site_fract_y
_atom_site_fract_z
O1	O	-2.770439	-0.113783	-0.062598
O2	O	-2.162256	-0.119515	-0.062602
O3	O	-2.483921	-0.015691	-0.062585
O4	O	-2.448774	-0.217607	-0.062615
O5	O	-2.483865	-0.015685	0.062604
O6	O	-2.162200	-0.119509	0.062587
O7	O	-2.770382	-0.113777	0.062591
Cu8	Cu	-2.466286	-0.116643	0.074019
Cu9	Cu	-2.466353	-0.116650	-0.074030
O10	O	-2.448718	-0.217601	0.062574
C11	C	-2.482762	0.010200	0.000012
C12	C	-2.479367	0.087336	0.000018
C13	C	-2.449877	-0.243492	-0.000024
C14	C	-2.453271	-0.320629	-0.000036
N15	N	-2.466254	-0.116637	0.178150
C16	C	-2.084417	-0.118379	-0.000004
C17	C	-1.848215	-0.114915	0.000000
N18	N	-2.466401	-0.116650	-0.178161
C19	C	-2.668105	0.130184	0.000023
C20	C	-2.664916	0.202663	0.000011
C21	C	-2.472977	0.232290	0.000010
C22	C	-2.284214	0.189433	0.000001
C23	C	-2.287409	0.116956	0.000005
C24	C	-2.322072	0.342057	0.043860
C25	C	-2.318885	0.414533	0.043860
C26	C	-2.463116	0.455832	-0.000007
C27	C	-2.610569	0.424648	-0.043865
C28	C	-2.613764	0.352171	-0.043861
C29	C	-2.469492	0.310878	0.000004
C30	C	-2.648409	0.577270	-0.000016
C31	C	-2.645212	0.649749	-0.000033
C32	C	-2.264505	0.636517	-0.000036
C33	C	-2.267707	0.564040	-0.000027
C34	C	-2.459665	0.534420	-0.000014
C35	C	-2.608733	-0.070688	0.217544
C36	C	-2.608745	-0.070684	0.296346
C37	C	-2.466298	-0.116643	0.335750
C38	C	-2.323793	-0.162596	0.296346
C39	C	-2.323771	-0.162593	0.217546
C40	C	-2.438338	-0.179657	0.460579
C41	C	-2.438374	-0.179661	0.539378
C42	C	-2.466354	-0.116652	0.578797
C43	C	-2.494342	-0.053637	0.539407
C44	C	-2.494320	-0.053634	0.460607
C45	C	-2.466305	-0.116651	0.421196
C46	C	-2.608854	-0.070695	0.703637
C47	C	-2.608852	-0.070691	0.782440
C48	C	-2.323909	-0.162609	0.782439
C49	C	-2.323901	-0.162607	0.703638
C50	C	-2.466385	-0.116651	0.664241
H51	H	-2.824412	0.106073	0.000032
Cl52	Cl	-2.023207	0.673756	-0.000043
Cl53	Cl	-2.799112	0.312970	-0.098998
Cl54	Cl	-2.882506	0.703616	-0.000032
H55	H	-2.127937	0.213560	-0.000002
H56	H	-2.114016	0.529152	-0.000027
Cl57	Cl	-2.144642	-0.220364	0.168018
H58	H	-2.804712	0.553152	-0.000009
Cl59	Cl	-2.529479	0.025581	0.411091
Cl60	Cl	-2.529535	0.025580	0.588953
H61	H	-2.198811	0.439917	0.079567
H62	H	-2.415517	-0.230970	0.428490
Cl63	Cl	-2.787964	-0.012918	0.654109
Cl64	Cl	-2.791899	0.476559	-0.099017
Cl65	Cl	-2.140739	0.290145	0.099014
H66	H	-2.724773	-0.033265	0.328427
Cl67	Cl	-2.403205	-0.258879	0.588888
Cl68	Cl	-2.050118	0.063087	-0.000001
Cl69	Cl	-2.787970	-0.012917	0.831968
Cl70	Cl	-2.787840	-0.012912	0.168018
H71	H	-2.207890	-0.200027	0.671560
H72	H	-2.207918	-0.200027	0.814522
H73	H	-2.207807	-0.200016	0.328433
H74	H	-2.818614	0.237556	0.000012
