data_functionalizedCrystal
_audit_creation_method	'MofGen! by Chris Wilmer'
_symmetry_space_group_name_H-M	'P1'
_symmetry_Int_Tables_number	1
_symmetry_cell_setting	triclinic
loop_
_symmetry_equiv_pos_as_xyz
  x,y,z
_cell_length_a	10.723024
_cell_length_b	10.654546
_cell_length_c	9.198806
_cell_angle_alpha	90.001749
_cell_angle_beta	90.003648
_cell_angle_gamma	95.524303
loop_
_atom_site_label
_atom_site_type_symbol
_atom_site_fract_x
_atom_site_fract_y
_atom_site_fract_z
O1	O	1.657212	-0.176147	0.120866
O2	O	1.294062	-0.193008	0.120869
O3	O	1.483989	-0.001837	0.120876
O4	O	1.467285	-0.367318	0.120859
O5	O	1.483973	-0.001836	-0.120909
O6	O	1.294047	-0.193007	-0.120916
O7	O	1.657197	-0.176147	-0.120919
Cu8	Cu	1.475620	-0.184577	-0.142995
Cu9	Cu	1.475638	-0.184577	0.142944
O10	O	1.467270	-0.367318	-0.120926
C11	C	1.247554	-0.191781	-0.000023
C12	C	1.109000	-0.188109	-0.000021
C13	C	1.034032	-0.295079	-0.000025
C14	C	0.890828	-0.291287	-0.000023
C15	C	1.482755	0.044961	-0.000012
C16	C	1.479089	0.184404	0.000004
C17	C	1.590914	0.263907	0.000004
C18	C	1.587461	0.394928	0.000025
C19	C	1.360348	0.366930	0.000038
C20	C	1.363802	0.235912	0.000028
C21	C	1.706201	0.212399	-0.000020
C22	C	1.818036	0.291903	-0.000021
C23	C	1.814583	0.422924	-0.000001
C24	C	1.699295	0.474440	0.000021
C25	C	1.703704	-0.177374	-0.000024
C26	C	1.842259	-0.181045	-0.000017
C27	C	1.468506	0.585885	-0.000017
C28	C	1.472182	0.446443	0.000034
N29	N	1.475617	-0.184576	-0.344109
C30	C	1.555361	-0.103954	-0.416303
C31	C	1.555381	-0.103950	-0.583715
N32	N	1.475651	-0.184569	0.344058
H33	H	1.709025	0.105718	-0.000041
N34	N	1.385190	-0.275996	-0.426397
H35	H	1.433575	-0.331840	-0.489545
H36	H	1.331989	-0.329713	-0.355128
N37	N	1.935201	0.508667	-0.000003
H38	H	1.938817	0.563655	-0.089627
H39	H	1.938777	0.563566	0.089692
H40	H	1.911898	0.249949	-0.000002
N41	N	1.089429	-0.420114	-0.000040
H42	H	1.183877	-0.405099	-0.000041
H43	H	1.060677	-0.469448	0.089592
N44	N	1.645789	-0.012534	-0.334016
H45	H	1.699011	0.041269	-0.405194
H46	H	1.597314	0.043227	-0.270871
H47	H	1.696493	0.581127	0.000052
H48	H	0.826408	-0.382861	-0.000020
N49	N	1.236009	0.422488	0.000057
H50	H	1.250791	0.517552	0.000060
H51	H	1.187019	0.393475	-0.089576
H52	H	0.906671	-0.089466	-0.000004
H53	H	1.067165	-0.093722	0.000021
H54	H	1.272744	0.171178	0.000026
H55	H	1.623658	-0.034931	-0.645799
H56	H	1.407380	-0.253600	-0.593867
