data_functionalizedCrystal
_audit_creation_method	'MofGen! by Chris Wilmer'
_symmetry_space_group_name_H-M	'P1'
_symmetry_Int_Tables_number	1
_symmetry_cell_setting	triclinic
loop_
_symmetry_equiv_pos_as_xyz
  x,y,z
_cell_length_a	15.537862
_cell_length_b	15.625429
_cell_length_c	17.766277
_cell_angle_alpha	71.916495
_cell_angle_beta	89.991648
_cell_angle_gamma	66.734075
loop_
_atom_site_label
_atom_site_type_symbol
_atom_site_fract_x
_atom_site_fract_y
_atom_site_fract_z
O1	O	1.249595	-0.292776	0.017348
O2	O	0.975460	-0.188704	-0.011064
O3	O	1.119847	-0.374374	0.039617
O4	O	1.105207	-0.107106	-0.033333
O5	O	1.119822	-0.374372	0.164805
O6	O	0.975434	-0.188703	0.114124
O7	O	1.249569	-0.292775	0.142537
Cu8	Cu	1.112500	-0.240739	0.139761
Cu9	Cu	1.112530	-0.240740	-0.008289
O10	O	1.105182	-0.107105	0.091855
C11	C	0.940364	-0.177814	0.048557
C12	C	0.835828	-0.145379	0.039701
C13	C	0.677374	-0.013904	0.003812
C14	C	0.775603	-0.044392	0.012136
C15	C	0.797841	-0.215917	0.058957
C16	C	0.699612	-0.185444	0.050641
C17	C	0.639386	-0.084436	0.023067
C18	C	0.661624	-0.255975	0.069895
C19	C	0.563404	-0.225504	0.061576
C20	C	0.503171	-0.124501	0.034001
C21	C	0.541165	-0.053964	0.014748
C22	C	0.721852	-0.356983	0.097463
C23	C	0.683864	-0.427514	0.116718
C24	C	0.585642	-0.397043	0.108404
C25	C	0.525409	-0.296040	0.080830
C26	C	0.547648	-0.467579	0.127658
C27	C	0.449427	-0.437108	0.119338
C28	C	0.427189	-0.265568	0.072510
C29	C	1.119171	-0.407743	0.111317
C30	C	1.117180	-0.507173	0.138451
C31	C	1.110677	-0.834179	-0.113484
C32	C	1.108802	-0.927606	-0.087965
C33	C	1.108775	-0.927591	0.048507
C34	C	1.110654	-0.834165	0.022999
C35	C	1.111604	-0.787465	-0.057997
C36	C	1.111581	-0.787451	0.078486
C37	C	1.113455	-0.694030	0.052980
C38	C	1.114402	-0.647323	-0.028013
C39	C	1.113478	-0.694044	-0.083503
C40	C	1.110624	-0.834148	0.159482
C41	C	1.111551	-0.787434	0.214969
C42	C	1.113432	-0.694015	0.189464
C43	C	1.114379	-0.647308	0.108470
C44	C	1.114356	-0.647293	0.244954
C45	C	1.116230	-0.553872	0.219448
C46	C	1.116253	-0.553887	0.082964
C47	C	1.284665	-0.303665	0.082914
C48	C	1.389201	-0.336100	0.091765
C49	C	1.105859	-0.073735	0.020153
C50	C	1.107849	0.025694	-0.006986
N51	N	1.112485	-0.240740	0.243892
N52	N	1.112551	-0.240748	-0.112417
C53	C	1.176441	-0.322932	0.305714
C54	C	1.176446	-0.322938	0.384517
C55	C	1.112505	-0.240740	0.401492
C56	C	1.048537	-0.158540	0.339658
C57	C	1.048528	-0.158540	0.260858
C58	C	1.100276	-0.154631	0.502827
C59	C	1.100293	-0.154632	0.581626
C60	C	1.112530	-0.240737	0.644538
C61	C	1.124771	-0.326852	0.628644
C62	C	1.124762	-0.326852	0.549843
C63	C	1.112508	-0.240730	0.486935
C64	C	1.176495	-0.322941	0.791809
C65	C	1.176494	-0.322946	0.870614
C66	C	1.048590	-0.158542	0.825751
C67	C	1.048586	-0.158543	0.746950
C68	C	1.112544	-0.240743	0.729984
H69	H	0.846890	-0.298158	0.081404
F70	F	1.137803	-0.418501	0.695595
H71	H	0.732913	-0.509755	0.139166
H72	H	1.228528	-0.389870	0.434862
F73	F	1.113330	-0.696998	0.331151
H74	H	1.115918	-0.571248	-0.048780
F75	F	0.980520	-0.071061	0.681149
H76	H	1.111459	-0.796158	-0.179438
H77	H	0.996446	-0.091609	0.210518
F78	F	1.087319	-0.063000	0.435881
H79	H	1.228571	-0.389875	0.777996
F80	F	0.408995	-0.512175	0.139837
H81	H	1.116965	-0.515827	0.264628
H82	H	1.117035	-0.515865	0.017010
F83	F	0.826388	-0.389411	0.106312
F84	F	1.137781	-0.418496	0.532929
H85	H	0.596698	-0.549820	0.150100
F86	F	1.114501	-0.644344	-0.169708
F87	F	1.244562	-0.410432	0.936414
H88	H	0.492125	0.028286	-0.007695
H89	H	1.228517	-0.389865	0.291904
H90	H	1.108039	-0.965633	-0.133156
F91	F	0.980533	-0.071064	0.843814
F92	F	1.107756	-0.977298	0.134705
F93	F	1.108627	-0.933575	0.186626
F94	F	1.110533	-0.837141	0.301167
H95	H	1.090331	-0.084514	0.594560
F96	F	0.980483	-0.071060	0.357725
H97	H	0.378149	-0.183318	0.050067
H98	H	0.423194	-0.099692	0.027225
H99	H	0.806527	0.013051	-0.003537
F100	F	0.613271	0.093600	-0.025521
