data_functionalizedCrystal
_audit_creation_method	'MofGen! by Chris Wilmer'
_symmetry_space_group_name_H-M	'P1'
_symmetry_Int_Tables_number	1
_symmetry_cell_setting	triclinic
loop_
_symmetry_equiv_pos_as_xyz
  x,y,z
_cell_length_a	12.759401
_cell_length_b	14.908520
_cell_length_c	12.759393
_cell_angle_alpha	93.264213
_cell_angle_beta	89.979541
_cell_angle_gamma	93.322137
loop_
_atom_site_label
_atom_site_type_symbol
_atom_site_fract_x
_atom_site_fract_y
_atom_site_fract_z
Zn1	Zn	1.582075	-0.359084	-0.618120
Zn2	Zn	2.082075	0.140916	-0.118120
Zn3	Zn	1.571804	-0.509966	-0.452566
Zn4	Zn	2.071804	-0.009966	0.047434
Zn5	Zn	1.406372	-0.359130	-0.442458
Zn6	Zn	1.906372	0.140870	0.057542
Zn7	Zn	1.396206	-0.509905	-0.628199
Zn8	Zn	1.896206	-0.009905	-0.128199
O9	O	1.489114	-0.434521	-0.535336
O10	O	1.989114	0.065479	-0.035336
O11	O	1.727733	-0.379105	-0.596171
O12	O	2.227733	0.120895	-0.096171
O13	O	1.549815	-0.490002	-0.304207
O14	O	2.049815	0.009998	0.195793
O15	O	1.438232	-0.232879	-0.457311
O16	O	1.938232	0.267121	0.042689
O17	O	1.720187	-0.489957	-0.474539
O18	O	2.220187	0.010043	0.025461
O19	O	1.567320	-0.232845	-0.586369
O20	O	2.067320	0.267155	-0.086369
O21	O	1.428273	-0.379184	-0.296781
O22	O	1.928273	0.120816	0.203219
O23	O	1.258003	-0.379124	-0.467085
O24	O	1.758003	0.120876	0.032915
O25	O	1.420906	-0.489853	-0.773880
O26	O	1.920906	0.010147	-0.273880
O27	O	1.250534	-0.489898	-0.603548
O28	O	1.750534	0.010102	-0.103548
O29	O	1.557463	-0.379045	-0.766475
O30	O	2.057463	0.120955	-0.266475
O31	O	1.539958	-0.636202	-0.484313
O32	O	2.039958	-0.136202	0.015687
O33	O	1.410948	-0.636157	-0.613350
O34	O	1.910948	-0.136157	-0.113350
C35	C	1.216148	-0.434510	-0.535314
C36	C	1.716148	0.065490	-0.035314
C37	C	1.099370	-0.434527	-0.535331
C38	C	1.599370	0.065473	-0.035331
C39	C	1.040641	-0.492295	-0.606288
C40	C	1.540641	0.007705	-0.106288
C41	C	0.930916	-0.492298	-0.606309
C42	C	1.430916	0.007702	-0.106309
C43	C	0.938660	-0.376764	-0.464408
C44	C	1.438660	0.123236	0.035592
C45	C	1.048383	-0.376757	-0.464392
C46	C	1.548383	0.123243	0.035608
C47	C	1.473264	-0.668914	-0.551045
C48	C	1.973264	-0.168914	-0.051045
C49	C	1.466579	-0.769188	-0.557800
C50	C	1.966579	-0.269188	-0.057800
C51	C	1.588495	-0.957599	-0.436237
C52	C	2.088495	-0.457599	0.063763
C53	C	1.582218	-1.051816	-0.442581
C54	C	2.082218	-0.551816	0.057419
C55	C	1.447753	-1.051839	-0.576837
C56	C	1.947753	-0.551839	-0.076837
C57	C	1.454031	-0.957623	-0.570493
C58	C	1.954031	-0.457623	-0.070493
C59	C	1.524403	-0.910506	-0.500190
C60	C	2.024403	-0.410506	-0.000190
C61	C	1.530674	-0.816288	-0.493841
C62	C	2.030674	-0.316288	0.006159
C63	C	1.396216	-0.816313	-0.628102
C64	C	1.896216	-0.316313	-0.128102
C65	C	1.389938	-0.910529	-0.634446
C66	C	1.889938	-0.410529	-0.134446
C67	C	1.763147	-0.434533	-0.535358
C68	C	2.263147	0.065467	-0.035358
C69	C	1.879923	-0.434538	-0.535368
C70	C	2.379923	0.065462	-0.035368
C71	C	1.489196	-0.434437	-0.809364
C72	C	1.989196	0.065563	-0.309364
C73	C	1.489231	-0.434401	-0.926138
C74	C	1.989231	0.065599	-0.426138
C75	C	1.505055	-0.199213	-0.519588
C76	C	2.005055	0.300787	-0.019588
C77	C	1.511848	-0.098939	-0.512878
C78	C	2.011848	0.401061	-0.012878
C79	C	1.552551	-0.492038	-1.094598
C80	C	2.052551	0.007962	-0.594598
C81	C	1.552522	-0.492080	-0.984877
C82	C	2.052522	0.007920	-0.484877
C83	C	1.425957	-0.376683	-0.977126
C84	C	1.925957	0.123317	-0.477126
C85	C	1.425980	-0.376645	-1.086846
C86	C	1.925980	0.123355	-0.586846
C87	C	1.489097	-0.434540	-0.262370
C88	C	1.989097	0.065460	0.237630
C89	C	1.489283	-0.434321	-0.145579
C90	C	1.989283	0.065679	0.354421
H91	H	0.883104	-0.539337	-0.664090
H92	H	1.383104	-0.039337	-0.164090
H93	H	0.897133	-0.329731	-0.406650
H94	H	1.397133	0.170269	0.093350
H95	H	1.082151	-0.539333	-0.664053
H96	H	1.582151	-0.039333	-0.164053
H97	H	1.374419	-0.329723	-0.929293
H98	H	1.874419	0.170277	-0.429293
Br99	Br	1.128095	-0.298343	-0.368097
Br100	Br	1.628095	0.201657	0.131903
H101	H	1.634411	-1.090156	-0.390506
H102	H	2.134411	-0.590156	0.109494
Br103	Br	1.626171	-0.752344	-0.398424
Br104	Br	2.126171	-0.252344	0.101576
H105	H	1.374455	-0.329644	-1.128355
H106	H	1.874455	0.170356	-0.628355
H107	H	1.645788	-0.919237	-0.378986
H108	H	2.145788	-0.419237	0.121014
H109	H	1.344024	-0.777958	-0.680173
H110	H	1.844024	-0.277958	-0.180173
H111	H	1.332646	-0.948904	-0.691687
H112	H	1.832646	-0.448904	-0.191687
Br113	Br	1.352274	-1.115798	-0.672259
Br114	Br	1.852274	-0.615798	-0.172259
H115	H	1.604095	-0.539002	-1.142415
H116	H	2.104095	-0.039002	-0.642415
H117	H	1.604041	-0.539078	-0.943373
H118	H	2.104041	-0.039078	-0.443373
