data_functionalizedCrystal
_audit_creation_method	'MofGen! by Chris Wilmer'
_symmetry_space_group_name_H-M	'P1'
_symmetry_Int_Tables_number	1
_symmetry_cell_setting	triclinic
loop_
_symmetry_equiv_pos_as_xyz
  x,y,z
_cell_length_a	18.101395
_cell_length_b	17.639874
_cell_length_c	17.640968
_cell_angle_alpha	92.136959
_cell_angle_beta	101.229078
_cell_angle_gamma	78.746389
loop_
_atom_site_label
_atom_site_type_symbol
_atom_site_fract_x
_atom_site_fract_y
_atom_site_fract_z
Zn1	Zn	-0.021316	-1.247783	0.195120
Zn2	Zn	0.478684	-0.747783	0.695120
Zn3	Zn	-0.174108	-1.221990	0.068143
Zn4	Zn	0.325892	-0.721990	0.568143
Zn5	Zn	-0.069486	-1.095107	0.093763
Zn6	Zn	0.430514	-0.595107	0.593763
Zn7	Zn	-0.164357	-1.120732	0.220722
Zn8	Zn	0.335643	-0.620732	0.720722
O9	O	-0.107317	-1.171403	0.144437
O10	O	0.392683	-0.671403	0.644437
O11	O	-0.025506	-1.350634	0.156840
O12	O	0.474494	-0.850634	0.656840
O13	O	-0.184470	-1.183640	-0.034731
O14	O	0.315530	-0.683640	0.465269
O15	O	0.040551	-1.115430	0.107216
O16	O	0.540551	-0.615430	0.607216
O17	O	-0.137762	-1.331684	0.063550
O18	O	0.362238	-0.831684	0.563550
O19	O	0.075941	-1.227600	0.181682
O20	O	0.575941	-0.727600	0.681682
O21	O	-0.107605	-1.090420	-0.015908
O22	O	0.392395	-0.590420	0.484092
O23	O	-0.098149	-0.992234	0.132041
O24	O	0.401851	-0.492234	0.632041
O25	O	-0.121142	-1.159104	0.323598
O26	O	0.378858	-0.659104	0.823598
O27	O	-0.167850	-1.011060	0.225317
O28	O	0.332150	-0.511060	0.725317
O29	O	-0.016051	-1.252448	0.304789
O30	O	0.483949	-0.752448	0.804789
O31	O	-0.276462	-1.208488	0.088375
O32	O	0.223538	-0.708488	0.588375
O33	O	-0.269298	-1.134094	0.200474
O34	O	0.230702	-0.634094	0.700474
C35	C	-0.137169	-0.974092	0.184238
C36	C	0.362831	-0.474092	0.684238
C37	C	-0.149953	-0.889685	0.201282
C38	C	0.350047	-0.389685	0.701282
C39	C	-0.299748	-1.171297	0.144435
C40	C	0.200252	-0.671297	0.644435
C41	C	-0.382054	-1.171326	0.144446
C42	C	0.117946	-0.671326	0.644446
C43	C	-0.010142	-0.563041	0.014916
C44	C	0.489858	-0.063041	0.514916
C45	C	-0.022168	-0.483730	0.030943
C46	C	0.477832	0.016270	0.530943
C47	C	-0.094916	-0.503355	0.127903
C48	C	0.405084	-0.003355	0.627903
C49	C	-0.082893	-0.582670	0.111887
C50	C	0.417107	-0.082670	0.611887
C51	C	-0.040507	-0.612506	0.055392
C52	C	0.459493	-0.112506	0.555392
C53	C	-0.113258	-0.632135	0.152364
C54	C	0.386742	-0.132135	0.652364
C55	C	-0.101239	-0.711442	0.136346
C56	C	0.398761	-0.211442	0.636346
C57	C	-0.058856	-0.741284	0.079852
C58	C	0.441144	-0.241284	0.579852
C59	C	-0.028488	-0.691813	0.039375
C60	C	0.471512	-0.191813	0.539375
C61	C	-0.155649	-0.602296	0.208855
C62	C	0.344351	-0.102296	0.708855
C63	C	-0.186013	-0.651761	0.249331
C64	C	0.313987	-0.151761	0.749331
C65	C	-0.173990	-0.731070	0.233318
C66	C	0.326010	-0.231070	0.733318
C67	C	-0.131607	-0.760913	0.176824
C68	C	0.368393	-0.260913	0.676824
C69	C	-0.204359	-0.780541	0.273795
C70	C	0.295641	-0.280541	0.773795
C71	C	-0.192340	-0.859849	0.257777
C72	C	0.307660	-0.359849	0.757777
C73	C	-0.119589	-0.840220	0.160806
C74	C	0.380411	-0.340220	0.660806
C75	C	-0.681111	-1.171501	0.144453
C76	C	-0.181111	-0.671501	0.644453
C77	C	-0.645255	-1.124860	0.215101
C78	C	-0.145255	-0.624860	0.715101
C79	C	-0.559721	-1.124545	0.214973
C80	C	-0.059721	-0.624545	0.714973
C81	C	-0.532745	-1.171414	0.144450
C82	C	-0.032745	-0.671414	0.644450
C83	C	-0.585407	-1.133559	0.068782
C84	C	-0.085407	-0.633559	0.568782
C85	C	-0.671030	-1.133253	0.069210
C86	C	-0.171030	-0.633253	0.569210
C87	C	-0.632626	-1.255983	0.148743
C88	C	-0.132626	-0.755983	0.648743
C89	C	-0.546646	-1.255866	0.150594
C90	C	-0.046646	-0.755866	0.650594
C91	C	-0.448896	-1.171366	0.144443
C92	C	0.051104	-0.671366	0.644443
C93	C	-0.764961	-1.171547	0.144455
C94	C	-0.264961	-0.671547	0.644455
C95	C	0.085873	-1.171534	0.144451
C96	C	0.585873	-0.671534	0.644451
C97	C	0.168198	-1.171589	0.144457
C98	C	0.668198	-0.671589	0.644457
C99	C	-0.062135	-1.211512	0.342519
C100	C	0.437865	-0.711512	0.842519
C101	C	-0.042882	-1.228603	0.426930
C102	C	0.457118	-0.728603	0.926930
C103	C	-0.077341	-0.369483	0.104474
C104	C	0.422659	0.130517	0.604474
C105	C	-0.064548	-0.453889	0.087423
C106	C	0.435452	0.046111	0.587423
C107	C	-0.152262	-1.131494	-0.052884
C108	C	0.347738	-0.631494	0.447116
C109	C	-0.171285	-1.114550	-0.137324
C110	C	0.328715	-0.614550	0.362676
C111	C	-0.253138	-1.041850	0.753506
C112	C	0.246862	-0.541850	1.253506
C113	C	-0.235034	-1.057926	0.832820
C114	C	0.264966	-0.557926	1.332820
C115	C	-0.125612	-1.155117	0.813225
C116	C	0.374388	-0.655117	1.313225
C117	C	-0.143704	-1.139046	0.733908
C118	C	0.356296	-0.639046	1.233908
C119	C	-0.207468	-1.082412	0.704056
C120	C	0.292532	-0.582412	1.204056
C121	C	-0.098035	-1.179608	0.684458
C122	C	0.401965	-0.679608	1.184458
C123	C	-0.116128	-1.163541	0.605148
C124	C	0.383872	-0.663541	1.105148
C125	C	-0.179891	-1.106912	0.575288
C126	C	0.320109	-0.606912	1.075288
C127	C	-0.225562	-1.066345	0.624746
C128	C	0.274438	-0.566345	1.124746
C129	C	-0.034274	-1.236246	0.714311
C130	C	0.465726	-0.736246	1.214311
C131	C	0.011395	-1.276808	0.664861
C132	C	0.511395	-0.776808	1.164861
C133	C	-0.006695	-1.260737	0.585550
C134	C	0.493305	-0.760737	1.085550
C135	C	-0.070458	-1.204108	0.555691
C136	C	0.429542	-0.704108	1.055691
C137	C	0.038976	-1.301304	0.536093
C138	C	0.538976	-0.801304	1.036093
C139	C	0.020882	-1.285237	0.456783
C140	C	0.520882	-0.785237	0.956783
C141	C	-0.088551	-1.188041	0.476381
C142	C	0.411449	-0.688041	0.976381
H143	H	-0.085060	-0.864517	0.114814
H144	H	0.414940	-0.364517	0.614814
H145	H	-0.272228	-1.024891	0.873081
H146	H	0.227772	-0.524891	1.373081
H147	H	-0.678853	-1.062963	0.213635
H148	H	-0.178853	-0.562963	0.713635
H149	H	-0.049074	-0.805862	0.066810
H150	H	0.450926	-0.305862	0.566810
H151	H	-0.194624	-1.093834	0.510708
H152	H	0.305376	-0.593834	1.010708
H153	H	-0.650209	-1.150324	0.271934
H154	H	-0.150209	-0.650324	0.771934
H155	H	-0.703916	-1.071015	0.063693
H156	H	-0.203916	-0.571015	0.563693
H157	H	-0.510393	-1.284119	0.206202
H158	H	-0.010393	-0.784119	0.706202
H159	H	-0.527333	-1.293754	0.101598
H160	H	-0.027333	-0.793754	0.601598
H161	H	0.006041	-0.716110	-0.006618
H162	H	0.506041	-0.216110	0.493382
H163	H	-0.523087	-1.150104	0.271587
H164	H	-0.023087	-0.650104	0.771587
H165	H	-0.073697	-1.201230	0.837542
H166	H	0.426303	-0.701230	1.337542
H167	H	-0.551404	-1.062251	0.213409
H168	H	-0.051404	-0.562251	0.713409
H169	H	-0.019546	-1.249327	0.778891
H170	H	0.480454	-0.749327	1.278891
H171	H	0.024387	-0.587337	-0.031076
H172	H	0.524387	-0.087337	0.468924
H173	H	-0.165433	-0.537718	0.221894
H174	H	0.334567	-0.037718	0.721894
H175	H	-0.576843	-1.071880	0.062828
H176	H	-0.076843	-0.571880	0.562828
H177	H	0.002568	-0.443458	-0.002017
H178	H	0.502568	0.056542	0.497983
H179	H	-0.277470	-1.020210	0.600442
H180	H	0.222530	-0.520210	1.100442
H181	H	0.063310	-1.322921	0.689178
H182	H	0.563310	-0.822921	1.189178
H183	H	-0.129430	-0.479050	0.173899
H184	H	0.370570	0.020950	0.673899
H185	H	-0.220527	-0.627456	0.295327
H186	H	0.279473	-0.127456	0.795327
H187	H	0.090888	-1.347420	0.560410
H188	H	0.590888	-0.847420	1.060410
H189	H	-0.656035	-1.290931	0.097090
H190	H	-0.156035	-0.790931	0.597090
H191	H	-0.238876	-0.756235	0.319788
H192	H	0.261124	-0.256235	0.819788
H193	H	-0.217065	-0.900125	0.290738
H194	H	0.282935	-0.400125	0.790738
H195	H	-0.695899	-1.164873	0.015648
H196	H	-0.195899	-0.664873	0.515648
H197	H	-0.638116	-1.287341	0.202128
H198	H	-0.138116	-0.787341	0.702128
H199	H	-0.569044	-1.165748	0.015417
H200	H	-0.069044	-0.665748	0.515417
H201	H	-0.140459	-1.141906	0.452077
H202	H	0.359541	-0.641906	0.952077
H203	H	-0.305046	-0.995715	0.729203
H204	H	0.194954	-0.495715	1.229203
H205	H	0.058072	-1.318266	0.416519
H206	H	0.558072	-0.818266	0.916519
