data_functionalizedCrystal
_audit_creation_method	'MofGen! by Chris Wilmer'
_symmetry_space_group_name_H-M	'P1'
_symmetry_Int_Tables_number	1
_symmetry_cell_setting	triclinic
loop_
_symmetry_equiv_pos_as_xyz
  x,y,z
_cell_length_a	19.121063
_cell_length_b	21.395362
_cell_length_c	21.395355
_cell_angle_alpha	90.048039
_cell_angle_beta	92.420740
_cell_angle_gamma	87.511762
loop_
_atom_site_label
_atom_site_type_symbol
_atom_site_fract_x
_atom_site_fract_y
_atom_site_fract_z
Zn1	Zn	-0.279359	-0.947243	-0.365271
Zn2	Zn	0.220641	-0.447243	0.134729
Zn3	Zn	-0.396795	-0.942682	-0.264956
Zn4	Zn	0.103205	-0.442682	0.235044
Zn5	Zn	-0.279397	-0.842456	-0.260466
Zn6	Zn	0.220603	-0.342456	0.239534
Zn7	Zn	-0.396814	-0.837963	-0.369654
Zn8	Zn	0.103186	-0.337963	0.130346
O9	O	-0.338091	-0.892586	-0.315087
O10	O	0.161909	-0.392586	0.184913
O11	O	-0.294913	-1.034316	-0.352009
O12	O	0.205087	-0.534316	0.147991
O13	O	-0.381229	-0.929358	-0.176683
O14	O	0.118771	-0.429358	0.323317
O15	O	-0.181105	-0.860145	-0.270655
O16	O	0.318895	-0.360145	0.229345
O17	O	-0.381193	-1.030966	-0.278308
O18	O	0.118807	-0.530966	0.221692
O19	O	-0.181077	-0.937131	-0.347655
O20	O	0.318923	-0.437131	0.152345
O21	O	-0.294977	-0.855723	-0.173384
O22	O	0.205023	-0.355723	0.326616
O23	O	-0.294996	-0.754181	-0.274905
O24	O	0.205004	-0.254181	0.225095
O25	O	-0.381226	-0.852487	-0.456751
O26	O	0.118774	-0.352487	0.043249
O27	O	-0.381262	-0.750880	-0.355126
O28	O	0.118738	-0.250880	0.144874
O29	O	-0.294932	-0.932775	-0.453530
O30	O	0.205068	-0.432775	0.046470
O31	O	-0.495084	-0.925002	-0.282559
O32	O	0.004916	-0.425002	0.217441
O33	O	-0.495098	-0.848065	-0.359480
O34	O	0.004902	-0.348065	0.140520
C35	C	-0.338136	-0.729796	-0.315004
C36	C	0.161864	-0.229796	0.184996
C37	C	-0.338172	-0.660154	-0.314984
C38	C	0.161828	-0.160154	0.185016
C39	C	-0.383152	-0.625736	-0.356695
C40	C	0.116848	-0.125736	0.143305
C41	C	-0.383138	-0.560301	-0.356718
C42	C	0.116862	-0.060301	0.143282
C43	C	-0.338151	-0.529286	-0.315019
C44	C	0.161849	-0.029286	0.184981
C45	C	-0.293162	-0.563712	-0.273305
C46	C	0.206838	-0.063712	0.226695
C47	C	-0.293173	-0.629146	-0.273288
C48	C	0.206827	-0.129146	0.226712
C49	C	-0.332498	-0.425776	-0.258391
C50	C	0.167502	0.074224	0.241609
C51	C	-0.332492	-0.360344	-0.258408
C52	C	0.167508	0.139656	0.241592
C53	C	-0.338115	-0.327467	-0.315072
C54	C	0.161885	0.172533	0.184928
C55	C	-0.343757	-0.360030	-0.371723
C56	C	0.156243	0.139970	0.128277
C57	C	-0.343768	-0.425464	-0.371705
C58	C	0.156232	0.074536	0.128295
C59	C	-0.338134	-0.458335	-0.315033
C60	C	0.161866	0.041665	0.184967
C61	C	-0.383081	-0.222097	-0.356811
C62	C	0.116919	0.277903	0.143189
C63	C	-0.383062	-0.156661	-0.356835
C64	C	0.116938	0.343339	0.143165
C65	C	-0.293091	-0.160074	-0.273417
C66	C	0.206909	0.339926	0.226583
C67	C	-0.293106	-0.225508	-0.273398
C68	C	0.206894	0.274492	0.226602
C69	C	-0.338105	-0.256516	-0.315095
C70	C	0.161895	0.243484	0.184905
C71	C	-0.520576	-0.885568	-0.321996
C72	C	-0.020576	-0.385568	0.178004
C73	C	-0.598643	-0.882623	-0.324972
C74	C	-0.098643	-0.382623	0.175028
C75	C	-0.635289	-0.921327	-0.286355
C76	C	-0.135289	-0.421327	0.213645
C77	C	-0.708642	-0.918561	-0.289158
C78	C	-0.208642	-0.418561	0.210842
C79	C	-0.745348	-0.877087	-0.330576
C80	C	-0.245348	-0.377087	0.169424
C81	C	-0.708697	-0.838381	-0.369197
C82	C	-0.208697	-0.338381	0.130803
C83	C	-0.635346	-0.841151	-0.366397
C84	C	-0.135346	-0.341151	0.133603
C85	C	-0.966824	-0.866722	-0.341036
C86	C	-0.466824	-0.366722	0.158964
C87	C	-1.040180	-0.863954	-0.343832
C88	C	-0.540180	-0.363954	0.156168
C89	C	-1.040120	-0.944135	-0.263794
C90	C	-0.540120	-0.444135	0.236206
C91	C	-0.966767	-0.946898	-0.260995
C92	C	-0.466767	-0.446898	0.239005
C93	C	-0.930123	-0.908194	-0.299618
C94	C	-0.430123	-0.408194	0.200382
C95	C	-0.820326	-0.874257	-0.333441
C96	C	-0.320326	-0.374257	0.166559
C97	C	-0.855146	-0.911028	-0.296756
C98	C	-0.355146	-0.411028	0.203244
C99	C	-0.154894	-0.899648	-0.308165
C100	C	0.345106	-0.399648	0.191835
C101	C	-0.076826	-0.902658	-0.305215
C102	C	0.423174	-0.402658	0.194785
C103	C	-0.338077	-0.892638	-0.478510
C104	C	0.161923	-0.392638	0.021490
C105	C	-0.338071	-0.892661	-0.548151
C106	C	0.161929	-0.392661	-0.048151
C107	C	-0.338058	-0.056010	-0.315153
C108	C	0.161942	0.443990	0.184847
C109	C	-0.338074	-0.125651	-0.315136
C110	C	0.161926	0.374349	0.184864
C111	C	-0.293136	-0.934465	-0.579188
C112	C	0.206864	-0.434465	-0.079188
C113	C	-0.293106	-0.934465	-0.644622
C114	C	0.206894	-0.434465	-0.144622
C115	C	-0.338023	-0.892667	-0.679017
C116	C	0.161977	-0.392667	-0.179017
C117	C	-0.382961	-0.850856	-0.647972
C118	C	0.117039	-0.350856	-0.147972
C119	C	-0.382985	-0.850852	-0.582539
C120	C	0.117015	-0.350852	-0.082539
C121	C	-0.401266	-0.885288	-0.785084
C122	C	0.098734	-0.385288	-0.285084
C123	C	-0.401243	-0.885296	-0.850517
C124	C	0.098757	-0.385296	-0.350517
C125	C	-0.337949	-0.892674	-0.880835
C126	C	0.162051	-0.392674	-0.380835
C127	C	-0.274675	-0.900058	-0.845714
C128	C	0.225325	-0.400058	-0.345714
C129	C	-0.274699	-0.900055	-0.780281
C130	C	0.225301	-0.400055	-0.280281
C131	C	-0.338002	-0.892666	-0.749969
C132	C	0.161998	-0.392666	-0.249969
C133	C	-0.292977	-0.934481	-0.982824
C134	C	0.207023	-0.434481	-0.482824
C135	C	-0.292946	-0.934477	-1.048259
C136	C	0.207054	-0.434477	-0.548259
C137	C	-0.382808	-0.850870	-1.051608
C138	C	0.117192	-0.350870	-0.551608
C139	C	-0.382833	-0.850871	-0.986174
C140	C	0.117167	-0.350871	-0.486174
C141	C	-0.337918	-0.892680	-0.951786
C142	C	0.162082	-0.392680	-0.451786
C143	C	-0.338055	-0.892571	-0.152298
C144	C	0.161945	-0.392571	0.347702
C145	C	-0.337863	-0.892678	-0.082650
C146	C	0.162137	-0.392678	0.417350
H147	H	-0.348335	-0.333264	-0.417864
H148	H	0.151665	0.166736	0.082136
F149	F	-0.927707	-0.991047	-0.216919
F150	F	-0.427707	-0.491047	0.283081
H151	H	-0.419373	-0.816832	-1.079612
H152	H	0.080627	-0.316832	-0.579612
H153	H	-0.605509	-0.809634	-0.397844
H154	H	-0.105509	-0.309634	0.102156
H155	H	-0.348360	-0.451975	-0.417832
H156	H	0.151640	0.048025	0.082168
H157	H	-0.419719	-0.247345	-0.390766
H158	H	0.080281	0.252655	0.109234
F159	F	-1.079125	-0.985326	-0.222694
F160	F	-0.579125	-0.485326	0.277306
H161	H	-1.070064	-0.830188	-0.377570
H162	H	-0.570064	-0.330188	0.122430
F163	F	-0.430662	-0.806379	-0.953141
F164	F	0.069338	-0.306379	-0.453141
F165	F	-0.430763	-0.806370	-0.684579
F166	F	0.069237	-0.306370	-0.184579
H167	H	-0.419792	-0.650978	-0.390649
H168	H	0.080208	-0.150978	0.109351
F169	F	-0.431013	-0.523663	-0.401114
F170	F	0.068987	-0.023663	0.098886
F171	F	-0.430935	-0.120031	-0.401234
F172	F	0.069065	0.379969	0.098766
F173	F	-0.859398	-0.830118	-0.377519
F174	F	-0.359398	-0.330118	0.122481
F175	F	-0.245209	-0.127070	-0.229040
F176	F	0.254791	0.372930	0.270960
F177	F	-0.207360	-0.907910	-0.742905
F178	F	0.292640	-0.407910	-0.242905
F179	F	-0.468585	-0.877442	-0.887889
F180	F	0.031415	-0.377442	-0.387889
F181	F	-0.430813	-0.806357	-0.549506
F182	F	0.069187	-0.306357	-0.049506
H183	H	-0.605408	-0.955097	-0.252626
H184	H	-0.105408	-0.455097	0.247374
H185	H	-0.738476	-0.950078	-0.257712
H186	H	-0.238476	-0.450078	0.242288
H187	H	-0.452795	-0.879112	-0.760404
H188	H	0.047205	-0.379112	-0.260404
H189	H	-0.256350	-0.968518	-1.073528
H190	H	0.243650	-0.468518	-0.573528
F191	F	-0.207307	-0.907914	-0.877976
F192	F	0.292693	-0.407914	-0.377976
F193	F	-0.245266	-0.978950	-0.677661
F194	F	0.254734	-0.478950	-0.177661
H195	H	-0.936994	-0.835206	-0.372484
H196	H	-0.436994	-0.335206	0.127516
H197	H	-0.738589	-0.804615	-0.402923
H198	H	-0.238589	-0.304615	0.097077
F199	F	-0.816079	-0.955169	-0.252681
F200	F	-0.316079	-0.455169	0.247319
H201	H	-0.256401	-0.968520	-0.954823
H202	H	0.243599	-0.468520	-0.454823
F203	F	-0.326515	-0.460760	-0.198077
F204	F	0.173485	0.039240	0.301923
H205	H	-0.256482	-0.253532	-0.239430
H206	H	0.243518	0.246468	0.260570
H207	H	-0.327902	-0.333835	-0.212280
H208	H	0.172098	0.166165	0.287720
F209	F	-0.245282	-0.530704	-0.228929
F210	F	0.254718	-0.030704	0.271071
H211	H	-0.256543	-0.657169	-0.239322
H212	H	0.243457	-0.157169	0.260678
F213	F	-0.245331	-0.978959	-0.542593
F214	F	0.254669	-0.478959	-0.042593
