data_functionalizedCrystal
_audit_creation_method	'MofGen! by Chris Wilmer'
_symmetry_space_group_name_H-M	'P1'
_symmetry_Int_Tables_number	1
_symmetry_cell_setting	triclinic
loop_
_symmetry_equiv_pos_as_xyz
  x,y,z
_cell_length_a	16.120297
_cell_length_b	16.120490
_cell_length_c	18.215405
_cell_angle_alpha	92.882919
_cell_angle_beta	87.131114
_cell_angle_gamma	90.129683
loop_
_atom_site_label
_atom_site_type_symbol
_atom_site_fract_x
_atom_site_fract_y
_atom_site_fract_z
Zn1	Zn	-0.534507	1.247438	0.372902
Zn2	Zn	-0.201174	1.580771	0.706236
Zn3	Zn	0.132160	1.914105	1.039569
Zn4	Zn	-0.395441	1.254386	0.490057
Zn5	Zn	-0.062107	1.587719	0.823391
Zn6	Zn	0.271226	1.921053	1.156724
Zn7	Zn	-0.388429	1.115428	0.360460
Zn8	Zn	-0.055096	1.448761	0.693793
Zn9	Zn	0.278237	1.782095	1.027127
Zn10	Zn	-0.527414	1.108342	0.489373
Zn11	Zn	-0.194080	1.441675	0.822706
Zn12	Zn	0.139253	1.775008	1.156039
O13	O	-0.461448	1.181398	0.428198
O14	O	-0.128114	1.514732	0.761531
O15	O	0.205219	1.848065	1.094865
O16	O	-0.521963	1.364727	0.393937
O17	O	-0.188629	1.698060	0.727270
O18	O	0.144704	2.031393	1.060603
O19	O	-0.278145	1.241826	0.467945
O20	O	0.055188	1.575160	0.801279
O21	O	0.388521	1.908493	1.134612
O22	O	-0.407841	1.132997	0.259130
O23	O	-0.074508	1.466331	0.592464
O24	O	0.258826	1.799664	0.925797
O25	O	-0.419791	1.369831	0.480010
O26	O	-0.086458	1.703165	0.813343
O27	O	0.246876	2.036498	1.146677
O28	O	-0.515164	1.229985	0.268272
O29	O	-0.181831	1.563318	0.601605
O30	O	0.151503	1.896651	0.934938
O31	O	-0.272994	1.139735	0.372731
O32	O	0.060339	1.473068	0.706064
O33	O	0.393673	1.806401	1.039398
O34	O	-0.400963	0.998121	0.372067
O35	O	-0.067629	1.331455	0.705400
O36	O	0.265704	1.664788	1.038734
O37	O	-0.644720	1.120920	0.478843
O38	O	-0.311386	1.454253	0.812176
O39	O	0.021947	1.787586	1.145510
O40	O	-0.503074	0.992915	0.466778
O41	O	-0.169741	1.326248	0.800112
O42	O	0.163593	1.659582	1.133445
O43	O	-0.649931	1.223113	0.393273
O44	O	-0.316598	1.556447	0.726606
O45	O	0.016735	1.889780	1.059940
O46	O	-0.412913	1.234955	0.592947
O47	O	-0.079580	1.568288	0.926280
O48	O	0.253754	1.901622	1.259613
O49	O	-0.509873	1.127657	0.592444
O50	O	-0.176539	1.460990	0.925777
O51	O	0.156794	1.794324	1.259110
C52	C	-0.450488	0.965346	0.417999
C53	C	-0.117155	1.298679	0.751332
C54	C	0.216178	1.632012	1.084665
C55	C	-0.445820	0.872916	0.413654
C56	C	-0.112486	1.206249	0.746987
C57	C	0.220847	1.539583	1.080321
C58	C	-0.485667	0.659953	0.450729
C59	C	-0.152333	0.993287	0.784063
C60	C	0.181000	1.326620	1.117396
C61	C	-0.437294	0.703692	0.405728
C62	C	-0.103961	1.037025	0.739062
C63	C	0.229372	1.370358	1.072395
C64	C	-0.442039	0.797857	0.410140
C65	C	-0.108706	1.131190	0.743473
C66	C	0.224627	1.464523	1.076806
C67	C	-0.480923	0.565779	0.446319
C68	C	-0.147589	0.899113	0.779652
C69	C	0.185744	1.232446	1.112986
C70	C	-0.678341	1.170451	0.437369
C71	C	-0.345008	1.503784	0.770703
C72	C	-0.011675	1.837118	1.104036
C73	C	-0.770769	1.165786	0.441278
C74	C	-0.437435	1.499119	0.774611
C75	C	-0.104102	1.832453	1.107944
C76	C	-0.939993	1.157238	0.448396
C77	C	-0.606660	1.490571	0.781729
C78	C	-0.273326	1.823905	1.115062
C79	C	-0.983762	1.205723	0.407788
C80	C	-0.650429	1.539056	0.741121
C81	C	-0.317096	1.872390	1.074454
C82	C	-1.077925	1.200967	0.411748
C83	C	-0.744591	1.534300	0.745082
C84	C	-0.411258	1.867633	1.078415
C85	C	-0.845822	1.161993	0.444436
C86	C	-0.512489	1.495326	0.777769
C87	C	-0.179155	1.828660	1.111103
C88	C	-0.245400	1.192351	0.419011
C89	C	0.087933	1.525685	0.752345
C90	C	0.421267	1.859018	1.085678
C91	C	-0.152982	1.197177	0.414903
C92	C	0.180352	1.530511	0.748237
C93	C	0.513685	1.863844	1.081570
C94	C	-0.461403	1.181313	0.619399
C95	C	-0.128070	1.514646	0.952732
C96	C	0.205263	1.847979	1.286065
C97	C	-0.461416	1.181351	0.701200
C98	C	-0.128083	1.514684	1.034533
C99	C	0.205251	1.848017	1.367866
C100	C	-0.472450	1.398295	0.438438
C101	C	-0.139117	1.731628	0.771771
C102	C	0.194216	2.064962	1.105104
C103	C	-0.477139	1.490724	0.442801
C104	C	-0.143806	1.824057	0.776135
C105	C	0.189528	2.157390	1.109468
C106	C	-0.461512	1.181506	0.236253
C107	C	-0.128178	1.514840	0.569586
C108	C	0.205155	1.848173	0.902919
C109	C	-0.461539	1.181552	0.154457
C110	C	-0.128206	1.514886	0.487791
C111	C	0.205128	1.848219	0.821124
C112	C	-0.411033	1.237341	0.889641
C113	C	-0.077700	1.570674	1.222974
C114	C	0.255634	1.904007	1.556308
C115	C	-0.411055	1.237377	0.966502
C116	C	-0.077722	1.570710	1.299836
C117	C	0.255612	1.904044	1.633169
C118	C	-0.511927	1.125560	0.966011
C119	C	-0.178594	1.458893	1.299344
C120	C	0.154739	1.792226	1.632677
C121	C	-0.511909	1.125528	0.889151
C122	C	-0.178576	1.458861	1.222484
C123	C	0.154757	1.792195	1.555818
C124	C	-0.461457	1.181418	0.850968
C125	C	-0.128124	1.514751	1.184301
C126	C	0.205209	1.848084	1.517635
C127	C	-0.461497	1.181485	1.004689
C128	C	-0.128164	1.514819	1.338022
C129	C	0.205169	1.848152	1.671356
C130	C	-0.461522	1.181524	1.088025
C131	C	-0.128188	1.514857	1.421359
C132	C	0.205145	1.848191	1.754692
C133	C	-0.461434	1.181380	0.767626
C134	C	-0.128101	1.514713	1.100960
C135	C	0.205233	1.848047	1.434293
H136	H	-0.950517	1.250803	0.370047
H137	H	-0.617183	1.584137	0.703381
H138	H	-0.283850	1.917470	1.036714
C139	C	-0.546416	0.704905	0.507255
C140	C	-0.213082	1.038238	0.840589
C141	C	0.120251	1.371571	1.173922
N142	N	-0.592167	0.738772	0.549833
N143	N	-0.258834	1.072105	0.883167
N144	N	0.074499	1.405438	1.216500
H145	H	-0.553002	1.080055	0.997108
H146	H	-0.219669	1.413389	1.330442
H147	H	0.113664	1.746722	1.663775
H148	H	-0.973237	1.112161	0.486133
H149	H	-0.639903	1.445494	0.819466
H150	H	-0.306570	1.778828	1.152800
C151	C	-0.567401	1.064021	0.846610
C152	C	-0.234067	1.397355	1.179943
C153	C	0.099266	1.730688	1.513276
N154	N	-0.609203	1.017703	0.814568
N155	N	-0.275870	1.351037	1.147901
N156	N	0.057464	1.684370	1.481235
C157	C	-0.355539	1.298825	0.847643
C158	C	-0.022206	1.632158	1.180976
C159	C	0.311127	1.965492	1.514310
N160	N	-0.313742	1.345139	0.816012
N161	N	0.019592	1.678472	1.149346
N162	N	0.352925	2.011806	1.482679
H163	H	-0.392318	0.670417	0.363889
H164	H	-0.058985	1.003750	0.697222
H165	H	0.274348	1.337083	1.030556
C166	C	-0.355581	1.298894	1.009039
C167	C	-0.022247	1.632227	1.342372
C168	C	0.311086	1.965560	1.675706
N169	N	-0.313794	1.345230	1.041077
N170	N	0.019539	1.678563	1.374411
N171	N	0.352873	2.011897	1.707744
