data_functionalizedCrystal
_audit_creation_method	'MofGen! by Chris Wilmer'
_symmetry_space_group_name_H-M	'P1'
_symmetry_Int_Tables_number	1
_symmetry_cell_setting	triclinic
loop_
_symmetry_equiv_pos_as_xyz
  x,y,z
_cell_length_a	10.723023
_cell_length_b	12.837942
_cell_length_c	11.892277
_cell_angle_alpha	86.044810
_cell_angle_beta	85.675055
_cell_angle_gamma	89.648244
loop_
_atom_site_label
_atom_site_type_symbol
_atom_site_fract_x
_atom_site_fract_y
_atom_site_fract_z
O1	O	1.665169	0.139540	0.093989
O2	O	1.303529	0.153469	0.093993
O3	O	1.476330	-0.004455	0.093984
O4	O	1.492367	0.297464	0.093998
O5	O	1.491964	0.007484	-0.094018
O6	O	1.319162	0.165408	-0.094008
O7	O	1.680802	0.151479	-0.094013
Zn8	Zn	1.502464	0.160339	-0.123860
Zn9	Zn	1.481867	0.144608	0.123840
O10	O	1.508000	0.309403	-0.094004
C11	C	1.264736	0.158425	-0.000007
C12	C	1.125852	0.155393	-0.000005
C13	C	1.072031	0.160226	-0.097395
C14	C	0.928488	0.157092	-0.097395
C15	C	1.478729	-0.037145	-0.000016
C16	C	1.462570	-0.152337	-0.000014
C17	C	1.656825	-0.391915	0.000007
C18	C	1.641648	-0.500149	0.000009
C19	C	1.417040	-0.477041	0.000000
C20	C	1.432217	-0.368807	-0.000002
C21	C	1.552113	-0.326248	-0.000000
C22	C	1.567290	-0.218012	-0.000010
C23	C	1.342682	-0.194906	-0.000011
C24	C	1.327506	-0.303140	-0.000009
C25	C	1.719595	0.146523	-0.000010
C26	C	1.858478	0.149555	-0.000005
C27	C	1.505601	0.342092	-0.000001
C28	C	1.521760	0.457284	0.000004
N29	N	1.516531	0.171075	-0.292909
C30	C	1.369789	0.059104	-0.529610
C31	C	1.379650	0.066615	-0.647949
C32	C	1.546109	0.193611	-0.647926
C33	C	1.536247	0.186101	-0.529588
C34	C	1.448085	0.118844	-0.470434
C35	C	1.438230	0.111328	-0.352094
C36	C	1.604682	0.238330	-0.352073
C37	C	1.614544	0.245841	-0.470411
N38	N	1.467809	0.133865	0.292889
H39	H	1.065660	0.148932	0.083373
O40	O	1.683759	-0.176728	0.000197
C41	C	1.872286	-0.169594	0.097584
C42	C	1.740397	-0.216402	0.097496
H43	H	1.918127	-0.201667	0.176229
H44	H	1.865219	-0.080955	0.097653
H45	H	1.931189	-0.191561	0.018876
H46	H	1.681421	-0.194514	0.176190
H47	H	1.747559	-0.305030	0.097368
H48	H	1.617882	0.248373	-0.696109
O49	O	1.773368	-0.350742	0.000058
C50	C	1.994553	-0.385076	-0.000007
C51	C	1.862637	-0.431842	-0.000040
H52	H	2.066765	-0.450621	-0.000110
H53	H	2.000807	-0.340014	0.078691
H54	H	2.013752	-0.329952	-0.078666
H55	H	1.843352	-0.487010	0.078565
H56	H	1.856449	-0.476840	-0.078790
H57	H	1.319425	-0.511712	0.000011
O58	O	1.240848	-0.131233	0.000133
C59	C	1.045447	-0.084504	0.097548
C60	C	1.160690	-0.156696	0.097519
H61	H	0.980621	-0.105050	0.176288
H62	H	0.993541	-0.095117	0.018920
H63	H	1.076916	0.000162	0.097487
H64	H	1.129328	-0.241389	0.097620
H65	H	1.212570	-0.145992	0.176140
O66	O	0.873196	0.161832	-0.196843
C67	C	0.738986	0.076455	-0.315601
C68	C	0.801553	0.070942	-0.202944
H69	H	0.681027	0.002990	-0.320560
H70	H	0.813983	0.082549	-0.388971
H71	H	0.675558	0.147955	-0.320640
H72	H	0.864973	-0.000552	-0.197794
H73	H	0.726491	0.064904	-0.129627
O74	O	1.352488	0.045983	-0.294804
C75	C	1.188468	-0.079226	-0.307322
C76	C	1.285502	-0.005248	-0.372339
H77	H	1.134302	-0.120682	-0.369981
H78	H	1.120861	-0.032278	-0.251959
H79	H	1.238475	-0.139543	-0.251881
H80	H	1.235601	0.055083	-0.427841
H81	H	1.353103	-0.052265	-0.427630
O82	O	1.700151	0.311084	-0.528053
C83	C	1.789066	0.378986	-0.710349
C84	C	1.692078	0.305041	-0.645215
H85	H	1.782554	0.374141	-0.805085
H86	H	1.886958	0.355149	-0.687154
H87	H	1.769426	0.462476	-0.687013
H88	H	1.711601	0.221529	-0.668516
H89	H	1.594217	0.328967	-0.668415
O90	O	1.284054	-0.006247	-0.472317
C91	C	1.120054	-0.131477	-0.484824
C92	C	1.217074	-0.057489	-0.549847
H93	H	1.065893	-0.172943	-0.547478
H94	H	1.052441	-0.084534	-0.429460
H95	H	1.170074	-0.191785	-0.429382
H96	H	1.167161	0.002833	-0.605350
H97	H	1.284682	-0.104501	-0.605139
O98	O	1.680703	0.296525	-0.294717
C99	C	1.747174	0.469212	-0.258456
C100	C	1.661034	0.403438	-0.323498
H101	H	1.731283	0.555665	-0.281683
H102	H	1.848935	0.448416	-0.281740
H103	H	1.725012	0.452241	-0.163719
H104	H	1.683085	0.420374	-0.418250
H105	H	1.559298	0.424245	-0.300120
H106	H	1.229889	-0.337807	-0.000006
H107	H	1.726915	-0.553613	0.000019
H108	H	1.132223	0.166678	-0.180773
H109	H	0.904785	0.145428	0.083379
H110	H	1.315891	0.017970	-0.696126
