data_functionalizedCrystal
_audit_creation_method	'MofGen! by Chris Wilmer'
_symmetry_space_group_name_H-M	'P1'
_symmetry_Int_Tables_number	1
_symmetry_cell_setting	triclinic
loop_
_symmetry_equiv_pos_as_xyz
  x,y,z
_cell_length_a	18.215407
_cell_length_b	19.121063
_cell_length_c	18.215399
_cell_angle_alpha	92.409843
_cell_angle_beta	89.980167
_cell_angle_gamma	92.469446
loop_
_atom_site_label
_atom_site_type_symbol
_atom_site_fract_x
_atom_site_fract_y
_atom_site_fract_z
Zn1	Zn	1.112559	-0.279613	-0.428596
Zn2	Zn	1.107212	-0.397068	-0.310772
Zn3	Zn	0.989491	-0.279636	-0.305544
Zn4	Zn	0.984203	-0.397029	-0.433795
O5	O	1.048366	-0.338336	-0.369677
O6	O	1.214834	-0.295200	-0.412978
O7	O	1.091570	-0.381516	-0.207095
O8	O	1.010267	-0.181348	-0.317504
O9	O	1.210905	-0.381494	-0.326414
O10	O	1.100685	-0.181331	-0.407909
O11	O	1.005081	-0.295240	-0.203255
O12	O	0.885805	-0.295202	-0.322545
O13	O	1.001255	-0.381427	-0.536089
O14	O	0.881921	-0.381450	-0.416771
O15	O	1.095558	-0.295162	-0.532269
O16	O	1.086443	-0.495348	-0.331455
O17	O	0.996070	-0.495319	-0.421840
C18	C	0.857160	-0.338324	-0.369655
C19	C	0.775361	-0.338336	-0.369664
C20	C	0.585160	-0.383316	-0.418671
C21	C	0.508302	-0.383318	-0.418681
C22	C	0.512323	-0.293369	-0.320699
C23	C	0.589181	-0.293364	-0.320694
C24	C	0.625597	-0.338342	-0.369679
C25	C	0.471881	-0.338349	-0.369694
C26	C	0.388547	-0.338351	-0.369703
C27	C	0.708936	-0.338339	-0.369671
C28	C	1.040122	-0.520817	-0.377795
C29	C	1.036663	-0.598883	-0.381293
C30	C	1.082127	-0.635551	-0.335916
C31	C	1.078878	-0.708902	-0.339210
C32	C	1.030161	-0.745585	-0.387877
C33	C	0.984695	-0.708912	-0.433258
C34	C	0.987948	-0.635562	-0.429968
C35	C	1.017985	-0.967055	-0.400168
C36	C	1.014733	-1.040410	-0.403454
C37	C	1.108918	-1.040394	-0.309406
C38	C	1.112164	-0.967043	-0.306117
C39	C	1.066701	-0.930377	-0.351501
C40	C	1.026837	-0.820561	-0.391243
C41	C	1.070029	-0.855401	-0.348138
C42	C	1.240319	-0.338349	-0.369699
C43	C	1.322117	-0.338354	-0.369709
C44	C	1.048413	-0.338288	-0.561628
C45	C	1.048433	-0.338267	-0.643426
C46	C	1.056662	-0.155143	-0.361543
C47	C	1.060197	-0.077077	-0.358077
C48	C	1.097555	-0.293307	-0.829630
C49	C	1.097565	-0.293287	-0.906488
C50	C	0.999368	-0.383119	-0.910455
C51	C	0.999355	-0.383135	-0.833598
C52	C	1.048453	-0.338231	-0.793188
C53	C	1.048476	-0.338194	-0.946902
C54	C	1.048486	-0.338172	-1.030235
C55	C	1.048442	-0.338251	-0.709850
C56	C	1.048364	-0.338334	-0.178471
C57	C	1.048495	-0.338157	-0.096664
H58	H	1.115899	-0.738753	-0.302259
H59	H	1.137548	-0.256705	-0.936156
H60	H	0.959396	-0.419680	-0.943366
H61	H	0.959365	-0.419717	-0.803926
H62	H	0.482664	-0.256752	-0.280816
O63	O	0.979411	-0.856118	-0.438475
C64	C	0.853205	-0.878679	-0.475060
C65	C	0.906832	-0.838354	-0.421532
H66	H	0.794512	-0.864343	-0.461371
H67	H	0.866672	-0.864194	-0.533777
H68	H	0.858732	-0.937398	-0.469629
H69	H	0.901334	-0.779626	-0.426897
H70	H	0.893349	-0.852898	-0.362837
O71	O	0.620422	-0.427022	-0.466329
C72	C	0.608316	-0.516263	-0.563490
C73	C	0.568293	-0.466792	-0.509565
H74	H	0.566187	-0.548440	-0.598450
H75	H	0.645746	-0.484093	-0.600640
H76	H	0.642650	-0.552918	-0.531261
H77	H	0.533919	-0.430128	-0.541735
H78	H	0.530908	-0.499006	-0.472415
O79	O	1.117310	-0.819848	-0.300764
C80	C	1.154054	-0.797414	-0.174603
C81	C	1.100476	-0.837743	-0.228176
H82	H	1.140454	-0.811856	-0.115904
H83	H	1.212766	-0.811790	-0.188157
H84	H	1.148577	-0.738695	-0.180089
H85	H	1.105888	-0.896471	-0.222720
H86	H	1.041786	-0.823309	-0.214607
O87	O	0.468993	-0.426908	-0.466344
C88	C	0.381799	-0.436486	-0.566094
C89	C	0.426286	-0.387039	-0.512166
H90	H	0.347247	-0.404273	-0.603144
H91	H	0.420999	-0.468616	-0.601156
H92	H	0.344176	-0.473185	-0.533865
H93	H	0.463911	-0.350298	-0.544337
H94	H	0.387044	-0.354958	-0.477104
O95	O	1.145269	-0.249618	-0.790486
C96	C	1.242693	-0.160540	-0.794668
C97	C	1.188686	-0.209974	-0.839085
H98	H	1.277821	-0.128486	-0.833942
H99	H	1.210598	-0.123776	-0.757068
H100	H	1.279679	-0.192804	-0.760104
H101	H	1.151687	-0.177767	-0.873692
H102	H	1.220827	-0.246740	-0.876639
H103	H	0.622106	-0.256736	-0.280798
O104	O	1.159456	-0.931492	-0.258747
C105	C	1.196226	-0.909076	-0.132591
C106	C	1.142632	-0.949392	-0.186159
H107	H	1.182633	-0.923522	-0.073891
H108	H	1.254932	-0.923460	-0.146158
H109	H	1.190757	-0.850355	-0.138069
H110	H	1.148034	-1.008122	-0.180710
H111	H	1.083947	-0.934950	-0.172576
O112	O	1.153165	-1.076041	-0.265437
C113	C	1.248841	-1.158805	-0.259350
C114	C	1.198780	-1.118469	-0.309228
H115	H	1.285722	-1.193128	-0.294735
H116	H	1.284272	-1.120015	-0.224021
H117	H	1.213545	-1.193169	-0.222360
H118	H	1.234019	-1.084103	-0.346263
H119	H	1.163344	-1.157296	-0.344508
O120	O	1.129515	-0.600029	-0.288620
C121	C	1.222558	-0.607764	-0.195655
C122	C	1.168935	-0.648076	-0.249196
H123	H	1.254432	-0.646593	-0.163755
H124	H	1.262594	-0.573388	-0.227898
H125	H	1.190301	-0.573458	-0.155635
H126	H	1.201131	-0.682420	-0.289228
H127	H	1.128899	-0.682408	-0.216905
H128	H	0.975071	-1.070275	-0.443097
H129	H	0.980966	-0.937207	-0.437120
O130	O	0.937451	-0.744513	-0.480638
C131	C	0.900636	-0.766871	-0.606789
C132	C	0.954200	-0.726524	-0.553215
H133	H	0.914148	-0.752331	-0.665478
H134	H	0.906121	-0.825604	-0.601410
H135	H	0.841944	-0.752512	-0.593130
H136	H	1.012915	-0.740824	-0.566840
H137	H	0.948651	-0.667802	-0.558605
H138	H	0.950927	-0.605708	-0.466919
