data_functionalizedCrystal
_audit_creation_method	'MofGen! by Chris Wilmer'
_symmetry_space_group_name_H-M	'P1'
_symmetry_Int_Tables_number	1
_symmetry_cell_setting	triclinic
loop_
_symmetry_equiv_pos_as_xyz
  x,y,z
_cell_length_a	16.625548
_cell_length_b	21.295417
_cell_length_c	21.295420
_cell_angle_alpha	90.015173
_cell_angle_beta	90.007654
_cell_angle_gamma	90.031575
loop_
_atom_site_label
_atom_site_type_symbol
_atom_site_fract_x
_atom_site_fract_y
_atom_site_fract_z
Zn1	Zn	1.232533	-0.250703	0.355911
Zn2	Zn	1.232447	-0.355943	0.250636
Zn3	Zn	1.097725	-0.250694	0.250656
Zn4	Zn	1.097646	-0.355940	0.355868
O5	O	1.165088	-0.303320	0.303268
O6	O	1.345354	-0.264669	0.341955
O7	O	1.214573	-0.341979	0.162549
O8	O	1.115676	-0.162606	0.264644
O9	O	1.345291	-0.341988	0.264611
O10	O	1.214719	-0.162613	0.341974
O11	O	1.115593	-0.264652	0.162564
O12	O	0.984882	-0.264650	0.264603
O13	O	1.115542	-0.341983	0.443963
O14	O	0.984824	-0.341974	0.341901
O15	O	1.214642	-0.264666	0.443994
O16	O	1.214497	-0.444032	0.264569
O17	O	1.115459	-0.444030	0.341882
C18	C	0.955597	-0.303311	0.303250
C19	C	0.865976	-0.303322	0.303257
C20	C	0.537800	-0.303327	0.303284
C21	C	0.629109	-0.303324	0.303275
C22	C	0.701885	-0.303325	0.303270
C23	C	0.793199	-0.303321	0.303262
C24	C	1.164982	-0.466872	0.303233
C25	C	1.165011	-0.536840	0.303239
C26	C	1.216625	-0.569687	0.263023
C27	C	1.216663	-0.635429	0.263037
C28	C	1.165072	-0.668322	0.303261
C29	C	1.113453	-0.635468	0.343484
C30	C	1.113423	-0.569726	0.343473
N31	N	1.094535	-0.771591	0.308053
N32	N	1.094567	-0.834042	0.308060
C33	C	1.165162	-0.866397	0.303297
N34	N	1.235726	-0.833941	0.298514
N35	N	1.235694	-0.771484	0.298504
C36	C	1.165099	-0.739608	0.303277
C37	C	1.216822	-0.970529	0.263094
C38	C	1.216861	-1.036273	0.263113
C39	C	1.113644	-1.036310	0.343556
C40	C	1.113612	-0.970568	0.343541
C41	C	1.165200	-0.937681	0.303306
C42	C	1.375397	-0.303330	0.303286
C43	C	1.465018	-0.303334	0.303293
C44	C	1.165093	-0.303325	0.467458
C45	C	1.165095	-0.303328	0.537426
C46	C	1.165216	-0.139130	0.303316
C47	C	1.165270	-0.069162	0.303337
C48	C	1.216626	-0.343579	1.036877
C49	C	1.216624	-0.343584	0.971134
C50	C	1.165092	-0.303324	0.938265
C51	C	1.113544	-0.263069	0.971144
C52	C	1.113541	-0.263070	1.036886
N53	N	1.158954	-0.248221	0.835060
N54	N	1.158961	-0.248221	0.772609
C55	C	1.165096	-0.303320	0.740191
N56	N	1.171239	-0.358419	0.772583
N57	N	1.171236	-0.358417	0.835040
C58	C	1.165089	-0.303319	0.866980
C59	C	1.216635	-0.343581	0.636034
C60	C	1.216628	-0.343587	0.570290
C61	C	1.113552	-0.263066	0.570302
C62	C	1.113555	-0.263066	0.636044
C63	C	1.165101	-0.303323	0.668906
C64	C	1.165080	-0.303329	1.139716
C65	C	1.165087	-0.303326	1.069748
H66	H	1.258697	-0.662178	0.230289
H67	H	1.258596	-0.376361	1.063629
H68	H	1.258605	-0.376355	0.944365
C69	C	1.056702	-0.671647	0.387731
C70	C	1.056729	-0.743960	0.387742
C71	C	0.999979	-0.780138	0.431993
C72	C	0.943201	-0.744004	0.476233
C73	C	0.943171	-0.671687	0.476222
C74	C	0.999921	-0.635509	0.431971
H75	H	1.098762	-0.770712	0.354992
H76	H	1.000002	-0.833672	0.432001
H77	H	0.901191	-0.770785	0.508990
H78	H	0.901139	-0.644935	0.508972
H79	H	0.999899	-0.581975	0.431964
C80	C	1.056859	-0.218782	0.934992
C81	C	0.965193	-0.223920	0.944015
C82	C	0.908503	-0.179633	0.907864
C83	C	0.943479	-0.130209	0.862690
C84	C	1.035150	-0.125068	0.853665
C85	C	1.091840	-0.169355	0.889816
H86	H	0.939297	-0.260509	0.977457
H87	H	0.840641	-0.183439	0.914545
H88	H	0.901513	-0.097425	0.835929
H89	H	1.061046	-0.088479	0.820223
H90	H	1.159701	-0.165550	0.883135
C91	C	1.056868	-0.218780	0.672205
C92	C	0.993541	-0.246055	0.717385
C93	C	0.936849	-0.201768	0.753545
C94	C	0.943484	-0.130206	0.744526
C95	C	1.006814	-0.102928	0.699345
C96	C	1.063506	-0.147215	0.663184
H97	H	0.988627	-0.299032	0.724063
H98	H	0.889968	-0.221961	0.786991
H99	H	0.901517	-0.097422	0.771295
H100	H	1.011728	-0.049951	0.692667
H101	H	1.110387	-0.127022	0.629738
H102	H	1.258633	-0.542912	0.230263
C103	C	1.273325	-0.387873	0.672181
C104	C	1.336658	-0.360607	0.717389
C105	C	1.393347	-0.404902	0.753531
C106	C	1.386703	-0.476462	0.744466
C107	C	1.323367	-0.503731	0.699257
C108	C	1.266678	-0.459436	0.663114
H109	H	1.341579	-0.307631	0.724101
H110	H	1.440233	-0.384715	0.786998
H111	H	1.428668	-0.509252	0.771220
H112	H	1.318447	-0.556707	0.692544
H113	H	1.219793	-0.479623	0.629648
H114	H	1.071572	-0.230290	1.063649
H115	H	1.071579	-0.943822	0.376286
C116	C	1.273324	-0.387868	0.534129
C117	C	1.330020	-0.432145	0.570280
C118	C	1.386716	-0.476427	0.534118
C119	C	1.386717	-0.476433	0.461805
C120	C	1.330019	-0.432154	0.425650
C121	C	1.273322	-0.387872	0.461812
H122	H	1.330021	-0.432143	0.623814
H123	H	1.428688	-0.509205	0.560883
H124	H	1.428687	-0.509213	0.435036
H125	H	1.330017	-0.432157	0.372117
H126	H	1.231350	-0.355094	0.435048
C127	C	1.273573	-0.934347	0.218845
C128	C	1.267078	-0.943423	0.147281
C129	C	1.323829	-0.907241	0.103033
C130	C	1.387077	-0.861984	0.130350
C131	C	1.393575	-0.852907	0.201919
C132	C	1.336824	-0.889088	0.246167
H133	H	1.220256	-0.976927	0.127055
H134	H	1.319018	-0.913962	0.050053
H135	H	1.429087	-0.835201	0.097596
H136	H	1.440397	-0.819403	0.222144
H137	H	1.341635	-0.882368	0.299147
H138	H	1.071592	-0.230288	0.543540
H139	H	1.071391	-0.542982	0.376223
H140	H	1.071641	-1.063091	0.376310
C141	C	1.273646	-1.072407	0.218876
C142	C	1.330389	-1.036230	0.174623
C143	C	1.387176	-1.072365	0.130387
C144	C	1.387221	-1.144678	0.130403
C145	C	1.330476	-1.180860	0.174657
C146	C	1.273689	-1.144724	0.218893
H147	H	1.330358	-0.982696	0.174610
H148	H	1.429183	-1.045581	0.097627
H149	H	1.429259	-1.171427	0.097656
H150	H	1.330507	-1.234393	0.174670
H151	H	1.231683	-1.171509	0.251653
