data_functionalizedCrystal
_audit_creation_method	'MofGen! by Chris Wilmer'
_symmetry_space_group_name_H-M	'P1'
_symmetry_Int_Tables_number	1
_symmetry_cell_setting	triclinic
loop_
_symmetry_equiv_pos_as_xyz
  x,y,z
_cell_length_a	18.215407
_cell_length_b	16.959454
_cell_length_c	16.959447
_cell_angle_alpha	89.973264
_cell_angle_beta	89.984408
_cell_angle_gamma	90.020523
loop_
_atom_site_label
_atom_site_type_symbol
_atom_site_fract_x
_atom_site_fract_y
_atom_site_fract_z
Zn1	Zn	1.125066	-0.314656	-0.446955
Zn2	Zn	1.124994	-0.446849	-0.314785
Zn3	Zn	1.002007	-0.314689	-0.314790
Zn4	Zn	1.001975	-0.446798	-0.446921
O5	O	1.063510	-0.380748	-0.380863
O6	O	1.228040	-0.332200	-0.429435
O7	O	1.108663	-0.429353	-0.204175
O8	O	1.018375	-0.204074	-0.332338
O9	O	1.227987	-0.429321	-0.332330
O10	O	1.108786	-0.204050	-0.429440
O11	O	1.018305	-0.332256	-0.204178
O12	O	0.899019	-0.332206	-0.332305
O13	O	1.018319	-0.429234	-0.557536
O14	O	0.898995	-0.429266	-0.429381
O15	O	1.108754	-0.332150	-0.557562
O16	O	1.108631	-0.557453	-0.332296
O17	O	1.018249	-0.557416	-0.429376
C18	C	0.872304	-0.380735	-0.380840
C19	C	0.790505	-0.380748	-0.380849
C20	C	0.602318	-0.431366	-0.431333
C21	C	0.525459	-0.431369	-0.431343
C22	C	0.525455	-0.330144	-0.330409
C23	C	0.602312	-0.330138	-0.330404
C24	C	0.640742	-0.380754	-0.380865
C25	C	0.487026	-0.380762	-0.380880
C26	C	0.403692	-0.380765	-0.380890
C27	C	0.724081	-0.380751	-0.380856
C28	C	1.063449	-0.586114	-0.380849
C29	C	1.063490	-0.673971	-0.380870
C30	C	1.016517	-1.045457	-0.431406
C31	C	1.110709	-1.045436	-0.330399
C32	C	1.110683	-0.962890	-0.330392
C33	C	1.063573	-0.921624	-0.380892
C34	C	1.016488	-0.962904	-0.431399
C35	C	1.157761	-0.921605	-0.279880
C36	C	1.157737	-0.839054	-0.279870
C37	C	1.110630	-0.797786	-0.330375
C38	C	1.063544	-0.839070	-0.380884
C39	C	1.016434	-0.797804	-0.431384
C40	C	0.969351	-0.839087	-0.481899
C41	C	0.969381	-0.921636	-0.481904
C42	C	1.110600	-0.715237	-0.330370
C43	C	1.016405	-0.715251	-0.431377
C44	C	1.255463	-0.380762	-0.380886
C45	C	1.337262	-0.380768	-0.380896
C46	C	1.063541	-0.380683	-0.587031
C47	C	1.063554	-0.380655	-0.674888
C48	C	1.063592	-0.174580	-0.380893
C49	C	1.063627	-0.086723	-0.380907
C50	C	1.016557	-0.431118	-1.046353
C51	C	1.110727	-0.330025	-1.046374
C52	C	1.110708	-0.330041	-0.963828
C53	C	1.063613	-0.380598	-0.922541
C54	C	1.016537	-0.431138	-0.963799
C55	C	1.157787	-0.279508	-0.922564
C56	C	1.157770	-0.279523	-0.840013
C57	C	1.110671	-0.330077	-0.798724
C58	C	1.063593	-0.380618	-0.839987
C59	C	1.016498	-0.431175	-0.798699
C60	C	0.969416	-0.481713	-0.839961
C61	C	0.969438	-0.481692	-0.922510
C62	C	1.110649	-0.330098	-0.716175
C63	C	1.016479	-0.431195	-0.716146
C64	C	1.063522	-0.380756	-0.175496
C65	C	1.063652	-0.380562	-0.087640
H66	H	0.494156	-0.288936	-0.289325
H67	H	0.978045	-0.681657	-0.472503
O68	O	0.643764	-0.275559	-0.275956
H69	H	0.604130	-0.240376	-0.240856
H70	H	1.196075	-0.805446	-0.238740
O71	O	1.161391	-0.670714	-0.275907
H72	H	1.153461	-0.606380	-0.284388
O73	O	0.965777	-0.485625	-1.090852
H74	H	0.908022	-0.472059	-1.075008
H75	H	0.930990	-0.805479	-0.523013
O76	O	0.918591	-0.966168	-0.536366
H77	H	0.951511	-1.003742	-0.576611
O78	O	0.965666	-0.485707	-0.671614
H79	H	0.932931	-0.520840	-0.714176
O80	O	1.161501	-0.275474	-1.090899
H81	H	1.153596	-0.283941	-1.155233
H82	H	0.931075	-0.522880	-0.806334
H83	H	0.978185	-1.079073	-0.472536
O84	O	1.208554	-0.224951	-0.967091
H85	H	1.200640	-0.233411	-1.031424
H86	H	0.633605	-0.472579	-0.472423
O87	O	1.161430	-0.275603	-0.671670
H88	H	1.128503	-0.235395	-0.634064
H89	H	0.931109	-0.522840	-0.956113
H90	H	0.494178	-0.472581	-0.472440
O91	O	1.161539	-1.089938	-0.275954
H92	H	1.153659	-1.154275	-0.284455
H93	H	1.196107	-0.238371	-0.806424
H94	H	1.196111	-0.955210	-0.238760
