data_functionalizedCrystal
_audit_creation_method	'MofGen! by Chris Wilmer'
_symmetry_space_group_name_H-M	'P1'
_symmetry_Int_Tables_number	1
_symmetry_cell_setting	triclinic
loop_
_symmetry_equiv_pos_as_xyz
  x,y,z
_cell_length_a	17.699104
_cell_length_b	17.699077
_cell_length_c	16.776229
_cell_angle_alpha	89.993415
_cell_angle_beta	90.011179
_cell_angle_gamma	96.713953
loop_
_atom_site_label
_atom_site_type_symbol
_atom_site_fract_x
_atom_site_fract_y
_atom_site_fract_z
O1	O	-0.095691	1.004089	-0.066286
O2	O	0.237643	1.337422	0.267048
O3	O	0.570976	1.670755	0.600381
O4	O	-0.108148	0.783710	-0.066291
O5	O	0.225186	1.117044	0.267043
O6	O	0.558519	1.450377	0.600376
O7	O	0.008269	0.900117	-0.066274
O8	O	0.341603	1.233451	0.267060
O9	O	0.674936	1.566784	0.600393
O10	O	-0.212107	0.887681	-0.066303
O11	O	0.121226	1.221015	0.267031
O12	O	0.454559	1.554348	0.600364
O13	O	0.008276	0.900102	0.066303
O14	O	0.341610	1.233435	0.399636
O15	O	0.674943	1.566769	0.732970
O16	O	-0.108140	0.783695	0.066286
O17	O	0.225193	1.117028	0.399619
O18	O	0.558526	1.450362	0.732953
O19	O	-0.095683	1.004073	0.066291
O20	O	0.237650	1.337406	0.399624
O21	O	0.570983	1.670740	0.732958
Zn22	Zn	-0.101911	0.893882	0.087338
Zn23	Zn	0.231423	1.227215	0.420671
Zn24	Zn	0.564756	1.560548	0.754004
Zn25	Zn	-0.101920	0.893902	-0.087337
Zn26	Zn	0.231413	1.227235	0.245996
Zn27	Zn	0.564746	1.560569	0.579329
O28	O	-0.212100	0.887666	0.066274
O29	O	0.121233	1.220999	0.399607
O30	O	0.454566	1.554333	0.732941
C31	C	-0.107698	0.755506	-0.000003
C32	C	0.225635	1.088839	0.333331
C33	C	0.558968	1.422172	0.666664
C34	C	-0.106362	0.671487	-0.000004
C35	C	0.226972	1.004821	0.333329
C36	C	0.560305	1.338154	0.666663
C37	C	-0.105728	0.632011	0.072264
C38	C	0.227605	0.965345	0.405598
C39	C	0.560939	1.298678	0.738931
C40	C	-0.104460	0.553069	0.072265
C41	C	0.228874	0.886402	0.405599
C42	C	0.562207	1.219735	0.738932
C43	C	-0.103831	0.513603	-0.000003
C44	C	0.229503	0.846936	0.333331
C45	C	0.562836	1.180269	0.666664
C46	C	-0.104462	0.553084	-0.072277
C47	C	0.228871	0.886418	0.261057
C48	C	0.562204	1.219751	0.594390
C49	C	-0.105725	0.632026	-0.072277
C50	C	0.227608	0.965360	0.261056
C51	C	0.560942	1.298693	0.594390
C52	C	-0.099369	0.234721	-0.072278
C53	C	0.233964	0.568054	0.261056
C54	C	0.567298	0.901387	0.594389
C55	C	-0.098109	0.155773	-0.072272
C56	C	0.235225	0.489106	0.261061
C57	C	0.568558	0.822440	0.594395
C58	C	-0.098104	0.155763	0.072265
C59	C	0.235230	0.489096	0.405598
C60	C	0.568563	0.822430	0.738931
C61	C	-0.099366	0.234705	0.072265
C62	C	0.233967	0.568038	0.405598
C63	C	0.567300	0.901372	0.738931
C64	C	-0.099994	0.274180	-0.000009
C65	C	0.233339	0.607514	0.333324
C66	C	0.566673	0.940847	0.666658
C67	C	-0.101368	0.359779	-0.000009
C68	C	0.231966	0.693112	0.333324
C69	C	0.565299	1.026446	0.666658
C70	C	-0.102463	0.428005	-0.000003
C71	C	0.230871	0.761338	0.333330
C72	C	0.564204	1.094671	0.666663
C73	C	0.036469	0.899661	0.000017
C74	C	0.369803	1.232995	0.333350
C75	C	0.703136	1.566328	0.666683
C76	C	0.120487	0.898317	0.000023
C77	C	0.453820	1.231650	0.333356
C78	C	0.787153	1.564983	0.666689
C79	C	0.645359	0.959061	0.000036
C80	C	0.978692	1.292394	0.333369
C81	C	1.312026	1.625727	0.666702
C82	C	0.566415	0.960320	0.000038
C83	C	0.899749	1.293653	0.333371
C84	C	1.233082	1.626986	0.666704
C85	C	0.517796	0.891984	0.000035
C86	C	0.851130	1.225318	0.333368
C87	C	1.184463	1.558651	0.666702
C88	C	0.548125	0.822385	0.000038
C89	C	0.881458	1.155719	0.333372
C90	C	1.214791	1.489052	0.666705
C91	C	0.627067	0.821127	0.000042
C92	C	0.960400	1.154460	0.333376
C93	C	1.293734	1.487794	0.666709
C94	C	0.229759	0.827458	0.000024
C95	C	0.563092	1.160792	0.333358
C96	C	0.896425	1.494125	0.666691
C97	C	0.150811	0.828722	0.000018
C98	C	0.484145	1.162055	0.333351
C99	C	0.817478	1.495389	0.666685
C100	C	0.169107	0.966651	0.000020
C101	C	0.502440	1.299984	0.333353
C102	C	0.835774	1.633318	0.666686
C103	C	0.248049	0.965393	0.000023
C104	C	0.581383	1.298726	0.333357
C105	C	0.914716	1.632059	0.666690
C106	C	0.278371	0.895794	0.000031
C107	C	0.611704	1.229128	0.333364
C108	C	0.945037	1.562461	0.666698
C109	C	0.363971	0.894430	0.000031
C110	C	0.697304	1.227763	0.333364
C111	C	1.030637	1.561097	0.666697
C112	C	0.432198	0.893348	0.000030
C113	C	0.765531	1.226681	0.333363
C114	C	1.098864	1.560015	0.666696
C115	C	0.759700	0.888122	-0.000001
C116	C	1.093033	1.221455	0.333332
C117	C	1.426366	1.554789	0.666665
C118	C	0.675682	0.889467	0.000037
C119	C	1.009016	1.222800	0.333370
C120	C	1.342349	1.556134	0.666704
C121	C	-0.096133	1.032278	0.000001
C122	C	0.237201	1.365611	0.333335
C123	C	0.570534	1.698945	0.666668
C124	C	-0.097469	1.116296	-0.000003
C125	C	0.235864	1.449630	0.333331
C126	C	0.569197	1.782963	0.666664
N127	N	-0.101904	0.893873	0.206549
N128	N	0.231429	1.227207	0.539882
N129	N	0.564763	1.560540	0.873216
N130	N	-0.101921	0.893916	-0.206549
N131	N	0.231412	1.227250	0.126785
N132	N	0.564746	1.560583	0.460118
C133	C	-0.050376	0.945434	0.248274
C134	C	0.282958	1.278767	0.581607
C135	C	0.616291	1.612101	0.914940
C136	C	-0.050375	0.945438	0.331726
C137	C	0.282958	1.278771	0.665059
C138	C	0.616292	1.612105	0.998393
C139	C	-0.101907	0.893885	0.373452
C140	C	0.231426	1.227218	0.706785
C141	C	0.564760	1.560551	1.040119
C142	C	-0.153438	0.842319	0.331721
C143	C	0.179896	1.175652	0.665055
C144	C	0.513229	1.508985	0.998388
C145	C	-0.153434	0.842311	0.248271
C146	C	0.179899	1.175645	0.581604
C147	C	0.513233	1.508978	0.914937
C148	C	-0.153452	0.842346	0.668269
C149	C	0.179881	1.175679	1.001602
C150	C	0.513214	1.509013	1.334935
C151	C	-0.153454	0.842359	0.751725
C152	C	0.179880	1.175692	1.085059
C153	C	0.513213	1.509025	1.418392
C154	C	-0.050393	0.945473	0.751724
C155	C	0.282940	1.278806	1.085057
C156	C	0.616273	1.612139	1.418390
C157	C	-0.050390	0.945466	0.668273
C158	C	0.282943	1.278799	1.001606
C159	C	0.616277	1.612132	1.334940
C160	C	-0.101918	0.893897	0.626550
C161	C	0.231416	1.227230	0.959883
C162	C	0.564749	1.560564	1.293217
C163	C	-0.101917	0.893892	0.536062
C164	C	0.231417	1.227225	0.869395
C165	C	0.564750	1.560559	1.202728
C166	C	-0.101912	0.893893	0.463939
C167	C	0.231421	1.227226	0.797272
C168	C	0.564755	1.560559	1.130605
H169	H	-0.106243	0.664166	-0.131125
H170	H	0.227091	0.997500	0.202208
H171	H	0.560424	1.330833	0.535541
H172	H	-0.195393	0.800324	0.214299
H173	H	0.137941	1.133658	0.547633
H174	H	0.471274	1.466991	0.880966
O175	O	-0.100061	0.277265	0.150214
O176	O	0.233272	0.610599	0.483547
O177	O	0.566605	0.943932	0.816881
H178	H	-0.048253	0.268959	0.184882
H179	H	0.285080	0.602292	0.518215
H180	H	0.618414	0.935625	0.851549
O181	O	0.300485	1.039100	0.000028
O182	O	0.633818	1.372433	0.333361
O183	O	0.967151	1.705767	0.666694
H184	H	0.360473	1.026533	0.000024
H185	H	0.693806	1.359866	0.333358
H186	H	1.027139	1.693199	0.666691
H187	H	0.508533	0.766746	0.000041
H188	H	0.841866	1.100079	0.333374
H189	H	1.175199	1.433412	0.666708
O190	O	-0.103774	0.510518	-0.150223
O191	O	0.229560	0.843851	0.183110
O192	O	0.562893	1.177185	0.516444
H193	H	-0.104416	0.551235	-0.200476
H194	H	0.228917	0.884568	0.132857
H195	H	0.562251	1.217901	0.466190
H196	H	-0.106246	0.664138	0.131114
H197	H	0.227087	0.997471	0.464447
H198	H	0.560420	1.330805	0.797780
H199	H	-0.099878	0.266852	-0.131127
H200	H	0.233456	0.600186	0.202206
H201	H	0.566789	0.933519	0.535540
H202	H	0.144410	1.023322	0.000003
H203	H	0.477744	1.356655	0.333336
H204	H	0.811077	1.689988	0.666669
O205	O	0.098369	0.755014	0.000020
O206	O	0.431702	1.088347	0.333354
O207	O	0.765036	1.421680	0.666687
H208	H	0.061968	0.752295	0.054051
H209	H	0.395301	1.085629	0.387384
H210	H	0.728634	1.418962	0.720717
O211	O	0.697795	1.032767	0.000047
O212	O	1.031128	1.366101	0.333380
O213	O	1.364462	1.699434	0.666714
H214	H	0.687019	1.066093	-0.053983
H215	H	1.020352	1.399426	0.279351
H216	H	1.353686	1.732759	0.612684
O217	O	-0.097775	0.113142	0.150221
O218	O	0.235558	0.446476	0.483554
O219	O	0.568891	0.779809	0.816888
H220	H	-0.096913	0.051602	0.138085
H221	H	0.236420	0.384936	0.471418
H222	H	0.569753	0.718269	0.804751
O223	O	0.533706	1.035381	0.000019
O224	O	0.867039	1.368714	0.333352
O225	O	1.200373	1.702047	0.666685
H226	H	0.580776	1.082687	0.000005
H227	H	0.914109	1.416020	0.333338
H228	H	1.247443	1.749353	0.666672
O229	O	-0.097404	0.113204	-0.150221
O230	O	0.235929	0.446538	0.183112
O231	O	0.569262	0.779871	0.516445
H232	H	-0.098038	0.153917	-0.200478
H233	H	0.235295	0.487251	0.132855
H234	H	0.568629	0.820584	0.466188
O235	O	-0.209021	0.786717	0.376726
O236	O	0.124312	1.120050	0.710060
O237	O	0.457646	1.453384	1.043393
H238	H	-0.268008	0.796252	0.360683
H239	H	0.065325	1.129586	0.694016
H240	H	0.398659	1.462919	1.027349
O241	O	0.262460	0.752396	0.000030
O242	O	0.595793	1.085729	0.333363
O243	O	0.929126	1.419062	0.666697
H244	H	0.215387	0.705092	0.000020
H245	H	0.548720	1.038425	0.333353
H246	H	0.882054	1.371759	0.666686
H247	H	0.651754	0.764457	0.000050
H248	H	0.985088	1.097790	0.333383
H249	H	1.318421	1.431123	0.666716
O250	O	0.005211	1.001028	0.203264
O251	O	0.338545	1.334361	0.536597
O252	O	0.671878	1.667695	0.869931
H253	H	-0.004344	1.060015	0.219261
H254	H	0.328989	1.393349	0.552595
H255	H	0.662323	1.726682	0.885928
O256	O	-0.103784	0.510487	0.150211
O257	O	0.229549	0.843820	0.483545
O258	O	0.562882	1.177154	0.816878
H259	H	-0.104446	0.551191	0.200463
H260	H	0.228887	0.884524	0.533797
H261	H	0.562221	1.217858	0.867130
H262	H	-0.195409	0.800358	0.634304
H263	H	0.137924	1.133692	0.967638
H264	H	0.471257	1.467025	1.300971
H265	H	-0.008416	0.987422	0.365698
H266	H	0.324917	1.320756	0.699031
H267	H	0.658250	1.654089	1.032364
O268	O	0.005194	1.001065	0.623266
O269	O	0.338527	1.334398	0.956599
O270	O	0.671861	1.667731	1.289933
H271	H	0.041032	1.036914	0.666301
H272	H	0.374366	1.370247	0.999634
H273	H	0.707699	1.703581	1.332967
H274	H	-0.008434	0.987460	0.785704
H275	H	0.324899	1.320794	1.119037
H276	H	0.658232	1.654127	1.452370
H277	H	-0.195418	0.800375	0.785697
H278	H	0.137915	1.133708	1.119031
H279	H	0.471248	1.467041	1.452364
