data_functionalizedCrystal
_audit_creation_method	'MofGen! by Chris Wilmer'
_symmetry_space_group_name_H-M	'P1'
_symmetry_Int_Tables_number	1
_symmetry_cell_setting	triclinic
loop_
_symmetry_equiv_pos_as_xyz
  x,y,z
_cell_length_a	9.065218
_cell_length_b	13.596369
_cell_length_c	14.519709
_cell_angle_alpha	90.006934
_cell_angle_beta	95.651952
_cell_angle_gamma	89.992526
loop_
_atom_site_label
_atom_site_type_symbol
_atom_site_fract_x
_atom_site_fract_y
_atom_site_fract_z
O1	O	-1.957869	0.081844	0.135229
O2	O	-1.457869	0.581844	0.635229
O3	O	-1.528376	0.081835	0.146321
O4	O	-1.028376	0.581835	0.646321
O5	O	-1.754510	0.081831	0.006620
O6	O	-1.254510	0.581831	0.506620
O7	O	-1.731735	0.081848	0.274930
O8	O	-1.231735	0.581848	0.774930
O9	O	-1.754487	-0.081752	0.006612
O10	O	-1.254487	0.418248	0.506612
O11	O	-1.528353	-0.081748	0.146313
O12	O	-1.028353	0.418252	0.646313
O13	O	-1.957846	-0.081739	0.135221
O14	O	-1.457846	0.418261	0.635221
Zn15	Zn	-1.743096	-0.107715	0.140766
Zn16	Zn	-1.243096	0.392285	0.640766
Zn17	Zn	-1.743126	0.107812	0.140776
Zn18	Zn	-1.243126	0.607812	0.640776
O19	O	-1.731712	-0.081734	0.274922
O20	O	-1.231712	0.418266	0.774922
C21	C	-1.473398	0.000043	0.145251
C22	C	-0.973398	0.500043	0.645251
C23	C	-1.309615	0.000039	0.142063
C24	C	-0.809615	0.500039	0.642063
N25	N	-1.743087	-0.254807	0.140758
N26	N	-1.243087	0.245193	0.640758
C27	C	-1.743124	-0.656098	0.140777
C28	C	-1.243124	-0.156098	0.640777
C29	C	-1.743109	-0.544447	0.140775
C30	C	-1.243109	-0.044447	0.640775
C31	C	-1.743106	-0.455456	0.140768
C32	C	-1.243106	0.044544	0.640768
C33	C	-1.743090	-0.343798	0.140765
C34	C	-1.243090	0.156202	0.640765
C35	C	-1.012824	0.000050	0.136291
C36	C	-0.512824	0.500050	0.636291
C37	C	-1.176607	0.000042	0.139478
C38	C	-0.676607	0.500042	0.639478
C39	C	-1.753437	0.000040	-0.027752
C40	C	-1.253437	0.500040	0.472248
C41	C	-1.750256	0.000039	-0.130156
C42	C	-1.250256	0.500039	0.369844
N43	N	-1.743147	0.254904	0.140776
N44	N	-1.243147	0.754904	0.640776
C45	C	-1.738547	0.000064	-0.505138
C46	C	-1.238547	0.500064	-0.005138
C47	C	-1.741799	0.000057	-0.400806
C48	C	-1.241799	0.500057	0.099194
C49	C	-1.744401	0.000051	-0.317650
C50	C	-1.244401	0.500051	0.182350
C51	C	-1.747654	0.000045	-0.213312
C52	C	-1.247654	0.500045	0.286688
C53	C	-1.732785	0.000059	0.309294
C54	C	-1.232785	0.500059	0.809294
C55	C	-1.735966	0.000066	0.411698
C56	C	-1.235966	0.500066	0.911698
