data_functionalizedCrystal
_audit_creation_method	'MofGen! by Chris Wilmer'
_symmetry_space_group_name_H-M	'P1'
_symmetry_Int_Tables_number	1
_symmetry_cell_setting	triclinic
loop_
_symmetry_equiv_pos_as_xyz
  x,y,z
_cell_length_a	18.426585
_cell_length_b	21.606444
_cell_length_c	21.606444
_cell_angle_alpha	60.001331
_cell_angle_beta	90.001433
_cell_angle_gamma	60.000201
loop_
_atom_site_label
_atom_site_type_symbol
_atom_site_fract_x
_atom_site_fract_y
_atom_site_fract_z
Zr1	Zr	0.699097	0.677476	-0.081216
O2	O	0.583214	0.806595	-0.180036
O3	O	0.734623	0.548358	-0.050925
O4	O	0.734614	0.677482	-0.180044
O5	O	0.583229	0.677466	0.050936
O6	O	0.854040	0.677486	-0.180046
O7	O	0.583223	0.677471	-0.050918
O8	O	0.854056	0.446507	0.050923
O9	O	0.583212	0.908446	-0.180033
O10	O	0.838899	0.601469	-0.038005
O11	O	0.749778	0.601463	0.038010
O12	O	0.749767	0.753490	-0.114011
O13	O	0.660645	0.753483	-0.037996
Zr14	Zr	0.889578	0.677476	0.081225
Zr15	Zr	0.889568	0.677483	-0.081220
Zr16	Zr	0.699107	0.677469	0.081230
Zr17	Zr	0.699095	0.839917	-0.081211
Zr18	Zr	0.889580	0.515036	0.081220
O19	O	0.854052	0.806595	0.050935
O20	O	0.854038	0.806604	-0.180042
O21	O	0.583227	0.806585	0.050941
O22	O	1.005461	0.548358	0.180046
O23	O	1.005448	0.548368	-0.050931
O24	O	0.734637	0.548348	0.180051
O25	O	1.005446	0.677486	-0.050927
O26	O	0.854061	0.677471	0.180053
O27	O	0.734635	0.677466	0.180056
O28	O	1.005452	0.677482	0.050927
O29	O	0.734611	0.908451	-0.180036
O30	O	0.854064	0.446502	0.180046
O31	O	1.005463	0.446507	0.180042
O32	O	1.005455	0.446513	0.050920
O33	O	0.583220	0.908440	-0.050910
O34	O	0.734619	0.908445	-0.050914
O35	O	0.838908	0.601463	0.114020
O36	O	0.928030	0.601469	0.038006
O37	O	0.838897	0.753490	-0.038000
O38	O	0.749776	0.753483	0.038014
C39	C	0.794340	0.474288	-0.000002
C40	C	0.794341	0.405328	-0.000004
C41	C	0.840860	0.372934	-0.039684
C42	C	0.840863	0.308134	-0.039679
C43	C	0.794342	0.275734	0.000002
C44	C	0.747822	0.308131	0.039687
C45	C	0.747824	0.372925	0.039686
C46	C	0.747811	0.046821	0.039693
C47	C	0.747810	-0.017976	0.039690
C48	C	0.840850	-0.017970	-0.039671
C49	C	0.840852	0.046825	-0.039673
C50	C	0.794336	0.079213	0.000015
C51	C	0.794335	0.149475	0.000010
C52	C	0.794337	0.205477	0.000003
C53	C	0.556088	0.677468	0.000010
C54	C	0.475228	0.677465	0.000012
C55	C	0.179114	0.677491	-0.000002
C56	C	0.261500	0.677487	0.000000
C57	C	0.327168	0.677478	0.000004
C58	C	0.409560	0.677474	0.000007
C59	C	1.032587	0.677485	-0.000000
C60	C	1.113447	0.677488	-0.000002
C61	C	0.794325	0.677485	-0.203190
C62	C	0.794321	0.677488	-0.272152
C63	C	0.794335	0.880664	0.000011
C64	C	0.794334	0.949624	0.000014
C65	C	0.747795	0.756840	-0.344225
C66	C	0.747802	0.756838	-0.409020
C67	C	0.794332	0.677482	-0.401740
C68	C	0.840865	0.598124	-0.329660
C69	C	0.840862	0.598127	-0.264867
C70	C	0.840879	0.598108	-0.590963
C71	C	0.840876	0.598111	-0.655764
C72	C	0.747819	0.756819	-0.735116
C73	C	0.747816	0.756823	-0.670323
C74	C	0.794352	0.677465	-0.598248
C75	C	0.794345	0.677468	-0.527991
C76	C	0.794335	0.677478	-0.471996
C77	C	0.794350	0.677468	0.203199
C78	C	0.794354	0.677465	0.272162
C79	C	1.032590	0.474297	-0.000007
C80	C	1.113450	0.405340	-0.000011
C81	C	0.794352	0.474279	0.203193
C82	C	0.794357	0.405316	0.272153
C83	C	1.032602	0.474288	0.203188
C84	C	1.113466	0.405328	0.272146
C85	C	0.556073	0.880664	-0.203178
C86	C	0.475209	0.949625	-0.272136
C87	C	0.556086	0.880656	0.000017
C88	C	0.475225	0.949613	0.000021
C89	C	0.794323	0.880673	-0.203183
C90	C	0.794318	0.949636	-0.272143
C91	C	1.104898	0.372957	-0.039696
C92	C	1.180868	0.308173	-0.039715
C93	C	1.265389	0.275769	-0.000044
C94	C	1.273940	0.308158	0.039643
C95	C	1.197971	0.372945	0.039657
C96	C	0.840885	0.372931	0.344221
C97	C	0.840886	0.308141	0.409023
C98	C	0.794364	0.275735	0.401754
C99	C	0.747831	0.308127	0.329679
C100	C	0.747825	0.372919	0.264879
C101	C	1.197970	0.372947	0.264851
C102	C	1.273958	0.308160	0.329638
C103	C	1.265441	0.275752	0.401720
C104	C	1.180929	0.308139	0.409014
C105	C	1.104942	0.372929	0.344227
C106	C	0.390705	0.982014	-0.264841
C107	C	0.314717	1.046820	-0.329629
C108	C	0.323234	1.079232	-0.401711
C109	C	0.407747	1.046840	-0.409005
C110	C	0.483733	0.982040	-0.344218
C111	C	0.483777	0.982003	0.039699
C112	C	0.407807	1.046804	0.039700
C113	C	0.323286	1.079210	0.000027
C114	C	0.314736	1.046818	-0.039657
C115	C	0.390705	0.982022	-0.039662
C116	C	0.840849	0.982022	-0.264851
C117	C	0.840861	1.046812	-0.329640
C118	C	0.794338	1.079218	-0.401721
C119	C	0.747806	1.046826	-0.409012
C120	C	0.747799	0.982033	-0.344223
H121	H	0.709948	0.281741	0.072000
C122	C	0.239643	1.150509	-0.472973
C123	C	0.146693	1.186086	-0.464940
C124	C	0.063099	1.257359	-0.536199
C125	C	0.072455	1.293056	-0.615491
C126	C	0.165409	1.257479	-0.623528
C127	C	0.249003	1.186205	-0.552269
H128	H	0.139764	1.159661	-0.406240
H129	H	-0.005711	1.283696	-0.530249
H130	H	0.010574	1.345817	-0.668241
H131	H	0.172338	1.283904	-0.682228
H132	H	0.317814	1.159869	-0.558218
H133	H	0.878769	0.399309	0.350153
H134	H	0.878730	0.073206	-0.071988
C135	C	0.892082	0.272514	0.488299
C136	C	0.943266	0.308153	0.496286
C137	C	0.994462	0.272527	0.575560
C138	C	0.994475	0.201262	0.646846
C139	C	0.943290	0.165618	0.638861
C140	C	0.892093	0.201244	0.559588
H141	H	0.943258	0.360912	0.443514
H142	H	1.032353	0.298913	0.581471
H143	H	1.032374	0.174889	0.705529
H144	H	0.943298	0.112859	0.691634
H145	H	0.854203	0.174858	0.553677
C146	C	0.417228	1.082418	0.083363
C147	C	0.466081	1.126938	0.062659
C148	C	0.475504	1.162547	0.106323
C149	C	0.436074	1.153637	0.170691
C150	C	0.387218	1.109115	0.191399
C151	C	0.377794	1.073506	0.147735
H152	H	0.495273	1.133535	0.015007
H153	H	0.511672	1.195505	0.090994
H154	H	0.443050	1.179997	0.203014
H155	H	0.358026	1.102518	0.239051
H156	H	0.341627	1.040548	0.163064
C157	C	0.417104	1.082496	-0.488299
C158	C	0.377642	1.073594	-0.543749
C159	C	0.386995	1.109248	-0.623046
C160	C	0.435812	1.153804	-0.646893
C161	C	0.475278	1.162709	-0.591442
C162	C	0.465924	1.127054	-0.512145
H163	H	0.341502	1.040609	-0.526097
H164	H	0.357780	1.102656	-0.664094
H165	H	0.442736	1.180197	-0.705593
H166	H	0.511417	1.195694	-0.609094
H167	H	0.495140	1.133646	-0.471097
C168	C	0.892044	0.510833	-0.321654
C169	C	0.993107	0.445365	-0.280016
C170	C	1.044283	0.358073	-0.272009
C171	C	0.994397	0.336249	-0.305641
C172	C	0.893329	0.401719	-0.347282
C173	C	0.842153	0.489011	-0.355289
H174	H	1.030040	0.461518	-0.255117
H175	H	1.119100	0.309608	-0.241184
H176	H	1.032281	0.271631	-0.299715
H177	H	0.856396	0.385566	-0.372181
H178	H	0.767336	0.537476	-0.386114
C179	C	0.696629	1.082484	-0.488306
C180	C	0.720911	1.020145	-0.512156
C181	C	0.669731	1.055810	-0.591452
C182	C	0.594270	1.153813	-0.646897
C183	C	0.569984	1.216158	-0.623048
C184	C	0.621164	1.180493	-0.543752
H185	H	0.776776	0.947592	-0.471112
H186	H	0.687710	1.009658	-0.609107
H187	H	0.556383	1.180215	-0.705597
H188	H	0.514119	1.288711	-0.664092
H189	H	0.603185	1.226646	-0.526097
C190	C	0.696649	0.408533	0.185605
C191	C	0.645484	0.372876	0.177619
C192	C	0.594303	0.408487	0.098347
C193	C	0.594287	0.479754	0.027059
C194	C	0.645454	0.515414	0.035042
C195	C	0.696635	0.479804	0.114315
H196	H	0.645494	0.320117	0.230393
H197	H	0.556427	0.382088	0.092438
H198	H	0.556400	0.506115	-0.031623
H199	H	0.645444	0.568174	-0.017731
H200	H	0.734511	0.506203	0.120224
H201	H	1.342767	0.281766	0.071942
H202	H	0.709917	0.821455	-0.467703
H203	H	0.709954	0.281732	0.323772
C204	C	1.207354	0.408591	0.185566
C205	C	1.300316	0.372967	0.177557
C206	C	1.309710	0.408610	0.098275
C207	C	1.226141	0.479877	0.027001
C208	C	1.133172	0.515505	0.035007
C209	C	1.123779	0.479862	0.114289
H210	H	1.362185	0.320207	0.230321
H211	H	1.378532	0.382236	0.092348
H212	H	1.233094	0.506262	-0.031689
H213	H	1.071303	0.568265	-0.017757
H214	H	1.054957	0.506236	0.120216
C215	C	0.381321	0.946374	-0.185556
C216	C	0.288359	0.982021	-0.177548
C217	C	0.278965	0.946392	-0.098265
C218	C	0.362534	0.875115	-0.026991
C219	C	0.455503	0.839464	-0.034997
C220	C	0.464896	0.875093	-0.114280
H221	H	0.226490	1.034788	-0.230311
H222	H	0.210143	0.972783	-0.092339
H223	H	0.355581	0.848740	0.031699
H224	H	0.517372	0.786697	0.017766
H225	H	0.533718	0.848702	-0.120206
H226	H	1.327241	0.223015	-0.000061
H227	H	0.245911	1.073182	-0.323675
C228	C	0.892033	0.408573	-0.083336
C229	C	0.943205	0.372934	-0.126981
C230	C	0.994382	0.408570	-0.170633
C231	C	0.994385	0.479844	-0.170641
C232	C	0.943211	0.515487	-0.126995
C233	C	0.892034	0.479851	-0.083343
H234	H	0.943204	0.320169	-0.126976
H235	H	1.032264	0.382184	-0.202943
H236	H	1.032269	0.506223	-0.202955
H237	H	0.943212	0.568252	-0.126999
H238	H	0.854152	0.506237	-0.051033
H239	H	0.878772	0.533490	-0.532285
C240	C	0.892029	-0.053606	-0.083322
C241	C	0.892038	-0.124882	-0.083321
C242	C	0.943213	-0.160514	-0.126972
C243	C	0.994380	-0.124870	-0.170624
C244	C	0.994373	-0.053590	-0.170626
C245	C	0.943198	-0.017958	-0.126975
H246	H	0.854159	-0.151271	-0.051006
H247	H	0.943218	-0.213280	-0.126970
H248	H	1.032263	-0.151247	-0.202937
H249	H	1.032251	-0.027201	-0.202941
H250	H	0.943193	0.034808	-0.126977
H251	H	0.709904	0.955672	-0.350172
H252	H	1.342765	0.281797	0.323686
C253	C	0.576686	0.946411	-0.352250
C254	C	0.586044	0.982067	-0.431542
C255	C	0.678995	0.946443	-0.439581
C256	C	0.762589	0.875164	-0.368328
C257	C	0.753234	0.839504	-0.289030
C258	C	0.660283	0.875127	-0.280992
H259	H	0.524160	1.034835	-0.484292
H260	H	0.685920	0.972842	-0.498282
H261	H	0.831397	0.848794	-0.374279
H262	H	0.815118	0.786735	-0.236280
H263	H	0.653358	0.848729	-0.222290
C264	C	1.171447	0.272547	-0.083366
C265	C	1.210850	0.281471	-0.147751
C266	C	1.201426	0.245847	-0.191400
C267	C	1.152601	0.201298	-0.170665
C268	C	1.113195	0.192372	-0.106277
C269	C	1.122619	0.227997	-0.062627
H270	H	1.246996	0.314450	-0.163104
H271	H	1.230597	0.252454	-0.239065
H272	H	1.145625	0.174927	-0.202977
H273	H	1.077049	0.159393	-0.090924
H274	H	1.093448	0.221389	-0.014963
C275	C	0.576745	0.946370	0.083339
C276	C	0.586133	0.982018	0.126974
C277	C	0.679098	0.946395	0.170612
C278	C	0.762674	0.875124	0.170616
C279	C	0.753288	0.839472	0.126980
C280	C	0.660323	0.875095	0.083342
H281	H	0.524263	1.034781	0.126972
H282	H	0.686045	0.972788	0.202914
H283	H	0.831492	0.848754	0.202919
H284	H	0.815158	0.786709	0.126981
H285	H	0.653376	0.848702	0.051040
H286	H	0.878742	0.281758	-0.071989
H287	H	0.709925	-0.044355	0.072005
H288	H	0.261435	1.131971	0.000037
H289	H	0.709939	0.073181	0.072013
H290	H	0.709941	0.399302	0.071995
H291	H	1.204947	0.399303	0.071978
H292	H	0.709923	0.821442	-0.676257
H293	H	0.709899	0.821461	-0.350162
H294	H	0.709930	0.821437	-0.793809
H295	H	0.878769	0.533486	-0.649828
H296	H	0.878748	0.533510	-0.206182
H297	H	1.327321	0.222996	0.454468
H298	H	0.878734	0.955646	-0.206165
H299	H	1.174007	0.281743	0.467712
H300	H	1.036083	0.399339	-0.072011
H301	H	0.245908	1.073213	-0.071958
H302	H	0.794376	0.222977	0.454525
H303	H	1.036139	0.399285	0.350178
H304	H	0.383729	0.955652	-0.071971
H305	H	0.794350	1.131977	-0.454470
H306	H	0.878752	1.073179	-0.323689
