data_functionalizedCrystal
_audit_creation_method	'MofGen! by Chris Wilmer'
_symmetry_space_group_name_H-M	'P1'
_symmetry_Int_Tables_number	1
_symmetry_cell_setting	triclinic
loop_
_symmetry_equiv_pos_as_xyz
  x,y,z
_cell_length_a	23.532361
_cell_length_b	23.532409
_cell_length_c	11.804365
_cell_angle_alpha	101.758118
_cell_angle_beta	78.233867
_cell_angle_gamma	82.839614
loop_
_atom_site_label
_atom_site_type_symbol
_atom_site_fract_x
_atom_site_fract_y
_atom_site_fract_z
O1	O	0.766833	0.057457	-0.098899
O2	O	0.600969	0.067485	-0.098927
O3	O	0.688903	-0.020462	-0.098914
O4	O	0.678900	0.145403	-0.098912
O5	O	0.665753	0.002668	0.099139
O6	O	0.577820	0.090615	0.099126
O7	O	0.743684	0.080587	0.099153
Cu8	Cu	0.658638	0.087713	0.117223
Cu9	Cu	0.686015	0.060359	-0.116997
O10	O	0.655751	0.168533	0.099140
C11	C	0.568179	0.078798	0.000096
C12	C	0.504961	0.078042	0.000085
C13	C	0.677073	-0.030113	0.000110
C14	C	0.676308	-0.093331	0.000101
C15	C	0.244336	0.062131	-0.107866
C16	C	0.303736	0.062846	-0.107869
O17	O	0.345193	0.052473	-0.199682
N18	N	0.320823	0.075815	0.000090
C19	C	0.278506	0.088064	0.108059
O20	O	0.298495	0.099161	0.199886
C21	C	0.219108	0.087345	0.108060
C22	C	0.202024	0.074381	0.000094
C23	C	0.227251	0.049167	-0.215823
C24	C	0.167855	0.048454	-0.215820
C25	C	0.125543	0.060704	-0.107859
C26	C	0.142628	0.073668	0.000098
C27	C	0.176794	0.099591	0.216028
C28	C	0.117392	0.098870	0.216020
C29	C	0.100308	0.085906	0.108054
C30	C	0.040920	0.085205	0.108062
N31	N	0.023833	0.072236	0.000103
C32	C	0.066145	0.059985	-0.107858
C33	C	0.403248	0.089572	0.108047
C34	C	0.462644	0.090295	0.108046
C35	C	0.487870	0.065075	-0.107882
C36	C	0.428472	0.064356	-0.107880
C37	C	0.386161	0.076603	0.000088
C38	C	-0.058593	0.058488	-0.107843
C39	C	-0.117995	0.057778	-0.107830
C40	C	-0.143215	0.082995	0.108098
C41	C	-0.083818	0.083708	0.108086
C42	C	-0.041507	0.071452	0.000106
O43	O	-0.000569	0.095569	0.199827
O44	O	0.046149	0.048883	-0.199670
C45	C	0.685668	-0.379184	-0.107863
C46	C	0.686380	-0.319784	-0.107864
O47	O	0.697499	-0.299782	-0.199675
N48	N	0.674113	-0.277474	0.000097
C49	C	0.661140	-0.294567	0.108064
O50	O	0.650772	-0.253124	0.199893
C51	C	0.660433	-0.353966	0.108063
C52	C	0.672694	-0.396273	0.000096
C53	C	0.697930	-0.421490	-0.215822
C54	C	0.697217	-0.480886	-0.215821
C55	C	0.684243	-0.497976	-0.107862
C56	C	0.671981	-0.455669	0.000096
C57	C	0.647463	-0.371059	0.216029
C58	C	0.646757	-0.430464	0.216019
C59	C	0.659019	-0.472771	0.108052
C60	C	0.658295	-0.532154	0.108056
N61	N	0.670561	-0.574465	0.000096
C62	C	0.683535	-0.557375	-0.107863
C63	C	0.662628	-0.169824	0.108058
C64	C	0.663331	-0.110425	0.108061
C65	C	0.688572	-0.135647	-0.107868
C66	C	0.687864	-0.195046	-0.107869
C67	C	0.674894	-0.212135	0.000098
C68	C	0.682037	-0.682110	-0.107854
C69	C	0.681321	-0.741509	-0.107844
C70	C	0.656083	-0.716283	0.108084
C71	C	0.656796	-0.656888	0.108074
C72	C	0.669776	-0.639804	0.000096
O73	O	0.647183	-0.552200	0.199820
O74	O	0.693909	-0.598824	-0.199677
C75	C	0.776475	0.069273	0.000128
C76	C	0.839693	0.070029	0.000131
C77	C	0.667580	0.178184	0.000114
C78	C	0.668347	0.241401	0.000115
N79	N	0.639387	0.106951	0.281961
N80	N	0.705271	0.041116	-0.281735
C81	C	0.751500	-0.005094	0.655926
C82	C	0.766063	-0.019651	0.531267
C83	C	0.734395	0.011998	0.468934
C84	C	0.688162	0.058207	0.531273
C85	C	0.673601	0.072768	0.655945
C86	C	0.656496	0.089860	0.468953
C87	C	0.610263	0.136069	0.531292
C88	C	0.595704	0.150627	0.655952
C89	C	0.627372	0.118978	0.718284
C90	C	0.671057	0.075299	0.344281
C91	C	0.593158	0.153161	0.344300
C92	C	0.578595	0.167718	0.468960
H93	H	-0.131901	0.047223	-0.195752
N94	N	0.272878	0.035950	-0.332283
H95	H	0.263226	0.065623	-0.379472
H96	H	0.313086	0.038359	-0.315831
N97	N	-0.012962	0.045267	-0.224303
H98	H	-0.032807	0.036948	-0.292684
H99	H	0.007414	0.080324	-0.229015
H100	H	0.803705	-0.057272	0.480515
N101	N	0.711926	-0.403065	-0.332273
H102	H	0.719585	-0.438887	-0.400653
H103	H	0.677459	-0.374158	-0.336989
N104	N	0.701109	-0.240675	-0.224322
H105	H	0.671447	-0.231039	-0.271544
H106	H	0.742072	-0.240627	-0.271392
H107	H	-0.069910	0.094276	0.196000
N108	N	0.648633	-0.188252	0.224515
H109	H	0.640970	-0.152432	0.292899
H110	H	0.612479	-0.207532	0.229217
N111	N	0.694554	-0.787140	-0.224301
H112	H	0.692135	-0.827364	-0.207927
H113	H	0.664881	-0.777446	-0.271455
N114	N	0.481070	0.104281	0.224491
H115	H	0.500332	0.140449	0.229307
H116	H	0.445224	0.111903	0.292813
H117	H	0.777283	-0.030856	0.706686
N118	N	0.149434	0.034463	-0.332269
H119	H	0.185258	0.026808	-0.400653
H120	H	0.130162	-0.001696	-0.336967
N121	N	0.410047	0.050372	-0.224327
H122	H	0.445869	0.042722	-0.292714
H123	H	0.390776	0.014213	-0.229034
N124	N	0.710456	-0.526514	-0.332275
H125	H	0.708041	-0.566740	-0.315911
H126	H	0.680784	-0.516821	-0.379432
H127	H	0.637485	-0.336622	0.303948
H128	H	0.615513	0.130828	0.819792
H129	H	0.692607	-0.668208	-0.195780
N130	N	0.545839	0.200464	0.723188
H131	H	0.541421	0.204886	0.811620
H132	H	0.554730	0.238289	0.701395
H133	H	0.522331	0.055100	-0.195789
N134	N	0.357614	0.102786	0.224506
H135	H	0.377510	0.110718	0.292886
H136	H	0.327823	0.138589	0.229570
N137	N	0.642100	-0.734724	0.224520
H138	H	0.605937	-0.753996	0.229335
H139	H	0.676591	-0.763600	0.229237
N140	N	0.528730	0.217554	0.536201
H141	H	0.524313	0.221973	0.624632
H142	H	0.537620	0.255380	0.514414
H143	H	0.567372	0.178934	0.293550
H144	H	0.190692	0.110146	0.303945
H145	H	0.082944	0.108848	0.303943
H146	H	-0.177676	0.092972	0.195997
H147	H	0.699134	-0.121722	-0.195774
H148	H	0.646789	-0.622436	0.195990
H149	H	0.653335	-0.075981	0.195979
H150	H	0.708700	0.037677	0.293536
N151	N	0.632771	-0.448894	0.332471
H152	H	0.625112	-0.413077	0.400860
H153	H	0.596616	-0.468173	0.337177
N154	N	0.750099	-0.003700	0.334481
H155	H	0.784191	-0.037775	0.304447
H156	H	0.714928	-0.015262	0.304559
