data_functionalizedCrystal
_audit_creation_method	'MofGen! by Chris Wilmer'
_symmetry_space_group_name_H-M	'P1'
_symmetry_Int_Tables_number	1
_symmetry_cell_setting	triclinic
loop_
_symmetry_equiv_pos_as_xyz
  x,y,z
_cell_length_a	14.908571
_cell_length_b	18.101395
_cell_length_c	14.908308
_cell_angle_alpha	86.733684
_cell_angle_beta	89.824947
_cell_angle_gamma	86.727274
loop_
_atom_site_label
_atom_site_type_symbol
_atom_site_fract_x
_atom_site_fract_y
_atom_site_fract_z
Zn1	Zn	1.345208	-0.386468	0.587575
Zn2	Zn	1.353762	-0.503604	0.437213
Zn3	Zn	1.203527	-0.372244	0.428573
Zn4	Zn	1.194790	-0.502724	0.578865
O5	O	1.274322	-0.441260	0.508057
O6	O	1.472167	-0.408328	0.574890
O7	O	1.341069	-0.480594	0.310243
O8	O	1.222397	-0.270503	0.449694
O9	O	1.478452	-0.494387	0.464420
O10	O	1.326490	-0.280953	0.566512
O11	O	1.230692	-0.384085	0.303895
O12	O	1.076543	-0.383231	0.441249
O13	O	1.207507	-0.492887	0.705845
O14	O	1.070124	-0.479094	0.551667
O15	O	1.318019	-0.407474	0.712244
O16	O	1.332598	-0.607115	0.455974
O17	O	1.215801	-0.606469	0.560045
C18	C	1.040709	-0.429524	0.494576
C19	C	0.940767	-0.424523	0.488830
C20	C	0.746339	-0.515086	0.592857
C21	C	0.652434	-0.510389	0.587462
C22	C	0.659052	-0.410428	0.472648
C23	C	0.752956	-0.415125	0.478044
C24	C	0.796596	-0.467457	0.538149
C25	C	0.890503	-0.472157	0.543540
C26	C	0.897118	-0.372193	0.428731
C27	C	0.803213	-0.367496	0.423336
C28	C	1.274203	-0.633663	0.508023
C29	C	1.274233	-0.715980	0.508044
C30	C	1.274427	-1.015083	0.508104
C31	C	1.201093	-0.983397	0.573764
C32	C	1.200777	-0.897753	0.573527
C33	C	1.274331	-0.866694	0.508075
C34	C	1.254147	-0.892332	0.411835
C35	C	1.253677	-0.977973	0.412227
C36	C	1.368144	-0.989281	0.537857
C37	C	1.367465	-0.903695	0.539903
C38	C	1.274278	-0.782831	0.508053
C39	C	1.274478	-1.098945	0.508119
C40	C	1.508847	-0.453042	0.521591
C41	C	1.608787	-0.458063	0.527358
C42	C	1.260834	-0.451669	0.742582
C43	C	1.255087	-0.456105	0.842522
C44	C	1.274464	-0.248107	0.508111
C45	C	1.274525	-0.165797	0.508134
C46	C	1.287808	-0.430840	0.274447
C47	C	1.293730	-0.426205	0.174517
C48	C	1.359359	-0.375483	1.036986
C49	C	1.353962	-0.379648	1.130890
C50	C	1.238890	-0.468597	1.124234
C51	C	1.244288	-0.464432	1.030330
C52	C	1.304525	-0.417874	0.986710
C53	C	1.309927	-0.413713	0.892805
C54	C	1.194851	-0.502657	0.886151
C55	C	1.189453	-0.506822	0.980054
H56	H	1.212915	-1.007887	0.645171
C57	C	1.172628	-0.519797	1.172226
H58	H	1.177270	-0.516204	1.235351
H59	H	1.113108	-0.505242	1.153351
H60	H	1.186637	-0.569537	1.157594
C61	C	1.425614	-0.324272	0.989001
H62	H	1.457496	-0.299619	1.032394
H63	H	1.466876	-0.352939	0.954618
H64	H	1.393337	-0.288651	0.950398
H65	H	1.140408	-0.544727	1.015582
C66	C	1.107663	-1.006851	0.546875
H67	H	1.063753	-0.987483	0.586888
H68	H	1.094186	-0.988145	0.487321
H69	H	1.107410	-1.059404	0.549844
C70	C	0.938506	-0.529716	0.609655
H71	H	0.895122	-0.557403	0.641471
H72	H	0.977099	-0.562245	0.577303
H73	H	0.972902	-0.505002	0.650998
H74	H	0.767668	-0.324888	0.374402
C75	C	1.134521	-0.549284	0.830849
H76	H	1.097878	-0.577609	0.870280
H77	H	1.097472	-0.517363	0.791964
H78	H	1.171002	-0.581657	0.796195
C79	C	0.794346	-0.572649	0.658965
H80	H	0.750965	-0.600342	0.690777
H81	H	0.832939	-0.605172	0.626605
H82	H	0.828742	-0.547939	0.700312
H83	H	1.306121	-0.872037	0.361340
H84	H	1.131201	-0.873076	0.553387
H85	H	0.611518	-0.549172	0.632012
C86	C	1.414284	-0.333023	1.186191
H87	H	1.450934	-0.304704	1.146761
H88	H	1.377808	-0.300656	1.220850
H89	H	1.451340	-0.364948	1.225072
H90	H	1.387612	-1.015032	0.607127
H91	H	0.938048	-0.333411	0.384182
H92	H	0.623503	-0.367818	0.423719
H93	H	1.212770	-0.880629	0.644716
C94	C	1.161352	-0.999107	0.379047
H95	H	1.160251	-1.051528	0.378990
H96	H	1.115726	-0.980665	0.417846
H97	H	1.151125	-0.978170	0.319824
C98	C	1.323085	-1.006003	0.343475
H99	H	1.351440	-0.965047	0.315425
H100	H	1.366985	-1.038610	0.373314
H101	H	1.293637	-1.031633	0.299253
C102	C	1.162840	-0.857533	0.378207
H103	H	1.136902	-0.827377	0.422675
H104	H	1.171342	-0.828056	0.324409
H105	H	1.123933	-0.895705	0.366810
H106	H	1.382784	-0.887413	0.610757
C107	C	1.444588	-0.875635	0.480587
H108	H	1.420891	-0.840835	0.435430
H109	H	1.486015	-0.852505	0.516611
H110	H	1.474427	-0.916262	0.453101
C111	C	1.441847	-1.017002	0.473283
H112	H	1.415684	-1.044180	0.428417
H113	H	1.470036	-0.975799	0.445645
H114	H	1.485276	-1.048123	0.505933
C115	C	1.376178	-0.362497	0.844824
H116	H	1.408054	-0.337841	0.888219
H117	H	1.417445	-0.391159	0.810442
H118	H	1.343898	-0.326878	0.806219
