data_functionalizedCrystal
_audit_creation_method	'MofGen! by Chris Wilmer'
_symmetry_space_group_name_H-M	'P1'
_symmetry_Int_Tables_number	1
_symmetry_cell_setting	triclinic
loop_
_symmetry_equiv_pos_as_xyz
  x,y,z
_cell_length_a	12.837943
_cell_length_b	11.792241
_cell_length_c	11.295483
_cell_angle_alpha	94.123059
_cell_angle_beta	85.461227
_cell_angle_gamma	89.511178
loop_
_atom_site_label
_atom_site_type_symbol
_atom_site_fract_x
_atom_site_fract_y
_atom_site_fract_z
O1	O	1.384055	0.288341	-0.099005
O2	O	1.082168	0.273757	-0.099012
O3	O	1.240437	0.116622	-0.099000
O4	O	1.225787	0.445476	-0.099017
O5	O	1.226536	0.130400	0.099050
O6	O	1.068267	0.287535	0.099038
O7	O	1.370154	0.302119	0.099045
Cu8	Cu	1.217941	0.296085	0.117125
Cu9	Cu	1.234381	0.279791	-0.117092
O10	O	1.211885	0.459254	0.099033
C11	C	1.036570	0.275719	0.000012
C12	C	0.921410	0.261025	0.000010
C13	C	0.681444	0.437671	0.000018
C14	C	0.573241	0.423870	0.000016
C15	C	0.596797	0.219624	0.000014
C16	C	0.705001	0.233425	0.000016
C17	C	0.747320	0.342452	0.000016
C18	C	0.855526	0.356251	0.000008
C19	C	0.879080	0.152006	0.000015
C20	C	0.770877	0.138205	0.000013
C21	C	1.232566	0.081127	0.000025
C22	C	1.229812	-0.045167	0.000023
C23	C	1.224748	-0.276394	0.000003
C24	C	1.227561	-0.147723	0.000014
C25	C	1.415753	0.300157	0.000018
C26	C	1.530913	0.314850	0.000013
C27	C	1.219756	0.494749	0.000006
C28	C	1.222512	0.621042	-0.000001
N29	N	1.206386	0.307545	0.281860
N30	N	1.245945	0.268322	-0.281827
C31	C	1.329126	0.185760	0.531159
C32	C	1.320401	0.194430	0.655822
C33	C	1.180207	0.333547	0.655852
C34	C	1.188932	0.324878	0.531189
C35	C	1.263395	0.250983	0.468847
C36	C	1.272124	0.242320	0.344181
C37	C	1.131925	0.381431	0.344213
C38	C	1.123200	0.390100	0.468876
H39	H	0.736404	0.049439	0.000027
O40	O	1.050731	0.461743	0.529389
C41	C	0.868087	0.511378	0.567521
C42	C	0.950047	0.430144	0.498940
H43	H	0.786668	0.485875	0.542909
H44	H	0.873049	0.506360	0.667339
H45	H	0.883884	0.602103	0.543025
H46	H	0.934304	0.339384	0.523336
H47	H	0.945065	0.435261	0.399139
O48	O	1.068168	0.444967	0.283739
C49	C	1.011131	0.633186	0.245681
C50	C	1.083401	0.561365	0.314217
H51	H	1.023407	0.727307	0.270315
H52	H	1.030155	0.614405	0.145856
H53	H	0.926266	0.611003	0.270196
H54	H	1.168290	0.583507	0.289801
H55	H	1.064288	0.580156	0.414025
H56	H	1.389764	0.125601	0.480399
H57	H	0.562315	0.130866	0.000112
O58	O	1.344478	0.170448	0.283804
C59	C	1.482646	0.033421	0.296938
C60	C	1.400736	0.114756	0.365459
H61	H	1.528167	-0.011610	0.362926
H62	H	1.441679	-0.032309	0.238619
H63	H	1.538781	0.084038	0.238528
H64	H	1.344577	0.064235	0.423933
H65	H	1.441772	0.180488	0.423703
O66	O	0.896462	0.462239	0.000063
C67	C	0.861676	0.663361	0.000003
C68	C	0.815181	0.543395	-0.000036
H69	H	0.795984	0.729007	-0.000102
H70	H	0.905890	0.680763	0.082906
H71	H	0.917595	0.669115	-0.082861
H72	H	0.759218	0.537555	0.082772
H73	H	0.771030	0.526045	-0.082994
H74	H	0.715901	0.526445	0.000016
H75	H	1.373924	0.141318	0.706553
O76	O	0.509401	0.516483	-0.000040
C77	C	0.497454	0.720529	0.000033
C78	C	0.569874	0.615737	0.000066
H79	H	0.546315	0.800804	0.000144
H80	H	0.452046	0.713493	-0.082872
H81	H	0.440369	0.724870	0.082895
H82	H	0.627019	0.611332	-0.082740
H83	H	0.615207	0.622816	0.083026
H84	H	0.932729	0.074471	0.000005
H85	H	1.119573	0.393702	0.706627
