data_functionalizedCrystal
_audit_creation_method	'MofGen! by Chris Wilmer'
_symmetry_space_group_name_H-M	'P1'
_symmetry_Int_Tables_number	1
_symmetry_cell_setting	triclinic
loop_
_symmetry_equiv_pos_as_xyz
  x,y,z
_cell_length_a	19.805407
_cell_length_b	19.120786
_cell_length_c	19.805399
_cell_angle_alpha	87.531070
_cell_angle_beta	89.982197
_cell_angle_gamma	92.462474
loop_
_atom_site_label
_atom_site_type_symbol
_atom_site_fract_x
_atom_site_fract_y
_atom_site_fract_z
Zn1	Zn	1.023242	-0.279696	-0.371182
Zn2	Zn	1.018330	-0.397155	-0.253161
Zn3	Zn	0.910056	-0.279710	-0.258009
Zn4	Zn	0.905195	-0.397112	-0.366313
O5	O	0.964206	-0.338418	-0.312166
O6	O	1.117306	-0.295289	-0.355535
O7	O	1.003946	-0.381599	-0.159087
O8	O	0.929160	-0.181418	-0.277088
O9	O	1.113698	-0.381586	-0.268826
O10	O	1.012318	-0.181408	-0.360235
O11	O	0.924397	-0.295313	-0.162649
O12	O	0.814695	-0.295271	-0.272367
O13	O	0.920876	-0.381513	-0.461677
O14	O	0.811124	-0.381526	-0.351938
O15	O	1.007604	-0.295248	-0.465253
O16	O	0.999232	-0.495439	-0.264105
O17	O	0.916113	-0.495408	-0.347237
C18	C	0.788351	-0.338396	-0.312151
C19	C	0.713118	-0.338404	-0.312160
C20	C	0.679651	-0.293549	-0.357372
C21	C	0.608962	-0.293552	-0.357374
C22	C	0.571742	-0.338415	-0.312167
C23	C	0.605215	-0.383272	-0.266951
C24	C	0.675902	-0.383264	-0.266945
C25	C	0.320140	-0.383304	-0.266970
C26	C	0.249448	-0.383309	-0.266980
C27	C	0.253200	-0.293592	-0.357399
C28	C	0.323887	-0.293584	-0.357393
C29	C	0.357354	-0.338438	-0.312175
C30	C	0.434003	-0.338432	-0.312172
C31	C	0.495095	-0.338425	-0.312173
C32	C	0.956630	-0.520909	-0.304632
C33	C	0.953452	-0.598979	-0.301431
C34	C	0.995221	-0.635591	-0.343253
C35	C	0.992232	-0.708946	-0.340247
C36	C	0.947475	-0.745688	-0.295415
C37	C	0.905701	-0.709071	-0.253591
C38	C	0.908688	-0.635717	-0.256601
C39	C	0.936290	-0.967173	-0.284162
C40	C	0.933308	-1.040533	-0.281153
C41	C	1.019838	-1.040402	-0.367810
C42	C	1.022824	-0.967047	-0.370813
C43	C	0.981047	-0.930436	-0.328992
C44	C	0.944420	-0.820669	-0.292339
C45	C	0.984099	-0.855457	-0.332072
C46	C	1.140748	-0.338441	-0.312182
C47	C	1.215979	-0.338450	-0.312189
C48	C	0.964246	-0.338374	-0.488711
C49	C	0.964262	-0.338355	-0.563944
C50	C	0.971829	-0.155215	-0.319745
C51	C	0.975078	-0.077144	-0.322975
C52	C	1.009423	-0.293435	-0.601152
C53	C	1.009431	-0.293414	-0.671841
C54	C	0.964281	-0.338318	-0.705321
C55	C	0.919115	-0.383241	-0.668108
C56	C	0.919105	-0.383257	-0.597420
C57	C	0.919156	-0.383175	-0.953184
C58	C	0.919172	-0.383157	-1.023877
C59	C	1.009482	-0.293332	-1.027605
C60	C	1.009472	-0.293349	-0.956917
C61	C	0.964304	-0.338268	-0.919711
C62	C	0.964295	-0.338289	-0.843061
C63	C	0.964292	-0.338302	-0.781969
C64	C	0.964207	-0.338412	-0.136311
C65	C	0.964329	-0.338232	-0.061087
H66	H	1.031670	-0.605680	-0.379757
H67	H	1.053850	-1.070219	-0.401859
H68	H	0.882351	-0.419800	-0.695374
H69	H	0.581716	-0.257028	-0.394191
O70	O	0.359966	-0.250038	-0.401399
C71	C	0.342094	-0.265491	-0.468200
H72	H	0.289653	-0.292499	-0.468452
H73	H	0.341785	-0.214839	-0.500719
H74	H	0.380391	-0.301628	-0.489445
H75	H	0.896859	-1.070446	-0.244645
H76	H	0.225943	-0.257067	-0.394216
H77	H	0.219145	-0.419844	-0.230165
H78	H	1.046240	-0.256786	-0.929661
H79	H	0.347380	-0.419827	-0.230151
O80	O	0.568958	-0.426829	-0.223100
C81	C	0.499391	-0.417208	-0.232788
H82	H	0.490706	-0.394277	-0.286007
H83	H	0.470347	-0.469817	-0.225944
H84	H	0.480865	-0.379751	-0.194249
H85	H	0.703151	-0.419790	-0.230129
O86	O	0.900914	-0.856441	-0.248876
C87	C	0.855436	-0.898873	-0.285631
H88	H	0.878828	-0.909801	-0.336502
H89	H	0.844290	-0.950484	-0.255940
H90	H	0.806418	-0.870645	-0.294171
H91	H	1.046192	-0.256871	-0.573897
H92	H	1.026250	-0.738753	-0.374297
O93	O	1.066320	-0.931466	-0.414420
C94	C	1.102562	-0.979512	-0.450675
H95	H	1.072706	-1.031822	-0.450855
H96	H	1.110624	-0.958275	-0.504879
H97	H	1.153662	-0.987289	-0.425609
O98	O	1.053260	-0.249615	-1.063782
C99	C	1.016622	-0.204242	-1.106551
H100	H	0.963490	-0.199901	-1.085420
H101	H	1.043353	-0.150191	-1.109590
H102	H	1.013395	-0.225942	-1.159227
O103	O	1.053367	-0.249759	-0.707880
C104	C	1.093207	-0.210121	-0.663172
H105	H	1.094344	-0.238905	-0.611594
H106	H	1.146851	-0.202635	-0.683915
H107	H	1.070645	-0.156773	-0.657856
H108	H	0.869256	-0.738993	-0.217091
O109	O	0.875242	-0.426798	-1.056296
C110	C	0.835384	-0.466461	-1.008299
H111	H	0.834228	-0.437704	-0.959100
H112	H	0.781748	-0.473935	-1.028409
H113	H	0.857943	-0.519814	-0.998577
H114	H	0.709950	-0.257018	-0.394186
O115	O	0.895692	-0.931725	-0.243462
C116	C	0.855543	-0.979887	-0.203256
H117	H	0.881142	-1.032154	-0.198801
H118	H	0.849223	-0.958736	-0.150786
H119	H	0.803801	-0.987715	-0.227667
O120	O	0.875312	-0.426748	-0.916946
C121	C	0.884990	-0.417150	-0.847375
H122	H	0.909408	-0.362948	-0.839963
H123	H	0.834087	-0.421918	-0.820307
H124	H	0.919298	-0.458820	-0.825597
O125	O	0.868085	-0.600259	-0.215908
C126	C	0.827928	-0.648416	-0.175705
H127	H	0.853527	-0.700682	-0.171237
H128	H	0.821595	-0.627258	-0.123240
H129	H	0.776192	-0.656249	-0.200128
O130	O	1.027483	-0.819691	-0.375656
C131	C	0.990646	-0.777279	-0.421088
H132	H	0.939808	-0.766356	-0.397621
H133	H	1.020307	-0.725664	-0.432295
H134	H	0.982037	-0.805521	-0.470085
O135	O	0.875220	-0.426968	-0.561376
C136	C	0.835364	-0.466591	-0.606083
H137	H	0.862990	-0.469007	-0.656378
H138	H	0.825848	-0.521938	-0.583370
H139	H	0.785025	-0.440870	-0.614651
