data_functionalizedCrystal
_audit_creation_method	'MofGen! by Chris Wilmer'
_symmetry_space_group_name_H-M	'P1'
_symmetry_Int_Tables_number	1
_symmetry_cell_setting	triclinic
loop_
_symmetry_equiv_pos_as_xyz
  x,y,z
_cell_length_a	16.625548
_cell_length_b	18.101395
_cell_length_c	16.625539
_cell_angle_alpha	89.974216
_cell_angle_beta	89.982945
_cell_angle_gamma	90.032172
loop_
_atom_site_label
_atom_site_type_symbol
_atom_site_fract_x
_atom_site_fract_y
_atom_site_fract_z
Zn1	Zn	1.232604	-0.294821	-0.455913
Zn2	Zn	1.232495	-0.418666	-0.321082
Zn3	Zn	1.097774	-0.294845	-0.321094
Zn4	Zn	1.097716	-0.418627	-0.455872
O5	O	1.165147	-0.356740	-0.388490
O6	O	1.345422	-0.311255	-0.438040
O7	O	1.214603	-0.402267	-0.208251
O8	O	1.115730	-0.191209	-0.339000
O9	O	1.345342	-0.402244	-0.338980
O10	O	1.214789	-0.191191	-0.438051
O11	O	1.115624	-0.311296	-0.208260
O12	O	0.984934	-0.311259	-0.338960
O13	O	1.115630	-0.402178	-0.568710
O14	O	0.984891	-0.402201	-0.437981
O15	O	1.214732	-0.311218	-0.568740
O16	O	1.214547	-0.522294	-0.338940
O17	O	1.115525	-0.522265	-0.437969
C18	C	0.955657	-0.356729	-0.388467
C19	C	0.866035	-0.356742	-0.388477
C20	C	0.537860	-0.356747	-0.388511
C21	C	0.629168	-0.356744	-0.388499
C22	C	0.701945	-0.356745	-0.388494
C23	C	0.793259	-0.356741	-0.388483
C24	C	1.165040	-0.549150	-0.388466
C25	C	1.165067	-0.631464	-0.388483
C26	C	1.165244	-0.930555	-0.388527
C27	C	1.103087	-0.899243	-0.450988
C28	C	1.102791	-0.813625	-0.450793
C29	C	1.165156	-0.782173	-0.388506
C30	C	1.142154	-0.813322	-0.303528
C31	C	1.141754	-0.898968	-0.303901
C32	C	1.250539	-0.898898	-0.410295
C33	C	1.250038	-0.813247	-0.412159
C34	C	1.165108	-0.698313	-0.388489
C35	C	1.165290	-1.014415	-0.388538
C36	C	1.375456	-0.356751	-0.388513
C37	C	1.465077	-0.356756	-0.388523
C38	C	1.165187	-0.356691	-0.598799
C39	C	1.165204	-0.356670	-0.688420
C40	C	1.165278	-0.163578	-0.388531
C41	C	1.165333	-0.081264	-0.388549
C42	C	1.165217	-0.356654	-0.761203
C43	C	1.165236	-0.356626	-0.852511
C44	C	1.165255	-0.356600	-0.925288
C45	C	1.165275	-0.356573	-1.016602
C46	C	1.165154	-0.356735	-0.178999
C47	C	1.165294	-0.356547	-0.089378
H48	H	1.117335	-0.919792	-0.514202
O49	O	1.068491	-0.787906	-0.281229
C50	C	1.010552	-0.810898	-0.337858
H51	H	1.033445	-0.861859	-0.370969
H52	H	0.999329	-0.764532	-0.382901
C53	C	0.903382	-0.767214	-0.253476
C54	C	0.931497	-0.829809	-0.294139
H55	H	0.854616	-0.778876	-0.226509
H56	H	0.942417	-0.751721	-0.215325
H57	H	0.894035	-0.728582	-0.291019
H58	H	0.940853	-0.868436	-0.256595
H59	H	0.892463	-0.845308	-0.332282
H60	H	1.186003	-0.792950	-0.255720
O61	O	1.275424	-0.924643	-0.482990
C62	C	1.216095	-0.971740	-0.515292
H63	H	1.155285	-0.958033	-0.487353
H64	H	1.232187	-1.031619	-0.501427
C65	C	1.286384	-0.977649	-0.641364
C66	C	1.211694	-0.960809	-0.607053
H67	H	1.283670	-0.970910	-0.697967
H68	H	1.326357	-0.945921	-0.619601
H69	H	1.299785	-1.027548	-0.629802
H70	H	1.198299	-0.910909	-0.618607
H71	H	1.171718	-0.992529	-0.628820
H72	H	1.079403	-0.919011	-0.285461
O73	O	1.270633	-0.788859	-0.486757
C74	C	1.208572	-0.743928	-0.517482
H75	H	1.171577	-0.720741	-0.465573
H76	H	1.168099	-0.778246	-0.558315
C77	C	1.290863	-0.708288	-0.629765
C78	C	1.245430	-0.679805	-0.566008
H79	H	1.313597	-0.668736	-0.659701
H80	H	1.332674	-0.738561	-0.609067
H81	H	1.257128	-0.736886	-0.663783
H82	H	1.279166	-0.651215	-0.531986
H83	H	1.203625	-0.649525	-0.586701
H84	H	1.298798	-0.791833	-0.369981
O85	O	1.305695	-0.923151	-0.355982
C86	C	1.267440	-0.968476	-0.298544
H87	H	1.209626	-0.991900	-0.325169
H88	H	1.252524	-0.934415	-0.242845
C89	C	1.394907	-1.003586	-0.242375
C90	C	1.323902	-1.032361	-0.275078
H91	H	1.429735	-1.042992	-0.227896
H92	H	1.420680	-0.973048	-0.281070
H93	H	1.382466	-0.975203	-0.195963
H94	H	1.336343	-1.060736	-0.321494
H95	H	1.298132	-1.062906	-0.236390
H96	H	1.117182	-0.792562	-0.513803
O97	O	1.193317	-0.923665	-0.246388
C98	C	1.168418	-0.897479	-0.170509
H99	H	1.101493	-0.883929	-0.172475
H100	H	1.203852	-0.845567	-0.154604
C101	C	1.265957	-0.973948	-0.104038
C102	C	1.183757	-0.957312	-0.106451
H103	H	1.275422	-1.010853	-0.064523
H104	H	1.282734	-0.991588	-0.155159
H105	H	1.295476	-0.930682	-0.090787
H106	H	1.154241	-1.000575	-0.119712
H107	H	1.166975	-0.939680	-0.055330
H108	H	1.040248	-0.920830	-0.436750
H109	H	1.039568	-0.793203	-0.436373
