data_functionalizedCrystal
_audit_creation_method	'MofGen! by Chris Wilmer'
_symmetry_space_group_name_H-M	'P1'
_symmetry_Int_Tables_number	1
_symmetry_cell_setting	triclinic
loop_
_symmetry_equiv_pos_as_xyz
  x,y,z
_cell_length_a	16.625546
_cell_length_b	19.805407
_cell_length_c	19.805407
_cell_angle_alpha	90.007450
_cell_angle_beta	90.013603
_cell_angle_gamma	90.019784
loop_
_atom_site_label
_atom_site_type_symbol
_atom_site_fract_x
_atom_site_fract_y
_atom_site_fract_z
Zn1	Zn	-0.321192	1.034685	0.382686
Zn2	Zn	0.178808	1.534685	0.882686
Zn3	Zn	-0.455995	1.034628	0.269497
Zn4	Zn	0.044005	1.534628	0.769497
Zn5	Zn	-0.321174	0.921520	0.269514
Zn6	Zn	0.178826	1.421520	0.769514
Zn7	Zn	-0.455980	0.921471	0.382648
Zn8	Zn	0.044020	1.421471	0.882648
O9	O	-0.388585	0.978076	0.326086
O10	O	0.111415	1.478076	0.826086
O11	O	-0.339087	1.129394	0.367680
O12	O	0.160913	1.629394	0.867680
O13	O	-0.438110	1.019621	0.174783
O14	O	0.061890	1.519621	0.674783
O15	O	-0.208344	0.936576	0.284550
O16	O	0.291656	1.436576	0.784550
O17	O	-0.438127	1.129352	0.284521
O18	O	0.061873	1.629352	0.784521
O19	O	-0.208357	1.019718	0.367697
O20	O	0.291643	1.519718	0.867697
O21	O	-0.339057	0.936521	0.174795
O22	O	0.160943	1.436521	0.674795
O23	O	-0.339042	0.826797	0.284513
O24	O	0.160958	1.326797	0.784513
O25	O	-0.438101	0.936492	0.477369
O26	O	0.061899	1.436492	0.977369
O27	O	-0.438083	0.826761	0.367631
O28	O	0.061917	1.326761	0.867631
O29	O	-0.339072	1.019670	0.477398
O30	O	0.160928	1.519670	0.977398
O31	O	-0.568825	1.019573	0.284484
O32	O	-0.068825	1.519573	0.784484
O33	O	-0.568814	0.936437	0.367615
O34	O	-0.068814	1.436437	0.867615
C35	C	-0.388560	0.802220	0.326070
C36	C	0.111440	1.302220	0.826070
C37	C	-0.388568	0.726988	0.326079
C38	C	0.111432	1.226988	0.826079
C39	C	-0.337090	0.691666	0.369446
C40	C	0.162910	1.191666	0.869446
C41	C	-0.337094	0.620978	0.369448
C42	C	0.162906	1.120978	0.869448
C43	C	-0.388582	0.585612	0.326087
C44	C	0.111418	1.085612	0.826087
C45	C	-0.440063	0.620939	0.282715
C46	C	0.059937	1.120939	0.782715
C47	C	-0.440054	0.691626	0.282710
C48	C	0.059946	1.191626	0.782710
C49	C	-0.440099	0.335866	0.282736
C50	C	0.059901	0.835866	0.782736
C51	C	-0.440105	0.265174	0.282746
C52	C	0.059895	0.765174	0.782746
C53	C	-0.337139	0.265217	0.369475
C54	C	0.162861	0.765217	0.869475
C55	C	-0.337130	0.335905	0.369469
C56	C	0.162870	0.835905	0.869469
C57	C	-0.388608	0.371225	0.326095
C58	C	0.111392	0.871225	0.826095
C59	C	-0.388602	0.447874	0.326092
C60	C	0.111398	0.947874	0.826092
C61	C	-0.388593	0.508965	0.326093
C62	C	0.111407	1.008965	0.826093
C63	C	-0.598076	0.978012	0.326058
C64	C	-0.098076	1.478012	0.826058
C65	C	-0.687697	0.978047	0.326068
C66	C	-0.187697	1.478047	0.826068
C67	C	-1.015873	0.978165	0.326139
C68	C	-0.515873	1.478165	0.826139
C69	C	-0.924564	0.978130	0.326121
C70	C	-0.424564	1.478130	0.826121
C71	C	-0.851788	0.978105	0.326103
C72	C	-0.351788	1.478105	0.826103
C73	C	-0.760473	0.978071	0.326086
C74	C	-0.260473	1.478071	0.826086
C75	C	-0.178276	0.978159	0.326130
C76	C	0.321724	1.478159	0.826130
C77	C	-0.088655	0.978194	0.326148
C78	C	0.411345	1.478194	0.826148
C79	C	-0.388587	0.978082	0.502629
C80	C	0.111413	1.478082	1.002629
C81	C	-0.388587	0.978085	0.577861
C82	C	0.111413	1.478085	1.077861
C83	C	-0.388611	1.154619	0.326103
C84	C	0.111389	1.654619	0.826103
C85	C	-0.388622	1.229851	0.326110
C86	C	0.111378	1.729851	0.826110
C87	C	-0.337031	1.021390	0.613221
C88	C	0.162969	1.521390	1.113221
C89	C	-0.337029	1.021384	0.683909
C90	C	0.162971	1.521384	1.183909
C91	C	-0.388587	0.978076	0.719237
C92	C	0.111413	1.478076	1.219237
C93	C	-0.440145	0.934766	0.683872
C94	C	0.059855	1.434766	1.183872
C95	C	-0.440143	0.934769	0.613184
C96	C	0.059857	1.434769	1.113184
C97	C	-0.440155	0.934753	0.968945
C98	C	0.059845	1.434753	1.468945
C99	C	-0.440155	0.934754	1.039637
C100	C	0.059845	1.434754	1.539637
C101	C	-0.337041	1.021368	1.039670
C102	C	0.162959	1.521368	1.539670
C103	C	-0.337038	1.021371	0.968983
C104	C	0.162962	1.521371	1.468983
C105	C	-0.388593	0.978059	0.933624
C106	C	0.111407	1.478059	1.433624
C107	C	-0.388594	0.978064	0.856976
C108	C	0.111406	1.478064	1.356976
C109	C	-0.388591	0.978073	0.795884
C110	C	0.111409	1.478073	1.295884
C111	C	-0.388600	0.978064	1.150230
C112	C	0.111400	1.478064	1.650230
C113	C	-0.388594	0.978057	1.074998
C114	C	0.111406	1.478057	1.574998
H115	H	-0.295206	0.364696	0.404781
H116	H	0.204794	0.864696	0.904781
Br117	Br	-0.510114	0.875985	0.731815
Br118	Br	-0.010114	1.375985	1.231815
Br119	Br	-0.267228	0.573043	0.428307
Br120	Br	0.232772	1.073043	0.928307
H121	H	-0.295221	0.236451	0.404789
H122	H	0.204779	0.736451	0.904789
H123	H	-0.482035	0.236381	0.247434
H124	H	0.017965	0.736381	0.747434
Br125	Br	-0.510133	0.875976	1.087581
Br126	Br	-0.010133	1.375976	1.587581
H127	H	-0.481972	0.720384	0.247396
H128	H	0.018028	1.220384	0.747396
Br129	Br	-0.510110	0.875991	0.565195
Br130	Br	-0.010110	1.375991	1.065195
H131	H	-0.295049	1.056659	0.584463
H132	H	0.204951	1.556659	1.084463
Br133	Br	-0.509933	0.572944	0.223861
Br134	Br	-0.009933	1.072944	0.723861
Br135	Br	-0.267070	1.080149	1.087660
Br136	Br	0.232930	1.580149	1.587660
Br137	Br	-0.267094	1.080190	0.731896
Br138	Br	0.232906	1.580190	1.231896
Br139	Br	-0.267215	0.739655	0.428301
Br140	Br	0.232785	1.239655	0.928301
Br141	Br	-0.509940	0.383792	0.223854
Br142	Br	-0.009940	0.883792	0.723854
H143	H	-0.295057	1.056639	0.940223
H144	H	0.204943	1.556639	1.440223
H145	H	-0.482146	0.899495	0.940164
H146	H	0.017854	1.399495	1.440164
