data_functionalizedCrystal
_audit_creation_method	'MofGen! by Chris Wilmer'
_symmetry_space_group_name_H-M	'P1'
_symmetry_Int_Tables_number	1
_symmetry_cell_setting	triclinic
loop_
_symmetry_equiv_pos_as_xyz
  x,y,z
_cell_length_a	16.959455
_cell_length_b	25.639240
_cell_length_c	16.959447
_cell_angle_alpha	89.971942
_cell_angle_beta	89.985299
_cell_angle_gamma	90.031487
loop_
_atom_site_label
_atom_site_type_symbol
_atom_site_fract_x
_atom_site_fract_y
_atom_site_fract_z
Zn1	Zn	1.208318	-0.208148	-0.446929
Zn2	Zn	1.208213	-0.295589	-0.314756
Zn3	Zn	1.076146	-0.208169	-0.314766
Zn4	Zn	1.076083	-0.295554	-0.446893
O5	O	1.142190	-0.251865	-0.380836
O6	O	1.318915	-0.219754	-0.429407
O7	O	1.190676	-0.284016	-0.204146
O8	O	1.093750	-0.135001	-0.332317
O9	O	1.318838	-0.283996	-0.332300
O10	O	1.190855	-0.134986	-0.429416
O11	O	1.093648	-0.219788	-0.204153
O12	O	0.965527	-0.219754	-0.332282
O13	O	1.093642	-0.283936	-0.557509
O14	O	0.965481	-0.283956	-0.429356
O15	O	1.190794	-0.219720	-0.557535
O16	O	1.190615	-0.368750	-0.332265
O17	O	1.093540	-0.368724	-0.429346
C18	C	0.936824	-0.251854	-0.380817
C19	C	0.848967	-0.251861	-0.380827
C20	C	0.807651	-0.285262	-0.330196
C21	C	0.807730	-0.218465	-0.431464
C22	C	0.725184	-0.218469	-0.431474
C23	C	0.683868	-0.251870	-0.380843
C24	C	0.725098	-0.285266	-0.330202
C25	C	0.683948	-0.185070	-0.482108
C26	C	0.601397	-0.185072	-0.482119
C27	C	0.560079	-0.218476	-0.431491
C28	C	0.601314	-0.251874	-0.380849
C29	C	0.559998	-0.285274	-0.330218
C30	C	0.601232	-0.318675	-0.279579
C31	C	0.683780	-0.318669	-0.279574
C32	C	0.477531	-0.218481	-0.431496
C33	C	0.477445	-0.285278	-0.330224
C34	C	1.142081	-0.387708	-0.380818
C35	C	1.142107	-0.445822	-0.380836
C36	C	1.192749	-0.696956	-0.431448
C37	C	1.192725	-0.642352	-0.431442
O38	O	1.235692	-0.614065	-0.474447
N39	N	1.142193	-0.615095	-0.380846
C40	C	1.091687	-0.642446	-0.330248
O41	O	1.048704	-0.614249	-0.287212
C42	C	1.091716	-0.697050	-0.330251
C43	C	1.142245	-0.724303	-0.380855
C44	C	1.243275	-0.724210	-0.482047
C45	C	1.243297	-0.778810	-0.482054
C46	C	1.192794	-0.806157	-0.431461
C47	C	1.142268	-0.778904	-0.380862
C48	C	1.041215	-0.724399	-0.279649
C49	C	1.041248	-0.779007	-0.279656
C50	C	1.091777	-0.806260	-0.330260
C51	C	1.091787	-0.860851	-0.330276
N52	N	1.142319	-0.888107	-0.380871
C53	C	1.192822	-0.860760	-0.431464
C54	C	1.091633	-0.527776	-0.330246
C55	C	1.091600	-0.473173	-0.330246
C56	C	1.192639	-0.473083	-0.431439
C57	C	1.192667	-0.527686	-0.431442
C58	C	1.142165	-0.555032	-0.380841
C59	C	1.192865	-0.975425	-0.431475
C60	C	1.192881	-1.030031	-0.431479
C61	C	1.091845	-1.030117	-0.330284
C62	C	1.091826	-0.975516	-0.330282
C63	C	1.142342	-0.948172	-0.380880
O64	O	1.048844	-0.889173	-0.287291
O65	O	1.235805	-0.888965	-0.474486
C66	C	1.348358	-0.251877	-0.380856
C67	C	1.436215	-0.251882	-0.380865
C68	C	1.142223	-0.251822	-0.587004
C69	C	1.142237	-0.251803	-0.674861
C70	C	1.142321	-0.115492	-0.380872
C71	C	1.142377	-0.057378	-0.380887
C72	C	1.091749	-0.285183	-1.046326
C73	C	1.192914	-0.218314	-1.046348
C74	C	1.192893	-0.218325	-0.963802
C75	C	1.142300	-0.251766	-0.922514
C76	C	1.091728	-0.285196	-0.963772
C77	C	1.243470	-0.184899	-0.922538
C78	C	1.243452	-0.184909	-0.839987
C79	C	1.192854	-0.218348	-0.798697
C80	C	1.142279	-0.251779	-0.839960
C81	C	1.091686	-0.285220	-0.798673
C82	C	1.041107	-0.318649	-0.839934
C83	C	1.041130	-0.318635	-0.922483
C84	C	1.192830	-0.218362	-0.716149
C85	C	1.091665	-0.285233	-0.716119
C86	C	1.142203	-0.251870	-0.175470
C87	C	1.142342	-0.251742	-0.087614
H88	H	0.841227	-0.312457	-0.288969
Br89	Br	0.545150	-0.363997	-0.210860
Br90	Br	0.739744	-0.363994	-0.210855
Br91	Br	0.863802	-0.173135	-0.500170
Br92	Br	1.261475	-0.173004	-0.660154
H93	H	0.717594	-0.157875	-0.523326
H94	H	1.284404	-0.701948	-0.523245
Br95	Br	1.261424	-0.938324	-0.500143
Br96	Br	0.545444	-0.139745	-0.550843
Br97	Br	1.023006	-0.436193	-0.261582
Br98	Br	1.022992	-0.330616	-0.660092
Br99	Br	1.023104	-0.330545	-1.102319
H100	H	0.443962	-0.191283	-0.472719
Br101	Br	1.261456	-1.067014	-0.500166
Br102	Br	1.311873	-0.815788	-0.550738
H103	H	1.233762	-0.450807	-0.472633
H104	H	1.233809	-0.549872	-0.472652
H105	H	0.999954	-0.345852	-0.956085
H106	H	1.000122	-0.801269	-0.238448
Br107	Br	1.023082	-0.564883	-0.261572
H108	H	1.000069	-0.702217	-0.238442
H109	H	0.443811	-0.312479	-0.288997
Br110	Br	1.023247	-0.938528	-0.261608
H111	H	1.050725	-1.052393	-0.289095
H112	H	0.999917	-0.345879	-0.806307
Br113	Br	1.261581	-0.172937	-1.102382
H114	H	1.284665	-0.157676	-0.956161
H115	H	1.284636	-0.157689	-0.806399
