data_functionalizedCrystal
_audit_creation_method	'MofGen! by Chris Wilmer'
_symmetry_space_group_name_H-M	'P1'
_symmetry_Int_Tables_number	1
_symmetry_cell_setting	triclinic
loop_
_symmetry_equiv_pos_as_xyz
  x,y,z
_cell_length_a	29.839134
_cell_length_b	14.909028
_cell_length_c	29.839126
_cell_angle_alpha	86.687131
_cell_angle_beta	89.964260
_cell_angle_gamma	86.713637
loop_
_atom_site_label
_atom_site_type_symbol
_atom_site_fract_x
_atom_site_fract_y
_atom_site_fract_z
Zn1	Zn	0.697181	-0.359362	-0.243824
Zn2	Zn	0.701460	-0.510204	-0.164370
Zn3	Zn	0.622045	-0.359354	-0.168694
Zn4	Zn	0.626375	-0.510162	-0.239460
O5	O	0.661765	-0.434771	-0.204087
O6	O	0.760616	-0.379393	-0.233301
O7	O	0.690904	-0.490207	-0.102076
O8	O	0.628409	-0.233113	-0.182296
O9	O	0.763760	-0.490216	-0.174927
O10	O	0.683611	-0.233119	-0.237494
O11	O	0.632559	-0.379378	-0.105253
O12	O	0.559752	-0.379338	-0.178064
O13	O	0.635789	-0.490145	-0.302906
O14	O	0.562933	-0.490136	-0.230056
O15	O	0.687809	-0.379352	-0.306113
O16	O	0.695103	-0.636440	-0.170695
O17	O	0.639939	-0.636410	-0.225863
C18	C	0.545042	-0.434732	-0.204056
C19	C	0.495107	-0.434738	-0.204052
C20	C	0.668468	-0.669158	-0.197346
C21	C	0.671376	-0.769430	-0.194477
C22	C	0.704215	-0.910744	-0.161738
C23	C	0.701484	-0.816530	-0.164431
C24	C	0.643995	-0.816551	-0.221831
C25	C	0.646725	-0.910765	-0.219137
C26	C	0.676836	-0.957859	-0.189090
C27	C	0.679569	-1.052075	-0.186399
C28	C	0.622077	-1.052094	-0.243795
C29	C	0.619347	-0.957880	-0.246489
C30	C	0.187134	-0.492549	-0.231121
C31	C	-0.000539	-0.492574	-0.231141
O32	O	-0.023385	-0.541685	-0.254138
N33	N	-0.025676	-0.434804	-0.204120
C34	C	-0.003892	-0.377019	-0.177095
O35	O	-0.029579	-0.327875	-0.154116
C36	C	0.183779	-0.376989	-0.177078
C37	C	0.208914	-0.434770	-0.204097
C38	C	0.212268	-0.550324	-0.258139
C39	C	0.259184	-0.550321	-0.258132
C40	C	0.280964	-0.492542	-0.231107
C41	C	0.255830	-0.434767	-0.204090
C42	C	0.205562	-0.319200	-0.150056
C43	C	0.252483	-0.319197	-0.150055
C44	C	0.277618	-0.376977	-0.177074
C45	C	0.324526	-0.376984	-0.177059
N46	N	0.349663	-0.434755	-0.204080
C47	C	0.327882	-0.492534	-0.231104
C48	C	-0.102422	-0.377039	-0.177105
C49	C	-0.149340	-0.377048	-0.177108
C50	C	-0.145983	-0.492602	-0.231155
C51	C	-0.099065	-0.492598	-0.231149
C52	C	-0.077285	-0.434810	-0.204125
C53	C	0.426407	-0.492522	-0.231087
C54	C	0.473327	-0.492516	-0.231076
C55	C	0.469966	-0.376959	-0.177032
C56	C	0.423051	-0.376968	-0.177041
C57	C	0.401273	-0.434753	-0.204072
O58	O	0.347402	-0.327892	-0.154078
O59	O	0.353576	-0.541655	-0.254087
C60	C	0.140218	-0.492552	-0.231128
C61	C	0.115084	-0.434777	-0.204111
C62	C	0.136864	-0.376998	-0.177087
C63	C	0.068166	-0.434785	-0.204114
C64	C	0.046385	-0.492564	-0.231139
C65	C	0.071522	-0.550334	-0.258159
C66	C	0.118437	-0.550331	-0.258152
C67	C	0.111727	-0.319228	-0.150066
C68	C	0.064812	-0.319237	-0.150075
C69	C	0.043031	-0.377015	-0.177099
C70	C	0.778945	-0.434810	-0.204119
C71	C	0.828880	-0.434826	-0.204132
C72	C	0.661805	-0.434745	-0.321266
C73	C	0.661822	-0.434734	-0.371201
C74	C	0.655049	-0.199468	-0.210864
C75	C	0.652187	-0.099196	-0.213752
C76	C	0.692193	-0.492322	-0.726141
C77	C	0.692196	-0.492385	-0.538466
O78	O	0.718018	-0.541490	-0.512796
N79	N	0.661819	-0.434690	-0.516647
C80	C	0.631437	-0.376980	-0.541751
O81	O	0.605596	-0.327915	-0.518886
C82	C	0.631432	-0.376922	-0.729425
C83	C	0.661814	-0.434615	-0.751241
C84	C	0.722572	-0.550010	-0.747957
C85	C	0.722573	-0.549991	-0.794873
C86	C	0.692194	-0.492283	-0.819973
C87	C	0.661815	-0.434595	-0.798157
C88	C	0.601049	-0.319217	-0.754527
C89	C	0.601050	-0.319210	-0.801448
C90	C	0.631432	-0.376902	-0.823264
C91	C	0.631437	-0.376867	-0.870173
N92	N	0.661814	-0.434562	-0.891991
C93	C	0.692193	-0.492270	-0.866891
C94	C	0.631442	-0.377013	-0.443219
C95	C	0.631443	-0.377026	-0.396301
C96	C	0.692202	-0.492433	-0.393019
C97	C	0.692202	-0.492414	-0.439938
C98	C	0.661819	-0.434708	-0.465037
C99	C	0.692192	-0.492223	-0.965418
C100	C	0.692191	-0.492196	-1.012339
C101	C	0.631432	-0.376793	-1.015616
C102	C	0.631434	-0.376817	-0.968700
C103	C	0.661816	-0.434539	-0.943602
O104	O	0.605625	-0.327795	-0.895870
O105	O	0.718023	-0.541341	-0.889763
C106	C	0.692192	-0.492342	-0.679225
C107	C	0.661813	-0.434654	-0.657408
C108	C	0.631435	-0.376946	-0.682508
C109	C	0.661815	-0.434667	-0.610490
C110	C	0.692193	-0.492375	-0.585390
C111	C	0.722570	-0.550070	-0.607209
C112	C	0.722571	-0.550050	-0.654125
C113	C	0.601058	-0.319251	-0.660690
C114	C	0.601060	-0.319275	-0.613774
C115	C	0.631438	-0.376983	-0.588674
C116	C	0.661750	-0.434731	-0.087366
C117	C	0.661813	-0.434488	-0.037438
H118	H	0.704088	-1.090417	-0.161935
H119	H	0.606699	-0.330019	-0.463651
H120	H	0.487709	-0.329920	-0.155028
C121	C	0.424449	-0.262747	-0.123617
C122	C	0.395420	-0.313459	-0.147339
H123	H	0.407392	-0.223532	-0.105285
H124	H	0.443856	-0.302004	-0.105269
H125	H	0.441780	-0.228302	-0.144212
H126	H	0.378091	-0.347910	-0.126745
H127	H	0.376005	-0.274198	-0.165689
H128	H	-0.169800	-0.330006	-0.155102
C129	C	0.117027	-0.664543	-0.311576
C130	C	0.146061	-0.613839	-0.287857
H131	H	0.134080	-0.703747	-0.329918
H132	H	0.099703	-0.698993	-0.290984
H133	H	0.097614	-0.625275	-0.329919
H134	H	0.165473	-0.653107	-0.269511
H135	H	0.163394	-0.579386	-0.308451
H136	H	0.728736	-0.949089	-0.137276
C137	C	0.732288	-0.671317	-0.844153
C138	C	0.755969	-0.613401	-0.818855
H139	H	0.752908	-0.710460	-0.858959
H140	H	0.713706	-0.705829	-0.824846
H141	H	0.714197	-0.636939	-0.865816
H142	H	0.774058	-0.647780	-0.797189
H143	H	0.774559	-0.578886	-0.838163
H144	H	0.716938	-0.539419	-0.372575
H145	H	0.723778	-0.778172	-0.142158
C146	C	-0.159113	-0.536755	-0.305925
C147	C	-0.169929	-0.556111	-0.260864
H148	H	-0.173896	-0.575961	-0.324266
H149	H	-0.168533	-0.476166	-0.314284
H150	H	-0.127573	-0.545027	-0.309786
H151	H	-0.201469	-0.547832	-0.257002
H152	H	-0.160511	-0.616715	-0.252502
H153	H	0.493790	-0.539572	-0.253079
H154	H	0.270213	-0.272132	-0.128052
H155	H	0.747311	-0.597029	-0.671883
H156	H	0.279644	-0.597370	-0.280134
C157	C	0.001086	-0.601633	-0.282163
C158	C	0.047574	-0.613843	-0.287867
H159	H	-0.013699	-0.640832	-0.300506
H160	H	-0.006245	-0.614754	-0.251595
H161	H	-0.008326	-0.541033	-0.290529
H162	H	0.056987	-0.674441	-0.279498
H163	H	0.054909	-0.600728	-0.318442
C164	C	0.591337	-0.197930	-0.564500
C165	C	0.567660	-0.255853	-0.589797
H166	H	0.570716	-0.158780	-0.549701
H167	H	0.609423	-0.232297	-0.542835
H168	H	0.609924	-0.163420	-0.583810
H169	H	0.549075	-0.290369	-0.570487
H170	H	0.549566	-0.221483	-0.611465
H171	H	0.599785	-1.090465	-0.266069
H172	H	0.747307	-0.597054	-0.586764
C173	C	0.614283	-0.672131	-0.251439
C174	C	0.610897	-0.764775	-0.254854
H175	H	0.593851	-0.640169	-0.271829
H176	H	0.607276	-0.656746	-0.221689
H177	H	0.644017	-0.656649	-0.258491
H178	H	0.581163	-0.780259	-0.247799
H179	H	0.617900	-0.780167	-0.284611
H180	H	0.044351	-0.272186	-0.128069
H181	H	0.129456	-0.272176	-0.128060
H182	H	0.594829	-0.919526	-0.270952
H183	H	0.576318	-0.272260	-0.681122
H184	H	0.194540	-0.597375	-0.280147
C185	C	0.434451	-0.606746	-0.284508
C186	C	0.402474	-0.556041	-0.260799
H187	H	0.419674	-0.645964	-0.302847
H188	H	0.451637	-0.567485	-0.302848
H189	H	0.453722	-0.641189	-0.263906
H190	H	0.383204	-0.521593	-0.281402
H191	H	0.385279	-0.595307	-0.242458
C192	C	-0.110462	-0.262825	-0.123680
C193	C	-0.078486	-0.313519	-0.147395
H194	H	-0.095685	-0.223616	-0.105336
H195	H	-0.129734	-0.228381	-0.144275
H196	H	-0.127649	-0.302100	-0.105340
H197	H	-0.061301	-0.274244	-0.165737
H198	H	-0.059206	-0.347965	-0.126797
H199	H	0.576308	-0.272240	-0.736772
C200	C	0.719184	-0.543405	-1.082802
C201	C	0.725592	-0.555609	-1.036319
H202	H	0.739806	-0.582548	-1.097604
H203	H	0.689381	-0.556607	-1.090094
H204	H	0.724025	-0.482786	-1.092232
H205	H	0.720747	-0.616227	-1.026888
H206	H	0.755402	-0.542414	-1.029023
H207	H	0.606708	-0.330037	-0.378543
C208	C	0.206977	-0.204961	-0.096647
C209	C	0.177942	-0.255677	-0.120359
H210	H	0.189925	-0.165737	-0.078315
H211	H	0.226386	-0.244215	-0.078298
H212	H	0.224307	-0.170525	-0.117247
H213	H	0.160615	-0.290119	-0.099759
H214	H	0.158526	-0.216418	-0.138709
C215	C	0.752252	-0.606291	-0.966900
C216	C	0.725590	-0.555669	-0.937835
H217	H	0.772873	-0.645452	-0.949871
H218	H	0.733662	-0.640782	-0.984194
H219	H	0.768310	-0.566967	-0.986342
H220	H	0.709530	-0.594993	-0.918396
H221	H	0.744182	-0.521175	-0.920533
C222	C	0.782632	-0.664067	-0.749439
C223	C	0.755971	-0.613445	-0.720372
H224	H	0.803255	-0.703223	-0.732411
H225	H	0.764041	-0.698563	-0.766729
H226	H	0.798685	-0.624742	-0.768884
H227	H	0.739915	-0.652769	-0.700929
H228	H	0.774564	-0.578946	-0.703074
C229	C	0.752257	-0.606488	-0.431971
C230	C	0.725595	-0.555838	-0.463916
H231	H	0.772871	-0.645649	-0.446773
H232	H	0.768318	-0.567188	-0.414817
H233	H	0.733663	-0.640988	-0.412663
H234	H	0.744189	-0.521332	-0.483222
H235	H	0.709533	-0.595142	-0.481078
C236	C	0.540990	-0.205141	-0.799975
C237	C	0.567652	-0.255771	-0.829036
H238	H	0.520375	-0.165973	-0.817008
H239	H	0.524930	-0.244452	-0.780536
H240	H	0.559583	-0.170648	-0.782678
H241	H	0.549059	-0.290269	-0.846331
H242	H	0.583713	-0.216455	-0.848483
C243	C	0.571373	-0.262750	-0.976659
C244	C	0.598037	-0.313404	-0.944717
H245	H	0.550750	-0.223612	-0.961854
H246	H	0.589961	-0.228233	-0.995957
H247	H	0.555318	-0.302055	-0.993823
H248	H	0.614095	-0.274100	-0.927555
H249	H	0.579446	-0.347924	-0.925411
C250	C	0.570648	-0.364244	-1.068706
C251	C	0.598039	-0.313365	-1.043212
H252	H	0.550030	-0.325087	-1.085741
H253	H	0.588744	-0.398593	-1.088408
H254	H	0.554588	-0.403546	-1.049255
H255	H	0.614102	-0.274066	-1.062663
H256	H	0.579941	-0.279000	-1.023507
H257	H	-0.078603	-0.539647	-0.253151
