data_functionalizedCrystal
_audit_creation_method	'MofGen! by Chris Wilmer'
_symmetry_space_group_name_H-M	'P1'
_symmetry_Int_Tables_number	1
_symmetry_cell_setting	triclinic
loop_
_symmetry_equiv_pos_as_xyz
  x,y,z
_cell_length_a	10.540495
_cell_length_b	10.065918
_cell_length_c	11.026607
_cell_angle_alpha	82.347411
_cell_angle_beta	96.546762
_cell_angle_gamma	80.216653
loop_
_atom_site_label
_atom_site_type_symbol
_atom_site_fract_x
_atom_site_fract_y
_atom_site_fract_z
O1	O	-1.743720	0.113540	-0.187109
O2	O	-1.243720	0.613540	0.312891
O3	O	-1.377847	0.113531	-0.203308
O4	O	-0.877847	0.613531	0.296692
O5	O	-1.530460	0.113533	-0.018297
O6	O	-1.030460	0.613533	0.481703
O7	O	-1.591107	0.113538	-0.372120
O8	O	-1.091107	0.613538	0.127880
O9	O	-1.489811	-0.113457	0.013725
O10	O	-0.989811	0.386543	0.513725
O11	O	-1.337198	-0.113459	-0.171286
O12	O	-0.837198	0.386541	0.328714
O13	O	-1.703071	-0.113450	-0.155087
O14	O	-1.203071	0.386550	0.344913
Zn15	Zn	-1.513681	-0.149494	-0.158102
Zn16	Zn	-1.013681	0.350506	0.341898
Zn17	Zn	-1.567237	0.149575	-0.200293
Zn18	Zn	-1.067237	0.649575	0.299707
O19	O	-1.550458	-0.113452	-0.340098
O20	O	-1.050458	0.386548	0.159902
C21	C	-1.309955	0.000035	-0.186093
C22	C	-0.809955	0.500035	0.313907
C23	C	-1.168215	0.000032	-0.182492
C24	C	-0.668215	0.500032	0.317508
C25	C	-1.126491	0.000035	-0.314806
C26	C	-0.626491	0.500035	0.185194
C27	C	-0.979159	0.000554	-0.311178
C28	C	-0.479159	0.500554	0.188822
C29	C	-0.983284	0.129405	-0.128799
C30	C	-0.483284	0.629405	0.371201
C31	C	-1.130860	0.129509	-0.133453
C32	C	-0.630860	0.629509	0.366547
C33	C	-1.084607	-0.128630	-0.095079
C34	C	-0.584607	0.371370	0.404921
C35	C	-0.937046	-0.130326	-0.093572
C36	C	-0.437046	0.369674	0.406428
C37	C	-0.770965	0.000044	-0.172317
C38	C	-0.270965	0.500044	0.327683
C39	C	-0.912708	0.000041	-0.175966
C40	C	-0.412708	0.500041	0.324034
N41	N	-1.477139	-0.353600	-0.129307
N42	N	-0.977139	0.146400	0.370693
C43	C	-1.554515	-0.421377	-0.190274
C44	C	-1.054515	0.078623	0.309726
C45	C	-1.526400	-0.578545	-0.168102
C46	C	-1.026400	-0.078545	0.331898
C47	C	-1.581971	0.000044	-0.401415
C48	C	-1.081971	0.500044	0.098585
C49	C	-1.615324	0.000047	-0.536414
C50	C	-1.115324	0.500047	-0.036414
N51	N	-1.603787	0.353681	-0.229078
N52	N	-1.103787	0.853681	0.270922
C53	C	-1.523232	0.000045	-0.609435
C54	C	-1.023232	0.500045	-0.109435
C55	C	-1.557702	0.000048	-0.748963
C56	C	-1.057702	0.500048	-0.248963
C57	C	-1.498948	0.000040	0.043020
C58	C	-0.998948	0.500040	0.543020
C59	C	-1.465597	0.000046	0.178017
C60	C	-0.965597	0.500046	0.678017
H61	H	-1.184892	0.092668	-0.380759
H62	H	-0.684892	0.592668	0.119241
F63	F	-1.694121	0.000062	-0.802255
F64	F	-1.194121	0.500062	-0.302255
H65	H	-1.690854	-0.587996	-0.297691
H66	H	-1.190854	-0.087996	0.202309
H67	H	-0.965353	0.093833	-0.375569
H68	H	-0.465353	0.593833	0.124431
H69	H	-1.361229	0.000050	-0.781210
H70	H	-0.861229	0.500050	-0.281210
F71	F	-1.751737	0.000061	-0.589711
F72	F	-1.251737	0.500061	-0.089711
F73	F	-0.916422	-0.120621	-0.361343
F74	F	-0.416422	0.379379	0.138657
F75	F	-1.412605	-0.654774	-0.078409
F76	F	-0.912605	-0.154774	0.421591
H77	H	-1.150178	-0.092717	-0.355392
H78	H	-0.650178	0.407283	0.144608
H79	H	-1.418872	0.000050	-0.568655
H80	H	-0.918872	0.500050	-0.068655
H81	H	-1.186932	0.226581	-0.194921
H82	H	-0.686932	0.726581	0.305079
F83	F	-0.926742	0.135218	0.000117
F84	F	-0.426742	0.635218	0.500117
F85	F	-1.167076	0.136720	-0.007434
F86	F	-0.667076	0.636720	0.492566
H87	H	-0.967805	0.226044	-0.187273
H88	H	-0.467805	0.726044	0.312727
H89	H	-0.889383	-0.226031	-0.127878
H90	H	-0.389383	0.273969	0.372122
F91	F	-0.875305	-0.141052	0.036690
F92	F	-0.375305	0.358948	0.536690
F93	F	-1.118158	-0.130279	0.032710
F94	F	-0.618158	0.369721	0.532710
F95	F	-1.115423	-0.256831	-0.134556
F96	F	-0.615423	0.243169	0.365444
H97	H	-1.641577	-0.363048	-0.258880
H98	H	-1.141577	0.136952	0.241120
F99	F	-1.363351	-0.429834	-0.039619
F100	F	-0.863351	0.070166	0.460381
