data_functionalizedCrystal
_audit_creation_method	'MofGen! by Chris Wilmer'
_symmetry_space_group_name_H-M	'P1'
_symmetry_Int_Tables_number	1
_symmetry_cell_setting	triclinic
loop_
_symmetry_equiv_pos_as_xyz
  x,y,z
_cell_length_a	16.959454
_cell_length_b	13.033291
_cell_length_c	13.032268
_cell_angle_alpha	90.920764
_cell_angle_beta	82.849649
_cell_angle_gamma	97.190157
loop_
_atom_site_label
_atom_site_type_symbol
_atom_site_fract_x
_atom_site_fract_y
_atom_site_fract_z
Zn1	Zn	-0.245916	1.498447	0.781492
Zn2	Zn	0.254084	1.998447	1.281492
Zn3	Zn	-0.359507	1.520183	0.609523
Zn4	Zn	0.140493	2.020183	1.109523
Zn5	Zn	-0.241742	1.348308	0.587667
Zn6	Zn	0.258258	1.848308	1.087667
Zn7	Zn	-0.392459	1.326432	0.759565
Zn8	Zn	0.107541	1.826432	1.259565
O9	O	-0.309906	1.423343	0.684562
O10	O	0.190094	1.923343	1.184562
O11	O	-0.248941	1.645250	0.777003
O12	O	0.251059	2.145250	1.277003
O13	O	-0.328349	1.515635	0.462715
O14	O	0.171651	2.015635	0.962715
O15	O	-0.131682	1.368283	0.613408
O16	O	0.368318	1.868283	1.113408
O17	O	-0.332396	1.661219	0.650659
O18	O	0.167604	2.161219	1.150659
O19	O	-0.134749	1.478590	0.755810
O20	O	0.365251	1.978590	1.255810
O21	O	-0.241827	1.389359	0.446657
O22	O	0.258173	1.889359	0.946657
O23	O	-0.273778	1.201486	0.592147
O24	O	0.226222	1.701486	1.092147
O25	O	-0.388556	1.330998	0.906383
O26	O	0.111444	1.830998	1.406383
O27	O	-0.384509	1.185414	0.718439
O28	O	0.115491	1.685414	1.218439
O29	O	-0.280892	1.457377	0.922492
O30	O	0.219108	1.957377	1.422492
O31	O	-0.474492	1.494423	0.629397
O32	O	0.025508	1.994423	1.129397
O33	O	-0.498701	1.352075	0.739632
O34	O	0.001299	1.852075	1.239632
C35	C	-0.332267	1.156134	0.650543
C36	C	0.167733	1.656134	1.150543
C37	C	-0.341855	1.041817	0.636013
C38	C	0.158145	1.541817	1.136013
C39	C	-0.314825	0.864788	0.677137
C40	C	0.185175	1.364788	1.177137
C41	C	-0.304917	0.982940	0.692153
C42	C	0.195083	1.482940	1.192153
C43	C	-0.515278	1.423259	0.684533
C44	C	-0.015278	1.923259	1.184533
C45	C	-0.603132	1.423312	0.684568
C46	C	-0.103132	1.923312	1.184568
C47	C	-0.987231	1.349318	0.741966
C48	C	-0.487231	1.849318	1.241966
C49	C	-0.961965	1.497640	0.627299
C50	C	-0.461965	1.997640	1.127299
C51	C	-0.879421	1.497605	0.627284
C52	C	-0.379421	1.997605	1.127284
C53	C	-0.850779	1.423425	0.684611
C54	C	-0.350779	1.923425	1.184611
C55	C	-0.904680	1.349279	0.741952
C56	C	-0.404680	1.849279	1.241952
C57	C	-0.825513	1.571743	0.569937
C58	C	-0.325513	2.071743	1.069937
C59	C	-0.742964	1.571711	0.569919
C60	C	-0.242964	2.071711	1.069919
C61	C	-0.714320	1.497534	0.627253
C62	C	-0.214320	1.997534	1.127253
C63	C	-0.768227	1.423386	0.684596
C64	C	-0.268227	1.923386	1.184596
C65	C	-0.739585	1.349206	0.741923
C66	C	-0.239585	1.849206	1.241923
C67	C	-0.793491	1.275061	0.799273
C68	C	-0.293491	1.775061	1.299273
C69	C	-0.876037	1.275102	0.799285
C70	C	-0.376037	1.775102	1.299285
C71	C	-0.631775	1.497493	0.627241
C72	C	-0.131775	1.997493	1.127241
C73	C	-0.657034	1.349167	0.741908
C74	C	-0.157034	1.849167	1.241908
C75	C	-0.103733	1.423452	0.684616
C76	C	0.396267	1.923452	1.184616
C77	C	-0.015874	1.423499	0.684640
C78	C	0.484126	1.923499	1.184640
C79	C	-0.338866	1.389323	0.952795
C80	C	0.161134	1.889323	1.452795
C81	C	-0.351206	1.374826	1.067100
C82	C	0.148794	1.874826	1.567100
C83	C	-0.287458	1.691595	0.718715
C84	C	0.212542	2.191595	1.218715
C85	C	-0.277892	1.805908	0.733268
C86	C	0.222108	2.305908	1.233268
C87	C	-0.280997	1.457289	0.417380
C88	C	0.219003	1.957289	0.917380
C89	C	-0.268417	1.471985	0.303101
C90	C	0.231583	1.971985	0.803101
C91	C	-0.303438	1.430893	1.126031
C92	C	0.196562	1.930893	1.626031
C93	C	-0.316192	1.415911	1.244171
C94	C	0.183808	1.915911	1.744171
H95	H	-0.238934	0.842971	0.792437
H96	H	0.261066	1.342971	1.292437
Br97	Br	-0.435104	1.276322	1.128772
Br98	Br	0.064896	1.776322	1.628772
Br99	Br	-0.219513	1.529357	1.064354
Br100	Br	0.280487	2.029357	1.564354
H101	H	-1.031125	1.288954	0.788663
H102	H	-0.531125	1.788954	1.288663
Br103	Br	-0.618169	1.248495	0.819722
Br104	Br	-0.118169	1.748495	1.319722
Br105	Br	-0.400093	1.317402	1.305839
Br106	Br	0.099907	1.817402	1.805839
Br107	Br	-0.406781	0.980064	0.537370
Br108	Br	0.093219	1.480064	1.037370
H109	H	-0.218071	1.531076	1.266097
H110	H	0.281929	2.031076	1.766097
Br111	Br	-1.000837	1.598307	0.549500
Br112	Br	-0.500837	2.098307	1.049500
Br113	Br	-0.949197	1.174487	0.877110
Br114	Br	-0.449197	1.674487	1.377110
H115	H	-0.353776	0.827726	0.617959
H116	H	0.146224	1.327726	1.117959
H117	H	-0.265956	1.019998	0.751325
H118	H	0.234044	1.519998	1.251325
H119	H	-0.770161	1.214659	0.845944
H120	H	-0.270161	1.714659	1.345944
H121	H	-0.848840	1.632130	0.523256
H122	H	-0.348840	2.132130	1.023256
Br123	Br	-0.669814	1.672339	0.492098
Br124	Br	-0.169814	2.172339	0.992098
Br125	Br	-0.558621	1.598096	0.549399
Br126	Br	-0.058621	2.098096	1.049399
