data_functionalizedCrystal
_audit_creation_method	'MofGen! by Chris Wilmer'
_symmetry_space_group_name_H-M	'P1'
_symmetry_Int_Tables_number	1
_symmetry_cell_setting	triclinic
loop_
_symmetry_equiv_pos_as_xyz
  x,y,z
_cell_length_a	11.792241
_cell_length_b	14.044220
_cell_length_c	10.268362
_cell_angle_alpha	89.993803
_cell_angle_beta	89.999626
_cell_angle_gamma	88.691147
loop_
_atom_site_label
_atom_site_type_symbol
_atom_site_fract_x
_atom_site_fract_y
_atom_site_fract_z
O1	O	1.519112	0.129987	-0.108177
O2	O	1.769112	0.379987	0.141823
O3	O	2.019112	0.629987	0.391823
O4	O	2.269112	0.879987	0.641823
O5	O	1.190028	0.143384	-0.108207
O6	O	1.440028	0.393384	0.141793
O7	O	1.690028	0.643384	0.391793
O8	O	1.940028	0.893384	0.641793
O9	O	1.349630	-0.001325	-0.108180
O10	O	1.599630	0.248675	0.141820
O11	O	1.849630	0.498675	0.391820
O12	O	2.099630	0.748675	0.641820
O13	O	1.359509	0.274695	-0.108204
O14	O	1.609509	0.524695	0.141796
O15	O	1.859509	0.774695	0.391796
O16	O	2.109509	1.024695	0.641796
O17	O	1.349615	-0.001331	0.108421
O18	O	1.599615	0.248669	0.358421
O19	O	1.849615	0.498669	0.608421
O20	O	2.099615	0.748669	0.858421
O21	O	1.190012	0.143378	0.108393
O22	O	1.440012	0.393378	0.358393
O23	O	1.690012	0.643378	0.608393
O24	O	1.940012	0.893378	0.858393
O25	O	1.519096	0.129981	0.108424
O26	O	1.769096	0.379981	0.358424
O27	O	2.019096	0.629981	0.608424
O28	O	2.269096	0.879981	0.858424
Cu29	Cu	1.354553	0.136679	0.128186
Cu30	Cu	1.604553	0.386679	0.378186
Cu31	Cu	1.854553	0.636679	0.628186
Cu32	Cu	2.104553	0.886679	0.878186
Cu33	Cu	1.354571	0.136686	-0.127969
Cu34	Cu	1.604571	0.386686	0.122031
Cu35	Cu	1.854571	0.636686	0.372031
Cu36	Cu	2.104571	0.886686	0.622031
O37	O	1.359494	0.274689	0.108396
O38	O	1.609494	0.524689	0.358396
O39	O	1.859494	0.774689	0.608396
O40	O	2.109494	1.024689	0.858396
C41	C	1.147650	0.142539	0.000089
C42	C	1.397650	0.392539	0.250089
C43	C	1.647650	0.642539	0.500089
C44	C	1.897650	0.892539	0.750089
C45	C	1.021400	0.140020	0.000078
C46	C	1.271400	0.390020	0.250078
C47	C	1.521400	0.640020	0.500078
C48	C	1.771400	0.890020	0.750078
C49	C	0.790253	0.135389	0.000116
C50	C	1.040253	0.385389	0.250116
C51	C	1.290253	0.635389	0.500116
C52	C	1.540253	0.885389	0.750116
C53	C	0.918880	0.137962	0.000095
C54	C	1.168880	0.387962	0.250095
C55	C	1.418880	0.637962	0.500095
C56	C	1.668880	0.887962	0.750095
C57	C	1.345298	-0.036664	0.000121
C58	C	1.595298	0.213336	0.250121
C59	C	1.845298	0.463336	0.500121
C60	C	2.095298	0.713336	0.750121
C61	C	1.332399	-0.141956	0.000121
C62	C	1.582399	0.108044	0.250121
C63	C	1.832399	0.358044	0.500121
C64	C	2.082399	0.608044	0.750121
C65	C	1.308817	-0.334739	0.000100
C66	C	1.558817	-0.084739	0.250100
C67	C	1.808817	0.165261	0.500100
C68	C	2.058817	0.415261	0.750100
C69	C	1.400302	-0.391902	0.000105
C70	C	1.650302	-0.141902	0.250105
C71	C	1.900302	0.108098	0.500105
C72	C	2.150302	0.358098	0.750105
C73	C	1.387181	-0.499173	0.000093
C74	C	1.637181	-0.249173	0.250093
C75	C	1.887181	0.000827	0.500093
C76	C	2.137181	0.250827	0.750093
C77	C	1.321937	-0.227458	0.000112
C78	C	1.571937	0.022542	0.250112
C79	C	1.821937	0.272542	0.500112
C80	C	2.071937	0.522542	0.750112
C81	C	1.561474	0.130826	0.000125
C82	C	1.811474	0.380826	0.250125
C83	C	2.061474	0.630826	0.500125
C84	C	2.311474	0.880826	0.750125
C85	C	1.687724	0.133344	0.000127
C86	C	1.937724	0.383344	0.250127
C87	C	2.187724	0.633344	0.500127
C88	C	2.437724	0.883344	0.750127
C89	C	1.363826	0.310029	0.000093
C90	C	1.613826	0.560029	0.250093
C91	C	1.863826	0.810029	0.500093
C92	C	2.113826	1.060029	0.750093
C93	C	1.376725	0.415321	0.000084
C94	C	1.626725	0.665321	0.250084
C95	C	1.876725	0.915321	0.500084
C96	C	2.126725	1.165321	0.750084
N97	N	1.354548	0.136673	0.308352
N98	N	1.604548	0.386673	0.558352
N99	N	1.854548	0.636673	0.808352
N100	N	2.104548	0.886673	1.058352
N101	N	1.354584	0.136684	-0.308135
N102	N	1.604584	0.386684	-0.058135
N103	N	1.854584	0.636684	0.191865
N104	N	2.104584	0.886684	0.441865
C105	C	1.354565	0.136684	0.574022
C106	C	1.604565	0.386684	0.824022
C107	C	1.854565	0.636684	1.074022
C108	C	2.104565	0.886684	1.324022
C109	C	1.354552	0.136681	0.426185
C110	C	1.604552	0.386681	0.676185
C111	C	1.854552	0.636681	0.926185
C112	C	2.104552	0.886681	1.176185
H113	H	1.220647	-0.366361	0.000089
H114	H	1.470647	-0.116361	0.250089
H115	H	1.720647	0.133639	0.500089
H116	H	1.970647	0.383639	0.750089
C117	C	1.517783	-0.349560	0.000197
C118	C	1.767783	-0.099560	0.250197
C119	C	2.017783	0.150440	0.500197
C120	C	2.267783	0.400440	0.750197
C121	C	1.507615	-0.250037	0.000241
C122	C	1.757615	-0.000037	0.250241
C123	C	2.007615	0.249963	0.500241
C124	C	2.257615	0.499963	0.750241
C125	C	1.615808	-0.210995	0.000349
C126	C	1.865808	0.039005	0.250349
C127	C	2.115808	0.289005	0.500349
C128	C	2.365808	0.539005	0.750349
H129	H	1.557980	-0.370031	-0.075309
H130	H	1.807980	-0.120031	0.174691
H131	H	2.057980	0.129969	0.424691
H132	H	2.307980	0.379969	0.674691
H133	H	1.557871	-0.370105	0.075768
H134	H	1.807871	-0.120105	0.325768
H135	H	2.057871	0.129895	0.575768
H136	H	2.307871	0.379895	0.825768
H137	H	1.467543	-0.229501	-0.075321
H138	H	1.717543	0.020499	0.174679
H139	H	1.967543	0.270499	0.424679
H140	H	2.217543	0.520499	0.674679
H141	H	1.467438	-0.229540	0.075742
H142	H	1.717438	0.020460	0.325742
H143	H	1.967438	0.270460	0.575742
H144	H	2.217438	0.520460	0.825742
H145	H	1.655897	-0.231540	0.075919
H146	H	1.905897	0.018460	0.325919
H147	H	2.155897	0.268460	0.575919
H148	H	2.405897	0.518460	0.825919
H149	H	1.655997	-0.231473	-0.075159
H150	H	1.905997	0.018527	0.174841
H151	H	2.155997	0.268527	0.424841
H152	H	2.405997	0.518527	0.674841
H153	H	1.608924	-0.143466	0.000391
H154	H	1.858924	0.106534	0.250391
H155	H	2.108924	0.356534	0.500391
H156	H	2.358924	0.606534	0.750391
