data_functionalizedCrystal
_audit_creation_method	'MofGen! by Chris Wilmer'
_symmetry_space_group_name_H-M	'P1'
_symmetry_Int_Tables_number	1
_symmetry_cell_setting	triclinic
loop_
_symmetry_equiv_pos_as_xyz
  x,y,z
_cell_length_a	17.699083
_cell_length_b	11.804365
_cell_length_c	17.699083
_cell_angle_alpha	78.194645
_cell_angle_beta	96.716985
_cell_angle_gamma	78.182581
loop_
_atom_site_label
_atom_site_type_symbol
_atom_site_fract_x
_atom_site_fract_y
_atom_site_fract_z
O1	O	-1.019367	0.098847	0.080429
O2	O	-0.798995	0.098889	0.092875
O3	O	-0.915405	0.098856	-0.023535
O4	O	-0.902956	0.098880	0.196839
O5	O	-0.884759	-0.099191	0.007080
O6	O	-0.768348	-0.099158	0.123490
O7	O	-0.988720	-0.099200	0.111045
Cu8	Cu	-0.875736	-0.117263	0.120063
Cu9	Cu	-0.911979	0.116951	0.083856
O10	O	-0.872310	-0.099168	0.227455
C11	C	-0.755475	-0.000129	0.107736
C12	C	-0.671460	-0.000114	0.106395
N13	N	-0.850250	-0.281996	0.145528
C14	C	-0.622840	-0.000106	0.174727
C15	C	-0.543894	-0.000121	0.173467
C16	C	-0.513571	-0.000134	0.103873
C17	C	-0.562197	-0.000145	0.035536
C18	C	-0.641140	-0.000139	0.036798
C19	C	-0.243830	-0.000172	0.030444
C20	C	-0.164881	-0.000174	0.029187
C21	C	-0.146585	-0.000153	0.167114
C22	C	-0.225527	-0.000147	0.168376
C23	C	-0.274145	-0.000164	0.100040
C24	C	-0.359746	-0.000151	0.101408
C25	C	-0.427973	-0.000139	0.102503
C26	C	-0.998671	-0.655986	-0.002781
C27	C	-1.017950	-0.531330	-0.022048
C28	C	-0.976027	-0.468990	0.019844
C29	C	-0.914821	-0.531319	0.081008
C30	C	-0.895544	-0.655988	0.100281
C31	C	-0.872900	-0.468992	0.122906
C32	C	-0.811694	-0.531321	0.184069
C33	C	-0.792420	-0.655977	0.203339
C34	C	-0.834344	-0.718317	0.161447
C35	C	-0.892177	-0.344323	0.103632
C36	C	-0.789050	-0.344325	0.206694
C37	C	-0.769771	-0.468981	0.225962
C38	C	-0.032241	-0.000176	0.096183
C39	C	-0.116259	-0.000175	0.097521
C40	C	-0.899636	-0.000167	-0.036425
C41	C	-0.898297	-0.000168	-0.120443
N42	N	-0.937471	0.281685	0.058385
C43	C	-0.966628	-0.000182	-0.169061
C44	C	-0.965368	-0.000171	-0.248006
C45	C	-0.895774	-0.000155	-0.278330
C46	C	-0.827438	-0.000136	-0.229705
C47	C	-0.828701	-0.000139	-0.150763
C48	C	-0.822344	-0.000126	-0.548070
C49	C	-0.821086	-0.000127	-0.627018
C50	C	-0.959011	-0.000159	-0.645313
C51	C	-0.960274	-0.000161	-0.566371
C52	C	-0.891940	-0.000136	-0.517755
C53	C	-0.893308	-0.000146	-0.432154
C54	C	-0.894404	-0.000154	-0.363928
C55	C	-0.888080	-0.000141	0.240344
C56	C	-0.889420	-0.000133	0.324361
H57	H	-0.647522	-0.000094	0.231399
Br58	Br	-0.477913	-0.000107	0.266207
Br59	Br	-0.266677	-0.000118	0.262827
H60	H	-0.106989	-0.000145	0.222757
H61	H	-0.991727	-0.367490	0.004154
Br62	Br	-0.729606	-0.000085	-0.482102
H63	H	-0.537499	-0.000173	-0.021127
Br64	Br	-0.707124	-0.000160	-0.055941
Br65	Br	-0.732991	-0.000093	-0.270861
H66	H	-1.016943	-0.000180	-0.541686
H67	H	-1.023298	-0.000203	-0.144378
Br68	Br	-1.051753	-0.000191	-0.711297
Br69	Br	-0.975239	-0.259750	0.020629
H70	H	-0.764411	-0.000116	-0.651703
H71	H	-0.140196	-0.000187	-0.027488
H72	H	-0.754913	-0.293569	0.240808
H73	H	-0.773058	-0.000126	-0.111178
H74	H	-0.283405	-0.000187	-0.025199
Br75	Br	-1.055571	-0.740589	-0.059620
Br76	Br	-1.101012	-0.446742	-0.105049
Br77	Br	-0.808172	-0.887501	0.187593
H78	H	-0.742589	-0.706725	0.253148
H79	H	-0.719936	-0.519745	0.275763
Br80	Br	-1.058107	-0.000191	-0.313987
