data_functionalizedCrystal
_audit_creation_method	'MofGen! by Chris Wilmer'
_symmetry_space_group_name_H-M	'P1'
_symmetry_Int_Tables_number	1
_symmetry_cell_setting	triclinic
loop_
_symmetry_equiv_pos_as_xyz
  x,y,z
_cell_length_a	14.908520
_cell_length_b	11.169417
_cell_length_c	11.169409
_cell_angle_alpha	89.979747
_cell_angle_beta	93.260433
_cell_angle_gamma	93.321755
loop_
_atom_site_label
_atom_site_type_symbol
_atom_site_fract_x
_atom_site_fract_y
_atom_site_fract_z
Zn1	Zn	-0.359054	1.807308	-0.706049
Zn2	Zn	0.140946	2.307308	-0.206049
Zn3	Zn	-0.509946	1.795569	-0.516930
Zn4	Zn	-0.009946	2.295569	-0.016930
Zn5	Zn	-0.359110	1.606587	-0.505389
Zn6	Zn	0.140890	2.106587	-0.005389
Zn7	Zn	-0.509874	1.594982	-0.717571
Zn8	Zn	-0.009874	2.094982	-0.217571
O9	O	-0.434496	1.701112	-0.611485
O10	O	0.065504	2.201112	-0.111485
O11	O	-0.379077	1.973700	-0.680971
O12	O	0.120923	2.473700	-0.180971
O13	O	-0.489991	1.770445	-0.347453
O14	O	0.010009	2.270445	0.152547
O15	O	-0.232859	1.642983	-0.522356
O16	O	0.267141	2.142983	-0.022356
O17	O	-0.489937	1.965076	-0.542026
O18	O	0.010063	2.465076	-0.042026
O19	O	-0.232818	1.790452	-0.669780
O20	O	0.267182	2.290452	-0.169780
O21	O	-0.379172	1.631600	-0.338974
O22	O	0.120828	2.131600	0.161026
O23	O	-0.379102	1.437098	-0.533527
O24	O	0.120898	1.937098	-0.033527
O25	O	-0.489814	1.623203	-0.883988
O26	O	0.010186	2.123203	-0.383988
O27	O	-0.489868	1.428572	-0.689416
O28	O	0.010132	1.928572	-0.189416
O29	O	-0.379007	1.779198	-0.875523
O30	O	0.120993	2.279198	-0.375523
O31	O	-0.636181	1.759192	-0.553197
O32	O	-0.136181	2.259192	-0.053197
O33	O	-0.636128	1.611821	-0.700607
O34	O	-0.136128	2.111821	-0.200607
C35	C	-0.434484	1.389288	-0.611470
C36	C	0.065516	1.889288	-0.111470
C37	C	-0.434500	1.255887	-0.611494
C38	C	0.065500	1.755887	-0.111494
C39	C	-0.668888	1.683006	-0.629431
C40	C	-0.168888	2.183006	-0.129431
C41	C	-0.769161	1.675369	-0.637148
C42	C	-0.269161	2.175369	-0.137148
C43	C	-0.957581	1.814636	-0.498276
C44	C	-0.457581	2.314636	0.001724
C45	C	-1.051797	1.807465	-0.505523
C46	C	-0.551797	2.307465	-0.005523
C47	C	-1.051811	1.653864	-0.658895
C48	C	-0.551811	2.153864	-0.158895
C49	C	-0.957595	1.661035	-0.651648
C50	C	-0.457595	2.161035	-0.151648
C51	C	-0.910483	1.741422	-0.571334
C52	C	-0.410483	2.241422	-0.071334
C53	C	-0.816265	1.748586	-0.564082
C54	C	-0.316265	2.248586	-0.064082
C55	C	-0.816282	1.594992	-0.717459
C56	C	-0.316282	2.094992	-0.217459
C57	C	-0.910498	1.587821	-0.724706
C58	C	-0.410498	2.087821	-0.224706
C59	C	-0.199189	1.719321	-0.593495
C60	C	0.300811	2.219321	-0.093495
C61	C	-0.098915	1.727081	-0.585829
C62	C	0.401085	2.227081	-0.085829
C63	C	-0.434396	1.701215	-0.924520
C64	C	0.065604	2.201215	-0.424520
C65	C	-0.434354	1.701260	-1.057917
C66	C	0.065646	2.201260	-0.557917
C67	C	-0.434509	2.014153	-0.611500
C68	C	0.065491	2.514153	-0.111500
C69	C	-0.434514	2.147552	-0.611507
C70	C	0.065486	2.647552	-0.111507
C71	C	-0.434531	1.701082	-0.299663
C72	C	0.065469	2.201082	0.200337
C73	C	-0.434319	1.701290	-0.166247
C74	C	0.065681	2.201290	0.333753
H75	H	-0.777908	1.814038	-0.498683
H76	H	-0.277908	2.314038	0.001317
H77	H	-1.090186	1.588425	-0.724290
H78	H	-0.590186	2.088425	-0.224290
C79	C	-0.962332	1.499393	-0.813040
C80	C	-0.462332	1.999393	-0.313040
N81	N	-1.001372	1.432782	-0.879569
N82	N	-0.501372	1.932782	-0.379569
C83	C	-0.905755	1.903058	-0.409929
C84	C	-0.405755	2.403058	0.090071
N85	N	-0.866722	1.969662	-0.343386
N86	N	-0.366722	2.469662	0.156614
H87	H	-1.090140	1.867086	-0.446034
H88	H	-0.590140	2.367086	0.053966
H89	H	-0.777924	1.535373	-0.776945
H90	H	-0.277924	2.035373	-0.276945
