data_functionalizedCrystal
_audit_creation_method	'MofGen! by Chris Wilmer'
_symmetry_space_group_name_H-M	'P1'
_symmetry_Int_Tables_number	1
_symmetry_cell_setting	triclinic
loop_
_symmetry_equiv_pos_as_xyz
  x,y,z
_cell_length_a	19.188905
_cell_length_b	27.731996
_cell_length_c	17.666332
_cell_angle_alpha	89.987533
_cell_angle_beta	89.983521
_cell_angle_gamma	82.877971
loop_
_atom_site_label
_atom_site_type_symbol
_atom_site_fract_x
_atom_site_fract_y
_atom_site_fract_z
O1	O	0.925760	0.060292	-0.063083
O2	O	1.425760	0.560292	0.436917
O3	O	0.722392	0.068429	-0.063058
O4	O	1.222392	0.568429	0.436942
O5	O	0.830411	-0.006019	-0.063055
O6	O	1.330411	0.493981	0.436945
O7	O	0.817741	0.134740	-0.063086
O8	O	1.317741	0.634740	0.436914
O9	O	0.830392	-0.006023	0.062842
O10	O	1.330392	0.493977	0.562842
O11	O	0.722373	0.068425	0.062838
O12	O	1.222373	0.568425	0.562838
O13	O	0.925741	0.060288	0.062814
O14	O	1.425741	0.560288	0.562814
Cu15	Cu	0.824055	0.064356	0.074322
Cu16	Cu	1.324055	0.564356	0.574322
Cu17	Cu	0.824078	0.064361	-0.074566
Cu18	Cu	1.324078	0.564361	0.425434
O19	O	0.817722	0.134736	0.062811
O20	O	1.317722	0.634736	0.562811
C21	C	0.696373	0.068165	-0.000106
C22	C	1.196373	0.568165	0.499894
C23	C	0.618873	0.067380	-0.000096
C24	C	1.118873	0.567380	0.499904
C25	C	0.582494	0.067005	-0.068725
C26	C	1.082494	0.567005	0.431275
C27	C	0.509675	0.066262	-0.068734
C28	C	1.009675	0.566262	0.431266
C29	C	0.473240	0.065885	-0.000111
C30	C	0.973240	0.565885	0.499889
C31	C	0.509627	0.066262	0.068526
C32	C	1.009627	0.566262	0.568526
C33	C	0.582444	0.067010	0.068534
C34	C	1.082444	0.567010	0.568534
N35	N	0.364403	0.037201	0.050965
N36	N	0.864403	0.537201	0.550965
N37	N	0.295231	0.036490	0.050953
N38	N	0.795231	0.536490	0.550953
C39	C	0.253848	0.063633	-0.000129
C40	C	0.753848	0.563633	0.499871
N41	N	0.284253	0.091508	-0.051210
N42	N	0.784253	0.591508	0.448790
N43	N	0.353432	0.092218	-0.051201
N44	N	0.853432	0.592218	0.448799
C45	C	0.394283	0.065074	-0.000111
C46	C	0.894283	0.565074	0.499889
C47	C	0.138511	0.062453	-0.068772
C48	C	0.638511	0.562453	0.431228
C49	C	0.065690	0.061713	-0.068778
C50	C	0.565690	0.561713	0.431222
C51	C	0.065645	0.061708	0.068484
C52	C	0.565645	0.561708	0.568484
C53	C	0.138463	0.062453	0.068488
C54	C	0.638463	0.562453	0.568488
C55	C	0.174892	0.062823	-0.000142
C56	C	0.674892	0.562823	0.499858
C57	C	0.830141	-0.024029	-0.000104
C58	C	1.330141	0.475971	0.499896
C59	C	0.829357	-0.077688	-0.000096
C60	C	1.329357	0.422312	0.499904
C61	C	0.824435	-0.410417	-0.068759
C62	C	1.324435	0.089583	0.431241
C63	C	0.821458	-0.612084	-0.068772
C64	C	1.321458	-0.112084	0.431228
O65	O	0.821052	-0.638154	-0.127136
O66	O	1.321052	-0.138154	0.372864
N67	N	0.821078	-0.637305	-0.000146
N68	N	1.321078	-0.137305	0.499854
C69	C	0.821438	-0.612105	0.068488
C70	C	1.321438	-0.112105	0.568488
O71	O	0.821039	-0.638183	0.126858
O72	O	1.321039	-0.138183	0.626858
C73	C	0.824410	-0.410438	0.068500
C74	C	1.324410	0.089562	0.568500
C75	C	0.824797	-0.385221	-0.000130
C76	C	1.324797	0.114779	0.499870
C77	C	0.824822	-0.385200	-0.137383
C78	C	1.324822	0.114800	0.362617
C79	C	0.825570	-0.334786	-0.137380
C80	C	1.325570	0.165214	0.362620
C81	C	0.825931	-0.309590	-0.068751
C82	C	1.325931	0.190410	0.431249
C83	C	0.825545	-0.334807	-0.000126
C84	C	1.325545	0.165193	0.499874
C85	C	0.824765	-0.385238	0.137133
C86	C	1.324765	0.114762	0.637133
C87	C	0.825506	-0.334818	0.137130
C88	C	1.325506	0.165182	0.637130
C89	C	0.825893	-0.309601	0.068500
C90	C	1.325893	0.190399	0.568500
C91	C	0.826655	-0.259198	0.068506
C92	C	1.326655	0.240802	0.568506
N93	N	0.827035	-0.233977	-0.000120
N94	N	1.327035	0.266023	0.499880
C95	C	0.826673	-0.259174	-0.068748
C96	C	1.326673	0.240826	0.431252
C97	C	0.819879	-0.717983	0.068477
C98	C	1.319879	-0.217983	0.568477
C99	C	0.819137	-0.768399	0.068474
C100	C	1.319137	-0.268399	0.568474
C101	C	0.819156	-0.768375	-0.068786
C102	C	1.319156	-0.268375	0.431214
C103	C	0.819903	-0.717958	-0.068783
C104	C	1.319903	-0.217958	0.431217
C105	C	0.820259	-0.692762	-0.000149
C106	C	1.320259	-0.192762	0.499851
C107	C	0.828245	-0.153302	-0.068735
C108	C	1.328245	0.346698	0.431265
C109	C	0.828996	-0.102884	-0.068725
C110	C	1.328996	0.397116	0.431275
C111	C	0.828973	-0.102912	0.068535
C112	C	1.328973	0.397088	0.568535
C113	C	0.828226	-0.153326	0.068525
C114	C	1.328226	0.346674	0.568525
C115	C	0.827859	-0.178519	-0.000116
C116	C	1.327859	0.321481	0.499884
O117	O	0.827054	-0.233096	0.126840
O118	O	1.327054	0.266904	0.626840
O119	O	0.827056	-0.233085	-0.127109
O120	O	1.327056	0.266915	0.372891
C121	C	0.823687	-0.460830	-0.068763
C122	C	1.323687	0.039170	0.431237
C123	C	0.823301	-0.486048	-0.000138
C124	C	1.323301	0.013952	0.499862
C125	C	0.823663	-0.460851	0.068490
C126	C	1.323663	0.039149	0.568490
C127	C	0.822559	-0.536464	-0.000141
C128	C	1.322559	-0.036464	0.499859
C129	C	0.822198	-0.561660	-0.068770
C130	C	1.322198	-0.061660	0.431230
C131	C	0.822578	-0.536440	-0.137395
C132	C	1.322578	-0.036440	0.362605
C133	C	0.823326	-0.486027	-0.137391
C134	C	1.323326	0.013973	0.362609
C135	C	0.823283	-0.486072	0.137116
C136	C	1.323283	0.013928	0.637116
C137	C	0.822536	-0.536485	0.137107
C138	C	1.322536	-0.036485	0.637107
C139	C	0.822174	-0.561682	0.068478
C140	C	1.322174	-0.061682	0.568478
C141	C	0.951760	0.060551	-0.000139
C142	C	1.451760	0.560551	0.499861
C143	C	1.029260	0.061336	-0.000155
C144	C	1.529260	0.561336	0.499845
C145	C	0.817992	0.152746	-0.000142
C146	C	1.317992	0.652746	0.499858
C147	C	0.818776	0.206405	-0.000155
C148	C	1.318776	0.706405	0.499845
N149	N	0.824045	0.064352	0.179041
N150	N	1.324045	0.564352	0.679041
N151	N	0.824094	0.064360	-0.179285
N152	N	1.324094	0.564360	0.320715
C153	C	0.871891	0.031403	0.218652
C154	C	1.371891	0.531403	0.718652
C155	C	0.871895	0.031401	0.297900
C156	C	1.371895	0.531401	0.797900
C157	C	0.824060	0.064356	0.337533
C158	C	1.324060	0.564356	0.837533
C159	C	0.776205	0.097308	0.297912
C160	C	1.276205	0.597308	0.797912
C161	C	0.776197	0.097306	0.218666
C162	C	1.276197	0.597306	0.718666
N163	N	0.814699	0.107148	0.461943
N164	N	1.314699	0.607148	0.961943
N165	N	0.814710	0.107148	0.537223
N166	N	1.314710	0.607148	1.037223
C167	C	0.824078	0.064363	0.576297
C168	C	1.324078	0.564363	1.076297
N169	N	0.833448	0.021576	0.537247
N170	N	1.333448	0.521576	1.037247
N171	N	0.833440	0.021576	0.461959
N172	N	1.333440	0.521576	0.961959
C173	C	0.824062	0.064361	0.423462
C174	C	1.324062	0.564361	0.923462
C175	C	0.871931	0.031408	0.701838
C176	C	1.371931	0.531408	1.201838
C177	C	0.871930	0.031405	0.781087
C178	C	1.371930	0.531405	1.281087
C179	C	0.776243	0.097317	0.781098
C180	C	1.276243	0.597317	1.281098
C181	C	0.776241	0.097315	0.701850
C182	C	1.276241	0.597315	1.201850
C183	C	0.824088	0.064362	0.662225
C184	C	1.324088	0.564362	1.162225
H185	H	0.168084	0.062755	0.124373
H186	H	0.668084	0.562755	0.624373
N187	N	0.923494	-0.004142	0.175917
N188	N	1.423494	0.495858	0.675917
H189	H	0.897052	-0.025500	0.143057
H190	H	1.397052	0.474500	0.643057
H191	H	0.954184	0.014312	0.143062
H192	H	1.454184	0.514312	0.643062
N193	N	0.923500	-0.004140	0.340637
N194	N	1.423500	0.495860	0.840637
H195	H	0.953809	-0.025017	0.303509
H196	H	1.453809	0.474983	0.803509
H197	H	0.954159	0.014316	0.373495
H198	H	1.454159	0.514316	0.873495
H199	H	0.036071	0.061411	-0.124666
H200	H	0.536071	0.561411	0.375334
H201	H	0.910890	0.004571	0.813339
H202	H	1.410890	0.504571	1.313339
N203	N	0.724646	0.132859	0.659116
N204	N	1.224646	0.632859	1.159116
H205	H	0.693936	0.114440	0.626257
H206	H	1.193936	0.614440	1.126257
H207	H	0.694388	0.153730	0.696290
H208	H	1.194388	0.653730	1.196290
H209	H	0.737292	0.124148	0.813367
H210	H	1.237292	0.624148	1.313367
H211	H	0.612150	0.067307	-0.124609
H212	H	1.112150	0.567307	0.375391
N213	N	0.026359	0.061298	0.142501
N214	N	0.526359	0.561298	0.642501
H215	H	-0.025291	0.060766	0.132084
H216	H	0.474709	0.560766	0.632084
H217	H	0.045080	0.031466	0.172470
H218	H	0.545080	0.531466	0.672470
N219	N	0.724614	0.132855	0.340657
N220	N	1.224614	0.632855	0.840657
H221	H	0.694301	0.153728	0.303535
H222	H	1.194301	0.653728	0.803535
H223	H	0.693960	0.114402	0.373559
H224	H	1.193960	0.614402	0.873559
N225	N	0.621685	0.067407	0.142558
N226	N	1.121685	0.567407	0.642558
H227	H	0.673342	0.067936	0.132150
H228	H	1.173342	0.567936	0.632150
H229	H	0.602951	0.097235	0.172521
H230	H	1.102951	0.597235	0.672521
H231	H	0.480049	0.065958	-0.124621
H232	H	0.980049	0.565958	0.375379
H233	H	0.829271	-0.082389	0.124410
H234	H	1.329271	0.417611	0.624410
H235	H	0.823578	-0.465562	0.193003
H236	H	1.323578	0.034438	0.693003
H237	H	0.737234	0.124138	0.186414
H238	H	1.237234	0.624138	0.686414
H239	H	0.818863	-0.788899	-0.124666
H240	H	1.318863	-0.288899	0.375334
N241	N	0.470398	0.065545	0.142541
N242	N	0.970398	0.565545	0.642541
H243	H	0.418770	0.064909	0.132122
H244	H	0.918770	0.564909	0.632122
H245	H	0.489321	0.035615	0.172174
H246	H	0.989321	0.535615	0.672174
H247	H	0.820217	-0.697430	-0.124667
H248	H	1.320217	-0.197430	0.375333
N249	N	0.177804	0.062855	-0.142791
N250	N	0.677804	0.562855	0.357209
H251	H	0.159146	0.092686	-0.172801
H252	H	0.659146	0.592686	0.327199
H253	H	0.229446	0.063363	-0.132312
H254	H	0.729446	0.563363	0.367688
N255	N	0.829416	-0.075686	-0.142750
N256	N	1.329416	0.424314	0.357250
H257	H	0.829072	-0.099301	-0.186224
H258	H	1.329072	0.400699	0.313776
H259	H	0.786428	-0.050750	-0.145736
H260	H	1.286428	0.449250	0.354264
H261	H	0.822286	-0.556964	-0.193275
H262	H	1.322286	-0.056964	0.306725
N263	N	0.823743	-0.458832	-0.211414
N264	N	1.323743	0.041168	0.288586
H265	H	0.823400	-0.482450	-0.254884
H266	H	1.323400	0.017550	0.245116
H267	H	0.780753	-0.433898	-0.214403
H268	H	1.280753	0.066102	0.285597
H269	H	0.910890	0.004574	0.669574
H270	H	1.410890	0.504574	1.169574
N271	N	0.818735	-0.795596	0.142496
N272	N	1.318735	-0.295596	0.642496
H273	H	0.819076	-0.771980	0.185968
H274	H	1.319076	-0.271980	0.685968
H275	H	0.775127	-0.812500	0.145493
H276	H	1.275127	-0.312500	0.645493
H277	H	0.827943	-0.173808	-0.124629
H278	H	1.327943	0.326192	0.375371
N279	N	0.825983	-0.307591	-0.211402
N280	N	1.325983	0.192409	0.288598
H281	H	0.825638	-0.331209	-0.254873
H282	H	1.325638	0.168791	0.245127
H283	H	0.782991	-0.282658	-0.214388
H284	H	1.282991	0.217342	0.285612
N285	N	0.824471	-0.412364	-0.211419
N286	N	1.324471	0.087636	0.288581
H287	H	0.781321	-0.399573	-0.241443
H288	H	1.281321	0.100427	0.258557
H289	H	0.867948	-0.407571	-0.241325
H290	H	1.367948	0.092429	0.258675
N291	N	0.820271	-0.690810	0.142505
N292	N	1.320271	-0.190810	0.642505
H293	H	0.776842	-0.695577	0.172516
H294	H	1.276842	-0.195577	0.672516
H295	H	0.863468	-0.703621	0.172435
H296	H	1.363468	-0.203621	0.672435
N297	N	0.824348	-0.412429	0.211156
N298	N	1.324348	0.087571	0.711156
H299	H	0.824686	-0.388809	0.254625
H300	H	1.324686	0.111191	0.754625
H301	H	0.780738	-0.429330	0.214151
H302	H	1.280738	0.070670	0.714151
H303	H	0.827917	-0.173859	0.124409
H304	H	1.327917	0.326141	0.624409
N305	N	0.825892	-0.307640	0.211155
N306	N	1.325892	0.192360	0.711155
H307	H	0.782458	-0.312403	0.241160
H308	H	1.282458	0.187597	0.741160
H309	H	0.869084	-0.320449	0.241094
H310	H	1.369084	0.179551	0.741094
N311	N	0.822125	-0.563682	0.211134
N312	N	1.322125	-0.063682	0.711134
H313	H	0.822467	-0.540065	0.254607
H314	H	1.322467	-0.040065	0.754607
H315	H	0.778513	-0.580581	0.214128
H316	H	1.278513	-0.080581	0.714128
