data_functionalizedCrystal
_audit_creation_method	'MofGen! by Chris Wilmer'
_symmetry_space_group_name_H-M	'P1'
_symmetry_Int_Tables_number	1
_symmetry_cell_setting	triclinic
loop_
_symmetry_equiv_pos_as_xyz
  x,y,z
_cell_length_a	13.262390
_cell_length_b	13.339070
_cell_length_c	11.804365
_cell_angle_alpha	105.114498
_cell_angle_beta	62.657606
_cell_angle_gamma	99.430025
loop_
_atom_site_label
_atom_site_type_symbol
_atom_site_fract_x
_atom_site_fract_y
_atom_site_fract_z
O1	O	1.523840	0.014588	-0.592573
O2	O	1.206726	0.050539	-0.489864
O3	O	1.328889	-0.112423	-0.529435
O4	O	1.401677	0.177550	-0.553002
O5	O	1.296716	-0.069562	-0.320958
O6	O	1.174553	0.093400	-0.281387
O7	O	1.491666	0.057449	-0.384095
Cu8	Cu	1.330172	0.079338	-0.313706
Cu9	Cu	1.368221	0.028650	-0.560254
O10	O	1.369503	0.220411	-0.344525
C11	C	1.149223	0.073897	-0.372212
C12	C	1.025813	0.079625	-0.332241
C13	C	0.748096	0.002302	-0.674153
C14	C	0.864046	-0.003086	-0.711709
C15	C	0.904494	0.017592	-0.616846
C16	C	0.828980	0.043658	-0.484419
C17	C	0.713017	0.049038	-0.446859
C18	C	0.869414	0.064328	-0.389551
C19	C	0.793900	0.090394	-0.257125
C20	C	0.677949	0.095774	-0.219572
C21	C	0.637502	0.075096	-0.314435
C22	C	0.985377	0.058947	-0.427112
C23	C	0.950297	0.105684	-0.199817
C24	C	0.834347	0.111072	-0.162261
C25	C	1.300507	-0.127913	-0.421218
C26	C	1.263859	-0.237923	-0.409358
C27	C	1.549169	0.034091	-0.501751
C28	C	1.672581	0.028360	-0.541730
N29	N	1.303418	0.114989	-0.140299
C30	C	1.397885	0.235900	-0.452745
C31	C	1.434535	0.345908	-0.464613
C32	C	1.149568	0.728535	-0.372333
C33	C	1.115127	0.625182	-0.361161
C34	C	1.194976	0.555358	-0.387023
C35	C	1.309272	0.588898	-0.424059
C36	C	1.343714	0.692264	-0.435222
C37	C	1.389122	0.519087	-0.449912
C38	C	1.503418	0.552627	-0.486948
C39	C	1.537854	0.655983	-0.498110
C40	C	1.458005	0.725806	-0.472247
C41	C	1.354680	0.415722	-0.438749
C42	C	1.548826	0.379451	-0.501638
C43	C	1.583267	0.482804	-0.512810
N44	N	1.394980	-0.007009	-0.733663
C45	C	1.459220	-0.092638	0.183183
C46	C	1.479456	-0.119611	0.051966
C47	C	1.435448	-0.060964	0.003893
C48	C	1.371201	0.024662	0.087050
C49	C	1.350970	0.051643	0.218277
C50	C	1.327198	0.083317	0.038988
C51	C	1.262951	0.168943	0.122145
C52	C	1.242722	0.195920	0.253359
C53	C	1.286730	0.137272	0.301431
C54	C	1.347429	0.056336	-0.092239
C55	C	1.239179	0.200617	-0.057145
C56	C	1.218942	0.227591	0.074072
H57	H	0.543088	0.079485	-0.283864
H58	H	1.046851	0.037726	-0.534934
H59	H	1.613846	0.322600	-0.522696
H60	H	0.998907	0.013205	-0.647432
C61	C	1.507623	-0.157138	0.236073
N62	N	1.544084	-0.205724	0.275910
C63	C	1.264445	0.166921	0.445787
N64	N	1.247652	0.189245	0.554519
C65	C	1.457701	-0.090645	-0.140446
N66	N	1.474459	-0.113009	-0.249167
C67	C	1.550119	-0.213801	-0.039494
N68	N	1.603342	-0.284753	-0.108382
C69	C	1.663580	0.692877	-0.538835
N70	N	1.758277	0.720663	-0.569509
C71	C	1.157088	0.441665	-0.374743
N72	N	1.128547	0.356026	-0.365500
C73	C	1.172054	0.290115	0.344826
N74	N	1.118824	0.361061	0.413719
C75	C	1.148269	0.321777	0.165561
N76	N	1.095035	0.392717	0.234473
C77	C	0.751267	0.139736	-0.016594
N78	N	0.688688	0.161325	0.093122
C79	C	0.947102	-0.031768	-0.857373
N80	N	1.009660	-0.053375	-0.967094
C81	C	1.061748	0.805345	-0.343887
N82	N	0.995596	0.863201	-0.322461
H83	H	0.715150	-0.014540	-0.751376
H84	H	0.616464	0.116980	-0.111741
H85	H	1.022070	0.597880	-0.331013
H86	H	1.399740	-0.013380	-0.159935
H87	H	0.983228	0.122520	-0.122571
H88	H	1.676329	0.510126	-0.542974
H89	H	1.261619	0.388425	-0.408589
C90	C	1.495883	0.839506	-0.484525
N91	N	1.524409	0.925147	-0.493766
C92	C	1.190764	0.265133	-0.110018
N93	N	1.154302	0.313722	-0.149851
