data_functionalizedCrystal
_audit_creation_method	'MofGen! by Chris Wilmer'
_symmetry_space_group_name_H-M	'P1'
_symmetry_Int_Tables_number	1
_symmetry_cell_setting	triclinic
loop_
_symmetry_equiv_pos_as_xyz
  x,y,z
_cell_length_a	9.065218
_cell_length_b	14.519709
_cell_length_c	7.540329
_cell_angle_alpha	89.995460
_cell_angle_beta	89.996962
_cell_angle_gamma	84.348015
loop_
_atom_site_label
_atom_site_type_symbol
_atom_site_fract_x
_atom_site_fract_y
_atom_site_fract_z
O1	O	1.957864	0.135225	-0.147492
O2	O	1.528372	0.146317	-0.147494
O3	O	1.754505	0.006616	-0.147477
O4	O	1.731731	0.274926	-0.147509
O5	O	1.754492	0.006614	0.147488
O6	O	1.528358	0.146315	0.147471
O7	O	1.957851	0.135223	0.147473
Cu8	Cu	1.743103	0.140769	0.174405
Cu9	Cu	1.743119	0.140771	-0.174426
O10	O	1.731717	0.274924	0.147456
C11	C	1.473398	0.145250	-0.000012
C12	C	1.309615	0.142063	-0.000013
C13	C	1.753437	-0.027752	0.000006
C14	C	1.750257	-0.130157	0.000007
C15	C	1.738547	-0.505138	-0.000039
C16	C	1.741799	-0.400807	-0.000026
C17	C	1.744402	-0.317651	-0.000015
C18	C	1.747654	-0.213313	-0.000005
C19	C	2.012824	0.136290	-0.000013
C20	C	2.176607	0.139478	-0.000024
C21	C	1.732785	0.309293	-0.000031
C22	C	1.735966	0.411697	-0.000043
N23	N	1.743103	0.140767	0.419753
N24	N	1.743131	0.140766	-0.419774
