data_functionalizedCrystal
_audit_creation_method	'MofGen! by Chris Wilmer'
_symmetry_space_group_name_H-M	'P1'
_symmetry_Int_Tables_number	1
_symmetry_cell_setting	triclinic
loop_
_symmetry_equiv_pos_as_xyz
  x,y,z
_cell_length_a	10.685901
_cell_length_b	16.959453
_cell_length_c	10.686551
_cell_angle_alpha	94.408900
_cell_angle_beta	90.348291
_cell_angle_gamma	85.656731
loop_
_atom_site_label
_atom_site_type_symbol
_atom_site_fract_x
_atom_site_fract_y
_atom_site_fract_z
Zn1	Zn	1.972164	-0.382221	0.561841
Zn2	Zn	2.472164	0.117779	1.061841
Zn3	Zn	1.955914	-0.523727	0.352074
Zn4	Zn	2.455914	-0.023727	0.852074
Zn5	Zn	1.746290	-0.380736	0.368217
Zn6	Zn	2.246290	0.119264	0.868217
Zn7	Zn	1.762354	-0.503525	0.577903
Zn8	Zn	2.262354	-0.003525	1.077903
O9	O	1.859181	-0.447552	0.465009
O10	O	2.359181	0.052448	0.965009
O11	O	2.145543	-0.410068	0.520536
O12	O	2.645543	0.089932	1.020536
O13	O	1.914584	-0.512592	0.178672
O14	O	2.414584	-0.012592	0.678672
O15	O	1.776331	-0.270324	0.393935
O16	O	2.276331	0.229676	0.893935
O17	O	2.133604	-0.514032	0.366421
O18	O	2.633604	-0.014032	0.866421
O19	O	1.942279	-0.271415	0.536190
O20	O	2.442279	0.228585	1.036190
O21	O	1.760574	-0.407537	0.190533
O22	O	2.260574	0.092463	0.690533
O23	O	1.572887	-0.387948	0.409510
O24	O	2.072887	0.112052	0.909510
O25	O	1.803709	-0.479601	0.751315
O26	O	2.303709	0.020399	1.251315
O27	O	1.584689	-0.478161	0.563566
O28	O	2.084689	0.021839	1.063566
O29	O	1.957855	-0.390479	0.739514
O30	O	2.457855	0.109521	1.239514
O31	O	1.930160	-0.631656	0.381997
O32	O	2.430160	-0.131656	0.881997
O33	O	1.787952	-0.616814	0.547913
O34	O	2.287952	-0.116814	1.047913
C35	C	1.533274	-0.430702	0.490034
C36	C	2.033274	0.069298	0.990034
C37	C	1.393851	-0.423511	0.500769
C38	C	1.893851	0.076489	1.000769
C39	C	1.859072	-0.652915	0.464971
C40	C	2.359072	-0.152915	0.964971
C41	C	1.859144	-0.740775	0.464988
C42	C	2.359144	-0.240775	0.964988
C43	C	1.945704	-1.112759	0.539224
C44	C	2.445704	-0.612759	1.039224
C45	C	1.773022	-1.111752	0.390952
C46	C	2.273022	-0.611752	0.890952
C47	C	1.772973	-1.029206	0.390927
C48	C	2.272973	-0.529206	0.890927
C49	C	1.859290	-0.988431	0.465053
C50	C	2.359290	-0.488431	0.965053
C51	C	1.945656	-1.030204	0.539204
C52	C	2.445656	-0.530204	1.039204
C53	C	1.686600	-0.987426	0.316787
C54	C	2.186600	-0.487426	0.816787
C55	C	1.686547	-0.904874	0.316760
C56	C	2.186547	-0.404874	0.816760
C57	C	1.772871	-0.864098	0.390880
C58	C	2.272871	-0.364098	0.890880
C59	C	1.859241	-0.905876	0.465033
C60	C	2.359241	-0.405876	0.965033
C61	C	1.945558	-0.865102	0.539159
C62	C	2.445558	-0.365102	1.039159
C63	C	2.031936	-0.906879	0.613306
C64	C	2.531936	-0.406879	1.113306
C65	C	2.031980	-0.989429	0.613324
C66	C	2.531980	-0.489429	1.113324
C67	C	1.772827	-0.781549	0.390862
C68	C	2.272827	-0.281549	0.890862
C69	C	1.945510	-0.782547	0.539139
C70	C	2.445510	-0.282547	1.039139
C71	C	2.186360	-0.464469	0.439886
C72	C	2.686360	0.035531	0.939886
C73	C	2.325785	-0.471678	0.429181
C74	C	2.825785	0.028322	0.929181
C75	C	1.884387	-0.432952	0.792204
C76	C	2.384387	0.067048	1.292204
C77	C	1.895128	-0.426730	0.931635
C78	C	2.395128	0.073270	1.431635
C79	C	1.859325	-0.241388	0.465071
C80	C	2.359325	0.258612	0.965071
C81	C	1.859387	-0.153533	0.465098
C82	C	2.359387	0.346467	0.965098
C83	C	1.834145	-0.462043	0.139081
C84	C	2.334145	0.037957	0.639081
C85	C	1.823647	-0.468054	-0.000368
C86	C	2.323647	0.031946	0.499632
H87	H	2.015805	-0.749354	0.599496
H88	H	2.515805	-0.249354	1.099496
H89	H	1.754234	-0.508195	0.951178
H90	H	2.254234	-0.008195	1.451178
H91	H	1.702495	-0.747537	0.330499
H92	H	2.202495	-0.247537	0.830499
H93	H	1.964553	-0.386593	0.980094
H94	H	2.464553	0.113407	1.480094
H95	H	2.102210	-0.873671	0.673666
H96	H	2.602210	-0.373671	1.173666
N97	N	1.389867	-0.533593	0.337119
N98	N	1.889867	-0.033593	0.837119
H99	H	1.483722	-0.530125	0.342244
H100	H	1.983722	-0.030125	0.842244
H101	H	1.360118	-0.524034	0.249302
H102	H	1.860118	-0.024034	0.749302
H103	H	1.345458	-0.376773	0.570279
H104	H	1.845458	0.123227	1.070279
N105	N	2.125133	-1.034484	0.693297
N106	N	2.625133	-0.534484	1.193297
H107	H	2.179395	-1.074003	0.637908
H108	H	2.679395	-0.574003	1.137908
H109	H	2.078508	-1.063462	0.755305
H110	H	2.578508	-0.563462	1.255305
N111	N	2.038868	-1.157805	0.619198
N112	N	2.538868	-0.657805	1.119198
H113	H	2.093141	-1.197318	0.563810
H114	H	2.593141	-0.697318	1.063810
H115	H	1.992257	-1.186787	0.681209
H116	H	2.492257	-0.686787	1.181209
N117	N	1.679930	-1.155726	0.311002
N118	N	2.179930	-0.655726	0.811002
H119	H	1.693067	-1.214360	0.322265
H120	H	2.193067	-0.714360	0.822265
H121	H	1.692633	-1.146320	0.219921
H122	H	2.192633	-0.646320	0.719921
H123	H	1.616322	-1.020630	0.256442
H124	H	2.116322	-0.520630	0.756442
H125	H	1.616216	-0.870864	0.256385
H126	H	2.116216	-0.370864	0.756385
