data_functionalizedCrystal
_audit_creation_method	'MofGen! by Chris Wilmer'
_symmetry_space_group_name_H-M	'P1'
_symmetry_Int_Tables_number	1
_symmetry_cell_setting	triclinic
loop_
_symmetry_equiv_pos_as_xyz
  x,y,z
_cell_length_a	27.731993
_cell_length_b	26.210047
_cell_length_c	16.992695
_cell_angle_alpha	89.995910
_cell_angle_beta	93.355692
_cell_angle_gamma	90.004884
loop_
_atom_site_label
_atom_site_type_symbol
_atom_site_fract_x
_atom_site_fract_y
_atom_site_fract_z
O1	O	0.644976	0.042292	-0.093047
O2	O	1.144976	0.542292	0.406953
O3	O	0.504794	0.042323	-0.107271
O4	O	1.004794	0.542323	0.392729
O5	O	0.574323	0.042303	0.013977
O6	O	1.074323	0.542303	0.513977
O7	O	0.575447	0.042311	-0.214294
O8	O	1.075447	0.542311	0.285706
O9	O	0.574299	-0.042555	0.013977
O10	O	1.074299	0.457445	0.513977
O11	O	0.504770	-0.042535	-0.107271
O12	O	1.004770	0.457465	0.392729
O13	O	0.644953	-0.042566	-0.093047
O14	O	1.144953	0.457434	0.406953
Cu15	Cu	0.574859	-0.050299	-0.100159
Cu16	Cu	1.074859	0.449701	0.399841
Cu17	Cu	0.574887	0.050055	-0.100159
Cu18	Cu	1.074887	0.550055	0.399841
O19	O	0.575423	-0.042547	-0.214295
O20	O	1.075423	0.457453	0.285705
C21	C	0.486762	-0.000102	-0.106979
C22	C	0.986762	0.499898	0.393021
C23	C	0.433068	-0.000091	-0.106100
C24	C	0.933068	0.499909	0.393900
N25	N	0.574843	-0.120883	-0.100158
N26	N	1.074843	0.379117	0.399842
C27	C	0.049645	0.046141	-0.099727
C28	C	0.549645	0.546141	0.400273
C29	C	0.251447	0.046155	-0.103078
C30	C	0.751447	0.546155	0.396922
O31	O	0.277548	0.085495	-0.103480
O32	O	0.777548	0.585495	0.396520
N33	N	0.276673	-0.000101	-0.103497
N34	N	0.776673	0.499899	0.396503
C35	C	0.251445	-0.046362	-0.103074
C36	C	0.751445	0.453638	0.396926
O37	O	0.277532	-0.085705	-0.103499
O38	O	0.777532	0.414295	0.396501
C39	C	0.049644	-0.046376	-0.099717
C40	C	0.549644	0.453624	0.400283
C41	C	0.024420	-0.000118	-0.099306
C42	C	0.524420	0.499882	0.400694
C43	C	0.024421	0.092395	-0.099315
C44	C	0.524421	0.592395	0.400685
C45	C	-0.026026	0.092391	-0.098481
C46	C	0.473974	0.592391	0.401519
C47	C	-0.051251	0.046133	-0.098060
C48	C	0.448749	0.546133	0.401940
C49	C	-0.026027	-0.000122	-0.098472
C50	C	0.473973	0.499878	0.401528
C51	C	0.024417	-0.092637	-0.099288
C52	C	0.524417	0.407363	0.400712
C53	C	-0.026036	-0.092636	-0.098446
C54	C	0.473964	0.407364	0.401554
C55	C	-0.051260	-0.046378	-0.098035
C56	C	0.448740	0.453622	0.401965
C57	C	-0.101699	-0.046384	-0.097217
C58	C	0.398301	0.453616	0.402783
N59	N	-0.126925	-0.000129	-0.096798
N60	N	0.373075	0.499871	0.403202
C61	C	-0.101701	0.046129	-0.097219
C62	C	0.398299	0.546129	0.402781
C63	C	0.357393	-0.046352	-0.104838
C64	C	0.857393	0.453648	0.395162
C65	C	0.407843	-0.046349	-0.105678
C66	C	0.907843	0.453651	0.394322
C67	C	0.407842	0.046168	-0.105681
C68	C	0.907842	0.546168	0.394319
C69	C	0.357391	0.046165	-0.104846
C70	C	0.857391	0.546165	0.395154
C71	C	0.332168	-0.000097	-0.104418
C72	C	0.832168	0.499903	0.395582
C73	C	-0.207645	0.046118	-0.095470
C74	C	0.292355	0.546118	0.404530
C75	C	-0.258097	0.046110	-0.094639
C76	C	0.241903	0.546110	0.405361
C77	C	-0.258091	-0.046407	-0.094632
C78	C	0.241909	0.453593	0.405368
C79	C	-0.207643	-0.046399	-0.095467
C80	C	0.292357	0.453601	0.404533
C81	C	-0.182421	-0.000133	-0.095883
C82	C	0.317579	0.499867	0.404117
O83	O	-0.127832	-0.085703	-0.096806
O84	O	0.372168	0.414297	0.403194
O85	O	-0.127796	0.085466	-0.096776
O86	O	0.372204	0.585466	0.403224
C87	C	0.100092	0.046145	-0.100560
C88	C	0.600092	0.546145	0.399440
C89	C	0.125316	-0.000110	-0.100972
C90	C	0.625316	0.499890	0.399028
C91	C	0.100091	-0.046368	-0.100551
C92	C	0.600091	0.453632	0.399449
C93	C	0.175766	-0.000107	-0.101813
C94	C	0.675766	0.499893	0.398187
C95	C	0.200990	0.046152	-0.102234
C96	C	0.700990	0.546152	0.397766
C97	C	0.175765	0.092407	-0.101815
C98	C	0.675765	0.592407	0.398185
C99	C	0.125317	0.092403	-0.100982
C100	C	0.625317	0.592403	0.399018
C101	C	0.125317	-0.092623	-0.100971
C102	C	0.625317	0.407377	0.399029
C103	C	0.175765	-0.092615	-0.101805
C104	C	0.675765	0.407385	0.398195
C105	C	0.200989	-0.046357	-0.102226
C106	C	0.700989	0.453643	0.397774
C107	C	0.606020	-0.473402	-0.147347
C108	C	1.106020	0.026598	0.352653
C109	C	0.606034	-0.687061	-0.147346
C110	C	1.106034	-0.187061	0.352654
O111	O	0.632530	-0.714687	-0.187459
O112	O	1.132530	-0.214687	0.312541
N113	N	0.574898	-0.713777	-0.100151
N114	N	1.074898	-0.213777	0.399849
C115	C	0.543758	-0.687075	-0.052948
C116	C	1.043758	-0.187075	0.447052
O117	O	0.517279	-0.714701	-0.012800
O118	O	1.017279	-0.214701	0.487200
C119	C	0.543747	-0.473417	-0.052945
C120	C	1.043747	0.026583	0.447055
C121	C	0.574882	-0.446704	-0.100150
C122	C	1.074882	0.053296	0.399850
C123	C	0.637153	-0.446689	-0.194547
C124	C	1.137153	0.053311	0.305453
C125	C	0.637147	-0.393277	-0.194550
C126	C	1.137147	0.106723	0.305450
C127	C	0.606008	-0.366579	-0.147353
C128	C	1.106008	0.133421	0.352647
C129	C	0.574876	-0.393293	-0.100153
C130	C	1.074876	0.106707	0.399847
C131	C	0.512610	-0.446717	-0.005739
C132	C	1.012610	0.053283	0.494261
C133	C	0.512611	-0.393299	-0.005741
C134	C	1.012611	0.106701	0.494259
C135	C	0.543746	-0.366586	-0.052946
C136	C	1.043746	0.133414	0.447054
C137	C	0.543732	-0.313183	-0.052959
C138	C	1.043732	0.186817	0.447041
N139	N	0.574868	-0.286467	-0.100154
N140	N	1.074868	0.213533	0.399846
C141	C	0.606006	-0.313165	-0.147351
C142	C	1.106006	0.186835	0.352649
C143	C	0.543766	-0.799248	-0.052954
C144	C	1.043766	-0.299248	0.447046
C145	C	0.543768	-0.852663	-0.052956
C146	C	1.043768	-0.352663	0.447044
C147	C	0.606045	-0.852645	-0.147353
C148	C	1.106045	-0.352645	0.352647
C149	C	0.606040	-0.799230	-0.147355
C150	C	1.106040	-0.299230	0.352645
C151	C	0.574902	-0.772532	-0.100150
C152	C	1.074902	-0.272532	0.399850
C153	C	0.605992	-0.200997	-0.147354
C154	C	1.105992	0.299003	0.352646
C155	C	0.605982	-0.147581	-0.147355
C156	C	1.105982	0.352419	0.352645
C157	C	0.543707	-0.147604	-0.052956
C158	C	1.043707	0.352396	0.447044
C159	C	0.543715	-0.201015	-0.052957
C160	C	1.043715	0.298985	0.447043
C161	C	0.574861	-0.227711	-0.100159
C162	C	1.074861	0.272289	0.399841
O163	O	0.517254	-0.285524	-0.012860
O164	O	1.017254	0.214476	0.487140
O165	O	0.632489	-0.285530	-0.187481
O166	O	1.132489	0.214470	0.312519
C167	C	0.606026	-0.526814	-0.147344
C168	C	1.106026	-0.026814	0.352656
C169	C	0.574893	-0.553527	-0.100144
C170	C	1.074893	-0.053527	0.399856
C171	C	0.543755	-0.526829	-0.052947
C172	C	1.043755	-0.026829	0.447053
C173	C	0.574895	-0.606941	-0.100146
C174	C	1.074895	-0.106941	0.399854
C175	C	0.606034	-0.633639	-0.147343
C176	C	1.106034	-0.133639	0.352657
C177	C	0.637170	-0.606923	-0.194538
C178	C	1.137170	-0.106923	0.305462
C179	C	0.637164	-0.553512	-0.194541
C180	C	1.137164	-0.053512	0.305459
C181	C	0.512619	-0.553545	-0.005752
C182	C	1.012619	-0.053545	0.494248
C183	C	0.512627	-0.606957	-0.005753
C184	C	1.012627	-0.106957	0.494247
C185	C	0.543765	-0.633655	-0.052950
C186	C	1.043765	-0.133655	0.447050
C187	C	0.662984	-0.000140	-0.093339
C188	C	1.162984	0.499860	0.406661
C189	C	0.716679	-0.000149	-0.094218
C190	C	1.216679	0.499851	0.405782
C191	C	0.572865	-0.000125	0.043171
C192	C	1.072865	0.499875	0.543171
C193	C	0.568551	-0.000124	0.130162
C194	C	1.068551	0.499876	0.630162
N195	N	0.574906	0.120639	-0.100153
N196	N	1.074906	0.620639	0.399847
C197	C	0.576881	-0.000117	-0.243489
C198	C	1.076881	0.499883	0.256511
C199	C	0.581195	-0.000115	-0.330480
C200	C	1.081195	0.499885	0.169520
C201	C	0.610175	-0.000134	0.180920
C202	C	1.110175	0.499866	0.680920
C203	C	0.606119	-0.000128	0.262656
C204	C	1.106119	0.499872	0.762656
C205	C	0.560438	-0.000116	0.293633
C206	C	1.060438	0.499884	0.793633
C207	C	0.518811	-0.000105	0.242868
C208	C	1.018811	0.499895	0.742868
C209	C	0.522868	-0.000107	0.161134
C210	C	1.022868	0.499893	0.661134
C211	C	0.543625	-0.000106	0.537021
C212	C	1.043625	0.499894	1.037021
C213	C	0.539571	-0.000105	0.618762
C214	C	1.039571	0.499895	1.118762
C215	C	0.626879	-0.000127	0.638545
C216	C	1.126879	0.499873	1.138545
C217	C	0.630932	-0.000133	0.556808
C218	C	1.130932	0.499867	1.056808
C219	C	0.589305	-0.000119	0.506050
C220	C	1.089305	0.499881	1.006050
N221	N	0.556291	-0.000112	0.377180
N222	N	1.056291	0.499888	0.877180
N223	N	0.593453	-0.000119	0.422505
N224	N	1.093453	0.499881	0.922505
H225	H	-0.187115	0.083792	-0.095809
H226	H	0.312885	0.583792	0.404191
H227	H	0.647373	-0.000147	0.155706
H228	H	1.147373	0.499853	0.655706
H229	H	0.518354	-0.125856	-0.014531
H230	H	1.018354	0.374144	0.485469
H231	H	0.336857	0.083832	-0.104511
H232	H	0.836857	0.583832	0.395489
H233	H	0.487262	-0.531813	0.032684
H234	H	0.987262	-0.031813	0.532684
H235	H	0.104784	0.130071	-0.100647
H236	H	0.604784	0.630071	0.399353
H237	H	0.502371	-0.000104	0.643980
H238	H	1.002371	0.499896	1.143980
H239	H	0.640014	-0.000137	0.303981
H240	H	1.140014	0.499863	0.803981
H241	H	0.518410	-0.874408	-0.014527
H242	H	1.018410	-0.374408	0.485473
H243	H	0.668130	-0.000142	0.531593
H244	H	1.168130	0.499858	1.031593
O245	O	0.510177	-0.770464	-0.002032
O246	O	1.010177	-0.270464	0.497968
H247	H	0.531710	-0.746134	0.040368
H248	H	1.031710	-0.246134	0.540368
H249	H	0.044945	-0.130305	-0.099620
H250	H	0.544945	0.369695	0.400380
H251	H	0.509729	-0.000094	0.495704
H252	H	1.009729	0.499906	0.995704
O253	O	0.202975	0.142302	-0.102270
O254	O	0.702975	0.642302	0.397730
H255	H	0.195537	0.164481	-0.048675
H256	H	0.695537	0.664481	0.451325
H257	H	0.660769	-0.000138	0.679880
H258	H	1.160769	0.499862	1.179880
H259	H	0.662517	-0.531767	-0.232980
H260	H	1.162517	-0.031767	0.267020
H261	H	0.336861	-0.084026	-0.104487
H262	H	0.836861	0.415974	0.395513
H263	H	-0.046571	-0.130309	-0.098105
H264	H	0.453429	0.369691	0.401895
H265	H	0.631397	-0.874391	-0.185786
H266	H	1.131397	-0.374391	0.314214
O267	O	0.098113	-0.142518	-0.100526
O268	O	0.598113	0.357482	0.399474
H269	H	0.124134	-0.174677	-0.100965
H270	H	0.624134	0.325323	0.399035
O271	O	0.477972	-0.000102	0.106387
O272	O	0.977972	0.499898	0.606387
H273	H	0.477738	0.034487	0.068676
H274	H	0.977738	0.534487	0.568676
H275	H	-0.187106	-0.084067	-0.095817
H276	H	0.312894	0.415933	0.404183
O277	O	0.469540	-0.000098	0.276272
O278	O	0.969540	0.499902	0.776272
H279	H	0.473711	-0.000105	0.341635
H280	H	0.973711	0.499895	0.841635
O281	O	0.479051	-0.475522	0.045213
O282	O	0.979051	0.024478	0.545213
H283	H	0.457413	-0.447975	0.078047
H284	H	0.957413	0.052025	0.578047
O285	O	0.479035	-0.364490	0.045174
O286	O	0.979035	0.135510	0.545174
H287	H	0.441075	-0.374736	0.027688
H288	H	0.941075	0.125264	0.527688
O289	O	0.639620	-0.770420	-0.198269
O290	O	1.139620	-0.270420	0.301731
H291	H	0.664136	-0.746080	-0.160403
H292	H	1.164136	-0.246080	0.339597
H293	H	-0.046559	0.130059	-0.098143
H294	H	0.453441	0.630059	0.401857
O295	O	-0.285296	0.096008	-0.094173
O296	O	0.214704	0.596008	0.405827
H297	H	-0.277855	0.118199	-0.147761
H298	H	0.222145	0.618199	0.352239
O299	O	0.051624	0.142292	-0.099775
O300	O	0.551624	0.642292	0.400225
H301	H	0.025601	0.174449	-0.099353
H302	H	0.525601	0.674449	0.400647
H303	H	0.518357	-0.222766	-0.014530
H304	H	1.018357	0.277234	0.485470
O305	O	0.670761	-0.635723	-0.245437
O306	O	1.170761	-0.135723	0.254563
H307	H	0.665534	-0.677352	-0.237491
H308	H	1.165534	-0.177352	0.262509
O309	O	0.670741	-0.475476	-0.245461
O310	O	1.170741	0.024524	0.254539
H311	H	0.695266	-0.499807	-0.207599
H312	H	1.195266	0.000193	0.292401
H313	H	0.428388	0.083834	-0.106027
H314	H	0.928388	0.583834	0.393973
H315	H	0.196297	-0.130287	-0.102146
H316	H	0.696297	0.369713	0.397854
H317	H	0.487268	-0.628702	0.032685
H318	H	0.987268	-0.128702	0.532685
O319	O	0.639562	-0.118768	-0.198273
O320	O	1.139562	0.381232	0.301727
H321	H	0.677521	-0.129009	-0.180772
H322	H	1.177521	0.370991	0.319228
O323	O	0.435046	-0.096241	-0.106148
O324	O	0.935046	0.403759	0.393852
H325	H	0.409025	-0.128405	-0.105712
H326	H	0.909025	0.371595	0.394288
H327	H	-0.278638	-0.084069	-0.094293
H328	H	0.221362	0.415931	0.405707
H329	H	0.631354	-0.222726	-0.185790
H330	H	1.131354	0.277274	0.314210
H331	H	0.662502	-0.371532	-0.232985
H332	H	1.162502	0.128468	0.267015
