data_functionalizedCrystal
_audit_creation_method	'MofGen! by Chris Wilmer'
_symmetry_space_group_name_H-M	'P1'
_symmetry_Int_Tables_number	1
_symmetry_cell_setting	triclinic
loop_
_symmetry_equiv_pos_as_xyz
  x,y,z
_cell_length_a	12.759401
_cell_length_b	14.908331
_cell_length_c	12.759393
_cell_angle_alpha	93.328795
_cell_angle_beta	89.980324
_cell_angle_gamma	86.673226
loop_
_atom_site_label
_atom_site_type_symbol
_atom_site_fract_x
_atom_site_fract_y
_atom_site_fract_z
Zn1	Zn	1.582018	0.359135	-0.569833
Zn2	Zn	1.571720	0.510032	-0.384006
Zn3	Zn	1.406313	0.359180	-0.394169
Zn4	Zn	1.396124	0.509966	-0.559651
O5	O	1.489044	0.434578	-0.476915
O6	O	1.727672	0.379160	-0.545191
O7	O	1.549733	0.490067	-0.238330
O8	O	1.438195	0.232919	-0.425986
O9	O	1.720107	0.490024	-0.408664
O10	O	1.567284	0.232886	-0.555046
O11	O	1.428210	0.379237	-0.245797
O12	O	1.257941	0.379173	-0.416113
O13	O	1.420829	0.489911	-0.708026
O14	O	1.250455	0.489955	-0.537692
O15	O	1.557404	0.379097	-0.715507
O16	O	1.539853	0.636278	-0.398791
O17	O	1.410844	0.636230	-0.527837
C18	C	1.216078	0.434563	-0.476901
C19	C	1.099300	0.434578	-0.476919
C20	C	1.048371	0.376956	-0.548105
C21	C	0.938646	0.376965	-0.548111
C22	C	0.930789	0.492226	-0.405742
C23	C	1.040512	0.492212	-0.405732
C24	C	1.473154	0.668991	-0.461129
C25	C	1.466452	0.769273	-0.454411
C26	C	1.389852	0.910710	-0.377693
C27	C	1.396145	0.816485	-0.384003
C28	C	1.530469	0.816293	-0.518516
C29	C	1.524177	0.910517	-0.512206
C30	C	1.453867	0.957722	-0.441791
C31	C	1.447580	1.051948	-0.435477
C32	C	1.581898	1.051754	-0.569995
C33	C	1.588191	0.957530	-0.576305
C34	C	1.763076	0.434594	-0.476929
C35	C	1.879852	0.434601	-0.476936
C36	C	1.504965	1.199250	-0.492794
C37	C	1.511597	1.098968	-0.499582
C38	C	1.489128	0.434492	-0.750954
C39	C	1.489164	0.434455	-0.867734
C40	C	1.560285	0.376744	-0.926493
C41	C	1.560305	0.376705	-1.036220
C42	C	1.418081	0.492095	-1.028417
C43	C	1.418057	0.492129	-0.918693
C44	C	1.489025	0.434599	-0.203946
C45	C	1.489209	0.434382	-0.087185
H46	H	0.882910	0.539150	-0.347785
H47	H	0.897185	0.330042	-0.606076
O48	O	1.379134	1.097765	-0.367196
C49	C	1.198514	1.126720	-0.314069
C50	C	1.275916	1.074797	-0.391479
H51	H	1.115048	1.108155	-0.333661
H52	H	1.204918	1.202153	-0.320568
H53	H	1.218292	1.108245	-0.230613
H54	H	1.256189	1.093197	-0.474970
H55	H	1.269498	0.999378	-0.384889
O56	O	1.629245	0.320585	-0.877048
C57	C	1.690696	0.167128	-0.853893
C58	C	1.612525	0.230629	-0.909937
H59	H	1.677220	0.094386	-0.880479
H60	H	1.678470	0.176983	-0.765368
H61	H	1.774331	0.183015	-0.874397
H62	H	1.528859	0.214781	-0.889518
H63	H	1.624843	0.220763	-0.998448
H64	H	1.332609	0.949145	-0.320352
H65	H	1.081979	0.539135	-0.347758
H66	H	1.344017	0.778210	-0.331809
O67	O	1.598735	0.770290	-0.586825
C68	C	1.667895	0.625041	-0.656207
C69	C	1.590557	0.677026	-0.578784
H70	H	1.661294	0.549628	-0.649748
H71	H	1.751419	0.643438	-0.636600
H72	H	1.648175	0.643580	-0.739654
H73	H	1.610181	0.658514	-0.495311
H74	H	1.507055	0.658624	-0.598482
O75	O	1.656464	0.911532	-0.644610
C76	C	1.725646	0.766289	-0.713991
C77	C	1.648296	0.818266	-0.636574
H78	H	1.719053	0.690875	-0.707535
H79	H	1.809166	0.784694	-0.694375
H80	H	1.705931	0.784829	-0.797438
H81	H	1.667915	0.799754	-0.553099
H82	H	1.564799	0.799857	-0.656280
O83	O	1.644242	1.097385	-0.632150
C84	C	1.821021	1.126001	-0.681409
C85	C	1.750536	1.074282	-0.610951
H86	H	1.906973	1.107327	-0.664311
H87	H	1.804540	1.201465	-0.664794
H88	H	1.803719	1.107452	-0.767349
H89	H	1.767798	1.092756	-0.524988
H90	H	1.767030	0.998831	-0.627656
O91	O	1.629248	0.320547	-1.093349
C92	C	1.651682	0.198723	-1.225479
C93	C	1.573489	0.262258	-1.160835
H94	H	1.606632	0.151593	-1.280073
H95	H	1.702479	0.157444	-1.170254
H96	H	1.703836	0.240147	-1.274021
H97	H	1.521268	0.220904	-1.112287
H98	H	1.522766	0.303540	-1.216117
O99	O	1.349161	0.548218	-1.077963
C100	C	1.326782	0.669954	-1.193677
C101	C	1.404948	0.606463	-1.137612
H102	H	1.371855	0.717048	-1.241934
H103	H	1.275957	0.711272	-1.132873
H104	H	1.274655	0.628492	-1.247790
H105	H	1.457144	0.647855	-1.083502
H106	H	1.455700	0.565141	-1.198473
O107	O	1.348929	0.548279	-0.861763
C108	C	1.207824	0.662690	-0.865597
C109	C	1.286068	0.599168	-0.930195
H110	H	1.156966	0.703837	-0.920897
H111	H	1.252790	0.709944	-0.811075
H112	H	1.155740	0.621262	-0.816986
H113	H	1.338172	0.640524	-0.978868
H114	H	1.241037	0.551911	-0.984651
H115	H	1.096233	0.330023	-0.606067
