data_functionalizedCrystal
_audit_creation_method	'MofGen! by Chris Wilmer'
_symmetry_space_group_name_H-M	'P1'
_symmetry_Int_Tables_number	1
_symmetry_cell_setting	triclinic
loop_
_symmetry_equiv_pos_as_xyz
  x,y,z
_cell_length_a	16.625546
_cell_length_b	19.077236
_cell_length_c	19.076919
_cell_angle_alpha	90.112677
_cell_angle_beta	87.730083
_cell_angle_gamma	92.315185
loop_
_atom_site_label
_atom_site_type_symbol
_atom_site_fract_x
_atom_site_fract_y
_atom_site_fract_z
Zn1	Zn	-0.292690	1.058301	0.440534
Zn2	Zn	-0.421906	1.062945	0.323024
Zn3	Zn	-0.292268	0.945516	0.318314
Zn4	Zn	-0.432663	0.940764	0.435762
O5	O	-0.359882	1.001881	0.379409
O6	O	-0.305506	1.157250	0.428915
O7	O	-0.400030	1.051300	0.224069
O8	O	-0.179490	0.960522	0.334553
O9	O	-0.400440	1.160662	0.342581
O10	O	-0.179801	1.043385	0.424348
O11	O	-0.304786	0.965025	0.220609
O12	O	-0.315216	0.846552	0.329926
O13	O	-0.418774	0.952423	0.534726
O14	O	-0.418364	0.843061	0.416214
O15	O	-0.315937	1.038777	0.538232
O16	O	-0.536166	1.046692	0.337953
O17	O	-0.544069	0.956927	0.420781
C18	C	-0.367912	0.819310	0.372042
C19	C	-0.371368	0.741204	0.368907
C20	C	-0.323649	0.702731	0.412452
C21	C	-0.326892	0.629343	0.409500
C22	C	-0.377858	0.594429	0.363006
C23	C	-0.425579	0.632907	0.319456
C24	C	-0.422331	0.706294	0.322405
C25	C	-0.392858	0.375136	0.349356
C26	C	-0.396104	0.301744	0.346412
C27	C	-0.297416	0.298185	0.436456
C28	C	-0.294176	0.371573	0.439403
C29	C	-0.341894	0.410045	0.395851
N30	N	-0.381176	0.519414	0.359989
N31	N	-0.338571	0.485059	0.398864
C32	C	-0.569374	1.001816	0.379377
C33	C	-0.658994	1.001851	0.379389
C34	C	-0.987168	1.001971	0.379467
C35	C	-0.895860	1.001935	0.379447
C36	C	-0.823084	1.001911	0.379428
C37	C	-0.731770	1.001876	0.379409
C38	C	-0.149571	1.001965	0.379457
C39	C	-0.059949	1.002001	0.379478
C40	C	-0.368603	0.994552	0.562688
C41	C	-0.372319	0.991429	0.640791
C42	C	-0.351821	1.185166	0.386805
C43	C	-0.348385	1.263271	0.389957
C44	C	-0.351135	1.009223	0.196844
C45	C	-0.347186	1.012482	0.118748
C46	C	-0.320525	1.034919	0.679310
C47	C	-0.324014	1.031975	0.752695
C48	C	-0.379302	0.985545	0.787560
C49	C	-0.431097	0.942051	0.749036
C50	C	-0.427604	0.944991	0.675651
C51	C	-0.395488	0.971928	1.006839
C52	C	-0.398979	0.968992	1.080229
C53	C	-0.291895	1.058916	1.083883
C54	C	-0.288409	1.061855	1.010497
C55	C	-0.340202	1.018358	0.971979
N56	N	-0.382871	0.982537	0.862572
N57	N	-0.336628	1.021363	0.896969
H58	H	-0.258566	0.266853	0.471913
F59	F	-0.269407	0.739883	0.461941
H60	H	-0.437673	0.936519	0.975487
H61	H	-0.431714	0.406451	0.313893
F62	F	-0.276105	0.588401	0.455848
H63	H	-0.275507	1.072729	0.650928
F64	F	-0.450367	0.264586	0.296938
H65	H	-0.252677	0.399995	0.477266
F66	F	-0.479817	0.595747	0.269969
H67	H	-0.444003	0.931181	1.108613
H68	H	-0.281840	1.067391	0.784054
F69	F	-0.489935	0.892633	0.786143
F70	F	-0.473120	0.747239	0.276058
F71	F	-0.229565	1.111273	0.973397
F72	F	-0.236775	1.105204	1.124882
H73	H	-0.469772	0.909569	0.644290
