data_functionalizedCrystal
_audit_creation_method	'MofGen! by Chris Wilmer'
_symmetry_space_group_name_H-M	'P1'
_symmetry_Int_Tables_number	1
_symmetry_cell_setting	triclinic
loop_
_symmetry_equiv_pos_as_xyz
  x,y,z
_cell_length_a	16.120490
_cell_length_b	16.120444
_cell_length_c	10.686551
_cell_angle_alpha	91.291368
_cell_angle_beta	97.502252
_cell_angle_gamma	90.165174
loop_
_atom_site_label
_atom_site_type_symbol
_atom_site_fract_x
_atom_site_fract_y
_atom_site_fract_z
Zn1	Zn	1.299161	-0.355281	0.840282
Zn2	Zn	1.632494	-0.021948	1.173615
Zn3	Zn	1.965828	0.311385	1.506948
Zn4	Zn	1.281312	-0.504003	0.639306
Zn5	Zn	1.614645	-0.170670	0.972639
Zn6	Zn	1.947979	0.162664	1.305972
Zn7	Zn	1.148278	-0.358926	0.618009
Zn8	Zn	1.481611	-0.025593	0.951342
Zn9	Zn	1.814945	0.307740	1.284675
Zn10	Zn	1.152949	-0.487282	0.839134
Zn11	Zn	1.486283	-0.153949	1.172467
Zn12	Zn	1.819616	0.179385	1.505801
O13	O	1.220425	-0.426373	0.734183
O14	O	1.553758	-0.093040	1.067516
O15	O	1.887092	0.240294	1.400849
O16	O	1.413658	-0.380482	0.823015
O17	O	1.746992	-0.047149	1.156348
O18	O	2.080325	0.286185	1.489682
O19	O	1.254240	-0.493281	0.459830
O20	O	1.587573	-0.159948	0.793163
O21	O	1.920907	0.173385	1.126496
O22	O	1.173808	-0.242485	0.639061
O23	O	1.507141	0.090848	0.972395
O24	O	1.840475	0.424182	1.305728
O25	O	1.400545	-0.489747	0.675359
O26	O	1.733878	-0.156414	1.008692
O27	O	2.067212	0.176920	1.342026
O28	O	1.284661	-0.239807	0.802364
O29	O	1.617994	0.093526	1.135698
O30	O	1.951327	0.426860	1.469031
O31	O	1.156501	-0.386694	0.444183
O32	O	1.489834	-0.053361	0.777516
O33	O	1.823167	0.279972	1.110850
O34	O	1.032033	-0.370481	0.637948
O35	O	1.365366	-0.037147	0.971282
O36	O	1.698699	0.296186	1.304615
O37	O	1.181769	-0.461249	1.015937
O38	O	1.515103	-0.127915	1.349270
O39	O	1.848436	0.205418	1.682604
O40	O	1.035465	-0.464783	0.800408
O41	O	1.368798	-0.131450	1.133741
O42	O	1.702131	0.201884	1.467075
O43	O	1.289190	-0.364268	1.016780
O44	O	1.622524	-0.030935	1.350114
O45	O	1.955857	0.302398	1.683447
O46	O	1.258770	-0.617743	0.674246
O47	O	1.592103	-0.284409	1.007579
O48	O	1.925436	0.048924	1.340913
O49	O	1.164462	-0.605458	0.821059
O50	O	1.497795	-0.272125	1.154392
O51	O	1.831129	0.061209	1.487725
C52	C	1.003447	-0.416213	0.716743
C53	C	1.336780	-0.082880	1.050077
C54	C	1.670113	0.250453	1.383410
C55	C	0.910623	-0.411886	0.709314
C56	C	1.243957	-0.078552	1.042647
C57	C	1.577290	0.254781	1.375981
C58	C	0.701025	-0.448816	0.772721
C59	C	1.034358	-0.115482	1.106054
C60	C	1.367692	0.217851	1.439387
C61	C	0.740678	-0.403992	0.695749
C62	C	1.074012	-0.070658	1.029083
C63	C	1.407345	0.262675	1.362416
C64	C	0.835245	-0.408385	0.703299
C65	C	1.168578	-0.075052	1.036632
C66	C	1.501911	0.258281	1.369966
C67	C	0.606451	-0.444423	0.765172
C68	C	0.939784	-0.111090	1.098506
C69	C	1.273117	0.222243	1.431839
C70	C	1.210210	-0.641667	0.749868
C71	C	1.543543	-0.308333	1.083201
C72	C	1.876877	0.025000	1.416535
C73	C	1.205919	-0.733772	0.756627
C74	C	1.539252	-0.400438	1.089960
C75	C	1.872585	-0.067105	1.423293
C76	C	1.242906	-0.949498	0.699409
C77	C	1.576239	-0.616164	1.032743
C78	C	1.909572	-0.282831	1.366076
C79	C	1.198100	-0.902404	0.768981
C80	C	1.531433	-0.569070	1.102314
C81	C	1.864766	-0.235737	1.435648
C82	C	1.202452	-0.808568	0.762105
C83	C	1.535785	-0.475235	1.095438
C84	C	1.869118	-0.141902	1.428772
C85	C	1.238555	-1.043342	0.706284
C86	C	1.571888	-0.710009	1.039617
C87	C	1.905222	-0.376675	1.372951
C88	C	1.438251	-0.436573	0.751691
C89	C	1.771584	-0.103240	1.085024
C90	C	2.104917	0.230094	1.418357
C91	C	1.531075	-0.440920	0.759152
C92	C	1.864408	-0.107586	1.092485
C93	C	2.197742	0.225747	1.425818
C94	C	1.237992	-0.410487	1.063443
C95	C	1.571325	-0.077153	1.396776
C96	C	1.904659	0.256180	1.730110
C97	C	1.245478	-0.403717	1.203754
C98	C	1.578811	-0.070383	1.537088
C99	C	1.912145	0.262950	1.870421
C100	C	1.230704	-0.210239	0.718465
C101	C	1.564038	0.123095	1.051799
C102	C	1.897371	0.456428	1.385132
C103	C	1.235085	-0.118135	0.711767
C104	C	1.568418	0.215198	1.045101
C105	C	1.901751	0.548532	1.378434
C106	C	1.202977	-0.442140	0.406202
C107	C	1.536311	-0.108807	0.739536
C108	C	1.869644	0.224526	1.072869
C109	C	1.195664	-0.448684	0.265888
C110	C	1.528998	-0.115351	0.599221
C111	C	1.862331	0.217982	0.932555
H112	H	0.703605	-0.362317	0.624182
H113	H	1.036939	-0.028984	0.957515
H114	H	1.370272	0.304349	1.290848
C115	C	1.299130	-0.908768	0.611964
C116	C	1.632463	-0.575434	0.945298
C117	C	1.965797	-0.242101	1.278631
H118	H	1.294705	-0.850129	0.618750
H119	H	1.628038	-0.516795	0.952084
H120	H	1.961372	-0.183462	1.285417
H121	H	1.355584	-0.924569	0.636013
H122	H	1.688918	-0.591235	0.969346
H123	H	2.022251	-0.257902	1.302679
H124	H	1.281771	-0.926462	0.527168
H125	H	1.615104	-0.593129	0.860502
H126	H	1.948437	-0.259796	1.193835
C127	C	1.141857	-0.943130	0.856415
C128	C	1.475191	-0.609797	1.189748
C129	C	1.808524	-0.276463	1.523082
H130	H	1.114319	-0.901240	0.899166
H131	H	1.447653	-0.567907	1.232499
H132	H	1.780986	-0.234574	1.565832
H133	H	1.101383	-0.977579	0.807583
H134	H	1.434716	-0.644245	1.140916
H135	H	1.768050	-0.310912	1.474249
H136	H	1.175179	-0.975689	0.916454
H137	H	1.508513	-0.642356	1.249787
H138	H	1.841846	-0.309023	1.583120
H139	H	0.738096	-0.490488	0.844281
H140	H	1.071429	-0.157154	1.177615
H141	H	1.404763	0.176179	1.510948
H142	H	1.147292	-0.492365	1.211741
H143	H	1.480626	-0.159031	1.545075
H144	H	1.813959	0.174302	1.878408
C145	C	1.310837	-0.344712	1.276901
C146	C	1.644170	-0.011378	1.610234
C147	C	1.977503	0.321955	1.943567
H148	H	1.307464	-0.347745	1.364774
H149	H	1.640797	-0.014412	1.698107
H150	H	1.974130	0.318921	2.031440
H151	H	1.365233	-0.360495	1.260740
H152	H	1.698566	-0.027161	1.594073
H153	H	2.031900	0.306172	1.927407
H154	H	1.300122	-0.289487	1.250326
H155	H	1.633456	0.043847	1.583659
H156	H	1.966789	0.377180	1.916993
