data_functionalizedCrystal
_audit_creation_method	'MofGen! by Chris Wilmer'
_symmetry_space_group_name_H-M	'P1'
_symmetry_Int_Tables_number	1
_symmetry_cell_setting	triclinic
loop_
_symmetry_equiv_pos_as_xyz
  x,y,z
_cell_length_a	12.759399
_cell_length_b	12.759401
_cell_length_c	12.759401
_cell_angle_alpha	89.993434
_cell_angle_beta	90.008321
_cell_angle_gamma	89.986676
loop_
_atom_site_label
_atom_site_type_symbol
_atom_site_fract_x
_atom_site_fract_y
_atom_site_fract_z
Zn1	Zn	-0.418500	-1.606118	0.594006
Zn2	Zn	-0.594146	-1.606051	0.418325
Zn3	Zn	-0.418476	-1.430460	0.418343
Zn4	Zn	-0.594132	-1.430407	0.593963
O5	O	-0.506314	-1.518259	0.506159
O6	O	-0.441816	-1.753130	0.570712
O7	O	-0.570839	-1.582752	0.271306
O8	O	-0.271458	-1.453811	0.441670
O9	O	-0.570862	-1.753081	0.441640
O10	O	-0.271476	-1.582867	0.570729
O11	O	-0.441775	-1.453746	0.271319
O12	O	-0.441762	-1.283432	0.441628
O13	O	-0.570838	-1.453722	0.740990
O14	O	-0.570815	-1.283393	0.570656
O15	O	-0.441802	-1.582816	0.741021
O16	O	-0.741165	-1.582701	0.441599
O17	O	-0.741155	-1.453657	0.570639
C18	C	-0.506285	-1.245292	0.506140
C19	C	-0.506298	-1.128515	0.506157
C20	C	-0.439223	-1.073679	0.573468
C21	C	-0.439229	-0.963955	0.573473
C22	C	-0.573395	-0.963912	0.438854
C23	C	-0.573383	-1.073634	0.438844
C24	C	-0.779281	-1.518195	0.506135
C25	C	-0.896058	-1.518263	0.506160
C26	C	-0.950890	-1.585533	0.439045
C27	C	-1.060614	-1.585601	0.439081
C28	C	-1.060663	-1.451119	0.573349
C29	C	-0.950941	-1.451058	0.573318
C30	C	-0.232280	-1.518352	0.506206
C31	C	-0.115504	-1.518392	0.506226
C32	C	-0.506321	-1.518271	0.780193
C33	C	-0.506324	-1.518276	0.896969
C34	C	-0.506333	-0.792292	0.506175
C35	C	-0.506317	-0.909069	0.506172
C36	C	-0.439146	-1.585486	0.951849
C37	C	-0.439144	-1.585477	1.061573
C38	C	-0.573507	-1.451044	1.061528
C39	C	-0.573503	-1.451048	0.951806
C40	C	-0.506330	-1.518246	1.233192
C41	C	-0.506326	-1.518262	1.116415
H42	H	-0.628004	-1.118283	0.384026
H43	H	-0.906206	-1.640258	0.384363
H44	H	-1.105254	-1.640380	0.384430
H45	H	-0.384439	-1.640205	1.106252
H46	H	-0.906294	-1.396278	0.627976
Cl47	Cl	-1.129668	-1.366633	0.657768
H48	H	-0.384441	-1.640224	0.907205
Cl49	Cl	-0.354883	-1.142669	0.658084
H50	H	-0.628204	-1.396312	1.106189
Cl51	Cl	-0.657957	-1.366542	0.882808
H52	H	-0.384608	-0.919313	0.628282
Cl53	Cl	-0.657729	-0.894912	0.354241
