data_functionalizedCrystal
_audit_creation_method	'MofGen! by Chris Wilmer'
_symmetry_space_group_name_H-M	'P1'
_symmetry_Int_Tables_number	1
_symmetry_cell_setting	triclinic
loop_
_symmetry_equiv_pos_as_xyz
  x,y,z
_cell_length_a	17.038272
_cell_length_b	17.038274
_cell_length_c	15.500227
_cell_angle_alpha	86.974526
_cell_angle_beta	86.956295
_cell_angle_gamma	88.888328
loop_
_atom_site_label
_atom_site_type_symbol
_atom_site_fract_x
_atom_site_fract_y
_atom_site_fract_z
O1	O	1.052162	-0.167138	-0.071861
O2	O	0.824351	-0.164429	-0.071886
O3	O	0.936901	-0.051879	-0.071850
O4	O	0.939612	-0.279688	-0.071898
O5	O	0.930069	-0.058680	0.072036
O6	O	0.817519	-0.171230	0.072000
O7	O	1.045330	-0.173939	0.072025
Cu8	Cu	0.930801	-0.173205	0.085151
Cu9	Cu	0.938880	-0.165162	-0.085012
O10	O	0.932780	-0.286489	0.071989
C11	C	0.791643	-0.165366	0.000054
C12	C	0.704360	-0.158018	0.000046
C13	C	0.658751	-0.225481	0.000032
C14	C	0.576739	-0.218573	0.000046
C15	C	0.540336	-0.144200	0.000066
C16	C	0.585951	-0.076732	0.000082
C17	C	0.667961	-0.083642	0.000075
C18	C	0.292947	-0.119791	0.000094
C19	C	0.210930	-0.112887	0.000099
C20	C	0.201724	-0.254728	0.000064
C21	C	0.283737	-0.261630	0.000052
C22	C	0.329344	-0.194162	0.000072
C23	C	0.456507	-0.137137	0.000077
C24	C	0.413172	-0.201227	0.000067
C25	C	0.931022	-0.025987	0.000097
C26	C	0.923673	0.061296	0.000109
C27	C	1.078038	-0.173001	0.000083
C28	C	1.165322	-0.180350	0.000086
N29	N	0.925124	-0.178862	0.204834
C30	C	0.991136	0.106905	0.000125
C31	C	0.984227	0.188917	0.000128
C32	C	0.909854	0.225318	0.000122
C33	C	0.842386	0.179703	0.000104
C34	C	0.849296	0.097694	0.000095
C35	C	0.885442	0.472705	0.000145
C36	C	0.878536	0.554721	0.000157
C37	C	1.020378	0.563928	0.000179
C38	C	1.027281	0.481916	0.000174
C39	C	0.959814	0.436309	0.000152
C40	C	0.902789	0.309147	0.000128
C41	C	0.966879	0.352482	0.000140
C42	C	0.938657	0.687617	0.000077
C43	C	0.945999	0.600329	0.000172
N44	N	0.944563	-0.159500	-0.204695
C45	C	0.972834	-0.131191	0.250126
C46	C	0.968549	-0.135477	0.340697
C47	C	0.916556	-0.187439	0.385975
C48	C	0.868841	-0.235112	0.340677
C49	C	0.873123	-0.230822	0.250107
C50	C	0.901129	-0.202882	0.659437
C51	C	0.896853	-0.207171	0.750013
C52	C	0.996560	-0.107534	0.750027
C53	C	1.000841	-0.103252	0.659456
C54	C	0.953122	-0.150922	0.614165
C55	C	0.912176	-0.191823	0.478554
C56	C	0.957499	-0.146533	0.521588
H57	H	0.330071	-0.064854	0.000112
H58	H	1.015175	-0.088882	0.213267
H59	H	1.007398	-0.096659	0.377574
Cl60	Cl	0.846817	-0.257148	0.535478
H61	H	0.556305	-0.016177	0.000111
Cl62	Cl	1.066204	-0.037928	0.602535
Cl63	Cl	0.841145	-0.262812	0.602506
Cl64	Cl	0.519406	-0.303388	0.000023
H65	H	0.442814	-0.261781	0.000055
H66	H	0.705095	-0.028706	0.000085
H67	H	0.817969	0.584355	0.000166
Cl68	Cl	1.022856	-0.081209	0.464667
H69	H	1.035409	-0.068722	0.786911
H70	H	0.313370	-0.322191	0.000025
Cl71	Cl	0.800624	0.415381	0.000114
Cl72	Cl	0.803474	-0.300433	0.397595
Cl73	Cl	0.704506	-0.318982	0.000001
Cl74	Cl	1.069042	0.246250	0.000150
H75	H	0.181295	-0.052321	0.000115
Cl76	Cl	0.410737	-0.043643	0.000099
H77	H	1.087844	0.452284	0.000179
Cl78	Cl	0.813138	-0.290752	0.193169
Cl79	Cl	0.764482	0.040357	0.000072
H80	H	0.164582	-0.309656	0.000049
H81	H	0.781830	0.209348	0.000094
H82	H	0.842234	0.338794	0.000125
Cl83	Cl	1.084638	0.061151	0.000141
Cl84	Cl	1.105188	0.621267	0.000204
H85	H	0.854512	-0.249488	0.786874
Cl86	Cl	1.060374	0.306719	0.000142
