data_functionalizedCrystal
_audit_creation_method	'MofGen! by Chris Wilmer'
_symmetry_space_group_name_H-M	'P1'
_symmetry_Int_Tables_number	1
_symmetry_cell_setting	triclinic
loop_
_symmetry_equiv_pos_as_xyz
  x,y,z
_cell_length_a	18.100771
_cell_length_b	18.101398
_cell_length_c	16.625539
_cell_angle_alpha	89.984069
_cell_angle_beta	89.716699
_cell_angle_gamma	89.690946
loop_
_atom_site_label
_atom_site_type_symbol
_atom_site_fract_x
_atom_site_fract_y
_atom_site_fract_z
Zn1	Zn	0.294883	1.130693	-0.457555
Zn2	Zn	0.794883	1.630693	0.042445
Zn3	Zn	0.418739	1.129981	-0.323456
Zn4	Zn	0.918739	1.629981	0.176544
Zn5	Zn	0.294905	1.006848	-0.322747
Zn6	Zn	0.794905	1.506848	0.177253
Zn7	Zn	0.418691	1.006198	-0.458256
Zn8	Zn	0.918691	1.506198	0.041744
O9	O	0.356804	1.068430	-0.390503
O10	O	0.856804	1.568430	0.109497
O11	O	0.311324	1.234231	-0.439770
O12	O	0.811324	1.734231	0.060230
O13	O	0.402342	1.113621	-0.210529
O14	O	0.902342	1.613621	0.289471
O15	O	0.191263	1.023847	-0.340039
O16	O	0.691263	1.523847	0.159961
O17	O	0.402321	1.233708	-0.341247
O18	O	0.902321	1.733708	0.158753
O19	O	0.191247	1.114835	-0.439083
O20	O	0.691247	1.614835	0.060917
O21	O	0.311361	1.023156	-0.210008
O22	O	0.811361	1.523156	0.289992
O23	O	0.311314	0.903129	-0.340719
O24	O	0.811314	1.403129	0.159281
O25	O	0.402238	1.022739	-0.570995
O26	O	0.902238	1.522739	-0.070995
O27	O	0.402259	0.902652	-0.440277
O28	O	0.902259	1.402652	0.059723
O29	O	0.311277	1.114205	-0.570480
O30	O	0.811277	1.614205	-0.070480
O31	O	0.522372	1.112991	-0.341927
O32	O	1.022372	1.612991	0.158073
O33	O	0.522336	1.022048	-0.440964
O34	O	1.022336	1.522048	0.059036
C35	C	0.356784	0.876020	-0.390498
C36	C	0.856784	1.376020	0.109502
C37	C	0.356793	0.793706	-0.390514
C38	C	0.856793	1.293706	0.109486
C39	C	0.163631	1.069493	-0.389404
C40	C	0.663631	1.569493	0.110596
C41	C	0.081312	1.069946	-0.388935
C42	C	0.581312	1.569946	0.111065
C43	C	0.356807	0.642997	-0.390513
C44	C	0.856807	1.142997	0.109487
C45	C	0.414115	0.611367	-0.453057
C46	C	0.914115	1.111367	0.046943
C47	C	0.414347	0.525748	-0.452874
C48	C	0.914347	1.025748	0.047126
C49	C	0.356821	0.494614	-0.390513
C50	C	0.856821	0.994614	0.109487
C51	C	0.377650	0.525563	-0.305559
C52	C	0.877650	1.025563	0.194441
C53	C	0.378058	0.611206	-0.305921
C54	C	0.878058	1.111206	0.194079
C55	C	0.278527	0.611859	-0.412181
C56	C	0.778527	1.111859	0.087819
C57	C	0.278956	0.526206	-0.414057
C58	C	0.778956	1.026206	0.085943
C59	C	0.356827	0.410755	-0.390508
C60	C	0.856827	0.910755	0.109492
C61	C	0.356802	0.726857	-0.390513
C62	C	0.856802	1.226857	0.109487
C63	C	-0.217757	1.067997	-0.391052
C64	C	0.282243	1.567997	0.108948
C65	C	-0.186440	1.125252	-0.453355
C66	C	0.313560	1.625252	0.046645
C67	C	-0.100832	1.126035	-0.452567
C68	C	0.399168	1.626035	0.047433
C69	C	-0.069386	1.068964	-0.390002
C70	C	0.430614	1.568964	0.109998
C71	C	-0.101610	1.089934	-0.305263
C72	C	0.398390	1.589934	0.194737
C73	C	-0.187249	1.089790	-0.306231
C74	C	0.312751	1.589790	0.193769
C75	C	-0.185039	0.989838	-0.412519
C76	C	0.314961	1.489838	0.087481
C77	C	-0.099380	0.990809	-0.413790
C78	C	0.400620	1.490809	0.086210
C79	C	0.014468	1.069509	-0.389404
C80	C	0.514468	1.569509	0.110596
C81	C	-0.301610	1.067454	-0.391645
C82	C	0.198390	1.567454	0.108355
C83	C	0.549227	1.067392	-0.391616
C84	C	1.049227	1.567392	0.108384
C85	C	0.631546	1.067015	-0.392119
C86	C	1.131546	1.567015	0.107881
C87	C	0.356749	1.068479	-0.600812
C88	C	0.856749	1.568479	-0.100812
C89	C	0.356726	1.068499	-0.690433
C90	C	0.856726	1.568499	-0.190433
C91	C	0.356825	1.261592	-0.390510
C92	C	0.856825	1.761592	0.109490
C93	C	0.356834	1.343906	-0.390512
C94	C	0.856834	1.843906	0.109488
C95	C	0.356643	1.068534	-1.018608
C96	C	0.856643	1.568534	-0.518608
C97	C	0.356668	1.068522	-0.927300
C98	C	0.856668	1.568522	-0.427300
C99	C	0.356685	1.068517	-0.854524
C100	C	0.856685	1.568517	-0.354524
C101	C	0.356709	1.068504	-0.763209
C102	C	0.856709	1.568504	-0.263209
C103	C	0.356806	1.068425	-0.181013
C104	C	0.856806	1.568425	0.318987
C105	C	0.356621	1.068549	-0.091391
C106	C	0.856621	1.568549	0.408609
H107	H	0.401354	0.504818	-0.515870
H108	H	0.901354	1.004818	-0.015870
H109	H	-0.077903	0.946167	-0.371418
H110	H	0.422097	1.446167	0.128582
H111	H	-0.081182	1.184229	-0.438064
H112	H	0.418818	1.684229	0.061936
F113	F	0.222724	0.638630	-0.352637
F114	F	0.722724	1.138630	0.147363
H115	H	0.434237	0.503807	-0.286870
H116	H	0.934237	1.003807	0.213130
F117	F	-0.215658	1.200528	-0.435027
F118	F	0.284342	1.700528	0.064973
H119	H	-0.208094	1.146943	-0.287989
H120	H	0.291906	1.646943	0.212011
H121	H	-0.206212	1.112019	-0.516699
H122	H	0.293788	1.612019	-0.016699
F123	F	-0.071722	0.970111	-0.495323
F124	F	0.428278	1.470111	0.004677
H125	H	0.471791	0.632573	-0.438893
H126	H	0.971791	1.132573	0.061107
F127	F	-0.214393	1.037671	-0.243450
F128	F	0.285607	1.537671	0.256550
F129	F	0.324766	0.499227	-0.243000
F130	F	0.824766	0.999227	0.257000
H131	H	0.435269	0.630869	-0.287554
H132	H	0.935269	1.130869	0.212446
F133	F	-0.075042	1.037475	-0.242534
F134	F	0.424958	1.537475	0.257466
F135	F	-0.074710	1.164170	-0.280611
F136	F	0.425290	1.664170	0.219389
H137	H	0.472356	0.504942	-0.438534
H138	H	0.972356	1.004942	0.061466
F139	F	-0.212138	0.964463	-0.492301
F140	F	0.287862	1.464463	0.007699
H141	H	0.401273	0.632052	-0.516250
H142	H	0.901273	1.132052	-0.016250
F143	F	0.325852	0.638570	-0.242936
F144	F	0.825852	1.138570	0.257064
H145	H	-0.205282	0.947198	-0.367124
H146	H	0.294718	1.447198	0.132876
H147	H	0.263244	0.505992	-0.476577
H148	H	0.763244	1.005992	0.023423
F149	F	0.253654	0.640247	-0.491757
F150	F	0.753654	1.140247	0.008243
H151	H	0.234004	0.505044	-0.371824
H152	H	0.734004	1.005044	0.128176
F153	F	-0.072293	1.108937	-0.534727
F154	F	0.427707	1.608937	-0.034727
