data_functionalizedCrystal
_audit_creation_method	'MofGen! by Chris Wilmer'
_symmetry_space_group_name_H-M	'P1'
_symmetry_Int_Tables_number	1
_symmetry_cell_setting	triclinic
loop_
_symmetry_equiv_pos_as_xyz
  x,y,z
_cell_length_a	29.839131
_cell_length_b	10.685969
_cell_length_c	10.686551
_cell_angle_alpha	90.351934
_cell_angle_beta	85.589901
_cell_angle_gamma	94.324251
loop_
_atom_site_label
_atom_site_type_symbol
_atom_site_fract_x
_atom_site_fract_y
_atom_site_fract_z
Zn1	Zn	-0.217263	-1.971929	-0.561947
Zn2	Zn	-0.297687	-1.955594	-0.352174
Zn3	Zn	-0.216416	-1.746057	-0.368310
Zn4	Zn	-0.286203	-1.762047	-0.577993
O5	O	-0.254392	-1.858907	-0.465106
O6	O	-0.233092	-2.145290	-0.520652
O7	O	-0.291358	-1.914271	-0.178771
O8	O	-0.153664	-1.776163	-0.394034
O9	O	-0.292180	-2.133290	-0.366533
O10	O	-0.154286	-1.942110	-0.536298
O11	O	-0.231648	-1.760324	-0.190626
O12	O	-0.220512	-1.572649	-0.409593
O13	O	-0.272606	-1.803416	-0.751408
O14	O	-0.271785	-1.584397	-0.563646
O15	O	-0.221956	-1.957615	-0.739619
O16	O	-0.359028	-1.929776	-0.382092
O17	O	-0.350591	-1.787577	-0.548000
C18	C	-0.244811	-1.533011	-0.490112
C19	C	-0.240722	-1.393593	-0.500839
C20	C	-0.371110	-1.858675	-0.465061
C21	C	-0.421044	-1.858694	-0.465075
C22	C	-0.735075	-1.933104	-0.378824
C23	C	-0.922751	-1.933263	-0.378861
O24	O	-0.950742	-1.996345	-0.305493
N25	N	-0.941839	-1.859174	-0.465181
C26	C	-0.914006	-1.785046	-0.551503
O27	O	-0.934548	-1.722043	-0.624933
C28	C	-0.726330	-1.784896	-0.551471
C29	C	-0.707244	-1.858980	-0.465137
C30	C	-0.715989	-2.007183	-0.292498
C31	C	-0.669072	-2.007138	-0.292485
C32	C	-0.641242	-1.933013	-0.378798
C33	C	-0.660328	-1.858934	-0.465124
C34	C	-0.698497	-1.710776	-0.637798
C35	C	-0.651576	-1.710747	-0.637785
C36	C	-0.632490	-1.784831	-0.551451
C37	C	-0.585582	-1.784764	-0.551425
N38	N	-0.566493	-1.858853	-0.465105
C39	C	-0.594323	-1.932977	-0.378791
C40	C	-1.012538	-1.785129	-0.551512
C41	C	-1.059457	-1.785165	-0.551519
C42	C	-1.068199	-1.933383	-0.378878
C43	C	-1.021279	-1.933340	-0.378866
C44	C	-0.993450	-1.859218	-0.465192
C45	C	-0.495795	-1.932875	-0.378770
C46	C	-0.448874	-1.932819	-0.378762
C47	C	-0.440136	-1.784606	-0.551407
C48	C	-0.487053	-1.784657	-0.551412
C49	C	-0.514882	-1.858801	-0.465089
O50	O	-0.557564	-1.721725	-0.624764
O51	O	-0.573773	-1.995993	-0.305391
C52	C	-0.781991	-1.933150	-0.378837
C53	C	-0.801077	-1.859071	-0.465163
C54	C	-0.773247	-1.784946	-0.551476
C55	C	-0.847996	-1.859107	-0.465169
C56	C	-0.875826	-1.933231	-0.378856
C57	C	-0.856738	-2.007320	-0.292536
C58	C	-0.809821	-2.007274	-0.292523
C59	C	-0.792335	-1.710857	-0.637796
C60	C	-0.839252	-1.710908	-0.637801
C61	C	-0.867082	-1.785032	-0.551488
C62	C	-0.137219	-1.859175	-0.465176
C63	C	-0.087287	-1.859289	-0.465206
C64	C	-0.246095	-1.884121	-0.792303
C65	C	-0.242559	-1.894866	-0.931735
C66	C	-0.264008	-1.186074	-0.439989
C67	C	-0.268095	-1.325491	-0.429249
C68	C	-0.262627	-1.833862	-0.139176
C69	C	-0.266044	-1.823360	0.000273
H70	H	-0.294663	-1.373850	-0.359749
H71	H	-0.433337	-1.993147	-0.308454
O72	O	-0.522758	-2.004923	-0.294792
C73	C	-0.526465	-2.151971	-0.123592
C74	C	-0.495878	-2.070423	-0.218615
H75	H	-0.504745	-2.204969	-0.061996
H76	H	-0.548427	-2.089453	-0.062279
H77	H	-0.548873	-2.221932	-0.176226
H78	H	-0.473442	-2.000453	-0.166084
H79	H	-0.473946	-2.133019	-0.279926
H80	H	-0.417470	-1.724250	-0.621679
H81	H	-0.738644	-2.067551	-0.222210
H82	H	-0.214158	-1.345241	-0.570346
H83	H	-0.288857	-1.753924	-0.951267
H84	H	-0.219747	-1.964316	-0.980200
O85	O	-0.650483	-2.079188	-0.208799
C86	C	-0.602881	-2.247288	-0.179057
C87	C	-0.623892	-2.165753	-0.273967
H88	H	-0.581385	-2.317314	-0.231707
H89	H	-0.580890	-2.184759	-0.117831
H90	H	-0.630844	-2.300212	-0.117354
H91	H	-0.595958	-2.112817	-0.335753
H92	H	-0.645894	-2.228348	-0.335104
H93	H	-1.005743	-1.993666	-0.308566
O94	O	-1.095303	-2.005440	-0.295223
C95	C	-1.171464	-2.071303	-0.218862
C96	C	-1.140819	-1.989610	-0.313629
H97	H	-1.208270	-2.058513	-0.233694
H98	H	-1.164623	-2.174124	-0.233326
H99	H	-1.164182	-2.041682	-0.119337
H100	H	-1.148084	-2.019119	-0.413193
H101	H	-1.147666	-1.886806	-0.299056
H102	H	-0.794285	-2.067601	-0.222222
H103	H	-1.074992	-1.724826	-0.621810
O104	O	-0.883842	-2.079328	-0.208840
C105	C	-0.960003	-2.145085	-0.132392
C106	C	-0.929358	-2.063478	-0.227232
H107	H	-0.996809	-2.132279	-0.147211
H108	H	-0.953174	-2.247923	-0.146787
H109	H	-0.952708	-2.115399	-0.032893
H110	H	-0.936634	-2.093053	-0.326769
H111	H	-0.936192	-1.960658	-0.212728
O112	O	-0.985572	-1.712996	-0.635415
C113	C	-0.981866	-1.566030	-0.806685
C114	C	-1.012453	-1.647647	-0.711722
H115	H	-1.003586	-1.513194	-0.868421
H116	H	-0.959477	-1.495947	-0.754129
H117	H	-0.959884	-1.628607	-0.867866
H118	H	-1.034463	-1.585170	-0.650516
H119	H	-1.034812	-1.717739	-0.764356
O120	O	-0.716956	-1.638783	-0.721790
C121	C	-0.703313	-1.491736	-0.892994
C122	C	-0.682351	-1.573233	-0.797954
H123	H	-0.675344	-1.438697	-0.954580
H124	H	-0.725257	-1.554295	-0.954317
H125	H	-0.724861	-1.421811	-0.840377
H126	H	-0.660781	-1.643168	-0.850469
H127	H	-0.660433	-1.510596	-0.736634
H128	H	-0.628919	-1.650390	-0.708086
O129	O	-0.505576	-1.712836	-0.635437
C130	C	-0.512696	-1.668192	-0.853465
C131	C	-0.491701	-1.749622	-0.758431
H132	H	-0.501478	-1.697885	-0.952927
H133	H	-0.551013	-1.680977	-0.838764
H134	H	-0.501113	-1.565354	-0.839048
H135	H	-0.503249	-1.852489	-0.772791
H136	H	-0.453387	-1.736730	-0.773157
O137	O	-0.857715	-1.638904	-0.721793
C138	C	-0.844079	-1.491852	-0.892994
C139	C	-0.823113	-1.573343	-0.797957
H140	H	-0.816113	-1.438804	-0.954580
H141	H	-0.866021	-1.554416	-0.954317
H142	H	-0.865630	-1.421935	-0.840374
H143	H	-0.801540	-1.643270	-0.850475
H144	H	-0.801197	-1.510700	-0.736637
H145	H	-0.769679	-1.650498	-0.708084
