data_functionalizedCrystal
_audit_creation_method	'MofGen! by Chris Wilmer'
_symmetry_space_group_name_H-M	'P1'
_symmetry_Int_Tables_number	1
_symmetry_cell_setting	triclinic
loop_
_symmetry_equiv_pos_as_xyz
  x,y,z
_cell_length_a	23.532407
_cell_length_b	10.654550
_cell_length_c	9.130313
_cell_angle_alpha	89.996938
_cell_angle_beta	89.999274
_cell_angle_gamma	96.333176
loop_
_atom_site_label
_atom_site_type_symbol
_atom_site_fract_x
_atom_site_fract_y
_atom_site_fract_z
O1	O	0.756251	-0.152439	0.121704
O2	O	0.590531	-0.174495	0.121726
O3	O	0.677201	0.019393	0.121709
O4	O	0.669581	-0.346327	0.121721
O5	O	0.677198	0.019398	-0.121890
O6	O	0.590527	-0.174490	-0.121873
O7	O	0.756247	-0.152434	-0.121895
Cu8	Cu	0.673387	-0.163462	-0.144126
Cu9	Cu	0.673391	-0.163468	0.143957
O10	O	0.669577	-0.346322	-0.121878
C11	C	0.569309	-0.173931	-0.000070
C12	C	0.506081	-0.172243	-0.000062
C13	C	0.239121	-0.050540	-0.000105
C14	C	0.298532	-0.052108	-0.000105
O15	O	0.334647	0.044437	-0.000159
N16	N	0.321909	-0.167375	-0.000091
C17	C	0.285872	-0.281080	-0.000093
O18	O	0.311211	-0.379267	-0.000083
C19	C	0.226463	-0.279510	-0.000104
C20	C	0.203089	-0.164236	-0.000103
C21	C	0.215747	0.064725	-0.000106
C22	C	0.156340	0.066293	-0.000104
C23	C	0.120308	-0.047403	-0.000101
C24	C	0.143683	-0.162668	-0.000100
C25	C	0.190427	-0.393214	-0.000116
C26	C	0.131014	-0.391634	-0.000128
C27	C	0.107641	-0.276360	-0.000127
C28	C	0.048244	-0.274796	-0.000095
N29	N	0.024867	-0.159530	-0.000109
C30	C	0.060899	-0.045833	-0.000112
C31	C	0.410636	-0.284368	-0.000073
C32	C	0.470044	-0.285940	-0.000051
C33	C	0.482700	-0.056967	-0.000066
C34	C	0.423290	-0.055397	-0.000077
C35	C	0.387259	-0.169102	-0.000086
C36	C	-0.063859	-0.042549	-0.000106
C37	C	-0.123271	-0.040991	-0.000097
C38	C	-0.135922	-0.269962	-0.000090
C39	C	-0.076515	-0.271521	-0.000091
C40	C	-0.040484	-0.157804	-0.000104
O41	O	0.012094	-0.371291	-0.000047
O42	O	0.035551	0.052338	-0.000141
C43	C	0.676640	0.066175	-0.000089
C44	C	0.674966	0.205566	-0.000083
C45	C	0.777469	-0.152998	-0.000095
C46	C	0.840697	-0.154687	-0.000095
C47	C	0.670138	-0.393105	-0.000077
C48	C	0.671812	-0.532495	-0.000073
N49	N	0.673388	-0.163457	-0.346749
C50	C	0.725996	0.286668	-0.000095
C51	C	0.724419	0.417639	-0.000084
C52	C	0.620779	0.386392	-0.000057
C53	C	0.622355	0.255424	-0.000057
C54	C	0.785832	0.304709	-0.000117
C55	C	0.784255	0.435680	-0.000106
C56	C	0.638556	-0.087677	-0.423422
C57	C	0.638557	-0.087683	-0.576759
C58	C	0.708228	-0.239251	-0.576736
C59	C	0.708223	-0.239251	-0.423402
C60	C	0.598334	-0.000166	-0.423437
C61	C	0.598336	-0.000172	-0.576774
N62	N	0.673394	-0.163463	0.346580
H63	H	-0.142299	0.052883	-0.000093
C64	C	0.746545	-0.322618	-0.661052
H65	H	0.767286	-0.367757	-0.593423
H66	H	0.772552	-0.270874	-0.720875
H67	H	0.723431	-0.380679	-0.720858
C68	C	-0.050802	-0.398318	-0.000072
H69	H	-0.080772	-0.465805	-0.000073
H70	H	-0.027887	-0.403690	0.084871
H71	H	-0.027893	-0.403691	-0.085036
C72	C	0.522340	0.068101	-0.000080
H73	H	0.499914	0.136983	-0.000076
H74	H	0.545780	0.072240	-0.085027
H75	H	0.545777	0.072242	0.084881
C76	C	0.537662	-0.043790	-0.367219
H77	H	0.512713	-0.061744	-0.448152
H78	H	0.524400	0.021158	-0.309425
H79	H	0.538442	-0.117721	-0.309414
C80	C	0.566225	0.166210	-0.000016
H81	H	0.574697	0.081068	-0.000002
H82	H	0.544664	0.181250	-0.084948
H83	H	0.544685	0.181259	0.084959
H84	H	-0.034530	0.050051	-0.000115
C85	C	0.617282	0.134215	-0.633011
H86	H	0.625080	0.189484	-0.552087
H87	H	0.587651	0.162558	-0.690811
H88	H	0.650813	0.133508	-0.690815
H89	H	-0.165269	-0.362531	-0.000081
C90	C	0.622543	0.128343	-0.359181
H91	H	0.633324	0.185572	-0.436672
H92	H	0.655044	0.117834	-0.300611
H93	H	0.594188	0.160914	-0.300634
C94	C	0.808969	0.498206	0.141637
H95	H	0.821029	0.435411	0.204796
H96	H	0.780493	0.540012	0.189257
H97	H	0.840725	0.557784	0.118200
C98	C	0.814701	0.493069	-0.137830
H99	H	0.828286	0.427794	-0.194485
H100	H	0.846008	0.552054	-0.109530
H101	H	0.788582	0.534748	-0.194458
H102	H	0.555447	-0.040995	-0.624333
H103	H	0.137315	0.160161	-0.000109
H104	H	0.101680	-0.484228	-0.000142
H105	H	0.245079	0.157316	-0.000113
C106	C	0.562912	0.441241	-0.000040
H107	H	0.569281	0.530857	-0.000049
H108	H	0.541880	0.413352	0.084910
H109	H	0.541879	0.413365	-0.084997
H110	H	0.404264	0.038469	-0.000077
H111	H	0.736582	-0.300970	-0.360981
C112	C	0.817448	0.266031	0.137580
H113	H	0.818523	0.177157	0.137562
H114	H	0.797961	0.289871	0.222548
H115	H	0.855374	0.307192	0.137557
C116	C	0.495749	-0.412740	-0.000038
H117	H	0.465776	-0.480223	-0.000046
H118	H	0.518662	-0.418122	0.084908
H119	H	0.518659	-0.418115	-0.084999
C120	C	0.216125	-0.520017	-0.000139
H121	H	0.186150	-0.587494	-0.000161
H122	H	0.239038	-0.525418	0.084804
H123	H	0.239035	-0.525381	-0.085104
C124	C	0.371006	-0.409451	-0.000052
H125	H	0.393442	-0.478317	-0.000027
H126	H	0.347566	-0.413615	-0.084998
H127	H	0.347568	-0.413598	0.084909
C128	C	0.811574	0.257390	-0.142199
H129	H	0.821948	0.326947	-0.205468
H130	H	0.784126	0.198913	-0.189402
H131	H	0.844537	0.217132	-0.119378
