data_functionalizedCrystal
_audit_creation_method	'MofGen! by Chris Wilmer'
_symmetry_space_group_name_H-M	'P1'
_symmetry_Int_Tables_number	1
_symmetry_cell_setting	triclinic
loop_
_symmetry_equiv_pos_as_xyz
  x,y,z
_cell_length_a	19.188905
_cell_length_b	18.266242
_cell_length_c	16.992695
_cell_angle_alpha	89.993686
_cell_angle_beta	93.098611
_cell_angle_gamma	90.016163
loop_
_atom_site_label
_atom_site_type_symbol
_atom_site_fract_x
_atom_site_fract_y
_atom_site_fract_z
O1	O	0.931882	0.061003	-0.097780
O2	O	0.729341	0.060978	-0.110976
O3	O	0.829799	0.060985	0.009762
O4	O	0.831423	0.060997	-0.218517
O5	O	0.829781	-0.060777	0.009768
O6	O	0.729322	-0.060784	-0.110969
O7	O	0.931864	-0.060759	-0.097774
Zn8	Zn	0.830590	-0.080104	-0.104371
Zn9	Zn	0.830614	0.080323	-0.104379
O10	O	0.831405	-0.060765	-0.218511
C11	C	0.703295	0.000094	-0.110548
C12	C	0.625715	0.000084	-0.109275
C13	C	0.589298	0.066459	-0.108667
C14	C	0.516404	0.066468	-0.107463
C15	C	0.479931	0.000099	-0.106850
C16	C	0.516357	-0.066284	-0.107463
C17	C	0.589249	-0.066292	-0.108675
N18	N	0.368181	-0.049296	-0.060332
N19	N	0.298937	-0.049284	-0.059178
C20	C	0.260310	0.000116	-0.103198
N21	N	0.293545	0.049516	-0.148406
N22	N	0.362796	0.049507	-0.149556
C23	C	0.400891	0.000099	-0.105536
C24	C	0.144853	0.066505	-0.101285
C25	C	0.071957	0.066511	-0.100085
C26	C	0.071912	-0.066243	-0.100077
C27	C	0.144806	-0.066247	-0.101285
C28	C	0.181272	0.000129	-0.101885
N29	N	0.830578	-0.189591	-0.104365
C30	C	0.875079	-0.227896	-0.050928
C31	C	0.875083	-0.304541	-0.050924
C32	C	0.830594	-0.342877	-0.104371
C33	C	0.786085	-0.304562	-0.157811
C34	C	0.786077	-0.227919	-0.157808
N35	N	0.825580	-0.463207	-0.173769
N36	N	0.825591	-0.536015	-0.173770
C37	C	0.830614	-0.573800	-0.104382
N38	N	0.835639	-0.536026	-0.034992
N39	N	0.835631	-0.463211	-0.034992
C40	C	0.830598	-0.425984	-0.104380
C41	C	0.875122	-0.695213	-0.050937
C42	C	0.875121	-0.771859	-0.050932
C43	C	0.786127	-0.771879	-0.157826
C44	C	0.786124	-0.695234	-0.157824
C45	C	0.830625	-0.656906	-0.104380
C46	C	0.957909	0.000127	-0.098201
C47	C	1.035489	0.000141	-0.099474
C48	C	0.827701	0.000104	0.038970
C49	C	0.821468	0.000103	0.125993
N50	N	0.830631	0.189810	-0.104378
C51	C	0.833503	0.000117	-0.247720
C52	C	0.839736	0.000123	-0.334742
C53	C	0.881608	0.000110	0.176445
C54	C	0.875747	0.000116	0.258211
C55	C	0.809746	0.000110	0.289523
C56	C	0.749602	0.000106	0.239064
C57	C	0.755463	0.000105	0.157299
C58	C	0.785453	0.000117	0.533035
C59	C	0.779596	0.000116	0.614806
C60	C	0.905743	0.000128	0.633948
C61	C	0.911598	0.000122	0.552181
C62	C	0.851454	0.000122	0.501729
N63	N	0.803754	0.000114	0.373100
N64	N	0.857446	0.000123	0.418153
H65	H	0.618900	-0.120343	-0.109171
H66	H	0.486656	-0.120323	-0.106966
H67	H	0.935353	0.000110	0.150958
H68	H	0.911321	-0.335736	-0.007408
H69	H	0.042216	-0.120282	-0.099583
H70	H	0.924720	0.000120	0.299287
H71	H	0.174458	-0.120297	-0.101775
H72	H	0.749901	-0.803091	-0.201340
H73	H	0.749891	-0.664043	-0.201340
H74	H	0.749839	-0.196729	-0.201323
H75	H	0.725847	0.000100	0.640295
H76	H	0.911355	-0.664005	-0.007418
H77	H	0.749861	-0.335779	-0.201327
H78	H	0.965343	0.000127	0.526694
H79	H	0.954708	0.000129	0.675034
H80	H	0.486747	0.120519	-0.106969
H81	H	0.736479	0.000117	0.491966
H82	H	0.911312	-0.196692	-0.007409
H83	H	0.174545	0.120552	-0.101782
H84	H	0.695862	0.000106	0.264564
H85	H	0.911356	-0.803049	-0.007414
H86	H	0.706491	0.000100	0.116221
H87	H	0.618984	0.120507	-0.109156
H88	H	0.042307	0.120563	-0.099594
