data_functionalizedCrystal
_audit_creation_method	'MofGen! by Chris Wilmer'
_symmetry_space_group_name_H-M	'P1'
_symmetry_Int_Tables_number	1
_symmetry_cell_setting	triclinic
loop_
_symmetry_equiv_pos_as_xyz
  x,y,z
_cell_length_a	14.044220
_cell_length_b	27.732048
_cell_length_c	13.101039
_cell_angle_alpha	93.329410
_cell_angle_beta	86.340132
_cell_angle_gamma	87.915767
loop_
_atom_site_label
_atom_site_type_symbol
_atom_site_fract_x
_atom_site_fract_y
_atom_site_fract_z
O1	O	1.261246	0.114020	-0.085126
O2	O	0.985339	0.109817	-0.085151
O3	O	1.131860	0.041925	-0.085119
O4	O	1.114725	0.181913	-0.085159
O5	O	1.121348	0.046805	0.085309
O6	O	0.974827	0.114697	0.085276
O7	O	1.250733	0.118900	0.085301
Zn8	Zn	1.111111	0.117574	0.112348
Zn9	Zn	1.124962	0.111144	-0.112198
O10	O	1.104212	0.186793	0.085268
C11	C	0.944796	0.110418	0.000059
C12	C	0.839651	0.104930	0.000051
C13	C	0.647135	0.094899	0.000074
C14	C	0.588932	0.133816	0.000067
C15	C	0.481810	0.128235	0.000080
C16	C	0.754268	0.100480	0.000061
C17	C	1.126244	0.026341	0.000098
C18	C	1.125160	-0.027364	0.000106
C19	C	1.204929	-0.362438	0.000061
C20	C	1.200910	-0.564286	0.000046
O21	O	1.273853	-0.592120	0.000008
N22	N	1.114029	-0.587487	0.000039
C23	C	1.028146	-0.560223	0.000029
O24	O	0.954156	-0.584589	0.000012
C25	C	1.032166	-0.358376	0.000037
C26	C	1.119052	-0.335177	0.000054
C27	C	1.291808	-0.339239	0.000077
C28	C	1.292812	-0.288779	0.000086
C29	C	1.206935	-0.261519	0.000079
C30	C	1.120056	-0.284718	0.000063
C31	C	0.946285	-0.331113	0.000019
C32	C	0.947297	-0.280648	0.000018
C33	C	1.034184	-0.257449	0.000036
C34	C	1.035183	-0.206998	0.000066
N35	N	1.122064	-0.183797	0.000072
C36	C	1.207941	-0.211057	0.000079
C37	C	1.026042	-0.666196	0.000027
C38	C	1.025036	-0.716658	0.000027
C39	C	1.197801	-0.720717	0.000043
C40	C	1.198805	-0.670255	0.000050
C41	C	1.112923	-0.642995	0.000034
C42	C	1.210041	-0.105089	0.000100
C43	C	1.211037	-0.054625	0.000113
C44	C	1.038273	-0.050570	0.000093
C45	C	1.037276	-0.101030	0.000085
C46	C	1.123168	-0.128288	0.000085
O47	O	0.962280	-0.179134	0.000092
O48	O	1.281921	-0.186683	0.000073
C49	C	1.203925	-0.412897	0.000052
C50	C	1.117046	-0.436096	0.000035
C51	C	1.031169	-0.408835	0.000029
C52	C	1.116040	-0.486557	0.000035
C53	C	1.201917	-0.513818	0.000042
C54	C	1.288798	-0.490617	0.000049
C55	C	1.289802	-0.440157	0.000059
C56	C	0.944288	-0.432037	0.000022
C57	C	0.943292	-0.482496	0.000013
C58	C	1.029168	-0.509756	0.000020
C59	C	1.291277	0.118300	0.000088
C60	C	1.396422	0.123787	0.000090
C61	C	1.109828	0.202376	0.000050
C62	C	1.110913	0.256082	0.000034
N63	N	1.101664	0.121962	0.265594
N64	N	1.134415	0.106752	-0.265444
C65	C	1.088813	0.127936	0.474634
C66	C	1.147264	0.100779	0.525523
C67	C	1.140113	0.104104	0.641839
C68	C	1.095962	0.124612	0.358306
H69	H	0.619555	0.171325	0.000051
N70	N	1.381419	-0.520027	0.000063
H71	H	1.388742	-0.542858	-0.063117
H72	H	1.436564	-0.497646	0.000111
N73	N	1.220677	0.066681	0.467526
H74	H	1.258693	0.049022	0.517696
H75	H	1.187350	0.042530	0.423013
N76	N	0.606582	0.045216	0.000100
H77	H	0.534695	0.048222	0.000107
H78	H	0.632890	0.025286	-0.063077
H79	H	1.281793	-0.035739	0.000130
H80	H	1.033404	0.153681	0.518418
H81	H	1.279983	-0.127277	0.000096
N82	N	1.290427	-0.750124	0.000053
H83	H	1.276597	-0.785610	0.000050
H84	H	1.332217	-0.743998	-0.063127
N85	N	1.386525	-0.263761	0.000101
H86	H	1.440768	-0.288694	0.000102
H87	H	1.394607	-0.244718	-0.063077
H88	H	1.361743	-0.361429	0.000079
H89	H	0.956102	-0.644006	0.000015
N90	N	1.292516	-0.645235	0.000069
H91	H	1.346761	-0.670166	0.000077
H92	H	1.300601	-0.626193	-0.063111
H93	H	1.360554	-0.421273	0.000072
N94	N	0.931322	-0.741676	0.000037
H95	H	0.877077	-0.716745	0.000033
H96	H	0.931030	-0.764330	-0.063141
N97	N	0.852569	-0.356126	0.000014
H98	H	0.798329	-0.331193	0.000007
H99	H	0.852277	-0.378779	-0.063166
H100	H	0.877360	-0.258456	0.000004
H101	H	0.968354	-0.028365	0.000091
N102	N	0.943566	-0.126054	0.000080
H103	H	0.889316	-0.101126	0.000081
H104	H	0.943284	-0.148703	-0.063108
H105	H	0.872532	-0.501380	0.000008
H106	H	0.874355	-0.409846	0.000014
