data_functionalizedCrystal
_audit_creation_method	'MofGen! by Chris Wilmer'
_symmetry_space_group_name_H-M	'P1'
_symmetry_Int_Tables_number	1
_symmetry_cell_setting	triclinic
loop_
_symmetry_equiv_pos_as_xyz
  x,y,z
_cell_length_a	16.120530
_cell_length_b	21.295417
_cell_length_c	16.120297
_cell_angle_alpha	87.132998
_cell_angle_beta	89.871860
_cell_angle_gamma	87.125778
loop_
_atom_site_label
_atom_site_type_symbol
_atom_site_fract_x
_atom_site_fract_y
_atom_site_fract_z
Zn1	Zn	1.247391	-0.318915	0.534523
Zn2	Zn	1.497391	-0.068915	0.784523
Zn3	Zn	1.747391	0.181085	1.034523
Zn4	Zn	1.997391	0.431085	1.284523
Zn5	Zn	1.254326	-0.419125	0.395453
Zn6	Zn	1.504326	-0.169125	0.645453
Zn7	Zn	1.754326	0.080875	0.895453
Zn8	Zn	2.004326	0.330875	1.145453
Zn9	Zn	1.115383	-0.308278	0.388443
Zn10	Zn	1.365383	-0.058278	0.638443
Zn11	Zn	1.615383	0.191722	0.888443
Zn12	Zn	1.865383	0.441722	1.138443
Zn13	Zn	1.108282	-0.418545	0.527422
Zn14	Zn	1.358282	-0.168545	0.777422
Zn15	Zn	1.608282	0.081455	1.027422
Zn16	Zn	1.858282	0.331455	1.277422
O17	O	1.181345	-0.366216	0.461460
O18	O	1.431345	-0.116216	0.711460
O19	O	1.681345	0.133784	0.961460
O20	O	1.931345	0.383784	1.211460
O21	O	1.364676	-0.336903	0.521981
O22	O	1.614676	-0.086903	0.771981
O23	O	1.864676	0.163097	1.021981
O24	O	2.114676	0.413097	1.271981
O25	O	1.241769	-0.400212	0.278158
O26	O	1.491769	-0.150212	0.528158
O27	O	1.741769	0.099788	0.778158
O28	O	1.991769	0.349788	1.028158
O29	O	1.132963	-0.221604	0.407859
O30	O	1.382963	0.028396	0.657859
O31	O	1.632963	0.278396	0.907859
O32	O	1.882963	0.528396	1.157859
O33	O	1.369771	-0.410526	0.419806
O34	O	1.619771	-0.160526	0.669806
O35	O	1.869771	0.089474	0.919806
O36	O	2.119771	0.339474	1.169806
O37	O	1.229949	-0.229419	0.515184
O38	O	1.479949	0.020581	0.765184
O39	O	1.729949	0.270581	1.015184
O40	O	1.979949	0.520581	1.265184
O41	O	1.139688	-0.318773	0.273008
O42	O	1.389688	-0.068773	0.523008
O43	O	1.639688	0.181227	0.773008
O44	O	1.889688	0.431227	1.023008
O45	O	0.998075	-0.318211	0.400973
O46	O	1.248075	-0.068211	0.650973
O47	O	1.498075	0.181789	0.900973
O48	O	1.748075	0.431789	1.150973
O49	O	1.120862	-0.409538	0.644729
O50	O	1.370862	-0.159538	0.894729
O51	O	1.620862	0.090462	1.144729
O52	O	1.870862	0.340462	1.394729
O53	O	0.992859	-0.399224	0.503081
O54	O	1.242859	-0.149224	0.753081
O55	O	1.492859	0.100776	1.003081
O56	O	1.742859	0.350776	1.253081
O57	O	1.223064	-0.336340	0.649946
O58	O	1.473064	-0.086340	0.899946
O59	O	1.723064	0.163660	1.149946
O60	O	1.973064	0.413660	1.399946
O61	O	1.234884	-0.507133	0.412921
O62	O	1.484884	-0.257133	0.662921
O63	O	1.734884	-0.007133	0.912921
O64	O	1.984884	0.242867	1.162921
O65	O	1.127586	-0.506707	0.509878
O66	O	1.377586	-0.256707	0.759878
O67	O	1.627586	-0.006707	1.009878
O68	O	1.877586	0.243293	1.259878
C69	C	0.965295	-0.357501	0.450496
C70	C	1.215295	-0.107501	0.700496
C71	C	1.465295	0.142499	0.950496
C72	C	1.715295	0.392499	1.200496
C73	C	0.872866	-0.353788	0.445825
C74	C	1.122866	-0.103788	0.695825
C75	C	1.372866	0.146212	0.945825
C76	C	1.622866	0.396212	1.195825
C77	C	0.703638	-0.346996	0.437305
C78	C	0.953638	-0.096996	0.687305
C79	C	1.203638	0.153004	0.937305
C80	C	1.453638	0.403004	1.187305
C81	C	0.659891	-0.385485	0.485677
C82	C	0.909891	-0.135485	0.735677
C83	C	1.159891	0.114515	0.985677
C84	C	1.409891	0.364515	1.235677
C85	C	0.565726	-0.381705	0.480936
C86	C	0.815726	-0.131705	0.730936
C87	C	1.065726	0.118295	0.980936
C88	C	1.315726	0.368295	1.230936
C89	C	0.797811	-0.350774	0.442045
C90	C	1.047811	-0.100774	0.692045
C91	C	1.297811	0.149226	0.942045
C92	C	1.547811	0.399226	1.192045
C93	C	1.181239	-0.529761	0.461409
C94	C	1.431239	-0.279761	0.711409
C95	C	1.681239	-0.029761	0.961409
C96	C	1.931239	0.220239	1.211409
C97	C	1.181268	-0.599731	0.461418
C98	C	1.431268	-0.349731	0.711418
C99	C	1.681268	-0.099731	0.961418
C100	C	1.931268	0.150269	1.211418
C101	C	1.237182	-0.632802	0.410990
C102	C	1.487182	-0.382802	0.660990
C103	C	1.737182	-0.132802	0.910990
C104	C	1.987182	0.117198	1.160990
C105	C	1.237220	-0.698547	0.411010
C106	C	1.487220	-0.448547	0.661010
C107	C	1.737220	-0.198547	0.911010
C108	C	1.987220	0.051453	1.161010
C109	C	1.181329	-0.731217	0.461450
C110	C	1.431329	-0.481217	0.711450
C111	C	1.681329	-0.231217	0.961450
C112	C	1.931329	0.018783	1.211450
C113	C	1.125411	-0.698138	0.511889
C114	C	1.375411	-0.448138	0.761889
C115	C	1.625411	-0.198138	1.011889
C116	C	1.875411	0.051862	1.261889
C117	C	1.125380	-0.632395	0.511873
C118	C	1.375380	-0.382395	0.761873
C119	C	1.625380	-0.132395	1.011873
C120	C	1.875380	0.117605	1.261873
N121	N	1.108264	-0.831783	0.464098
N122	N	1.358264	-0.581783	0.714098
N123	N	1.608264	-0.331783	0.964098
N124	N	1.858264	-0.081783	1.214098
N125	N	1.108296	-0.894236	0.464108
N126	N	1.358296	-0.644236	0.714108
N127	N	1.608296	-0.394236	0.964108
N128	N	1.858296	-0.144236	1.214108
C129	C	1.181420	-0.929297	0.461503
C130	C	1.431420	-0.679297	0.711503
C131	C	1.681420	-0.429297	0.961503
C132	C	1.931420	-0.179297	1.211503
N133	N	1.254514	-0.899546	0.458870
N134	N	1.504514	-0.649546	0.708870
N135	N	1.754514	-0.399546	0.958870
N136	N	2.004514	-0.149546	1.208870
N137	N	1.254481	-0.837087	0.458855
N138	N	1.504481	-0.587087	0.708855
N139	N	1.754481	-0.337087	0.958855
N140	N	2.004481	-0.087087	1.208855
C141	C	1.181357	-0.802504	0.461473
C142	C	1.431357	-0.552504	0.711473
C143	C	1.681357	-0.302504	0.961473
C144	C	1.931357	-0.052504	1.211473
C145	C	1.237380	-1.033657	0.411094
C146	C	1.487380	-0.783657	0.661094
C147	C	1.737380	-0.533657	0.911094
C148	C	1.987380	-0.283657	1.161094
C149	C	1.237419	-1.099403	0.411120
C150	C	1.487419	-0.849403	0.661120
C151	C	1.737419	-0.599403	0.911120
C152	C	1.987419	-0.349403	1.161120
C153	C	1.125603	-1.098992	0.511994
C154	C	1.375603	-0.848992	0.761994
C155	C	1.625603	-0.598992	1.011994
C156	C	1.875603	-0.348992	1.261994
C157	C	1.125571	-1.033248	0.511973
C158	C	1.375571	-0.783248	0.761973
C159	C	1.625571	-0.533248	1.011973
C160	C	1.875571	-0.283248	1.261973
C161	C	1.181459	-1.000584	0.461518
C162	C	1.431459	-0.750584	0.711518
C163	C	1.681459	-0.500584	0.961518
C164	C	1.931459	-0.250584	1.211518
C165	C	1.398240	-0.374966	0.472468
C166	C	1.648240	-0.124966	0.722468
C167	C	1.898240	0.125034	0.972468
C168	C	2.148240	0.375034	1.222468
C169	C	1.490667	-0.378694	0.477159
C170	C	1.740667	-0.128694	0.727159
C171	C	1.990667	0.121306	0.977159
C172	C	2.240667	0.371306	1.227159
C173	C	1.170397	-0.374061	0.678353
C174	C	1.420397	-0.124061	0.928353
C175	C	1.670397	0.125939	1.178353
C176	C	1.920397	0.375939	1.428353
C177	C	1.165731	-0.377404	0.770780
C178	C	1.415731	-0.127404	1.020780
C179	C	1.665731	0.122596	1.270780
C180	C	1.915731	0.372596	1.520780
C181	C	1.181474	-0.202033	0.461531
C182	C	1.431474	0.047967	0.711531
C183	C	1.681474	0.297967	0.961531
C184	C	1.931474	0.547967	1.211531
C185	C	1.181529	-0.132068	0.461562
C186	C	1.431529	0.117932	0.711562
C187	C	1.681529	0.367932	0.961562
C188	C	1.931529	0.617932	1.211562
C189	C	1.192299	-0.358358	0.245413
C190	C	1.442299	-0.108358	0.495413
C191	C	1.692299	0.141642	0.745413
C192	C	1.942299	0.391642	0.995413
C193	C	1.197126	-0.354844	0.152995
C194	C	1.447126	-0.104844	0.402995
C195	C	1.697126	0.145156	0.652995
C196	C	1.947126	0.395156	0.902995
C197	C	1.157183	-0.383493	0.940004
C198	C	1.407183	-0.133493	1.190004
C199	C	1.657183	0.116507	1.440004
C200	C	1.907183	0.366507	1.690004
C201	C	1.205672	-0.348757	0.983777
C202	C	1.455672	-0.098757	1.233777
C203	C	1.705672	0.151243	1.483777
C204	C	1.955672	0.401243	1.733777
C205	C	1.200915	-0.352144	1.077938
C206	C	1.450915	-0.102144	1.327938
C207	C	1.700915	0.147856	1.577938
C208	C	1.950915	0.397856	1.827938
C209	C	1.161938	-0.380106	0.845834
C210	C	1.411938	-0.130106	1.095834
C211	C	1.661938	0.119894	1.345834
C212	C	1.911938	0.369894	1.595834
H213	H	1.282691	-0.606210	0.369908
H214	H	1.532691	-0.356210	0.619908
H215	H	1.782691	-0.106210	0.869908
H216	H	2.032691	0.143790	1.119908
H217	H	1.112102	-0.415774	0.973246
H218	H	1.362102	-0.165774	1.223246
H219	H	1.612102	0.084226	1.473246
H220	H	1.862102	0.334226	1.723246
H221	H	0.670373	-0.311209	0.392335
H222	H	0.920373	-0.061209	0.642335
H223	H	1.170373	0.188791	0.892335
H224	H	1.420373	0.438791	1.142335
H225	H	1.080099	-1.125592	0.553068
H226	H	1.330099	-0.875592	0.803068
H227	H	1.580099	-0.625592	1.053068
H228	H	1.830099	-0.375592	1.303068
N229	N	0.701629	-0.430384	0.542088
N230	N	0.951629	-0.180384	0.792088
N231	N	1.201629	0.069616	1.042088
N232	N	1.451629	0.319616	1.292088
N233	N	0.779174	-0.433432	0.545904
N234	N	1.029174	-0.183432	0.795904
N235	N	1.279174	0.066568	1.045904
N236	N	1.529174	0.316568	1.295904
H237	H	0.808657	-0.465143	0.585739
H238	H	1.058657	-0.215143	0.835739
H239	H	1.308657	0.034857	1.085739
H240	H	1.558657	0.284857	1.335739
N241	N	1.294338	-0.732328	0.359485
N242	N	1.544338	-0.482328	0.609485
N243	N	1.794338	-0.232328	0.859485
N244	N	2.044338	0.017672	1.109485
N245	N	1.344229	-0.703156	0.314439
N246	N	1.594229	-0.453156	0.564439
N247	N	1.844229	-0.203156	0.814439
N248	N	2.094229	0.046844	1.064439
H249	H	1.384566	-0.727011	0.278046
H250	H	1.634566	-0.477011	0.528046
H251	H	1.884566	-0.227011	0.778046
H252	H	2.134566	0.022989	1.028046
H253	H	1.079906	-0.724742	0.552959
H254	H	1.329906	-0.474742	0.802959
H255	H	1.579906	-0.224742	1.052959
H256	H	1.829906	0.025258	1.302959
H257	H	1.080037	-1.006319	0.553033
H258	H	1.330037	-0.756319	0.803033
H259	H	1.580037	-0.506319	1.053033
H260	H	1.830037	-0.256319	1.303033
H261	H	1.079847	-0.605468	0.552939
H262	H	1.329847	-0.355468	0.802939
H263	H	1.579847	-0.105468	1.052939
H264	H	1.829847	0.144532	1.302939
N265	N	1.294471	-1.000296	0.359554
N266	N	1.544471	-0.750296	0.609554
N267	N	1.794471	-0.500296	0.859554
N268	N	2.044471	-0.250296	1.109554
N269	N	1.344397	-1.029836	0.314535
N270	N	1.594397	-0.779836	0.564535
N271	N	1.844397	-0.529836	0.814535
N272	N	2.094397	-0.279836	1.064535
H273	H	1.384718	-1.006278	0.278133
H274	H	1.634718	-0.756278	0.528133
H275	H	1.884718	-0.506278	0.778133
H276	H	2.134718	-0.256278	1.028133
H277	H	1.282957	-1.126329	0.370057
H278	H	1.532957	-0.876329	0.620057
H279	H	1.782957	-0.626329	0.870057
H280	H	2.032957	-0.376329	1.120057
N281	N	1.262225	-0.308258	0.942067
N282	N	1.512225	-0.058258	1.192067
N283	N	1.762225	0.191742	1.442067
N284	N	2.012225	0.441742	1.692067
N285	N	1.266057	-0.305528	0.864525
N286	N	1.516057	-0.055528	1.114525
N287	N	1.766057	0.194472	1.364525
N288	N	2.016057	0.444472	1.614525
H289	H	1.305997	-0.276927	0.835063
H290	H	1.555997	-0.026927	1.085063
H291	H	1.805997	0.223073	1.335063
H292	H	2.055997	0.473073	1.585063
