data_functionalizedCrystal
_audit_creation_method	'MofGen! by Chris Wilmer'
_symmetry_space_group_name_H-M	'P1'
_symmetry_Int_Tables_number	1
_symmetry_cell_setting	triclinic
loop_
_symmetry_equiv_pos_as_xyz
  x,y,z
_cell_length_a	18.215407
_cell_length_b	18.215405
_cell_length_c	18.215399
_cell_angle_alpha	90.030551
_cell_angle_beta	90.019833
_cell_angle_gamma	90.025333
loop_
_atom_site_label
_atom_site_type_symbol
_atom_site_fract_x
_atom_site_fract_y
_atom_site_fract_z
Zn1	Zn	1.125072	-0.292983	0.416103
Zn2	Zn	1.625072	0.207017	0.916103
Zn3	Zn	1.124980	-0.416054	0.293031
Zn4	Zn	1.624980	0.083946	0.793031
Zn5	Zn	1.002005	-0.293007	0.293050
Zn6	Zn	1.502005	0.206993	0.793050
Zn7	Zn	1.001970	-0.416013	0.416056
Zn8	Zn	1.501970	0.083987	0.916056
O9	O	1.063507	-0.354514	0.354560
O10	O	1.563507	0.145486	0.854560
O11	O	1.228044	-0.309316	0.399788
O12	O	1.728044	0.190684	0.899788
O13	O	1.108643	-0.399759	0.190049
O14	O	1.608643	0.100241	0.690049
O15	O	1.018382	-0.190020	0.309401
O16	O	1.518382	0.309980	0.809401
O17	O	1.227977	-0.399736	0.309368
O18	O	1.727977	0.100264	0.809368
O19	O	1.108799	-0.190002	0.399807
O20	O	1.608799	0.309998	0.899807
O21	O	1.018293	-0.309357	0.190063
O22	O	1.518293	0.190643	0.690063
O23	O	0.899016	-0.309317	0.309355
O24	O	1.399016	0.190683	0.809355
O25	O	1.018324	-0.399666	0.519046
O26	O	1.518324	0.100334	1.019046
O27	O	0.898991	-0.399689	0.399727
O28	O	1.398991	0.100311	0.899727
O29	O	1.108766	-0.309276	0.519081
O30	O	1.608766	0.190724	1.019081
O31	O	1.108610	-0.519033	0.309322
O32	O	1.608610	-0.019033	0.809322
O33	O	1.018235	-0.519003	0.399708
O34	O	1.518235	-0.019003	0.899708
C35	C	0.872301	-0.354502	0.354539
C36	C	1.372301	0.145498	0.854539
C37	C	0.790502	-0.354514	0.354547
C38	C	1.290502	0.145486	0.854547
C39	C	1.063429	-0.545721	0.354524
C40	C	1.563429	-0.045721	0.854524
C41	C	1.063463	-0.627520	0.354534
C42	C	1.563463	-0.127520	0.854534
C43	C	0.602314	-0.401645	0.401544
C44	C	1.102314	0.098355	0.901544
C45	C	0.525455	-0.401647	0.401554
C46	C	1.025455	0.098353	0.901554
C47	C	0.525452	-0.307397	0.307591
C48	C	1.025452	0.192603	0.807591
C49	C	0.602309	-0.307392	0.307586
C50	C	1.102309	0.192608	0.807586
C51	C	0.640738	-0.354520	0.354562
C52	C	1.140738	0.145480	0.854562
C53	C	0.487022	-0.354528	0.354576
C54	C	0.987022	0.145472	0.854576
C55	C	0.403688	-0.354530	0.354585
C56	C	0.903688	0.145470	0.854585
C57	C	0.724077	-0.354517	0.354553
C58	C	1.224077	0.145483	0.854553
C59	C	1.110632	-0.815705	0.307556
C60	C	1.610632	-0.315705	0.807556
C61	C	1.110665	-0.892563	0.307574
C62	C	1.610665	-0.392563	0.807574
C63	C	1.016476	-0.892572	0.401616
C64	C	1.516476	-0.392572	0.901616
C65	C	1.016447	-0.815715	0.401601
C66	C	1.516447	-0.315715	0.901601
C67	C	1.063524	-0.777283	0.354567
C68	C	1.563524	-0.277283	0.854567
C69	C	1.063586	-0.930999	0.354600
C70	C	1.563586	-0.430999	0.854600
C71	C	1.063621	-1.014333	0.354619
C72	C	1.563621	-0.514333	0.854619
C73	C	1.063490	-0.693944	0.354548
C74	C	1.563490	-0.193944	0.854548
C75	C	1.255460	-0.354528	0.354581
C76	C	1.755460	0.145472	0.854581
C77	C	1.337259	-0.354533	0.354591
C78	C	1.837259	0.145467	0.854591
C79	C	1.063552	-0.354464	0.546513
C80	C	1.563552	0.145536	1.046513
C81	C	1.063571	-0.354442	0.628312
C82	C	1.563571	0.145558	1.128312
C83	C	1.063605	-0.162561	0.354611
C84	C	1.563605	0.337439	0.854611
C85	C	1.063647	-0.080763	0.354633
C86	C	1.563647	0.419237	0.854633
C87	C	1.063504	-0.354512	0.163353
C88	C	1.563504	0.145488	0.663353
C89	C	1.063628	-0.354326	0.081555
C90	C	1.563628	0.145674	0.581555
C91	C	1.110681	-0.307332	0.816525
C92	C	1.610681	0.192668	1.316525
C93	C	1.110690	-0.307311	0.893384
C94	C	1.610690	0.192689	1.393384
C95	C	1.016513	-0.401438	0.893336
C96	C	1.516513	0.098562	1.393336
C97	C	1.016501	-0.401455	0.816479
C98	C	1.516501	0.098545	1.316479
C99	C	1.063589	-0.354403	0.778075
C100	C	1.563589	0.145597	1.278075
C101	C	1.063610	-0.354365	0.931791
C102	C	1.563610	0.145635	1.431791
C103	C	1.063619	-0.354342	1.015125
C104	C	1.563619	0.145658	1.515125
C105	C	1.063579	-0.354425	0.694736
C106	C	1.563579	0.145575	1.194736
H107	H	0.633601	-0.440018	0.439797
H108	H	1.133601	0.059982	0.939797
H109	H	1.149026	-0.923843	0.269294
H110	H	1.649026	-0.423843	0.769294
C111	C	0.483192	-0.453483	0.453236
C112	C	0.983192	0.046517	0.953236
H113	H	0.517089	-0.481550	0.481208
H114	H	1.017089	0.018450	0.981208
H115	H	0.453236	-0.425372	0.485355
H116	H	0.953236	0.074628	0.985355
H117	H	0.453184	-0.485518	0.425028
H118	H	0.953184	0.014482	0.925028
H119	H	1.149035	-0.268979	0.924686
H120	H	1.649035	0.231021	1.424686
H121	H	0.978086	-0.784430	0.439887
H122	H	1.478086	-0.284430	0.939887
C123	C	0.483177	-0.255569	0.255914
C124	C	0.983177	0.244431	0.755914
H125	H	0.431900	-0.262327	0.262639
H126	H	0.931900	0.237673	0.762639
H127	H	0.495793	-0.206133	0.266767
H128	H	0.995793	0.293867	0.766767
H129	H	0.495752	-0.266285	0.206446
H130	H	0.995752	0.233715	0.706446
C131	C	0.964702	-0.453241	0.774182
C132	C	1.464702	0.046759	1.274182
H133	H	0.936668	-0.481270	0.808060
H134	H	1.436668	0.018730	1.308060
H135	H	0.932645	-0.425098	0.744200
H136	H	1.432645	0.074902	1.244200
H137	H	0.992843	-0.485315	0.744198
H138	H	1.492843	0.014685	1.244198
H139	H	0.633595	-0.269012	0.269327
H140	H	1.133595	0.230988	0.769327
C141	C	1.162421	-0.773432	0.255829
C142	C	1.662421	-0.273432	0.755829
H143	H	1.190486	-0.807325	0.227839
H144	H	1.690486	-0.307325	0.727839
H145	H	1.134282	-0.743495	0.223729
H146	H	1.634282	-0.243495	0.723729
H147	H	1.194459	-0.743406	0.284012
H148	H	1.694459	-0.243406	0.784012
C149	C	1.162466	-0.255568	0.774283
C150	C	1.662466	0.244432	1.274283
H151	H	1.190507	-0.227526	0.808193
H152	H	1.690507	0.272474	1.308193
H153	H	1.194516	-0.283721	0.744296
H154	H	1.694516	0.216279	1.244296
H155	H	1.134316	-0.223507	0.744309
H156	H	1.634316	0.276493	1.244309
C157	C	0.964724	-0.453198	0.935579
C158	C	1.464724	0.046802	1.435579
H159	H	0.936672	-0.481230	0.901670
H160	H	1.436672	0.018770	1.401670
H161	H	0.992866	-0.485258	0.965556
H162	H	1.492866	0.014742	1.465556
H163	H	0.932674	-0.425035	0.965564
H164	H	1.432674	0.074965	1.465564
C165	C	0.964688	-0.934849	0.453341
C166	C	1.464688	-0.434849	0.953341
H167	H	0.971445	-0.986126	0.446612
H168	H	1.471445	-0.486126	0.946612
H169	H	0.975419	-0.922211	0.502797
H170	H	1.475419	-0.422211	1.002797
H171	H	0.915242	-0.922299	0.442513
H172	H	1.415242	-0.422299	0.942513
