data_functionalizedCrystal
_audit_creation_method	'MofGen! by Chris Wilmer'
_symmetry_space_group_name_H-M	'P1'
_symmetry_Int_Tables_number	1
_symmetry_cell_setting	triclinic
loop_
_symmetry_equiv_pos_as_xyz
  x,y,z
_cell_length_a	14.853567
_cell_length_b	15.995350
_cell_length_c	13.930277
_cell_angle_alpha	89.997676
_cell_angle_beta	89.995755
_cell_angle_gamma	83.563653
loop_
_atom_site_label
_atom_site_type_symbol
_atom_site_fract_x
_atom_site_fract_y
_atom_site_fract_z
O1	O	1.196221	0.109317	-0.079760
O2	O	0.933744	0.122339	-0.079776
O3	O	1.072157	-0.006051	-0.079766
O4	O	1.057808	0.237707	-0.079769
O5	O	1.072138	-0.006054	0.079895
O6	O	0.933725	0.122336	0.079886
O7	O	1.196202	0.109314	0.079902
Zn8	Zn	1.064960	0.115825	0.105244
Zn9	Zn	1.064986	0.115828	-0.105117
O10	O	1.057788	0.237705	0.079893
C11	C	0.900146	0.121748	0.000053
C12	C	0.800065	0.119980	0.000047
C13	C	0.387644	0.036238	0.000069
C14	C	0.366158	0.188769	0.000067
C15	C	0.460189	0.190432	0.000064
C16	C	0.517953	0.114996	0.000062
C17	C	0.481685	0.037899	0.000063
C18	C	0.496464	0.267528	0.000053
C19	C	0.590501	0.269194	0.000048
C20	C	0.648266	0.193758	0.000054
C21	C	0.611993	0.116657	0.000056
C22	C	0.669757	0.041221	0.000054
C23	C	0.633485	-0.035880	0.000064
C24	C	0.539450	-0.037538	0.000069
C25	C	0.742302	0.195415	0.000049
C26	C	0.763797	0.042882	0.000048
C27	C	1.071555	-0.037248	0.000063
C28	C	1.069776	-0.130201	0.000057
C29	C	1.063389	-0.467956	0.000060
C30	C	0.964813	-0.420636	-0.000304
C31	C	0.966592	-0.323944	0.000056
C32	C	1.066557	-0.300391	0.000058
C33	C	1.115167	-0.341414	0.091234
C34	C	1.112691	-0.438052	0.091310
C35	C	1.114749	-0.438405	-0.090255
C36	C	1.114726	-0.341460	-0.091460
C37	C	1.068353	-0.205692	0.000060
C38	C	1.061596	-0.562655	0.000064
C39	C	1.229799	0.109906	0.000071
C40	C	1.329881	0.111674	0.000071
C41	C	1.058391	0.268901	0.000062
C42	C	1.060170	0.361854	0.000061
N43	N	1.064950	0.115822	0.248810
N44	N	1.065003	0.115825	-0.248684
C45	C	1.003694	0.172657	0.701075
C46	C	1.126302	0.058993	0.701053
C47	C	1.126292	0.058990	0.600557
C48	C	1.064982	0.115823	0.550316
C49	C	1.003683	0.172658	0.600570
C50	C	1.187595	0.002162	0.550295
C51	C	1.187588	0.002158	0.449793
C52	C	1.126273	0.058987	0.399550
C53	C	1.064971	0.115824	0.449811
C54	C	1.003661	0.172656	0.399569
C55	C	0.942354	0.229490	0.449828
C56	C	0.942368	0.229487	0.550327
C57	C	1.126259	0.058989	0.299051
C58	C	1.003651	0.172657	0.299064
H59	H	0.771830	0.258190	0.000043
N60	N	1.072070	-0.465655	-0.181795
H61	H	1.106067	-0.446044	-0.238831
H62	H	1.074778	-0.529020	-0.182984
N63	N	0.303862	0.270128	0.000061
H64	H	0.264372	0.272835	-0.059126
H65	H	0.264422	0.272788	0.059286
N66	N	0.695786	-0.117244	0.000060
H67	H	0.735278	-0.119952	-0.059131
H68	H	0.735224	-0.119901	0.059282
H69	H	1.077228	-0.456396	0.159464
N70	N	0.915977	-0.286344	-0.086514
H71	H	0.892305	-0.332577	-0.125253
H72	H	0.863550	-0.245049	-0.064664
N73	N	1.212453	-0.322604	0.095702
H74	H	1.214331	-0.259731	0.098600
H75	H	1.242337	-0.349632	0.154859
N76	N	0.912621	-0.445241	-0.086905
H77	H	0.944739	-0.430195	-0.147346
H78	H	0.908604	-0.507844	-0.085556
N79	N	0.937574	0.233960	0.755270
H80	H	0.873593	0.224206	0.737788
H81	H	0.946956	0.225309	0.826543
N82	N	1.067704	-0.305354	-0.180804
H83	H	1.070256	-0.242540	-0.182626
H84	H	1.099007	-0.332064	-0.239382
H85	H	0.892439	0.275767	0.408910
H86	H	0.925581	-0.440277	0.064711
N87	N	1.253703	-0.059148	0.395598
H88	H	1.219249	-0.096281	0.353914
H89	H	1.293599	-0.027028	0.353942
N90	N	0.915623	-0.287085	0.086773
H91	H	0.891916	-0.333660	0.124917
H92	H	0.957694	-0.257188	0.128245
H93	H	0.892455	0.275760	0.591254
H94	H	1.187625	-0.326013	-0.096963
N95	N	1.192355	-0.002321	0.244846
H96	H	1.183039	0.006295	0.173557
H97	H	1.256315	0.007448	0.262386
N98	N	1.208550	-0.480666	0.096798
H99	H	1.252226	-0.436648	0.099162
H100	H	1.215757	-0.516543	0.156559
H101	H	0.810823	-0.018548	0.000051
H102	H	1.081389	-0.313073	0.159082
N103	N	1.192433	-0.002296	0.755236
H104	H	1.183141	0.006330	0.826528
H105	H	1.182021	-0.061714	0.737679
H106	H	0.509909	-0.100310	0.000099
N107	N	1.211021	-0.480358	-0.091072
H108	H	1.221356	-0.518324	-0.033256
H109	H	1.221796	-0.514788	-0.151596
H110	H	0.449427	0.328943	0.000044
H111	H	0.620025	0.331975	0.000041
N112	N	0.937515	0.233949	0.244878
H113	H	0.898682	0.269948	0.291968
H114	H	0.972017	0.271030	0.203172
N115	N	0.348520	-0.046913	0.000077
H116	H	0.369580	-0.079966	-0.059110
H117	H	0.369594	-0.079899	0.059302
H118	H	1.237517	-0.044106	0.591205
