data_functionalizedCrystal
_audit_creation_method	'MofGen! by Chris Wilmer'
_symmetry_space_group_name_H-M	'P1'
_symmetry_Int_Tables_number	1
_symmetry_cell_setting	triclinic
loop_
_symmetry_equiv_pos_as_xyz
  x,y,z
_cell_length_a	11.169417
_cell_length_b	19.076808
_cell_length_c	11.169409
_cell_angle_alpha	92.337422
_cell_angle_beta	90.019824
_cell_angle_gamma	92.324435
loop_
_atom_site_label
_atom_site_type_symbol
_atom_site_fract_x
_atom_site_fract_y
_atom_site_fract_z
Zn1	Zn	1.815643	-0.280145	0.659291
Zn2	Zn	2.315643	0.219855	1.159291
Zn3	Zn	1.807414	-0.397873	0.450518
Zn4	Zn	2.307414	0.102127	0.950518
Zn5	Zn	1.614926	-0.280188	0.458623
Zn6	Zn	2.114926	0.219812	0.958623
Zn7	Zn	1.606822	-0.397816	0.651167
Zn8	Zn	2.106822	0.102184	1.151167
O9	O	1.711201	-0.339006	0.554900
O10	O	2.211201	0.160994	1.054900
O11	O	1.982501	-0.295768	0.631605
O12	O	2.482501	0.204232	1.131605
O13	O	1.781828	-0.382304	0.283641
O14	O	2.281828	0.117696	0.783641
O15	O	1.648387	-0.181685	0.492034
O16	O	2.148387	0.318315	0.992034
O17	O	1.976455	-0.382262	0.478221
O18	O	2.476455	0.117738	0.978221
O19	O	1.795853	-0.181654	0.639464
O20	O	2.295853	0.318346	1.139464
O21	O	1.640408	-0.295841	0.289595
O22	O	2.140408	0.204159	0.789595
O23	O	1.445902	-0.295786	0.484156
O24	O	1.945902	0.204214	0.984156
O25	O	1.634575	-0.382165	0.820197
O26	O	2.134575	0.117835	1.320197
O27	O	1.439948	-0.382206	0.625617
O28	O	1.939948	0.117794	1.125617
O29	O	1.787995	-0.295713	0.826166
O30	O	2.287995	0.204287	1.326166
O31	O	1.773969	-0.496363	0.470343
O32	O	2.273969	0.003637	0.970343
O33	O	1.626595	-0.496321	0.617758
O34	O	2.126595	0.003679	1.117758
C35	C	1.399377	-0.338995	0.554885
C36	C	1.899377	0.161005	1.054885
C37	C	1.265977	-0.339007	0.554906
C38	C	1.765977	0.160993	1.054906
C39	C	1.698543	-0.521881	0.542316
C40	C	2.198543	-0.021881	1.042316
C41	C	1.693237	-0.600116	0.536972
C42	C	2.193237	-0.100116	1.036972
C43	C	1.767464	-0.636794	0.611283
C44	C	2.267464	-0.136794	1.111283
C45	C	1.762474	-0.710304	0.606264
C46	C	2.262474	-0.210304	1.106264
C47	C	1.683262	-0.747134	0.526928
C48	C	2.183262	-0.247134	1.026928
C49	C	1.609026	-0.710451	0.452614
C50	C	2.109026	-0.210451	0.952614
C51	C	1.614011	-0.636943	0.457640
C52	C	2.114011	-0.136943	0.957640
C53	C	1.660121	-0.966990	0.503666
C54	C	2.160121	-0.466990	1.003666
C55	C	1.655144	-1.040503	0.498643
C56	C	2.155144	-0.540503	0.998643
C57	C	1.808591	-1.040351	0.652296
C58	C	2.308591	-0.540351	1.152296
C59	C	1.813574	-0.966841	0.657309
C60	C	2.313574	-0.466841	1.157309
C61	C	1.739334	-0.930164	0.583000
C62	C	2.239334	-0.430164	1.083000
N63	N	1.678162	-0.822273	0.521794
N64	N	2.178162	-0.322273	1.021794
N65	N	1.744429	-0.855026	0.588141
N66	N	2.244429	-0.355026	1.088141
C67	C	2.024243	-0.339017	0.554915
C68	C	2.524243	0.160983	1.054915
C69	C	2.157643	-0.339022	0.554922
C70	C	2.657643	0.160978	1.054922
C71	C	1.711299	-0.338927	0.867948
C72	C	2.211299	0.161073	1.367948
C73	C	1.711340	-0.338894	1.001350
C74	C	2.211340	0.161106	1.501350
C75	C	1.723942	-0.155416	0.567559
C76	C	2.223942	0.344584	1.067559
C77	C	1.729372	-0.077181	0.572954
C78	C	2.229372	0.422819	1.072954
C79	C	1.711177	-0.339033	0.243073
C80	C	2.211177	0.160967	0.743073
C81	C	1.711381	-0.338868	0.109685
C82	C	2.211381	0.161132	0.609685
H83	H	1.831973	-0.606811	0.675882
H84	H	2.331973	-0.106811	1.175882
H85	H	1.822928	-0.740164	0.666767
H86	H	2.322928	-0.240164	1.166767
H87	H	1.553566	-0.607080	0.397130
H88	H	2.053566	-0.107080	0.897130
C89	C	1.899621	-0.926982	0.743564
C90	C	2.399621	-0.426982	1.243564
C91	C	1.963543	-0.974838	0.807588
C92	C	2.463543	-0.474838	1.307588
C93	C	2.042816	-0.938146	0.887060
C94	C	2.542816	-0.438146	1.387060
H95	H	1.953984	-0.898301	0.699782
H96	H	2.453984	-0.398301	1.199782
H97	H	1.855662	-0.898318	0.797844
H98	H	2.355662	-0.398318	1.297844
H99	H	2.007499	-1.003490	0.753315
H100	H	2.507499	-0.503490	1.253315
H101	H	1.909211	-1.003520	0.851394
H102	H	2.409211	-0.503520	1.351394
H103	H	1.998857	-0.909481	0.941340
H104	H	2.498857	-0.409481	1.441340
H105	H	2.097172	-0.909466	0.843268
H106	H	2.597172	-0.409466	1.343268
H107	H	2.086189	-0.970610	0.930517
H108	H	2.586189	-0.470610	1.430517
H109	H	1.590634	-1.070489	0.434037
H110	H	2.090634	-0.570489	0.934037
C111	C	1.889042	-1.080299	0.732925
C112	C	2.389042	-0.580299	1.232925
C113	C	1.867705	-1.152558	0.711571
C114	C	2.367705	-0.652558	1.211571
C115	C	1.941782	-1.189379	0.785843
C116	C	2.441782	-0.689379	1.285843
H117	H	1.970553	-1.068303	0.716330
H118	H	2.470553	-0.568303	1.216330
H119	H	1.872235	-1.068263	0.814397
H120	H	2.372235	-0.568263	1.314397
H121	H	1.884521	-1.164588	0.630118
H122	H	2.384521	-0.664588	1.130118
H123	H	1.786209	-1.164574	0.728173
H124	H	2.286209	-0.664574	1.228173
H125	H	1.924976	-1.177343	0.867314
H126	H	2.424976	-0.677343	1.367314
H127	H	2.023289	-1.177378	0.769242
H128	H	2.523289	-0.677378	1.269242
H129	H	1.927308	-1.238410	0.771372
H130	H	2.427308	-0.738410	1.271372
H131	H	1.599674	-0.937133	0.443158
H132	H	2.099674	-0.437133	0.943158
H133	H	1.544525	-0.740445	0.388022
H134	H	2.044525	-0.240445	0.888022
