data_functionalizedCrystal
_audit_creation_method	'MofGen! by Chris Wilmer'
_symmetry_space_group_name_H-M	'P1'
_symmetry_Int_Tables_number	1
_symmetry_cell_setting	triclinic
loop_
_symmetry_equiv_pos_as_xyz
  x,y,z
_cell_length_a	26.455835
_cell_length_b	26.455273
_cell_length_c	26.451828
_cell_angle_alpha	60.005170
_cell_angle_beta	60.010757
_cell_angle_gamma	59.993435
loop_
_atom_site_label
_atom_site_type_symbol
_atom_site_fract_x
_atom_site_fract_y
_atom_site_fract_z
O1	O	0.069940	-0.738516	0.617604
O2	O	0.026299	-0.574986	0.497618
O3	O	0.129847	-0.678463	0.497546
O4	O	-0.033607	-0.635040	0.617676
O5	O	0.164197	-0.644116	0.531822
O6	O	0.060649	-0.540639	0.531894
O7	O	0.104290	-0.704170	0.651880
Cu8	Cu	0.085606	-0.619268	0.595016
Cu9	Cu	0.044984	-0.659887	0.554481
O10	O	0.000742	-0.600693	0.651952
N11	N	0.114179	-0.590703	0.623530
N12	N	0.016416	-0.688458	0.525968
C13	C	0.157553	-0.547535	0.933368
C14	C	0.424104	-0.547506	0.666656
C15	C	0.157413	-0.547503	0.666729
C16	C	0.157397	-0.280846	0.666749
C17	C	0.200330	-0.409550	0.709625
C18	C	0.200339	-0.504608	0.709615
C19	C	0.224118	-0.480848	0.733375
C20	C	0.327800	-0.462984	0.678792
C21	C	0.392611	-0.484588	0.657175
C22	C	0.392630	-0.589450	0.697162
C23	C	0.327821	-0.567844	0.718781
C24	C	0.215955	-0.377135	0.645910
C25	C	0.194327	-0.312320	0.624323
C26	C	0.141457	-0.312339	0.730169
C27	C	0.163084	-0.377154	0.751756
C28	C	0.136618	-0.488954	0.725292
C29	C	0.115007	-0.510553	0.703686
C30	C	0.220833	-0.563461	0.650740
C31	C	0.242447	-0.541861	0.672339
C32	C	0.136680	-0.488971	0.837094
C33	C	0.115112	-0.510589	0.901907
C34	C	0.220969	-0.563508	0.901868
C35	C	0.242535	-0.541892	0.837053
C36	C	0.200389	-0.504622	0.804668
C37	C	0.295409	-0.504610	0.709593
C38	C	0.132990	-0.570876	1.004655
C39	C	0.495389	-0.570440	0.642547
C40	C	0.132802	-0.570856	0.643399
C41	C	0.133212	-0.209553	0.643833
C42	C	-0.097217	-0.706972	0.506986
C43	C	-0.002040	-0.707108	0.412067
C44	C	-0.002230	-0.802124	0.507163
C45	C	-0.002214	-0.707101	0.507221
C46	C	-0.025925	-0.730827	0.483360
N47	N	0.553723	-0.590712	0.623415
O48	O	0.751638	-0.596429	0.475603
O49	O	0.751819	-0.716773	0.638980
O50	O	0.751753	-0.716500	0.535361
O51	O	0.751705	-0.596703	0.579222
O52	O	0.648791	-0.682239	0.569747
O53	O	0.648858	-0.682512	0.673366
O54	O	0.648676	-0.562169	0.509989
Cu55	Cu	0.639366	-0.619212	0.594817
Cu56	Cu	0.761130	-0.659729	0.554152
O57	O	0.648743	-0.562442	0.613609
N58	N	0.846773	-0.688230	0.525548
N59	N	0.114157	-0.151217	0.623565
O60	O	-0.033591	0.046803	0.617717
O61	O	0.129795	0.046806	0.497390
O62	O	0.026157	0.046789	0.497680
O63	O	0.070046	0.046819	0.617427
O64	O	0.060509	-0.056181	0.532004
O65	O	0.164146	-0.056164	0.531714
O66	O	0.000760	-0.056167	0.652041
Cu67	Cu	0.085590	-0.065568	0.595012
Cu68	Cu	0.044965	0.056206	0.554419
O69	O	0.104397	-0.056151	0.651751
N70	N	0.016390	0.141855	0.525867
N71	N	0.114410	-0.590756	1.062992
O72	O	0.108565	-0.738494	1.260998
O73	O	-0.011747	-0.575059	1.261012
O74	O	-0.011470	-0.678679	1.260970
O75	O	0.108287	-0.634874	1.261040
O76	O	0.022849	-0.644347	1.158004
O77	O	0.022572	-0.540726	1.158046
O78	O	0.142884	-0.704162	1.158033
Cu79	Cu	0.085861	-0.619309	1.148638
Cu80	Cu	0.045275	-0.659911	1.270406
O81	O	0.142606	-0.600541	1.158074
N82	N	0.016726	-0.688471	1.356052
C83	C	0.039385	-0.537207	0.498225
C84	C	0.167616	-0.665350	0.498136
C85	C	0.091204	-0.741950	0.651272
C86	C	-0.037027	-0.613806	0.651361
C87	C	0.700360	-0.716215	0.676756
C88	C	0.700279	-0.715877	0.548436
C89	C	0.700133	-0.562725	0.472214
C90	C	0.700218	-0.563065	0.600533
C91	C	0.167511	-0.004552	0.497940
C92	C	0.039211	-0.004699	0.498341
C93	C	-0.036999	-0.004682	0.651449
C94	C	0.091344	-0.004663	0.651090
C95	C	-0.011156	-0.537302	1.209530
C96	C	-0.010806	-0.665617	1.209458
C97	C	0.142293	-0.741918	1.209514
C98	C	0.141950	-0.613596	1.209563
H99	H	0.102355	-0.458618	0.810728
O100	O	-0.055751	-0.676678	1.209408
C101	C	-0.109163	-0.623492	1.209372
H102	H	-0.108662	-0.593945	1.228913
H103	H	-0.109870	-0.595535	1.159961
C104	C	-0.167845	-0.679363	1.225679
C105	C	-0.167233	-0.643075	1.249685
H106	H	-0.203666	-0.691441	1.250544
H107	H	-0.131860	-0.715195	1.225702
H108	H	-0.168432	-0.656059	1.184504
H109	H	-0.166638	-0.666381	1.290856
H110	H	-0.203219	-0.607247	1.249671
O111	O	0.186914	-0.602466	1.209496
C112	C	0.239108	-0.609334	1.156163
H113	H	0.238621	-0.640384	1.138371
H114	H	0.237859	-0.561988	1.118829
C115	C	0.299063	-0.600715	1.194223
C116	C	0.298468	-0.638855	1.172374
H117	H	0.335680	-0.618922	1.204221
H118	H	0.263899	-0.596085	1.230154
H119	H	0.298021	-0.561263	1.163108
H120	H	0.299503	-0.678304	1.203492
H121	H	0.333634	-0.643492	1.136448
H122	H	0.100739	-0.004653	0.688708
O123	O	0.223665	-0.676482	0.453205
C124	C	0.262126	-0.737324	0.475585
H125	H	0.245319	-0.753716	0.528319
H126	H	0.260426	-0.769339	0.459899
C127	C	0.349783	-0.718260	0.385216
C128	C	0.329143	-0.738391	0.449985
H129	H	0.391123	-0.718920	0.369423
H130	H	0.323871	-0.677270	0.370137
H131	H	0.348361	-0.744942	0.372153
H132	H	0.330558	-0.711705	0.463048
H133	H	0.355058	-0.779377	0.465066
H134	H	0.700073	-0.524942	0.425295
H135	H	0.255124	-0.593799	0.620395
O136	O	-0.056297	-0.481358	1.209615
C137	C	-0.108456	-0.489507	1.262938
H138	H	-0.107757	-0.538907	1.280704
H139	H	-0.107364	-0.480630	1.300292
C140	C	-0.168711	-0.382997	1.224905
C141	C	-0.167855	-0.443669	1.246723
H142	H	-0.205351	-0.354721	1.214904
H143	H	-0.133570	-0.377506	1.188981
H144	H	-0.167798	-0.375608	1.256037
H145	H	-0.168760	-0.451060	1.215588
H146	H	-0.202998	-0.449161	1.282641
H147	H	0.700208	-0.525435	0.609919
O148	O	0.102411	-0.798033	0.696154
C149	C	0.163258	-0.836435	0.673704
H150	H	0.179595	-0.819565	0.620970
H151	H	0.195285	-0.834732	0.689374
C152	C	0.144328	-0.924188	0.764018
C153	C	0.164391	-0.903472	0.699249
H154	H	0.145029	-0.965541	0.779777
H155	H	0.103335	-0.898317	0.779144
H156	H	0.171020	-0.922764	0.777068
H157	H	0.137695	-0.904889	0.686200
H158	H	0.205380	-0.929346	0.684121
O159	O	0.028381	-0.481193	0.453205
C160	C	0.081572	-0.481058	0.399818
H161	H	0.124102	-0.517675	0.413407
H162	H	0.076580	-0.491837	0.366174
C163	C	0.036734	-0.371911	0.351902
C164	C	0.088970	-0.416881	0.368593
H165	H	0.041296	-0.332323	0.332639
H166	H	0.000897	-0.372002	0.387869
H167	H	0.032579	-0.380901	0.323868
H168	H	0.093119	-0.407895	0.396632
H169	H	0.124808	-0.416787	0.332630
H170	H	0.180068	-0.788855	1.209502
O171	O	0.223397	-0.004179	0.452815
C172	C	0.261903	-0.004067	0.475058
H173	H	0.232122	0.015227	0.514942
H174	H	0.293399	-0.053401	0.492033
C175	C	0.338226	0.012938	0.373561
C176	C	0.301648	0.036640	0.422544
H177	H	0.362745	0.038045	0.341168
H178	H	0.312285	0.012860	0.358575
H179	H	0.364467	-0.028174	0.387715
H180	H	0.275402	0.077747	0.408391
H181	H	0.327585	0.036726	0.437526
H182	H	0.700405	-0.753994	0.723681
O183	O	0.053206	-0.495401	0.933330
C184	C	0.026277	-0.517570	0.917511
H185	H	0.056987	-0.523920	0.870448
H186	H	0.021470	-0.563889	0.953984
C187	C	-0.075848	-0.462841	0.972339
C188	C	-0.038131	-0.470635	0.914533
H189	H	-0.115579	-0.433891	0.970505
H190	H	-0.057706	-0.447907	0.982999
H191	H	-0.079847	-0.501443	1.002727
H192	H	-0.034126	-0.432035	0.884148
H193	H	-0.056274	-0.485562	0.903868
O194	O	0.261935	-0.599788	0.933294
C195	C	0.299423	-0.654134	0.917426
H196	H	0.274387	-0.663151	0.899622
H197	H	0.344939	-0.648234	0.879791
C198	C	0.343457	-0.698215	0.996851
C199	C	0.312705	-0.709292	0.974989
H200	H	0.351652	-0.732239	1.032357
H201	H	0.318202	-0.661600	1.007540
H202	H	0.381383	-0.693298	0.965483
H203	H	0.274776	-0.714202	1.006354
H204	H	0.337954	-0.745909	0.964306
O205	O	0.095689	-0.452676	0.761406
C206	C	0.058185	-0.398320	0.728701
H207	H	0.083189	-0.389300	0.676845
H208	H	0.012652	-0.404208	0.742507
C209	C	0.014236	-0.354254	0.808064
C210	C	0.044949	-0.343172	0.744374
H211	H	0.006069	-0.320236	0.817734
H212	H	0.039502	-0.390875	0.830100
H213	H	-0.023704	-0.359161	0.819562
H214	H	0.082891	-0.338272	0.732879
H215	H	0.019689	-0.306548	0.722337
H216	H	-0.083922	-0.004684	0.689225
H217	H	-0.083976	-0.604550	0.689083
H218	H	0.029814	-0.004702	0.460721
O219	O	0.053104	-0.495429	0.719019
C220	C	0.026222	-0.517598	0.783937
H221	H	0.063146	-0.557572	0.804810
H222	H	0.005760	-0.478721	0.803146
C223	C	-0.070730	-0.491239	0.775070
C224	C	-0.025380	-0.540339	0.800706
H225	H	-0.102563	-0.505264	0.785415
H226	H	-0.052621	-0.476300	0.731333
H227	H	-0.087775	-0.458846	0.791080
H228	H	-0.008331	-0.572727	0.784690
H229	H	-0.043488	-0.555283	0.844441
O230	O	0.304365	-0.557128	0.657061
C231	C	0.336898	-0.594618	0.619505
H232	H	0.306002	-0.618199	0.627792
H233	H	0.350819	-0.564697	0.568744
C234	C	0.433314	-0.615170	0.625680
C235	C	0.395368	-0.644137	0.635862
H236	H	0.469382	-0.645714	0.635767
H237	H	0.411396	-0.589910	0.650980
H238	H	0.444908	-0.590236	0.583379
H239	H	0.383768	-0.669064	0.678165
H240	H	0.417285	-0.669402	0.610570
O241	O	0.700188	-0.760720	0.537250
C242	C	0.646848	-0.739412	0.522693
H243	H	0.609567	-0.700983	0.542697
H244	H	0.658859	-0.720724	0.470266
C245	C	0.668507	-0.840491	0.526024
C246	C	0.622716	-0.793296	0.550597
H247	H	0.653622	-0.873729	0.543233
H248	H	0.704445	-0.854847	0.535828
H249	H	0.678512	-0.824910	0.482335
H250	H	0.612717	-0.808875	0.594283
H251	H	0.586775	-0.778944	0.540800
O252	O	0.296259	-0.608202	0.748734
C253	C	0.232105	-0.575573	0.765834
H254	H	0.223252	-0.530060	0.768623
H255	H	0.213692	-0.565601	0.729798
C256	C	0.209731	-0.670784	0.825998
C257	C	0.198857	-0.614886	0.829429
H258	H	0.189221	-0.695034	0.865225
H259	H	0.252952	-0.692767	0.814476
H260	H	0.194386	-0.662465	0.795966
H261	H	0.214208	-0.623205	0.859455
H262	H	0.155638	-0.592905	0.840958
O263	O	0.424187	-0.650873	0.706117
C264	C	0.461688	-0.673338	0.741368
H265	H	0.471396	-0.633330	0.736289
H266	H	0.436732	-0.695665	0.792159
C267	C	0.511325	-0.770904	0.724362
C268	C	0.523254	-0.721765	0.718120
H269	H	0.549301	-0.800777	0.710024
H270	H	0.486059	-0.755769	0.700615
H271	H	0.490527	-0.789502	0.766689
H272	H	0.544044	-0.703162	0.675793
H273	H	0.548525	-0.736897	0.741860
O274	O	0.423982	-0.444065	0.627241
C275	C	0.381475	-0.383622	0.623781
H276	H	0.335271	-0.381094	0.628036
H277	H	0.374600	-0.371523	0.663048
C278	C	0.463494	-0.340457	0.555981
C279	C	0.406746	-0.337352	0.561203
H280	H	0.479082	-0.311914	0.517382
H281	H	0.492132	-0.381179	0.558314
H282	H	0.457757	-0.330376	0.588707
H283	H	0.412485	-0.347440	0.528482
H284	H	0.378109	-0.296630	0.558863
H285	H	0.301415	-0.411495	0.671309
O286	O	0.252041	-0.408580	0.604965
C287	C	0.219293	-0.392727	0.567500
H288	H	0.167446	-0.374915	0.592542
H289	H	0.233066	-0.355100	0.521965
C290	C	0.298631	-0.472178	0.523502
C291	C	0.234952	-0.450305	0.554261
H292	H	0.308291	-0.507693	0.515333
H293	H	0.320695	-0.482856	0.548741
H294	H	0.310101	-0.440816	0.485560
H295	H	0.223484	-0.481664	0.592206
H296	H	0.212886	-0.439633	0.529029
O297	O	0.209395	-0.280800	0.562433
C298	C	0.154922	-0.243295	0.546792
H299	H	0.116003	-0.262835	0.583336
H300	H	0.141276	-0.194177	0.544650
C301	C	0.214229	-0.218285	0.438351
C302	C	0.166428	-0.242287	0.483232
H303	H	0.221326	-0.217660	0.399143
H304	H	0.250928	-0.243550	0.448888
H305	H	0.202850	-0.177355	0.436574
H306	H	0.177810	-0.283218	0.485015
H307	H	0.129730	-0.217028	0.472694
H308	H	0.111138	-0.285961	0.764475
O309	O	0.147873	-0.408549	0.813672
C310	C	0.110345	-0.366057	0.846228
H311	H	0.118597	-0.319851	0.815323
H312	H	0.059581	-0.359169	0.860213
C313	C	0.116646	-0.448114	0.942607
C314	C	0.126785	-0.391364	0.904650
H315	H	0.126784	-0.463725	0.978646
H316	H	0.141927	-0.476743	0.920674
H317	H	0.074342	-0.442366	0.954254
H318	H	0.169089	-0.397114	0.892997
H319	H	0.101511	-0.362737	0.926582
H320	H	0.294416	-0.554643	0.810656
