data_functionalizedCrystal
_audit_creation_method	'MofGen! by Chris Wilmer'
_symmetry_space_group_name_H-M	'P1'
_symmetry_Int_Tables_number	1
_symmetry_cell_setting	triclinic
loop_
_symmetry_equiv_pos_as_xyz
  x,y,z
_cell_length_a	13.262390
_cell_length_b	10.540539
_cell_length_c	11.804365
_cell_angle_alpha	101.953828
_cell_angle_beta	62.657606
_cell_angle_gamma	84.478113
loop_
_atom_site_label
_atom_site_type_symbol
_atom_site_fract_x
_atom_site_fract_y
_atom_site_fract_z
O1	O	1.519425	0.018651	-0.591144
O2	O	1.191432	0.064616	-0.484913
O3	O	1.362911	-0.143737	-0.540450
O4	O	1.347946	0.227004	-0.535606
O5	O	1.317767	-0.088937	-0.327773
O6	O	1.146287	0.119416	-0.272236
O7	O	1.474281	0.073450	-0.378467
Cu8	Cu	1.306162	0.101437	-0.305932
Cu9	Cu	1.359550	0.036630	-0.557447
O10	O	1.302801	0.281803	-0.322929
C11	C	1.126860	0.094479	-0.364971
C12	C	1.001716	0.101804	-0.324440
C13	C	0.747400	0.002943	-0.673928
C14	C	0.864980	-0.003945	-0.712012
C15	C	0.899170	0.022492	-0.615122
C16	C	0.815768	0.055818	-0.480142
C17	C	0.698177	0.062697	-0.442055
C18	C	0.849947	0.082246	-0.383249
C19	C	0.766545	0.115572	-0.248268
C20	C	0.648966	0.122451	-0.210188
C21	C	0.614776	0.096014	-0.307077
C22	C	0.967538	0.075366	-0.421336
C23	C	0.918315	0.135120	-0.189463
C24	C	0.800735	0.142009	-0.151379
C25	C	1.339217	-0.163541	-0.433750
C26	C	1.335861	-0.304193	-0.432670
C27	C	1.207293	-0.476323	-0.391474
C28	C	1.210596	-0.329884	-0.392097
C29	C	1.370364	-0.339907	-0.330745
C30	C	1.366067	-0.486046	-0.329258
C31	C	1.419952	-0.549108	-0.571937
C32	C	1.421447	-0.402642	-0.573916
C33	C	1.538853	0.043587	-0.498411
C34	C	1.663999	0.036260	-0.538951
C35	C	1.326496	0.301607	-0.429632
C36	C	1.329854	0.442256	-0.430721
N37	N	1.268620	0.147017	-0.129033
N38	N	1.397102	-0.008961	-0.734350
C39	C	1.487254	-0.118441	0.174106
C40	C	1.515654	-0.152927	0.040247
C41	C	1.453897	-0.077944	-0.002080
C42	C	1.363737	0.031532	0.089467
C43	C	1.335341	0.066028	0.223337
C44	C	1.301984	0.106524	0.047151
C45	C	1.211824	0.216000	0.138698
C46	C	1.183432	0.250490	0.272555
C47	C	1.245188	0.175508	0.314881
C48	C	1.330380	0.072028	-0.086719
C49	C	1.178467	0.256497	-0.037489
C50	C	1.150068	0.290983	0.096371
H51	H	0.932880	-0.031086	-0.821913
C52	C	1.085477	0.369365	0.371757
C53	C	1.037450	0.427632	0.306051
C54	C	0.947204	0.537132	0.397393
H55	H	1.115239	0.432601	0.410743
H56	H	1.027060	0.340874	0.439297
H57	H	1.095856	0.456127	0.238535
H58	H	1.007665	0.364433	0.267070
H59	H	0.888787	0.508640	0.464933
H60	H	0.976976	0.600357	0.436373
H61	H	0.914600	0.576672	0.352827
H62	H	1.514331	-0.388416	-0.610830
C63	C	1.111524	0.338129	-0.083399
C64	C	1.123920	0.469746	-0.057122
C65	C	1.062290	0.544975	-0.099422
H66	H	1.031500	0.336029	-0.037085
H67	H	1.141352	0.301988	-0.176247
H68	H	1.094086	0.505877	0.035709
H69	H	1.203930	0.471886	-0.103434
H70	H	1.092118	0.508835	-0.192270
H71	H	0.982269	0.542865	-0.053104
H72	H	1.070701	0.634282	-0.081610
C73	C	1.122066	-0.238736	-0.255182
C74	C	1.010806	-0.259627	-0.224299
C75	C	0.929226	-0.175700	-0.098168
H76	H	1.123617	-0.148770	-0.254921
H77	H	1.140640	-0.257619	-0.190822
H78	H	0.992237	-0.240734	-0.288642
H79	H	1.009218	-0.349576	-0.224531
H80	H	0.947800	-0.194583	-0.033808
H81	H	0.930788	-0.085739	-0.097919
H82	H	0.853729	-0.189872	-0.077192
H83	H	0.719551	-0.018590	-0.752801
C84	C	1.613343	-0.271860	-0.059369
C85	C	1.699291	-0.229870	-0.159042
C86	C	1.789161	-0.339511	-0.250877
H87	H	1.583172	-0.334708	-0.098158
H88	H	1.646192	-0.311859	-0.015260
H89	H	1.666446	-0.189891	-0.203145
H90	H	1.729494	-0.167036	-0.120292
H91	H	1.822009	-0.379510	-0.206768
H92	H	1.758978	-0.402352	-0.289655
H93	H	1.847491	-0.311035	-0.318508
H94	H	1.035434	0.048235	-0.531238
C95	C	0.955605	0.163594	-0.084403
C96	C	1.033500	0.051337	-0.103339
C97	C	1.067897	0.077515	-0.006604
H98	H	0.889209	0.184370	0.001502
H99	H	0.992518	0.236717	-0.091862
H100	H	0.996587	-0.021764	-0.095868
H101	H	1.099914	0.030542	-0.189224
H102	H	1.104810	0.150638	-0.014063
H103	H	1.001494	0.098294	0.079295
H104	H	1.120760	0.001359	-0.019446
C105	C	1.554461	-0.199977	0.219794
C106	C	1.639506	-0.303225	0.110974
C107	C	1.701450	-0.378364	0.153007
H108	H	1.502536	-0.236292	0.285255
H109	H	1.590737	-0.144591	0.256645
H110	H	1.603231	-0.358603	0.074144
H111	H	1.691456	-0.266949	0.045502
H112	H	1.737726	-0.322978	0.189858
H113	H	1.649517	-0.414669	0.218469
H114	H	1.759167	-0.448419	0.079179
H115	H	0.994911	0.016882	-0.646138
H116	H	1.403789	-0.017107	-0.161246
C117	C	1.392176	-0.617994	-0.677379
C118	C	1.473972	-0.608452	-0.801702
C119	C	1.448417	-0.671905	-0.898856
H120	H	1.316527	-0.576539	-0.656519
H121	H	1.395028	-0.708982	-0.679824
H122	H	1.471110	-0.517481	-0.799255
H123	H	1.549629	-0.649913	-0.822603
H124	H	1.451268	-0.762893	-0.901301
H125	H	1.372766	-0.630444	-0.877984
H126	H	1.503917	-0.665450	-0.983222
H127	H	1.309304	-0.270304	-0.226804
H128	H	1.302244	-0.486899	-0.224043
C129	C	0.558565	0.158435	-0.063597
C130	C	0.584148	0.064740	-0.006734
C131	C	0.500910	0.097854	0.128306
H132	H	0.483589	0.158727	-0.054599
H133	H	0.559739	0.244165	-0.019555
H134	H	0.582962	-0.020967	-0.050763
H135	H	0.659109	0.064434	-0.015696
H136	H	0.502084	0.183583	0.172348
H137	H	0.425940	0.098146	0.137291
H138	H	0.518263	0.034295	0.166907
H139	H	1.454986	-0.540590	-0.352927
H140	H	0.732812	0.169143	-0.041476
C141	C	1.171889	-0.297597	-0.487693
C142	C	1.145322	-0.410074	-0.545421
C143	C	1.109638	-0.380381	-0.633473
H144	H	1.232741	-0.271922	-0.555386
H145	H	1.104833	-0.226842	-0.440558
H146	H	1.212371	-0.480807	-0.592554
H147	H	1.084463	-0.435766	-0.477760
H148	H	1.042582	-0.309626	-0.586338
H149	H	1.170495	-0.354704	-0.701157
H150	H	1.091598	-0.456687	-0.672642
H151	H	1.396409	-0.381019	-0.649475
C152	C	1.484833	-0.115166	-0.147447
C153	C	1.517962	-0.008743	-0.199436
C154	C	1.546485	-0.042998	-0.333354
H155	H	1.419150	-0.134692	-0.154512
H156	H	1.547414	-0.191062	-0.195966
H157	H	1.455387	0.067131	-0.150931
H158	H	1.583652	0.010799	-0.192406
H159	H	1.609065	-0.118894	-0.381873
H160	H	1.480797	-0.062525	-0.340406
H161	H	1.568976	0.029199	-0.368649
H162	H	1.176298	-0.522973	-0.462540
C163	C	1.491830	-0.319715	-0.364532
C164	C	1.563042	-0.440508	-0.389188
C165	C	1.674947	-0.421961	-0.420336
H166	H	1.487911	-0.255847	-0.292019
H167	H	1.523363	-0.289083	-0.441474
H168	H	1.531516	-0.471122	-0.312255
H169	H	1.566996	-0.504394	-0.461707
H170	H	1.706481	-0.391329	-0.497278
H171	H	1.671016	-0.358090	-0.347818
H172	H	1.723281	-0.503917	-0.437081
H173	H	0.519033	0.101625	-0.276076
H174	H	1.139629	-0.479842	-0.288907
H175	H	1.510604	-0.604574	-0.602058
H176	H	1.222063	0.203583	0.423881
H177	H	1.076658	0.380122	0.170924
