data_functionalizedCrystal
_audit_creation_method	'MofGen! by Chris Wilmer'
_symmetry_space_group_name_H-M	'P1'
_symmetry_Int_Tables_number	1
_symmetry_cell_setting	triclinic
loop_
_symmetry_equiv_pos_as_xyz
  x,y,z
_cell_length_a	16.120530
_cell_length_b	16.120444
_cell_length_c	13.897441
_cell_angle_alpha	92.866378
_cell_angle_beta	87.080937
_cell_angle_gamma	90.168401
loop_
_atom_site_label
_atom_site_type_symbol
_atom_site_fract_x
_atom_site_fract_y
_atom_site_fract_z
Zn1	Zn	1.254488	-0.395575	-0.642103
Zn2	Zn	1.247324	-0.534643	-0.488534
Zn3	Zn	1.115422	-0.388551	-0.472257
Zn4	Zn	1.108338	-0.527528	-0.641222
O5	O	1.181393	-0.461574	-0.561029
O6	O	1.369904	-0.419940	-0.628912
O7	O	1.229793	-0.515301	-0.351393
O8	O	1.139833	-0.273119	-0.488344
O9	O	1.364640	-0.522112	-0.516085
O10	O	1.242004	-0.278280	-0.613129
O11	O	1.132886	-0.407968	-0.339435
O12	O	0.998117	-0.401069	-0.487490
O13	O	1.127759	-0.509987	-0.776320
O14	O	0.992912	-0.503176	-0.611628
O15	O	1.235135	-0.413041	-0.776967
O16	O	1.222924	-0.650062	-0.515231
O17	O	1.120812	-0.644835	-0.627411
C18	C	0.965342	-0.450589	-0.547698
C19	C	0.872914	-0.445909	-0.542019
C20	C	0.703686	-0.437346	-0.531658
C21	C	0.659937	-0.485864	-0.590474
C22	C	0.565773	-0.481099	-0.584709
C23	C	0.797859	-0.442110	-0.537421
C24	C	1.170344	-0.677622	-0.573014
C25	C	1.165694	-0.770052	-0.578178
C26	C	1.205722	-0.983027	-0.534459
C27	C	1.157218	-0.939278	-0.587618
C28	C	1.161935	-0.845112	-0.582364
C29	C	1.201006	-1.077202	-0.539712
C30	C	1.398288	-0.472603	-0.574412
C31	C	1.490715	-0.477303	-0.580116
C32	C	1.181456	-0.461504	-0.812622
C33	C	1.181483	-0.461474	-0.919835
C34	C	1.192508	-0.244684	-0.549019
C35	C	1.197244	-0.152259	-0.543902
C36	C	1.181508	-0.461419	-1.116129
C37	C	1.181491	-0.461451	-1.006897
C38	C	1.181382	-0.461587	-0.310415
C39	C	1.181528	-0.461391	-0.203198
H40	H	0.693202	-0.530978	-0.645159
F41	F	1.098307	-0.982756	-0.652260
H42	H	0.670424	-0.392235	-0.476978
F43	F	1.264626	-0.939549	-0.469818
