data_functionalizedCrystal
_audit_creation_method	'MofGen! by Chris Wilmer'
_symmetry_space_group_name_H-M	'P1'
_symmetry_Int_Tables_number	1
_symmetry_cell_setting	triclinic
loop_
_symmetry_equiv_pos_as_xyz
  x,y,z
_cell_length_a	23.532407
_cell_length_b	23.532357
_cell_length_c	8.140239
_cell_angle_alpha	89.990966
_cell_angle_beta	89.999964
_cell_angle_gamma	82.838519
loop_
_atom_site_label
_atom_site_type_symbol
_atom_site_fract_x
_atom_site_fract_y
_atom_site_fract_z
O1	O	0.755246	0.069136	-0.136529
O2	O	0.589381	0.079139	-0.136558
O3	O	0.677330	-0.008796	-0.136509
O4	O	0.667297	0.157071	-0.136578
O5	O	0.677325	-0.008797	0.136718
O6	O	0.589376	0.079139	0.136669
O7	O	0.755241	0.069135	0.136698
Zn8	Zn	0.672308	0.074137	0.180064
Zn9	Zn	0.672314	0.074138	-0.179924
O10	O	0.667292	0.157071	0.136649
C11	C	0.568162	0.078884	0.000052
C12	C	0.504945	0.078118	0.000043
C13	C	0.238788	0.022922	0.000110
C14	C	0.298188	0.023633	0.000110
O15	O	0.334940	-0.020154	0.000185
N16	N	0.320805	0.075911	0.000077
C17	C	0.284018	0.127480	0.000061
O18	O	0.308710	0.172012	0.000035
C19	C	0.224619	0.126768	0.000074
C20	C	0.202006	0.074487	0.000090
C21	C	0.216174	-0.029355	0.000129
C22	C	0.156778	-0.030066	0.000126
C23	C	0.119996	0.021499	0.000106
C24	C	0.142610	0.073776	0.000088
C25	C	0.187833	0.178337	0.000070
C26	C	0.128431	0.177620	0.000084
C27	C	0.105818	0.125339	0.000100
C28	C	0.046431	0.124630	0.000065
N29	N	0.023815	0.072353	0.000098
C30	C	0.060597	0.020787	0.000118
C31	C	0.408760	0.128971	0.000038
C32	C	0.468158	0.129684	0.000014
C33	C	0.482324	0.025837	0.000065
C34	C	0.422925	0.025125	0.000078
C35	C	0.386143	0.076694	0.000071
C36	C	-0.064140	0.019297	0.000112
C37	C	-0.123542	0.018591	0.000103
C38	C	-0.137702	0.122438	0.000060
C39	C	-0.078306	0.123145	0.000060
C40	C	-0.041525	0.071570	0.000092
O41	O	0.009644	0.168394	-0.000004
O42	O	0.035897	-0.023737	0.000167
C43	C	0.677076	-0.030013	0.000110
C44	C	0.676322	-0.093232	0.000125
C45	C	0.671588	-0.485242	-0.148901
C46	C	0.670870	-0.544642	-0.148910
O47	O	0.670482	-0.575358	-0.275575
N48	N	0.670512	-0.574354	0.000024
C49	C	0.670865	-0.544662	0.148977
O50	O	0.670494	-0.575388	0.275656
C51	C	0.671578	-0.485263	0.148985
C52	C	0.671942	-0.455555	0.000041
C53	C	0.671951	-0.455534	-0.297832
C54	C	0.672669	-0.396139	-0.297822
C55	C	0.673024	-0.366452	-0.148881
C56	C	0.672661	-0.396160	0.000051
C57	C	0.671927	-0.455572	0.297936
C58	C	0.672640	-0.396169	0.297931
C59	C	0.673004	-0.366461	0.148987
C60	C	0.673734	-0.307078	0.149003
N61	N	0.674092	-0.277366	0.000069
C62	C	0.673737	-0.307053	-0.148873
C63	C	0.669367	-0.669403	0.148949
C64	C	0.668658	-0.728802	0.148943
C65	C	0.668662	-0.728778	-0.148945
C66	C	0.669375	-0.669379	-0.148937
C67	C	0.669725	-0.639692	0.000015
C68	C	0.675246	-0.182319	-0.148840
C69	C	0.675967	-0.122919	-0.148817
C70	C	0.675960	-0.122948	0.149070
C71	C	0.675242	-0.182343	0.149048
C72	C	0.674883	-0.212027	0.000079
O73	O	0.674120	-0.276324	0.275603
O74	O	0.674101	-0.276318	-0.275531
C75	C	0.776459	0.069390	0.000084
C76	C	0.839676	0.070156	0.000082
C77	C	0.667545	0.178288	0.000026
C78	C	0.668300	0.241506	0.000000
N79	N	0.672307	0.074135	0.425747
N80	N	0.672319	0.074135	-0.425607
H81	H	0.246117	-0.071348	0.000151
F82	F	0.676339	-0.091342	0.307576
H83	H	0.486564	0.172256	-0.000023
F84	F	0.674865	-0.213963	0.307569
H85	H	0.671660	-0.479699	-0.419125
H86	H	0.676265	-0.098733	-0.270110
H87	H	0.669653	-0.645236	0.270251
H88	H	0.669670	-0.645194	-0.270220
H89	H	0.674951	-0.206480	-0.270144
F90	F	-0.147604	-0.037056	0.000110
F91	F	0.132719	-0.085711	0.000131
F92	F	-0.025003	-0.035594	0.000145
F93	F	0.398864	-0.030519	0.000100
H94	H	0.098485	0.219615	0.000086
F95	F	-0.176859	0.177315	0.000029
H96	H	0.512283	-0.016151	0.000082
F97	F	0.369618	0.183862	0.000013
H98	H	0.668371	-0.752959	-0.270221
H99	H	-0.059893	0.165716	0.000045
H100	H	0.206234	0.220910	0.000049
H101	H	0.668370	-0.752986	0.270228
H102	H	0.671632	-0.479750	0.419222
F103	F	0.673053	-0.364529	-0.456350
H104	H	0.672917	-0.372000	0.419229
