data_functionalizedCrystal
_audit_creation_method	'MofGen! by Chris Wilmer'
_symmetry_space_group_name_H-M	'P1'
_symmetry_Int_Tables_number	1
_symmetry_cell_setting	triclinic
loop_
_symmetry_equiv_pos_as_xyz
  x,y,z
_cell_length_a	10.654547
_cell_length_b	10.654545
_cell_length_c	15.186229
_cell_angle_alpha	89.998599
_cell_angle_beta	89.995922
_cell_angle_gamma	84.485741
loop_
_atom_site_label
_atom_site_type_symbol
_atom_site_fract_x
_atom_site_fract_y
_atom_site_fract_z
O1	O	1.667839	0.176414	-0.073239
O2	O	1.302361	0.193216	-0.073237
O3	O	1.493502	0.002076	-0.073237
O4	O	1.476698	0.367554	-0.073238
O5	O	1.493489	0.002073	0.073220
O6	O	1.302348	0.193213	0.073221
O7	O	1.667826	0.176411	0.073218
Zn8	Zn	1.485085	0.184812	0.096473
Zn9	Zn	1.485102	0.184816	-0.096491
O10	O	1.476685	0.367551	0.073219
C11	C	1.255556	0.191980	-0.000008
C12	C	1.116113	0.188287	-0.000007
C13	C	0.854107	0.181328	-0.159691
C14	C	0.919633	0.183067	-0.239525
C15	C	1.050650	0.186547	-0.239523
C16	C	1.116146	0.188284	-0.159678
C17	C	1.050621	0.186546	-0.079844
C18	C	0.919600	0.183070	-0.079855
C19	C	1.050588	0.186549	0.079827
C20	C	0.919570	0.183078	0.079826
C21	C	1.116084	0.188286	0.159672
C22	C	1.050558	0.186557	0.239508
C23	C	0.919532	0.183078	0.239502
C24	C	0.854044	0.181339	0.159660
C25	C	1.492262	-0.044723	-0.000010
C26	C	1.488569	-0.184167	-0.000015
C27	C	1.488598	-0.184172	-0.159688
C28	C	1.486883	-0.249685	-0.239523
C29	C	1.483414	-0.380704	-0.239524
C30	C	1.481656	-0.446212	-0.159681
C31	C	1.483372	-0.380700	-0.079845
C32	C	1.486844	-0.249678	-0.079853
C33	C	1.483333	-0.380693	0.079825
C34	C	1.486811	-0.249675	0.079828
C35	C	1.481576	-0.446202	0.159668
C36	C	1.483300	-0.380690	0.239506
C37	C	1.486771	-0.249664	0.239504
C38	C	1.488527	-0.184163	0.159664
C39	C	1.714630	0.177647	-0.000012
C40	C	1.854074	0.181340	-0.000019
C41	C	1.477925	0.414351	-0.000010
C42	C	1.481618	0.553794	-0.000011
N43	N	1.485083	0.184809	0.228165
N44	N	1.485114	0.184809	-0.228184
C45	C	1.569749	0.100201	0.453888
C46	C	1.569753	0.100198	0.546078
C47	C	1.400438	0.269421	0.546087
C48	C	1.400429	0.269417	0.453899
C49	C	1.485092	0.184808	0.407802
C50	C	1.485105	0.184809	0.592180
C51	C	1.485108	0.184807	0.692136
C52	C	1.485087	0.184809	0.307840
H53	H	1.222766	0.191111	0.159668
H54	H	1.222829	0.191102	-0.159683
H55	H	0.747362	0.178514	0.159648
H56	H	1.488312	-0.196333	-0.304530
N57	N	1.492363	-0.042863	-0.159686
H58	H	1.493221	-0.011305	-0.222377
H59	H	1.415472	-0.001890	-0.128308
N60	N	1.309135	0.360672	0.595814
H61	H	1.357615	0.416728	0.634053
H62	H	1.255520	0.414185	0.552574
H63	H	0.747424	0.178511	-0.159701
H64	H	0.866292	0.181647	-0.304533
H65	H	1.478744	-0.552884	0.159662
H66	H	1.482005	-0.434042	-0.304533
N67	N	1.121325	0.188412	-0.325629
H68	H	1.089028	0.265520	-0.360539
H69	H	1.214245	0.190830	-0.313436
H70	H	1.331485	0.338315	0.416373
N71	N	1.481412	-0.451348	0.325612
H72	H	1.559729	-0.438052	0.360516
H73	H	1.404246	-0.419007	0.360445
H74	H	1.478816	-0.552893	-0.159689
H75	H	1.103896	0.187964	0.304511
N76	N	1.661028	0.008915	0.404170
H77	H	1.648176	0.021743	0.338776
H78	H	1.750256	0.024227	0.420269
H79	H	1.638687	0.031301	0.583598
N80	N	0.848866	0.181191	0.325611
H81	H	0.910348	0.181944	0.376184
H82	H	0.785599	0.257919	0.329357
N83	N	1.488621	-0.178999	0.325610
H84	H	1.410291	-0.192296	0.360508
H85	H	1.565774	-0.211339	0.360450
N86	N	1.492268	-0.042851	0.159671
H87	H	1.570827	-0.020788	0.128333
H88	H	1.415340	-0.001886	0.128338
