data_functionalizedCrystal
_audit_creation_method	'MofGen! by Chris Wilmer'
_symmetry_space_group_name_H-M	'P1'
_symmetry_Int_Tables_number	1
_symmetry_cell_setting	triclinic
loop_
_symmetry_equiv_pos_as_xyz
  x,y,z
_cell_length_a	8.559649
_cell_length_b	13.262975
_cell_length_c	7.088929
_cell_angle_alpha	99.541577
_cell_angle_beta	95.325015
_cell_angle_gamma	77.398253
loop_
_atom_site_label
_atom_site_type_symbol
_atom_site_fract_x
_atom_site_fract_y
_atom_site_fract_z
O1	O	2.102365	-0.022589	-0.170700
O2	O	1.640305	0.029521	-0.143620
O3	O	1.875130	-0.144402	-0.234022
O4	O	1.867540	0.151334	-0.080298
O5	O	1.906509	-0.167692	0.071848
O6	O	1.671684	0.006231	0.162250
O7	O	2.133745	-0.045879	0.135169
Cu8	Cu	1.905579	-0.021950	0.176638
Cu9	Cu	1.868470	0.005593	-0.185088
O10	O	1.898919	0.128044	0.225572
C11	C	1.596703	0.021825	0.011367
C12	C	1.420032	0.033580	0.017474
C13	C	1.887505	-0.193556	-0.100589
C14	C	1.877608	-0.305322	-0.158698
C15	C	1.855872	-0.345111	-0.352742
C16	C	1.846588	-0.450120	-0.407382
C17	C	1.859051	-0.515354	-0.267984
C18	C	1.880798	-0.475568	-0.073936
C19	C	1.890071	-0.370546	-0.019289
C20	C	1.893250	-0.540789	0.065469
C21	C	1.914997	-0.501003	0.259517
C22	C	1.924270	-0.395991	0.314154
C23	C	1.911807	-0.330758	0.174755
C24	C	1.883977	-0.645811	0.010823
C25	C	1.918176	-0.671246	0.344276
C26	C	1.927460	-0.566237	0.398916
C27	C	2.177346	-0.038182	-0.019821
C28	C	2.354016	-0.049936	-0.025940
C29	C	1.886544	0.177199	0.092135
C30	C	1.896440	0.288966	0.150231
N31	N	1.931692	-0.041324	0.431056
N32	N	1.842370	0.024957	-0.439511
H33	H	1.866265	-0.678193	-0.147171
Cl34	Cl	2.074646	-0.147371	0.501994
H35	H	1.749797	0.093645	0.514546
H36	H	1.845718	-0.291988	-0.466218
Cl37	Cl	1.923486	-0.198741	0.243437
H38	H	1.945167	-0.533827	0.556913
H39	H	1.432655	-0.130430	-0.067791
H40	H	1.341382	0.114080	0.059308
Cl41	Cl	1.847383	-0.647368	-0.336678
H42	H	1.941971	-0.363601	0.472161
H43	H	1.928317	-0.724359	0.457787
H44	H	1.828885	-0.482507	-0.565376
