data_functionalizedCrystal
_audit_creation_method	'MofGen! by Chris Wilmer'
_symmetry_space_group_name_H-M	'P1'
_symmetry_Int_Tables_number	1
_symmetry_cell_setting	triclinic
loop_
_symmetry_equiv_pos_as_xyz
  x,y,z
_cell_length_a	17.699083
_cell_length_b	27.732048
_cell_length_c	26.809956
_cell_angle_alpha	89.999364
_cell_angle_beta	89.997218
_cell_angle_gamma	82.962835
loop_
_atom_site_label
_atom_site_type_symbol
_atom_site_fract_x
_atom_site_fract_y
_atom_site_fract_z
O1	O	1.003543	0.061119	-0.041415
O2	O	0.783094	0.069072	-0.041432
O3	O	0.900165	-0.005277	-0.041414
O4	O	0.886472	0.135467	-0.041434
O5	O	0.900143	-0.005265	0.041546
O6	O	0.783072	0.069083	0.041527
O7	O	1.003521	0.061130	0.041544
Zn8	Zn	0.893293	0.065108	0.054707
Zn9	Zn	0.893322	0.065094	-0.054595
O10	O	0.886450	0.135479	0.041526
C11	C	0.754889	0.068792	0.000045
C12	C	0.670878	0.067938	0.000039
C13	C	0.899867	-0.023279	0.000067
C14	C	0.899001	-0.076937	0.000071
C15	C	0.621873	0.111579	0.000033
C16	C	0.542936	0.110772	0.000040
C17	C	0.513007	0.066325	0.000049
C18	C	0.562019	0.022680	0.000056
C19	C	0.640954	0.023487	0.000053
C20	C	0.243685	0.019426	0.000069
C21	C	0.164744	0.018623	0.000071
C22	C	0.145667	0.106712	0.000056
C23	C	0.224602	0.107518	0.000053
C24	C	0.273607	0.063874	0.000063
C25	C	0.359199	0.064749	0.000057
C26	C	0.427418	0.065450	0.000051
C27	C	0.962734	-0.415523	0.000051
C28	C	0.959522	-0.617194	0.000043
O29	O	1.017801	-0.648240	0.000026
N30	N	0.890104	-0.636567	0.000039
C31	C	0.821484	-0.605520	0.000032
O32	O	0.762366	-0.626625	0.000023
C33	C	0.824696	-0.403849	0.000036
C34	C	0.894119	-0.384479	0.000046
C35	C	1.032151	-0.396152	0.000060
C36	C	1.032953	-0.345737	0.000065
C37	C	0.964338	-0.314693	0.000060
C38	C	0.894921	-0.334064	0.000050
C39	C	0.756076	-0.372802	0.000026
C40	C	0.756886	-0.322382	0.000026
C41	C	0.826308	-0.303012	0.000036
C42	C	0.827108	-0.252605	0.000050
N43	N	0.896526	-0.233232	0.000055
C44	C	0.965141	-0.264276	0.000060
C45	C	0.819802	-0.711400	0.000031
C46	C	0.818999	-0.761817	0.000031
C47	C	0.957038	-0.773488	0.000042
C48	C	0.957840	-0.723070	0.000045
C49	C	0.889220	-0.692026	0.000036
C50	C	0.966820	-0.158401	0.000070
C51	C	0.967616	-0.107981	0.000076
C52	C	0.829578	-0.096314	0.000063
C53	C	0.828781	-0.146730	0.000059
C54	C	0.897409	-0.177772	0.000061
O55	O	0.768860	-0.221531	0.000062
O56	O	1.024251	-0.243161	0.000058
C57	C	0.961931	-0.465938	0.000046
C58	C	0.892514	-0.485309	0.000037
C59	C	0.823899	-0.454265	0.000032
C60	C	0.891711	-0.535726	0.000037
C61	C	0.960326	-0.566770	0.000042
C62	C	1.029744	-0.547397	0.000047
C63	C	1.030546	-0.496982	0.000051
C64	C	0.754481	-0.473638	0.000027
C65	C	0.753685	-0.524053	0.000023
C66	C	0.822300	-0.555097	0.000028
C67	C	1.031726	0.061410	0.000065
C68	C	1.115737	0.062264	0.000068
N69	N	0.893279	0.065118	0.129303
C70	C	0.886748	0.153481	0.000043
C71	C	0.887614	0.207139	0.000036
N72	N	0.893343	0.065080	-0.129191
C73	C	0.945154	0.032180	0.473937
C74	C	0.945172	0.032173	0.682815
O75	O	0.989248	0.004170	0.709826
N76	N	0.893326	0.065083	0.708930
C77	C	0.841469	0.097995	0.682823
O78	O	0.797366	0.125984	0.709828
C79	C	0.841448	0.098000	0.473946
C80	C	0.893302	0.065091	0.447834
C81	C	0.997004	-0.000727	0.447825
C82	C	0.997002	-0.000723	0.395609
C83	C	0.945150	0.032188	0.369505
C84	C	0.893300	0.065095	0.395617
C85	C	0.789587	0.130909	0.447839
C86	C	0.789585	0.130907	0.395617
C87	C	0.841440	0.097998	0.369505
C88	C	0.841446	0.098009	0.317297
N89	N	0.893292	0.065099	0.291182
C90	C	0.945144	0.032189	0.317286
C91	C	0.841484	0.097991	0.792486
C92	C	0.841490	0.097990	0.844705
C93	C	0.945193	0.032167	0.844694
C94	C	0.945190	0.032171	0.792474
C95	C	0.893331	0.065081	0.766371
C96	C	0.945136	0.032200	0.207628
C97	C	0.945131	0.032208	0.155407
C98	C	0.841426	0.098029	0.155423
C99	C	0.841433	0.098023	0.207639
C100	C	0.893291	0.065104	0.233740
O101	O	0.797387	0.125993	0.290254
O102	O	0.989229	0.004197	0.290272
C103	C	0.945157	0.032176	0.526154
C104	C	0.893307	0.065083	0.552266
C105	C	0.841455	0.097993	0.526162
C106	C	0.893313	0.065082	0.604485
C107	C	0.945165	0.032172	0.630589
C108	C	0.997011	-0.000738	0.604474
C109	C	0.997009	-0.000734	0.552257
C110	C	0.789609	0.130904	0.552277
C111	C	0.789616	0.130897	0.604494
C112	C	0.841468	0.097987	0.630598
H113	H	0.646234	0.147773	0.000025
H114	H	0.799253	0.124792	0.771237
F115	F	0.490784	0.157221	0.000031
H116	H	0.987414	0.005373	0.771216
H117	H	0.537645	-0.013510	0.000071
H118	H	0.701006	-0.297108	0.000017
F119	F	1.104436	-0.476373	0.000059
F120	F	0.734396	0.165935	0.475621
F121	F	0.256450	0.154825	0.000040
H122	H	0.105758	0.142249	0.000050
F123	F	0.681447	-0.440605	0.000020
F124	F	0.132894	-0.028687	0.000081
H125	H	0.799274	0.124793	0.865962
F126	F	1.052199	-0.035761	0.524473
H127	H	0.987415	0.005371	0.865956
F128	F	0.295830	-0.027024	0.000080
F129	F	1.102769	-0.580445	0.000054
H130	H	0.747352	0.157706	0.374366
F131	F	0.693110	-0.022962	0.000062
F132	F	1.052196	-0.035758	0.475599
F133	F	0.786244	0.133054	0.127633
H134	H	0.799215	0.124825	0.228900
H135	H	1.024151	-0.092213	0.000086
H136	H	1.039234	-0.027534	0.625736
F137	F	1.039861	-0.191432	0.000071
F138	F	1.106842	-0.325128	0.000064
H139	H	1.088028	-0.421424	0.000062
F140	F	0.734425	0.165928	0.632280
F141	F	1.031728	-0.702459	0.000056
H142	H	1.012907	-0.798773	0.000046
F143	F	0.734418	0.165933	0.524502
F144	F	0.745110	-0.782427	0.000030
H145	H	0.699545	-0.388565	0.000015
F146	F	0.746762	-0.678366	0.000022
F147	F	1.000325	-0.002819	0.127619
H148	H	0.772252	-0.162502	0.000065
H149	H	0.773714	-0.071029	0.000061
H150	H	0.987362	0.005394	0.228874
F151	F	0.679790	-0.544663	0.000016
F152	F	1.052189	-0.035751	0.367823
