data_functionalizedCrystal
_audit_creation_method	'MofGen! by Chris Wilmer'
_symmetry_space_group_name_H-M	'P1'
_symmetry_Int_Tables_number	1
_symmetry_cell_setting	triclinic
loop_
_symmetry_equiv_pos_as_xyz
  x,y,z
_cell_length_a	16.992694
_cell_length_b	10.654541
_cell_length_c	16.053802
_cell_angle_alpha	92.590712
_cell_angle_beta	87.249047
_cell_angle_gamma	87.576076
loop_
_atom_site_label
_atom_site_type_symbol
_atom_site_fract_x
_atom_site_fract_y
_atom_site_fract_z
O1	O	1.045115	0.261481	-0.069324
O2	O	1.545115	0.761481	0.430676
O3	O	0.816815	0.258557	-0.069348
O4	O	1.316815	0.758557	0.430652
O5	O	0.936214	0.077733	-0.069330
O6	O	1.436214	0.577733	0.430670
O7	O	0.925715	0.442304	-0.069342
O8	O	1.425715	0.942304	0.430658
O9	O	0.929642	0.087643	0.069527
O10	O	1.429642	0.587643	0.569527
O11	O	0.810242	0.268466	0.069510
O12	O	1.310242	0.768466	0.569510
O13	O	1.038542	0.271391	0.069534
O14	O	1.538542	0.771391	0.569534
Zn15	Zn	0.923349	0.271501	0.091569
Zn16	Zn	1.423349	0.771501	0.591569
Zn17	Zn	0.932008	0.258446	-0.091383
Zn18	Zn	1.432008	0.758446	0.408617
O19	O	0.919143	0.452214	0.069516
O20	O	1.419143	0.952214	0.569516
C21	C	0.784296	0.259751	0.000077
C22	C	1.284296	0.759751	0.500077
C23	C	0.697191	0.248531	0.000068
C24	C	1.197191	0.748531	0.500068
C25	C	0.647539	0.356781	0.000065
C26	C	1.147539	0.856781	0.500065
C27	C	0.565694	0.346233	0.000077
C28	C	1.065694	0.846233	0.500077
C29	C	0.533504	0.227433	0.000086
C30	C	1.033504	0.727433	0.500086
C31	C	0.583162	0.119174	0.000091
C32	C	1.083162	0.619174	0.500091
C33	C	0.665005	0.129724	0.000085
C34	C	1.165005	0.629724	0.500085
C35	C	0.289668	0.183707	0.000110
C36	C	0.789668	0.683707	0.500110
C37	C	0.207819	0.173165	0.000113
C38	C	0.707819	0.673165	0.500113
C39	C	0.190356	0.400226	0.000101
C40	C	0.690356	0.900226	0.500101
C41	C	0.272201	0.410765	0.000090
C42	C	0.772201	0.910765	0.500090
C43	C	0.321852	0.302506	0.000099
C44	C	0.821852	0.802506	0.500099
N45	N	0.449846	0.216647	0.000095
N46	N	0.949846	0.716647	0.500095
N47	N	0.405508	0.313293	0.000096
N48	N	0.905508	0.813293	0.500096
C49	C	0.932158	0.035823	0.000098
C50	C	1.432158	0.535823	0.500098
C51	C	0.929852	-0.103819	0.000096
C52	C	1.429852	0.396181	0.500096
C53	C	1.072627	-0.119450	0.000122
C54	C	1.572627	0.380550	0.500122
C55	C	1.142928	-0.192868	0.000137
C56	C	1.642928	0.307132	0.500137
C57	C	1.140757	-0.324074	0.000134
C58	C	1.640757	0.175926	0.500134
C59	C	1.068278	-0.381864	0.000114
C60	C	1.568278	0.118136	0.500114
C61	C	0.997977	-0.308446	0.000100
C62	C	1.497977	0.191554	0.500100
C63	C	1.000155	-0.177238	0.000105
C64	C	1.500155	0.322762	0.500105
C65	C	0.855204	-0.292816	0.000068
C66	C	1.355204	0.207184	0.500068
C67	C	0.857373	-0.161610	0.000076
C68	C	1.357373	0.338390	0.500076
C69	C	0.782725	-0.350606	0.000048
C70	C	1.282725	0.149394	0.500048
C71	C	0.712422	-0.277188	0.000039
C72	C	1.212422	0.222812	0.500039
C73	C	0.714596	-0.145974	0.000043
C74	C	1.214596	0.354026	0.500043
C75	C	0.787072	-0.088192	0.000062
C76	C	1.287072	0.411808	0.500062
C77	C	1.071061	0.270196	0.000106
C78	C	1.571061	0.770196	0.500106
C79	C	1.158166	0.281416	0.000110
C80	C	1.658166	0.781416	0.500110
C81	C	0.923199	0.494124	0.000086
C82	C	1.423199	0.994124	0.500086
C83	C	0.925505	0.633766	0.000082
C84	C	1.425505	1.133766	0.500082
N85	N	0.917445	0.280412	0.216428
N86	N	1.417445	0.780412	0.716428
N87	N	0.937918	0.249526	-0.216242
N88	N	1.437918	0.749526	0.283758
C89	C	0.968268	0.203502	0.260130
C90	C	1.468268	0.703502	0.760130
C91	C	0.964146	0.209748	0.347536
C92	C	1.464146	0.709748	0.847536
C93	C	0.909203	0.292910	0.391239
C94	C	1.409203	0.792910	0.891239
C95	C	0.858374	0.369822	0.347531
C96	C	1.358374	0.869822	0.847531
C97	C	0.862493	0.363569	0.260126
C98	C	1.362493	0.863569	0.760126
C99	C	0.891209	0.320186	0.652646
C100	C	1.391209	0.820186	1.152646
C101	C	0.887095	0.326436	0.740056
C102	C	1.387095	0.826436	1.240056
C103	C	0.992866	0.166359	0.740055
C104	C	1.492866	0.666359	1.240055
C105	C	0.996984	0.160119	0.652649
C106	C	1.496984	0.660119	1.152649
C107	C	0.946152	0.237026	0.608949
C108	C	1.446152	0.737026	1.108949
N109	N	0.904989	0.299298	0.480582
N110	N	1.404989	0.799298	0.980582
N111	N	0.950363	0.230631	0.519607
N112	N	1.450363	0.730631	1.019607
H113	H	0.181613	0.076419	0.000119
H114	H	0.681613	0.576419	0.500119
F115	F	0.808397	0.445424	0.213617
F116	F	1.308397	0.945424	0.713617
H117	H	1.041723	0.092402	0.617067
H118	H	1.541723	0.592402	1.117067
H119	H	0.657348	-0.086204	0.000027
H120	H	1.157348	0.413796	0.500027
H121	H	0.298405	0.507504	0.000073
H122	H	0.798405	1.007504	0.500073
H123	H	0.330084	0.095555	0.000118
H124	H	0.830084	0.595555	0.500118
F125	F	0.789391	0.051449	0.000072
F126	F	1.289391	0.551449	0.500072
F127	F	1.220062	-0.131355	0.000154
F128	F	1.720062	0.368645	0.500154
H129	H	0.556946	0.022444	0.000110
H130	H	1.056946	0.522444	0.500110
H131	H	0.842351	0.394161	0.775635
H132	H	1.342351	0.894161	1.275635
F133	F	1.026751	0.114995	0.213626
F134	F	1.526751	0.614995	0.713626
F135	F	1.074943	0.020192	0.000142
F136	F	1.574943	0.520192	0.500142
H137	H	1.005530	0.147121	0.383117
H138	H	1.505530	0.647121	0.883117
H139	H	1.198003	-0.383852	0.000139
H140	H	1.698003	0.116148	0.500139
H141	H	0.813634	0.437530	0.383119
H142	H	1.313634	0.937530	0.883119
H143	H	0.653415	-0.324252	0.000018
H144	H	1.153415	0.175748	0.500018
H145	H	0.849821	0.382810	0.617072
H146	H	1.349821	0.882810	1.117072
H147	H	0.780962	-0.457442	0.000040
H148	H	1.280962	0.042558	0.500040
H149	H	0.149922	0.488363	0.000095
H150	H	0.649922	0.988363	0.500095
F151	F	0.717849	0.014508	0.000091
F152	F	1.217849	0.514508	0.500091
F153	F	1.046960	0.084510	0.786569
F154	F	1.546960	0.584510	1.286569
F155	F	1.065973	-0.521509	0.000065
F156	F	1.565973	-0.021509	0.500065
H157	H	0.525270	0.434383	0.000074
H158	H	1.025270	0.934383	0.500074
F159	F	0.681790	0.483226	0.000051
F160	F	1.181790	0.983226	0.500051
