data_functionalizedCrystal
_audit_creation_method	'MofGen! by Chris Wilmer'
_symmetry_space_group_name_H-M	'P1'
_symmetry_Int_Tables_number	1
_symmetry_cell_setting	triclinic
loop_
_symmetry_equiv_pos_as_xyz
  x,y,z
_cell_length_a	14.560438
_cell_length_b	20.875641
_cell_length_c	20.875641
_cell_angle_alpha	60.089808
_cell_angle_beta	90.002785
_cell_angle_gamma	62.440114
loop_
_atom_site_label
_atom_site_type_symbol
_atom_site_fract_x
_atom_site_fract_y
_atom_site_fract_z
Zr1	Zr	0.926809	0.694336	-0.105750
O2	O	0.792216	0.820578	-0.209017
O3	O	0.963033	0.563081	-0.070817
O4	O	0.976558	0.687104	-0.204289
O5	O	0.773750	0.704009	0.026014
O6	O	1.127699	0.687102	-0.204286
O7	O	0.778691	0.696555	-0.075545
O8	O	1.103504	0.465247	0.034471
O9	O	0.797945	0.925863	-0.212743
O10	O	1.097361	0.618924	-0.059874
O11	O	0.980879	0.624488	0.015916
O12	O	0.996803	0.770509	-0.141230
O13	O	0.880322	0.776073	-0.065440
Zr14	Zr	1.159981	0.706221	0.056231
Zr15	Zr	1.167861	0.694334	-0.105744
Zr16	Zr	0.918929	0.706224	0.056225
Zr17	Zr	0.935945	0.862254	-0.111692
Zr18	Zr	1.150845	0.538303	0.062173
O19	O	1.123757	0.837477	0.021298
O20	O	1.134961	0.820574	-0.209009
O21	O	0.781012	0.837481	0.021291
O22	O	1.294573	0.579979	0.159498
O23	O	1.305778	0.563077	-0.070810
O24	O	0.951829	0.579983	0.159490
O25	O	1.313040	0.696549	-0.075533
O26	O	1.110231	0.713454	0.154770
O27	O	0.959091	0.713455	0.154767
O28	O	1.308099	0.704002	0.026026
O29	O	0.989549	0.925861	-0.212738
O30	O	1.097241	0.474696	0.163219
O31	O	1.288845	0.474694	0.163224
O32	O	1.295108	0.465245	0.034475
O33	O	0.791681	0.935312	-0.083994
O34	O	0.983285	0.935310	-0.083990
O35	O	1.089986	0.630049	0.091711
O36	O	1.206468	0.624485	0.015921
O37	O	1.105911	0.776070	-0.065435
O38	O	0.989429	0.781634	0.010355
C39	C	1.031967	0.490239	-0.017327
C40	C	1.028088	0.418954	-0.014804
C41	C	1.087065	0.382560	-0.053180
C42	C	1.083423	0.315575	-0.050803
C43	C	1.020798	0.284991	-0.010053
C44	C	0.961819	0.321388	0.028329
C45	C	0.965467	0.388367	0.025955
C46	C	1.003371	0.084980	0.001293
C47	C	0.999724	0.017998	0.003661
C48	C	1.121331	0.012188	-0.075469
C49	C	1.124969	0.079173	-0.077843
C50	C	1.065995	0.115561	-0.039458
N51	N	1.017071	0.216524	-0.007623
N52	N	1.069728	0.184022	-0.041883
C53	C	0.741876	0.700282	-0.024766
C54	C	0.639543	0.700283	-0.024769
C55	C	0.594181	0.696179	-0.080717
C56	C	0.498035	0.696171	-0.080707
C57	C	0.492617	0.704376	0.031204
C58	C	0.588766	0.704378	0.031196
C59	C	0.644958	0.692084	-0.136682
C60	C	0.599596	0.687980	-0.192635
C61	C	0.503450	0.687972	-0.192625
C62	C	0.452665	0.692069	-0.136661
C63	C	1.344914	0.700275	-0.024753
C64	C	1.447247	0.700274	-0.024750
C65	C	1.053251	0.685409	-0.227365
C66	C	1.056597	0.680363	-0.296128
C67	C	1.054823	0.910318	-0.032192
C68	C	1.058701	0.981603	-0.034715
C69	C	1.005680	0.757116	-0.370900
C70	C	1.008837	0.752369	-0.435507
C71	C	1.062905	0.670868	-0.425340
C72	C	1.113828	0.594109	-0.350561
C73	C	1.110677	0.598857	-0.285955
C74	C	1.077965	0.648184	-0.614006
C75	C	1.081110	0.643442	-0.678619
C76	C	0.976120	0.801702	-0.763561
C77	C	0.972968	0.806442	-0.698950
C78	C	1.023896	0.729684	-0.624177
N79	N	1.066131	0.666014	-0.491378
N80	N	1.020676	0.734539	-0.558141
C81	C	1.033538	0.715148	0.177846
C82	C	1.030193	0.720195	0.246609
C83	C	1.333486	0.490236	-0.017320
C84	C	1.431940	0.418949	-0.014795
C85	C	1.022110	0.505109	0.185279
C86	C	1.014887	0.438870	0.256565
C87	C	1.323630	0.505105	0.185286
C88	C	1.418739	0.438865	0.256574
C89	C	0.763160	0.895452	-0.234805
C90	C	0.668051	0.961692	-0.306093
C91	C	0.753304	0.910321	-0.032199
C92	C	0.654849	0.981608	-0.034724
C93	C	1.064679	0.895449	-0.234798
C94	C	1.071903	0.961687	-0.306084
C95	C	1.421223	0.382569	-0.053180
C96	C	1.513723	0.315596	-0.050823
C97	C	1.616939	0.285000	-0.010076
C98	C	1.627655	0.321387	0.028310
C99	C	1.535156	0.388363	0.025948
C100	C	1.068447	0.410667	0.329612
C101	C	1.061655	0.348438	0.396598
C102	C	1.001309	0.314409	0.390535
C103	C	0.947742	0.342618	0.317480
C104	C	0.954528	0.404850	0.250496
C105	C	1.524215	0.404854	0.250490
C106	C	1.613590	0.342623	0.317465
C107	C	1.597486	0.314401	0.390525
C108	C	1.491999	0.348418	0.396607
C109	C	1.402626	0.410652	0.329632
C110	C	0.562575	0.995711	-0.300009
C111	C	0.473201	1.057963	-0.366985
C112	C	0.489305	1.086189	-0.440045
C113	C	0.594792	1.052167	-0.446127
C114	C	0.684164	0.989922	-0.379152
C115	C	0.665567	1.017995	0.003654
C116	C	0.573069	1.084985	0.001278
C117	C	0.469853	1.115583	-0.039471
C118	C	0.459137	1.079193	-0.077854
C119	C	0.551635	1.012208	-0.075483
C120	C	1.132258	0.995697	-0.299996
C121	C	1.139067	1.057927	-0.366969
C122	C	1.085513	1.086151	-0.440030
C123	C	1.025156	1.052135	-0.446116
C124	C	1.018354	0.989901	-0.379143
H125	H	1.138057	0.407461	-0.086367
F126	F	0.883522	0.306393	0.311040
F127	F	1.146177	0.276858	-0.091662
F128	F	1.311381	0.415121	-0.096554
H129	H	1.316745	0.438336	0.334597
F130	F	1.118675	0.318425	0.474341
F131	F	1.189263	0.965670	-0.222245
H132	H	1.478902	0.325430	0.456101
F133	F	0.350343	0.692050	-0.136648
F134	F	0.968157	1.082187	-0.523880
F135	F	0.775409	0.985445	0.047026
H136	H	0.625700	0.707719	0.076755
F137	F	0.540211	0.973485	-0.116328
F138	F	0.948130	0.843861	-0.381729
H139	H	0.955354	0.114596	0.032551
F140	F	0.545411	0.965681	-0.222260
F141	F	1.546579	0.427071	0.066811
F142	F	0.994098	0.248175	0.461834
H143	H	0.910916	0.427805	0.191020
F144	F	0.438564	0.708738	0.090759
F145	F	1.541379	0.434883	0.172741
F146	F	1.203303	1.094122	-0.360476
H147	H	1.091060	1.136826	-0.494558
F148	F	1.725848	0.306427	0.310976
H149	H	0.967378	0.814869	-0.496387
F150	F	0.921924	0.883388	-0.843142
F151	F	1.191619	0.111722	-0.121219
F152	F	1.184094	-0.026545	-0.116316
F153	F	0.455180	0.683595	-0.252168
F154	F	1.502296	0.276879	-0.091678
H155	H	1.670269	0.263725	0.445054
H156	H	0.928944	0.872809	-0.707237
H157	H	1.119434	0.585682	-0.553130
F158	F	0.360943	1.094158	-0.360496
H159	H	0.948722	-0.006900	0.036845
F160	F	0.895181	0.288826	0.071709
F161	F	0.902698	0.427099	0.066802
H162	H	1.117587	0.438367	0.334563
F163	F	0.371417	1.186875	-0.041987
H164	H	1.157858	0.527750	-0.342288
H165	H	1.711706	0.296466	0.061485
H166	H	0.581815	1.114603	0.032538
H167	H	0.416523	1.136874	-0.494574
F168	F	1.138660	0.556694	-0.667793
F169	F	1.164880	0.517166	-0.206375
F170	F	1.715376	0.213716	-0.007568
H171	H	0.723244	0.692093	-0.136697
H172	H	0.607892	1.075157	-0.505620
F173	F	0.796418	0.953717	-0.385638
F174	F	0.349278	1.111766	-0.121218
H175	H	0.969202	0.962218	-0.384111
F176	F	0.653652	0.683611	-0.252187
