data_functionalizedCrystal
_audit_creation_method	'MofGen! by Chris Wilmer'
_symmetry_space_group_name_H-M	'P1'
_symmetry_Int_Tables_number	1
_symmetry_cell_setting	triclinic
loop_
_symmetry_equiv_pos_as_xyz
  x,y,z
_cell_length_a	19.805407
_cell_length_b	18.101395
_cell_length_c	19.805399
_cell_angle_alpha	89.973474
_cell_angle_beta	89.983114
_cell_angle_gamma	90.031104
loop_
_atom_site_label
_atom_site_type_symbol
_atom_site_fract_x
_atom_site_fract_y
_atom_site_fract_z
Zn1	Zn	1.034696	-0.294836	-0.382731
Zn2	Zn	1.034607	-0.418683	-0.269548
Zn3	Zn	0.921516	-0.294860	-0.269556
Zn4	Zn	0.921465	-0.418641	-0.382695
O5	O	0.978071	-0.356755	-0.326132
O6	O	1.129400	-0.311273	-0.367729
O7	O	1.019589	-0.402285	-0.174832
O8	O	0.936588	-0.191224	-0.284587
O9	O	1.129335	-0.402263	-0.284574
O10	O	1.019741	-0.191207	-0.367737
O11	O	0.936501	-0.311313	-0.174838
O12	O	0.826792	-0.311272	-0.284552
O13	O	0.936501	-0.402190	-0.477416
O14	O	0.826755	-0.402213	-0.367674
O15	O	1.019691	-0.311232	-0.477443
O16	O	1.019539	-0.522310	-0.284538
O17	O	0.936414	-0.522279	-0.367667
C18	C	0.802215	-0.356741	-0.326110
C19	C	0.726983	-0.356753	-0.326117
C20	C	0.691637	-0.404177	-0.369329
C21	C	0.620948	-0.404178	-0.369339
C22	C	0.585607	-0.356758	-0.326132
C23	C	0.620958	-0.309329	-0.282919
C24	C	0.691645	-0.309324	-0.282913
C25	C	0.335885	-0.309345	-0.282941
C26	C	0.265193	-0.309355	-0.282948
C27	C	0.265188	-0.404199	-0.369367
C28	C	0.335875	-0.404195	-0.369361
C29	C	0.371220	-0.356763	-0.326150
C30	C	0.447868	-0.356761	-0.326141
C31	C	0.508960	-0.356763	-0.326137
C32	C	0.977980	-0.549166	-0.326112
C33	C	0.978003	-0.631480	-0.326127
C34	C	0.978152	-0.930571	-0.326163
C35	C	0.925973	-0.899257	-0.378595
C36	C	0.925725	-0.813639	-0.378431
C37	C	0.978078	-0.782188	-0.326146
C38	C	0.958771	-0.813338	-0.254811
C39	C	0.958434	-0.898984	-0.255125
C40	C	1.049752	-0.898915	-0.344438
C41	C	1.049331	-0.813264	-0.346002
C42	C	0.978038	-0.698329	-0.326131
C43	C	0.978191	-1.014430	-0.326173
C44	C	1.154613	-0.356770	-0.326155
C45	C	1.229845	-0.356776	-0.326164
C46	C	0.978100	-0.356704	-0.502675
C47	C	0.978113	-0.356682	-0.577907
C48	C	0.978180	-0.163593	-0.326167
C49	C	0.978227	-0.081279	-0.326182
C50	C	0.934862	-0.309308	-0.613254
C51	C	0.934871	-0.309294	-0.683942
C52	C	0.978135	-0.356650	-0.719283
C53	C	1.021389	-0.404029	-0.683931
C54	C	1.021375	-0.404046	-0.613244
C55	C	1.021442	-0.403959	-0.969005
C56	C	1.021454	-0.403937	-1.039697
C57	C	0.934938	-0.309207	-1.039703
C58	C	0.934925	-0.309224	-0.969016
C59	C	0.978175	-0.356606	-0.933670
C60	C	0.978163	-0.356622	-0.857022
C61	C	0.978151	-0.356631	-0.795930
C62	C	0.978080	-0.356753	-0.150276
C63	C	0.978198	-0.356566	-0.075045
H64	H	0.364646	-0.442811	-0.404542
H65	H	0.899634	-0.270741	-0.584485
H66	H	0.364654	-0.270729	-0.247751
H67	H	0.899649	-0.270720	-0.712719
H68	H	0.994790	-0.919700	-0.214727
H69	H	0.720406	-0.442794	-0.404510
O70	O	1.101316	-0.925730	-0.293922
H71	H	1.140944	-0.957828	-0.320538
H72	H	0.937804	-0.792575	-0.431325
H73	H	0.995580	-0.792968	-0.214680
H74	H	0.937932	-0.919805	-0.431660
H75	H	0.236402	-0.442818	-0.404554
H76	H	0.236420	-0.270735	-0.247765
O77	O	0.890174	-0.785022	-0.233932
H78	H	0.869722	-0.748773	-0.274242
O79	O	1.068033	-0.455136	-0.575119
H80	H	1.056400	-0.513255	-0.588677
O81	O	0.582845	-0.258199	-0.236298
H82	H	0.527753	-0.266181	-0.243549
O83	O	0.582822	-0.455470	-0.415815
H84	H	0.619273	-0.488501	-0.445804
H85	H	0.899697	-0.270659	-0.940245
H86	H	0.720423	-0.270703	-0.247729
O87	O	1.068051	-0.455106	-0.722051
H88	H	1.056400	-0.513231	-0.708476
O89	O	0.888291	-0.258094	-1.077824
H90	H	0.895564	-0.266036	-1.132915
H91	H	1.056652	-0.442548	-0.940235
H92	H	1.056687	-0.442503	-1.068469
H93	H	0.872653	-0.793215	-0.366326
O94	O	0.856095	-0.927834	-0.362763
H95	H	0.858365	-0.964242	-0.317712
O96	O	1.103563	-0.784916	-0.299110
H97	H	1.128313	-0.832283	-0.273546
H98	H	0.906095	-0.919026	-0.239644
H99	H	1.067356	-0.920463	-0.395569
O100	O	1.068633	-0.786282	-0.415535
H101	H	1.027656	-0.750884	-0.435873
