data_functionalizedCrystal
_audit_creation_method	'MofGen! by Chris Wilmer'
_symmetry_space_group_name_H-M	'P1'
_symmetry_Int_Tables_number	1
_symmetry_cell_setting	triclinic
loop_
_symmetry_equiv_pos_as_xyz
  x,y,z
_cell_length_a	11.026607
_cell_length_b	15.944551
_cell_length_c	10.065875
_cell_angle_alpha	98.788968
_cell_angle_beta	79.302338
_cell_angle_gamma	96.042377
loop_
_atom_site_label
_atom_site_type_symbol
_atom_site_fract_x
_atom_site_fract_y
_atom_site_fract_z
O1	O	1.627949	0.342077	-0.113512
O2	O	1.274640	0.302024	-0.113511
O3	O	1.460941	0.201235	-0.113499
O4	O	1.441648	0.442866	-0.113524
O5	O	1.425416	0.220553	0.113487
O6	O	1.239115	0.321342	0.113475
O7	O	1.592424	0.361394	0.113475
Zn8	Zn	1.410129	0.344435	0.149514
Zn9	Zn	1.456935	0.318983	-0.149550
O10	O	1.406123	0.462183	0.113463
C11	C	1.211666	0.304294	-0.000018
C12	C	1.076950	0.282267	-0.000017
C13	C	1.003150	0.343086	-0.000024
C14	C	0.863914	0.320322	-0.000024
C15	C	1.442377	0.179479	-0.000006
C16	C	1.439975	0.085870	-0.000005
C17	C	1.318759	-0.147313	-0.000024
C18	C	1.357533	-0.190296	0.111894
C19	C	1.435632	-0.085514	-0.000015
C20	C	1.392586	-0.209321	-0.111896
C21	C	1.431429	-0.251063	-0.000031
C22	C	1.474424	-0.127256	0.111995
C23	C	1.509476	-0.146286	-0.111896
C24	C	1.548331	-0.189236	0.000049
C25	C	1.438050	0.009855	-0.000005
C26	C	1.429019	-0.346429	-0.000032
C27	C	1.655399	0.359124	-0.000022
C28	C	1.790116	0.381150	-0.000031
C29	C	1.424687	0.483939	-0.000034
C30	C	1.427090	0.577548	-0.000043
N31	N	1.378194	0.361806	0.353617
N32	N	1.488879	0.301607	-0.353654
C33	C	1.445816	0.325021	0.421401
C34	C	1.421248	0.338398	0.578566
H35	H	1.043047	0.412009	-0.000024
H36	H	1.573676	-0.126742	-0.206519
H37	H	1.345156	0.379794	0.636882
O38	O	1.280806	-0.213720	0.224628
C39	C	1.185896	-0.273150	0.184455
H40	H	1.218034	-0.305912	0.076620
H41	H	1.163123	-0.322770	0.257659
H42	H	1.099785	-0.238827	0.186602
O43	O	0.837571	0.463398	-0.000226
C44	C	0.816344	0.493582	-0.117811
H45	H	0.734635	0.454148	-0.156998
H46	H	0.794765	0.563148	-0.091385
H47	H	0.902464	0.487858	-0.200128
O48	O	0.816142	0.238129	-0.000078
C49	C	0.687754	0.233699	-0.000043
H50	H	0.664886	0.291134	-0.043020
H51	H	0.659095	0.172780	-0.065939
H52	H	0.635465	0.233599	0.108855
O53	O	1.536746	0.275711	0.352016
C54	C	1.651534	0.310334	0.386817
H55	H	1.635340	0.351493	0.490587
H56	H	1.710329	0.256538	0.391593
H57	H	1.701752	0.350966	0.306413
O58	O	1.029345	0.200032	-0.000253
C59	C	0.975341	0.173679	-0.117793
H60	H	1.018228	0.215086	-0.199963
H61	H	0.992741	0.104323	-0.157249
H62	H	0.871388	0.180317	-0.091214
H63	H	1.221730	-0.128661	0.000088
O64	O	1.515587	-0.084758	0.224959
C65	C	1.517328	0.003656	0.223615
H66	H	1.449809	0.016432	0.157287
H67	H	1.488871	0.036607	0.332126
H68	H	1.614710	0.029425	0.180348
H69	H	1.564962	0.260203	0.588030
O70	O	1.664134	-0.211225	0.000360
C71	C	1.706802	-0.168795	0.118494
H72	H	1.624283	-0.150435	0.200595
H73	H	1.763306	-0.212696	0.157556
H74	H	1.767318	-0.108948	0.092861
O75	O	1.351093	-0.251716	-0.224735
C76	C	1.230022	-0.230574	-0.224288
H77	H	1.213951	-0.166479	-0.158767
H78	H	1.217968	-0.226524	-0.333128
H79	H	1.160247	-0.281622	-0.180608
H80	H	1.302107	0.403200	0.411939
