data_functionalizedCrystal
_audit_creation_method	'MofGen! by Chris Wilmer'
_symmetry_space_group_name_H-M	'P1'
_symmetry_Int_Tables_number	1
_symmetry_cell_setting	triclinic
loop_
_symmetry_equiv_pos_as_xyz
  x,y,z
_cell_length_a	12.594517
_cell_length_b	21.295417
_cell_length_c	12.594509
_cell_angle_alpha	90.035198
_cell_angle_beta	90.011478
_cell_angle_gamma	90.025589
loop_
_atom_site_label
_atom_site_type_symbol
_atom_site_fract_x
_atom_site_fract_y
_atom_site_fract_z
Zn1	Zn	1.627166	-0.250659	0.601529
Zn2	Zn	1.627014	-0.355938	0.423529
Zn3	Zn	1.449170	-0.250679	0.423588
Zn4	Zn	1.449110	-0.355887	0.601489
O5	O	1.538115	-0.303291	0.512534
O6	O	1.776092	-0.264638	0.577908
O7	O	1.603385	-0.342005	0.274591
O8	O	1.472870	-0.162587	0.447234
O9	O	1.775980	-0.341986	0.447132
O10	O	1.603643	-0.162573	0.577966
O11	O	1.472723	-0.264672	0.274634
O12	O	1.300216	-0.264622	0.447196
O13	O	1.472767	-0.341899	0.750440
O14	O	1.300172	-0.341918	0.577899
O15	O	1.603585	-0.264589	0.750469
O16	O	1.603326	-0.444021	0.447094
O17	O	1.472620	-0.443983	0.577841
C18	C	1.261574	-0.303267	0.512550
C19	C	1.143269	-0.303272	0.512582
C20	C	1.074022	-0.345396	0.583534
C21	C	1.003237	-0.288001	0.609724
C22	C	1.003255	-0.360714	0.486368
C23	C	1.074041	-0.245847	0.538823
C24	C	1.074066	-0.318599	0.415422
C25	C	1.003312	-0.261164	0.441575
C26	C	1.537979	-0.466843	0.512480
C27	C	1.538019	-0.536811	0.512492
C28	C	1.606073	-0.569613	0.580613
C29	C	1.606111	-0.635355	0.580639
C30	C	1.538105	-0.668293	0.512526
C31	C	1.470037	-0.635483	0.444400
C32	C	1.469994	-0.569742	0.444383
N33	N	1.530063	-0.771559	0.419377
N34	N	1.530110	-0.834011	0.419396
C35	C	1.538229	-0.866368	0.512574
N36	N	1.546320	-0.833914	0.605735
N37	N	1.546278	-0.771457	0.605714
C38	C	1.538144	-0.739579	0.512537
C39	C	1.606328	-0.970455	0.580729
C40	C	1.606358	-1.036199	0.580757
C41	C	1.470290	-1.036326	0.444508
C42	C	1.470255	-0.970583	0.444490
C43	C	1.538279	-0.937652	0.512599
C44	C	1.815736	-0.303315	0.512518
C45	C	1.934041	-0.303326	0.512511
C46	C	1.538186	-0.303236	0.790155
C47	C	1.538217	-0.303212	0.908460
C48	C	1.538280	-0.139101	0.512611
C49	C	1.538350	-0.069133	0.512644
C50	C	1.538105	-0.303300	0.235993
C51	C	1.538281	-0.303147	0.117688
C52	C	1.467087	-0.345238	0.977698
C53	C	1.564202	-0.360622	1.048468
C54	C	1.441178	-0.287790	1.048489
C55	C	1.635382	-0.318627	0.977673
C56	C	1.512292	-0.245768	0.977687
C57	C	1.609474	-0.261131	1.048426
H58	H	1.105073	-0.380949	0.643613
O59	O	0.966617	-0.218690	0.369827
C60	C	1.004275	-0.234407	0.267802
H61	H	1.079198	-0.264081	0.275426
H62	H	0.940843	-0.262220	0.223476
C63	C	0.937863	-0.137472	0.196570
C64	C	1.029891	-0.173914	0.205934
H65	H	0.953661	-0.100158	0.158404
H66	H	0.912489	-0.126884	0.265305
H67	H	0.885012	-0.160657	0.159634
H68	H	1.082736	-0.150733	0.242881
H69	H	1.055275	-0.184497	0.137204
H70	H	1.406983	-0.380832	0.946643
O71	O	0.966156	-0.272663	0.707771
C72	C	1.002193	-0.317154	0.782379
H73	H	1.022069	-0.362953	0.739913
H74	H	1.076241	-0.298443	0.823787
C75	C	0.890272	-0.272911	0.917459
C76	C	0.914675	-0.329164	0.865304
H77	H	0.836290	-0.280318	0.968615
H78	H	0.865995	-0.242935	0.867197
H79	H	0.951985	-0.257324	0.951958
H80	H	0.852966	-0.344746	0.830796
H81	H	0.938940	-0.359144	0.915563
O82	O	1.111022	-0.187943	0.565535
C83	C	1.173317	-0.192422	0.658246
H84	H	1.149779	-0.236320	0.704358
H85	H	1.260784	-0.195408	0.635515
C86	C	1.183918	-0.080063	0.671301
C87	C	1.155002	-0.133977	0.727941
H88	H	1.172625	-0.044011	0.714290
H89	H	1.141952	-0.077045	0.608837
H90	H	1.256806	-0.082561	0.652362
H91	H	1.082113	-0.131483	0.746867
H92	H	1.196955	-0.136994	0.790410
H93	H	1.414664	-0.662306	0.388944
H94	H	1.490302	-0.197230	0.946572
O95	O	1.672279	-0.667293	0.646669
C96	C	1.741100	-0.705301	0.586129
H97	H	1.703607	-0.715207	0.505444
H98	H	1.819964	-0.679928	0.574480
C99	C	1.806440	-0.755543	0.743822
C100	C	1.760386	-0.767715	0.644727
H101	H	1.818341	-0.794042	0.779970
H102	H	1.760077	-0.729934	0.784611
H103	H	1.872155	-0.734398	0.734101
H104	H	1.694666	-0.788852	0.654450
H105	H	1.806738	-0.793328	0.603942
O106	O	1.111168	-0.334168	0.317495
C107	C	1.073513	-0.394277	0.289348
H108	H	1.052479	-0.421579	0.364284
H109	H	0.999849	-0.389332	0.237407
C110	C	1.186139	-0.396205	0.135501
C111	C	1.160312	-0.429739	0.227540
H112	H	1.239678	-0.418080	0.097371
H113	H	1.211505	-0.355708	0.154461
H114	H	1.124745	-0.392087	0.092230
H115	H	1.221703	-0.433850	0.270815
H116	H	1.134958	-0.470238	0.208585
H117	H	1.669722	-0.225563	1.079285
H118	H	1.661776	-1.062905	0.636234
O119	O	1.403852	-0.537973	0.378103
C120	C	1.343810	-0.581138	0.318011
H121	H	1.387434	-0.627982	0.314370
H122	H	1.262956	-0.588149	0.356931
C123	C	1.274934	-0.498005	0.209182
C124	C	1.328519	-0.555539	0.204703
H125	H	1.265497	-0.482214	0.139290
H126	H	1.315383	-0.468923	0.249670
H127	H	1.207562	-0.503855	0.241621
H128	H	1.395895	-0.549686	0.172278
H129	H	1.288082	-0.584619	0.164208
O130	O	1.404188	-0.938619	0.378408
C131	C	1.418752	-0.873532	0.392978
H132	H	1.453559	-0.864498	0.475144
H133	H	1.475457	-0.854877	0.329883
C134	C	1.268291	-0.850931	0.282216
C135	C	1.311034	-0.839836	0.383137
H136	H	1.201848	-0.830144	0.276141
H137	H	1.258481	-0.894781	0.272396
H138	H	1.315556	-0.835385	0.229648
H139	H	1.263777	-0.855388	0.435702
H140	H	1.320834	-0.795987	0.392966
O141	O	1.672422	-0.938558	0.647001
C142	C	1.732507	-0.981612	0.707128
H143	H	1.688939	-1.028494	0.710785
H144	H	1.813376	-0.988581	0.668225
C145	C	1.801261	-0.898313	0.815924
C146	C	1.747746	-0.955894	0.820424
H147	H	1.810667	-0.882449	0.885809
H148	H	1.760785	-0.869307	0.775414
H149	H	1.868647	-0.904129	0.783501
H150	H	1.680358	-0.950077	0.852835
H151	H	1.788212	-0.984899	0.860943
H152	H	1.359087	-0.274772	1.079596
H153	H	1.586164	-0.409174	1.079559
O154	O	1.671995	-0.537557	0.646834
C155	C	1.611333	-0.499543	0.715547
H156	H	1.530686	-0.489748	0.677946
H157	H	1.599610	-0.524853	0.794419
C158	C	1.768899	-0.449090	0.781041
C159	C	1.669850	-0.437055	0.734854
H160	H	1.804995	-0.410546	0.792955
H161	H	1.809768	-0.474703	0.734751
H162	H	1.759115	-0.470184	0.846762
H163	H	1.679635	-0.415969	0.669128
H164	H	1.628983	-0.411438	0.781133
H165	H	0.972156	-0.409270	0.464229
H166	H	1.414912	-1.063143	0.389055
H167	H	1.717497	-0.331699	0.946697
