data_functionalizedCrystal
_audit_creation_method	'MofGen! by Chris Wilmer'
_symmetry_space_group_name_H-M	'P1'
_symmetry_Int_Tables_number	1
_symmetry_cell_setting	triclinic
loop_
_symmetry_equiv_pos_as_xyz
  x,y,z
_cell_length_a	19.288840
_cell_length_b	19.288857
_cell_length_c	18.366186
_cell_angle_alpha	89.991598
_cell_angle_beta	89.983729
_cell_angle_gamma	83.129562
loop_
_atom_site_label
_atom_site_type_symbol
_atom_site_fract_x
_atom_site_fract_y
_atom_site_fract_z
O1	O	0.921361	0.086566	-0.060675
O2	O	1.421361	0.586566	0.439325
O3	O	0.719098	0.098273	-0.060650
O4	O	1.219098	0.598273	0.439350
O5	O	0.826077	-0.008712	-0.060654
O6	O	1.326077	0.491288	0.439346
O7	O	0.814383	0.193551	-0.060670
O8	O	1.314383	0.693551	0.439330
O9	O	0.826059	-0.008717	0.060445
O10	O	1.326059	0.491283	0.560445
O11	O	0.719080	0.098268	0.060449
O12	O	1.219080	0.598268	0.560449
O13	O	0.921343	0.086561	0.060425
O14	O	1.421343	0.586561	0.560425
Zn15	Zn	0.820209	0.092414	0.079664
Zn16	Zn	1.320209	0.592414	0.579664
Zn17	Zn	0.820233	0.092420	-0.079889
Zn18	Zn	1.320233	0.592420	0.420111
O19	O	0.814364	0.193546	0.060429
O20	O	1.314364	0.693546	0.560429
C21	C	0.693212	0.097897	-0.000097
C22	C	1.193212	0.597897	0.499903
C23	C	0.616108	0.096775	-0.000087
C24	C	1.116108	0.596775	0.499913
C25	C	0.579914	0.096238	-0.066100
C26	C	1.079914	0.596238	0.433900
C27	C	0.507467	0.095176	-0.066109
C28	C	1.007467	0.595176	0.433891
C29	C	0.471219	0.094637	-0.000101
C30	C	0.971219	0.594637	0.499899
C31	C	0.507420	0.095177	0.065921
C32	C	1.007420	0.595177	0.565921
C33	C	0.579865	0.096246	0.065928
C34	C	1.079865	0.596246	0.565928
C35	C	0.361885	0.052256	0.050464
C36	C	0.861885	0.552256	0.550464
C37	C	0.289442	0.051183	0.050454
C38	C	0.789442	0.551183	0.550454
C39	C	0.247775	0.091342	-0.000120
C40	C	0.747775	0.591342	0.499880
C41	C	0.278561	0.132566	-0.050696
C42	C	0.778561	0.632566	0.449304
C43	C	0.351006	0.133635	-0.050689
C44	C	0.851006	0.633635	0.449311
C45	C	0.392665	0.093478	-0.000101
C46	C	0.892665	0.593478	0.499899
C47	C	0.133026	0.089656	-0.066147
C48	C	0.633026	0.589656	0.433853
C49	C	0.060577	0.088598	-0.066153
C50	C	0.560577	0.588598	0.433847
C51	C	0.060533	0.088591	0.065879
C52	C	0.560533	0.588591	0.565879
C53	C	0.132979	0.089656	0.065883
C54	C	0.632979	0.589656	0.565883
C55	C	0.169222	0.090185	-0.000132
C56	C	0.669222	0.590185	0.499868
C57	C	0.825693	-0.034591	-0.000104
C58	C	1.325693	0.465409	0.499896
C59	C	0.824566	-0.111695	-0.000102
C60	C	1.324566	0.388305	0.499898
C61	C	0.824050	-0.147902	-0.066113
C62	C	1.324050	0.352098	0.433887
C63	C	0.822981	-0.220348	-0.066118
C64	C	1.322981	0.279652	0.433882
C65	C	0.822442	-0.256585	-0.000108
C66	C	1.322442	0.243415	0.499892
C67	C	0.822954	-0.220368	0.065912
C68	C	1.322954	0.279632	0.565912
C69	C	0.824016	-0.147923	0.065915
C70	C	1.324016	0.352077	0.565915
C71	C	0.861437	-0.376823	0.050454
C72	C	1.361437	0.123177	0.550454
C73	C	0.860379	-0.449267	0.050448
C74	C	1.360379	0.050733	0.550448
C75	C	0.819164	-0.480031	-0.000116
C76	C	1.319164	0.019969	0.499884
C77	C	0.779016	-0.438342	-0.050687
C78	C	1.279016	0.061658	0.449313
C79	C	0.780078	-0.365897	-0.050683
C80	C	1.280078	0.134103	0.449317
C81	C	0.821291	-0.335140	-0.000105
C82	C	1.321291	0.164860	0.499895
C83	C	0.817489	-0.594793	-0.066138
C84	C	1.317489	-0.094793	0.433862
C85	C	0.816415	-0.667239	-0.066140
C86	C	1.316415	-0.167239	0.433860
C87	C	0.816396	-0.667259	0.065891
C88	C	1.316396	-0.167259	0.565891
C89	C	0.817462	-0.594813	0.065892
C90	C	1.317462	-0.094813	0.565892
C91	C	0.818012	-0.558585	-0.000125
C92	C	1.318012	-0.058585	0.499875
C93	C	0.947229	0.086937	-0.000130
C94	C	1.447229	0.586937	0.499870
C95	C	1.024334	0.088059	-0.000144
C96	C	1.524334	0.588059	0.499856
C97	C	0.814749	0.219425	-0.000123
C98	C	1.314749	0.719425	0.499877
C99	C	0.815876	0.296528	-0.000130
C100	C	1.315876	0.796528	0.499870
N101	N	0.820198	0.092408	0.188555
N102	N	1.320198	0.592408	0.688555
N103	N	0.820249	0.092420	-0.188781
N104	N	1.320249	0.592420	0.311219
C105	C	0.867583	0.045059	0.226654
C106	C	1.367583	0.545059	0.726654
C107	C	0.867588	0.045056	0.302882
C108	C	1.367588	0.545056	0.802882
C109	C	0.820213	0.092414	0.341008
C110	C	1.320213	0.592414	0.841008
C111	C	0.772818	0.139767	0.302900
C112	C	1.272818	0.639767	0.802900
C113	C	0.772811	0.139765	0.226674
C114	C	1.272811	0.639765	0.726674
C115	C	0.810913	0.155703	0.461764
C116	C	1.310913	0.655703	0.961764
C117	C	0.810925	0.155707	0.537989
C118	C	1.310925	0.655707	1.037989
C119	C	0.820233	0.092423	0.576116
C120	C	1.320233	0.592423	1.076116
C121	C	0.829542	0.029132	0.538008
C122	C	1.329542	0.529132	1.038008
C123	C	0.829534	0.029129	0.461781
C124	C	1.329534	0.529129	0.961781
C125	C	0.820216	0.092422	0.423663
C126	C	1.320216	0.592422	0.923663
C127	C	0.867626	0.045066	0.696869
C128	C	1.367626	0.545066	1.196869
C129	C	0.867625	0.045062	0.773098
C130	C	1.367625	0.545062	1.273098
C131	C	0.772859	0.139780	0.773116
C132	C	1.272859	0.639780	1.273116
C133	C	0.772856	0.139778	0.696888
C134	C	1.272856	0.639778	1.196888
C135	C	0.820243	0.092422	0.658769
C136	C	1.320243	0.592422	1.158769
H137	H	0.477902	0.094739	0.119665
H138	H	0.977902	0.594739	0.619665
O139	O	0.822336	-0.255629	0.129988
O140	O	1.322336	0.244371	0.629988
C141	C	0.761570	-0.289459	0.133949
C142	C	1.261570	0.210541	0.633949
H143	H	0.741371	-0.297617	0.076634
H144	H	1.241371	0.202383	0.576634
H145	H	0.774345	-0.342220	0.161886
H146	H	1.274345	0.157780	0.661886
H147	H	0.719856	-0.255899	0.166528
H148	H	1.219856	0.244101	0.666528
O149	O	0.801973	0.217138	0.424648
O150	O	1.301973	0.717138	0.924648
C151	C	0.860918	0.222585	0.380545
C152	C	1.360918	0.722585	0.880545
H153	H	0.888830	0.168189	0.369131
H154	H	1.388830	0.668189	0.869131
H155	H	0.843596	0.248991	0.326941
H156	H	1.343596	0.748991	0.826941
H157	H	0.897992	0.254980	0.409898
H158	H	1.397992	0.754980	0.909898
H159	H	0.734273	0.178337	0.665866
H160	H	1.234273	0.678337	1.165866
O161	O	0.818154	-0.559590	-0.130249
O162	O	1.318154	-0.059590	0.369751
C163	C	0.878915	-0.525748	-0.134189
C164	C	1.378915	-0.025748	0.365811
H165	H	0.920612	-0.553221	-0.096717
H166	H	1.420612	-0.053221	0.403283
H167	H	0.899139	-0.527641	-0.192571
H168	H	1.399139	-0.027641	0.307429
H169	H	0.866128	-0.469018	-0.116465
H170	H	1.366128	0.030982	0.383535
H171	H	0.803350	0.207242	0.569011
H172	H	1.303350	0.707242	1.069011
O173	O	0.824427	-0.112758	-0.130280
O174	O	1.324427	0.387242	0.369720
C175	C	0.764025	-0.122461	-0.170394
C176	C	1.264025	0.377539	0.329606
H177	H	0.721713	-0.136728	-0.131724
H178	H	1.221713	0.363272	0.368276
H179	H	0.744510	-0.072138	-0.200373
H180	H	1.244510	0.427862	0.299627
H181	H	0.777007	-0.166362	-0.211522
H182	H	1.277007	0.333638	0.288478
H183	H	0.734244	0.178326	0.333947
H184	H	1.234244	0.678326	0.833947
H185	H	0.734223	0.178323	0.195654
H186	H	1.234223	0.678323	0.695654
H187	H	0.477992	0.094741	-0.119867
H188	H	0.977992	0.594741	0.380133
H189	H	0.264382	0.017613	0.091633
H190	H	0.764382	0.517613	0.591633
H191	H	0.815992	-0.696718	-0.119897
H192	H	1.315992	-0.196718	0.380103
H193	H	0.609418	0.096669	-0.119855
H194	H	1.109418	0.596669	0.380145
O195	O	0.913652	-0.000847	0.339978
O196	O	1.413652	0.499153	0.839978
C197	C	0.956395	0.036247	0.384029
C198	C	1.456395	0.536247	0.884029
H199	H	0.928554	0.090671	0.395449
H200	H	1.428554	0.590671	0.895449
H201	H	0.967485	0.007228	0.437633
H202	H	1.467485	0.507228	0.937633
H203	H	1.007708	0.040835	0.354628
H204	H	1.507708	0.540835	0.854628
H205	H	0.031020	0.088156	0.119624
H206	H	0.531020	0.588156	0.619624
H207	H	0.376068	0.167203	-0.091868
H208	H	0.876068	0.667203	0.408132
H209	H	0.244637	0.165271	-0.091876
H210	H	0.744637	0.665271	0.408124
O211	O	0.913581	-0.001014	0.659844
O212	O	1.413581	0.498986	1.159844
C213	C	0.902548	-0.069759	0.678464
C214	C	1.402548	0.430241	1.178464
H215	H	0.846951	-0.069979	0.699455
H216	H	1.346951	0.430021	1.199455
H217	H	0.910639	-0.104612	0.628316
H218	H	1.410639	0.395388	1.128316
H219	H	0.941133	-0.090277	0.722677
H220	H	1.441133	0.409723	1.222677
H221	H	0.162536	0.090094	-0.119900
H222	H	0.662536	0.590094	0.380100
O223	O	0.025352	0.087984	-0.130235
O224	O	0.525352	0.587984	0.369765
C225	C	-0.008474	0.027216	-0.134187
C226	C	0.491526	0.527216	0.365813
H227	H	-0.016658	0.007008	-0.076869
H228	H	0.483342	0.507008	0.423131
H229	H	-0.061222	0.039994	-0.162132
H230	H	0.438778	0.539994	0.337868
H231	H	0.025103	-0.014490	-0.166755
H232	H	0.525103	0.485510	0.333245
H233	H	0.893073	-0.483205	0.091623
H234	H	1.393073	0.016795	0.591623
O235	O	0.913563	-0.001006	0.810141
O236	O	1.413563	0.498994	1.310141
C237	C	0.876514	-0.043754	0.854268
C238	C	1.376514	0.456246	1.354268
H239	H	0.821741	-0.044789	0.831318
H240	H	1.321741	0.455211	1.331318
H241	H	0.905035	-0.099037	0.855130
H242	H	1.405035	0.400963	1.355130
H243	H	0.872806	-0.022007	0.912037
H244	H	1.372806	0.477993	1.412037
H245	H	0.162449	0.090088	0.119638
H246	H	0.662449	0.590088	0.619638
O247	O	0.824549	-0.112859	0.130107
O248	O	1.324549	0.387141	0.630107
C249	C	0.823821	-0.160370	0.188371
C250	C	1.323821	0.339630	0.688371
H251	H	0.845052	-0.214957	0.169016
H252	H	1.345052	0.285043	0.669016
H253	H	0.857834	-0.143965	0.234538
H254	H	1.357834	0.356035	0.734538
H255	H	0.767991	-0.160608	0.208671
H256	H	1.267991	0.339392	0.708671
H257	H	0.894998	-0.351781	0.091635
H258	H	1.394998	0.148219	0.591635
H259	H	0.906167	0.006497	0.195620
H260	H	1.406167	0.506497	0.695620
O261	O	0.817880	-0.559703	0.130063
O262	O	1.317880	-0.059703	0.630063
C263	C	0.757464	-0.569335	0.170225
C264	C	1.257464	-0.069335	0.670225
H265	H	0.736641	-0.619242	0.151455
H266	H	1.236641	-0.119242	0.651455
H267	H	0.770949	-0.573639	0.230613
H268	H	1.270949	-0.073639	0.730613
H269	H	0.715949	-0.522913	0.161084
H270	H	1.215949	-0.022913	0.661084
H271	H	0.837113	-0.022404	0.430757
H272	H	1.337113	0.477596	0.930757
O273	O	0.815765	-0.702507	0.129972
O274	O	1.315765	-0.202507	0.629972
C275	C	0.754990	-0.736324	0.133927
C276	C	1.254990	-0.236324	0.633927
H277	H	0.734800	-0.744488	0.076610
H278	H	1.234800	-0.244488	0.576610
H279	H	0.767750	-0.789082	0.161875
H280	H	1.267750	-0.289082	0.661875
H281	H	0.713276	-0.702751	0.166494
H282	H	1.213276	-0.202751	0.666494
O283	O	0.838460	-0.032336	0.575061
O284	O	1.338460	0.467664	1.075061
C285	C	0.779531	-0.037784	0.619189
C286	C	1.279531	0.462216	1.119189
H287	H	0.732662	-0.003032	0.596233
H288	H	1.232662	0.496968	1.096233
H289	H	0.767795	-0.094316	0.620062
H290	H	1.267795	0.405684	1.120062
H291	H	0.790486	-0.020411	0.676955
H292	H	1.290486	0.479589	1.176955
H293	H	0.395805	0.019552	0.091650
H294	H	0.895805	0.519552	0.591650
O295	O	0.614925	0.096730	0.130121
O296	O	1.114925	0.596730	0.630121
C297	C	0.567397	0.096047	0.188383
C298	C	1.067397	0.596047	0.688383
H299	H	0.518709	0.073304	0.169028
H300	H	1.018709	0.573304	0.669028
H301	H	0.592834	0.062637	0.234556
H302	H	1.092834	0.562637	0.734556
H303	H	0.552216	0.151645	0.208676
H304	H	1.052216	0.651645	0.708676
H305	H	0.747386	-0.331956	-0.091858
H306	H	1.247386	0.168044	0.408142
O307	O	0.822569	-0.255608	-0.130205
O308	O	1.322569	0.244392	0.369795
C309	C	0.882107	-0.305564	-0.134181
C310	C	1.382107	0.194436	0.365819
H311	H	0.901990	-0.319126	-0.076871
H312	H	1.401990	0.180874	0.423129
H313	H	0.867837	-0.354684	-0.162131
H314	H	1.367837	0.145316	0.337869
H315	H	0.924637	-0.283279	-0.166755
H316	H	1.424637	0.216721	0.333245
O317	O	0.739053	-0.468192	-0.099903
O318	O	1.239053	0.031808	0.400097
C319	C	0.760629	-0.453325	-0.170986
C320	C	1.260629	0.046675	0.329014
H321	H	0.816935	-0.440927	-0.169585
H322	H	1.316935	0.059073	0.330415
H323	H	0.756933	-0.500559	-0.207457
H324	H	1.256933	-0.000559	0.292543
H325	H	0.725465	-0.406467	-0.193394
H326	H	1.225465	0.093533	0.306606
O327	O	0.726904	0.185756	0.810255
O328	O	1.226904	0.685756	1.310255
C329	C	0.737056	0.175592	0.885705
C330	C	1.237056	0.675592	1.385705
H331	H	0.792362	0.149489	0.896101
H332	H	1.292362	0.649489	1.396101
H333	H	0.729160	0.228216	0.914669
H334	H	1.229160	0.728216	1.414669
H335	H	0.697858	0.140856	0.907357
H336	H	1.197858	0.640856	1.407357
