data_functionalizedCrystal
_audit_creation_method	'MofGen! by Chris Wilmer'
_symmetry_space_group_name_H-M	'P1'
_symmetry_Int_Tables_number	1
_symmetry_cell_setting	triclinic
loop_
_symmetry_equiv_pos_as_xyz
  x,y,z
_cell_length_a	10.967819
_cell_length_b	11.026607
_cell_length_c	16.776229
_cell_angle_alpha	89.996140
_cell_angle_beta	77.863565
_cell_angle_gamma	96.381100
loop_
_atom_site_label
_atom_site_type_symbol
_atom_site_fract_x
_atom_site_fract_y
_atom_site_fract_z
O1	O	1.694057	0.170567	-0.298998
O2	O	1.334416	0.186880	-0.249596
O3	O	1.484430	0.001822	-0.270200
O4	O	1.544043	0.355625	-0.278394
O5	O	1.484402	0.001810	-0.137619
O6	O	1.334388	0.186868	-0.117015
O7	O	1.694029	0.170555	-0.166418
Zn8	Zn	1.514204	0.178710	-0.120667
Zn9	Zn	1.514241	0.178725	-0.295347
O10	O	1.544015	0.355614	-0.145814
C11	C	1.287644	0.185685	-0.176883
C12	C	1.148318	0.182128	-0.157744
C13	C	0.942224	0.176884	-0.198127
C14	C	1.086224	0.180552	-0.217903
C15	C	1.473418	-0.043487	-0.202400
C16	C	1.440634	-0.178475	-0.197899
C17	C	1.531157	-0.251525	-0.210335
C18	C	1.497275	-0.391042	-0.205684
C19	C	1.740801	0.171750	-0.239133
C20	C	1.880127	0.175308	-0.258277
C21	C	1.555027	0.400922	-0.213616
C22	C	1.587811	0.535910	-0.218122
N23	N	1.514188	0.178699	-0.001453
N24	N	1.514265	0.178727	-0.414562
C25	C	1.580648	0.096789	0.031136
C26	C	1.580654	0.096788	0.114587
C27	C	1.514208	0.178704	0.165447
C28	C	1.447740	0.260617	0.132853
C29	C	1.447726	0.260611	0.049404
C30	C	1.447790	0.260642	0.469393
C31	C	1.447812	0.260644	0.552847
C32	C	1.580718	0.096818	0.534576
C33	C	1.580705	0.096812	0.451127
C34	C	1.514232	0.178721	0.418542
C35	C	1.514224	0.178720	0.328054
C36	C	1.514223	0.178712	0.255932
H37	H	1.139664	0.181925	-0.284044
O38	O	0.943838	0.177154	-0.337196
C39	C	0.921409	0.281440	-0.378118
H40	H	0.891952	0.353983	-0.331817
H41	H	0.843384	0.255745	-0.412527
C42	C	1.078283	0.242977	-0.495749
C43	C	1.042113	0.332079	-0.438882
H44	H	1.152736	0.274211	-0.533234
H45	H	1.093391	0.172714	-0.468181
H46	H	1.013252	0.221572	-0.524415
H47	H	1.107137	0.353471	-0.410210
H48	H	1.027019	0.402346	-0.466447
O49	O	1.374947	-0.439837	-0.188848
C50	C	1.368349	-0.568274	-0.187966
H51	H	1.459271	-0.597120	-0.175356
H52	H	1.354425	-0.603623	-0.249659
C53	C	1.145457	-0.586426	-0.136188
C54	C	1.257125	-0.621855	-0.120694
H55	H	1.076846	-0.619480	-0.094694
H56	H	1.149900	-0.499896	-0.136785
H57	H	1.133871	-0.615886	-0.187601
H58	H	1.268717	-0.592383	-0.069287
H59	H	1.252681	-0.708383	-0.120087
H60	H	1.633741	-0.210777	-0.224422
O61	O	1.710159	-0.415357	-0.235034
C62	C	1.734532	-0.342798	-0.307054
H63	H	1.643040	-0.312153	-0.317378
H64	H	1.777347	-0.398294	-0.361015
C65	C	1.939281	-0.267605	-0.286206
C66	C	1.826911	-0.229959	-0.298882
H67	H	1.996269	-0.198003	-0.281168
H68	H	1.922864	-0.316493	-0.237686
H69	H	1.974944	-0.313853	-0.331176
H70	H	1.791242	-0.183725	-0.253907
H71	H	1.843324	-0.181060	-0.347394
O72	O	1.318184	-0.226873	-0.181116
C73	C	1.240594	-0.131863	-0.170435
H74	H	1.294885	-0.045360	-0.202989
H75	H	1.209808	-0.114267	-0.102602
C76	C	1.057408	-0.274947	-0.166442
C77	C	1.124086	-0.168704	-0.206431
H78	H	0.985537	-0.297672	-0.188643
H79	H	1.109681	-0.338958	-0.173635
H80	H	1.031765	-0.260269	-0.109917
H81	H	1.149741	-0.183388	-0.262953
H82	H	1.071815	-0.104696	-0.199248
H83	H	1.634762	0.030089	-0.010271
O84	O	1.645341	0.017190	0.146103
C85	C	1.703974	-0.055120	0.083320
H86	H	1.716553	-0.005264	0.022099
H87	H	1.643112	-0.145814	0.082823
C88	C	1.817793	-0.140175	0.173302
C89	C	1.833253	-0.078937	0.098110
H90	H	1.897536	-0.154872	0.182426
H91	H	1.778288	-0.091462	0.215601
H92	H	1.767071	-0.215746	0.172879
H93	H	1.883961	-0.003361	0.098538
H94	H	1.872769	-0.127638	0.055811
H95	H	1.634840	0.030120	0.561117
H96	H	1.634817	0.030113	0.409718
H97	H	1.393699	0.327351	0.594257
H98	H	1.393669	0.327336	0.442868
H99	H	1.393606	0.327309	0.022872
O100	O	1.383303	0.340146	0.182364
C101	C	1.397542	0.322572	0.263011
H102	H	1.486743	0.278019	0.262145
H103	H	1.313083	0.260963	0.298312
C104	C	1.297131	0.501502	0.305650
C105	C	1.406695	0.446791	0.304587
H106	H	1.302771	0.578124	0.331299
H107	H	1.287533	0.513340	0.251318
H108	H	1.226760	0.450149	0.335067
H109	H	1.477061	0.498136	0.275162
H110	H	1.416305	0.434964	0.358915
H111	H	0.888781	0.175524	-0.131990
H112	H	1.094881	0.180769	-0.091602
