data_functionalizedCrystal
_audit_creation_method	'MofGen! by Chris Wilmer'
_symmetry_space_group_name_H-M	'P1'
_symmetry_Int_Tables_number	1
_symmetry_cell_setting	triclinic
loop_
_symmetry_equiv_pos_as_xyz
  x,y,z
_cell_length_a	16.120490
_cell_length_b	16.120256
_cell_length_c	13.897448
_cell_angle_alpha	87.124785
_cell_angle_beta	92.889889
_cell_angle_gamma	90.129807
loop_
_atom_site_label
_atom_site_type_symbol
_atom_site_fract_x
_atom_site_fract_y
_atom_site_fract_z
Zn1	Zn	1.247489	-0.534543	0.488787
Zn2	Zn	1.747489	-0.034543	0.988787
Zn3	Zn	1.254453	-0.395487	0.642339
Zn4	Zn	1.754453	0.104513	1.142339
Zn5	Zn	1.115477	-0.388463	0.472474
Zn6	Zn	1.615477	0.111537	0.972474
Zn7	Zn	1.108409	-0.527460	0.641447
Zn8	Zn	1.608409	-0.027460	1.141447
O9	O	1.181457	-0.461488	0.561262
O10	O	1.681457	0.038512	1.061262
O11	O	1.364780	-0.522000	0.516357
O12	O	1.864780	-0.022000	1.016357
O13	O	1.241891	-0.278189	0.613353
O14	O	1.741891	0.221811	1.113353
O15	O	1.133033	-0.407866	0.339660
O16	O	1.633033	0.092134	0.839660
O17	O	1.369897	-0.419836	0.629171
O18	O	1.869897	0.080164	1.129171
O19	O	1.230021	-0.515190	0.351646
O20	O	1.730021	-0.015190	0.851646
O21	O	1.139786	-0.273029	0.488554
O22	O	1.639786	0.226971	0.988554
O23	O	0.998172	-0.400998	0.487688
O24	O	1.498172	0.099002	0.987688
O25	O	1.120985	-0.644766	0.627650
O26	O	1.620985	-0.144766	1.127650
O27	O	0.992979	-0.503118	0.611831
O28	O	1.492979	-0.003118	1.111831
O29	O	1.223167	-0.649970	0.515491
O30	O	1.723167	-0.149970	1.015491
O31	O	1.235037	-0.412968	0.777199
O32	O	1.735037	0.087032	1.277199
O33	O	1.127738	-0.509928	0.776543
O34	O	1.627738	-0.009928	1.276543
C35	C	0.965403	-0.450528	0.547893
C36	C	1.465403	0.049472	1.047893
C37	C	0.872973	-0.445859	0.542198
C38	C	1.372973	0.054141	1.042198
C39	C	0.660015	-0.485709	0.590795
C40	C	1.160015	0.014291	1.090795
C41	C	0.703747	-0.437333	0.531810
C42	C	1.203747	0.062667	1.031810
C43	C	0.797913	-0.442078	0.537592
C44	C	1.297913	0.057922	1.037592
C45	C	0.565841	-0.480965	0.585014
C46	C	1.065841	0.019035	1.085014
C47	C	1.170511	-0.678384	0.573291
C48	C	1.670511	-0.178384	1.073291
C49	C	1.165846	-0.770812	0.578417
C50	C	1.665846	-0.270812	1.078417
C51	C	1.205781	-0.983794	0.534506
C52	C	1.705781	-0.483794	1.034506
C53	C	1.157302	-0.940032	0.587734
C54	C	1.657302	-0.440032	1.087734
C55	C	1.162057	-0.845869	0.582548
C56	C	1.662057	-0.345869	1.082548
C57	C	1.201027	-1.077966	0.539690
C58	C	1.701027	-0.577966	1.039690
C59	C	1.398355	-0.472492	0.574683
C60	C	1.898355	0.027508	1.074683
C61	C	1.490784	-0.477181	0.580403
C62	C	1.990784	0.022819	1.080403
C63	C	1.181398	-0.461461	0.811871
C64	C	1.681398	0.038539	1.311871
C65	C	1.181447	-0.461481	0.919089
C66	C	1.681447	0.038519	1.419089
C67	C	1.192409	-0.245439	0.549213
C68	C	1.692409	0.254561	1.049213
C69	C	1.197234	-0.153020	0.543826
C70	C	1.697234	0.346980	1.043826
C71	C	1.181539	-0.461535	0.309676
C72	C	1.681539	0.038465	0.809676
C73	C	1.181573	-0.461555	0.202466
C74	C	1.681573	0.038445	0.702466
C75	C	1.181532	-0.461538	1.115392
C76	C	1.681532	0.038462	1.615392
C77	C	1.181482	-0.461509	1.006155
C78	C	1.681482	0.038491	1.506155
H79	H	0.670467	-0.392353	0.476969
H80	H	1.170467	0.107647	0.976969
H81	H	1.112221	-0.973285	0.637192
H82	H	1.612221	-0.473285	1.137192
O83	O	1.259540	-0.944002	0.475588
O84	O	1.759540	-0.444002	0.975588
C85	C	1.252370	-0.857482	0.483460
C86	C	1.752370	-0.357482	0.983460
H87	H	1.225682	-0.844343	0.555575
H88	H	1.725682	-0.344343	1.055575
H89	H	1.209333	-0.830573	0.422171
H90	H	1.709333	-0.330573	0.922171
C91	C	1.371501	-0.833206	0.388863
C92	C	1.871501	-0.333206	0.888863
C93	C	1.338729	-0.817069	0.477440
C94	C	1.838729	-0.317069	0.977440
H95	H	1.424770	-0.808276	0.385146
H96	H	1.924770	-0.308276	0.885146
H97	H	1.376331	-0.891496	0.383556
H98	H	1.876331	-0.391496	0.883556
H99	H	1.335629	-0.810782	0.337799
H100	H	1.835629	-0.310782	0.837799
H101	H	1.374596	-0.839502	0.528502
H102	H	1.874596	-0.339502	1.028502
H103	H	1.333908	-0.758781	0.482756
H104	H	1.833908	-0.258781	0.982756
O105	O	0.699801	-0.539408	0.656096
O106	O	1.199801	-0.039408	1.156096
C107	C	0.747336	-0.595696	0.607288
C108	C	1.247336	-0.095696	1.107288
H109	H	0.761713	-0.567122	0.533287
H110	H	1.261713	-0.067122	1.033287
H111	H	0.710833	-0.655691	0.598221
H112	H	1.210833	-0.155691	1.098221
C113	C	0.811493	-0.649831	0.757073
C114	C	1.311493	-0.149831	1.257073
C115	C	0.829156	-0.614733	0.666187
C116	C	1.329156	-0.114733	1.166187
H117	H	0.861962	-0.661578	0.793406
H118	H	1.361962	-0.161578	1.293406
H119	H	0.779466	-0.611912	0.789957
H120	H	1.279466	-0.111912	1.289957
H121	H	0.781071	-0.699824	0.749504
H122	H	1.281071	-0.199824	1.249504
H123	H	0.859568	-0.564737	0.673757
H124	H	1.359568	-0.064737	1.173757
H125	H	0.861191	-0.652645	0.633306
H126	H	1.361191	-0.152645	1.133306
