data_functionalizedCrystal
_audit_creation_method	'MofGen! by Chris Wilmer'
_symmetry_space_group_name_H-M	'P1'
_symmetry_Int_Tables_number	1
_symmetry_cell_setting	triclinic
loop_
_symmetry_equiv_pos_as_xyz
  x,y,z
_cell_length_a	10.686220
_cell_length_b	12.594516
_cell_length_c	10.685986
_cell_angle_alpha	85.593168
_cell_angle_beta	99.031303
_cell_angle_gamma	94.397503
loop_
_atom_site_label
_atom_site_type_symbol
_atom_site_fract_x
_atom_site_fract_y
_atom_site_fract_z
Zn1	Zn	1.885516	-0.264675	-0.569041
Zn2	Zn	2.385516	0.235325	-0.069041
Zn3	Zn	1.901643	-0.455391	-0.356815
Zn4	Zn	2.401643	0.044609	0.143185
Zn5	Zn	1.689515	-0.290118	-0.373072
Zn6	Zn	2.189515	0.209882	0.126928
Zn7	Zn	1.673240	-0.455315	-0.585259
Zn8	Zn	2.173240	0.044685	-0.085259
O9	O	1.787478	-0.366375	-0.471047
O10	O	2.287478	0.133625	0.028953
O11	O	2.065269	-0.279358	-0.527298
O12	O	2.565269	0.220642	-0.027298
O13	O	1.887064	-0.444146	-0.181353
O14	O	2.387064	0.055854	0.318647
O15	O	1.715576	-0.137792	-0.399085
O16	O	2.215576	0.362208	0.100915
O17	O	2.077118	-0.419476	-0.371376
O18	O	2.577118	0.080524	0.128624
O19	O	1.859577	-0.119100	-0.543062
O20	O	2.359577	0.380900	-0.043062
O21	O	1.731214	-0.322721	-0.193298
O22	O	2.231214	0.177279	0.306702
O23	O	1.509741	-0.322648	-0.414811
O24	O	2.009741	0.177352	0.085189
O25	O	1.687838	-0.419347	-0.760726
O26	O	2.187838	0.080653	-0.260726
O27	O	1.497784	-0.444018	-0.570703
O28	O	1.997784	0.055982	-0.070703
O29	O	1.843796	-0.279285	-0.748811
O30	O	2.343796	0.220715	-0.248811
O31	O	1.871283	-0.604332	-0.387102
O32	O	2.371283	-0.104332	0.112898
O33	O	1.703476	-0.604276	-0.554939
O34	O	2.203476	-0.104276	-0.054939
C35	C	1.457709	-0.386086	-0.496282
C36	C	1.957709	0.113914	0.003718
C37	C	1.316631	-0.394542	-0.507107
C38	C	1.816631	0.105458	-0.007107
C39	C	1.787396	-0.642922	-0.471041
C40	C	2.287396	-0.142922	0.028959
C41	C	1.787474	-0.761220	-0.471072
C42	C	2.287474	-0.261220	0.028928
C43	C	1.696200	-0.830486	-0.562299
C44	C	2.196200	-0.330486	-0.062299
C45	C	1.674147	-0.910130	-0.448847
C46	C	2.174147	-0.410130	0.051153
C47	C	1.809641	-0.892366	-0.584535
C48	C	2.309641	-0.392366	-0.084535
C49	C	1.765364	-0.839314	-0.357563
C50	C	2.265364	-0.339314	0.142437
C51	C	1.900906	-0.821535	-0.493324
C52	C	2.400906	-0.321535	0.006676
C53	C	1.878903	-0.901150	-0.379789
C54	C	2.378903	-0.401150	0.120211
C55	C	2.118535	-0.346588	-0.445714
C56	C	2.618535	0.153412	0.054286
C57	C	2.259611	-0.338155	-0.434919
C58	C	2.759611	0.161845	0.065081
C59	C	1.762203	-0.346470	-0.802110
C60	C	2.262203	0.153530	-0.302110
C61	C	1.751432	-0.337987	-0.943190
C62	C	2.251432	0.162013	-0.443190
C63	C	1.787593	-0.088745	-0.471078
C64	C	2.287593	0.411255	0.028922
C65	C	1.787642	0.029565	-0.471091
C66	C	2.287642	0.529565	0.028909
C67	C	1.812728	-0.386122	-0.141266
C68	C	2.312728	0.113878	0.358734
C69	C	1.823745	-0.394289	-0.000168
C70	C	2.323745	0.105711	0.499832
H71	H	1.318724	-0.283412	-0.364833
H72	H	1.818724	0.216588	0.135167
Cl73	Cl	1.932066	-0.478723	-0.908845
Cl74	Cl	2.432066	0.021277	-0.408845
H75	H	1.956169	-0.931985	-0.302567
H76	H	2.456169	-0.431985	0.197433
H77	H	1.257511	-0.449297	-0.577190
H78	H	1.757511	0.050703	-0.077190
H79	H	1.996729	-0.782889	-0.512183
H80	H	2.496729	-0.282889	-0.012183
Cl81	Cl	1.838484	-0.928803	-0.732665
Cl82	Cl	2.338484	-0.428803	-0.232665
Cl83	Cl	1.576850	-0.782591	-0.681265
Cl84	Cl	2.076850	-0.282591	-0.181265
H85	H	1.681289	-0.283295	-1.002338
H86	H	2.181289	0.216705	-0.502338
H87	H	1.578297	-0.948778	-0.430045
H88	H	2.078297	-0.448778	0.069955
H89	H	1.746571	-0.815854	-0.261599
H90	H	2.246571	-0.315854	0.238401
