data_functionalizedCrystal
_audit_creation_method	'MofGen! by Chris Wilmer'
_symmetry_space_group_name_H-M	'P1'
_symmetry_Int_Tables_number	1
_symmetry_cell_setting	triclinic
loop_
_symmetry_equiv_pos_as_xyz
  x,y,z
_cell_length_a	17.038272
_cell_length_b	17.038272
_cell_length_c	9.016244
_cell_angle_alpha	89.997742
_cell_angle_beta	89.998173
_cell_angle_gamma	91.111556
loop_
_atom_site_label
_atom_site_type_symbol
_atom_site_fract_x
_atom_site_fract_y
_atom_site_fract_z
O1	O	1.048758	0.170534	-0.123156
O2	O	0.820946	0.167826	-0.123200
O3	O	0.933498	0.055274	-0.123166
O4	O	0.936206	0.283086	-0.123189
O5	O	0.933481	0.055276	0.123514
O6	O	0.820929	0.167827	0.123481
O7	O	1.048741	0.170535	0.123525
Cu8	Cu	0.934833	0.169182	0.146027
Cu9	Cu	0.934854	0.169180	-0.145702
O10	O	0.936189	0.283087	0.123491
C11	C	0.791645	0.165364	0.000135
C12	C	0.704361	0.158016	0.000119
C13	C	0.658752	0.225479	0.000113
C14	C	0.576740	0.218570	0.000134
C15	C	0.540339	0.144197	0.000151
C16	C	0.585954	0.076728	0.000161
C17	C	0.667965	0.083638	0.000150
C18	C	0.292951	0.119787	0.000193
C19	C	0.210935	0.112882	0.000199
C20	C	0.201726	0.254725	0.000175
C21	C	0.283739	0.261628	0.000156
C22	C	0.329347	0.194159	0.000174
C23	C	0.456510	0.137133	0.000168
C24	C	0.413174	0.201224	0.000167
C25	C	0.931027	0.025982	0.000173
C26	C	0.923679	-0.061301	0.000172
C27	C	0.991142	-0.106911	0.000186
C28	C	0.984233	-0.188923	0.000171
C29	C	0.909860	-0.225324	0.000151
C30	C	0.842391	-0.179708	0.000132
C31	C	0.849301	-0.097698	0.000137
C32	C	0.885449	-0.472712	0.000126
C33	C	0.878545	-0.554728	0.000126
C34	C	1.020387	-0.563937	0.000161
C35	C	1.027291	-0.481924	0.000175
C36	C	0.959822	-0.436316	0.000148
C37	C	0.902796	-0.309153	0.000140
C38	C	0.966886	-0.352488	0.000149
C39	C	1.078042	0.172997	0.000187
C40	C	1.165326	0.180346	0.000193
C41	C	0.938660	0.312379	0.000148
C42	C	0.946008	0.399663	0.000141
N43	N	0.934824	0.169183	0.351213
N44	N	0.934868	0.169173	-0.350888
C45	C	0.874408	0.229165	0.586228
C46	C	0.874564	0.229412	0.414337
C47	C	1.017959	0.192532	0.413565
C48	C	1.017635	0.192963	0.585510
C49	C	0.912909	0.085690	0.585761
C50	C	0.911057	0.086116	0.413806
H51	H	0.426863	0.076578	0.000223
Cl52	Cl	1.047011	0.285769	0.347058
Cl53	Cl	1.046224	0.287219	0.647407
Cl54	Cl	0.816596	0.058950	0.350891
Cl55	Cl	0.809301	-0.354921	0.000108
H56	H	0.830511	-0.435587	0.000105
H57	H	1.064320	0.151282	0.627106
Cl58	Cl	0.764486	-0.040360	0.000113
H59	H	1.051705	-0.077279	0.000211
H60	H	0.313370	0.322190	0.000125
Cl61	Cl	0.779416	0.206742	0.349247
Cl62	Cl	1.069049	-0.246257	0.000193
H63	H	0.888830	0.290649	0.629417
H64	H	1.027441	-0.322847	0.000132
H65	H	0.951809	0.038960	0.370843
Cl66	Cl	0.980880	0.016662	0.648545
Cl67	Cl	1.089426	0.127219	0.350442
H68	H	0.781835	-0.209353	0.000107
H69	H	0.164583	0.309653	0.000164
Cl70	Cl	0.778985	0.206684	0.650084
Cl71	Cl	0.540193	-0.016770	0.000190
Cl72	Cl	1.120792	-0.436169	0.000151
H73	H	0.889149	0.291250	0.373186
Cl74	Cl	0.820882	0.053127	0.652773
H75	H	0.181300	0.052315	0.000210
Cl76	Cl	0.704505	0.318982	0.000083
H77	H	1.075316	-0.601079	0.000180
H78	H	0.539608	0.273507	0.000128
Cl79	Cl	0.785040	-0.600488	0.000111
Cl80	Cl	0.458937	0.294718	0.000152
H81	H	0.330076	0.064848	0.000209
H82	H	0.705099	0.028702	0.000154
