data_functionalizedCrystal
_audit_creation_method	'MofGen! by Chris Wilmer'
_symmetry_space_group_name_H-M	'P1'
_symmetry_Int_Tables_number	1
_symmetry_cell_setting	triclinic
loop_
_symmetry_equiv_pos_as_xyz
  x,y,z
_cell_length_a	17.699077
_cell_length_b	10.540491
_cell_length_c	16.776229
_cell_angle_alpha	90.005345
_cell_angle_beta	89.993415
_cell_angle_gamma	96.106879
loop_
_atom_site_label
_atom_site_type_symbol
_atom_site_fract_x
_atom_site_fract_y
_atom_site_fract_z
O1	O	1.005108	-0.160488	-0.066275
O2	O	1.505108	0.339512	0.433725
O3	O	0.784863	-0.181380	-0.066279
O4	O	1.284863	0.318620	0.433721
O5	O	0.900029	0.013869	-0.066274
O6	O	1.400029	0.513869	0.433726
O7	O	0.889942	-0.355737	-0.066280
O8	O	1.389942	0.144263	0.433720
O9	O	0.900014	0.013881	0.066302
O10	O	1.400014	0.513881	0.566302
O11	O	0.784847	-0.181368	0.066297
O12	O	1.284847	0.318632	0.566297
O13	O	1.005093	-0.160476	0.066301
O14	O	1.505093	0.339524	0.566301
Zn15	Zn	0.894968	-0.170920	0.087349
Zn16	Zn	1.394968	0.329080	0.587349
Zn17	Zn	0.894988	-0.170936	-0.087327
Zn18	Zn	1.394988	0.329064	0.412673
O19	O	0.889926	-0.355725	0.066296
O20	O	1.389926	0.144275	0.566296
C21	C	0.756653	-0.180627	0.000009
C22	C	1.256653	0.319373	0.500009
C23	C	0.672621	-0.178385	0.000007
C24	C	1.172621	0.321615	0.500007
C25	C	0.899273	0.061165	0.000013
C26	C	1.399273	0.561165	0.500013
C27	C	0.897033	0.202075	0.000010
C28	C	1.397033	0.702075	0.500010
C29	C	0.633138	-0.177322	0.072276
C30	C	1.133138	0.322678	0.572276
C31	C	0.554182	-0.175195	0.072277
C32	C	1.054182	0.324805	0.572277
C33	C	0.514709	-0.174140	0.000008
C34	C	1.014709	0.325860	0.500008
C35	C	0.554197	-0.175200	-0.072266
C36	C	1.054197	0.324800	0.427734
C37	C	0.633153	-0.177317	-0.072266
C38	C	1.133153	0.322683	0.427734
C39	C	0.235779	-0.166657	-0.072267
C40	C	0.735779	0.333343	0.427733
C41	C	0.156818	-0.164543	-0.072261
C42	C	0.656818	0.335457	0.427739
C43	C	0.156808	-0.164535	0.072275
C44	C	0.656808	0.335465	0.572275
C45	C	0.235764	-0.166653	0.072275
C46	C	0.735764	0.333347	0.572275
C47	C	0.275246	-0.167705	0.000002
C48	C	0.775246	0.332295	0.500002
C49	C	0.360859	-0.170009	0.000002
C50	C	0.860859	0.329991	0.500002
C51	C	0.429096	-0.171846	0.000007
C52	C	0.929096	0.328154	0.500007
C53	C	0.977042	0.420999	0.000318
C54	C	1.477042	0.920999	0.500318
C55	C	0.979431	0.274445	0.000013
C56	C	1.479431	0.774445	0.500013
C57	C	0.854865	0.246054	-0.075696
C58	C	1.354865	0.746054	0.424304
C59	C	0.853059	0.392783	-0.075754
C60	C	1.353059	0.892783	0.424246
C61	C	0.851325	0.392574	0.075011
C62	C	1.351325	0.892574	0.575011
C63	C	0.855227	0.246303	0.076005
C64	C	1.355227	0.746303	0.576005
C65	C	1.033302	-0.161229	0.000012
C66	C	1.533302	0.338771	0.500012
C67	C	1.117335	-0.163471	0.000008
C68	C	1.617335	0.336529	0.500008
N69	N	0.894959	-0.170909	0.206560
N70	N	1.394959	0.329091	0.706560
C71	C	0.890693	0.596981	0.000011
C72	C	1.390693	1.096981	0.500011
C73	C	0.892963	0.456078	0.000018
C74	C	1.392963	0.956078	0.500018
N75	N	0.895002	-0.170938	-0.206538
N76	N	1.395002	0.329062	0.293462
C77	C	0.945971	-0.084488	0.248279
C78	C	1.445971	0.415512	0.748279
C79	C	0.945975	-0.084487	0.331731
C80	C	1.445975	0.415513	0.831731
C81	C	0.894971	-0.170914	0.373463
C82	C	1.394971	0.329086	0.873463
C83	C	0.843953	-0.257339	0.331738
C84	C	1.343953	0.242661	0.831738
C85	C	0.843946	-0.257333	0.248287
C86	C	1.343946	0.242667	0.748287
C87	C	0.843981	-0.257364	0.668285
C88	C	1.343981	0.242636	1.168285
C89	C	0.843994	-0.257365	0.751741
C90	C	1.343994	0.242635	1.251741
C91	C	0.946010	-0.084518	0.751729
C92	C	1.446010	0.415482	1.251729
C93	C	0.946002	-0.084512	0.668278
C94	C	1.446002	0.415488	1.168278
C95	C	0.894983	-0.170932	0.626561
C96	C	1.394983	0.329068	1.126561
C97	C	0.894978	-0.170930	0.536072
C98	C	1.394978	0.329070	1.036072
C99	C	0.894979	-0.170922	0.463950
C100	C	1.394979	0.329078	0.963950
H101	H	0.665270	-0.178191	0.131125
H102	H	1.165270	0.321809	0.631125
O103	O	0.114184	-0.163984	0.150231
O104	O	0.614184	0.336016	0.650231
H105	H	0.052635	-0.162539	0.138095
H106	H	0.552635	0.337461	0.638095
H107	H	0.881892	0.433522	-0.132344
H108	H	1.381892	0.933522	0.367656
H109	H	0.789462	0.413591	0.075520
H110	H	1.289462	0.913591	0.575520
H111	H	0.267916	-0.167510	-0.131117
H112	H	0.767916	0.332490	0.368883
H113	H	0.665298	-0.178185	-0.131114
H114	H	1.165298	0.321815	0.368886
H115	H	0.987537	-0.014139	0.634303
H116	H	1.487537	0.485861	1.134303
O117	O	0.511630	-0.174045	-0.150216
O118	O	1.011630	0.325955	0.349784
H119	H	0.520504	-0.260928	-0.184879
H120	H	1.020504	0.239072	0.315121
O121	O	0.895862	0.209141	0.150195
O122	O	1.395862	0.709141	0.650195
H123	H	0.865970	0.240734	0.203639
H124	H	1.365970	0.740734	0.703639
H125	H	0.987507	-0.014114	0.214307
H126	H	1.487507	0.485886	0.714307
H127	H	0.522040	-0.174308	0.131125
H128	H	1.022040	0.325692	0.631125
O129	O	1.019572	0.477347	0.072231
O130	O	1.519572	0.977347	0.572231
H131	H	1.039465	0.399460	0.108606
H132	H	1.539465	0.899460	0.608606
H133	H	0.794205	0.197553	-0.078513
H134	H	1.294205	0.697553	0.421487
O135	O	0.278338	-0.167819	0.150220
O136	O	0.778338	0.332181	0.650220
H137	H	0.237618	-0.166722	0.200475
H138	H	0.737618	0.333278	0.700475
O139	O	0.788960	-0.350578	0.623295
O140	O	1.288960	0.149422	1.123295
H141	H	0.799134	-0.449512	0.639297
H142	H	1.299134	0.050488	1.139297
H143	H	0.877504	0.435241	0.132397
H144	H	1.377504	0.935241	0.632397
H145	H	1.012426	0.245711	0.054281
H146	H	1.512426	0.745711	0.554281
O147	O	1.023394	0.237596	-0.072002
O148	O	1.523394	0.737596	0.427998
H149	H	1.043023	0.324503	-0.106750
H150	H	1.543023	0.824503	0.393250
O151	O	1.001041	0.008698	0.796724
O152	O	1.501041	0.508698	1.296724
H153	H	0.990886	0.107636	0.780710
H154	H	1.490886	0.607636	1.280710
O155	O	0.114246	-0.163400	-0.150215
O156	O	0.614246	0.336600	0.349785
H157	H	0.052709	-0.161767	-0.138069
H158	H	0.552709	0.338233	0.361931
H159	H	1.008965	0.465085	-0.053667
H160	H	1.508965	0.965085	0.446333
H161	H	0.791432	0.414649	-0.079184
H162	H	1.291432	0.914649	0.420816
O163	O	0.893854	0.206363	-0.150331
O164	O	1.393854	0.706363	0.349669
H165	H	0.943233	0.155268	-0.133696
H166	H	1.443233	0.655268	0.366304
O167	O	1.001008	0.008701	0.376732
O168	O	1.501008	0.508701	0.876732
H169	H	1.036484	0.068780	0.333693
H170	H	1.536484	0.568780	0.833693
O171	O	0.788979	-0.350602	0.796745
O172	O	1.288979	0.149398	1.296745
H173	H	0.751922	-0.297257	0.834789
H174	H	1.251922	0.202743	1.334789
O175	O	0.775547	0.179826	0.082082
O176	O	1.275547	0.679826	0.582082
H177	H	0.764445	0.113943	0.030797
H178	H	1.264445	0.613943	0.530797
H179	H	0.802421	-0.327705	0.365720
H180	H	1.302421	0.172295	0.865720
O181	O	0.788931	-0.350549	0.203284
O182	O	1.288931	0.149451	0.703284
H183	H	0.753470	-0.410658	0.246320
H184	H	1.253470	0.089342	0.746320
