data_functionalizedCrystal
_audit_creation_method	'MofGen! by Chris Wilmer'
_symmetry_space_group_name_H-M	'P1'
_symmetry_Int_Tables_number	1
_symmetry_cell_setting	triclinic
loop_
_symmetry_equiv_pos_as_xyz
  x,y,z
_cell_length_a	18.101395
_cell_length_b	13.897449
_cell_length_c	13.897441
_cell_angle_alpha	89.978743
_cell_angle_beta	89.970274
_cell_angle_gamma	90.031931
loop_
_atom_site_label
_atom_site_type_symbol
_atom_site_fract_x
_atom_site_fract_y
_atom_site_fract_z
Zn1	Zn	-0.294797	1.474592	-0.545449
Zn2	Zn	0.038537	1.807926	-0.212116
Zn3	Zn	0.371870	2.141259	0.121218
Zn4	Zn	-0.418650	1.474455	-0.384150
Zn5	Zn	-0.085317	1.807788	-0.050817
Zn6	Zn	0.248016	2.141121	0.282517
Zn7	Zn	-0.294829	1.313288	-0.384160
Zn8	Zn	0.038504	1.646621	-0.050827
Zn9	Zn	0.371838	1.979954	0.282507
Zn10	Zn	-0.418603	1.313226	-0.545395
Zn11	Zn	-0.085269	1.646559	-0.212062
Zn12	Zn	0.248064	1.979892	0.121271
O13	O	-0.356720	1.393890	-0.464789
O14	O	-0.023386	1.727223	-0.131455
O15	O	0.309947	2.060557	0.201878
O16	O	-0.311233	1.609556	-0.524071
O17	O	0.022101	1.942889	-0.190737
O18	O	0.355434	2.276222	0.142596
O19	O	-0.402258	1.453044	-0.249170
O20	O	-0.068925	1.786377	0.084164
O21	O	0.264408	2.119710	0.417497
O22	O	-0.191192	1.334769	-0.405582
O23	O	0.142142	1.668102	-0.072248
O24	O	0.475475	2.001435	0.261085
O25	O	-0.402227	1.609455	-0.405565
O26	O	-0.068894	1.942788	-0.072232
O27	O	0.264439	2.276121	0.261102
O28	O	-0.191168	1.453279	-0.524080
O29	O	0.142165	1.786612	-0.190747
O30	O	0.475499	2.119945	0.142586
O31	O	-0.311287	1.334635	-0.249177
O32	O	0.022046	1.667968	0.084156
O33	O	0.355379	2.001302	0.417490
O34	O	-0.311241	1.178298	-0.405530
O35	O	0.022092	1.511631	-0.072196
O36	O	0.355425	1.844964	0.261137
O37	O	-0.402146	1.334663	-0.680384
O38	O	-0.068813	1.667996	-0.347051
O39	O	0.264520	2.001330	-0.013717
O40	O	-0.402177	1.178252	-0.523989
O41	O	-0.068844	1.511585	-0.190655
O42	O	0.264489	1.844919	0.142678
O43	O	-0.311187	1.453218	-0.680424
O44	O	0.022147	1.786552	-0.347090
O45	O	0.355480	2.119885	-0.013757
O46	O	-0.522277	1.452984	-0.405513
O47	O	-0.188944	1.786317	-0.072180
O48	O	0.144390	2.119650	0.261154
O49	O	-0.522242	1.334529	-0.523979
O50	O	-0.188909	1.667863	-0.190646
O51	O	0.144425	2.001196	0.142688
C52	C	-0.356708	1.143276	-0.464755
C53	C	-0.023375	1.476609	-0.131422
C54	C	0.309958	1.809942	0.201912
C55	C	-0.356721	1.036062	-0.464763
C56	C	-0.023388	1.369395	-0.131430
C57	C	0.309945	1.702728	0.201903
C58	C	-0.549130	1.393761	-0.464760
C59	C	-0.215797	1.727094	-0.131427
C60	C	0.117536	2.060428	0.201907
C61	C	-0.631444	1.393794	-0.464780
C62	C	-0.298111	1.727127	-0.131447
C63	C	0.035222	2.060461	0.201886
C64	C	-0.356724	0.948992	-0.464779
C65	C	-0.023390	1.282325	-0.131446
C66	C	0.309943	1.615659	0.201887
C67	C	-0.356729	0.839760	-0.464809
C68	C	-0.023396	1.173093	-0.131475
C69	C	0.309938	1.506426	0.201858
C70	C	-0.930535	1.394006	-0.464832
C71	C	-0.597202	1.727339	-0.131499
C72	C	-0.263869	2.060672	0.201834
C73	C	-0.899219	1.319650	-0.539553
C74	C	-0.565886	1.652984	-0.206220
C75	C	-0.232552	1.986317	0.127114
C76	C	-0.813601	1.319297	-0.539319
C77	C	-0.480268	1.652630	-0.205986
C78	C	-0.146934	1.985964	0.127347
C79	C	-0.782153	1.393901	-0.464807
C80	C	-0.448819	1.727234	-0.131474
C81	C	-0.115486	2.060567	0.201859
C82	C	-0.813308	1.366379	-0.363147
C83	C	-0.479974	1.699712	-0.029814
C84	C	-0.146641	2.033045	0.303519
C85	C	-0.898953	1.365899	-0.363594
C86	C	-0.565620	1.699233	-0.030261
C87	C	-0.232286	2.032566	0.303072
C88	C	-0.898877	1.496046	-0.490877
C89	C	-0.565544	1.829379	-0.157543
C90	C	-0.232210	2.162713	0.175790
C91	C	-0.813226	1.495446	-0.493106
C92	C	-0.479893	1.828779	-0.159773
C93	C	-0.146559	2.162113	0.173560
C94	C	-0.698293	1.393843	-0.464787
C95	C	-0.364960	1.727176	-0.131454
C96	C	-0.031627	2.060510	0.201880
C97	C	-1.014395	1.394061	-0.464846
C98	C	-0.681061	1.727394	-0.131512
C99	C	-0.347728	2.060728	0.201821
C100	C	-0.163558	1.394046	-0.464838
C101	C	0.169776	1.727379	-0.131505
C102	C	0.503109	2.060713	0.201829
C103	C	-0.081244	1.394112	-0.464859
C104	C	0.252090	1.727446	-0.131526
C105	C	0.585423	2.060779	0.201807
C106	C	-0.356658	1.393949	-0.716382
C107	C	-0.023324	1.727282	-0.383048
C108	C	0.310009	2.060616	-0.049715
C109	C	-0.356631	1.393974	-0.823596
C110	C	-0.023298	1.727308	-0.490262
C111	C	0.310036	2.060641	-0.156929
C112	C	-0.356732	1.645483	-0.464823
C113	C	-0.023398	1.978816	-0.131490
C114	C	0.309935	2.312150	0.201844
C115	C	-0.356737	1.752697	-0.464837
C116	C	-0.023403	2.086030	-0.131504
C117	C	0.309930	2.419364	0.201829
C118	C	-0.356610	1.393994	-0.910665
C119	C	-0.023277	1.727327	-0.577332
C120	C	0.310057	2.060661	-0.243999
C121	C	-0.356577	1.394022	-1.019898
C122	C	-0.023243	1.727355	-0.686565
C123	C	0.310090	2.060688	-0.353231
C124	C	-0.356728	1.393887	-0.214174
C125	C	-0.023395	1.727220	0.119159
C126	C	0.309938	2.060553	0.452492
C127	C	-0.356546	1.394048	-0.106961
C128	C	-0.023213	1.727382	0.226373
C129	C	0.310121	2.060715	0.559706
H130	H	-0.792534	1.336516	-0.614699
H131	H	-0.459201	1.669849	-0.281366
H132	H	-0.125868	2.003183	0.051968
H133	H	-0.791924	1.292578	-0.340690
H134	H	-0.458591	1.625911	-0.007357
H135	H	-0.125258	1.959244	0.325977
N136	N	-0.786243	1.522939	-0.592205
N137	N	-0.452910	1.856272	-0.258872
N138	N	-0.119577	2.189605	0.074462
H139	H	-0.730473	1.525211	-0.592460
H140	H	-0.397140	1.858545	-0.259127
H141	H	-0.063807	2.191878	0.074206
H142	H	-0.806454	1.588296	-0.609957
H143	H	-0.473121	1.921629	-0.276624
H144	H	-0.139788	2.254963	0.056709
H145	H	-0.919671	1.417707	-0.306023
H146	H	-0.586338	1.751041	0.027310
H147	H	-0.253005	2.084374	0.360644
N148	N	-0.926434	1.342218	-0.639729
N149	N	-0.593101	1.675551	-0.306396
N150	N	-0.259768	2.008885	0.026938
H151	H	-0.959330	1.400859	-0.637652
H152	H	-0.625997	1.734192	-0.304319
H153	H	-0.292663	2.067525	0.029014
H154	H	-0.955327	1.285577	-0.665363
H155	H	-0.621994	1.618910	-0.332029
H156	H	-0.288661	1.952243	0.001304
H157	H	-0.920807	1.244475	-0.522518
H158	H	-0.587473	1.577809	-0.189185
H159	H	-0.254140	1.911142	0.144149
H160	H	-0.918997	1.291308	-0.341532
H161	H	-0.585664	1.624642	-0.008199
H162	H	-0.252331	1.957975	0.325134
H163	H	-0.793179	1.243662	-0.522067
H164	H	-0.459846	1.576996	-0.188734
H165	H	-0.126513	1.910329	0.144600
H166	H	-0.792939	1.418832	-0.305956
H167	H	-0.459605	1.752165	0.027377
H168	H	-0.126272	2.085498	0.360710
N169	N	-0.784862	1.572709	-0.426272
N170	N	-0.451528	1.906042	-0.092939
N171	N	-0.118195	2.239375	0.240395
H172	H	-0.800699	1.557749	-0.358192
H173	H	-0.467365	1.891083	-0.024859
H174	H	-0.134032	2.224416	0.308475
H175	H	-0.805741	1.637049	-0.446285
H176	H	-0.472407	1.970382	-0.112951
H177	H	-0.139074	2.303715	0.220382
N178	N	-0.925699	1.569427	-0.418791
N179	N	-0.592366	1.902760	-0.085458
N180	N	-0.259033	2.236094	0.247876
H181	H	-0.981456	1.571879	-0.419920
H182	H	-0.648123	1.905212	-0.086587
H183	H	-0.314789	2.238546	0.246746
H184	H	-0.905134	1.634798	-0.435927
H185	H	-0.571800	1.968131	-0.102593
H186	H	-0.238467	2.301464	0.230740
H187	H	-0.920422	1.521138	-0.563744
H188	H	-0.587089	1.854471	-0.230411
H189	H	-0.253756	2.187805	0.102923
