data_functionalizedCrystal
_audit_creation_method	'MofGen! by Chris Wilmer'
_symmetry_space_group_name_H-M	'P1'
_symmetry_Int_Tables_number	1
_symmetry_cell_setting	triclinic
loop_
_symmetry_equiv_pos_as_xyz
  x,y,z
_cell_length_a	19.805407
_cell_length_b	11.169416
_cell_length_c	11.169409
_cell_angle_alpha	89.971970
_cell_angle_beta	90.024953
_cell_angle_gamma	89.984971
loop_
_atom_site_label
_atom_site_type_symbol
_atom_site_fract_x
_atom_site_fract_y
_atom_site_fract_z
Zn1	Zn	1.034829	0.477648	0.678743
Zn2	Zn	1.534829	0.977648	1.178743
Zn3	Zn	1.034761	0.678388	0.478075
Zn4	Zn	1.534761	1.178388	0.978075
Zn5	Zn	0.921634	0.477725	0.478059
Zn6	Zn	1.421634	0.977725	0.978059
Zn7	Zn	0.921633	0.678294	0.678702
Zn8	Zn	1.421633	1.178294	1.178702
O9	O	0.978214	0.578014	0.578395
O10	O	1.478214	1.078014	1.078395
O11	O	1.129536	0.504284	0.652148
O12	O	1.629536	1.004284	1.152148
O13	O	1.019727	0.651841	0.310123
O14	O	1.519727	1.151841	0.810123
O15	O	0.936679	0.309765	0.504691
O16	O	1.436679	0.809765	1.004691
O17	O	1.129486	0.651767	0.504718
O18	O	1.629486	1.151767	1.004718
O19	O	1.019842	0.309708	0.652132
O20	O	1.519842	0.809708	1.152132
O21	O	0.936613	0.504415	0.310112
O22	O	1.436613	1.004415	0.810112
O23	O	0.826918	0.504323	0.504651
O24	O	1.326918	1.004323	1.004651
O25	O	0.936677	0.651607	0.846657
O26	O	1.436677	1.151607	1.346657
O27	O	0.826917	0.651681	0.652062
O28	O	1.326917	1.151681	1.152062
O29	O	1.019841	0.504192	0.846687
O30	O	1.519841	1.004192	1.346687
O31	O	1.019725	0.846325	0.504678
O32	O	1.519725	1.346325	1.004678
O33	O	0.936611	0.846256	0.652078
O34	O	1.436611	1.346256	1.152078
C35	C	0.802358	0.578001	0.578351
C36	C	1.302358	1.078001	1.078351
C37	C	0.727126	0.578025	0.578361
C38	C	1.227126	1.078025	1.078361
C39	C	0.265365	0.501363	0.655326
C40	C	0.765365	1.001363	1.155326
C41	C	0.336053	0.501365	0.655317
C42	C	0.836053	1.001365	1.155317
C43	C	0.371365	0.578032	0.578434
C44	C	0.871365	1.078032	1.078434
C45	C	0.335984	0.654710	0.501562
C46	C	0.835984	1.154710	1.001562
C47	C	0.265297	0.654713	0.501578
C48	C	0.765297	1.154713	1.001578
C49	C	0.621057	0.654701	0.501499
C50	C	1.121057	1.154701	1.001499
C51	C	0.691749	0.654690	0.501487
C52	C	1.191749	1.154690	1.001487
C53	C	0.691814	0.501353	0.655238
C54	C	1.191814	1.001353	1.155238
C55	C	0.621126	0.501356	0.655253
C56	C	1.121126	1.001356	1.155253
C57	C	0.585752	0.578038	0.578387
C58	C	1.085752	1.078038	1.078387
C59	C	0.509104	0.578036	0.578399
C60	C	1.009104	1.078036	1.078399
C61	C	0.448012	0.578028	0.578415
C62	C	0.948012	1.078028	1.078415
C63	C	0.978179	0.889838	0.578401
C64	C	1.478179	1.389838	1.078401
C65	C	0.978226	1.023238	0.578444
C66	C	1.478226	1.523238	1.078444
C67	C	1.154757	0.578027	0.578439
C68	C	1.654757	1.078027	1.078439
C69	C	1.229989	0.578033	0.578458
C70	C	1.729989	1.078033	1.078458
C71	C	0.978266	0.577880	0.891437
C72	C	1.478266	1.077880	1.391437
C73	C	0.978288	0.577824	1.024837
C74	C	1.478288	1.077824	1.524837
C75	C	0.978261	1.264971	0.578427
C76	C	1.478261	1.764971	1.078427
C77	C	0.978264	1.131571	0.578473
C78	C	1.478264	1.631571	1.078473
C79	C	0.978201	0.578060	0.266570
C80	C	1.478201	1.078060	0.766570
C81	C	0.978310	0.577779	0.133171
C82	C	1.478310	1.077779	0.633171
H83	H	0.236619	0.438924	0.717926
H84	H	0.736619	0.938924	1.217926
H85	H	0.720624	0.438918	0.717829
H86	H	1.220624	0.938918	1.217829
H87	H	0.592379	0.438921	0.717855
H88	H	1.092379	0.938921	1.217855
H89	H	0.592264	0.717137	0.438906
H90	H	1.092264	1.217137	0.938906
H91	H	0.364853	0.438937	0.717914
H92	H	0.864853	0.938937	1.217914
H93	H	0.720498	0.717126	0.438877
H94	H	1.220498	1.217126	0.938877
H95	H	0.364740	0.717139	0.438967
H96	H	0.864740	1.217139	0.938967
H97	H	0.236495	0.717148	0.438987
H98	H	0.736495	1.217148	0.938987
