data_functionalizedCrystal
_audit_creation_method	'MofGen! by Chris Wilmer'
_symmetry_space_group_name_H-M	'P1'
_symmetry_Int_Tables_number	1
_symmetry_cell_setting	triclinic
loop_
_symmetry_equiv_pos_as_xyz
  x,y,z
_cell_length_a	13.635800
_cell_length_b	15.866870
_cell_length_c	9.582880
_cell_angle_alpha	70.537945
_cell_angle_beta	68.792966
_cell_angle_gamma	102.655915
loop_
_atom_site_label
_atom_site_type_symbol
_atom_site_fract_x
_atom_site_fract_y
_atom_site_fract_z
V1	V	-2.077999	-0.132168	0.539510
O2	O	-2.050185	0.006767	0.453986
O3	O	-2.072877	-0.262466	0.608197
O4	O	-2.073056	-0.129952	0.741789
O5	O	-2.050006	-0.126664	0.319469
V6	V	-2.314845	-0.115571	0.504399
O7	O	-2.219409	-0.168574	0.616529
O8	O	-2.398533	-0.079165	0.427380
O9	O	-2.208363	0.014728	0.435713
O10	O	-2.401357	-0.254506	0.589923
O11	O	-2.401536	-0.121074	0.724440
O12	O	-2.208185	-0.117787	0.302120
V13	V	-1.577999	-0.132168	0.539510
O14	O	-1.550185	0.006767	0.453986
O15	O	-1.572877	-0.262466	0.608197
O16	O	-1.573056	-0.129952	0.741789
O17	O	-1.550006	-0.126664	0.319469
V18	V	-1.814845	-0.115571	0.504399
O19	O	-1.719409	-0.168574	0.616529
O20	O	-1.898533	-0.079165	0.427380
O21	O	-1.708363	0.014728	0.435713
O22	O	-1.901357	-0.254506	0.589923
O23	O	-1.901536	-0.121074	0.724440
O24	O	-1.708185	-0.117787	0.302120
C25	C	-1.999396	-0.294236	0.618361
C26	C	-2.035981	-0.400756	0.675869
C27	C	-1.979648	-0.683302	0.142435
C28	C	-2.014034	-0.783398	0.196522
C29	C	-2.084696	-0.810500	0.485557
C30	C	-2.050311	-0.710404	0.431493
C31	C	-1.997789	-0.646813	0.259930
C32	C	-2.068451	-0.673915	0.548989
C33	C	-2.034074	-0.573828	0.494929
C34	C	-1.981555	-0.510230	0.323374
C35	C	-1.963411	-0.546726	0.205871
C36	C	-2.120981	-0.737509	0.720552
C37	C	-2.139121	-0.701019	0.838047
C38	C	-2.104736	-0.600930	0.783988
C39	C	-2.052218	-0.537332	0.612433
C40	C	-2.122880	-0.564435	0.901491
C41	C	-2.088502	-0.464347	0.847432
C42	C	-2.017840	-0.437245	0.558373
C43	C	-1.999623	-0.125200	0.788769
C44	C	-2.036349	-0.124250	0.954608
C45	C	-2.113516	0.046492	0.425547
C46	C	-2.066552	0.153011	0.368049
C47	C	-2.113289	-0.122542	0.255134
C48	C	-2.066181	-0.123486	0.089291
C49	C	-1.499396	-0.294236	0.618361
C50	C	-1.535981	-0.400756	0.675869
C51	C	-1.499623	-0.125200	0.788769
C52	C	-1.536349	-0.124250	0.954608
C53	C	-1.613516	0.046492	0.425547
C54	C	-1.566552	0.153011	0.368049
C55	C	-1.613289	-0.122542	0.255134
C56	C	-1.566181	-0.123486	0.089291
C57	C	-1.645675	-0.455658	0.713044
C58	C	-1.680070	-0.555747	0.767103
C59	C	-1.604766	-0.600932	0.783975
C60	C	-1.495064	-0.546023	0.746800
C61	C	-1.460673	-0.445936	0.692753
C62	C	-1.629352	0.207913	0.330879
C63	C	-1.585230	0.308001	0.276827
C64	C	-1.478310	0.353186	0.259959
C65	C	-1.415505	0.298277	0.297129
C66	C	-1.459624	0.198192	0.351168
H67	H	-1.975055	-0.385464	0.418668
C68	C	-2.142458	-0.880461	0.674270
N69	N	-2.185956	-0.933154	0.816411
C70	C	-1.429787	0.463287	0.200494
N71	N	-1.393245	0.546216	0.155700
C72	C	-1.297892	0.347996	0.278564
N73	N	-1.209307	0.385447	0.264585
C74	C	-2.196883	-0.770980	1.026761
N75	N	-2.240381	-0.823673	1.168902
C76	C	-1.339994	-0.385552	0.651840
N77	N	-1.249093	-0.340075	0.621022
C78	C	-1.905631	-0.476768	0.017141
N79	N	-1.862116	-0.424077	-0.125003
C80	C	-1.943737	-0.400131	0.263907
N81	N	-1.915250	-0.317203	0.219117
C82	C	-1.921868	-0.613345	-0.046295
N83	N	-1.878353	-0.560654	-0.188439
H84	H	-1.999255	-0.813102	0.100829
C85	C	-1.390533	0.137808	0.392073
N86	N	-1.338487	0.092332	0.422883
H87	H	-2.148972	-0.819005	0.764562
H88	H	-2.165657	-0.616226	1.041179
H89	H	-2.103290	-0.434639	0.943111
C90	C	-1.654355	0.368376	0.236016
N91	N	-1.706429	0.413845	0.205300
C92	C	-1.728532	-0.405975	0.694507
N93	N	-1.790951	-0.368562	0.680561
C94	C	-1.746965	0.158230	0.349410
N95	N	-1.835550	0.120817	0.363352
C96	C	-1.412235	-0.595739	0.765340
N97	N	-1.349846	-0.633187	0.779289
H98	H	-1.769397	-0.600440	0.797360
H99	H	-1.632784	-0.682430	0.827984
