data_functionalizedCrystal
_audit_creation_method	'MofGen! by Chris Wilmer'
_symmetry_space_group_name_H-M	'P1'
_symmetry_Int_Tables_number	1
_symmetry_cell_setting	triclinic
loop_
_symmetry_equiv_pos_as_xyz
  x,y,z
_cell_length_a	17.052862
_cell_length_b	19.902436
_cell_length_c	17.052832
_cell_angle_alpha	77.685953
_cell_angle_beta	45.842616
_cell_angle_gamma	70.261738
loop_
_atom_site_label
_atom_site_type_symbol
_atom_site_fract_x
_atom_site_fract_y
_atom_site_fract_z
Zr1	Zr	0.878465	0.804862	-0.240870
O2	O	1.045927	0.747360	-0.394892
O3	O	0.711012	0.804209	-0.175731
O4	O	0.878458	0.861174	-0.369027
O5	O	0.878483	0.666254	-0.069508
O6	O	0.878442	0.971749	-0.369014
O7	O	0.878481	0.690394	-0.201595
O8	O	0.578912	0.869848	-0.023242
O9	O	1.178013	0.768155	-0.415281
O10	O	0.779873	0.908538	-0.169595
O11	O	0.779886	0.808002	-0.071030
O12	O	0.977032	0.875071	-0.298612
O13	O	0.977046	0.774535	-0.200047
Zr14	Zr	0.878444	0.942715	-0.030186
Zr15	Zr	0.878440	0.981216	-0.240849
Zr16	Zr	0.878469	0.766362	-0.030207
Zr17	Zr	1.089128	0.838029	-0.273389
Zr18	Zr	0.667781	0.909549	0.002332
O19	O	1.045897	0.943369	-0.095326
O20	O	1.045891	0.998111	-0.394862
O21	O	1.045932	0.692617	-0.095356
O22	O	0.710982	1.000218	0.123835
O23	O	0.710976	1.054961	-0.175701
O24	O	0.711017	0.749466	0.123805
O25	O	0.878426	1.081324	-0.201548
O26	O	0.878451	0.886403	0.097971
O27	O	0.878466	0.775829	0.097958
O28	O	0.878428	1.057184	-0.069462
O29	O	1.177993	0.908332	-0.415264
O30	O	0.578915	0.839245	0.144208
O31	O	0.578895	0.979423	0.144224
O32	O	0.578892	1.010026	-0.023225
O33	O	1.178016	0.737552	-0.247832
O34	O	1.177997	0.877730	-0.247815
O35	O	0.779876	0.872507	0.027555
O36	O	0.779863	0.973043	-0.071010
O37	O	0.977022	0.939576	-0.200027
O38	O	0.977036	0.839040	-0.101462
C39	C	0.614947	0.832303	-0.094853
C40	C	0.525515	0.818223	-0.081048
C41	C	0.273401	0.988450	-0.247949
C42	C	0.357432	1.001678	-0.260927
C43	C	0.399456	0.955816	-0.215958
C44	C	0.357443	0.896722	-0.158010
C45	C	0.273411	0.883490	-0.145038
C46	C	0.399466	0.850856	-0.113047
C47	C	0.357452	0.791762	-0.055099
C48	C	0.273427	0.778532	-0.042129
C49	C	0.231403	0.824394	-0.087098
C50	C	0.483498	0.864088	-0.126019
C51	C	0.483507	0.759128	-0.023108
C52	C	0.399477	0.745900	-0.010130
C53	C	0.878485	0.653198	-0.135555
C54	C	0.878496	0.578331	-0.135563
C55	C	0.878440	0.306313	-0.135517
C56	C	1.002812	0.313638	-0.216605
C57	C	1.002890	0.391551	-0.216961
C58	C	0.878468	0.441264	-0.135540
C59	C	0.816701	0.437416	-0.171352
C60	C	0.817497	0.359397	-0.171932
C61	C	0.814945	0.332005	-0.018451
C62	C	0.817282	0.409324	-0.018977
C63	C	0.878478	0.517535	-0.135551
C64	C	0.878427	0.230045	-0.135508
C65	C	1.141962	0.915275	-0.176204
C66	C	1.231394	0.929355	-0.190009
C67	C	0.878449	0.921947	-0.399036
C68	C	0.878448	0.938292	-0.488468
C69	C	0.878423	1.094380	-0.135502
C70	C	0.878413	1.169247	-0.135493
C71	C	0.878467	0.740689	-0.740580
C72	C	0.878461	0.725332	-0.656550
C73	C	0.878458	0.778570	-0.614526
C74	C	0.878460	0.847168	-0.656539
C75	C	0.878457	0.862528	-0.740572
C76	C	0.878448	0.900410	-0.614517
C77	C	0.878450	0.969008	-0.656531
C78	C	0.878448	0.984364	-0.740556
C79	C	0.878451	0.931126	-0.782581
C80	C	0.878452	0.885050	-0.530484
C81	C	0.878442	1.006889	-0.530476
C82	C	0.878447	1.022246	-0.614507
C83	C	0.878459	0.825631	0.127979
C84	C	0.878461	0.809286	0.217411
C85	C	0.614916	1.052894	-0.094827
C86	C	0.525473	1.113681	-0.081013
C87	C	0.614952	0.784145	0.168655
C88	C	0.525521	0.753721	0.271891
C89	C	0.614921	1.004736	0.168681
C90	C	0.525480	1.049178	0.271926
C91	C	1.141988	0.742842	-0.439737
C92	C	1.231429	0.698399	-0.542983
C93	C	1.141993	0.694684	-0.176230
C94	C	1.231435	0.633897	-0.190044
C95	C	1.141957	0.963433	-0.439711
C96	C	1.231387	0.993857	-0.542948
C97	C	0.483475	1.108558	-0.125995
C98	C	0.399446	1.165672	-0.113037
C99	C	0.357411	1.227907	-0.055090
C100	C	0.399417	1.233030	-0.010108
C101	C	0.483451	1.175918	-0.023073
C102	C	0.483519	0.773102	0.371842
C103	C	0.399501	0.744513	0.468850
C104	C	0.357482	0.696545	0.465906
C105	C	0.399493	0.677161	0.365945
C106	C	0.483515	0.705747	0.268938
C107	C	0.483470	1.122535	0.268962
C108	C	0.399443	1.164303	0.365962
C109	C	0.357421	1.132713	0.465927
C110	C	0.399438	1.059350	0.468889
C111	C	0.483470	1.017584	0.371888
C112	C	1.273448	0.625044	-0.540020
C113	C	1.357502	0.583280	-0.637025
C114	C	1.399529	0.614871	-0.736990
C115	C	1.357506	0.688234	-0.739951
C116	C	1.273459	0.729998	-0.642948
C117	C	1.273442	0.639023	-0.145072
C118	C	1.357494	0.581917	-0.158057
C119	C	1.399533	0.519683	-0.216007
C120	C	1.357522	0.514559	-0.260985
C121	C	1.273477	0.571666	-0.248006
C122	C	1.273380	1.041823	-0.539969
C123	C	1.357398	1.070423	-0.636961
C124	C	1.399428	1.051052	-0.736932
C125	C	1.357427	1.003083	-0.739908
C126	C	1.273404	0.974488	-0.642916
H127	H	0.517698	0.912203	-0.173201
C128	C	0.227173	1.038889	-0.297412
N129	N	0.192352	1.076883	-0.334671
C130	C	0.529685	1.157302	0.159009
N131	N	0.564495	1.183495	0.076195
C132	C	1.227242	0.590279	-0.430069
N133	N	1.192451	0.564089	-0.347258
C134	C	1.227234	0.810689	-0.646224
N135	N	1.192418	0.871467	-0.648699
C136	C	0.353158	1.301492	0.053641
N137	N	0.318306	1.353058	0.101665
H138	H	1.391685	0.586101	-0.121424
C139	C	0.529669	0.936888	0.375168
N140	N	0.564463	0.876107	0.377646
H141	H	1.391703	0.523546	-0.634593
H142	H	0.365211	1.033637	0.550293
H143	H	1.391763	0.463880	-0.308168
C144	C	0.691170	0.327992	0.063245
N145	N	0.597948	0.324964	0.124770
C146	C	0.264964	1.290723	-0.040829
N147	N	0.195328	1.338033	-0.030086
H148	H	0.517635	1.180097	0.013565
C149	C	0.138975	0.809840	-0.072839
N150	N	0.069363	0.798878	-0.062107
C151	C	1.491974	0.568919	-0.843686
N152	N	1.561598	0.534302	-0.924045
C153	C	1.491857	1.082513	-0.843618
N154	N	1.561477	1.106210	-0.923970
H155	H	0.854745	0.295036	0.013285
H156	H	1.467967	0.473187	-0.226567
H157	H	0.517700	1.057892	-0.173193
H158	H	0.878460	0.943627	-0.851008
C159	C	0.878116	0.410035	0.017404
N160	N	0.923936	0.410577	0.044805
H161	H	0.878458	0.669480	-0.622344
C162	C	1.068413	0.392759	-0.186038
N163	N	1.117790	0.393663	-0.162771
C164	C	1.403632	0.981810	-0.849881
N165	N	1.438425	0.965795	-0.932715
H166	H	0.517702	0.689962	0.187560
C167	C	0.353294	0.765852	0.578797
N168	N	0.318490	0.781928	0.661607
H169	H	0.467878	0.966590	-0.226528
H170	H	0.365241	1.224037	0.363532
C171	C	0.265044	0.665114	0.572629
N172	N	0.195415	0.641445	0.653017
C173	C	1.403737	0.722973	-0.849923
N174	N	1.438554	0.749135	-0.932756
C175	C	0.878447	0.682139	-0.786797
N176	N	0.878424	0.638037	-0.821604
H177	H	0.391637	1.049791	-0.308109
H178	H	0.878450	0.829197	-0.496284
H179	H	0.239231	0.730410	0.005046
H180	H	0.861388	0.344190	-0.257639
H181	H	1.239278	0.567482	-0.284626
C182	C	0.878408	1.059831	-0.786742
N183	N	0.878368	1.116675	-0.821521
C184	C	1.068761	0.263644	-0.185897
N185	N	1.118432	0.225988	-0.162761
H186	H	0.365258	0.697785	0.037051
H187	H	1.051386	0.295748	-0.302751
C188	C	1.227221	0.707477	-0.081327
N189	N	1.192418	0.759037	-0.033319
H190	H	1.051642	0.411912	-0.303610
H191	H	0.726246	0.356673	-0.115683
C192	C	0.694644	0.455293	0.067493
N193	N	0.602267	0.489916	0.132619
C194	C	0.264974	1.178666	0.572623
N195	N	0.195340	1.213280	0.652983
H196	H	0.725218	0.471985	-0.114320
H197	H	1.239172	1.057602	-0.458578
H198	H	0.859597	0.460009	-0.256154
H199	H	1.391586	1.109478	-0.634518
H200	H	1.239223	0.935430	-0.645357
H201	H	0.878448	1.078099	-0.648725
H202	H	0.878454	0.766064	-0.546104
C203	C	0.353245	1.160019	-0.162514
N204	N	0.318445	1.155758	-0.199778
H205	H	0.878436	1.050241	-0.496258
H206	H	0.365268	0.638103	0.363565
C207	C	0.529728	0.708677	0.026364
N208	N	0.564548	0.670681	0.063622
H209	H	0.517722	0.812158	0.374259
