data_functionalizedCrystal
_audit_creation_method	'MofGen! by Chris Wilmer'
_symmetry_space_group_name_H-M	'P1'
_symmetry_Int_Tables_number	1
_symmetry_cell_setting	triclinic
loop_
_symmetry_equiv_pos_as_xyz
  x,y,z
_cell_length_a	15.944551
_cell_length_b	15.944551
_cell_length_c	14.421503
_cell_angle_alpha	89.996660
_cell_angle_beta	89.996859
_cell_angle_gamma	96.501262
loop_
_atom_site_label
_atom_site_type_symbol
_atom_site_fract_x
_atom_site_fract_y
_atom_site_fract_z
O1	O	1.114529	-0.108320	-0.077017
O2	O	1.614529	0.391680	0.422983
O3	O	0.869980	-0.121677	-0.077040
O4	O	1.369980	0.378323	0.422960
O5	O	0.998933	0.007276	-0.077020
O6	O	1.498933	0.507276	0.422980
O7	O	0.985576	-0.237273	-0.077038
O8	O	1.485576	0.262727	0.422962
O9	O	0.998911	0.007257	0.077204
O10	O	1.498911	0.507257	0.577204
O11	O	0.869958	-0.121696	0.077183
O12	O	1.369958	0.378304	0.577183
O13	O	1.114508	-0.108340	0.077206
O14	O	1.614508	0.391660	0.577206
Cu15	Cu	0.992231	-0.115020	0.091277
Cu16	Cu	1.492231	0.384980	0.591277
Cu17	Cu	0.992256	-0.114997	-0.091110
Cu18	Cu	1.492256	0.385003	0.408890
O19	O	0.985555	-0.237293	0.077186
O20	O	1.485555	0.262707	0.577186
C21	C	0.838675	-0.121132	0.000069
C22	C	1.338675	0.378868	0.500069
C23	C	0.745429	-0.119470	0.000060
C24	C	1.245429	0.380530	0.500060
C25	C	0.530572	-0.035565	0.000084
C26	C	1.030572	0.464435	0.500084
C27	C	0.469563	-0.074518	-0.075959
C28	C	0.969563	0.425482	0.424041
C29	C	0.574703	-0.116462	0.000071
C30	C	1.074703	0.383538	0.500071
C31	C	0.469564	-0.074556	0.076093
C32	C	0.969564	0.425444	0.576093
C33	C	0.409790	-0.113551	0.000086
C34	C	0.909790	0.386449	0.500086
C35	C	0.514922	-0.155437	-0.076035
C36	C	1.014922	0.344563	0.423965
C37	C	0.514929	-0.155464	0.076086
C38	C	1.014929	0.344536	0.576086
C39	C	0.453937	-0.194476	0.000024
C40	C	0.953937	0.305524	0.500024
C41	C	0.669705	-0.118137	0.000062
C42	C	1.169705	0.381863	0.500062
C43	C	0.314789	-0.111883	0.000089
C44	C	0.814789	0.388117	0.500089
C45	C	0.998367	0.038561	0.000092
C46	C	1.498367	0.538561	0.500092
C47	C	0.996705	0.131807	0.000093
C48	C	1.496705	0.631807	0.500093
C49	C	1.145813	-0.108885	0.000096
C50	C	1.645813	0.391115	0.500096
C51	C	1.239059	-0.110547	0.000098
C52	C	1.739059	0.389453	0.500098
C53	C	0.986120	-0.268577	0.000072
C54	C	1.486120	0.231423	0.500072
C55	C	0.987782	-0.361823	0.000066
C56	C	1.487782	0.138177	0.500066
N57	N	0.992219	-0.115035	0.219558
N58	N	1.492219	0.384965	0.719558
C59	C	0.912801	0.346663	0.000072
C60	C	1.412801	0.846663	0.500072
C61	C	0.951753	0.407671	0.076117
C62	C	1.451753	0.907671	0.576117
C63	C	0.993698	0.302533	0.000085
C64	C	1.493698	0.802533	0.500085
C65	C	0.951793	0.407674	-0.075935
C66	C	1.451793	0.907674	0.424065
C67	C	0.990787	0.467445	0.000074
C68	C	1.490787	0.967445	0.500074
C69	C	1.032672	0.362312	0.076193
C70	C	1.532672	0.862312	0.576193
C71	C	1.032701	0.362308	-0.075927
C72	C	1.532701	0.862308	0.424073
C73	C	1.071711	0.423298	0.000136
C74	C	1.571711	0.923298	0.500136
C75	C	0.995372	0.207530	0.000092
C76	C	1.495372	0.707530	0.500092
C77	C	0.989119	0.562446	0.000073
C78	C	1.489119	1.062446	0.500073
N79	N	0.992275	-0.114975	-0.219392
N80	N	1.492275	0.385025	0.280608
C81	C	0.932581	-0.174636	0.469202
C82	C	1.432581	0.325364	0.969202
C83	C	1.008481	-0.190943	0.531011
C84	C	1.508481	0.309057	1.031011
C85	C	0.992240	-0.115015	0.408719
C86	C	1.492240	0.384985	0.908719
C87	C	0.916359	-0.098727	0.531005
C88	C	1.416359	0.401273	1.031005
C89	C	0.992253	-0.114997	0.591441
C90	C	1.492253	0.385003	1.091441
C91	C	1.068178	-0.131360	0.469167
C92	C	1.568178	0.368640	0.969167
C93	C	0.976007	-0.039111	0.469156
C94	C	1.476007	0.460889	0.969156
C95	C	1.051961	-0.055386	0.530936
C96	C	1.551961	0.444614	1.030936
C97	C	0.992231	-0.115027	0.303458
C98	C	1.492231	0.384973	0.803458
C99	C	0.992270	-0.114985	0.696700
C100	C	1.492270	0.385015	1.196700
H101	H	0.420779	-0.261683	-0.000023
H102	H	0.920779	0.238317	0.499977
N103	N	0.541405	-0.200700	-0.161297
N104	N	1.041405	0.299300	0.338703
H105	H	0.489989	-0.220100	-0.199885
H106	H	0.989989	0.279900	0.300115
H107	H	0.570136	-0.251216	-0.141950
H108	H	1.070136	0.248784	0.358050
N109	N	0.574705	0.053373	0.000004
N110	N	1.074705	0.553373	0.500004
H111	H	0.557520	0.084249	0.056850
H112	H	1.057520	0.584249	0.556850
H113	H	0.558321	0.083765	-0.057525
H114	H	1.058321	0.583765	0.442475
N115	N	0.442955	-0.029233	0.161257
N116	N	0.942955	0.470767	0.661257
H117	H	0.402903	-0.069002	0.199360
H118	H	0.902903	0.430998	0.699360
H119	H	0.413797	0.020972	0.141792
H120	H	0.913797	0.520972	0.641792
H121	H	1.066850	0.342314	0.140554
H122	H	1.566850	0.842314	0.640554
N123	N	0.957767	0.045876	0.433132
N124	N	1.457767	0.545876	0.933132
H125	H	0.958449	0.045397	0.363105
H126	H	1.458449	0.545397	0.863105
H127	H	1.002241	0.091006	0.456633
H128	H	1.502241	0.591006	0.956633
H129	H	0.917527	0.427771	0.140401
H130	H	1.417527	0.927771	0.640401
H131	H	0.917575	0.427758	-0.140230
H132	H	1.417575	0.927758	0.359770
N133	N	0.541560	-0.200763	0.161251
N134	N	1.041560	0.299237	0.661251
H135	H	0.582474	-0.161310	0.198698
H136	H	1.082474	0.338690	0.698698
H137	H	0.569734	-0.251607	0.141819
H138	H	1.069734	0.248393	0.641819
H139	H	0.852183	-0.084959	0.558170
H140	H	1.352183	0.415041	1.058170
H141	H	0.845652	0.313356	0.000141
H142	H	1.345652	0.813356	0.500141
N143	N	0.442924	-0.029186	-0.161104
N144	N	0.942924	0.470814	0.338896
H145	H	0.402869	-0.068955	-0.199194
H146	H	0.902869	0.431045	0.300806
H147	H	0.494379	-0.009240	-0.199394
H148	H	0.994379	0.490760	0.300606
N149	N	1.160732	0.467226	0.000192
N150	N	1.660732	0.967226	0.500192
H151	H	1.191161	0.450746	0.057655
H152	H	1.691161	0.950746	0.557655
H153	H	1.159060	0.530354	-0.000388
H154	H	1.659060	1.030354	0.499612
H155	H	1.066897	0.342186	-0.140214
H156	H	1.566897	0.842186	0.359786
H157	H	0.882181	-0.225096	0.442096
H158	H	1.382181	0.274904	0.942096
H159	H	1.022224	-0.255126	0.558180
H160	H	1.522224	0.244874	1.058180
H161	H	1.132368	-0.145205	0.442119
H162	H	1.632368	0.354795	0.942119
H163	H	1.102474	-0.004956	0.557872
H164	H	1.602474	0.495044	1.057872
