data_functionalizedCrystal
_audit_creation_method	'MofGen! by Chris Wilmer'
_symmetry_space_group_name_H-M	'P1'
_symmetry_Int_Tables_number	1
_symmetry_cell_setting	triclinic
loop_
_symmetry_equiv_pos_as_xyz
  x,y,z
_cell_length_a	14.519709
_cell_length_b	17.038272
_cell_length_c	12.996460
_cell_angle_alpha	89.993697
_cell_angle_beta	90.000034
_cell_angle_gamma	87.395851
loop_
_atom_site_label
_atom_site_type_symbol
_atom_site_fract_x
_atom_site_fract_y
_atom_site_fract_z
O1	O	1.231711	0.102503	-0.085433
O2	O	1.731711	0.602503	0.414567
O3	O	0.964158	0.114573	-0.085465
O4	O	1.464158	0.614573	0.414535
O5	O	1.096345	-0.005280	-0.085441
O6	O	1.596345	0.494720	0.414559
O7	O	1.099525	0.222356	-0.085457
O8	O	1.599525	0.722356	0.414543
O9	O	1.096329	-0.005287	0.085693
O10	O	1.596329	0.494713	0.585693
O11	O	0.964143	0.114567	0.085669
O12	O	1.464143	0.614567	0.585669
O13	O	1.231696	0.102496	0.085701
O14	O	1.731696	0.602496	0.585701
Cu15	Cu	1.097918	0.108531	0.101311
Cu16	Cu	1.597918	0.608531	0.601311
Cu17	Cu	1.097936	0.108539	-0.101075
Cu18	Cu	1.597936	0.608539	0.398925
O19	O	1.099510	0.222349	0.085677
O20	O	1.599510	0.722349	0.585677
C21	C	0.929748	0.114008	0.000098
C22	C	1.429748	0.614008	0.500098
C23	C	0.827237	0.112322	0.000086
C24	C	1.327237	0.612322	0.500086
C25	C	0.451867	0.106116	0.000134
C26	C	0.951867	0.606116	0.500134
C27	C	0.556307	0.107839	0.000120
C28	C	1.056307	0.607839	0.500120
C29	C	0.639549	0.109219	0.000109
C30	C	1.139549	0.609219	0.500109
C31	C	0.743995	0.110942	0.000098
C32	C	1.243995	0.610942	0.500098
C33	C	1.093444	-0.034416	0.000125
C34	C	1.593444	0.465584	0.500125
C35	C	1.084814	-0.121223	0.000124
C36	C	1.584814	0.378777	0.500124
C37	C	1.164047	-0.171209	0.000135
C38	C	1.664047	0.328791	0.500135
C39	C	1.155933	-0.252773	0.000124
C40	C	1.655933	0.247227	0.500124
C41	C	1.068585	-0.284349	0.000110
C42	C	1.568585	0.215651	0.500110
C43	C	0.989347	-0.234357	0.000097
C44	C	1.489347	0.265643	0.500097
C45	C	0.997462	-0.152795	0.000100
C46	C	1.497462	0.347205	0.500100
C47	C	1.039916	-0.530153	0.000093
C48	C	1.539916	-0.030153	0.500093
C49	C	1.031807	-0.611722	0.000092
C50	C	1.531807	-0.111722	0.500092
C51	C	1.198394	-0.630132	0.000118
C52	C	1.698394	-0.130132	0.500118
C53	C	1.206502	-0.548568	0.000127
C54	C	1.706502	-0.048568	0.500127
C55	C	1.127263	-0.498583	0.000108
C56	C	1.627263	0.001417	0.500108
C57	C	1.060289	-0.367720	0.000102
C58	C	1.560289	0.132280	0.500102
C59	C	1.135560	-0.415213	0.000109
C60	C	1.635560	0.084787	0.500109
C61	C	1.266107	0.103062	0.000135
C62	C	1.766107	0.603062	0.500135
C63	C	1.368617	0.104748	0.000141
C64	C	1.868617	0.604748	0.500141
C65	C	1.102410	0.251486	0.000108
C66	C	1.602410	0.751486	0.500108
C67	C	1.111040	0.338292	0.000103
C68	C	1.611040	0.838292	0.500103
N69	N	1.097912	0.108525	0.243658
N70	N	1.597912	0.608525	0.743658
N71	N	1.097949	0.108538	-0.243422
N72	N	1.597949	0.608538	0.256578
C73	C	1.097935	0.108539	0.663472
C74	C	1.597935	0.608539	1.163472
C75	C	1.097926	0.108538	0.546667
C76	C	1.597926	0.608538	1.046667
C77	C	1.097924	0.108533	0.453569
C78	C	1.597924	0.608533	0.953569
C79	C	1.097914	0.108530	0.336756
C80	C	1.597914	0.608530	0.836756
H81	H	1.235175	-0.145506	0.000152
H82	H	1.735175	0.354494	0.500152
Br83	Br	0.889927	-0.084955	0.000078
Br84	Br	1.389927	0.415045	0.500078
H85	H	1.220453	-0.293468	0.000135
H86	H	1.720453	0.206532	0.500135
Br87	Br	1.325049	-0.505720	0.000113
Br88	Br	1.825049	-0.005720	0.500113
Br89	Br	0.932377	-0.462327	0.000060
Br90	Br	1.432377	0.037673	0.500060
Br91	Br	1.305926	-0.697972	0.000143
Br92	Br	1.805926	-0.197972	0.500143
Br93	Br	0.870802	-0.277209	0.000061
Br94	Br	1.370802	0.222791	0.500061
Br95	Br	1.254100	-0.372358	0.000118
Br96	Br	1.754100	0.127642	0.500118
Br97	Br	0.913256	-0.654575	0.000084
Br98	Br	1.413256	-0.154575	0.500084
H99	H	0.989170	-0.393438	0.000093
H100	H	1.489170	0.106562	0.500093
