data_functionalizedCrystal
_audit_creation_method	'MofGen! by Chris Wilmer'
_symmetry_space_group_name_H-M	'P1'
_symmetry_Int_Tables_number	1
_symmetry_cell_setting	triclinic
loop_
_symmetry_equiv_pos_as_xyz
  x,y,z
_cell_length_a	18.215399
_cell_length_b	12.759401
_cell_length_c	12.759399
_cell_angle_alpha	90.016641
_cell_angle_beta	90.024962
_cell_angle_gamma	90.017882
loop_
_atom_site_label
_atom_site_type_symbol
_atom_site_fract_x
_atom_site_fract_y
_atom_site_fract_z
Zn1	Zn	-0.416093	-1.606232	0.418234
Zn2	Zn	0.083907	-1.106232	0.918234
Zn3	Zn	-0.293033	-1.606131	0.593932
Zn4	Zn	0.206967	-1.106131	1.093932
Zn5	Zn	-0.293044	-1.430540	0.418272
Zn6	Zn	0.206956	-0.930540	0.918272
Zn7	Zn	-0.416062	-1.430521	0.593877
Zn8	Zn	0.083938	-0.930521	1.093877
O9	O	-0.354558	-1.518356	0.506079
O10	O	0.145442	-1.018356	1.006079
O11	O	-0.399777	-1.753239	0.441548
O12	O	0.100223	-1.253239	0.941548
O13	O	-0.190050	-1.582804	0.570669
O14	O	0.309950	-1.082804	1.070669
O15	O	-0.309385	-1.453896	0.271246
O16	O	0.190615	-0.953896	0.771246
O17	O	-0.309365	-1.753165	0.570632
O18	O	0.190635	-1.253165	1.070632
O19	O	-0.399788	-1.582976	0.271218
O20	O	0.100212	-1.082976	0.771218
O21	O	-0.190059	-1.453798	0.441613
O22	O	0.309941	-0.953798	0.941613
O23	O	-0.309355	-1.283516	0.441559
O24	O	0.190645	-0.783516	0.941559
O25	O	-0.519050	-1.453864	0.570538
O26	O	-0.019050	-0.953864	1.070538
O27	O	-0.399735	-1.283502	0.570575
O28	O	0.100265	-0.783502	1.070575
O29	O	-0.519073	-1.582958	0.441495
O30	O	-0.019073	-1.082958	0.941495
O31	O	-0.309335	-1.582786	0.740945
O32	O	0.190665	-1.082786	1.240945
O33	O	-0.399724	-1.453766	0.740905
O34	O	0.100276	-0.953766	1.240905
C35	C	-0.354543	-1.245388	0.506066
C36	C	0.145457	-0.745388	1.006066
C37	C	-0.354555	-1.128612	0.506086
C38	C	0.145445	-0.628612	1.006086
C39	C	-0.354541	-1.518291	0.779046
C40	C	0.145459	-1.018291	1.279046
C41	C	-0.354559	-1.518360	0.895823
C42	C	0.145441	-1.018360	1.395823
C43	C	-0.546511	-1.518420	0.506006
C44	C	-0.046511	-1.018420	1.006006
C45	C	-0.628310	-1.518447	0.505975
C46	C	-0.128310	-1.018447	1.005975
C47	C	-0.816517	-1.585690	0.438720
C48	C	-0.316517	-1.085690	0.938720
C49	C	-0.893376	-1.585703	0.438689
C50	C	-0.393376	-1.085703	0.938689
C51	C	-0.893341	-1.451278	0.573069
C52	C	-0.393341	-0.951278	1.073069
C53	C	-0.816484	-1.451261	0.573093
C54	C	-0.316484	-0.951261	1.073093
C55	C	-0.778074	-1.518473	0.505920
C56	C	-0.278074	-1.018473	1.005920
C57	C	-0.931790	-1.518503	0.505865
C58	C	-0.431790	-1.018503	1.005865
C59	C	-1.015123	-1.518516	0.505832
C60	C	-0.515123	-1.018516	1.005832
C61	C	-0.694735	-1.518459	0.505951
C62	C	-0.194735	-1.018459	1.005951
C63	C	-0.163352	-1.518352	0.506075
C64	C	0.336648	-1.018352	1.006075
C65	C	-0.081553	-1.518529	0.505810
C66	C	0.418447	-1.018529	1.005810
C67	C	-0.354573	-1.792389	0.506092
C68	C	0.145427	-1.292389	1.006092
C69	C	-0.354580	-1.909166	0.506098
C70	C	0.145420	-1.409166	1.006098
C71	C	-0.401542	-1.073770	0.573366
C72	C	0.098458	-0.573770	1.073366
C73	C	-0.401556	-0.964046	0.573370
C74	C	0.098444	-0.464046	1.073370
C75	C	-0.307590	-0.964015	0.438810
C76	C	0.192410	-0.464015	0.938810
C77	C	-0.307580	-1.073737	0.438801
C78	C	0.192420	-0.573737	0.938801
C79	C	-0.354591	-1.518449	0.232045
C80	C	0.145409	-1.018449	0.732045
C81	C	-0.354605	-1.518489	0.115269
C82	C	0.145395	-1.018489	0.615269
C83	C	-0.307547	-1.585617	0.950671
C84	C	0.192453	-1.085617	1.450671
C85	C	-0.307571	-1.585685	1.060395
C86	C	0.192429	-1.085685	1.560395
C87	C	-0.401622	-1.451229	1.060413
C88	C	0.098378	-0.951229	1.560413
C89	C	-0.401601	-1.451167	0.950691
C90	C	0.098399	-0.951167	1.450691
H91	H	-0.924673	-1.640436	0.383966
H92	H	-0.424673	-1.140436	0.883966
C93	C	-0.453315	-1.377179	0.890354
C94	C	0.046685	-0.877179	1.390354
H95	H	-0.481328	-1.337160	0.938744
H96	H	0.018672	-0.837160	1.438744
H97	H	-0.485395	-1.417320	0.847484
H98	H	0.014605	-0.917320	1.347484
H99	H	-0.425122	-1.331398	0.847620
H100	H	0.074878	-0.831398	1.347620
C101	C	-0.255915	-0.903650	0.364815
C102	C	0.244085	-0.403650	0.864815
H103	H	-0.262644	-0.830448	0.374464
H104	H	0.237356	-0.330448	0.874464
H105	H	-0.266765	-0.921649	0.294242
H106	H	0.233235	-0.421649	0.794242
H107	H	-0.206446	-0.921601	0.380109
H108	H	0.293554	-0.421601	0.880109
H109	H	-0.269318	-1.118390	0.384007
H110	H	0.230682	-0.618390	0.884007
H111	H	-0.439921	-1.396521	1.105100
H112	H	0.060079	-0.896521	1.605100
H113	H	-0.439819	-0.919399	0.628156
H114	H	0.060181	-0.419399	1.128156
H115	H	-0.785246	-1.640416	0.384020
H116	H	-0.285246	-1.140416	0.884020
H117	H	-0.924624	-1.396559	0.627761
H118	H	-0.424624	-0.896559	1.127761
H119	H	-0.269243	-1.640331	0.906000
H120	H	0.230757	-1.140331	1.406000
H121	H	-0.439793	-1.118446	0.628151
H122	H	0.060207	-0.618446	1.128151
H123	H	-0.785182	-1.396517	0.627815
H124	H	-0.285182	-0.896517	1.127815
H125	H	-0.269291	-1.640454	1.105047
H126	H	0.230709	-1.140454	1.605047
