data_functionalizedCrystal
_audit_creation_method	'MofGen! by Chris Wilmer'
_symmetry_space_group_name_H-M	'P1'
_symmetry_Int_Tables_number	1
_symmetry_cell_setting	triclinic
loop_
_symmetry_equiv_pos_as_xyz
  x,y,z
_cell_length_a	27.732048
_cell_length_b	18.366186
_cell_length_c	19.288857
_cell_angle_alpha	89.991598
_cell_angle_beta	82.887882
_cell_angle_gamma	89.996446
loop_
_atom_site_label
_atom_site_type_symbol
_atom_site_fract_x
_atom_site_fract_y
_atom_site_fract_z
O1	O	0.641178	-0.060459	0.082650
O2	O	1.141178	0.439541	0.582650
O3	O	0.500423	-0.060482	0.095216
O4	O	1.000423	0.439518	0.595216
O5	O	0.574870	-0.060461	-0.012223
O6	O	1.074870	0.439539	0.487777
O7	O	0.566731	-0.060480	0.190089
O8	O	1.066731	0.439520	0.690089
O9	O	0.574857	0.060638	-0.012228
O10	O	1.074857	0.560638	0.487772
O11	O	0.500410	0.060618	0.095211
O12	O	1.000410	0.560618	0.595211
O13	O	0.641166	0.060640	0.082644
O14	O	1.141166	0.560640	0.582644
Zn15	Zn	0.570786	0.079856	0.088927
Zn16	Zn	1.070786	0.579856	0.588927
Zn17	Zn	0.570802	-0.079698	0.088934
Zn18	Zn	1.070802	0.420302	0.588934
O19	O	0.566719	0.060619	0.190084
O20	O	1.066719	0.560619	0.690084
C21	C	0.482409	0.000065	0.094950
C22	C	0.982409	0.500065	0.594950
C23	C	0.428751	0.000057	0.094156
C24	C	0.928751	0.500057	0.594156
N25	N	0.570778	0.188747	0.088922
N26	N	1.070778	0.688747	0.588922
N27	N	0.570814	-0.188589	0.088933
N28	N	1.070814	0.311411	0.588933
C29	C	0.090112	0.000083	0.152645
C30	C	0.590112	0.500083	0.652645
C31	C	-0.111557	0.000090	0.149697
C32	C	0.388443	0.500090	0.649697
O33	O	-0.142652	0.000116	0.203181
O34	O	0.357348	0.500116	0.703181
N35	N	-0.130872	0.000094	0.085990
N36	N	0.369128	0.500094	0.585990
C37	C	-0.099766	0.000102	0.023015
C38	C	0.400234	0.500102	0.523015
O39	O	-0.120822	0.000114	-0.031239
O40	O	0.379178	0.500114	0.468761
C41	C	0.101901	0.000100	0.025963
C42	C	0.601901	0.500100	0.525963
C43	C	0.121213	0.000088	0.089675
C44	C	0.621213	0.500088	0.589675
C45	C	0.109424	0.000072	0.216351
C46	C	0.609424	0.500072	0.716351
C47	C	0.159838	0.000066	0.217087
C48	C	0.659838	0.500066	0.717087
C49	C	0.190940	0.000072	0.154117
C50	C	0.690940	0.500072	0.654117
C51	C	0.171628	0.000083	0.090411
C52	C	0.671628	0.500083	0.590411
C53	C	0.133006	0.000113	-0.037011
C54	C	0.633006	0.500113	0.462989
C55	C	0.183426	0.000115	-0.036268
C56	C	0.683426	0.500115	0.463732
C57	C	0.202738	0.000103	0.027443
C58	C	0.702738	0.500103	0.527443
C59	C	0.253143	0.000083	0.028177
C60	C	0.753143	0.500083	0.528177
N61	N	0.272458	0.000078	0.091884
N62	N	0.772458	0.500078	0.591884
C63	C	0.241357	0.000073	0.154854
C64	C	0.741357	0.500073	0.654854
C65	C	-0.205645	0.000101	0.021472
C66	C	0.294355	0.500101	0.521472
C67	C	-0.256061	0.000101	0.020735
C68	C	0.243939	0.500101	0.520735
C69	C	-0.267849	0.000090	0.147417
C70	C	0.232151	0.500090	0.647417
C71	C	-0.217431	0.000085	0.148154
C72	C	0.282569	0.500085	0.648154
C73	C	-0.186330	0.000097	0.085179
C74	C	0.313670	0.500097	0.585179
C75	C	0.347231	0.000060	0.156395
C76	C	0.847231	0.500060	0.656395
C77	C	0.397650	0.000051	0.157126
C78	C	0.897650	0.500051	0.657126
C79	C	0.409432	0.000066	0.030444
C80	C	0.909432	0.500066	0.530444
C81	C	0.359018	0.000071	0.029713
C82	C	0.859018	0.500071	0.529713
C83	C	0.327917	0.000070	0.092694
C84	C	0.827917	0.500070	0.592694
O85	O	0.284267	0.000064	-0.025278
O86	O	0.784267	0.500064	0.474722
O87	O	0.262422	0.000077	0.209101
O88	O	0.762422	0.500077	0.709101
C89	C	0.039698	0.000089	0.151909
C90	C	0.539698	0.500089	0.651909
C91	C	0.020385	0.000100	0.088202
C92	C	0.520385	0.500100	0.588202
C93	C	0.051487	0.000105	0.025232
C94	C	0.551487	0.500105	0.525232
C95	C	-0.030032	0.000099	0.087465
C96	C	0.469968	0.500099	0.587465
C97	C	-0.061133	0.000093	0.150435
C98	C	0.438867	0.500093	0.650435
C99	C	-0.041818	0.000089	0.214142
C100	C	0.458182	0.500089	0.714142
C101	C	0.008596	0.000083	0.214879
C102	C	0.508596	0.500083	0.714879
C103	C	0.032172	0.000110	-0.038475
C104	C	0.532172	0.500110	0.461525
C105	C	-0.018243	0.000115	-0.039206
C106	C	0.481757	0.500115	0.460794
C107	C	-0.049345	0.000109	0.023764
C108	C	0.450655	0.500109	0.523764
C109	C	0.659180	0.000092	0.082911
C110	C	1.159180	0.500092	0.582911
C111	C	0.712837	0.000095	0.083705
C112	C	1.212837	0.500095	0.583705
C113	C	0.574602	0.000089	-0.038101
C114	C	1.074602	0.500089	0.461899
C115	C	0.573818	0.000091	-0.115200
C116	C	1.073818	0.500091	0.384800
C117	C	0.603754	0.226857	0.041371
C118	C	1.103754	0.726857	0.541371
C119	C	0.603757	0.303084	0.041368
C120	C	1.103757	0.803084	0.541368
C121	C	0.570789	0.341200	0.088928
C122	C	1.070789	0.841200	0.588928
C123	C	0.537807	0.303081	0.136482
C124	C	1.037807	0.803081	0.636482
C125	C	0.537801	0.226855	0.136479
C126	C	1.037801	0.726855	0.636479
C127	C	0.564317	0.461954	0.152256
C128	C	1.064317	0.961954	0.652256
C129	C	0.564326	0.538179	0.152260
C130	C	1.064326	1.038179	0.652260
C131	C	0.570802	0.576307	0.088936
C132	C	1.070802	1.076307	0.588936
C133	C	0.577281	0.538202	0.025606
C134	C	1.077281	1.038202	0.525606
C135	C	0.577276	0.461975	0.025603
C136	C	1.077276	0.961975	0.525603
C137	C	0.570791	0.423855	0.088936
C138	C	1.070791	0.923855	0.588936
C139	C	0.603783	0.697072	0.041378
C140	C	1.103783	1.197072	0.541378
C141	C	0.603783	0.773301	0.041374
C142	C	1.103783	1.273301	0.541374
C143	C	0.537835	0.773296	0.136494
C144	C	1.037835	1.273296	0.636494
C145	C	0.537833	0.697068	0.136492
C146	C	1.037833	1.197068	0.636492
C147	C	0.570810	0.658961	0.088935
C148	C	1.070810	1.158961	0.588935
C149	C	0.573459	-0.065920	-0.151405
C150	C	1.073459	0.434080	0.348595
C151	C	0.572715	-0.065926	-0.223846
C152	C	1.072715	0.434074	0.276154
C153	C	0.572340	0.000084	-0.260082
C154	C	1.072340	0.500084	0.239918
C155	C	0.572697	0.066104	-0.223867
C156	C	1.072697	0.566104	0.276133
C157	C	0.573435	0.066108	-0.151426
C158	C	1.073435	0.566108	0.348574
C159	C	0.599477	0.050656	-0.380484
C160	C	1.099477	0.550656	0.119516
C161	C	0.598741	0.050649	-0.452925
C162	C	1.098741	0.550649	0.047075
C163	C	0.570059	0.000075	-0.483513
C164	C	1.070059	0.500075	0.016487
C165	C	0.542120	-0.050505	-0.441654
C166	C	1.042120	0.449495	0.058346
C167	C	0.542859	-0.050501	-0.369213
C168	C	1.042859	0.449499	0.130787
C169	C	0.571539	0.000087	-0.338632
C170	C	1.071539	0.500087	0.161368
C171	C	0.568893	-0.065947	-0.598268
C172	C	1.068893	0.434053	-0.098268
C173	C	0.568146	-0.065950	-0.670710
C174	C	1.068146	0.434050	-0.170710
C175	C	0.568133	0.066082	-0.670730
C176	C	1.068133	0.566082	-0.170730
C177	C	0.568874	0.066083	-0.598288
C178	C	1.068874	0.566083	-0.098288
C179	C	0.569257	0.000067	-0.562062
C180	C	1.069257	0.500067	-0.062062
C181	C	0.566986	0.000067	0.215961
C182	C	1.066986	0.500067	0.715961
C183	C	0.567770	0.000061	0.293060
C184	C	1.067770	0.500061	0.793060
H185	H	0.413370	0.000041	0.209009
H186	H	0.913370	0.500041	0.709009
Cl187	Cl	0.645207	0.178950	-0.018418
Cl188	Cl	1.145207	0.678950	0.481582
Cl189	Cl	0.572263	-0.148918	-0.269372
Cl190	Cl	1.072263	0.351082	0.230628
Cl191	Cl	0.071264	0.000117	-0.117646
Cl192	Cl	0.571264	0.500117	0.382354
Cl193	Cl	0.308141	0.000058	0.235573
Cl194	Cl	0.808141	0.500058	0.735573
Cl195	Cl	0.506058	-0.114085	-0.480098
Cl196	Cl	1.006058	0.385915	0.019902
Cl197	Cl	0.569370	-0.148937	-0.552722
Cl198	Cl	1.069370	0.351063	-0.052722
H199	H	0.024315	0.000074	0.266759
H200	H	0.524315	0.500074	0.766759
H201	H	0.175557	0.000056	0.268967
H202	H	0.675557	0.500056	0.768967
H203	H	0.520108	-0.091683	-0.335133
H204	H	1.020108	0.408317	0.164867
Cl205	Cl	0.108741	0.000116	-0.117110
Cl206	Cl	0.608741	0.500116	0.382890
Cl207	Cl	0.569326	0.149074	-0.552770
Cl208	Cl	1.069326	0.649074	-0.052770
H209	H	0.573726	0.119864	-0.121947
H210	H	1.073726	0.619864	0.378053
H211	H	0.084106	0.000070	0.267631
H212	H	0.584106	0.500070	0.767631
Cl213	Cl	0.633866	0.114232	-0.505541
Cl214	Cl	1.133866	0.614232	-0.005541
Cl215	Cl	0.635550	0.114224	-0.342041
Cl216	Cl	1.135550	0.614224	0.157959
Cl217	Cl	0.572221	0.149088	-0.269417
Cl218	Cl	1.072221	0.649088	0.230583
H219	H	-0.201711	0.000080	0.200033
H220	H	0.298289	0.500080	0.700033
Cl221	Cl	0.567691	-0.148943	-0.716225
Cl222	Cl	1.067691	0.351057	-0.216225
H223	H	-0.033961	0.000119	-0.091091
H224	H	0.466039	0.500119	0.408909
Cl225	Cl	0.645217	0.351002	-0.018416
Cl226	Cl	1.145217	0.851002	0.481584
H227	H	-0.293180	0.000085	0.198690
H228	H	0.206820	0.500085	0.698690
H229	H	0.343293	0.000070	-0.022166
H230	H	0.843293	0.500070	0.477834
H231	H	0.582549	0.430953	-0.025962
H232	H	1.082549	0.930953	0.474038
Cl233	Cl	0.222522	0.000131	-0.115441
Cl234	Cl	0.722522	0.500131	0.384559
Cl235	Cl	0.585428	0.586126	-0.054006
Cl236	Cl	1.085428	1.086126	0.445994
Cl237	Cl	-0.280333	0.000097	-0.059362
Cl238	Cl	0.219667	0.500097	0.440638
Cl239	Cl	0.496378	0.649155	0.196277
Cl240	Cl	0.996378	1.149155	0.696277
Cl241	Cl	-0.166552	0.000114	-0.057704
Cl242	Cl	0.333448	0.500114	0.442296
H243	H	0.434764	0.000068	-0.020825
H244	H	0.934764	0.500068	0.479175
Cl245	Cl	0.645237	0.649164	-0.018412
Cl246	Cl	1.145237	1.149164	0.481588
Cl247	Cl	0.496386	0.821207	0.196279
Cl248	Cl	0.996386	1.321207	0.696279
H249	H	0.630635	0.804330	0.002648
H250	H	1.130635	1.304330	0.502648
Cl251	Cl	-0.080927	0.000079	0.293304
Cl252	Cl	0.419073	0.500079	0.793304
Cl253	Cl	0.556185	0.586075	0.231873
Cl254	Cl	1.056185	1.086075	0.731873
H255	H	0.559034	0.430915	0.203825
H256	H	1.059034	0.930915	0.703825
H257	H	0.567824	0.119829	-0.700231
H258	H	1.067824	0.619829	-0.200231
H259	H	0.510963	0.334118	0.175205
H260	H	1.010963	0.834118	0.675205
Cl261	Cl	0.496343	0.178942	0.196264
Cl262	Cl	0.996343	0.678942	0.696264
H263	H	0.573769	-0.119676	-0.121914
H264	H	1.073769	0.380324	0.378086
