data_functionalizedCrystal
_audit_creation_method	'MofGen! by Chris Wilmer'
_symmetry_space_group_name_H-M	'P1'
_symmetry_Int_Tables_number	1
_symmetry_cell_setting	triclinic
loop_
_symmetry_equiv_pos_as_xyz
  x,y,z
_cell_length_a	10.489716
_cell_length_b	10.489741
_cell_length_c	9.565339
_cell_angle_alpha	89.999484
_cell_angle_beta	89.996780
_cell_angle_gamma	95.465845
loop_
_atom_site_label
_atom_site_type_symbol
_atom_site_fract_x
_atom_site_fract_y
_atom_site_fract_z
O1	O	1.694071	-0.179810	-0.116248
O2	O	1.322871	-0.196735	-0.116253
O3	O	1.516918	-0.002674	-0.116242
O4	O	1.500025	-0.373871	-0.116259
O5	O	1.516902	-0.002686	0.116278
O6	O	1.322856	-0.196747	0.116267
O7	O	1.694056	-0.179822	0.116272
Zn8	Zn	1.508453	-0.188286	0.153187
Zn9	Zn	1.508474	-0.188271	-0.153168
O10	O	1.500009	-0.373883	0.116261
C11	C	1.275332	-0.195470	0.000006
C12	C	1.133701	-0.191665	0.000005
C13	C	1.036027	-0.310669	-0.000004
C14	C	0.958673	-0.247791	0.114650
C15	C	0.958695	-0.247751	-0.114597
C16	C	1.058213	-0.128836	0.114753
C17	C	1.058240	-0.128814	-0.114597
C18	C	0.980935	-0.065848	0.000085
C19	C	1.515634	0.044852	0.000017
C20	C	1.511817	0.186481	0.000015
C21	C	1.741596	-0.181087	0.000010
C22	C	1.883227	-0.184892	0.000002
C23	C	1.501293	-0.421409	-0.000001
C24	C	1.505110	-0.563038	-0.000008
N25	N	1.508449	-0.188297	0.362267
C26	C	1.388351	0.254610	0.000003
C27	C	1.446668	0.346732	0.114648
C28	C	1.446712	0.346718	-0.114599
C29	C	1.570184	0.276737	0.114754
C30	C	1.570212	0.276714	-0.114595
C31	C	1.628618	0.368808	0.000078
N32	N	1.508488	-0.188250	-0.362247
C33	C	1.418681	-0.278013	0.453465
C34	C	1.534180	-0.303814	0.546644
C35	C	1.393001	-0.162506	0.546643
C36	C	1.624006	-0.214155	0.453394
C37	C	1.482750	-0.072797	0.453385
C38	C	1.598332	-0.098549	0.546522
H39	H	1.101522	-0.078633	0.211779
H40	H	0.956505	0.037744	0.000156
H41	H	1.622374	0.245905	0.211787
C42	C	1.316225	-0.380596	0.398247
C43	C	1.206117	-0.341207	0.306175
C44	C	1.103669	-0.443791	0.250954
C45	C	1.111328	-0.585764	0.287805
C46	C	1.221441	-0.625160	0.379881
C47	C	1.323889	-0.522576	0.435102
H48	H	1.200443	-0.236104	0.278892
H49	H	1.022156	-0.414627	0.182793
H50	H	1.035490	-0.661703	0.246927
H51	H	1.227115	-0.730263	0.407164
H52	H	1.405401	-0.551740	0.503263
H53	H	1.394461	0.377683	-0.211532
C54	C	1.755955	-0.243766	0.398310
C55	C	1.876537	-0.155147	0.436190
C56	C	2.008481	-0.184765	0.381104
C57	C	2.019842	-0.303001	0.288138
C58	C	1.899256	-0.391627	0.250253
C59	C	1.767312	-0.362009	0.305339
H60	H	1.868131	-0.067615	0.505013
H61	H	2.097747	-0.119157	0.409149
H62	H	2.117515	-0.324925	0.247361
H63	H	1.907662	-0.479159	0.181430
H64	H	1.678046	-0.427617	0.277294
H65	H	1.060696	-0.414185	0.000098
C66	C	1.117034	-0.061016	-0.245546
C67	C	1.193919	-0.135174	-0.349900
C68	C	1.252714	-0.067396	-0.480868
C69	C	1.234624	0.074540	-0.507481
C70	C	1.157735	0.148707	-0.403124
C71	C	1.098940	0.080928	-0.272157
H72	H	1.207314	-0.240251	-0.330202
H73	H	1.309633	-0.122299	-0.558119
H74	H	1.278148	0.124714	-0.604431
H75	H	1.144340	0.253784	-0.422823
H76	H	1.042021	0.135832	-0.194905
H77	H	0.915218	-0.298007	-0.211514
C78	C	1.640736	0.234772	-0.245534
C79	C	1.588930	0.261938	-0.392093
C80	C	1.659442	0.219991	-0.523045
C81	C	1.781760	0.150879	-0.507437
C82	C	1.833572	0.123710	-0.360872
C83	C	1.763060	0.165657	-0.229920
H84	H	1.498377	0.313102	-0.403652
H85	H	1.621086	0.240104	-0.631542
H86	H	1.833957	0.119828	-0.604375
H87	H	1.924125	0.072546	-0.349313
H88	H	1.801416	0.145544	-0.121423
H89	H	1.286838	0.204950	0.000117
H90	H	0.915184	-0.298033	0.211574
H91	H	1.394420	0.377734	0.211571
H92	H	1.730222	0.418241	0.000143
H93	H	1.555942	-0.401469	0.587607
H94	H	1.674346	-0.022655	0.587125
H95	H	1.460952	0.024827	0.412389
H96	H	1.295352	-0.140714	0.587606
