data_functionalizedCrystal
_audit_creation_method	'MofGen! by Chris Wilmer'
_symmetry_space_group_name_H-M	'P1'
_symmetry_Int_Tables_number	1
_symmetry_cell_setting	triclinic
loop_
_symmetry_equiv_pos_as_xyz
  x,y,z
_cell_length_a	6.817900
_cell_length_b	10.773890
_cell_length_c	14.858572
_cell_angle_alpha	96.150028
_cell_angle_beta	104.524003
_cell_angle_gamma	96.645716
loop_
_atom_site_label
_atom_site_type_symbol
_atom_site_fract_x
_atom_site_fract_y
_atom_site_fract_z
V1	V	-4.003650	-0.173375	-0.288438
V2	V	-3.670317	0.159958	0.044895
V3	V	-3.336984	0.493291	0.378228
O4	O	-4.027117	0.007524	-0.284507
O5	O	-3.693784	0.340857	0.048827
O6	O	-3.360450	0.674190	0.382160
O7	O	-3.921170	-0.342997	-0.284966
O8	O	-3.587837	-0.009664	0.048367
O9	O	-3.254503	0.323669	0.381700
O10	O	-3.960753	-0.171063	-0.414920
O11	O	-3.627419	0.162270	-0.081587
O12	O	-3.294086	0.495604	0.251746
O13	O	-3.987260	-0.165601	-0.153653
O14	O	-3.653927	0.167732	0.179680
O15	O	-3.320593	0.501066	0.513014
V16	V	-4.490981	-0.151696	-0.272499
V17	V	-4.157648	0.181637	0.060834
V18	V	-3.824315	0.514971	0.394168
O19	O	-4.256556	-0.220931	-0.323403
O20	O	-3.923222	0.112402	0.009931
O21	O	-3.589889	0.445735	0.343264
O22	O	-4.688273	-0.104140	-0.237535
O23	O	-4.354940	0.229193	0.095798
O24	O	-4.021607	0.562526	0.429132
O25	O	-4.350255	0.017926	-0.275971
O26	O	-4.016922	0.351259	0.057362
O27	O	-3.683588	0.684593	0.390696
O28	O	-4.584911	-0.332595	-0.276431
O29	O	-4.251578	0.000738	0.056902
O30	O	-3.918245	0.334072	0.390236
O31	O	-4.624768	-0.159470	-0.407284
O32	O	-4.291435	0.173863	-0.073951
O33	O	-3.958102	0.507196	0.259382
O34	O	-4.310672	-0.154008	-0.146017
O35	O	-3.977339	0.179325	0.187316
O36	O	-3.644006	0.512658	0.520650
C37	C	-3.757702	-0.384337	-0.280029
C38	C	-3.424369	-0.051003	0.053304
C39	C	-3.091035	0.282330	0.386637
C40	C	-3.771588	-0.523007	-0.278034
C41	C	-3.438255	-0.189674	0.055300
C42	C	-3.104921	0.143660	0.388633
C43	C	-3.808193	-0.165016	-0.445797
C44	C	-3.474860	0.168318	-0.112464
C45	C	-3.141526	0.501651	0.220869
C46	C	-3.854177	-0.164247	-0.549187
C47	C	-3.520844	0.169086	-0.215854
C48	C	-3.187511	0.502419	0.117480
C49	C	-3.949814	-0.590879	-0.281501
C50	C	-3.616480	-0.257546	0.051832
C51	C	-3.283147	0.075787	0.385165
C52	C	-3.964170	-0.734203	-0.279439
C53	C	-3.630836	-0.400869	0.053894
C54	C	-3.297503	-0.067536	0.387228
C55	C	-4.022481	-0.161439	-0.927780
C56	C	-3.689148	0.171894	-0.594446
C57	C	-3.355814	0.505227	-0.261113
C58	C	-3.975645	-0.162221	-0.822444
C59	C	-3.642312	0.171113	-0.489110
C60	C	-3.308979	0.504446	-0.155777
C61	C	-3.938330	-0.162845	-0.738487
C62	C	-3.604997	0.170489	-0.405154
C63	C	-3.271664	0.503822	-0.071820
C64	C	-3.891492	-0.163624	-0.633144
C65	C	-3.558159	0.169710	-0.299810
C66	C	-3.224826	0.503043	0.033523
C67	C	-4.177064	0.059259	-0.280906
C68	C	-3.843730	0.392592	0.052428
C69	C	-3.510397	0.725925	0.385761
C70	C	-4.142416	0.197928	-0.282907
C71	C	-3.809082	0.531261	0.050426
C72	C	-3.475749	0.864594	0.383759
C73	C	-4.126573	-0.160060	-0.115135
C74	C	-3.793240	0.173273	0.218198
C75	C	-3.459907	0.506607	0.551531
C76	C	-4.059828	-0.160822	-0.011745
C77	C	-3.726495	0.172511	0.321589
C78	C	-3.393162	0.505845	0.654922
H79	H	-4.091774	-0.542882	-0.286002
H80	H	-3.758440	-0.209549	0.047331
H81	H	-3.425107	0.123785	0.380664
H82	H	-3.822202	-0.782197	-0.274948
H83	H	-3.488868	-0.448864	0.058385
H84	H	-3.155535	-0.115530	0.391719
H85	H	-3.629633	-0.571007	-0.273543
H86	H	-3.296300	-0.237673	0.059790
H87	H	-2.962966	0.095660	0.393124
H88	H	-4.284390	-0.754082	-0.287407
H89	H	-3.951057	-0.420748	0.045926
H90	H	-3.617723	-0.087415	0.379260
