data_functionalizedCrystal
_audit_creation_method	'MofGen! by Chris Wilmer'
_symmetry_space_group_name_H-M	'P1'
_symmetry_Int_Tables_number	1
_symmetry_cell_setting	triclinic
loop_
_symmetry_equiv_pos_as_xyz
  x,y,z
_cell_length_a	15.944551
_cell_length_b	15.944493
_cell_length_c	12.996460
_cell_angle_alpha	89.994981
_cell_angle_beta	89.992903
_cell_angle_gamma	83.486891
loop_
_atom_site_label
_atom_site_type_symbol
_atom_site_fract_x
_atom_site_fract_y
_atom_site_fract_z
O1	O	0.108102	1.114556	-0.085555
O2	O	0.358102	1.364556	0.164445
O3	O	0.608102	1.614556	0.414445
O4	O	0.858102	1.864556	0.664445
O5	O	0.121509	0.869999	-0.085561
O6	O	0.371509	1.119999	0.164439
O7	O	0.621509	1.369999	0.414439
O8	O	0.871509	1.619999	0.664439
O9	O	-0.007471	0.998956	-0.085549
O10	O	0.242529	1.248956	0.164451
O11	O	0.492529	1.498956	0.414451
O12	O	0.742529	1.748956	0.664451
O13	O	0.237081	0.985599	-0.085567
O14	O	0.487081	1.235599	0.164433
O15	O	0.737081	1.485599	0.414433
O16	O	0.987081	1.735599	0.664433
O17	O	-0.007478	0.998942	0.085585
O18	O	0.242522	1.248942	0.335585
O19	O	0.492522	1.498942	0.585585
O20	O	0.742522	1.748942	0.835585
O21	O	0.121502	0.869986	0.085573
O22	O	0.371502	1.119986	0.335573
O23	O	0.621502	1.369986	0.585573
O24	O	0.871502	1.619986	0.835573
O25	O	0.108095	1.114542	0.085578
O26	O	0.358095	1.364542	0.335578
O27	O	0.608095	1.614542	0.585578
O28	O	0.858095	1.864542	0.835578
Cu29	Cu	0.114797	0.992263	0.101202
Cu30	Cu	0.364797	1.242263	0.351202
Cu31	Cu	0.614797	1.492263	0.601202
Cu32	Cu	0.864797	1.742263	0.851202
Cu33	Cu	0.114806	0.992279	-0.101184
Cu34	Cu	0.364806	1.242279	0.148816
Cu35	Cu	0.614806	1.492279	0.398816
Cu36	Cu	0.864806	1.742279	0.648816
O37	O	0.237074	0.985586	0.085566
O38	O	0.487074	1.235586	0.335566
O39	O	0.737074	1.485586	0.585566
O40	O	0.987074	1.735586	0.835566
C41	C	0.120957	0.838698	0.000006
C42	C	0.370957	1.088698	0.250006
C43	C	0.620957	1.338698	0.500006
C44	C	0.870957	1.588698	0.750006
C45	C	0.119314	0.745449	0.000004
C46	C	0.369314	0.995449	0.250004
C47	C	0.619314	1.245449	0.500004
C48	C	0.869314	1.495449	0.750004
C49	C	0.195235	0.509689	-0.000003
C50	C	0.445235	0.759689	0.249997
C51	C	0.695235	1.009689	0.499997
C52	C	0.945235	1.259689	0.749997
C53	C	0.154290	0.459124	0.084383
C54	C	0.404290	0.709124	0.334383
C55	C	0.654290	0.959124	0.584383
C56	C	0.904290	1.209124	0.834383
C57	C	0.116270	0.574728	0.000006
C58	C	0.366270	0.824728	0.250006
C59	C	0.616270	1.074728	0.500006
C60	C	0.866270	1.324728	0.750006
C61	C	0.154279	0.459142	-0.084342
C62	C	0.404279	0.709142	0.165658
C63	C	0.654279	0.959142	0.415658
C64	C	0.904279	1.209142	0.665658
C65	C	0.113336	0.409819	0.000004
C66	C	0.363336	0.659819	0.250004
C67	C	0.613336	0.909819	0.500004
C68	C	0.863336	1.159819	0.750004
C69	C	0.075347	0.525391	0.084461
C70	C	0.325347	0.775391	0.334461
C71	C	0.575347	1.025391	0.584461
C72	C	0.825347	1.275391	0.834461
C73	C	0.075347	0.525413	-0.084339
C74	C	0.325347	0.775413	0.165661
C75	C	0.575347	1.025413	0.415661
C76	C	0.825347	1.275413	0.665661
C77	C	0.034345	0.474880	0.000067
C78	C	0.284345	0.724880	0.250067
C79	C	0.534345	0.974880	0.500067
C80	C	0.784345	1.224880	0.750067
C81	C	0.117963	0.669728	0.000008
C82	C	0.367963	0.919728	0.250008
C83	C	0.617963	1.169728	0.500008
C84	C	0.867963	1.419728	0.750008
C85	C	0.111637	0.314821	0.000009
C86	C	0.361637	0.564821	0.250009
C87	C	0.611637	0.814821	0.500009
C88	C	0.861637	1.064821	0.750009
C89	C	-0.038768	0.998395	0.000018
C90	C	0.211232	1.248395	0.250018
C91	C	0.461232	1.498395	0.500018
C92	C	0.711232	1.748395	0.750018
C93	C	-0.132014	0.996732	0.000019
C94	C	0.117986	1.246732	0.250019
C95	C	0.367986	1.496732	0.500019
C96	C	0.617986	1.746732	0.750019
C97	C	-0.346853	0.912826	0.000003
C98	C	-0.096853	1.162826	0.250003
C99	C	0.153147	1.412826	0.500003
C100	C	0.403147	1.662826	0.750003
C101	C	-0.407882	0.951782	0.084383
C102	C	-0.157882	1.201782	0.334383
C103	C	0.092118	1.451782	0.584383
C104	C	0.342118	1.701782	0.834383
C105	C	-0.302739	0.993725	0.000011
C106	C	-0.052739	1.243725	0.250011
C107	C	0.197261	1.493725	0.500011
C108	C	0.447261	1.743725	0.750011
C109	C	-0.407859	0.951815	-0.084341
C110	C	-0.157859	1.201815	0.165659
C111	C	0.092141	1.451815	0.415659
C112	C	0.342141	1.701815	0.665659
C113	C	-0.467651	0.990814	-0.000001
C114	C	-0.217651	1.240814	0.249999
C115	C	0.032349	1.490814	0.499999
C116	C	0.282349	1.740814	0.749999
C117	C	-0.362540	1.032704	0.084461
C118	C	-0.112540	1.282704	0.334461
C119	C	0.137460	1.532704	0.584461
C120	C	0.387460	1.782704	0.834461
C121	C	-0.362510	1.032725	-0.084340
C122	C	-0.112510	1.282725	0.165660
C123	C	0.137490	1.532725	0.415660
C124	C	0.387490	1.782725	0.665660
C125	C	-0.423521	1.071741	0.000061
C126	C	-0.173521	1.321741	0.250061
C127	C	0.076479	1.571741	0.500061
C128	C	0.326479	1.821741	0.750061
C129	C	-0.207737	0.995399	0.000019
C130	C	0.042263	1.245399	0.250019
C131	C	0.292263	1.495399	0.500019
C132	C	0.542263	1.745399	0.750019
C133	C	-0.562652	0.989146	-0.000002
C134	C	-0.312652	1.239146	0.249998
C135	C	-0.062652	1.489146	0.499998
C136	C	0.187348	1.739146	0.749998
C137	C	0.268372	0.986147	-0.000003
C138	C	0.518372	1.236147	0.249997
C139	C	0.768372	1.486147	0.499997
C140	C	1.018372	1.736147	0.749997
C141	C	0.361617	0.987809	-0.000010
C142	C	0.611617	1.237809	0.249990
C143	C	0.861617	1.487809	0.499990
C144	C	1.111617	1.737809	0.749990
C145	C	0.108646	1.145844	0.000010
C146	C	0.358646	1.395844	0.250010
C147	C	0.608646	1.645844	0.500010
C148	C	0.858646	1.895844	0.750010
C149	C	0.110289	1.239092	0.000005
C150	C	0.360289	1.489092	0.250005
C151	C	0.610289	1.739092	0.500005
C152	C	0.860289	1.989092	0.750005
N153	N	0.114791	0.992258	0.243549
N154	N	0.364791	1.242258	0.493549
N155	N	0.614791	1.492258	0.743549
N156	N	0.864791	1.742258	0.993549
N157	N	0.114806	0.992290	-0.243531
N158	N	0.364806	1.242290	0.006469
N159	N	0.614806	1.492290	0.256469
N160	N	0.864806	1.742290	0.506469
C161	C	0.114807	0.992278	0.663363
C162	C	0.364807	1.242278	0.913363
C163	C	0.614807	1.492278	1.163363
C164	C	0.864807	1.742278	1.413363
C165	C	0.114805	0.992270	0.546558
C166	C	0.364805	1.242270	0.796558
C167	C	0.614805	1.492270	1.046558
C168	C	0.864805	1.742270	1.296558
C169	C	0.114800	0.992268	0.453460
C170	C	0.364800	1.242268	0.703460
C171	C	0.614800	1.492268	0.953460
C172	C	0.864800	1.742268	1.203460
C173	C	0.114797	0.992259	0.336647
C174	C	0.364797	1.242259	0.586647
C175	C	0.614797	1.492259	0.836647
C176	C	0.864797	1.742259	1.086647
H177	H	0.187646	0.430209	-0.155673
H178	H	0.437646	0.680209	0.094327
H179	H	0.687646	0.930209	0.344327
H180	H	0.937646	1.180209	0.594327
H181	H	-0.033726	0.459415	0.000121
H182	H	0.216274	0.709415	0.250121
H183	H	0.466274	0.959415	0.500121
H184	H	0.716274	1.209415	0.750121
O185	O	-0.335877	1.078068	-0.178813
O186	O	-0.085877	1.328068	0.071187
O187	O	0.164123	1.578068	0.321187
O188	O	0.414123	1.828068	0.571187
H189	H	-0.266441	1.079440	-0.177554
H190	H	-0.016441	1.329440	0.072446
H191	H	0.233559	1.579440	0.322446
H192	H	0.483559	1.829440	0.572446
H193	H	-0.342560	1.066887	0.155876
H194	H	-0.092560	1.316887	0.405876
H195	H	0.157440	1.566887	0.655876
H196	H	0.407440	1.816887	0.905876
H197	H	-0.427925	0.917593	-0.155683
H198	H	-0.177925	1.167593	0.094317
H199	H	0.072075	1.417593	0.344317
H200	H	0.322075	1.667593	0.594317
O201	O	0.031211	0.563564	0.179066
O202	O	0.281211	0.813564	0.429066
O203	O	0.531211	1.063564	0.679066
O204	O	0.781211	1.313564	0.929066
H205	H	0.063790	0.536333	0.248942
H206	H	0.313790	0.786333	0.498942
H207	H	0.563790	1.036333	0.748942
H208	H	0.813790	1.286333	0.998942
H209	H	0.042027	0.554364	-0.155678
H210	H	0.292027	0.804364	0.094322
H211	H	0.542027	1.054364	0.344322
H212	H	0.792027	1.304364	0.594322
H213	H	-0.456694	1.138950	0.000110
H214	H	-0.206694	1.388950	0.250110
H215	H	0.043306	1.638950	0.500110
H216	H	0.293306	1.888950	0.750110
O217	O	-0.302702	0.823884	0.000105
O218	O	-0.052702	1.073884	0.250105
O219	O	0.197298	1.323884	0.500105
O220	O	0.447298	1.573884	0.750105
H221	H	-0.320747	0.790497	0.070256
H222	H	-0.070747	1.040497	0.320256
H223	H	0.179253	1.290497	0.570256
H224	H	0.429253	1.540497	0.820256
H225	H	0.263254	0.525313	0.000071
H226	H	0.513254	0.775313	0.250071
H227	H	0.763254	1.025313	0.500071
H228	H	1.013254	1.275313	0.750071
H229	H	0.187635	0.430181	0.155718
H230	H	0.437635	0.680181	0.405718
H231	H	0.687635	0.930181	0.655718
H232	H	0.937635	1.180181	0.905718
H233	H	-0.427986	0.917560	0.155718
H234	H	-0.177986	1.167560	0.405718
H235	H	0.072014	1.417560	0.655718
H236	H	0.322014	1.667560	0.905718
