data_functionalizedCrystal
_audit_creation_method	'MofGen! by Chris Wilmer'
_symmetry_space_group_name_H-M	'P1'
_symmetry_Int_Tables_number	1
_symmetry_cell_setting	triclinic
loop_
_symmetry_equiv_pos_as_xyz
  x,y,z
_cell_length_a	8.965430
_cell_length_b	14.853567
_cell_length_c	14.853567
_cell_angle_alpha	83.634930
_cell_angle_beta	90.004215
_cell_angle_gamma	89.999157
loop_
_atom_site_label
_atom_site_type_symbol
_atom_site_fract_x
_atom_site_fract_y
_atom_site_fract_z
O1	O	0.123924	-1.196365	-0.117697
O2	O	0.123948	-0.933905	-0.131719
O3	O	0.123940	-1.072146	0.006522
O4	O	0.123932	-1.058124	-0.255938
O5	O	-0.124139	-1.072134	0.006512
O6	O	-0.124131	-0.933893	-0.131728
O7	O	-0.124155	-1.196353	-0.117707
Cu8	Cu	-0.146795	-1.065122	-0.124718
Cu9	Cu	0.146587	-1.065136	-0.124707
O10	O	-0.124147	-1.058113	-0.255947
C11	C	-0.000089	-0.900311	-0.131088
C12	C	-0.000079	-0.800227	-0.129184
N13	N	-0.353144	-1.065119	-0.124725
C14	C	-0.000096	-1.071504	0.040106
C15	C	-0.000082	-1.069601	0.140189
C16	C	-0.450446	-1.001168	-0.188636
C17	C	-0.549868	-1.082657	-0.206232
C18	C	-0.549849	-0.983664	-0.107137
C19	C	-0.450377	-1.146649	-0.142362
C20	C	-0.450349	-1.047603	-0.043232
C21	C	-0.549727	-1.129151	-0.060793
N22	N	0.352936	-1.065146	-0.124693
C23	C	-0.000116	-1.229947	-0.118337
C24	C	-0.000116	-1.330031	-0.120241
C25	C	-0.000109	-0.387693	-0.039019
C26	C	-0.000113	-0.366412	-0.203251
C27	C	-0.000108	-0.460446	-0.205042
C28	C	-0.000102	-0.518108	-0.123819
C29	C	-0.000100	-0.481736	-0.040806
C30	C	-0.000095	-0.496825	-0.288053
C31	C	-0.000088	-0.590864	-0.289846
C32	C	-0.000093	-0.648528	-0.208623
C33	C	-0.000093	-0.612150	-0.125607
C34	C	-0.000086	-0.669812	-0.044384
C35	C	-0.000097	-0.633437	0.038633
C36	C	-0.000105	-0.539399	0.040417
C37	C	-0.000085	-0.742565	-0.210407
C38	C	-0.000077	-0.763855	-0.046172
C39	C	-0.000109	-1.058754	-0.289531
C40	C	-0.000112	-1.060657	-0.389615
C41	C	-0.000103	-0.979435	0.552723
C42	C	-0.000117	-1.143668	0.574004
C43	C	-0.000109	-1.145458	0.479971
C44	C	-0.000099	-1.064235	0.422309
C45	C	-0.000098	-0.981223	0.458680
C46	C	-0.000125	-1.228469	0.443591
C47	C	-0.000118	-1.230262	0.349552
C48	C	-0.000098	-1.149039	0.291889
C49	C	-0.000095	-1.066023	0.328266
C50	C	-0.000086	-0.984800	0.270604
C51	C	-0.000072	-0.901783	0.306979
C52	C	-0.000078	-0.899999	0.401017
C53	C	-0.000092	-1.150823	0.197851
C54	C	-0.000082	-0.986588	0.176561
H55	H	-0.406854	-0.947136	-0.242732
H56	H	-0.593547	-0.914768	-0.092275
C57	C	-0.000071	-0.782574	-0.301720
N58	N	-0.000065	-0.812708	-0.370502
H59	H	-0.000079	-0.620472	-0.357443
C60	C	-0.000146	-1.317807	0.507024
N61	N	-0.000160	-1.385100	0.554806
H62	H	-0.000067	-0.920445	0.129618
H63	H	-0.000137	-1.209795	0.620958
C64	C	-0.000105	-0.499379	0.131728
N65	N	-0.000099	-0.469231	0.200502
C66	C	-0.608274	-1.202308	0.012237
N67	N	-0.652382	-1.257412	0.067237
C68	C	-0.000121	-1.321582	0.309548
N69	N	-0.000118	-1.390365	0.279416
H70	H	-0.000075	-0.835652	0.260019
C71	C	-0.000107	-1.242136	0.157842
N72	N	-0.000114	-1.310918	0.127709
H73	H	-0.593580	-1.097491	-0.275135
C74	C	-0.391602	-1.239745	-0.162556
N75	N	-0.347328	-1.309862	-0.177771
C76	C	-0.000095	-0.808688	0.441038
N77	N	-0.000120	-0.739914	0.471185
H78	H	-0.000086	-0.911844	0.582344
H79	H	-0.406603	-1.032743	0.025649
H80	H	-0.000078	-0.810798	0.019971
C81	C	-0.000094	-0.696877	0.127975
N82	N	-0.000096	-0.744663	0.195265
H83	H	-0.000124	-0.358072	0.028572
H84	H	-0.000105	-0.319459	-0.269379
H85	H	-0.000084	-0.449870	-0.354180
