data_functionalizedCrystal
_audit_creation_method	'MofGen! by Chris Wilmer'
_symmetry_space_group_name_H-M	'P1'
_symmetry_Int_Tables_number	1
_symmetry_cell_setting	triclinic
loop_
_symmetry_equiv_pos_as_xyz
  x,y,z
_cell_length_a	20.875492
_cell_length_b	19.377372
_cell_length_c	20.875641
_cell_angle_alpha	89.257912
_cell_angle_beta	60.662107
_cell_angle_gamma	70.063518
loop_
_atom_site_label
_atom_site_type_symbol
_atom_site_fract_x
_atom_site_fract_y
_atom_site_fract_z
Zr1	Zr	0.912682	0.543388	-0.213262
O2	O	1.012977	0.445310	-0.301536
O3	O	0.785941	0.577996	-0.182099
O4	O	0.916040	0.576313	-0.317451
O5	O	0.889450	0.443155	-0.064083
O6	O	0.948772	0.674484	-0.334671
O7	O	0.882877	0.446993	-0.166184
O8	O	0.716048	0.677495	-0.092551
O9	O	1.122174	0.440144	-0.306203
O10	O	0.872293	0.660533	-0.186616
O11	O	0.852771	0.584404	-0.097567
O12	O	1.005946	0.582423	-0.256927
O13	O	0.986424	0.506294	-0.167878
Zr14	Zr	0.975368	0.693839	-0.077885
Zr15	Zr	0.964885	0.699960	-0.240726
Zr16	Zr	0.923164	0.537267	-0.050421
Zr17	Zr	1.086839	0.535149	-0.220704
Zr18	Zr	0.801211	0.702078	-0.070443
O19	O	1.102109	0.659231	-0.109048
O20	O	1.087204	0.667935	-0.340586
O21	O	1.027882	0.436606	-0.069998
O22	O	0.875072	0.791917	0.010389
O23	O	0.860168	0.800621	-0.221149
O24	O	0.800845	0.569292	0.049439
O25	O	0.998599	0.794072	-0.227065
O26	O	0.972009	0.660914	0.026304
O27	O	0.939277	0.562743	0.043524
O28	O	1.005172	0.790234	-0.124963
O29	O	1.163669	0.564598	-0.328033
O30	O	0.724380	0.672629	0.036885
O31	O	0.765875	0.797083	0.015055
O32	O	0.757543	0.801949	-0.114381
O33	O	1.130507	0.435278	-0.176766
O34	O	1.172002	0.559732	-0.198596
O35	O	0.882103	0.654804	-0.034221
O36	O	0.901626	0.730933	-0.123269
O37	O	1.035279	0.652822	-0.193580
O38	O	1.015756	0.576694	-0.104532
C39	C	0.726181	0.628919	-0.136265
C40	C	0.652246	0.632417	-0.133105
C41	C	0.656036	0.579243	-0.180966
C42	C	0.586579	0.582532	-0.178025
C43	C	0.513332	0.638993	-0.127219
C44	C	0.509545	0.692172	-0.079356
C45	C	0.579002	0.688886	-0.082301
C46	C	0.301473	0.654703	-0.113124
C47	C	0.232013	0.657984	-0.110181
C48	C	0.309053	0.548344	-0.208852
C49	C	0.378507	0.545060	-0.211789
C50	C	0.374714	0.598242	-0.163929
N51	N	0.442335	0.642355	-0.124210
N52	N	0.445712	0.594882	-0.166942
C53	C	0.878726	0.422766	-0.111220
C54	C	0.856564	0.356297	-0.099561
C55	C	1.132495	-0.066170	-0.244725
C56	C	1.111653	-0.128617	-0.233759
C57	C	0.972129	-0.047066	-0.160359
C58	C	0.992960	0.015389	-0.171316
C59	C	1.073145	0.005831	-0.213500
C60	C	0.933610	0.087389	-0.140092
C61	C	0.954439	0.149839	-0.151051
C62	C	1.034620	0.140288	-0.193235
C63	C	1.093974	0.068280	-0.224459
C64	C	0.853426	0.096946	-0.097912
C65	C	0.794075	0.168947	-0.066688
C66	C	0.814905	0.231398	-0.077643
C67	C	0.895085	0.221847	-0.119826
C68	C	0.755550	0.303406	-0.046418
C69	C	0.776380	0.365855	-0.057377
C70	C	0.915915	0.284296	-0.130786
C71	C	1.161869	0.608308	-0.154883
C72	C	1.235803	0.604810	-0.158042
C73	C	0.930913	0.626271	-0.349262
C74	C	0.926463	0.628869	-0.418392
C75	C	1.009324	0.814461	-0.179927
C76	C	1.031485	0.880930	-0.191586
C77	C	0.994136	0.589319	-0.487571
C78	C	0.989952	0.591770	-0.552525
C79	C	0.918093	0.633769	-0.548298
C80	C	0.850416	0.673324	-0.479111
C81	C	0.854601	0.670876	-0.414160
C82	C	0.898095	0.645465	-0.738617
C83	C	0.893914	0.647908	-0.803576
C84	C	1.033451	0.566355	-0.876986
C85	C	1.037629	0.563908	-0.812029
C86	C	0.969953	0.603466	-0.742849
N87	N	0.913815	0.636274	-0.614690
N88	N	0.974234	0.600965	-0.676460
C89	C	0.957137	0.610956	0.058115
C90	C	0.961587	0.608357	0.127245
C91	C	0.791480	0.824767	-0.170618
C92	C	0.739707	0.894734	-0.179118
C93	C	0.739293	0.621262	0.067424
C94	C	0.669808	0.622161	0.139713
C95	C	0.804591	0.817110	0.033071
C96	C	0.757269	0.884478	0.093701
C97	C	1.083458	0.420117	-0.324218
C98	C	1.130780	0.352749	-0.384848
C99	C	1.096570	0.412460	-0.120529
C100	C	1.148342	0.342493	-0.112030
C101	C	1.148757	0.615965	-0.358571
C102	C	1.218241	0.615066	-0.430861
C103	C	0.700082	0.890843	-0.216182
C104	C	0.651443	0.956578	-0.224183
C105	C	0.642426	1.026203	-0.195115
C106	C	0.682057	1.030092	-0.158049
C107	C	0.730699	0.964358	-0.150053
C108	C	0.652490	0.659331	0.206734
C109	C	0.587211	0.660172	0.274664
C110	C	0.539249	0.623847	0.275571
C111	C	0.556573	0.586673	0.208543
C112	C	0.621853	0.585828	0.140615
C113	C	0.745239	0.955859	0.075690
C114	C	0.700786	1.019164	0.132651
C115	C	0.668359	1.011086	0.207622
C116	C	0.680394	0.939697	0.225633
C117	C	0.724851	0.876393	0.168672
C118	C	1.142819	0.281367	-0.366838
C119	C	1.187294	0.218061	-0.423799
C120	C	1.219724	0.226139	-0.498771
C121	C	1.207685	0.297529	-0.516781
C122	C	1.163216	0.360833	-0.459820
C123	C	1.187974	0.346384	-0.074972
C124	C	1.236631	0.280648	-0.066990
C125	C	1.245651	0.211023	-0.096061
C126	C	1.206017	0.207134	-0.133123
C127	C	1.157365	0.272869	-0.141110
C128	C	1.266185	0.651398	-0.431744
C129	C	1.331469	0.650568	-0.499663
C130	C	1.348810	0.613401	-0.566698
C131	C	1.300859	0.577068	-0.565813
C132	C	1.235573	0.577903	-0.497895
H133	H	0.589672	0.539231	-0.216998
O134	O	1.242663	0.306230	-0.597647
H135	H	1.284006	0.335300	-0.610940
H136	H	1.153414	0.418954	-0.474494
O137	O	1.106445	0.523694	-0.951599
H138	H	1.154185	0.544112	-0.963816
H139	H	1.197086	0.159939	-0.409121
O140	O	0.781605	0.713568	-0.339558
H141	H	0.793673	0.754851	-0.315330
H142	H	1.268895	0.283829	-0.036808
O143	O	0.297380	0.712055	-0.061501
H144	H	0.234776	0.751861	-0.025673
O145	O	1.002382	0.274051	-0.176304
H146	H	1.034602	0.240942	-0.149783
O147	O	1.267697	0.157858	-0.560206
H148	H	1.270614	0.106867	-0.535080
O149	O	1.178264	0.421475	-0.043628
H150	H	1.214012	0.413124	-0.016532
H151	H	0.715671	0.533258	-0.222329
H152	H	1.285269	0.157504	-0.089553
O153	O	0.737805	0.799408	0.188114
H154	H	0.802552	0.766524	0.162477
O155	O	1.107850	0.272646	-0.285978
H156	H	1.123708	0.212369	-0.283036
H157	H	0.653986	0.933131	0.286682
H158	H	0.517512	0.557098	0.209293
H159	H	1.213369	0.150437	-0.156791
O160	O	1.057092	0.207642	-0.205065
H161	H	1.095417	0.204920	-0.181748
O162	O	0.457512	0.484174	-0.266599
H163	H	0.448481	0.447757	-0.299395
O164	O	0.709811	0.815751	-0.247546
H165	H	0.674091	0.824102	-0.274671
O166	O	0.608704	0.952369	-0.264160
H167	H	0.573371	1.009771	-0.264851
H168	H	0.602815	1.079723	-0.201630
H169	H	0.771635	0.962451	0.014648
H170	H	0.674707	1.086790	-0.134384
H171	H	1.125096	0.269691	-0.171283
H172	H	1.252078	0.681664	-0.377167
H173	H	1.370506	0.680153	-0.500369
O174	O	1.175679	-0.206275	-0.267444
H175	H	1.166821	-0.235091	-0.306271
H176	H	0.762957	0.967536	-0.119867
H177	H	1.401973	0.612726	-0.621996
H178	H	0.635944	0.555562	0.086047
H179	H	0.449902	0.738147	-0.037992
H180	H	1.314989	0.546807	-0.620403
O181	O	1.183871	0.538703	-0.496945
H182	H	1.206910	0.512713	-0.554970
H183	H	0.312132	0.505047	-0.247818
H184	H	0.691535	0.688911	0.206010
O185	O	0.153006	0.718887	-0.055385
H186	H	0.162038	0.755321	-0.022604
H187	H	0.575911	0.732186	-0.043328
H188	H	1.045059	0.559566	-0.608852
H189	H	0.632160	1.062638	0.253996
H190	H	0.486095	0.624541	0.330887
O191	O	1.180459	0.057981	-0.269957
H192	H	1.218234	-0.002578	-0.289832
O193	O	0.568523	0.700283	0.346951
H194	H	0.612833	0.725412	0.334900
H195	H	0.906843	-0.039294	-0.126015
O196	O	1.218980	-0.076469	-0.290222
H197	H	1.256755	-0.137028	-0.310097
O198	O	0.830949	0.029595	-0.086088
H199	H	0.858269	-0.006051	-0.056973
O200	O	1.115134	0.518603	-0.816592
H201	H	1.161273	0.539958	-0.853747
H202	H	0.728789	0.176719	-0.032344
H203	H	0.690264	0.311177	-0.012078
H204	H	0.690992	1.077287	0.117973
H205	H	1.052650	0.555115	-0.491022
O206	O	0.712373	0.443520	-0.023704
H207	H	0.677633	0.449514	0.038059
O208	O	0.816406	0.693213	-0.799017
H209	H	0.770266	0.671865	-0.761850
O210	O	0.825099	0.688123	-0.664008
H211	H	0.777367	0.667693	-0.651787
O212	O	0.772907	0.718621	-0.474544
H213	H	0.781361	0.713673	-0.531330
