data_functionalizedCrystal
_audit_creation_method	'MofGen! by Chris Wilmer'
_symmetry_space_group_name_H-M	'P1'
_symmetry_Int_Tables_number	1
_symmetry_cell_setting	triclinic
loop_
_symmetry_equiv_pos_as_xyz
  x,y,z
_cell_length_a	11.169417
_cell_length_b	12.594516
_cell_length_c	11.169409
_cell_angle_alpha	90.031702
_cell_angle_beta	89.980176
_cell_angle_gamma	89.972390
loop_
_atom_site_label
_atom_site_type_symbol
_atom_site_fract_x
_atom_site_fract_y
_atom_site_fract_z
Zn1	Zn	1.834826	0.423631	-0.678548
Zn2	Zn	2.334826	0.923631	-0.178548
Zn3	Zn	1.834658	0.601657	-0.477867
Zn4	Zn	2.334658	1.101657	0.022133
Zn5	Zn	1.634112	0.423696	-0.477882
Zn6	Zn	2.134112	0.923696	0.022118
Zn7	Zn	1.634062	0.601571	-0.678512
Zn8	Zn	2.134062	1.101571	-0.178512
O9	O	1.734414	0.512639	-0.578202
O10	O	2.234414	1.012639	-0.078202
O11	O	2.002753	0.447256	-0.651936
O12	O	2.502753	0.947256	-0.151936
O13	O	1.808005	0.578114	-0.309919
O14	O	2.308005	1.078114	0.190081
O15	O	1.660828	0.274741	-0.504523
O16	O	2.160828	0.774741	-0.004523
O17	O	2.002630	0.578051	-0.504497
O18	O	2.502630	1.078051	-0.004497
O19	O	1.808292	0.274694	-0.651951
O20	O	2.308292	0.774694	-0.151951
O21	O	1.660665	0.447366	-0.309931
O22	O	2.160665	0.947366	0.190069
O23	O	1.466155	0.447282	-0.504488
O24	O	1.966155	0.947282	-0.004488
O25	O	1.660743	0.577903	-0.846467
O26	O	2.160743	1.077903	-0.346467
O27	O	1.466119	0.577966	-0.651889
O28	O	1.966119	1.077966	-0.151889
O29	O	1.808243	0.447172	-0.846493
O30	O	2.308243	0.947172	-0.346493
O31	O	1.807957	0.750592	-0.504462
O32	O	2.307957	1.250592	-0.004462
O33	O	1.660580	0.750528	-0.651875
O34	O	2.160580	1.250528	-0.151875
C35	C	1.422589	0.512623	-0.578187
C36	C	1.922589	1.012623	-0.078187
C37	C	1.289189	0.512641	-0.578209
C38	C	1.789189	1.012641	-0.078209
C39	C	1.734277	0.789180	-0.578189
C40	C	2.234277	1.289180	-0.078189
C41	C	1.734329	0.907485	-0.578223
C42	C	2.234329	1.407485	-0.078223
C43	C	1.654148	0.976742	-0.658344
C44	C	2.154148	1.476742	-0.158344
C45	C	1.624887	1.047617	-0.548830
C46	C	2.124887	1.547617	-0.048830
C47	C	1.763655	1.047410	-0.687754
C48	C	2.263655	1.547410	-0.187754
C49	C	1.705010	0.976801	-0.468651
C50	C	2.205010	1.476801	0.031349
C51	C	1.843829	0.976588	-0.607649
C52	C	2.343829	1.476588	-0.107649
C53	C	1.814609	1.047431	-0.498060
C54	C	2.314609	1.547431	0.001940
C55	C	2.047456	0.512656	-0.578219
C56	C	2.547456	1.012656	-0.078219
C57	C	2.180856	0.512663	-0.578225
C58	C	2.680856	1.012663	-0.078225
C59	C	1.734506	0.512521	-0.891245
C60	C	2.234506	1.012521	-0.391245
C61	C	1.734546	0.512470	-1.024645
C62	C	2.234546	1.012470	-0.524645
C63	C	1.734531	1.235018	-0.578241
C64	C	2.234531	1.735018	-0.078241
C65	C	1.734446	1.116712	-0.578252
C66	C	2.234446	1.616712	-0.078252
C67	C	1.734391	0.512680	-0.266378
C68	C	2.234391	1.012680	0.233622
C69	C	1.734585	0.512430	-0.132978
C70	C	2.234585	1.012430	0.367022
H71	H	1.586239	0.945703	-0.726002
H72	H	2.086239	1.445703	-0.226002
Br73	Br	1.998046	0.924549	-0.649176
Br74	Br	2.498046	1.424549	-0.149176
H75	H	1.532341	1.078839	-0.523966
H76	H	2.032341	1.578839	-0.023966
H77	H	1.680146	0.945914	-0.376009
H78	H	2.180146	1.445914	0.123991
Br79	Br	1.927715	1.098838	-0.385028
Br80	Br	2.427715	1.598838	0.114972
Br81	Br	1.804916	1.099114	-0.842118
Br82	Br	2.304916	1.599114	-0.342118
