data_functionalizedCrystal
_audit_creation_method	'MofGen! by Chris Wilmer'
_symmetry_space_group_name_H-M	'P1'
_symmetry_Int_Tables_number	1
_symmetry_cell_setting	triclinic
loop_
_symmetry_equiv_pos_as_xyz
  x,y,z
_cell_length_a	10.654555
_cell_length_b	10.654549
_cell_length_c	9.130313
_cell_angle_alpha	89.999821
_cell_angle_beta	89.999326
_cell_angle_gamma	84.487085
loop_
_atom_site_label
_atom_site_type_symbol
_atom_site_fract_x
_atom_site_fract_y
_atom_site_fract_z
O1	O	1.667833	0.176427	-0.121811
O2	O	1.302356	0.193226	-0.121810
O3	O	1.493494	0.002088	-0.121805
O4	O	1.476694	0.367565	-0.121816
O5	O	1.493492	0.002093	0.121794
O6	O	1.302353	0.193231	0.121789
O7	O	1.667831	0.176432	0.121788
Cu8	Cu	1.485092	0.184832	0.144031
Cu9	Cu	1.485095	0.184826	-0.144053
O10	O	1.476692	0.367570	0.121783
C11	C	1.492258	-0.044708	-0.000007
C12	C	1.488564	-0.184151	-0.000012
C13	C	1.255557	0.191993	-0.000010
C14	C	1.116114	0.188299	-0.000010
C15	C	1.714630	0.177665	-0.000014
C16	C	1.854073	0.181359	-0.000024
C17	C	1.710186	-0.474131	-0.000005
C18	C	1.826205	-0.422592	-0.000002
C19	C	1.829680	-0.291573	-0.000004
C20	C	1.717125	-0.212090	-0.000004
C21	C	1.601107	-0.263630	-0.000007
C22	C	1.597643	-0.394652	-0.000009
C23	C	1.372546	-0.235690	-0.000015
C24	C	1.369067	-0.366708	-0.000023
C25	C	1.259990	-0.156207	-0.000015
C26	C	1.143969	-0.207746	-0.000028
C27	C	1.140498	-0.338773	-0.000028
C28	C	1.253049	-0.418247	-0.000026
C29	C	1.919585	0.183097	-0.132808
C30	C	2.050607	0.186562	-0.132801
C31	C	2.050593	0.186557	0.132784
C32	C	1.919574	0.183083	0.132776
C33	C	1.919593	0.183106	-0.286141
C34	C	2.050615	0.186571	-0.286135
N35	N	1.485099	0.184836	0.346654
C36	C	1.477928	0.414366	-0.000018
C37	C	1.481622	0.553809	-0.000023
N38	N	1.485097	0.184812	-0.346675
C39	C	1.569757	0.100229	0.423308
C40	C	1.569754	0.100214	0.576645
C41	C	1.400430	0.269423	0.576660
C42	C	1.400428	0.269431	0.423326
C43	C	1.667518	0.002540	0.423301
C44	C	1.667515	0.002525	0.576638
H45	H	1.917844	-0.487321	0.000003
H46	H	1.262828	-0.049526	-0.000008
H47	H	1.707368	-0.580814	-0.000022
N48	N	2.121235	0.188434	0.276014
H49	H	2.107931	0.110114	0.334069
H50	H	2.214149	0.190944	0.255756
N51	N	1.848913	0.181184	0.275989
H52	H	1.910393	0.181938	0.360112
H53	H	1.785641	0.257906	0.282221
H54	H	2.075450	0.275254	-0.344993
N55	N	1.851097	0.301569	-0.349184
H56	H	1.792591	0.343398	-0.272807
H57	H	1.914450	0.361267	-0.379642
N58	N	1.022595	-0.122006	-0.000025
H59	H	0.972027	-0.138682	-0.090331
H60	H	0.972120	-0.138736	0.090333
N61	N	1.639110	-0.125321	0.368162
H62	H	1.639106	-0.125367	0.257542
H63	H	1.705603	-0.191731	0.405106
H64	H	2.102321	0.097124	-0.333713
H65	H	1.046022	-0.380727	-0.000015
N66	N	1.309107	0.360659	0.659356
H67	H	1.321949	0.347814	0.768125
H68	H	1.324382	0.449896	0.632565
H69	H	1.331483	0.338314	0.360915
N70	N	1.720869	-0.070778	0.000008
H71	H	1.811444	-0.050189	0.000016
H72	H	1.676781	-0.033826	-0.090301
H73	H	1.637000	-0.088698	0.624187
H74	H	1.894768	0.094431	-0.345019
H75	H	1.758702	0.033130	0.375741
N76	N	1.249305	-0.559559	-0.000035
H77	H	1.338210	-0.602085	-0.000034
H78	H	1.203545	-0.585528	0.090272
N79	N	1.795349	0.031031	0.631772
H80	H	1.814406	0.116552	0.594946
H81	H	1.795312	0.030958	0.742388
H82	H	1.924152	-0.249611	0.000006
