data_functionalizedCrystal
_audit_creation_method	'MofGen! by Chris Wilmer'
_symmetry_space_group_name_H-M	'P1'
_symmetry_Int_Tables_number	1
_symmetry_cell_setting	triclinic
loop_
_symmetry_equiv_pos_as_xyz
  x,y,z
_cell_length_a	19.077312
_cell_length_b	19.120904
_cell_length_c	19.076919
_cell_angle_alpha	89.728756
_cell_angle_beta	94.668947
_cell_angle_gamma	90.276063
loop_
_atom_site_label
_atom_site_type_symbol
_atom_site_fract_x
_atom_site_fract_y
_atom_site_fract_z
Zn1	Zn	-1.047829	0.335278	0.341466
Zn2	Zn	-1.047844	0.447826	0.218951
Zn3	Zn	-0.935058	0.326262	0.228705
Zn4	Zn	-0.925277	0.447797	0.341535
O5	O	-0.989002	0.389291	0.282664
O6	O	-1.146321	0.353992	0.321103
O7	O	-1.036982	0.427939	0.121752
O8	O	-0.954105	0.229494	0.247715
O9	O	-1.146332	0.436681	0.231092
O10	O	-1.036957	0.236118	0.330561
O11	O	-0.954119	0.338627	0.128918
O12	O	-0.835271	0.338599	0.247783
O13	O	-0.937433	0.436632	0.440019
O14	O	-0.828084	0.427890	0.330679
O15	O	-1.027472	0.353964	0.439968
O16	O	-1.027498	0.545786	0.231160
O17	O	-0.937448	0.545765	0.321222
C18	C	-0.806140	0.382264	0.290297
C19	C	-0.727910	0.379275	0.293579
C20	C	-0.981431	0.571178	0.275154
C21	C	-0.978256	0.648993	0.271962
C22	C	-0.981360	0.396300	0.466246
C23	C	-0.978104	0.399288	0.544477
C24	C	-1.172578	0.396345	0.275002
C25	C	-1.250807	0.399352	0.271737
C26	C	-0.287555	0.357784	0.317123
C27	C	-0.361061	0.360605	0.314035
C28	C	-0.397816	0.404991	0.265558
C29	C	-0.361062	0.446563	0.220170
C30	C	-0.287558	0.443745	0.223261
C31	C	-0.617651	0.418030	0.251282
C32	C	-0.691161	0.420843	0.248193
C33	C	-0.691154	0.334885	0.342059
C34	C	-0.617649	0.332069	0.345144
C35	C	-0.580901	0.373644	0.299758
N36	N	-0.472951	0.407873	0.262399
N37	N	-0.505767	0.370764	0.302921
C38	C	-1.019866	0.688939	0.313634
C39	C	-1.016880	0.762055	0.310636
C40	C	-0.972287	0.795223	0.265963
C41	C	-0.930672	0.755272	0.224290
C42	C	-0.933655	0.682157	0.227292
C43	C	-0.961120	1.015812	0.254742
C44	C	-0.958142	1.088932	0.251742
C45	C	-1.044349	1.095710	0.338089
C46	C	-1.047331	1.022593	0.341084
C47	C	-1.005714	0.982649	0.299414
C48	C	-0.969235	0.869959	0.262896
C49	C	-1.008762	0.907914	0.302485
C50	C	-0.996591	1.206693	0.290212
C51	C	-0.999751	1.128878	0.293413
C52	C	-0.996657	0.382259	0.099798
C53	C	-1.000058	0.379080	0.021569
C54	C	-1.023450	0.357652	0.581205
C55	C	-1.020381	0.360456	0.654712
C56	C	-0.971970	0.404899	0.691490
C57	C	-0.926619	0.446536	0.654757
C58	C	-0.929684	0.443728	0.581251
C59	C	-0.957772	0.417909	0.911331
C60	C	-0.954711	0.420715	0.984841
C61	C	-1.048473	0.334634	0.984791
C62	C	-1.051537	0.331833	0.911284
C63	C	-1.006184	0.373467	0.874558
N64	N	-0.968834	0.407768	0.766626
N65	N	-1.009317	0.370594	0.799424
H66	H	-0.257635	0.321636	0.356595
H67	H	-0.390978	0.326759	0.350996
H68	H	-0.587727	0.295928	0.384622
H69	H	-1.085396	0.300737	1.014702
C70	C	-0.770328	0.517776	0.230899
C71	C	-0.731570	0.469636	0.194906
H72	H	-0.795279	0.547892	0.198002
H73	H	-0.739273	0.544674	0.261609
H74	H	-0.802727	0.493408	0.257485
H75	H	-0.699167	0.494004	0.168323
H76	H	-0.762628	0.442734	0.164184
H77	H	-0.390994	0.482705	0.180701
C78	C	-0.803828	0.301041	0.379006
C79	C	-0.731549	0.289195	0.391952
H80	H	-0.828763	0.272837	0.409814
H81	H	-0.818254	0.289372	0.331661
H82	H	-0.813485	0.348949	0.386776
H83	H	-0.721891	0.241289	0.384176
H84	H	-0.717117	0.300860	0.439308
C85	C	-0.625052	0.503265	0.158180
C86	C	-0.577265	0.463719	0.201386
H87	H	-0.600116	0.531468	0.127371
H88	H	-0.651337	0.532361	0.186485
H89	H	-0.656105	0.472782	0.131372
H90	H	-0.546215	0.494203	0.228198
H91	H	-0.550968	0.434620	0.173078
C92	C	-0.294943	0.528988	0.130164
C93	C	-0.247161	0.489436	0.173370
H94	H	-0.270003	0.557194	0.099362
H95	H	-0.321230	0.558081	0.158470
H96	H	-0.325995	0.498509	0.103349
H97	H	-0.216112	0.519915	0.200189
H98	H	-0.220862	0.460340	0.145060
C99	C	-1.111998	0.357519	0.733850
C100	C	-1.070218	0.314687	0.695092
H101	H	-1.142759	0.329259	0.758784
H102	H	-1.138849	0.387951	0.702796
H103	H	-1.082716	0.384389	0.766265
H104	H	-1.099499	0.287822	0.662673
H105	H	-1.043364	0.284244	0.726149
H106	H	-0.921825	1.115935	0.215363
H107	H	-0.920852	0.451821	0.881436
C108	C	-0.862327	0.505516	0.977512
C109	C	-0.901491	0.469567	1.025269
H110	H	-0.829472	0.535671	1.002473
H111	H	-0.893065	0.532379	0.946456
H112	H	-0.837875	0.472876	0.951227
H113	H	-0.925947	0.502207	1.051551
H114	H	-0.870749	0.442703	1.056338
H115	H	-1.056182	0.661938	0.350008
H116	H	-0.887199	0.482720	0.684707
H117	H	-1.045067	0.880906	0.338861
C118	C	-1.129847	1.095064	0.423752
C119	C	-1.090080	1.139618	0.383904
H120	H	-1.158079	1.122172	0.452037
H121	H	-1.099200	1.066411	0.453091
H122	H	-1.159239	1.066401	0.393149
H123	H	-1.060684	1.168278	0.414507
H124	H	-1.120731	1.168283	0.354563
C125	C	-1.102417	0.761410	0.396260
C126	C	-1.062635	0.805963	0.356427
H127	H	-1.130671	0.788519	0.424523
H128	H	-1.071779	0.732768	0.425620
H129	H	-1.131788	0.732737	0.365648
H130	H	-1.033259	0.834634	0.387038
H131	H	-1.093276	0.834618	0.327064
C132	C	-1.056450	0.944317	0.438742
C133	C	-1.096347	0.986139	0.390194
H134	H	-1.086714	0.921810	0.469056
H135	H	-1.023485	0.972707	0.465746
H136	H	-1.032100	0.910062	0.414346
H137	H	-1.120693	1.020398	0.414590
H138	H	-1.129324	0.957748	0.363187
C139	C	-0.875626	1.016467	0.169075
C140	C	-0.915387	0.971911	0.208926
H141	H	-0.847397	0.989360	0.140784
H142	H	-0.846237	1.045128	0.199671
H143	H	-0.906282	1.045121	0.139736
H144	H	-0.884731	0.943259	0.238270
H145	H	-0.944779	0.943237	0.178327
C146	C	-0.887828	0.864340	0.181340
C147	C	-0.881657	0.791729	0.175181
H148	H	-0.857572	0.886844	0.151016
H149	H	-0.875030	0.877721	0.228555
H150	H	-0.935069	0.877698	0.168614
H151	H	-0.834417	0.778370	0.187912
H152	H	-0.894451	0.778342	0.127955
C153	C	-1.143902	0.247020	0.918622
C154	C	-1.104749	0.282976	0.870861
H155	H	-1.176751	0.216856	0.893665
H156	H	-1.168356	0.279650	0.944906
H157	H	-1.113152	0.220160	0.949680
H158	H	-1.135499	0.309841	0.839806
H159	H	-1.080295	0.250342	0.844565
H160	H	-0.892752	0.477624	0.551349
C161	C	-1.115814	0.272842	0.588547
C162	C	-1.076664	0.308797	0.540782
H163	H	-1.148663	0.242676	0.563592
H164	H	-1.140267	0.305472	0.614830
H165	H	-1.085062	0.245984	0.619605
H166	H	-1.107416	0.335659	0.509728
H167	H	-1.052209	0.276162	0.514487
H168	H	-0.899771	0.649634	0.193359
H169	H	-0.932929	0.896973	0.226520
