data_functionalizedCrystal
_audit_creation_method	'MofGen! by Chris Wilmer'
_symmetry_space_group_name_H-M	'P1'
_symmetry_Int_Tables_number	1
_symmetry_cell_setting	triclinic
loop_
_symmetry_equiv_pos_as_xyz
  x,y,z
_cell_length_a	10.489716
_cell_length_b	10.489716
_cell_length_c	9.730223
_cell_angle_alpha	90.002678
_cell_angle_beta	90.000146
_cell_angle_gamma	84.529136
loop_
_atom_site_label
_atom_site_type_symbol
_atom_site_fract_x
_atom_site_fract_y
_atom_site_fract_z
O1	O	1.694049	0.179815	-0.114265
O2	O	1.322848	0.196741	-0.114269
O3	O	1.516911	0.002677	-0.114272
O4	O	1.499985	0.373879	-0.114262
O5	O	1.516909	0.002682	0.114308
O6	O	1.322845	0.196746	0.114311
O7	O	1.694046	0.179820	0.114315
Zn8	Zn	1.508446	0.188284	0.150605
Zn9	Zn	1.508448	0.188277	-0.150559
O10	O	1.499983	0.373884	0.114317
C11	C	1.275314	0.195472	0.000020
C12	C	1.133684	0.191667	0.000018
C13	C	1.035999	0.310673	0.000018
C14	C	0.958658	0.247790	0.112724
C15	C	0.958667	0.247757	-0.112638
C16	C	1.058208	0.128834	0.112817
C17	C	1.058222	0.128818	-0.112646
C18	C	0.980929	0.065848	0.000088
C19	C	1.515638	-0.044852	0.000014
C20	C	1.511833	-0.186483	0.000001
C21	C	1.630839	-0.284167	0.000015
C22	C	1.567955	-0.361525	-0.112684
C23	C	1.567925	-0.361484	0.112678
C24	C	1.448999	-0.261975	-0.112791
C25	C	1.448987	-0.261929	0.112672
C26	C	1.386015	-0.339237	-0.000054
C27	C	1.741580	0.181089	0.000022
C28	C	1.883210	0.184894	0.000015
C29	C	1.501256	0.421413	0.000029
C30	C	1.505061	0.563044	0.000032
N31	N	1.508453	0.188287	0.356141
N32	N	1.508451	0.188264	-0.356096
C33	C	1.594406	0.102386	0.428066
C34	C	1.594403	0.102370	0.571949
C35	C	1.422488	0.274170	0.571969
C36	C	1.422487	0.274178	0.428089
C37	C	1.693664	0.003202	0.428055
C38	C	1.693660	0.003187	0.571938
H39	H	0.915179	0.298016	-0.207908
C40	C	1.066509	0.123601	-0.359187
C41	C	1.116982	0.061066	-0.241280
H42	H	1.102796	0.081786	-0.438606
H43	H	0.976215	0.121327	-0.360568
H44	H	1.086306	0.210100	-0.358357
H45	H	1.097177	-0.025431	-0.242105
H46	H	1.207296	0.063328	-0.239899
C47	C	0.767061	0.310257	0.240576
C48	C	0.899929	0.315613	0.241344
H49	H	0.730808	0.352130	0.319979
H50	H	0.731663	0.351662	0.160549
H51	H	0.748606	0.223339	0.240704
H52	H	0.918384	0.402531	0.241206
H53	H	0.935339	0.274210	0.321393
H54	H	0.956508	-0.037744	0.000151
C55	C	1.574711	-0.367924	0.359259
C56	C	1.635761	-0.420166	0.241307
H57	H	1.616594	-0.404158	0.438662
H58	H	1.578334	-0.277795	0.359728
H59	H	1.487803	-0.386411	0.359390
H60	H	1.722667	-0.401671	0.241172
H61	H	1.632151	-0.510316	0.240839
C62	C	1.249681	0.065344	0.240451
C63	C	1.116674	0.061070	0.241587
H64	H	1.285773	0.023519	0.319952
H65	H	1.284620	0.023375	0.160524
H66	H	1.268853	0.152042	0.240128
H67	H	1.097503	-0.025629	0.241900
H68	H	1.081724	0.103036	0.321535
C69	C	1.252550	0.443982	0.442568
C70	C	1.327996	0.368596	0.349028
H71	H	1.194219	0.502277	0.393756
H72	H	1.206199	0.390428	0.498678
H73	H	1.306069	0.490383	0.498694
H74	H	1.274478	0.322187	0.292909
H75	H	1.374351	0.422157	0.292895
H76	H	1.671847	-0.094852	0.388998
C77	C	1.832587	-0.301289	-0.118355
C78	C	1.770554	-0.250793	-0.000169
H79	H	1.918830	-0.280658	-0.118485
H80	H	1.831151	-0.391686	-0.119146
H81	H	1.789859	-0.265751	-0.197588
H82	H	1.813278	-0.286339	0.079064
H83	H	1.771998	-0.160378	0.000634
C84	C	1.574708	-0.368038	-0.359262
C85	C	1.635770	-0.420252	-0.241309
H86	H	1.616587	-0.404286	-0.438664
H87	H	1.487811	-0.386520	-0.359379
H88	H	1.578334	-0.277898	-0.359746
H89	H	1.632135	-0.510392	-0.240819
H90	H	1.722689	-0.401780	-0.241192
C91	C	1.835181	0.169515	0.412330
C92	C	1.818707	0.045202	0.367832
H93	H	1.912382	0.195446	0.375164
H94	H	1.764943	0.226488	0.382173
H95	H	1.839411	0.170910	0.509833
H96	H	1.814468	0.043810	0.270328
H97	H	1.888963	-0.011786	0.397981
H98	H	1.398790	-0.218669	-0.208175
H99	H	1.398792	-0.218404	0.207955
C100	C	1.812658	0.144195	0.704643
C101	C	1.825995	0.032741	0.624670
H102	H	1.894353	0.162434	0.737201
H103	H	1.776397	0.213725	0.650416
H104	H	1.758194	0.132003	0.780562
H105	H	1.880452	0.044937	0.548745
H106	H	1.862275	-0.036804	0.678899
C107	C	1.542290	-0.094327	0.713147
C108	C	1.651787	-0.121915	0.632155
H109	H	1.516438	-0.171561	0.750309
H110	H	1.560953	-0.038616	0.785858
H111	H	1.475214	-0.054110	0.658191
H112	H	1.718867	-0.162123	0.687113
H113	H	1.633131	-0.177647	0.559433
C114	C	1.184167	-0.321512	-0.118234
C115	C	1.246174	-0.372221	-0.000132
H116	H	1.097839	-0.341884	-0.118288
H117	H	1.185867	-0.231145	-0.118987
H118	H	1.226732	-0.357136	-0.197525
H119	H	1.203614	-0.336589	0.079159
H120	H	1.244466	-0.462606	0.000633
H121	H	1.060659	0.414190	0.000126
C122	C	1.249146	0.300145	0.733782
C123	C	1.328004	0.368580	0.651065
H124	H	1.190822	0.358435	0.782616
H125	H	1.202789	0.246619	0.677641
H126	H	1.300352	0.248986	0.797205
H127	H	1.276799	0.419733	0.587635
H128	H	1.374366	0.422128	0.707211
