data_functionalizedCrystal
_audit_creation_method	'MofGen! by Chris Wilmer'
_symmetry_space_group_name_H-M	'P1'
_symmetry_Int_Tables_number	1
_symmetry_cell_setting	triclinic
loop_
_symmetry_equiv_pos_as_xyz
  x,y,z
_cell_length_a	15.995292
_cell_length_b	15.944493
_cell_length_c	15.072220
_cell_angle_alpha	90.004743
_cell_angle_beta	89.986330
_cell_angle_gamma	83.471830
loop_
_atom_site_label
_atom_site_type_symbol
_atom_site_fract_x
_atom_site_fract_y
_atom_site_fract_z
O1	O	1.111010	0.108035	-0.073795
O2	O	0.867226	0.121456	-0.073790
O3	O	0.995800	-0.007535	-0.073800
O4	O	0.982435	0.237025	-0.073785
O5	O	0.995769	-0.007528	0.073765
O6	O	0.867194	0.121463	0.073775
O7	O	1.110978	0.108042	0.073770
Zn8	Zn	0.989081	0.114754	0.097202
Zn9	Zn	0.989123	0.114744	-0.097221
O10	O	0.982404	0.237032	0.073780
C11	C	0.836014	0.120913	-0.000007
C12	C	0.743062	0.119276	-0.000006
C13	C	0.405324	0.113255	-0.000016
C14	C	0.428623	0.206357	-0.000340
C15	C	0.525298	0.208127	-0.000003
C16	C	0.572880	0.116242	-0.000011
C17	C	0.543767	0.069700	0.084250
C18	C	0.446976	0.068579	0.084316
C19	C	0.447157	0.066670	-0.083493
C20	C	0.543650	0.070120	-0.084602
C21	C	0.667576	0.117926	-0.000006
C22	C	0.310629	0.111569	-0.000016
C23	C	0.995238	-0.038826	-0.000021
C24	C	0.993600	-0.132074	-0.000032
C25	C	1.069282	-0.367854	-0.000017
C26	C	1.028486	-0.418415	-0.072773
C27	C	0.990566	-0.302794	-0.000021
C28	C	1.028436	-0.418384	0.072715
C29	C	0.987641	-0.467703	-0.000007
C30	C	0.949791	-0.352127	-0.072837
C31	C	0.949752	-0.352092	0.072716
C32	C	0.908898	-0.402620	-0.000058
C33	C	0.992253	-0.207795	-0.000030
C34	C	0.985947	-0.562700	-0.000004
C35	C	1.142189	0.108584	-0.000015
C36	C	1.235142	0.110222	-0.000022
C37	C	0.982966	0.268323	-0.000000
C38	C	0.984603	0.361572	0.000005
N39	N	0.989059	0.114759	0.229891
N40	N	0.989152	0.114731	-0.229910
C41	C	0.989121	0.114741	0.589092
C42	C	0.920093	0.183530	0.551491
C43	C	0.920251	0.183781	0.448665
C44	C	0.989089	0.114750	0.410888
C45	C	1.076454	0.133875	0.448179
C46	C	1.076067	0.134364	0.551037
C47	C	0.971565	0.026623	0.551188
C48	C	0.969560	0.027211	0.448324
C49	C	0.989077	0.114754	0.310175
C50	C	0.989139	0.114739	0.689806
H51	H	0.400634	0.242240	-0.060767
H52	H	0.855311	0.172389	0.423454
C53	C	0.832078	0.168410	0.584963
N54	N	0.765784	0.157024	0.610186
C55	C	0.586860	-0.021633	0.088499
N56	N	0.619329	-0.090421	0.091704
C57	C	0.588197	-0.020489	-0.091481
N58	N	0.621747	-0.088741	-0.096654
H59	H	1.061742	-0.447372	-0.134285
H60	H	0.931148	0.248553	0.577333
H61	H	0.563807	0.102027	0.146962
C62	C	0.409005	0.106074	-0.169775
N63	N	0.380269	0.135765	-0.234759
H64	H	0.931460	0.249172	0.424055
C65	C	0.904934	-0.313189	-0.156030
N66	N	0.871153	-0.283859	-0.218692
C67	C	0.427330	-0.023638	0.089484
N68	N	0.412535	-0.093096	0.093381
C69	C	0.882736	0.007604	0.415405
N70	N	0.817339	-0.007161	0.390607
H71	H	1.091540	0.198626	0.575022
C72	C	0.568755	0.115895	-0.168818
N73	N	0.587672	0.150372	-0.232247
H74	H	1.129047	0.085104	0.423706
H75	H	1.129037	0.086235	0.575908
H76	H	1.016572	-0.026375	0.422612
C77	C	0.550140	0.257662	0.081751
N78	N	0.568851	0.294970	0.143334
C79	C	0.551020	0.257320	-0.081635
N80	N	0.570391	0.294358	-0.143133
H81	H	0.420141	0.100819	0.147309
H82	H	0.399585	0.242047	0.059753
H83	H	0.433175	-0.001859	-0.084068
H84	H	0.841041	-0.418068	-0.000097
H85	H	1.021904	-0.024567	0.575502
H86	H	0.916525	-0.323120	0.134230
H87	H	1.092297	0.197405	0.422414
H88	H	1.137087	-0.352243	-0.000092
C89	C	0.887352	0.001791	0.586266
N90	N	0.823918	-0.016903	0.612687
C91	C	1.073346	-0.457467	0.155812
N92	N	1.107178	-0.486901	0.218398
