data_functionalizedCrystal
_audit_creation_method	'MofGen! by Chris Wilmer'
_symmetry_space_group_name_H-M	'P1'
_symmetry_Int_Tables_number	1
_symmetry_cell_setting	triclinic
loop_
_symmetry_equiv_pos_as_xyz
  x,y,z
_cell_length_a	13.032831
_cell_length_b	16.959454
_cell_length_c	13.033252
_cell_angle_alpha	97.186168
_cell_angle_beta	105.168978
_cell_angle_gamma	82.825094
loop_
_atom_site_label
_atom_site_type_symbol
_atom_site_fract_x
_atom_site_fract_y
_atom_site_fract_z
Zn1	Zn	1.699968	-0.400936	0.806446
Zn2	Zn	1.677320	-0.547967	0.628831
Zn3	Zn	1.499823	-0.400887	0.606334
Zn4	Zn	1.522313	-0.518148	0.783877
O5	O	1.599856	-0.466984	0.706372
O6	O	1.845596	-0.432940	0.801745
O7	O	1.634885	-0.540916	0.477211
O8	O	1.526439	-0.290286	0.632910
O9	O	1.828957	-0.540963	0.671252
O10	O	1.673485	-0.290322	0.779931
O11	O	1.504479	-0.432857	0.460683
O12	O	1.354174	-0.403942	0.611026
O13	O	1.564769	-0.490140	0.935506
O14	O	1.370697	-0.490093	0.741466
O15	O	1.695292	-0.404025	0.952088
O16	O	1.656692	-0.654619	0.649368
O17	O	1.542808	-0.632711	0.763280
C18	C	1.323897	-0.443777	0.671356
C19	C	1.205843	-0.433865	0.656402
C20	C	1.161402	-0.472157	0.714177
C21	C	1.039388	-0.461914	0.698722
C22	C	1.599765	-0.672345	0.706343
C23	C	1.599827	-0.760204	0.706378
C24	C	1.540655	-1.120314	0.765691
C25	C	1.659367	-1.143067	0.647198
C26	C	1.659329	-1.060519	0.647184
C27	C	1.599951	-1.007864	0.706423
C28	C	1.540612	-1.037758	0.765676
C29	C	1.718659	-1.030620	0.587923
C30	C	1.718622	-0.948067	0.587905
C31	C	1.659249	-0.895410	0.647151
C32	C	1.599909	-0.925308	0.706408
C33	C	1.540531	-0.872653	0.765647
C34	C	1.481195	-0.902550	0.824910
C35	C	1.481239	-0.985101	0.824922
C36	C	1.659205	-0.812859	0.647139
C37	C	1.540488	-0.790097	0.765631
C38	C	1.876893	-0.490283	0.741525
C39	C	1.994950	-0.500212	0.756505
C40	C	1.635065	-0.443761	0.983414
C41	C	1.650069	-0.433865	1.101473
C42	C	1.599980	-0.260823	0.706428
C43	C	1.600032	-0.172969	0.706452
C44	C	1.592178	-0.472061	1.145903
C45	C	1.607684	-0.461834	1.267923
C46	C	1.564779	-0.490135	1.430407
C47	C	1.549785	-0.500035	1.312349
H48	H	1.153561	-0.393495	0.595501
H49	H	1.531140	-0.512337	1.093607
H50	H	1.711114	-0.393596	1.153770
C51	C	1.475173	-0.732183	0.830797
H52	H	1.439840	-0.761813	0.866086
H53	H	1.521633	-0.699476	0.882251
H54	H	1.423733	-0.699537	0.784248
C55	C	1.415885	-0.844628	0.890073
H56	H	1.380549	-0.874252	0.925368
H57	H	1.462350	-0.811921	0.941522
H58	H	1.364448	-0.811983	0.843521
H59	H	1.432930	-1.009451	0.873170
C60	C	1.065559	-0.554747	0.838793
H61	H	1.021853	-0.577438	0.873041
H62	H	1.103642	-0.596158	0.803528
H63	H	1.114735	-0.524281	0.890592
C64	C	1.467312	-0.554443	1.241722
H65	H	1.433008	-0.577083	1.285422
H66	H	1.415593	-0.523917	1.192584
H67	H	1.502465	-0.595906	1.203598
H68	H	1.492348	-1.144659	0.813946
C69	C	1.724683	-1.200984	0.582048
H70	H	1.716216	-1.254430	0.590550
H71	H	1.700130	-1.192161	0.508701
H72	H	1.798015	-1.192102	0.606719
H73	H	1.766992	-1.073497	0.539685
C74	C	1.783897	-0.915187	0.522731
H75	H	1.819272	-0.958370	0.487460
H76	H	1.737411	-0.883480	0.471263
H77	H	1.835302	-0.883435	0.569275
C78	C	1.724466	-0.779975	0.581959
H79	H	1.759836	-0.823157	0.546683
H80	H	1.677972	-0.748268	0.530494
H81	H	1.775872	-0.748221	0.628496
H82	H	1.213685	-0.512521	0.775086
H83	H	1.668734	-0.421562	1.320216
H84	H	0.987109	-0.421542	0.637817
