data_functionalizedCrystal
_audit_creation_method	'MofGen! by Chris Wilmer'
_symmetry_space_group_name_H-M	'P1'
_symmetry_Int_Tables_number	1
_symmetry_cell_setting	triclinic
loop_
_symmetry_equiv_pos_as_xyz
  x,y,z
_cell_length_a	12.827893
_cell_length_b	10.686685
_cell_length_c	10.685910
_cell_angle_alpha	89.667638
_cell_angle_beta	85.620701
_cell_angle_gamma	85.638050
loop_
_atom_site_label
_atom_site_type_symbol
_atom_site_fract_x
_atom_site_fract_y
_atom_site_fract_z
Zn1	Zn	-1.673323	0.445274	0.747722
Zn2	Zn	-1.675311	0.671061	0.554065
Zn3	Zn	-1.486304	0.461326	0.537964
Zn4	Zn	-1.512898	0.654966	0.763774
O5	O	-1.586959	0.558157	0.650881
O6	O	-1.819825	0.475244	0.722054
O7	O	-1.639941	0.656693	0.376382
O8	O	-1.499151	0.283666	0.552333
O9	O	-1.821286	0.641128	0.579775
O10	O	-1.636553	0.271872	0.706441
O11	O	-1.501078	0.502602	0.364552
O12	O	-1.343593	0.486995	0.567898
O13	O	-1.544477	0.613696	0.937192
O14	O	-1.363132	0.629261	0.733799
O15	O	-1.662340	0.459637	0.925399
O16	O	-1.665728	0.844457	0.595340
O17	O	-1.546404	0.832632	0.749412
C18	C	-1.315445	0.558124	0.650844
C19	C	-1.199293	0.558138	0.650860
C20	C	-1.017771	0.487643	0.568910
C21	C	-1.137820	0.487627	0.568892
C22	C	-1.609198	0.884056	0.675892
C23	C	-1.618809	1.023474	0.686634
C24	C	-1.606153	0.533081	0.978086
C25	C	-1.614333	0.522395	1.117521
C26	C	-0.859532	0.558181	0.650909
C27	C	-0.975684	0.558167	0.650893
C28	C	-1.564664	0.230983	0.625800
C29	C	-1.555163	0.091561	0.615112
C30	C	-1.567835	0.583166	1.324952
C31	C	-1.559662	0.593859	1.185517
H32	H	-1.174051	0.427254	0.498699
H33	H	-1.667405	0.453036	1.165986
H34	H	-1.163069	0.618523	0.721048
O35	O	-1.489342	0.685713	1.121346
H36	H	-1.515413	0.782271	1.153960
O37	O	-1.045672	0.638113	0.743869
H38	H	-1.096442	0.706105	0.692457
O39	O	-1.700738	1.087534	0.778628
H40	H	-1.686815	1.054889	0.875153
O41	O	-0.947774	0.407711	0.475932
H42	H	-0.896989	0.339732	0.527342
O43	O	-1.473238	1.027509	0.523121
H44	H	-1.478287	0.924383	0.528848
