data_functionalizedCrystal
_audit_creation_method	'MofGen! by Chris Wilmer'
_symmetry_space_group_name_H-M	'P1'
_symmetry_Int_Tables_number	1
_symmetry_cell_setting	triclinic
loop_
_symmetry_equiv_pos_as_xyz
  x,y,z
_cell_length_a	10.654550
_cell_length_b	8.559649
_cell_length_c	9.130313
_cell_angle_alpha	89.997262
_cell_angle_beta	89.999724
_cell_angle_gamma	77.131797
loop_
_atom_site_label
_atom_site_type_symbol
_atom_site_fract_x
_atom_site_fract_y
_atom_site_fract_z
O1	O	1.644682	0.224185	-0.121684
O2	O	1.276997	0.245544	-0.121710
O3	O	1.493232	0.002621	-0.121693
O4	O	1.428446	0.467107	-0.121701
O5	O	1.493220	0.002614	0.121906
O6	O	1.276984	0.245537	0.121889
O7	O	1.644669	0.224178	0.121915
Cu8	Cu	1.460826	0.234857	0.144144
Cu9	Cu	1.460840	0.234865	-0.143939
O10	O	1.428433	0.467100	0.121898
C11	C	1.230355	0.243972	0.000086
C12	C	1.091396	0.239280	0.000076
C13	C	0.997136	0.382309	0.000078
C14	C	0.866571	0.377890	0.000103
C15	C	0.924541	0.087402	0.000119
C16	C	1.055103	0.091822	0.000104
C17	C	1.498136	-0.056858	0.000104
C18	C	1.512750	-0.234076	0.000097
C19	C	1.691311	0.225750	0.000116
C20	C	1.830270	0.230442	0.000116
C21	C	1.423530	0.526579	0.000098
C22	C	1.408915	0.703797	0.000095
N23	N	1.460824	0.234850	0.346767
N24	N	1.460853	0.234859	-0.346562
C25	C	1.556598	0.127329	0.423426
C26	C	1.556610	0.127330	0.576763
C27	C	1.365070	0.342385	0.576768
C28	C	1.365054	0.342375	0.423434
H29	H	0.894975	-0.032654	0.000151
H30	H	1.131856	-0.024657	0.000106
H31	H	1.612835	-0.316473	0.000116
C32	C	1.275388	-0.186548	-0.000152
C33	C	1.208621	-0.216255	-0.125463
C34	C	1.085604	-0.115276	-0.125731
H35	H	1.282786	-0.077989	-0.000234
H36	H	1.229820	-0.206480	0.084750
H37	H	1.254178	-0.196310	-0.210343
H38	H	1.201187	-0.324794	-0.125406
H39	H	1.040037	-0.135209	-0.040829
H40	H	1.093016	-0.006724	-0.125809
H41	H	1.040284	-0.135429	-0.210745
C42	C	1.660639	0.010401	0.340451
C43	C	1.744494	-0.083790	0.440414
C44	C	1.840342	-0.191542	0.364036
H45	H	1.707447	0.068245	0.280615
H46	H	1.621962	-0.056669	0.280682
H47	H	1.783169	-0.016729	0.500158
H48	H	1.697725	-0.141669	0.500253
H49	H	1.801665	-0.258613	0.304267
H50	H	1.887140	-0.133685	0.304203
H51	H	1.897242	-0.255473	0.431849
C52	C	1.260916	0.458940	0.659937
C53	C	1.140157	0.431557	0.622694
C54	C	1.044181	0.538885	0.699293
H55	H	1.264074	0.565699	0.634859
H56	H	1.274561	0.443538	0.762250
H57	H	1.126515	0.446973	0.520404
H58	H	1.136957	0.324820	0.647775
H59	H	1.057826	0.523483	0.801606
H60	H	1.047351	0.645637	0.674210
H61	H	0.962236	0.520311	0.674045
H62	H	1.634596	0.039775	0.639175
C63	C	1.261184	0.459382	0.340272
C64	C	1.266413	0.616479	0.377517
C65	C	1.170762	0.724298	0.300924
H66	H	1.179071	0.441272	0.365353
H67	H	1.274884	0.444081	0.237958
H68	H	1.252703	0.631773	0.479808
H69	H	1.348505	0.634639	0.352432
H70	H	1.184462	0.708997	0.198610
H71	H	1.088656	0.706173	0.326011
H72	H	1.174305	0.830899	0.326173
H73	H	0.789827	0.494359	0.000108
H74	H	1.026680	0.502378	0.000066
