data_functionalizedCrystal
_audit_creation_method	'MofGen! by Chris Wilmer'
_symmetry_space_group_name_H-M	'P1'
_symmetry_Int_Tables_number	1
_symmetry_cell_setting	triclinic
loop_
_symmetry_equiv_pos_as_xyz
  x,y,z
_cell_length_a	14.044220
_cell_length_b	13.101039
_cell_length_c	14.044220
_cell_angle_alpha	93.667477
_cell_angle_beta	86.811122
_cell_angle_gamma	93.659868
loop_
_atom_site_label
_atom_site_type_symbol
_atom_site_fract_x
_atom_site_fract_y
_atom_site_fract_z
O1	O	1.281968	0.085109	-0.225348
O2	O	1.005298	0.085135	-0.217041
O3	O	1.139480	0.085112	-0.082860
O4	O	1.147787	0.085132	-0.359530
O5	O	1.129854	-0.085316	-0.092504
O6	O	0.995673	-0.085293	-0.226686
O7	O	1.272343	-0.085319	-0.234993
Zn8	Zn	1.132479	-0.112365	-0.232371
Zn9	Zn	1.145162	0.112181	-0.219663
O10	O	1.138161	-0.085296	-0.369175
C11	C	0.964864	-0.000076	-0.218228
C12	C	0.858722	-0.000066	-0.207383
N13	N	1.123831	-0.265612	-0.241043
C14	C	0.664383	-0.000088	-0.187558
C15	C	0.613253	-0.000087	-0.264472
C16	C	0.505116	-0.000099	-0.253441
C17	C	0.772529	-0.000076	-0.198587
C18	C	1.112065	-0.474653	-0.252851
C19	C	1.165580	-0.525538	-0.199179
C20	C	1.159034	-0.641855	-0.205749
C21	C	1.118610	-0.358325	-0.246282
C22	C	1.312777	-0.000106	-0.233806
C23	C	1.418920	-0.000109	-0.244651
C24	C	1.131031	-0.000102	-0.052060
C25	C	1.120187	-0.000102	0.054083
N26	N	1.153817	0.265428	-0.210984
C27	C	1.146610	-0.000080	-0.399974
C28	C	1.157455	-0.000073	-0.506116
C29	C	1.100362	-0.000086	0.248421
C30	C	1.177276	-0.000090	0.299551
C31	C	1.166245	-0.000080	0.407688
C32	C	1.111391	-0.000095	0.140275
H33	H	0.626945	-0.000099	-0.113431
C34	C	1.234126	-0.466382	-0.130443
C35	C	1.240613	-0.348382	-0.123834
C36	C	1.309159	-0.289221	-0.055105
C37	C	1.371218	-0.348059	0.007016
C38	C	1.364733	-0.466066	0.000409
C39	C	1.296187	-0.525227	-0.068320
H40	H	1.194672	-0.304821	-0.169822
H41	H	1.313959	-0.201864	-0.050215
H42	H	1.421960	-0.304265	0.057893
H43	H	1.410675	-0.509627	0.046397
H44	H	1.291387	-0.612584	-0.073210
C45	C	1.000215	-0.000081	0.298988
C46	C	0.935615	0.088417	0.287070
C47	C	0.835469	0.088418	0.337649
C48	C	0.799923	-0.000079	0.400146
C49	C	0.864524	-0.088584	0.412067
C50	C	0.964670	-0.088584	0.361489
H51	H	0.961927	0.153934	0.240803
H52	H	0.787647	0.153935	0.328823
H53	H	0.725789	-0.000079	0.437587
H54	H	0.838212	-0.154101	0.458334
H55	H	1.012492	-0.154102	0.370314
C56	C	1.043537	-0.533804	-0.321598
C57	C	1.036324	-0.651800	-0.327481
C58	C	0.967801	-0.710965	-0.396230
C59	C	0.906490	-0.652134	-0.459097
C60	C	0.913700	-0.534131	-0.453217
C61	C	0.982224	-0.474967	-0.384467
H62	H	1.081712	-0.695356	-0.280941
H63	H	0.962463	-0.798318	-0.400583
H64	H	0.855765	-0.695931	-0.509990
H65	H	0.868312	-0.490575	-0.499756
H66	H	0.987561	-0.387613	-0.380114
C67	C	1.277427	-0.000116	0.248980
C68	C	1.288468	-0.000134	0.139271
C69	C	1.388614	-0.000166	0.088695
C70	C	1.477720	-0.000179	0.147827
C71	C	1.466682	-0.000161	0.257542
C72	C	1.366535	-0.000129	0.308118
H73	H	1.222504	-0.000124	0.095493
H74	H	1.396785	-0.000179	0.007477
H75	H	1.551854	-0.000203	0.110388
H76	H	1.532645	-0.000171	0.301321
H77	H	1.358365	-0.000116	0.389337
H78	H	0.650693	-0.000077	-0.338605
