data_functionalizedCrystal
_audit_creation_method	'MofGen! by Chris Wilmer'
_symmetry_space_group_name_H-M	'P1'
_symmetry_Int_Tables_number	1
_symmetry_cell_setting	triclinic
loop_
_symmetry_equiv_pos_as_xyz
  x,y,z
_cell_length_a	12.759400
_cell_length_b	12.827893
_cell_length_c	12.827885
_cell_angle_alpha	89.980728
_cell_angle_beta	89.969506
_cell_angle_gamma	90.014845
loop_
_atom_site_label
_atom_site_type_symbol
_atom_site_fract_x
_atom_site_fract_y
_atom_site_fract_z
Zn1	Zn	-0.418211	1.597677	-0.590838
Zn2	Zn	-0.593926	1.597572	-0.416096
Zn3	Zn	-0.418263	1.422918	-0.416112
Zn4	Zn	-0.593849	1.422906	-0.590797
O5	O	-0.506062	1.510268	-0.503461
O6	O	-0.441531	1.743899	-0.567669
O7	O	-0.570678	1.574365	-0.269862
O8	O	-0.271235	1.446148	-0.439314
O9	O	-0.570628	1.743822	-0.439287
O10	O	-0.271197	1.574543	-0.567684
O11	O	-0.441619	1.446047	-0.269874
O12	O	-0.441544	1.276680	-0.439274
O13	O	-0.570496	1.446128	-0.737039
O14	O	-0.570546	1.276671	-0.567614
O15	O	-0.441456	1.574532	-0.737069
O16	O	-0.740937	1.574354	-0.439247
O17	O	-0.740880	1.446027	-0.567599
C18	C	-0.506043	1.238758	-0.503442
C19	C	-0.506060	1.122605	-0.503459
C20	C	-0.442141	1.070797	-0.440065
C21	C	-0.442157	0.950747	-0.440080
C22	C	-0.779030	1.510206	-0.503439
C23	C	-0.895806	1.510275	-0.503465
C24	C	-0.950663	1.577169	-0.436706
C25	C	-1.060387	1.577233	-0.436738
C26	C	-1.060388	1.443500	-0.570291
C27	C	-0.950666	1.443442	-0.570263
C28	C	-0.895803	1.644002	-0.369907
C29	C	-0.950660	1.710900	-0.303142
C30	C	-1.060384	1.710965	-0.303175
C31	C	-1.115252	1.644130	-0.369972
C32	C	-0.232029	1.510359	-0.503506
C33	C	-0.115252	1.510397	-0.503525
C34	C	-0.505961	1.510340	-0.776031
C35	C	-0.505918	1.510371	-0.892185
C36	C	-0.506082	1.782838	-0.503481
C37	C	-0.506091	1.898991	-0.503489
C38	C	-0.442043	1.446895	-0.943975
C39	C	-0.441997	1.446925	-1.064026
C40	C	-0.506087	1.510256	-0.231951
C41	C	-0.505834	1.510428	-0.115798
H42	H	-0.560798	1.078083	-0.557741
H43	H	-1.105069	1.389086	-0.624673
O44	O	-0.891486	1.371286	-0.642256
H45	H	-0.948065	1.324809	-0.688696
O46	O	-0.578584	0.957988	-0.575394
H47	H	-0.560671	0.937137	-0.657460
O48	O	-0.369638	1.374880	-0.884997
H49	H	-0.381029	1.386164	-0.799959
H50	H	-0.387307	1.392586	-1.108564
O51	O	-0.777459	1.643935	-0.369880
H52	H	-0.748525	1.701650	-0.312224
O53	O	-0.578317	1.582381	-0.951177
H54	H	-0.660799	1.564433	-0.930280
O55	O	-0.891492	1.783003	-0.231117
H56	H	-0.805979	1.771722	-0.242307
O57	O	-0.369633	1.129753	-0.368146
H58	H	-0.316267	1.179505	-0.415044
H59	H	-1.105046	1.765444	-0.248819
H60	H	-0.560519	1.564779	-1.071267
H61	H	-1.204596	1.644196	-0.370001
H62	H	-0.387429	0.906193	-0.385811
