data_functionalizedCrystal
_audit_creation_method	'MofGen! by Chris Wilmer'
_symmetry_space_group_name_H-M	'P1'
_symmetry_Int_Tables_number	1
_symmetry_cell_setting	triclinic
loop_
_symmetry_equiv_pos_as_xyz
  x,y,z
_cell_length_a	16.974829
_cell_length_b	10.723024
_cell_length_c	15.455313
_cell_angle_alpha	92.691723
_cell_angle_beta	83.671566
_cell_angle_gamma	83.931993
loop_
_atom_site_label
_atom_site_type_symbol
_atom_site_fract_x
_atom_site_fract_y
_atom_site_fract_z
O1	O	1.056979	0.148001	-0.146323
O2	O	1.556979	0.648001	0.353677
O3	O	0.826111	0.169476	-0.130118
O4	O	1.326111	0.669476	0.369882
O5	O	0.946870	-0.022946	-0.138591
O6	O	1.446870	0.477054	0.361409
O7	O	0.936220	0.340423	-0.137850
O8	O	1.436220	0.840423	0.362150
O9	O	0.939964	-0.011988	0.006156
O10	O	1.439964	0.488012	0.506156
O11	O	0.819205	0.180434	0.014628
O12	O	1.319205	0.680434	0.514628
O13	O	1.050073	0.158960	-0.001576
O14	O	1.550073	0.658960	0.498424
Cu15	Cu	0.934008	0.170698	0.019743
Cu16	Cu	1.434008	0.670698	0.519743
Cu17	Cu	0.942175	0.157738	-0.151437
Cu18	Cu	1.442175	0.657738	0.348563
O19	O	0.929314	0.351382	0.006897
O20	O	1.429314	0.851382	0.506897
C21	C	0.793096	0.174340	-0.055670
C22	C	1.293096	0.674340	0.444330
C23	C	0.705013	0.172494	-0.049488
C24	C	1.205013	0.672494	0.450512
C25	C	0.208787	0.162782	-0.006218
C26	C	0.708787	0.662782	0.493782
C27	C	0.291551	0.164517	-0.012028
C28	C	0.791551	0.664517	0.487972
C29	C	0.336699	0.159402	-0.093837
C30	C	0.836699	0.659402	0.406163
C31	C	0.299077	0.152564	-0.169839
C32	C	0.799077	0.652564	0.330161
C33	C	0.216314	0.150838	-0.164027
C34	C	0.716314	0.650838	0.335973
C35	C	0.584628	0.163930	-0.119679
C36	C	1.084628	0.663930	0.380321
C37	C	0.667397	0.165652	-0.125485
C38	C	1.167397	0.665652	0.374515
C39	C	0.659865	0.177608	0.032327
C40	C	1.159865	0.677608	0.532327
C41	C	0.577101	0.175875	0.038131
C42	C	1.077101	0.675875	0.538131
C43	C	0.539486	0.169043	-0.037871
C44	C	1.039486	0.669043	0.462129
N45	N	0.421297	0.161171	-0.099778
N46	N	0.921297	0.661171	0.400222
N47	N	0.454888	0.167283	-0.031929
N48	N	0.954888	0.667283	0.468071
C49	C	0.942642	-0.063951	-0.066164
C50	C	1.442642	0.436049	0.433836
C51	C	0.940323	-0.202458	-0.066005
C52	C	1.440323	0.297542	0.433995
C53	C	1.007894	-0.278822	-0.070749
C54	C	1.507894	0.221178	0.429251
C55	C	1.005499	-0.421977	-0.070584
C56	C	1.505499	0.078023	0.429416
C57	C	1.083087	0.154095	-0.076026
C58	C	1.583087	0.654095	0.423974
C59	C	1.171171	0.155941	-0.082214
C60	C	1.671171	0.655941	0.417786
C61	C	0.933542	0.392386	-0.065532
C62	C	1.433542	0.892386	0.434468
C63	C	0.935861	0.530893	-0.065697
C64	C	1.435861	1.030893	0.434303
N65	N	0.928270	0.179812	0.140141
N66	N	1.428270	0.679812	0.640141
N67	N	0.947920	0.148614	-0.271836
N68	N	1.447920	0.648614	0.228164
C69	C	0.979591	0.098094	0.181934
C70	C	1.479591	0.598094	0.681934
C71	C	0.975259	0.104998	0.273046
C72	C	1.475259	0.604998	0.773046
C73	C	0.919609	0.193627	0.322363
C74	C	1.419609	0.693627	0.822363
C75	C	0.868282	0.275348	0.280563
C76	C	1.368282	0.775348	0.780563
C77	C	0.872611	0.268437	0.189453
C78	C	1.372611	0.768437	0.689453
C79	C	0.900923	0.223424	0.595255
C80	C	1.400923	0.723424	1.095255
C81	C	0.896599	0.230332	0.686371
C82	C	1.396599	0.730332	1.186371
C83	C	1.003575	0.059979	0.678847
C84	C	1.503575	0.559979	1.178847
C85	C	1.007902	0.053081	0.587736
C86	C	1.507902	0.553081	1.087736
C87	C	0.956573	0.134798	0.545945
C88	C	1.456573	0.634798	1.045945
N89	N	0.915181	0.200689	0.415493
N90	N	1.415181	0.700689	0.915493
N91	N	0.960998	0.127729	0.452816
N92	N	1.460998	0.627729	0.952816
H93	H	0.540350	0.180013	0.104748
H94	H	1.040350	0.680013	0.604748
H95	H	1.067516	-0.238219	-0.074928
H96	H	1.567516	0.261781	0.425072
Br97	Br	1.101918	-0.531332	-0.077343
Br98	Br	1.601918	-0.031332	0.422657
H99	H	0.880701	-0.243061	-0.061826
H100	H	1.380701	0.256939	0.438174
Br101	Br	0.839437	-0.359758	-0.058917
Br102	Br	1.339437	0.140242	0.441083
H103	H	0.704153	0.161497	-0.192106
H104	H	1.204153	0.661497	0.307894
H105	H	0.851280	0.302509	0.726521
H106	H	1.351280	0.802509	1.226521
Br107	Br	0.710918	0.186886	0.135467
Br108	Br	1.210918	0.686886	0.635467
H109	H	1.024910	0.025928	0.141786
H110	H	1.524910	0.525928	0.641786
Br111	Br	1.044906	-0.005910	0.329769
Br112	Br	1.544906	0.494090	0.829769
H113	H	1.053217	-0.019088	0.547584
H114	H	1.553217	0.480912	1.047584
H115	H	1.045364	-0.006553	0.712882
H116	H	1.545364	0.493447	1.212882
H117	H	0.859130	0.289964	0.561236
H118	H	1.359130	0.789964	1.061236
Br119	Br	0.792749	0.395625	0.347490
Br120	Br	1.292749	0.895625	0.847490
H121	H	0.830819	0.334979	0.155426
H122	H	1.330819	0.834979	0.655426
H123	H	0.322174	0.170085	0.049856
H124	H	0.822174	0.670085	0.549856
Br125	Br	0.147525	0.169709	0.104813
Br126	Br	0.647525	0.669709	0.604813
H127	H	0.335842	0.148406	-0.236449
H128	H	0.835842	0.648406	0.263551
Br129	Br	0.165261	0.141565	-0.267170
Br130	Br	0.665261	0.641565	0.232830
Br131	Br	0.533589	0.154654	-0.222825
Br132	Br	1.033589	0.654654	0.277175
