data_functionalizedCrystal
_audit_creation_method	'MofGen! by Chris Wilmer'
_symmetry_space_group_name_H-M	'P1'
_symmetry_Int_Tables_number	1
_symmetry_cell_setting	triclinic
loop_
_symmetry_equiv_pos_as_xyz
  x,y,z
_cell_length_a	12.759401
_cell_length_b	12.759399
_cell_length_c	12.759393
_cell_angle_alpha	89.971637
_cell_angle_beta	90.018496
_cell_angle_gamma	89.984308
loop_
_atom_site_label
_atom_site_type_symbol
_atom_site_fract_x
_atom_site_fract_y
_atom_site_fract_z
Zn1	Zn	1.606249	0.418200	0.594005
Zn2	Zn	1.606141	0.593919	0.418335
Zn3	Zn	1.430551	0.418255	0.418344
Zn4	Zn	1.430537	0.593838	0.593976
O5	O	1.518370	0.506053	0.506165
O6	O	1.753256	0.441520	0.570710
O7	O	1.582809	0.570673	0.271315
O8	O	1.453909	0.271226	0.441662
O9	O	1.753176	0.570620	0.441646
O10	O	1.582994	0.271186	0.570719
O11	O	1.453804	0.441614	0.271322
O12	O	1.283528	0.441535	0.441634
O13	O	1.453885	0.570482	0.741001
O14	O	1.283518	0.570536	0.570670
O15	O	1.582980	0.441442	0.741022
O16	O	1.582796	0.740929	0.441618
O17	O	1.453780	0.740870	0.570661
C18	C	1.245402	0.506033	0.506151
C19	C	1.128626	0.506050	0.506169
C20	C	1.518303	0.779020	0.506158
C21	C	1.518371	0.895797	0.506191
C22	C	1.073786	0.573328	0.573247
C23	C	0.964062	0.573342	0.573259
C24	C	0.964027	0.438796	0.439105
C25	C	1.073749	0.438778	0.439100
C26	C	1.128662	0.640600	0.640317
C27	C	1.073823	0.707885	0.707399
C28	C	0.964098	0.707898	0.707411
C29	C	0.909214	0.640627	0.640340
C30	C	1.585623	0.950655	0.439075
C31	C	1.585686	1.060379	0.439114
C32	C	1.451236	1.060377	0.573386
C33	C	1.451179	0.950655	0.573352
C34	C	1.652815	0.895797	0.371914
C35	C	1.720072	0.950655	0.304792
C36	C	1.720135	1.060379	0.304831
C37	C	1.652941	1.115245	0.371991
C38	C	1.792403	0.506073	0.506180
C39	C	1.909180	0.506082	0.506186
C40	C	1.518443	0.505947	0.780198
C41	C	1.518475	0.505902	0.896975
C42	C	1.518461	1.232019	0.506209
C43	C	1.518491	1.115243	0.506263
C44	C	1.518357	0.506083	0.233198
C45	C	1.518529	0.505832	0.116421
C46	C	1.585704	0.438704	0.951850
C47	C	1.585729	0.438666	1.061574
C48	C	1.451293	0.573033	1.061539
C49	C	1.451263	0.573064	0.951817
C50	C	1.652915	0.371541	0.897008
C51	C	1.720150	0.304339	0.951883
C52	C	1.720175	0.304301	1.061607
C53	C	1.652965	0.371465	1.116456
H54	H	1.218005	0.640599	0.640313
C55	C	1.793354	1.119958	0.232176
C56	C	1.860717	1.182778	0.291790
C57	C	1.928219	1.237646	0.224909
H58	H	1.753402	1.162944	0.186326
H59	H	1.833420	1.071570	0.192230
H60	H	1.820655	1.231160	0.331719
H61	H	1.900692	1.139817	0.337638
H62	H	1.968285	1.189258	0.184963
H63	H	1.888258	1.280626	0.179062
H64	H	1.973939	1.280268	0.265348
C65	C	0.790084	0.640590	0.640590
C66	C	0.753855	0.613916	0.740676
C67	C	0.644121	0.613871	0.740952
H68	H	0.765137	0.590888	0.591121
H69	H	0.765169	0.708369	0.622372
H70	H	0.778759	0.546147	0.758881
H71	H	0.778773	0.663609	0.790163
H72	H	0.619206	0.681650	0.722734
H73	H	0.619184	0.564169	0.691478
H74	H	0.619526	0.595782	0.808860
C75	C	1.378451	1.120077	0.646352
C76	C	1.437933	1.182990	0.713742
C77	C	1.370915	1.238010	0.780961
H78	H	1.338364	1.071811	0.686421
H79	H	1.332735	1.163008	0.606162
H80	H	1.483630	1.140064	0.753928
H81	H	1.478018	1.231276	0.673702
H82	H	1.325200	1.280940	0.740771
H83	H	1.330832	1.189736	0.821023
H84	H	1.411263	1.280710	0.826687
C85	C	1.133248	0.365876	0.366090
C86	C	1.106541	0.388657	0.262102
C87	C	1.161343	0.321529	0.194817
H88	H	1.115333	0.295265	0.381439
H89	H	1.206462	0.375514	0.375628
H90	H	1.033343	0.379010	0.252570
H91	H	1.124459	0.459256	0.246721
H92	H	1.234558	0.331167	0.204354
H93	H	1.143424	0.250922	0.210175
H94	H	1.143238	0.336984	0.124254
C95	C	1.653005	0.371388	0.777880
C96	C	1.726234	0.298171	0.741593
C97	C	1.726336	0.297994	0.631859
H98	H	1.671174	0.439136	0.752919
H99	H	1.585226	0.353164	0.753017
H100	H	1.793998	0.316401	0.766445
H101	H	1.708081	0.230413	0.766525
H102	H	1.658557	0.279771	0.606997
H103	H	1.744503	0.365746	0.606909
H104	H	1.776013	0.248312	0.607225
H105	H	1.396503	0.627767	0.907137
C106	C	1.378056	0.891276	0.646267
C107	C	1.319202	0.962800	0.705069
C108	C	1.251828	0.908139	0.772248
H109	H	1.418095	0.848406	0.692152
H110	H	1.332220	0.848559	0.606057
H111	H	1.365033	1.005500	0.745277
H112	H	1.279142	1.005672	0.659212
H113	H	1.205991	0.865421	0.732038
H114	H	1.291875	0.865271	0.818126
H115	H	1.211881	0.956659	0.812147
H116	H	1.118516	0.762647	0.762013
H117	H	1.774864	0.249649	0.907217
C118	C	0.904422	0.781002	0.780073
C119	C	0.841376	0.848259	0.720477
C120	C	0.786379	0.915613	0.787376
H121	H	0.952701	0.821161	0.820038
H122	H	0.861583	0.740903	0.825907
H123	H	0.884211	0.888354	0.674661
H124	H	0.793077	0.808129	0.680514
H125	H	0.743540	0.875514	0.833210
H126	H	0.834666	0.955765	0.827338
H127	H	0.743589	0.961248	0.746951
H128	H	0.919332	0.384028	0.384498
H129	H	1.652769	0.806454	0.371872
H130	H	1.774914	0.249574	1.106283
C131	C	1.792910	0.890902	0.231921
C132	C	1.778443	0.783070	0.246230
C133	C	1.845515	0.727997	0.179109
H134	H	1.863545	0.908685	0.247295
H135	H	1.777569	0.908897	0.161301
H136	H	1.793791	0.765082	0.316834
H137	H	1.707821	0.765256	0.230848
H138	H	1.830175	0.745991	0.108489
H139	H	1.916147	0.745788	0.194489
H140	H	1.835702	0.654827	0.188801
H141	H	1.652978	0.371417	1.205801
H142	H	1.653006	1.204589	0.372025
H143	H	1.396573	0.627714	1.106206
