data_functionalizedCrystal
_audit_creation_method	'MofGen! by Chris Wilmer'
_symmetry_space_group_name_H-M	'P1'
_symmetry_Int_Tables_number	1
_symmetry_cell_setting	triclinic
loop_
_symmetry_equiv_pos_as_xyz
  x,y,z
_cell_length_a	18.215405
_cell_length_b	11.169417
_cell_length_c	18.215399
_cell_angle_alpha	90.016030
_cell_angle_beta	90.030551
_cell_angle_gamma	90.026135
loop_
_atom_site_label
_atom_site_type_symbol
_atom_site_fract_x
_atom_site_fract_y
_atom_site_fract_z
Zn1	Zn	-0.292967	1.834800	0.416028
Zn2	Zn	0.040366	2.168133	0.749361
Zn3	Zn	0.373699	2.501466	1.082695
Zn4	Zn	-0.416039	1.834650	0.292956
Zn5	Zn	-0.082705	2.167984	0.626289
Zn6	Zn	0.250628	2.501317	0.959623
Zn7	Zn	-0.292993	1.634098	0.292983
Zn8	Zn	0.040340	1.967431	0.626317
Zn9	Zn	0.373674	2.300764	0.959650
Zn10	Zn	-0.415999	1.634042	0.415989
Zn11	Zn	-0.082666	1.967375	0.749322
Zn12	Zn	0.250667	2.300709	1.082656
O13	O	-0.354500	1.734398	0.354489
O14	O	-0.021166	2.067731	0.687822
O15	O	0.312167	2.401064	1.021156
O16	O	-0.309299	2.002730	0.399707
O17	O	0.024035	2.336063	0.733040
O18	O	0.357368	2.669396	1.066374
O19	O	-0.399744	1.808007	0.189975
O20	O	-0.066410	2.141341	0.523309
O21	O	0.266923	2.474674	0.856642
O22	O	-0.190005	1.660807	0.309333
O23	O	0.143328	1.994140	0.642667
O24	O	0.476661	2.327474	0.976000
O25	O	-0.399719	2.002620	0.309287
O26	O	-0.066385	2.335953	0.642620
O27	O	0.266948	2.669287	0.975953
O28	O	-0.189986	1.808262	0.399733
O29	O	0.143347	2.141595	0.733067
O30	O	0.476680	2.474929	1.066400
O31	O	-0.309343	1.660662	0.189995
O32	O	0.023991	1.993996	0.523329
O33	O	0.357324	2.327329	0.856662
O34	O	-0.309305	1.466141	0.309296
O35	O	0.024029	1.799474	0.642629
O36	O	0.357362	2.132807	0.975962
O37	O	-0.399652	1.660712	0.518979
O38	O	-0.066318	1.994046	0.852312
O39	O	0.267015	2.327379	1.185645
O40	O	-0.399677	1.466100	0.399667
O41	O	-0.066343	1.799433	0.733001
O42	O	0.266990	2.132767	1.066334
O43	O	-0.309261	1.808208	0.519007
O44	O	0.024073	2.141541	0.852340
O45	O	0.357406	2.474875	1.185674
O46	O	-0.519018	1.807953	0.309249
O47	O	-0.185684	2.141287	0.642582
O48	O	0.147649	2.474620	0.975916
O49	O	-0.518989	1.660567	0.399641
O50	O	-0.185656	1.993901	0.732974
O51	O	0.147678	2.327234	1.066307
C52	C	-0.354490	1.422573	0.354481
C53	C	-0.021156	1.755906	0.687814
C54	C	0.312177	2.089239	1.021147
C55	C	-0.354503	1.289173	0.354495
C56	C	-0.021170	1.622506	0.687828
C57	C	0.312164	1.955840	1.021161
C58	C	-0.545706	1.734271	0.354454
C59	C	-0.212373	2.067604	0.687787
C60	C	0.120961	2.400937	1.021120
C61	C	-0.627505	1.734326	0.354463
C62	C	-0.294171	2.067660	0.687797
C63	C	0.039162	2.400993	1.021130
C64	C	-0.815689	1.811250	0.307483
C65	C	-0.482356	2.144584	0.640816
C66	C	-0.149023	2.477917	0.974149
C67	C	-0.892548	1.811304	0.307501
C68	C	-0.559215	2.144637	0.640834
C69	C	-0.225881	2.477971	0.974167
C70	C	-0.892558	1.657698	0.401548
C71	C	-0.559225	1.991031	0.734882
C72	C	-0.225891	2.324365	1.068215
C73	C	-0.815701	1.657651	0.401534
C74	C	-0.482367	1.990985	0.734867
C75	C	-0.149034	2.324318	1.068200
C76	C	-0.777268	1.734426	0.354497
C77	C	-0.443935	2.067759	0.687830
C78	C	-0.110602	2.401092	1.021163
C79	C	-0.930984	1.734526	0.354529
C80	C	-0.597651	2.067860	0.687863
C81	C	-0.264318	2.401193	1.021196
C82	C	-1.014318	1.734584	0.354549
C83	C	-0.680985	2.067917	0.687882
C84	C	-0.347651	2.401250	1.021216
C85	C	-0.693929	1.734370	0.354478
C86	C	-0.360596	2.067703	0.687811
C87	C	-0.027263	2.401037	1.021145
C88	C	-0.162547	1.734557	0.354541
C89	C	0.170787	2.067891	0.687874
C90	C	0.504120	2.401224	1.021207
C91	C	-0.080748	1.734626	0.354563
C92	C	0.252586	2.067959	0.687896
C93	C	0.585919	2.401292	1.021229
C94	C	-0.354510	2.047440	0.354498
C95	C	-0.021177	2.380773	0.687831
C96	C	0.312157	2.714106	1.021165
C97	C	-0.354515	2.180840	0.354502
C98	C	-0.021181	2.514173	0.687835
C99	C	0.312152	2.847506	1.021168
C100	C	-0.354449	1.734471	0.546442
C101	C	-0.021116	2.067804	0.879775
C102	C	0.312218	2.401137	1.213109
C103	C	-0.354427	1.734502	0.628241
C104	C	-0.021094	2.067835	0.961574
C105	C	0.312239	2.401168	1.294908
C106	C	-0.354497	1.734394	0.163283
C107	C	-0.021164	2.067727	0.496616
C108	C	0.312170	2.401060	0.829950
C109	C	-0.354311	1.734595	0.081484
C110	C	-0.020978	2.067928	0.414818
C111	C	0.312355	2.401262	0.748151
C112	C	-0.307317	1.811330	0.816451
C113	C	0.026017	2.144664	1.149784
C114	C	0.359350	2.477997	1.483118
C115	C	-0.307295	1.811345	0.893310
C116	C	0.026038	2.144678	1.226643
C117	C	0.359372	2.478011	1.559977
C118	C	-0.401424	1.657758	0.893269
C119	C	-0.068091	1.991091	1.226602
C120	C	0.265243	2.324425	1.559936
C121	C	-0.401441	1.657739	0.816412
C122	C	-0.068108	1.991072	1.149745
C123	C	0.265225	2.324405	1.483078
C124	C	-0.354389	1.734532	0.778005
C125	C	-0.021055	2.067865	1.111338
C126	C	0.312278	2.401198	1.444671
C127	C	-0.354350	1.734565	0.931721
C128	C	-0.021017	2.067899	1.265054
C129	C	0.312317	2.401232	1.598387
C130	C	-0.354327	1.734580	1.015055
C131	C	-0.020994	2.067914	1.348388
C132	C	0.312340	2.401247	1.681721
C133	C	-0.354410	1.734515	0.694666
C134	C	-0.021077	2.067849	1.027999
C135	C	0.312256	2.401182	1.361332
H136	H	-0.784399	1.873767	0.269183
H137	H	-0.451066	2.207100	0.602517
H138	H	-0.117733	2.540433	0.935850
Cl139	Cl	-0.460618	1.561176	0.768075
Cl140	Cl	-0.127285	1.894510	1.101408
Cl141	Cl	0.206048	2.227843	1.434742
H142	H	-0.784416	1.595091	0.439822
H143	H	-0.451083	1.928425	0.773155
H144	H	-0.117749	2.261758	1.106488
Cl145	Cl	-0.940878	1.561183	0.460675
Cl146	Cl	-0.607545	1.894517	0.794008
Cl147	Cl	-0.274211	2.227850	1.127342
Cl148	Cl	-0.248123	1.907907	0.941639
Cl149	Cl	0.085211	2.241240	1.274973
Cl150	Cl	0.418544	2.574574	1.608306
H151	H	-0.269001	1.873857	0.785182
H152	H	0.064332	2.207190	1.118516
H153	H	0.397665	2.540524	1.451849
H154	H	-0.439734	1.595239	0.924549
H155	H	-0.106401	1.928572	1.257883
H156	H	0.226932	2.261905	1.591216
H157	H	-0.923827	1.873864	0.269218
H158	H	-0.590494	2.207197	0.602551
H159	H	-0.257160	2.540531	0.935885
