data_functionalizedCrystal
_audit_creation_method	'MofGen! by Chris Wilmer'
_symmetry_space_group_name_H-M	'P1'
_symmetry_Int_Tables_number	1
_symmetry_cell_setting	triclinic
loop_
_symmetry_equiv_pos_as_xyz
  x,y,z
_cell_length_a	23.532407
_cell_length_b	13.930277
_cell_length_c	14.853559
_cell_angle_alpha	90.002361
_cell_angle_beta	96.759939
_cell_angle_gamma	89.999203
loop_
_atom_site_label
_atom_site_type_symbol
_atom_site_fract_x
_atom_site_fract_y
_atom_site_fract_z
O1	O	-0.755737	0.079683	0.109438
O2	O	-0.589943	0.079716	0.125273
O3	O	-0.677271	0.079697	-0.013923
O4	O	-0.668409	0.079701	0.248634
O5	O	-0.677259	-0.079965	-0.013926
O6	O	-0.589931	-0.079946	0.125270
O7	O	-0.755725	-0.079979	0.109435
Zn8	Zn	-0.672826	-0.105312	0.117352
Zn9	Zn	-0.672842	0.105049	0.117356
O10	O	-0.668397	-0.079961	0.248631
C11	C	-0.568719	-0.000111	0.124868
C12	C	-0.505497	-0.000098	0.123656
C13	C	-0.106718	-0.000128	0.198425
C14	C	-0.047313	-0.000132	0.197299
O15	O	-0.010870	-0.000165	0.266611
N16	N	-0.024328	-0.000131	0.114547
C17	C	-0.060750	-0.000136	0.032916
O18	O	-0.035744	-0.000136	-0.037575
C19	C	-0.120154	-0.000138	0.034043
C20	C	-0.143137	-0.000130	0.116800
C21	C	-0.129701	-0.000121	0.281176
C22	C	-0.189102	-0.000115	0.282302
C23	C	-0.225521	-0.000117	0.200677
C24	C	-0.202538	-0.000124	0.117926
C25	C	-0.156576	-0.000150	-0.047587
C26	C	-0.215984	-0.000153	-0.046453
C27	C	-0.238966	-0.000145	0.036304
C28	C	-0.298357	-0.000120	0.037427
N29	N	-0.321343	-0.000121	0.120179
C30	C	-0.284925	-0.000120	0.201804
C31	C	0.064002	-0.000131	0.030555
C32	C	0.123405	-0.000121	0.029427
C33	C	0.136838	-0.000120	0.193810
C34	C	0.077434	-0.000123	0.194938
C35	C	0.041017	-0.000132	0.113307
C36	C	-0.409672	-0.000107	0.204162
C37	C	-0.469078	-0.000097	0.205281
C38	C	-0.482506	-0.000103	0.040897
C39	C	-0.423105	-0.000108	0.039778
C40	C	-0.386688	-0.000113	0.121418
O41	O	-0.334835	-0.000091	-0.031849
O42	O	-0.309939	-0.000132	0.272283
N43	N	-0.672819	-0.248878	0.117349
C44	C	-0.676864	-0.000132	-0.047509
C45	C	-0.675664	-0.000126	-0.147580
C46	C	0.223051	-0.000142	0.109840
C47	C	0.159829	-0.000125	0.111052
C48	C	-0.634171	-0.701140	0.178968
C49	C	-0.711528	-0.701125	0.055737
C50	C	-0.711521	-0.600630	0.055734
C51	C	-0.672840	-0.550384	0.117350
C52	C	-0.634165	-0.600635	0.178969
C53	C	-0.750200	-0.550372	-0.005878
C54	C	-0.750195	-0.449870	-0.005882
C55	C	-0.711510	-0.399623	0.055730
C56	C	-0.672833	-0.449879	0.117351
C57	C	-0.634151	-0.399634	0.178967
C58	C	-0.595471	-0.449889	0.240584
C59	C	-0.595480	-0.550388	0.240581
C60	C	-0.711501	-0.299124	0.055733
C61	C	-0.634144	-0.299129	0.178968
N62	N	-0.672853	0.248615	0.117352
C63	C	-0.670577	0.086907	-0.570698
C64	C	-0.670563	-0.087163	-0.570696
C65	C	-0.671696	-0.087164	-0.476675
C66	C	-0.672268	-0.000128	-0.429661
C67	C	-0.671708	0.086908	-0.476668
C68	C	-0.672251	-0.174199	-0.429660
C69	C	-0.673383	-0.174203	-0.335633
C70	C	-0.673960	-0.087167	-0.288618
C71	C	-0.673400	-0.000127	-0.335631
C72	C	-0.673972	0.086909	-0.288617
C73	C	-0.673416	0.173950	-0.335629
C74	C	-0.672284	0.173945	-0.429653
C75	C	-0.675092	-0.087162	-0.194594
C76	C	-0.675103	0.086910	-0.194587
C77	C	-0.668804	-0.000130	0.282217
C78	C	-0.670004	-0.000129	0.382288
H79	H	0.166501	-0.000123	0.260274
H80	H	-0.602643	-0.258225	0.229140
H81	H	0.058727	-0.000121	0.262326
H82	H	-0.673838	-0.245078	-0.297364
H83	H	-0.673878	0.244814	-0.297338
H84	H	-0.670094	-0.158023	-0.608979
H85	H	-0.671831	0.244809	-0.467939
H86	H	-0.670126	0.157773	-0.608980
Cl87	Cl	-0.217985	-0.000111	0.386345
Cl88	Cl	-0.671518	-0.283607	-0.488763
Cl89	Cl	0.152289	-0.000108	-0.074616
Cl90	Cl	-0.760159	-0.764288	-0.021715
Cl91	Cl	-0.394212	-0.000123	-0.064261
H92	H	-0.675572	0.157786	-0.156316
Cl93	Cl	-0.675789	-0.196575	-0.135497
Cl94	Cl	0.018225	-0.000132	-0.072078
H95	H	-0.487787	-0.000089	0.272674
Cl96	Cl	-0.528300	-0.000110	-0.061711
H97	H	-0.602677	-0.742060	0.229133
H98	H	-0.137875	-0.000158	-0.114977
H99	H	-0.742996	-0.258211	0.005569
Cl100	Cl	-0.546848	-0.386713	0.318047
H101	H	-0.100055	-0.000123	0.347649
Cl102	Cl	-0.363900	-0.000111	0.306796
Cl103	Cl	-0.798830	-0.613534	-0.083329
Cl104	Cl	-0.261763	-0.000167	-0.149081
H105	H	-0.563988	-0.591311	0.290748
H106	H	-0.781690	-0.408958	-0.056055
