data_functionalizedCrystal
_audit_creation_method	'MofGen! by Chris Wilmer'
_symmetry_space_group_name_H-M	'P1'
_symmetry_Int_Tables_number	1
_symmetry_cell_setting	triclinic
loop_
_symmetry_equiv_pos_as_xyz
  x,y,z
_cell_length_a	16.959455
_cell_length_b	16.959454
_cell_length_c	16.959447
_cell_angle_alpha	89.977515
_cell_angle_beta	90.014322
_cell_angle_gamma	90.000689
loop_
_atom_site_label
_atom_site_type_symbol
_atom_site_fract_x
_atom_site_fract_y
_atom_site_fract_z
Zn1	Zn	-1.208481	-0.314730	-0.446952
Zn2	Zn	-1.208444	-0.446923	-0.314791
Zn3	Zn	-1.076310	-0.314755	-0.314789
Zn4	Zn	-1.076315	-0.446864	-0.446930
O5	O	-1.142388	-0.380818	-0.380866
O6	O	-1.319087	-0.332280	-0.429430
O7	O	-1.190899	-0.429425	-0.204180
O8	O	-1.093855	-0.204141	-0.332329
O9	O	-1.319060	-0.429401	-0.332333
O10	O	-1.190961	-0.204123	-0.429428
O11	O	-1.093820	-0.332323	-0.204179
O12	O	-0.965699	-0.332265	-0.332308
O13	O	-1.093865	-0.429301	-0.557544
O14	O	-0.965703	-0.429325	-0.429391
O15	O	-1.190967	-0.332223	-0.557560
O16	O	-1.190904	-0.557526	-0.332311
O17	O	-1.093829	-0.557482	-0.429393
C18	C	-0.937021	-0.380792	-0.380847
C19	C	-0.849165	-0.380800	-0.380858
C20	C	-1.142385	-0.586184	-0.380867
C21	C	-1.142456	-0.674041	-0.380895
C22	C	-1.142420	-0.380753	-0.587034
C23	C	-1.142434	-0.380725	-0.674890
C24	C	-1.348556	-0.380845	-0.380884
C25	C	-1.436412	-0.380856	-0.380892
C26	C	-0.477663	-0.330238	-0.330420
C27	C	-0.477716	-0.431463	-0.431356
C28	C	-0.560261	-0.431452	-0.431352
C29	C	-0.601512	-0.380834	-0.380879
C30	C	-0.560216	-0.330226	-0.330412
C31	C	-0.601563	-0.482064	-0.481812
C32	C	-0.684114	-0.482055	-0.481809
C33	C	-0.725366	-0.431432	-0.431340
C34	C	-0.684065	-0.380822	-0.380871
C35	C	-0.725315	-0.330204	-0.330399
C36	C	-0.684016	-0.279589	-0.279933
C37	C	-0.601468	-0.279603	-0.279943
C38	C	-0.807914	-0.431418	-0.431331
C39	C	-0.807869	-0.330193	-0.330391
C40	C	-1.142412	-0.174650	-0.380881
C41	C	-1.142422	-0.086793	-0.380888
C42	C	-1.091886	-0.045495	-0.431438
C43	C	-1.192964	-0.045538	-0.330339
C44	C	-1.192973	0.037008	-0.330341
C45	C	-1.142436	0.078306	-0.380890
C46	C	-1.091891	0.037059	-0.431439
C47	C	-1.243511	0.078262	-0.279787
C48	C	-1.243521	0.160813	-0.279786
C49	C	-1.192988	0.202113	-0.330341
C50	C	-1.142442	0.160860	-0.380892
C51	C	-1.091905	0.202158	-0.431442
C52	C	-1.041362	0.160907	-0.481997
C53	C	-1.041358	0.078358	-0.481993
C54	C	-1.192992	0.284661	-0.330345
C55	C	-1.091911	0.284712	-0.431443
C56	C	-1.091972	-0.431185	-1.046360
C57	C	-1.193085	-0.330097	-1.046372
C58	C	-1.193064	-0.330114	-0.963826
C59	C	-1.142497	-0.380668	-0.922544
C60	C	-1.091951	-0.431205	-0.963807
C61	C	-1.243615	-0.279584	-0.922557
C62	C	-1.243597	-0.279599	-0.840006
C63	C	-1.193025	-0.330149	-0.798722
C64	C	-1.142476	-0.380688	-0.839990
C65	C	-1.091909	-0.431242	-0.798707
C66	C	-1.041356	-0.481777	-0.839974
C67	C	-1.041380	-0.481756	-0.922523
C68	C	-1.193001	-0.330171	-0.716173
C69	C	-1.091888	-0.431262	-0.716154
C70	C	-1.142400	-0.380826	-0.175499
C71	C	-1.142539	-0.380631	-0.087643
H72	H	-0.841449	-0.288968	-0.289295
C73	C	-0.729397	-0.223912	-0.224418
H74	H	-0.784474	-0.231156	-0.231646
H75	H	-0.715852	-0.235410	-0.171291
H76	H	-0.715871	-0.170815	-0.236082
H77	H	-1.050811	-0.472327	-1.079963
H78	H	-1.050761	0.318332	-0.472610
C79	C	-0.853340	-0.487086	-0.486835
H80	H	-0.816950	-0.517233	-0.516897
H81	H	-0.885541	-0.521481	-0.456540
H82	H	-0.885546	-0.456883	-0.521328
H83	H	-1.284677	0.194395	-0.238622
H84	H	-1.234163	-0.289028	-0.682577
H85	H	-1.000188	-0.522941	-0.806351
H86	H	-1.050737	-0.079085	-0.472601
H87	H	-1.234104	-0.079168	-0.289179
C88	C	-1.248700	-0.274489	-1.091781
H89	H	-1.241469	-0.281711	-1.146854
H90	H	-1.301806	-0.286058	-1.078252
H91	H	-1.237122	-0.221381	-1.078261
H92	H	-1.000225	-0.522901	-0.956129
H93	H	-1.234140	0.318244	-0.289179
C94	C	-1.299106	0.032835	-0.224199
H95	H	-1.291873	-0.022236	-0.231450
H96	H	-1.287538	0.046333	-0.171085
H97	H	-1.352218	0.046370	-0.235782
H98	H	-0.567835	-0.238397	-0.238856
C99	C	-0.432239	-0.274568	-0.274910
H100	H	-0.377167	-0.281824	-0.282137
H101	H	-0.445767	-0.221473	-0.286560
H102	H	-0.445750	-0.286077	-0.221779
H103	H	-1.000208	0.044764	-0.523152
H104	H	-1.284789	-0.238430	-0.956175
H105	H	-1.050703	-0.472422	-0.682547
H106	H	-1.284760	-0.238450	-0.806413
C107	C	-0.556189	-0.537738	-0.537326
H108	H	-0.501111	-0.530488	-0.530109
H109	H	-0.569716	-0.590832	-0.525672
H110	H	-0.569736	-0.526230	-0.590455
C111	C	-0.729536	-0.537720	-0.537325
H112	H	-0.693145	-0.567863	-0.567388
H113	H	-0.761739	-0.572118	-0.507035
H114	H	-0.761740	-0.507512	-0.571815
C115	C	-0.985776	0.206340	-0.537599
H116	H	-0.993024	0.261410	-0.530358
H117	H	-0.932663	0.192812	-0.526036
H118	H	-0.997363	0.192838	-0.590712
C119	C	-0.432343	-0.487138	-0.486871
H120	H	-0.377265	-0.479894	-0.479651
H121	H	-0.445876	-0.540232	-0.475221
H122	H	-0.445886	-0.475625	-0.540000
