data_functionalizedCrystal
_audit_creation_method	'MofGen! by Chris Wilmer'
_symmetry_space_group_name_H-M	'P1'
_symmetry_Int_Tables_number	1
_symmetry_cell_setting	triclinic
loop_
_symmetry_equiv_pos_as_xyz
  x,y,z
_cell_length_a	25.639242
_cell_length_b	25.639239
_cell_length_c	25.639233
_cell_angle_alpha	89.975333
_cell_angle_beta	90.022166
_cell_angle_gamma	89.964592
loop_
_atom_site_label
_atom_site_type_symbol
_atom_site_fract_x
_atom_site_fract_y
_atom_site_fract_z
Zn1	Zn	0.799221	0.208277	0.295721
Zn2	Zn	0.799142	0.295696	0.208276
Zn3	Zn	0.711797	0.208269	0.208285
Zn4	Zn	0.711740	0.295676	0.295666
O5	O	0.755475	0.251979	0.251987
O6	O	0.872375	0.219884	0.284140
O7	O	0.787547	0.284103	0.135112
O8	O	0.723450	0.135105	0.219910
O9	O	0.872318	0.284111	0.219895
O10	O	0.787680	0.135111	0.284149
O11	O	0.723375	0.219871	0.135118
O12	O	0.638624	0.219853	0.219857
O13	O	0.723354	0.284078	0.368838
O14	O	0.638583	0.284070	0.284055
O15	O	0.787625	0.219866	0.368879
O16	O	0.787492	0.368858	0.219842
O17	O	0.723278	0.368844	0.284047
C18	C	0.619633	0.251959	0.251951
C19	C	0.561518	0.251963	0.251949
C20	C	0.201143	0.285473	0.285383
C21	C	0.146538	0.285477	0.285392
O22	O	0.118291	0.313943	0.313789
N23	N	0.119236	0.251994	0.252021
C24	C	0.146541	0.218502	0.218644
O25	O	0.118304	0.190022	0.190260
C26	C	0.201144	0.218496	0.218638
C27	C	0.228444	0.251985	0.252008
C28	C	0.228442	0.318959	0.318750
C29	C	0.283043	0.318956	0.318741
C30	C	0.310344	0.285468	0.285365
C31	C	0.283044	0.251983	0.251998
C32	C	0.228448	0.185002	0.185264
C33	C	0.283055	0.185000	0.185262
C34	C	0.310355	0.218488	0.218631
C35	C	0.364946	0.218492	0.218614
N36	N	0.392248	0.251974	0.251984
C37	C	0.364947	0.285463	0.285360
C38	C	0.031870	0.218515	0.218658
C39	C	-0.022732	0.218523	0.218660
C40	C	-0.022731	0.285497	0.285409
C41	C	0.031872	0.285492	0.285404
C42	C	0.059173	0.251998	0.252028
C43	C	0.479612	0.285455	0.285338
C44	C	0.534217	0.285451	0.285324
C45	C	0.534212	0.218475	0.218578
C46	C	0.479611	0.218481	0.218589
C47	C	0.452313	0.251972	0.251974
O48	O	0.393228	0.190038	0.190232
O49	O	0.393190	0.313933	0.313743
C50	C	0.755384	0.387822	0.251949
C51	C	0.755393	0.445936	0.251950
C52	C	0.788867	0.806264	0.285509
C53	C	0.788876	0.860868	0.285520
O54	O	0.817283	0.889074	0.314005
N55	N	0.755469	0.888219	0.252051
C56	C	0.722047	0.860962	0.218572
O57	O	0.693632	0.889240	0.190106
C58	C	0.722036	0.806359	0.218563
C59	C	0.755449	0.779011	0.252031
C60	C	0.822277	0.778916	0.318974
C61	C	0.822269	0.724315	0.318961
C62	C	0.788851	0.697062	0.285483
C63	C	0.755441	0.724410	0.252018
C64	C	0.688612	0.779103	0.185087
C65	C	0.688603	0.724496	0.185082
C66	C	0.722017	0.697148	0.218549
C67	C	0.722015	0.642557	0.218528
N68	N	0.755422	0.615207	0.251997
C69	C	0.788840	0.642459	0.285474
C70	C	0.722071	0.975633	0.218594
C71	C	0.722084	1.030235	0.218600
C72	C	0.788913	1.030137	0.285549
C73	C	0.788902	0.975534	0.285540
C74	C	0.755479	0.948282	0.252063
C75	C	0.788821	0.527794	0.285445
C76	C	0.788812	0.473189	0.285428
C77	C	0.721981	0.473291	0.218481
C78	C	0.721992	0.527892	0.218496
C79	C	0.755414	0.555142	0.251982
O80	O	0.693620	0.614316	0.190059
O81	O	0.817246	0.614175	0.313941
C82	C	0.891848	0.252000	0.252023
C83	C	0.949962	0.252009	0.252038
C84	C	0.755492	0.251970	0.388360
C85	C	0.755499	0.251966	0.446474
C86	C	0.755549	1.115606	0.252042
C87	C	0.755501	1.057492	0.252080
C88	C	0.755488	0.251951	0.116144
C89	C	0.755583	0.251807	0.058031
C90	C	0.789008	0.218432	0.806864
C91	C	0.789014	0.218417	0.861468
O92	O	0.817462	0.189967	0.889728
N93	N	0.755557	0.251844	0.888757
C94	C	0.722087	0.285283	0.861438
O95	O	0.693629	0.313713	0.889663
C96	C	0.722078	0.285294	0.806835
C97	C	0.755542	0.251870	0.779549
C98	C	0.822468	0.185009	0.779578
C99	C	0.822462	0.185025	0.724977
C100	C	0.788996	0.218462	0.697663
C101	C	0.755536	0.251885	0.724948
C102	C	0.688606	0.318731	0.779517
C103	C	0.688600	0.318739	0.724910
C104	C	0.722063	0.285314	0.697624
C105	C	0.722064	0.285338	0.643033
N106	N	0.755521	0.251912	0.615745
C107	C	0.788987	0.218474	0.643059
C108	C	0.722107	0.285256	0.976109
C109	C	0.722118	0.285247	1.030711
C110	C	0.789045	0.218381	1.030737
C111	C	0.789036	0.218392	0.976134
C112	C	0.755565	0.251829	0.948820
C113	C	0.788973	0.218509	0.528394
C114	C	0.788965	0.218529	0.473789
C115	C	0.722037	0.285393	0.473767
C116	C	0.722046	0.285375	0.528368
C117	C	0.755516	0.251929	0.555680
O118	O	0.693629	0.313773	0.614739
O119	O	0.817435	0.190044	0.614828
H120	H	0.305265	0.346225	0.345915
C121	C	0.685240	0.557976	0.181682
H122	H	0.665335	0.533922	0.161744
H123	H	0.705254	0.579281	0.158928
H124	H	0.662445	0.579276	0.201669
C125	C	0.685334	1.060314	0.181784
H126	H	0.690124	1.096738	0.186580
H127	H	0.650199	1.051384	0.189396
H128	H	0.693012	1.051381	0.146659
C129	C	0.651852	0.809174	0.148276
H130	H	0.631946	0.785116	0.128345
H131	H	0.671863	0.830475	0.125516
H132	H	0.629059	0.830477	0.168261
H133	H	0.694875	0.312471	1.052923
C134	C	0.825566	0.443107	0.322243
H135	H	0.820780	0.406683	0.317440
H136	H	0.817891	0.452039	0.357366
H137	H	0.860703	0.452035	0.314627
H138	H	0.661384	0.702310	0.157821
C139	C	-0.052756	0.181689	0.181951
H140	H	-0.028671	0.161743	0.162077
H141	H	-0.074081	0.201653	0.159133
H142	H	-0.074031	0.158935	0.202001
C143	C	0.825670	1.060122	0.322377
H144	H	0.820885	1.096558	0.317590
H145	H	0.860805	1.051154	0.314765
H146	H	0.817988	1.051160	0.357499
H147	H	0.206219	0.346229	0.345932
C148	C	0.651791	0.355494	0.809520
H149	H	0.631857	0.375401	0.785424
H150	H	0.671767	0.378279	0.830824
H151	H	0.629026	0.335479	0.830814
C152	C	0.859043	0.808888	0.355799
H153	H	0.854269	0.845326	0.351019
H154	H	0.894173	0.799909	0.348179
H155	H	0.851363	0.799922	0.390920
H156	H	0.816110	0.953270	0.312792
C157	C	0.564250	0.181638	0.181870
H158	H	0.600678	0.186431	0.186651
H159	H	0.555283	0.189232	0.146725
H160	H	0.555325	0.146520	0.189598
H161	H	0.694850	0.312487	0.953873
H162	H	0.816217	0.191310	0.451575
C163	C	0.859018	0.694237	0.355779
H164	H	0.854234	0.657813	0.350981
H165	H	0.851341	0.703175	0.390900
H166	H	0.894156	0.703165	0.348165
H167	H	0.816284	0.191174	0.953922
C168	C	0.859290	0.148232	0.809619
H169	H	0.854509	0.153006	0.846048
H170	H	0.894408	0.155899	0.800668
H171	H	0.851666	0.113100	0.800675
H172	H	0.206230	0.157734	0.158090
H173	H	0.694855	0.953447	0.191328
H174	H	0.556442	0.312723	0.312498
H175	H	0.816294	0.191153	1.052987
C176	C	0.061896	0.181676	0.181937
H177	H	0.037812	0.161742	0.162062
H178	H	0.083219	0.158920	0.201974
H179	H	0.083173	0.201644	0.159112
C180	C	0.825589	0.557762	0.322274
H181	H	0.845486	0.533648	0.342196
H182	H	0.805583	0.579065	0.345042
H183	H	0.848390	0.579054	0.302298
C184	C	0.651794	0.355534	0.694868
H185	H	0.631874	0.375442	0.718942
H186	H	0.629022	0.335547	0.673557
H187	H	0.671786	0.378324	0.673576
H188	H	0.694774	0.451094	0.191222
H189	H	0.816225	0.191272	0.550625
H190	H	0.054096	0.312760	0.312576
C191	C	0.859267	0.148252	0.694970
H192	H	0.879192	0.128335	0.719064
H193	H	0.882033	0.168255	0.673669
H194	H	0.839278	0.125469	0.673671
C195	C	0.685241	0.322145	0.558383
H196	H	0.665308	0.342060	0.534293
H197	H	0.705223	0.344922	0.579689
H198	H	0.662474	0.302130	0.579677
H199	H	0.694791	0.312619	0.451518
H200	H	0.305280	0.157721	0.158087
H201	H	0.457383	0.191213	0.191416
C202	C	-0.052769	0.322329	0.322127
H203	H	-0.089198	0.317529	0.317352
H204	H	-0.043848	0.357449	0.314411
H205	H	-0.043799	0.314723	0.357271
C206	C	0.449592	0.322279	0.322076
H207	H	0.473677	0.342216	0.341946
H208	H	0.428323	0.302301	0.344895
H209	H	0.428260	0.345041	0.302050
