data_functionalizedCrystal
_audit_creation_method	'MofGen! by Chris Wilmer'
_symmetry_space_group_name_H-M	'P1'
_symmetry_Int_Tables_number	1
_symmetry_cell_setting	triclinic
loop_
_symmetry_equiv_pos_as_xyz
  x,y,z
_cell_length_a	17.699083
_cell_length_b	12.503572
_cell_length_c	17.699083
_cell_angle_alpha	86.484775
_cell_angle_beta	83.283015
_cell_angle_gamma	93.505083
loop_
_atom_site_label
_atom_site_type_symbol
_atom_site_fract_x
_atom_site_fract_y
_atom_site_fract_z
O1	O	1.008441	0.089171	0.091332
O2	O	0.788064	0.089207	0.103783
O3	O	0.904478	0.089179	-0.012631
O4	O	0.892027	0.089200	0.207746
O5	O	0.895723	-0.089461	-0.003862
O6	O	0.779309	-0.089433	0.112552
O7	O	0.999686	-0.089468	0.100101
Cu8	Cu	0.888698	-0.105762	0.107128
Cu9	Cu	0.899052	0.105500	0.096757
O10	O	0.883272	-0.089440	0.216516
C11	C	0.755490	-0.000109	0.107721
C12	C	0.671473	-0.000095	0.106382
N13	N	0.881421	-0.254352	0.114421
C14	C	0.622852	-0.000089	0.174715
C15	C	0.543908	-0.000103	0.173453
C16	C	0.513587	-0.000116	0.103857
C17	C	0.562213	-0.000125	0.035519
C18	C	0.641155	-0.000119	0.036782
C19	C	0.243849	-0.000152	0.030425
C20	C	0.164901	-0.000155	0.029168
C21	C	0.146602	-0.000137	0.167097
C22	C	0.225544	-0.000130	0.168359
C23	C	0.274163	-0.000145	0.100022
C24	C	0.359763	-0.000132	0.101391
C25	C	0.427989	-0.000121	0.102487
C26	C	0.870717	-0.473465	0.125157
C27	C	0.917037	-0.526803	0.078723
C28	C	0.911081	-0.648725	0.084697
C29	C	0.876672	-0.351532	0.119185
C30	C	1.032260	-0.000151	0.096163
C31	C	1.116278	-0.000157	0.097502
C32	C	0.899655	-0.000141	-0.036444
C33	C	0.898316	-0.000142	-0.120462
N34	N	0.906335	0.254091	0.089457
C35	C	0.966649	-0.000154	-0.169082
C36	C	0.965387	-0.000144	-0.248026
C37	C	0.895791	-0.000130	-0.278347
C38	C	0.827453	-0.000114	-0.229721
C39	C	0.828716	-0.000116	-0.150779
C40	C	0.822359	-0.000105	-0.548084
C41	C	0.821101	-0.000106	-0.627032
C42	C	0.959029	-0.000133	-0.645331
C43	C	0.960292	-0.000135	-0.566389
C44	C	0.891955	-0.000113	-0.517770
C45	C	0.893324	-0.000122	-0.432171
C46	C	0.894421	-0.000129	-0.363945
C47	C	0.888096	-0.000118	0.240328
C48	C	0.889435	-0.000111	0.324345
H49	H	0.647533	-0.000078	0.231388
H50	H	1.016964	-0.000152	-0.541706
F51	F	0.749628	-0.000079	-0.496350
H52	H	0.773073	-0.000106	-0.111192
H53	H	1.014673	-0.000145	-0.684927
H54	H	0.770788	-0.000095	-0.254415
F55	F	0.692901	-0.000129	-0.035947
H56	H	0.504324	-0.000097	0.229097
F57	F	0.747024	-0.000089	-0.659300
H58	H	0.250227	-0.000115	0.225031
F59	F	0.132633	-0.000169	-0.044909
H60	H	0.107005	-0.000130	0.222741
F61	F	0.813041	-0.533457	0.182980
F62	F	1.040723	-0.000180	-0.136819
F63	F	0.974944	-0.466810	0.021125
F64	F	0.295584	-0.000168	-0.042306
F65	F	1.038116	-0.000160	-0.299768
H66	H	0.537519	-0.000151	-0.021146
