data_functionalizedCrystal
_audit_creation_method	'MofGen! by Chris Wilmer'
_symmetry_space_group_name_H-M	'P1'
_symmetry_Int_Tables_number	1
_symmetry_cell_setting	triclinic
loop_
_symmetry_equiv_pos_as_xyz
  x,y,z
_cell_length_a	6.817900
_cell_length_b	7.076105
_cell_length_c	26.552241
_cell_angle_alpha	89.944991
_cell_angle_beta	104.518070
_cell_angle_gamma	117.701832
loop_
_atom_site_label
_atom_site_type_symbol
_atom_site_fract_x
_atom_site_fract_y
_atom_site_fract_z
V1	V	-4.202876	-0.661615	-0.071050
O2	O	-4.183690	-0.652556	0.004250
O3	O	-4.156408	-0.653689	-0.141683
O4	O	-4.229816	-0.951719	-0.069591
O5	O	-4.109773	-0.352463	-0.068342
V6	V	-4.676491	-0.625051	-0.062087
O7	O	-4.485868	-0.741821	-0.090712
O8	O	-4.843697	-0.544845	-0.042425
O9	O	-4.499753	-0.632976	0.008547
O10	O	-4.813075	-0.634110	-0.137386
O11	O	-4.886991	-0.934203	-0.064794
O12	O	-4.426345	-0.334946	-0.063546
C13	C	-3.999441	-0.642375	-0.158914
C14	C	-4.043237	-0.637829	-0.216655
C15	C	-4.254322	-0.648959	0.084599
C16	C	-4.320069	-0.644303	0.025773
C17	C	-4.248795	-0.646196	-0.246411
C18	C	-4.289957	-0.641946	-0.300666
C19	C	-4.125527	-0.629285	-0.325162
C20	C	-3.919945	-0.620929	-0.295400
C21	C	-3.878800	-0.625201	-0.241147
C22	C	-3.990267	-0.489145	-0.404484
C23	C	-4.031413	-0.484861	-0.458736
C24	C	-4.252430	-0.616119	-0.492497
C25	C	-4.432317	-0.751637	-0.471999
C26	C	-4.391171	-0.755909	-0.417746
C27	C	-4.170122	-0.624654	-0.383990
C28	C	-4.502634	-0.619882	-0.581082
C29	C	-4.543795	-0.615645	-0.635339
C30	C	-4.173767	-0.594606	-0.630071
C31	C	-4.132623	-0.598865	-0.575816
C32	C	-4.297060	-0.611493	-0.551325
C33	C	-4.100033	-0.022538	-0.066949
C34	C	-4.226440	-0.264126	-0.066195
V35	V	-4.401789	-0.637017	0.180270
O36	O	-4.349984	-0.622741	0.256882
O37	O	-4.390007	-0.640737	0.106716
O38	O	-4.462787	-0.938844	0.178790
O39	O	-4.276701	-0.322570	0.184309
V40	V	-4.821181	-0.541868	0.203891
O41	O	-4.676565	-0.689836	0.167456
O42	O	-4.953297	-0.435956	0.229988
O43	O	-4.631227	-0.564472	0.270860
O44	O	-4.979090	-0.542300	0.130743
O45	O	-5.052374	-0.842470	0.203316
O46	O	-4.558447	-0.266365	0.198786
C47	C	-4.462655	-0.595954	0.283042
C48	C	-4.379363	-0.602988	0.340169
C49	C	-4.369803	-0.215688	0.191105
C50	C	-4.224818	0.023453	0.189757
H51	H	-4.457352	-0.648760	-0.324897
H52	H	-3.786071	-0.610625	-0.315348
O53	O	-3.678888	-0.616670	-0.212248
C54	C	-3.263217	-0.414739	-0.184353
C55	C	-3.489449	-0.424110	-0.217093
H56	H	-3.109996	-0.259090	-0.188267
H57	H	-3.261857	-0.419810	-0.141356
H58	H	-3.250322	-0.558484	-0.199228
H59	H	-3.502491	-0.280394	-0.202263
H60	H	-3.490713	-0.419144	-0.260084
H61	H	-4.537642	-0.866254	-0.401058
H62	H	-4.612185	-0.858814	-0.499494
H63	H	-4.636527	-0.630161	-0.561140
O64	O	-4.408491	-0.658771	-0.222572
C65	C	-4.663709	-0.861191	-0.171225
C66	C	-4.482844	-0.847184	-0.198191
H67	H	-4.723912	-1.013535	-0.151517
H68	H	-4.583610	-0.714133	-0.140413
H69	H	-4.817632	-0.866339	-0.201820
H70	H	-4.328869	-0.842103	-0.167636
H71	H	-4.563121	-0.994239	-0.229013
H72	H	-4.711195	-0.622474	-0.659565
O73	O	-4.013922	-0.581927	-0.653868
C74	C	-3.758907	-0.379655	-0.705269
C75	C	-3.939863	-0.393713	-0.678329
H76	H	-3.699013	-0.227519	-0.725062
H77	H	-3.604781	-0.374251	-0.674696
H78	H	-3.839095	-0.526898	-0.736028
H79	H	-3.859886	-0.246507	-0.647573
H80	H	-4.093966	-0.399221	-0.708933
H81	H	-3.965230	-0.592037	-0.551588
H82	H	-3.884940	-0.374501	-0.475421
H83	H	-3.810278	-0.382265	-0.377000
