data_functionalizedCrystal
_audit_creation_method	'MofGen! by Chris Wilmer'
_symmetry_space_group_name_H-M	'P1'
_symmetry_Int_Tables_number	1
_symmetry_cell_setting	triclinic
loop_
_symmetry_equiv_pos_as_xyz
  x,y,z
_cell_length_a	14.519709
_cell_length_b	14.519731
_cell_length_c	12.996460
_cell_angle_alpha	90.005673
_cell_angle_beta	90.007090
_cell_angle_gamma	83.684499
loop_
_atom_site_label
_atom_site_type_symbol
_atom_site_fract_x
_atom_site_fract_y
_atom_site_fract_z
O1	O	0.120986	1.223857	0.085571
O2	O	0.620986	1.723857	0.585571
O3	O	0.135203	0.955382	0.085573
O4	O	0.635203	1.455382	0.585573
O5	O	-0.006143	1.096738	0.085563
O6	O	0.493857	1.596738	0.585563
O7	O	0.262332	1.082501	0.085582
O8	O	0.762332	1.582501	0.585582
O9	O	-0.006151	1.096723	-0.085571
O10	O	0.493849	1.596723	0.414429
O11	O	0.135195	0.955368	-0.085561
O12	O	0.635195	1.455368	0.414439
O13	O	0.120979	1.223842	-0.085563
O14	O	0.620979	1.723842	0.414437
Cu15	Cu	0.128086	1.089603	-0.101187
Cu16	Cu	0.628086	1.589603	0.398813
Cu17	Cu	0.128095	1.089621	0.101198
Cu18	Cu	0.628095	1.589621	0.601198
O19	O	0.262325	1.082487	-0.085552
O20	O	0.762325	1.582487	0.414448
C21	C	0.134532	0.921016	0.000006
C22	C	0.634532	1.421016	0.500006
C23	C	0.132536	0.818635	0.000007
C24	C	0.632536	1.318635	0.500007
C25	C	0.130915	0.735491	0.000011
C26	C	0.630915	1.235491	0.500011
C27	C	0.128888	0.631182	0.000011
C28	C	0.628888	1.131182	0.500011
C29	C	0.127280	0.548043	0.000011
C30	C	0.627280	1.048043	0.500011
C31	C	0.125253	0.443728	0.000013
C32	C	0.625253	0.943728	0.500013
C33	C	-0.040507	1.096067	-0.000004
C34	C	0.459493	1.596067	0.499996
C35	C	-0.142889	1.094079	-0.000005
C36	C	0.357111	1.594079	0.499995
C37	C	-0.517785	1.086759	0.000022
C38	C	-0.017785	1.586759	0.500022
C39	C	-0.413477	1.088792	0.000014
C40	C	0.086523	1.588792	0.500014
C41	C	-0.330340	1.090419	0.000008
C42	C	0.169660	1.590419	0.500008
C43	C	-0.226025	1.092452	0.000002
C44	C	0.273975	1.592452	0.500002
C45	C	0.296688	1.083157	0.000017
C46	C	0.796688	1.583157	0.500017
C47	C	0.399070	1.085146	0.000024
C48	C	0.899070	1.585146	0.500024
C49	C	0.121649	1.258209	0.000007
C50	C	0.621649	1.758209	0.500007
C51	C	0.123645	1.360589	0.000013
C52	C	0.623645	1.860589	0.500013
N53	N	0.128079	1.089598	-0.243535
N54	N	0.628079	1.589598	0.256465
C55	C	0.128096	1.089620	-0.663349
C56	C	0.628096	1.589620	-0.163349
C57	C	0.128094	1.089611	-0.546544
C58	C	0.628094	1.589611	-0.046544
C59	C	0.128088	1.089609	-0.453445
C60	C	0.628088	1.589609	0.046555
C61	C	0.128085	1.089600	-0.336633
C62	C	0.628085	1.589600	0.163367
N63	N	0.128095	1.089634	0.243545
N64	N	0.628095	1.589634	0.743545
