data_functionalizedCrystal
_audit_creation_method	'MofGen! by Chris Wilmer'
_symmetry_space_group_name_H-M	'P1'
_symmetry_Int_Tables_number	1
_symmetry_cell_setting	triclinic
loop_
_symmetry_equiv_pos_as_xyz
  x,y,z
_cell_length_a	18.215405
_cell_length_b	18.215407
_cell_length_c	18.215399
_cell_angle_alpha	90.017294
_cell_angle_beta	89.972040
_cell_angle_gamma	89.981648
loop_
_atom_site_label
_atom_site_type_symbol
_atom_site_fract_x
_atom_site_fract_y
_atom_site_fract_z
Zn1	Zn	-0.293075	-1.125079	-0.416078
Zn2	Zn	-0.416147	-1.124993	-0.293012
Zn3	Zn	-0.293089	-1.002013	-0.293029
Zn4	Zn	-0.416095	-1.001982	-0.416041
O5	O	-0.354601	-1.063517	-0.354540
O6	O	-0.309416	-1.228052	-0.399761
O7	O	-0.399851	-1.108657	-0.190030
O8	O	-0.190103	-1.018387	-0.309374
O9	O	-0.399837	-1.227989	-0.309345
O10	O	-0.190092	-1.108803	-0.399777
O11	O	-0.309441	-1.018303	-0.190043
O12	O	-0.309391	-0.899025	-0.309339
O13	O	-0.399748	-1.018335	-0.519031
O14	O	-0.399762	-0.899002	-0.399716
O15	O	-0.309366	-1.108774	-0.519057
O16	O	-0.519124	-1.108627	-0.309310
O17	O	-0.519086	-1.018251	-0.399699
C18	C	-0.354573	-0.872311	-0.354526
C19	C	-0.354578	-0.790512	-0.354537
C20	C	-0.307587	-0.602350	-0.401690
C21	C	-0.307591	-0.525491	-0.401692
C22	C	-0.401605	-0.525436	-0.307396
C23	C	-0.401597	-0.602294	-0.307391
C24	C	-0.354589	-0.640748	-0.354542
C25	C	-0.354601	-0.487032	-0.354549
C26	C	-0.354605	-0.403699	-0.354551
C27	C	-0.354583	-0.724087	-0.354540
C28	C	-0.545808	-1.063447	-0.354515
C29	C	-0.627607	-1.063484	-0.354529
C30	C	-0.815734	-1.110586	-0.401665
C31	C	-0.892593	-1.110613	-0.401679
C32	C	-0.892717	-1.016539	-0.307461
C33	C	-0.815860	-1.016509	-0.307451
C34	C	-0.777370	-1.063537	-0.354552
C35	C	-0.931086	-1.063593	-0.354576
C36	C	-1.014420	-1.063622	-0.354590
C37	C	-0.694031	-1.063508	-0.354539
C38	C	-0.162649	-1.063608	-0.354582
C39	C	-0.080850	-1.063647	-0.354599
C40	C	-0.354549	-1.063560	-0.546493
C41	C	-0.354527	-1.063579	-0.628292
C42	C	-0.354623	-0.255470	-0.354553
C43	C	-0.354611	-0.337269	-0.354554
C44	C	-0.307402	-1.110697	-0.893365
C45	C	-0.307422	-1.110689	-0.816506
C46	C	-0.401546	-1.016520	-0.816468
C47	C	-0.401529	-1.016533	-0.893325
C48	C	-0.354453	-1.063620	-0.931772
C49	C	-0.354489	-1.063599	-0.778056
C50	C	-0.354511	-1.063589	-0.694722
C51	C	-0.354432	-1.063631	-1.015111
C52	C	-0.354600	-1.063516	-0.163334
C53	C	-0.354415	-1.063641	-0.081535
H54	H	-0.439877	-0.494117	-0.269009
H55	H	-0.439872	-0.633559	-0.268994
O56	O	-0.778263	-1.156158	-0.447458
C57	C	-0.733820	-1.114208	-0.494956
H58	H	-0.722362	-1.058450	-0.468944
H59	H	-0.763413	-1.106096	-0.549489
C60	C	-0.674850	-1.223144	-0.540261
C61	C	-0.660771	-1.154664	-0.508309
H62	H	-0.629791	-1.248100	-0.548501
H63	H	-0.704793	-1.251408	-0.508263
H64	H	-0.699513	-1.216375	-0.585702
H65	H	-0.636118	-1.161434	-0.462866
H66	H	-0.630822	-1.126402	-0.540300
O67	O	-0.261599	-1.156335	-0.930745
C68	C	-0.214063	-1.114466	-0.975222
H69	H	-0.209516	-1.056502	-0.952055
H70	H	-0.236802	-1.111932	-1.033465
C71	C	-0.143146	-1.221646	-1.004880
C72	C	-0.137557	-1.150455	-0.976421
H73	H	-0.095955	-1.243847	-1.005623
H74	H	-0.175174	-1.249855	-0.974917
H75	H	-0.162098	-1.219525	-1.053413
H76	H	-0.118614	-1.152578	-0.927886
H77	H	-0.105525	-1.122247	-1.006376
O78	O	-0.778702	-0.970780	-0.261613
C79	C	-0.829153	-0.929270	-0.220051
H80	H	-0.883920	-0.959435	-0.217534
H81	H	-0.837350	-0.873364	-0.246951
C82	C	-0.731941	-0.881650	-0.144807
C83	C	-0.799205	-0.918702	-0.141710
H84	H	-0.713467	-0.875127	-0.096483
H85	H	-0.697950	-0.909613	-0.172810
H86	H	-0.738781	-0.835066	-0.167227
H87	H	-0.792362	-0.965288	-0.119299
H88	H	-0.833194	-0.890746	-0.113702
H89	H	-0.439873	-0.978182	-0.785156
H90	H	-0.269108	-1.149024	-0.785238
O91	O	-0.447261	-0.970729	-0.930525
C92	C	-0.488824	-0.929174	-0.880113
H93	H	-0.458693	-0.926625	-0.825333
H94	H	-0.544720	-0.956101	-0.871927
C95	C	-0.536425	-0.853983	-0.977381
C96	C	-0.499415	-0.850847	-0.910102
H97	H	-0.542962	-0.805668	-0.995881
H98	H	-0.508426	-0.881981	-1.011346
H99	H	-0.583001	-0.876425	-0.970551
H100	H	-0.452837	-0.828414	-0.916935
H101	H	-0.527407	-0.822843	-0.876139
H102	H	-0.269316	-0.494230	-0.440083
H103	H	-0.269308	-0.633658	-0.440081
H104	H	-0.923825	-1.148923	-0.440045
H105	H	-0.924064	-0.978252	-0.269112
