data_functionalizedCrystal
_audit_creation_method	'MofGen! by Chris Wilmer'
_symmetry_space_group_name_H-M	'P1'
_symmetry_Int_Tables_number	1
_symmetry_cell_setting	triclinic
loop_
_symmetry_equiv_pos_as_xyz
  x,y,z
_cell_length_a	19.188905
_cell_length_b	27.732048
_cell_length_c	17.666332
_cell_angle_alpha	89.988553
_cell_angle_beta	89.983521
_cell_angle_gamma	82.888605
loop_
_atom_site_label
_atom_site_type_symbol
_atom_site_fract_x
_atom_site_fract_y
_atom_site_fract_z
O1	O	0.925776	0.060290	-0.063081
O2	O	0.722411	0.068427	-0.063056
O3	O	0.830409	-0.006019	-0.063055
O4	O	0.817777	0.134736	-0.063082
O5	O	0.830391	-0.006023	0.062842
O6	O	0.722392	0.068423	0.062840
O7	O	0.925757	0.060286	0.062816
Cu8	Cu	0.824073	0.064354	0.074323
Cu9	Cu	0.824095	0.064359	-0.074564
O10	O	0.817758	0.134733	0.062814
C11	C	0.696391	0.068163	-0.000105
C12	C	0.618891	0.067379	-0.000095
C13	C	0.582512	0.067004	-0.068723
C14	C	0.509693	0.066261	-0.068732
C15	C	0.473258	0.065883	-0.000109
C16	C	0.509645	0.066261	0.068528
C17	C	0.582462	0.067008	0.068535
N18	N	0.364413	0.037200	0.050966
N19	N	0.295241	0.036489	0.050954
C20	C	0.253866	0.063631	-0.000127
N21	N	0.284278	0.091506	-0.051208
N22	N	0.353457	0.092215	-0.051198
C23	C	0.394301	0.065073	-0.000109
C24	C	0.138528	0.062452	-0.068770
C25	C	0.065707	0.061712	-0.068776
C26	C	0.065662	0.061707	0.068486
C27	C	0.138480	0.062452	0.068490
C28	C	0.174909	0.062822	-0.000140
C29	C	0.830135	-0.024029	-0.000105
C30	C	0.829336	-0.077686	-0.000098
C31	C	0.888130	-0.416325	-0.000144
C32	C	0.885167	-0.617994	-0.000154
O33	O	0.938930	-0.649088	-0.000194
N34	N	0.821129	-0.637309	-0.000146
C35	C	0.757826	-0.606204	-0.000140
O36	O	0.703289	-0.627261	-0.000141
C37	C	0.760789	-0.404537	-0.000135
C38	C	0.824832	-0.385224	-0.000136
C39	C	0.952168	-0.397012	-0.000146
C40	C	0.952908	-0.346598	-0.000139
C41	C	0.889610	-0.315497	-0.000131
C42	C	0.825572	-0.334810	-0.000129
C43	C	0.697487	-0.373432	-0.000134
C44	C	0.698234	-0.323013	-0.000135
C45	C	0.762277	-0.303700	-0.000136
C46	C	0.763014	-0.253295	-0.000114
N47	N	0.827053	-0.233979	-0.000123
C48	C	0.890351	-0.265080	-0.000131
C49	C	0.756275	-0.712083	-0.000141
C50	C	0.755534	-0.762499	-0.000141
C51	C	0.882876	-0.774286	-0.000157
C52	C	0.883616	-0.723868	-0.000152
C53	C	0.820313	-0.692767	-0.000149
C54	C	0.891900	-0.159206	-0.000116
C55	C	0.892634	-0.108787	-0.000107
C56	C	0.765293	-0.097006	-0.000095
C57	C	0.764558	-0.147420	-0.000100
C58	C	0.827867	-0.178520	-0.000114
O59	O	0.709280	-0.222172	-0.000083
O60	O	0.944880	-0.244014	-0.000147
C61	C	0.887390	-0.466739	-0.000151
C62	C	0.823352	-0.486052	-0.000149
C63	C	0.760054	-0.454951	-0.000141
C64	C	0.822611	-0.536469	-0.000149
C65	C	0.885909	-0.567570	-0.000157
C66	C	0.949948	-0.548255	-0.000166
C67	C	0.950688	-0.497840	-0.000159
C68	C	0.696015	-0.474267	-0.000132
C69	C	0.695281	-0.524681	-0.000138
C70	C	0.758579	-0.555783	-0.000147
C71	C	0.951776	0.060550	-0.000138
C72	C	1.029277	0.061335	-0.000153
C73	C	0.818033	0.152742	-0.000138
C74	C	0.818831	0.206399	-0.000149
N75	N	0.824062	0.064351	0.179043
N76	N	0.824111	0.064359	-0.179284
C77	C	0.871900	0.031402	0.218653
C78	C	0.871904	0.031400	0.297901
C79	C	0.824077	0.064354	0.337535
C80	C	0.776231	0.097306	0.297915
C81	C	0.776224	0.097304	0.218669
N82	N	0.814728	0.107145	0.461946
N83	N	0.814739	0.107145	0.537226
C84	C	0.824095	0.064361	0.576299
N85	N	0.833454	0.021576	0.537247
N86	N	0.833446	0.021576	0.461960
C87	C	0.824079	0.064360	0.423464
C88	C	0.871940	0.031407	0.701839
C89	C	0.871939	0.031404	0.781088
C90	C	0.776270	0.097314	0.781101
C91	C	0.776267	0.097313	0.701853
C92	C	0.824106	0.064360	0.662227
H93	H	0.479975	0.065954	0.124401
H94	H	0.168101	0.062754	0.124375
H95	H	0.737326	0.124145	0.813370
H96	H	0.910851	0.004569	0.186392
Br97	Br	0.016332	0.061209	-0.161923
Br98	Br	0.631948	0.067507	-0.161863
Br99	Br	0.460310	0.065753	-0.161877
H100	H	0.910860	0.004568	0.330157
Br101	Br	0.016221	0.061201	0.161619
H102	H	0.910891	0.004573	0.669574
H103	H	0.644469	-0.448949	-0.000127
H104	H	0.934415	-0.799617	-0.000163
H105	H	0.643125	-0.540400	-0.000131
Br106	Br	0.979556	-0.082581	-0.000107
Br107	Br	0.631837	0.067518	0.161681
H108	H	0.943453	-0.184522	-0.000130
Br109	Br	0.970534	-0.697664	-0.000151
Br110	Br	0.668615	-0.788703	-0.000122
Br111	Br	0.711318	0.142027	0.351701
H112	H	0.910892	0.004571	0.813339
H113	H	0.168189	0.062758	-0.124653
H114	H	0.704723	-0.686764	-0.000139
H115	H	0.645336	-0.389147	-0.000138
H116	H	1.002838	-0.482121	-0.000160
Br117	Br	1.039828	-0.320396	-0.000162
Br118	Br	1.038084	-0.439212	-0.000158
Br119	Br	0.612318	-0.280807	-0.000136
Br120	Br	0.677642	-0.173631	-0.000082
Br121	Br	0.711296	0.142023	0.164907
H122	H	1.001487	-0.573586	-0.000169
Br123	Br	0.679393	-0.054788	-0.000083
Br124	Br	0.711345	0.142033	0.648090
