data_functionalizedCrystal
_audit_creation_method	'MofGen! by Chris Wilmer'
_symmetry_space_group_name_H-M	'P1'
_symmetry_Int_Tables_number	1
_symmetry_cell_setting	triclinic
loop_
_symmetry_equiv_pos_as_xyz
  x,y,z
_cell_length_a	10.654545
_cell_length_b	19.188928
_cell_length_c	18.266242
_cell_angle_alpha	90.013749
_cell_angle_beta	89.991433
_cell_angle_gamma	96.186554
loop_
_atom_site_label
_atom_site_type_symbol
_atom_site_fract_x
_atom_site_fract_y
_atom_site_fract_z
O1	O	1.665776	-0.098048	-0.060887
O2	O	2.165776	0.401952	0.439113
O3	O	1.300099	-0.107394	-0.060891
O4	O	1.800099	0.392606	0.439109
O5	O	1.493492	-0.001134	-0.060870
O6	O	1.993492	0.498866	0.439130
O7	O	1.472384	-0.204308	-0.060908
O8	O	1.972384	0.295692	0.439092
O9	O	1.493459	-0.001129	0.060892
O10	O	1.993459	0.498871	0.560892
O11	O	1.300067	-0.107389	0.060871
O12	O	1.800067	0.392611	0.560871
O13	O	1.665744	-0.098043	0.060875
O14	O	2.165744	0.401957	0.560875
Zn15	Zn	1.482900	-0.102715	0.080205
Zn16	Zn	1.982900	0.397285	0.580205
Zn17	Zn	1.482943	-0.102722	-0.080221
Zn18	Zn	1.982943	0.397278	0.419779
O19	O	1.472351	-0.204302	0.060854
O20	O	1.972351	0.295698	0.560854
C21	C	1.253299	-0.106706	-0.000011
C22	C	1.753299	0.393294	0.499989
C23	C	1.113899	-0.104655	-0.000011
C24	C	1.613899	0.395345	0.499989
C25	C	1.048397	-0.103686	0.066362
C26	C	1.548397	0.396314	0.566362
C27	C	0.917419	-0.101747	0.066362
C28	C	1.417419	0.398253	0.566362
C29	C	0.917455	-0.101749	-0.066390
C30	C	1.417455	0.398251	0.433610
C31	C	1.048432	-0.103683	-0.066389
C32	C	1.548432	0.396317	0.433611
C33	C	1.492793	0.024884	0.000014
C34	C	1.992793	0.524884	0.500014
C35	C	1.490742	0.102402	0.000023
C36	C	1.990742	0.602402	0.500023
C37	C	1.604218	0.146585	0.000030
C38	C	2.104218	0.646585	0.500030
C39	C	1.602292	0.219421	0.000021
C40	C	2.102292	0.719421	0.500021
C41	C	1.486883	0.248072	0.000020
C42	C	1.986883	0.748072	0.500020
C43	C	1.373392	0.203879	0.000010
C44	C	1.873392	0.703879	0.500010
C45	C	1.375321	0.131044	0.000011
C46	C	1.875321	0.631044	0.500011
N47	N	1.398657	0.356655	0.041462
N48	N	1.898657	0.856655	0.541462
N49	N	1.396831	0.425845	0.041462
N50	N	1.896831	0.925845	0.541462
C51	C	1.481062	0.467519	0.000015
C52	C	1.981062	0.967519	0.500015
N53	N	1.567206	0.437388	-0.041424
N54	N	2.067206	0.937388	0.458576
N55	N	1.569035	0.368192	-0.041421
N56	N	2.069035	0.868192	0.458579
C57	C	1.484778	0.327048	0.000019
C58	C	1.984778	0.827048	0.500019
C59	C	1.592457	0.590680	0.000011
C60	C	2.092457	1.090680	0.500011
C61	C	1.590526	0.663517	-0.000002
C62	C	2.090526	1.163517	0.499998
C63	C	1.361623	0.647973	-0.000006
C64	C	1.861623	1.147973	0.499994
C65	C	1.363557	0.575137	-0.000000
C66	C	1.863557	1.075137	0.500000
C67	C	1.478978	0.546495	0.000012
C68	C	1.978978	1.046495	0.500012
C69	C	1.712544	-0.098731	-0.000007
C70	C	2.212544	0.401269	0.499993
C71	C	1.851944	-0.100782	-0.000011
C72	C	2.351944	0.399218	0.499989
C73	C	1.473054	0.769680	-0.000021
C74	C	1.973054	1.269680	0.499979
C75	C	1.475116	0.692162	-0.000004
C76	C	1.975116	1.192162	0.499996
N77	N	1.482880	-0.102709	0.189692
N78	N	1.982880	0.397291	0.689692
N79	N	1.482973	-0.102722	-0.189708
N80	N	1.982973	0.397278	0.310292
C81	C	1.568542	-0.055681	0.228010
C82	C	2.068542	0.444319	0.728010
C83	C	1.568550	-0.055678	0.304655
C84	C	2.068550	0.444322	0.804655
C85	C	1.482908	-0.102715	0.342979
C86	C	1.982908	0.397285	0.842979
C87	C	1.397229	-0.149747	0.304652
C88	C	1.897229	0.350253	0.804652
C89	C	1.397215	-0.149744	0.228008
C90	C	1.897215	0.350256	0.728008
N91	N	1.466583	-0.164416	0.463300
N92	N	1.966583	0.335584	0.963300
N93	N	1.466604	-0.164416	0.536108
N94	N	1.966604	0.335584	1.036108
C95	C	1.482943	-0.102725	0.573901
C96	C	1.982943	0.397275	1.073901
N97	N	1.499285	-0.041032	0.536136
N98	N	1.999285	0.458968	1.036136
N99	N	1.499270	-0.041032	0.463321
N100	N	1.999270	0.458968	0.963321
C101	C	1.482913	-0.102723	0.426086
C102	C	1.982913	0.397277	0.926086
C103	C	1.568618	-0.055689	0.695327
C104	C	2.068618	0.444311	1.195327
C105	C	1.568618	-0.055685	0.771973
C106	C	2.068618	0.444315	1.271973
C107	C	1.397303	-0.149761	0.771968
C108	C	1.897303	0.350239	1.271968
C109	C	1.397298	-0.149759	0.695323
C110	C	1.897298	0.350241	1.195323
C111	C	1.482962	-0.102724	0.657007
C112	C	1.982962	0.397276	1.157007
H113	H	0.864136	-0.100958	-0.120432
H114	H	1.364136	0.399042	0.379568
F115	F	1.118150	-0.104709	-0.137036
F116	F	1.618150	0.395291	0.362964
F117	F	0.847713	-0.100717	0.137006
F118	F	1.347713	0.399283	0.637006
F119	F	1.723074	0.266453	0.000027
F120	F	2.223074	0.766453	0.500027
H121	H	1.698203	0.123269	0.000037
H122	H	2.198203	0.623269	0.500037
H123	H	1.279425	0.227211	0.000008
H124	H	1.779425	0.727211	0.500008
F125	F	1.242778	0.528112	-0.000004
F126	F	1.742778	1.028112	0.499996
H127	H	1.638292	-0.017381	0.196815
H128	H	2.138292	0.482619	0.696815
H129	H	1.267654	0.671299	-0.000010
H130	H	1.767654	1.171299	0.499990
F131	F	1.254539	0.084019	0.000004
F132	F	1.754539	0.584019	0.500004
H133	H	1.686440	0.567358	0.000017
H134	H	2.186440	1.067358	0.500017
F135	F	1.711310	0.710540	-0.000000
F136	F	2.211310	1.210540	0.500000
H137	H	1.638309	-0.017380	0.335859
H138	H	2.138309	0.482620	0.835859
F139	F	1.659788	-0.005625	0.812755
F140	F	2.159788	0.494375	1.312755
H141	H	1.327496	-0.188044	0.335859
H142	H	1.827496	0.311956	0.835859
H143	H	1.327457	-0.188041	0.196809
H144	H	1.827457	0.311959	0.696809
H145	H	1.638368	-0.017389	0.664128
H146	H	2.138368	0.482611	1.164128
F147	F	1.306149	-0.199817	0.812752
F148	F	1.806149	0.300183	1.312752
H149	H	1.327549	-0.188056	0.664123
H150	H	1.827549	0.311944	1.164123
H151	H	1.101697	-0.104478	0.120411
H152	H	1.601697	0.395522	0.620411
