data_functionalizedCrystal
_audit_creation_method	'MofGen! by Chris Wilmer'
_symmetry_space_group_name_H-M	'P1'
_symmetry_Int_Tables_number	1
_symmetry_cell_setting	triclinic
loop_
_symmetry_equiv_pos_as_xyz
  x,y,z
_cell_length_a	19.805407
_cell_length_b	16.120531
_cell_length_c	19.805399
_cell_angle_alpha	87.133995
_cell_angle_beta	89.978486
_cell_angle_gamma	87.068160
loop_
_atom_site_label
_atom_site_type_symbol
_atom_site_fract_x
_atom_site_fract_y
_atom_site_fract_z
Zn1	Zn	1.021025	0.331932	-0.396443
Zn2	Zn	1.271025	0.581932	-0.146443
Zn3	Zn	1.521025	0.831932	0.103557
Zn4	Zn	1.771025	1.081932	0.353557
Zn5	Zn	1.015193	0.471354	-0.288984
Zn6	Zn	1.265193	0.721354	-0.038984
Zn7	Zn	1.515193	0.971354	0.211016
Zn8	Zn	1.765193	1.221354	0.461016
Zn9	Zn	0.907844	0.331957	-0.283260
Zn10	Zn	1.157844	0.581957	-0.033260
Zn11	Zn	1.407844	0.831957	0.216740
Zn12	Zn	1.657844	1.081957	0.466740
Zn13	Zn	0.902053	0.471304	-0.402120
Zn14	Zn	1.152053	0.721304	-0.152120
Zn15	Zn	1.402053	0.971304	0.097880
Zn16	Zn	1.652053	1.221304	0.347880
O17	O	0.961529	0.401637	-0.342702
O18	O	1.211529	0.651637	-0.092702
O19	O	1.461529	0.901637	0.157298
O20	O	1.711529	1.151637	0.407298
O21	O	1.114967	0.350437	-0.382209
O22	O	1.364967	0.600437	-0.132209
O23	O	1.614967	0.850437	0.117791
O24	O	1.864967	1.100437	0.367791
O25	O	1.000936	0.452893	-0.193510
O26	O	1.250936	0.702893	0.056490
O27	O	1.500936	0.952893	0.306490
O28	O	1.750936	1.202893	0.556490
O29	O	0.927721	0.215287	-0.293502
O30	O	1.177721	0.465287	-0.043502
O31	O	1.427721	0.715287	0.206498
O32	O	1.677721	0.965287	0.456498
O33	O	1.110683	0.452869	-0.303259
O34	O	1.360683	0.702869	-0.053259
O35	O	1.610683	0.952869	0.196741
O36	O	1.860683	1.202869	0.446741
O37	O	1.010875	0.215269	-0.376658
O38	O	1.260875	0.465269	-0.126658
O39	O	1.510875	0.715269	0.123342
O40	O	1.760875	0.965269	0.373342
O41	O	0.922067	0.350479	-0.189304
O42	O	1.172067	0.600479	0.060696
O43	O	1.422067	0.850479	0.310696
O44	O	1.672067	1.100479	0.560696
O45	O	0.812359	0.350431	-0.299007
O46	O	1.062359	0.600431	-0.049007
O47	O	1.312359	0.850431	0.200993
O48	O	1.562359	1.100431	0.450993
O49	O	0.917852	0.452785	-0.496082
O50	O	1.167852	0.702785	-0.246082
O51	O	1.417852	0.952785	0.003918
O52	O	1.667852	1.202785	0.253918
O53	O	0.808105	0.452809	-0.386333
O54	O	1.058105	0.702809	-0.136333
O55	O	1.308105	0.952809	0.113667
O56	O	1.558105	1.202809	0.363667
O57	O	1.005260	0.350389	-0.491912
O58	O	1.255260	0.600389	-0.241912
O59	O	1.505260	0.850389	0.008088
O60	O	1.755260	1.100389	0.258088
O61	O	0.995321	0.588013	-0.308763
O62	O	1.245321	0.838013	-0.058763
O63	O	1.495321	1.088013	0.191237
O64	O	1.745321	1.338013	0.441237
O65	O	0.912198	0.587976	-0.391884
O66	O	1.162198	0.837976	-0.141884
O67	O	1.412198	1.087976	0.108116
O68	O	1.662198	1.337976	0.358116
C69	C	0.785673	0.401618	-0.342665
C70	C	1.035673	0.651618	-0.092665
C71	C	1.285673	0.901618	0.157335
C72	C	1.535673	1.151618	0.407335
C73	C	0.710441	0.401630	-0.342666
C74	C	0.960441	0.651630	-0.092666
C75	C	1.210441	0.901630	0.157334
C76	C	1.460441	1.151630	0.407334
C77	C	0.246448	0.455045	-0.388152
C78	C	0.496448	0.705045	-0.138152
C79	C	0.746448	0.955045	0.111848
C80	C	0.996448	1.205045	0.361848
C81	C	0.317137	0.455044	-0.388138
C82	C	0.567137	0.705044	-0.138138
C83	C	0.817137	0.955044	0.111862
C84	C	1.067137	1.205044	0.361862
C85	C	0.354678	0.401657	-0.342729
C86	C	0.604678	0.651657	-0.092729
C87	C	0.854678	0.901657	0.157271
C88	C	1.104678	1.151657	0.407271
C89	C	0.321527	0.348274	-0.297327
C90	C	0.571527	0.598274	-0.047327
C91	C	0.821527	0.848274	0.202673
C92	C	1.071527	1.098274	0.452673
C93	C	0.250840	0.348280	-0.297339
C94	C	0.500840	0.598280	-0.047339
C95	C	0.750840	0.848280	0.202661
C96	C	1.000840	1.098280	0.452661
C97	C	0.606602	0.348248	-0.297279
C98	C	0.856602	0.598248	-0.047279
C99	C	1.106602	0.848248	0.202721
C100	C	1.356602	1.098248	0.452721
C101	C	0.677294	0.348244	-0.297272
C102	C	0.927294	0.598244	-0.047272
C103	C	1.177294	0.848244	0.202728
C104	C	1.427294	1.098244	0.452728
C105	C	0.672898	0.455012	-0.388077
C106	C	0.922898	0.705012	-0.138077
C107	C	1.172898	0.955012	0.111923
C108	C	1.422898	1.205012	0.361923
C109	C	0.602211	0.455018	-0.388089
C110	C	0.852211	0.705018	-0.138089
C111	C	1.102211	0.955018	0.111911
C112	C	1.352211	1.205018	0.361911
C113	C	0.569066	0.401639	-0.342685
C114	C	0.819066	0.651639	-0.092685
C115	C	1.069066	0.901639	0.157315
C116	C	1.319066	1.151639	0.407315
C117	C	0.492418	0.401642	-0.342700
C118	C	0.742418	0.651642	-0.092700
C119	C	0.992418	0.901642	0.157300
C120	C	1.242418	1.151642	0.407300
C121	C	0.431326	0.401649	-0.342716
C122	C	0.681326	0.651649	-0.092716
C123	C	0.931326	0.901649	0.157284
C124	C	1.181326	1.151649	0.407284
C125	C	0.952517	0.618245	-0.351575
C126	C	1.202517	0.868245	-0.101575
C127	C	1.452517	1.118245	0.148425
C128	C	1.702517	1.368245	0.398425
C129	C	0.948724	0.710911	-0.355394
C130	C	1.198724	0.960911	-0.105394
C131	C	1.448724	1.210911	0.144606
C132	C	1.698724	1.460911	0.394606
C133	C	0.941802	0.880572	-0.362380
C134	C	1.191802	1.130572	-0.112380
C135	C	1.441802	1.380572	0.137620
C136	C	1.691802	1.630572	0.387620
C137	C	0.981281	0.921860	-0.322985
C138	C	1.231281	1.171860	-0.072985
C139	C	1.481281	1.421860	0.177015
C140	C	1.731281	1.671860	0.427015
C141	C	0.977430	1.016266	-0.326872
C142	C	1.227430	1.266266	-0.076872
C143	C	1.477430	1.516266	0.173128
C144	C	1.727430	1.766266	0.423128
C145	C	0.945652	0.786158	-0.358494
C146	C	1.195652	1.036158	-0.108494
C147	C	1.445652	1.286158	0.141506
C148	C	1.695652	1.536158	0.391506
C149	C	1.138071	0.401656	-0.342739
C150	C	1.388071	0.651656	-0.092739
C151	C	1.638071	0.901656	0.157261
C152	C	1.888071	1.151656	0.407261
C153	C	1.213302	0.401664	-0.342755
C154	C	1.463302	0.651664	-0.092755
C155	C	1.713302	0.901664	0.157245
C156	C	1.963302	1.151664	0.407245
C157	C	0.970570	1.184182	-0.333796
C158	C	1.220570	1.434182	-0.083796
C159	C	1.470570	1.684182	0.166204
C160	C	1.720570	1.934182	0.416204
C161	C	0.974361	1.091517	-0.329969
C162	C	1.224361	1.341517	-0.079969
C163	C	1.474361	1.591517	0.170031
C164	C	1.724361	1.841517	0.420031
C165	C	0.961561	0.401579	-0.519242
C166	C	1.211561	0.651579	-0.269242
C167	C	1.461561	0.901579	-0.019242
C168	C	1.711561	1.151579	0.230758
C169	C	0.961574	0.401554	-0.594473
C170	C	1.211574	0.651554	-0.344473
C171	C	1.461574	0.901554	-0.094473
C172	C	1.711574	1.151554	0.155527
C173	C	0.920520	0.348222	-0.627627
C174	C	1.170520	0.598222	-0.377627
C175	C	1.420520	0.848222	-0.127627
C176	C	1.670520	1.098222	0.122373
C177	C	0.920530	0.348206	-0.698314
C178	C	1.170530	0.598206	-0.448314
C179	C	1.420530	0.848206	-0.198314
C180	C	1.670530	1.098206	0.051686
C181	C	0.961599	0.401518	-0.735847
C182	C	1.211599	0.651518	-0.485847
C183	C	1.461599	0.901518	-0.235847
C184	C	1.711599	1.151518	0.014153
C185	C	1.002655	0.454856	-0.702689
C186	C	1.252655	0.704856	-0.452689
C187	C	1.502655	0.954856	-0.202689
C188	C	1.752655	1.204856	0.047311
C189	C	1.002641	0.454876	-0.632003
C190	C	1.252641	0.704876	-0.382003
C191	C	1.502641	0.954876	-0.132003
C192	C	1.752641	1.204876	0.117997
C193	C	1.002712	0.454778	-0.987759
C194	C	1.252712	0.704778	-0.737759
C195	C	1.502712	0.954778	-0.487759
C196	C	1.752712	1.204778	-0.237759
C197	C	1.002724	0.454752	-1.058451
C198	C	1.252724	0.704752	-0.808451
C199	C	1.502724	0.954752	-0.558451
C200	C	1.752724	1.204752	-0.308451
C201	C	0.920601	0.348108	-1.054071
C202	C	1.170601	0.598108	-0.804071
C203	C	1.420601	0.848108	-0.554071
C204	C	1.670601	1.098108	-0.304071
C205	C	0.920587	0.348128	-0.983385
C206	C	1.170587	0.598128	-0.733385
C207	C	1.420587	0.848128	-0.483385
C208	C	1.670587	1.098128	-0.233385
C209	C	0.961640	0.401468	-0.950233
C210	C	1.211640	0.651468	-0.700233
C211	C	1.461640	0.901468	-0.450233
C212	C	1.711640	1.151468	-0.200233
C213	C	0.961628	0.401487	-0.873585
C214	C	1.211628	0.651487	-0.623585
C215	C	1.461628	0.901487	-0.373585
C216	C	1.711628	1.151487	-0.123585
C217	C	0.961615	0.401496	-0.812494
C218	C	1.211615	0.651496	-0.562494
C219	C	1.461615	0.901496	-0.312494
C220	C	1.711615	1.151496	-0.062494
C221	C	0.961538	0.401634	-0.166846
C222	C	1.211538	0.651634	0.083154
C223	C	1.461538	0.901634	0.333154
C224	C	1.711538	1.151634	0.583154
C225	C	0.961665	0.401424	-0.091605
C226	C	1.211665	0.651424	0.158395
C227	C	1.461665	0.901424	0.408395
C228	C	1.711665	1.151424	0.658395
H229	H	0.215887	0.498514	-0.425132
H230	H	0.465887	0.748514	-0.175132
H231	H	0.715887	0.998514	0.074868
H232	H	0.965887	1.248514	0.324868
H233	H	1.036077	0.498298	-0.605010
H234	H	1.286077	0.748298	-0.355010
H235	H	1.536077	0.998298	-0.105010
H236	H	1.786077	1.248298	0.144990
H237	H	0.571648	0.498488	-0.425067
H238	H	0.821648	0.748488	-0.175067
H239	H	1.071648	0.998488	0.074933
H240	H	1.321648	1.248488	0.324933
H241	H	0.887147	0.304712	-0.952829
H242	H	1.137147	0.554712	-0.702829
H243	H	1.387147	0.804712	-0.452829
H244	H	1.637147	1.054712	-0.202829
H245	H	0.344121	0.498513	-0.425103
H246	H	0.594121	0.748513	-0.175103
H247	H	0.844121	0.998513	0.074897
H248	H	1.094121	1.248513	0.324897
H249	H	0.699893	0.498478	-0.425045
H250	H	0.949893	0.748478	-0.175045
H251	H	1.199893	0.998478	0.074955
H252	H	1.449893	1.248478	0.324955
H253	H	0.352099	0.304809	-0.260352
H254	H	0.602099	0.554809	-0.010352
H255	H	0.852099	0.804809	0.239648
H256	H	1.102099	1.054809	0.489648
H257	H	0.887171	0.304678	-1.081072
H258	H	1.137171	0.554678	-0.831072
H259	H	1.387171	0.804678	-0.581072
H260	H	1.637171	1.054678	-0.331072
H261	H	0.579624	0.304786	-0.260306
H262	H	0.829624	0.554786	-0.010306
H263	H	1.079624	0.804786	0.239694
H264	H	1.329624	1.054786	0.489694
H265	H	1.036169	0.498169	-1.089008
H266	H	1.286169	0.748169	-0.839008
H267	H	1.536169	0.998169	-0.589008
H268	H	1.786169	1.248169	-0.339008
H269	H	0.707859	0.304767	-0.260293
H270	H	0.957859	0.554767	-0.010293
H271	H	1.207859	0.804767	0.239707
H272	H	1.457859	1.054767	0.489707
H273	H	0.223854	0.304810	-0.260374
H274	H	0.473854	0.554810	-0.010374
H275	H	0.723854	0.804810	0.239626
H276	H	0.973854	1.054810	0.489626
H277	H	1.017973	0.886307	-0.286338
H278	H	1.267973	1.136307	-0.036338
H279	H	1.517973	1.386307	0.213662
H280	H	1.767973	1.636307	0.463662
H281	H	1.036132	0.498221	-0.960776
H282	H	1.286132	0.748221	-0.710776
H283	H	1.536132	0.998221	-0.460776
H284	H	1.786132	1.248221	-0.210776
H285	H	0.905112	0.916123	-0.399023
H286	H	1.155112	1.166123	-0.149023
H287	H	1.405112	1.416123	0.100977
H288	H	1.655112	1.666123	0.350977
H289	H	1.036090	0.498268	-0.733254
H290	H	1.286090	0.748268	-0.483254
H291	H	1.536090	0.998268	-0.233254
H292	H	1.786090	1.248268	0.016746
H293	H	0.887096	0.304780	-0.725305
H294	H	1.137096	0.554780	-0.475305
H295	H	1.387096	0.804780	-0.225305
H296	H	1.637096	1.054780	0.024695
H297	H	0.887081	0.304804	-0.597072
H298	H	1.137081	0.554804	-0.347072
H299	H	1.387081	0.804804	-0.097072
H300	H	1.637081	1.054804	0.152928
