data_functionalizedCrystal
_audit_creation_method	'MofGen! by Chris Wilmer'
_symmetry_space_group_name_H-M	'P1'
_symmetry_Int_Tables_number	1
_symmetry_cell_setting	triclinic
loop_
_symmetry_equiv_pos_as_xyz
  x,y,z
_cell_length_a	10.723024
_cell_length_b	10.723024
_cell_length_c	16.053810
_cell_angle_alpha	87.396437
_cell_angle_beta	92.592352
_cell_angle_gamma	84.467869
loop_
_atom_site_label
_atom_site_type_symbol
_atom_site_fract_x
_atom_site_fract_y
_atom_site_fract_z
O1	O	1.662386	0.169799	0.069421
O2	O	2.162386	0.669799	0.569421
O3	O	1.299234	0.186552	0.069424
O4	O	1.799234	0.686552	0.569424
O5	O	1.489186	-0.003401	0.069420
O6	O	1.989186	0.496599	0.569420
O7	O	1.472433	0.359751	0.069426
O8	O	1.972433	0.859751	0.569426
O9	O	1.478774	0.007052	-0.069439
O10	O	1.978774	0.507052	0.430561
O11	O	1.288821	0.197004	-0.069434
O12	O	1.788821	0.697004	0.430566
O13	O	1.651973	0.180251	-0.069437
O14	O	2.151973	0.680251	0.430563
Zn15	Zn	1.468744	0.190287	-0.091482
Zn16	Zn	1.968744	0.690287	0.408518
Zn17	Zn	1.482463	0.176516	0.091470
Zn18	Zn	1.982463	0.676516	0.591470
O19	O	1.462021	0.370204	-0.069433
O20	O	1.962021	0.870204	0.430567
C21	C	1.247528	0.190559	-0.000005
C22	C	1.747528	0.690559	0.499995
C23	C	1.108974	0.186911	-0.000004
C24	C	1.608974	0.686911	0.499996
C25	C	0.917216	0.073604	-0.000004
C26	C	1.417216	0.573604	0.499996
C27	C	1.060420	0.077371	-0.000005
C28	C	1.560420	0.577371	0.499995
C29	C	1.482761	-0.044674	-0.000009
C30	C	1.982761	0.455326	0.499991
C31	C	1.479113	-0.183229	-0.000006
C32	C	1.979113	0.316771	0.499994
C33	C	1.585401	-0.258211	-0.000005
C34	C	2.085401	0.241789	0.499995
C35	C	1.581634	-0.401415	-0.000002
C36	C	2.081634	0.098585	0.499998
C37	C	1.703679	0.176244	-0.000006
C38	C	2.203679	0.676244	0.499994
C39	C	1.842234	0.179891	-0.000002
C40	C	2.342234	0.679891	0.499998
C41	C	1.468446	0.411477	-0.000002
C42	C	1.968446	0.911477	0.499998
C43	C	1.472094	0.550031	0.000000
C44	C	1.972094	1.050031	0.500000
N45	N	1.459390	0.199685	-0.216342
N46	N	1.959390	0.699685	0.283658
C47	C	1.410982	0.247913	-0.739973
C48	C	1.910982	0.747913	-0.239973
C49	C	1.417552	0.241363	-0.652567
C50	C	1.917552	0.741363	-0.152567
C51	C	1.504974	0.154012	-0.608859
C52	C	2.004974	0.654012	-0.108859
C53	C	1.585822	0.073199	-0.652562
C54	C	2.085822	0.573199	-0.152562
C55	C	1.579245	0.079744	-0.739967
C56	C	2.079245	0.579744	-0.239967
C57	C	1.533661	0.125417	-0.347451
C58	C	2.033661	0.625417	0.152549
C59	C	1.540235	0.118880	-0.260039
C60	C	2.040235	0.618880	0.239961
C61	C	1.371962	0.287043	-0.260050
C62	C	1.871962	0.787043	0.239950
C63	C	1.365398	0.293586	-0.347457
C64	C	1.865398	0.793586	0.152543
C65	C	1.446242	0.212767	-0.391152
C66	C	1.946242	0.712767	0.108848
N67	N	1.511695	0.147318	-0.519516
N68	N	2.011695	0.647318	-0.019516
N69	N	1.439514	0.219457	-0.480494
N70	N	1.939514	0.719457	0.019506
N71	N	1.491826	0.167108	0.216330
N72	N	1.991826	0.667108	0.716330
H73	H	0.884056	0.273677	-0.000005
H74	H	1.384056	0.773677	0.499995
Br75	Br	1.320421	-0.342592	-0.000011
Br76	Br	1.820421	0.157408	0.499989
H77	H	1.645076	0.013942	-0.775545
H78	H	2.145076	0.513942	-0.275545
H79	H	0.875393	-0.020181	-0.000018
H80	H	1.375393	0.479819	0.499982
Br81	Br	1.246758	0.412137	-0.406776
Br82	Br	1.746758	0.912137	0.093224
Br83	Br	1.167804	-0.074296	0.000001
Br84	Br	1.667804	0.425704	0.500001
Br85	Br	1.704461	-0.045360	-0.593248
Br86	Br	2.204461	0.454640	-0.093248
H87	H	1.385328	-0.225051	0.000001
H88	H	1.885328	0.274949	0.500001
H89	H	1.044549	0.277906	0.000002
H90	H	1.544549	0.777906	0.500002
H91	H	1.672624	-0.465847	-0.000006
H92	H	2.172624	0.034153	0.499994
Br93	Br	1.741727	-0.188520	0.000002
Br94	Br	2.241727	0.311480	0.500002
H95	H	1.339799	0.319048	-0.775555
H96	H	1.839799	0.819048	-0.275555
H97	H	1.611430	0.047745	-0.224457
H98	H	2.111430	0.547745	0.275543
H99	H	1.351721	0.307160	-0.616989
H100	H	1.851721	0.807160	-0.116989
H101	H	1.599490	0.059613	-0.383021
H102	H	2.099490	0.559613	0.116979
H103	H	1.306142	0.352840	-0.224465
H104	H	1.806142	0.852840	0.275535
