data_functionalizedCrystal
_audit_creation_method	'MofGen! by Chris Wilmer'
_symmetry_space_group_name_H-M	'P1'
_symmetry_Int_Tables_number	1
_symmetry_cell_setting	triclinic
loop_
_symmetry_equiv_pos_as_xyz
  x,y,z
_cell_length_a	10.654550
_cell_length_b	16.974813
_cell_length_c	9.130313
_cell_angle_alpha	86.340922
_cell_angle_beta	89.999724
_cell_angle_gamma	83.939176
loop_
_atom_site_label
_atom_site_type_symbol
_atom_site_fract_x
_atom_site_fract_y
_atom_site_fract_z
O1	O	1.666111	0.111056	-0.134851
O2	O	1.300468	0.121636	-0.136132
O3	O	1.493483	0.001299	-0.121847
O4	O	1.473097	0.231394	-0.149135
O5	O	1.493470	0.001295	0.121752
O6	O	1.300455	0.121633	0.107468
O7	O	1.666098	0.111052	0.108748
Cu8	Cu	1.483275	0.116342	0.130351
Cu9	Cu	1.483291	0.116346	-0.157734
O10	O	1.473083	0.231390	0.094464
C11	C	1.253676	0.120858	-0.014243
C12	C	1.114269	0.118533	-0.013978
C13	C	1.492701	-0.028166	0.003443
C14	C	1.490375	-0.115956	0.013845
C15	C	1.033681	0.189386	-0.022377
C16	C	0.902694	0.187198	-0.022091
C17	C	0.932896	0.043297	-0.005014
C18	C	1.063880	0.045486	-0.005289
C19	C	1.489292	-0.157193	-0.114054
C20	C	1.487099	-0.239680	-0.104276
C21	C	1.485997	-0.280929	0.033402
C22	C	1.487076	-0.239685	0.161310
C23	C	1.489261	-0.157199	0.151530
C24	C	1.479455	-0.527626	0.076888
C25	C	1.477274	-0.610118	0.086658
C26	C	1.477295	-0.610107	-0.178929
C27	C	1.479487	-0.527620	-0.188696
C28	C	1.480559	-0.486383	-0.060788
N29	N	1.483759	-0.365244	0.043399
N30	N	1.482788	-0.402069	-0.070788
C31	C	1.712891	0.111831	-0.013143
C32	C	1.852298	0.114155	-0.013418
C33	C	1.473865	0.260855	-0.030830
C34	C	1.476191	0.348644	-0.041241
N35	N	1.483274	0.116339	0.332974
N36	N	1.483303	0.116344	-0.360356
C37	C	1.568769	0.063076	0.415948
C38	C	1.568781	0.063076	0.569285
C39	C	1.397798	0.169609	0.556659
C40	C	1.397781	0.169605	0.403325
H41	H	1.074702	0.248866	-0.029440
C42	C	1.662803	0.004476	0.338568
N43	N	1.733629	-0.039666	0.280290
C44	C	1.480699	-0.482252	-0.340152
N45	N	1.481616	-0.448081	-0.454231
H46	H	0.837083	0.244894	-0.028928
H47	H	1.486223	-0.273252	-0.208424
H48	H	1.490124	-0.123623	0.255679
H49	H	1.638398	0.019704	0.636839
C50	C	1.476058	-0.655490	0.238120
N51	N	1.475143	-0.689664	0.352196
C52	C	1.303782	0.228237	0.312043
N53	N	1.233003	0.272410	0.243288
H54	H	1.328194	0.212978	0.613954
H55	H	0.891854	-0.016176	0.002068
H56	H	1.129499	-0.012214	0.001555
C57	C	1.490504	-0.111827	-0.265511
N58	N	1.491411	-0.077659	-0.379594
C59	C	1.480640	-0.482277	0.217592
N60	N	1.481534	-0.448117	0.323577
C61	C	1.476101	-0.655473	-0.319618
N62	N	1.475195	-0.689642	-0.425591
H63	H	1.486171	-0.273276	0.273410
