data_functionalizedCrystal
_audit_creation_method	'MofGen! by Chris Wilmer'
_symmetry_space_group_name_H-M	'P1'
_symmetry_Int_Tables_number	1
_symmetry_cell_setting	triclinic
loop_
_symmetry_equiv_pos_as_xyz
  x,y,z
_cell_length_a	17.640112
_cell_length_b	16.120484
_cell_length_c	17.640968
_cell_angle_alpha	82.192558
_cell_angle_beta	92.139080
_cell_angle_gamma	103.499326
loop_
_atom_site_label
_atom_site_type_symbol
_atom_site_fract_x
_atom_site_fract_y
_atom_site_fract_z
Zn1	Zn	1.246898	-0.023860	-0.196404
Zn2	Zn	1.214806	-0.195187	-0.078925
Zn3	Zn	1.092236	-0.077878	-0.098046
Zn4	Zn	1.113950	-0.184256	-0.230901
O5	O	1.166972	-0.120295	-0.151069
O6	O	1.349575	-0.028555	-0.158380
O7	O	1.176029	-0.206807	0.023304
O8	O	1.117096	0.045508	-0.104658
O9	O	1.325997	-0.154428	-0.072070
O10	O	1.230725	0.085195	-0.176921
O11	O	1.085978	-0.120621	0.009256
O12	O	0.988182	-0.110021	-0.138109
O13	O	1.154104	-0.135798	-0.331090
O14	O	1.004135	-0.188177	-0.235717
O15	O	1.251780	-0.017955	-0.305745
O16	O	1.197083	-0.309958	-0.105520
O17	O	1.122985	-0.301927	-0.217176
C18	C	0.968432	-0.153775	-0.192732
C19	C	0.883498	-0.168113	-0.210574
C20	C	0.562620	-0.011353	-0.015528
C21	C	0.482814	-0.024840	-0.032305
C22	C	0.499439	-0.106413	-0.133786
C23	C	0.579249	-0.092929	-0.117021
C24	C	0.610833	-0.045399	-0.057890
C25	C	0.627462	-0.126975	-0.159383
C26	C	0.707264	-0.113496	-0.142616
C27	C	0.738854	-0.065971	-0.083486
C28	C	0.690635	-0.031920	-0.041123
C29	C	0.595875	-0.174510	-0.218510
C30	C	0.644088	-0.208556	-0.260872
C31	C	0.723893	-0.195072	-0.244108
C32	C	0.755483	-0.147546	-0.184979
C33	C	0.772112	-0.229122	-0.286472
C34	C	0.851914	-0.215643	-0.269705
C35	C	0.835285	-0.134067	-0.168212
C36	C	1.158932	-0.336069	-0.163028
C37	C	1.155568	-0.428360	-0.168155
C38	C	1.149433	-0.597332	-0.177530
C39	C	1.184651	-0.642392	-0.124592
C40	C	1.181238	-0.736414	-0.129808
C41	C	1.152846	-0.503302	-0.172315
C42	C	1.366289	-0.086685	-0.109244
C43	C	1.451225	-0.072363	-0.091421
C44	C	1.208944	-0.069632	-0.346341
C45	C	1.226829	-0.048042	-0.429555
C46	C	1.175068	0.096329	-0.139075
C47	C	1.178518	0.188641	-0.133963
C48	C	1.031408	-0.283809	-0.769207
C49	C	1.048230	-0.263509	-0.847394
C50	C	1.149932	-0.140810	-0.820995
C51	C	1.133115	-0.161098	-0.742803
C52	C	1.073853	-0.232599	-0.716916
C53	C	1.175560	-0.109887	-0.690513
C54	C	1.158747	-0.130176	-0.612328
C55	C	1.099489	-0.201675	-0.586434
C56	C	1.057040	-0.252888	-0.638731
C57	C	1.234826	-0.038390	-0.716401
C58	C	1.277271	0.012820	-0.664110
C59	C	1.260455	-0.007464	-0.585924
C60	C	1.201197	-0.078964	-0.560030
C61	C	1.302904	0.043748	-0.533627
C62	C	1.286092	0.023459	-0.455442
C63	C	1.184384	-0.099252	-0.481846
C64	C	1.125211	-0.170694	0.043456
C65	C	1.107482	-0.192025	0.126714
H66	H	0.588340	0.027365	0.032612
H67	H	0.716355	0.006798	0.007017
H68	H	1.325525	0.071035	-0.685199
O69	O	0.430809	0.011889	0.013384
H70	H	0.466183	0.047208	0.057312
H71	H	1.116721	-0.629366	-0.226764
H72	H	0.803834	-0.054999	-0.069834
O73	O	0.609993	-0.259839	-0.324625
H74	H	0.620105	-0.325766	-0.312061
O75	O	1.120460	-0.176370	-0.453921
H76	H	1.075313	-0.154989	-0.424408
O77	O	1.252956	-0.016503	-0.800730
H78	H	1.314394	-0.018230	-0.810180
H79	H	0.891171	-0.243366	-0.304201
O80	O	1.331864	0.078692	-0.399035
H81	H	1.375891	0.131825	-0.430172
H82	H	1.217365	-0.610356	-0.075352
H83	H	1.085804	-0.218196	-0.522770
H84	H	0.473711	-0.145114	-0.181929
O85	O	0.509803	-0.189076	-0.236607
H86	H	0.494339	-0.126081	-0.252801
H87	H	1.008765	-0.311094	-0.617656
O88	O	0.967486	-0.360926	-0.741274
H89	H	0.940793	-0.393132	-0.790770
H90	H	0.746382	-0.267828	-0.334611
H91	H	1.013662	-0.305217	-0.889969
H92	H	1.198185	-0.082596	-0.842083
O93	O	1.366806	0.120879	-0.561553
H94	H	1.371359	0.126389	-0.624706
H95	H	0.861005	-0.095349	-0.120072
