data_functionalizedCrystal
_audit_creation_method	'MofGen! by Chris Wilmer'
_symmetry_space_group_name_H-M	'P1'
_symmetry_Int_Tables_number	1
_symmetry_cell_setting	triclinic
loop_
_symmetry_equiv_pos_as_xyz
  x,y,z
_cell_length_a	10.654550
_cell_length_b	14.421503
_cell_length_c	10.654550
_cell_angle_alpha	89.994499
_cell_angle_beta	84.484903
_cell_angle_gamma	90.011231
loop_
_atom_site_label
_atom_site_type_symbol
_atom_site_fract_x
_atom_site_fract_y
_atom_site_fract_z
O1	O	1.667849	0.077185	0.176381
O2	O	1.302370	0.077170	0.193188
O3	O	1.493513	0.077175	0.002045
O4	O	1.476706	0.077181	0.367524
O5	O	1.493481	-0.077049	0.002074
O6	O	1.302339	-0.077053	0.193216
O7	O	1.667817	-0.077038	0.176410
Cu8	Cu	1.485075	-0.091127	0.184815
Cu9	Cu	1.485112	0.091260	0.184782
O10	O	1.476675	-0.077042	0.367552
C11	C	1.255556	0.000057	0.191968
C12	C	1.116113	0.000051	0.188276
C13	C	1.036627	0.000066	0.300817
C14	C	0.905607	0.000082	0.297341
C15	C	0.933570	0.000071	0.068771
C16	C	1.064588	0.000049	0.072249
C17	C	1.020482	0.000077	0.432780
C18	C	0.889461	0.000093	0.429304
N19	N	1.485058	-0.219409	0.184838
C20	C	1.396657	-0.469064	0.273182
C21	C	1.510354	-0.530862	0.298547
C22	C	1.485088	-0.408570	0.184809
C23	C	1.371421	-0.530866	0.159474
C24	C	1.485107	-0.591291	0.184783
C25	C	1.598843	-0.469007	0.210230
C26	C	1.459834	-0.469006	0.071107
C27	C	1.573612	-0.530776	0.096424
C28	C	1.485075	-0.303309	0.184827
C29	C	1.485133	-0.696550	0.184764
C30	C	1.714631	0.000078	0.177630
C31	C	1.854074	0.000090	0.181321
C32	C	1.492263	0.000064	-0.044739
C33	C	1.488571	0.000067	-0.184182
N34	N	1.485139	0.219541	0.184749
C35	C	1.601112	0.000069	-0.263668
C36	C	1.597636	0.000075	-0.394688
C37	C	1.369066	0.000074	-0.366725
C38	C	1.372544	0.000074	-0.235707
C39	C	1.733075	0.000066	-0.279813
C40	C	1.729599	0.000072	-0.410834
C41	C	1.477925	0.000070	0.414336
C42	C	1.481616	0.000073	0.553779
H43	H	0.843776	-0.066489	0.469197
H44	H	0.891602	0.000084	-0.025694
H45	H	1.775083	-0.066523	-0.244174
C46	C	1.241443	0.000071	-0.423415
N47	N	1.145315	0.000065	-0.466113
H48	H	1.129302	0.000023	-0.019393
H49	H	1.694999	-0.441949	0.231763
H50	H	1.531733	-0.558031	0.394691
H51	H	1.784704	0.064606	-0.250467
H52	H	1.648486	-0.557702	0.021674
H53	H	1.769493	0.066663	-0.456489
H54	H	1.049800	-0.064468	0.484403
C55	C	1.295741	-0.432447	0.374227
N56	N	1.219739	-0.404864	0.450336
H57	H	1.056151	0.066662	0.474787
C58	C	1.430902	-0.432265	-0.058736
N59	N	1.409096	-0.404589	-0.156534
H60	H	1.275286	-0.558041	0.138057
H61	H	0.847742	0.064641	0.479013
H62	H	1.280902	0.000086	-0.170993
H63	H	1.779307	-0.064467	-0.452582
