data_functionalizedCrystal
_audit_creation_method	'MofGen! by Chris Wilmer'
_symmetry_space_group_name_H-M	'P1'
_symmetry_Int_Tables_number	1
_symmetry_cell_setting	triclinic
loop_
_symmetry_equiv_pos_as_xyz
  x,y,z
_cell_length_a	6.817900
_cell_length_b	12.200875
_cell_length_c	9.582889
_cell_angle_alpha	91.576692
_cell_angle_beta	111.207298
_cell_angle_gamma	107.143593
loop_
_atom_site_label
_atom_site_type_symbol
_atom_site_fract_x
_atom_site_fract_y
_atom_site_fract_z
V1	V	-4.108301	-0.357451	-0.207395
V2	V	-3.858301	-0.107451	0.042605
V3	V	-3.608301	0.142549	0.292605
V4	V	-3.358301	0.392549	0.542605
O5	O	-4.053185	-0.350862	0.009616
O6	O	-3.803185	-0.100862	0.259616
O7	O	-3.553185	0.149138	0.509616
O8	O	-3.303185	0.399138	0.759616
O9	O	-4.098767	-0.354798	-0.410894
O10	O	-3.848767	-0.104798	-0.160894
O11	O	-3.598767	0.145202	0.089106
O12	O	-3.348767	0.395202	0.339106
O13	O	-4.077439	-0.513442	-0.204359
O14	O	-3.827439	-0.263442	0.045641
O15	O	-3.577439	-0.013442	0.295641
O16	O	-3.327439	0.236558	0.545641
O17	O	-4.074661	-0.191120	-0.198349
O18	O	-3.824661	0.058880	0.051651
O19	O	-3.574661	0.308880	0.301651
O20	O	-3.324661	0.558880	0.551651
V21	V	-4.584621	-0.337581	-0.181420
V22	V	-4.334621	-0.087581	0.068580
V23	V	-4.084621	0.162419	0.318580
V24	V	-3.834621	0.412419	0.568580
O25	O	-4.385362	-0.401035	-0.264374
O26	O	-4.135362	-0.151035	-0.014374
O27	O	-3.885362	0.098965	0.235626
O28	O	-3.635362	0.348965	0.485626
O29	O	-4.757758	-0.293997	-0.124441
O30	O	-4.507758	-0.043997	0.125559
O31	O	-4.257758	0.206003	0.375559
O32	O	-4.007758	0.456003	0.625559
O33	O	-4.370948	-0.340234	0.022078
O34	O	-4.120948	-0.090234	0.272078
O35	O	-3.870948	0.159766	0.522078
O36	O	-3.620948	0.409766	0.772078
O37	O	-4.757134	-0.344170	-0.398432
O38	O	-4.507134	-0.094170	-0.148432
O39	O	-4.257134	0.155830	0.101568
O40	O	-4.007134	0.405830	0.351568
O41	O	-4.735658	-0.503912	-0.190467
O42	O	-4.485658	-0.253912	0.059533
O43	O	-4.235658	-0.003912	0.309533
O44	O	-3.985658	0.246088	0.559533
O45	O	-4.392277	-0.181590	-0.184457
O46	O	-4.142277	0.068410	0.065543
O47	O	-3.892277	0.318410	0.315543
O48	O	-3.642277	0.568410	0.565543
C49	C	-3.952656	-0.349105	-0.460498
C50	C	-3.702656	-0.099105	-0.210498
C51	C	-3.452656	0.150895	0.039502
C52	C	-3.202656	0.400895	0.289502
C53	C	-4.026264	-0.347976	-0.626861
C54	C	-3.776264	-0.097976	-0.376861
C55	C	-3.526264	0.152024	-0.126861
C56	C	-3.276264	0.402024	0.123139
C57	C	-3.925448	-0.551470	-0.197040
C58	C	-3.675448	-0.301470	0.052960
C59	C	-3.425448	-0.051470	0.302960
C60	C	-3.175448	0.198530	0.552960
C61	C	-3.981755	-0.678992	-0.195903
C62	C	-3.731755	-0.428992	0.054097
C63	C	-3.481755	-0.178992	0.304097
C64	C	-3.231755	0.071008	0.554097
C65	C	-4.084806	-0.912469	-0.193825
C66	C	-3.834806	-0.662469	0.056175
C67	C	-3.584806	-0.412469	0.306175
C68	C	-3.334806	-0.162469	0.556175
C69	C	-4.027453	-0.782546	-0.194981
C70	C	-3.777453	-0.532546	0.055019
C71	C	-3.527453	-0.282546	0.305019
C72	C	-3.277453	-0.032546	0.555019
C73	C	-4.180403	-0.345923	0.071674
C74	C	-3.930403	-0.095923	0.321674
C75	C	-3.680403	0.154077	0.571674
C76	C	-3.430403	0.404077	0.821674
C77	C	-4.086034	-0.347060	0.238036
C78	C	-3.836034	-0.097060	0.488036
C79	C	-3.586034	0.152940	0.738036
C80	C	-3.336034	0.402940	0.988036
C81	C	-4.207610	-0.143556	-0.191781
C82	C	-3.957610	0.106444	0.058219
C83	C	-3.707610	0.356444	0.308219
C84	C	-3.457610	0.606444	0.558219
C85	C	-4.130540	-0.016032	-0.192910
C86	C	-3.880540	0.233968	0.057090
C87	C	-3.630540	0.483968	0.307090
C88	C	-3.380540	0.733968	0.557090
