data_functionalizedCrystal
_audit_creation_method	'MofGen! by Chris Wilmer'
_symmetry_space_group_name_H-M	'P1'
_symmetry_Int_Tables_number	1
_symmetry_cell_setting	triclinic
loop_
_symmetry_equiv_pos_as_xyz
  x,y,z
_cell_length_a	6.817900
_cell_length_b	17.284796
_cell_length_c	17.284648
_cell_angle_alpha	88.656921
_cell_angle_beta	103.040472
_cell_angle_gamma	103.042616
loop_
_atom_site_label
_atom_site_type_symbol
_atom_site_fract_x
_atom_site_fract_y
_atom_site_fract_z
V1	V	-4.005497	-0.094267	-0.239960
V2	V	-3.505497	0.405733	0.260040
O3	O	-4.000072	0.020178	-0.242327
O4	O	-3.500072	0.520178	0.257673
O5	O	-3.950757	-0.201965	-0.231648
O6	O	-3.450757	0.298035	0.268352
O7	O	-3.950743	-0.085951	-0.347658
O8	O	-3.450743	0.414049	0.152342
O9	O	-4.000086	-0.096640	-0.125515
O10	O	-3.500086	0.403360	0.374485
V11	V	-4.490770	-0.081389	-0.227082
V12	V	-3.990770	0.418611	0.272918
O13	O	-4.262917	-0.122515	-0.268209
O14	O	-3.762917	0.377485	0.231791
O15	O	-4.683547	-0.053141	-0.198832
O16	O	-4.183547	0.446859	0.301168
O17	O	-4.322303	0.026309	-0.235393
O18	O	-3.822303	0.526309	0.264607
O19	O	-4.613592	-0.195834	-0.224714
O20	O	-4.113592	0.304166	0.275286
O21	O	-4.613578	-0.079017	-0.341526
O22	O	-4.113578	0.420983	0.158474
O23	O	-4.322317	-0.089706	-0.119384
O24	O	-3.822317	0.410294	0.380616
C25	C	-3.794421	-0.228435	-0.226142
C26	C	-3.294421	0.271565	0.273858
C27	C	-3.830910	-0.316435	-0.220064
C28	C	-3.330910	0.183565	0.279936
C29	C	-4.032359	-0.811043	-0.178079
C30	C	-3.532359	-0.311043	0.321921
C31	C	-3.998091	-0.728358	-0.183803
C32	C	-3.498091	-0.228358	0.316197
C33	C	-4.016209	-0.693859	-0.258429
C34	C	-3.516209	-0.193859	0.241571
C35	C	-4.068580	-0.742048	-0.327335
C36	C	-3.568580	-0.242048	0.172665
C37	C	-4.102833	-0.824731	-0.321610
C38	C	-3.602833	-0.324731	0.178390
C39	C	-3.917533	-0.447307	-0.283245
C40	C	-3.417533	0.052693	0.216755
C41	C	-3.883281	-0.364618	-0.288965
C42	C	-3.383281	0.135382	0.211035
C43	C	-3.812791	-0.350934	-0.145432
C44	C	-3.312791	0.149066	0.354568
C45	C	-3.847060	-0.433619	-0.139714
C46	C	-3.347060	0.066381	0.360286
C47	C	-3.899416	-0.481801	-0.208620
C48	C	-3.399416	0.018199	0.291380
N49	N	-3.981189	-0.609342	-0.264281
N50	N	-3.481189	-0.109342	0.235719
N51	N	-3.934421	-0.566316	-0.202766
N52	N	-3.434421	-0.066316	0.297234
C53	C	-3.794402	-0.080445	-0.374122
C54	C	-3.294402	0.419555	0.125878
C55	C	-3.830877	-0.074359	-0.462122
C56	C	-3.330877	0.425641	0.037878
C57	C	-3.883248	-0.143262	-0.510303
C58	C	-3.383248	0.356738	-0.010303
C59	C	-3.917527	-0.137541	-0.592988
C60	C	-3.417527	0.362459	-0.092988
C61	C	-3.899420	-0.062917	-0.627491
C62	C	-3.399420	0.437083	-0.127491
C63	C	-3.847050	0.005991	-0.579304
C64	C	-3.347050	0.505991	-0.079304
C65	C	-3.812786	0.000270	-0.496620
C66	C	-3.312786	0.500270	0.003380
C67	C	-3.998131	-0.038110	-0.874044
C68	C	-3.498131	0.461890	-0.374044
C69	C	-4.032394	-0.032394	-0.956734
C70	C	-3.532394	0.467606	-0.456734
C71	C	-4.102872	-0.175927	-0.970412
C72	C	-3.602872	0.324073	-0.470412
C73	C	-4.068592	-0.181642	-0.887727
C74	C	-3.568592	0.318358	-0.387727
C75	C	-4.016236	-0.112734	-0.839547
C76	C	-3.516236	0.387266	-0.339547
N77	N	-3.934452	-0.057068	-0.712008
N78	N	-3.434452	0.442932	-0.212008
N79	N	-3.981219	-0.118584	-0.755032
N80	N	-3.481219	0.381416	-0.255032
C81	C	-4.141981	0.052774	-0.240897
C82	C	-3.641981	0.552774	0.259103
C83	C	-4.084730	0.140774	-0.246980
C84	C	-3.584730	0.640774	0.253020
C85	C	-4.142000	-0.095214	-0.092915
C86	C	-3.642000	0.404786	0.407085
C87	C	-4.084765	-0.101297	-0.004914
C88	C	-3.584765	0.398703	0.495086
H89	H	-3.955455	-0.689131	-0.127696
H90	H	-3.455455	-0.189131	0.372304
H91	H	-3.832307	-0.461703	-0.078945
H92	H	-3.332307	0.038297	0.421055
H93	H	-3.898081	-0.336533	-0.349739
H94	H	-3.398081	0.163467	0.150261
H95	H	-3.770156	-0.311696	-0.089333
H96	H	-3.270156	0.188304	0.410667
C97	C	-3.941604	0.036767	-0.821851
C98	C	-3.441604	0.536767	-0.321851
C99	C	-4.100093	0.077968	-0.841439
C100	C	-3.600093	0.577968	-0.341439
C101	C	-4.048078	0.146959	-0.793383
C102	C	-3.548078	0.646959	-0.293383
H103	H	-3.923835	0.022794	-0.767643
H104	H	-3.423835	0.522794	-0.267643
H105	H	-3.816584	0.069600	-0.830187
H106	H	-3.316584	0.569600	-0.330187
H107	H	-4.225077	0.045142	-0.833097
H108	H	-3.725077	0.545142	-0.333097
H109	H	-4.117885	0.091961	-0.895639
H110	H	-3.617885	0.591961	-0.395639
H111	H	-3.923059	0.179792	-0.801718
H112	H	-3.423059	0.679792	-0.301718
H113	H	-4.030308	0.132979	-0.739177
H114	H	-3.530308	0.632979	-0.239177
H115	H	-4.155595	0.174927	-0.806671
H116	H	-3.655595	0.674927	-0.306671
C117	C	-3.974466	-0.499479	-0.358151
C118	C	-3.474466	0.000521	0.141849
C119	C	-3.983057	-0.451567	-0.424728
C120	C	-3.483057	0.048433	0.075272
C121	C	-4.035526	-0.499604	-0.493748
C122	C	-3.535526	0.000396	0.006252
H123	H	-3.873175	-0.529603	-0.356651
H124	H	-3.373175	-0.029603	0.143349
H125	H	-4.105554	-0.534436	-0.361314
H126	H	-3.605554	-0.034436	0.138686
H127	H	-3.851988	-0.416624	-0.421566
H128	H	-3.351988	0.083376	0.078434
H129	H	-4.084352	-0.421444	-0.426254
H130	H	-3.584352	0.078556	0.073746
H131	H	-4.166614	-0.534561	-0.496911
H132	H	-3.666614	-0.034561	0.003089
H133	H	-3.934228	-0.529726	-0.492241
H134	H	-3.434228	-0.029726	0.007759
H135	H	-4.041381	-0.467103	-0.538930
H136	H	-3.541381	0.032897	-0.038930
C137	C	-4.159296	-0.877077	-0.396384
C138	C	-3.659296	-0.377077	0.103616
C139	C	-4.009554	-0.921348	-0.393812
C140	C	-3.509554	-0.421348	0.106188
C141	C	-4.061475	-0.969569	-0.462686
C142	C	-3.561475	-0.469569	0.037314
H143	H	-4.290252	-0.912114	-0.399569
H144	H	-3.790252	-0.412114	0.100431
H145	H	-4.165098	-0.844714	-0.441668
H146	H	-3.665098	-0.344714	0.058332
H147	H	-4.003774	-0.953708	-0.348541
H148	H	-3.503774	-0.453708	0.151459
H149	H	-3.878584	-0.886332	-0.390639
H150	H	-3.378584	-0.386332	0.109361
H151	H	-4.067278	-0.937206	-0.507970
H152	H	-3.567278	-0.437206	-0.007970
H153	H	-4.192434	-1.004600	-0.465866
H154	H	-3.692434	-0.504600	0.034134
H155	H	-3.959875	-0.999607	-0.460954
H156	H	-3.459875	-0.499607	0.039046
H157	H	-4.083317	-0.713952	-0.388097
H158	H	-3.583317	-0.213952	0.111903
C159	C	-3.974800	-0.212335	-0.645343
C160	C	-3.474800	0.287665	-0.145343
C161	C	-4.167997	-0.216755	-0.696769
C162	C	-3.667997	0.283245	-0.196769
C163	C	-4.220842	-0.285653	-0.745001
C164	C	-3.720842	0.214347	-0.245001
H165	H	-3.873637	-0.210795	-0.675537
H166	H	-3.373637	0.289205	-0.175537
H167	H	-3.980794	-0.257619	-0.612979
H168	H	-3.480794	0.242381	-0.112979
H169	H	-4.161989	-0.171483	-0.729130
H170	H	-3.661989	0.328517	-0.229130
H171	H	-4.269203	-0.218308	-0.666597
H172	H	-3.769203	0.281692	-0.166597
H173	H	-4.226836	-0.330937	-0.712637
H174	H	-3.726836	0.169063	-0.212637
H175	H	-4.119667	-0.284107	-0.775190
H176	H	-3.619667	0.215893	-0.275190
H177	H	-4.351938	-0.288665	-0.779894
H178	H	-3.851938	0.211335	-0.279894
C179	C	-3.902819	-0.224354	-0.472993
C180	C	-3.402819	0.275646	0.027007
C181	C	-3.955946	-0.283469	-0.532888
C182	C	-3.455946	0.216531	-0.032888
C183	C	-3.973897	-0.358180	-0.498550
C184	C	-3.473897	0.141820	0.001450
H185	H	-3.774694	-0.227237	-0.438643
H186	H	-3.274694	0.272763	0.061357
H187	H	-4.007123	-0.232056	-0.443430
H188	H	-3.507123	0.267944	0.056570
H189	H	-3.851649	-0.275770	-0.562438
H190	H	-3.351649	0.224230	-0.062438
H191	H	-4.084076	-0.280612	-0.567243
H192	H	-3.584076	0.219388	-0.067243
H193	H	-4.078201	-0.365882	-0.468987
H194	H	-3.578201	0.134118	0.031013
H195	H	-3.845766	-0.361054	-0.464200
H196	H	-3.345766	0.138946	0.035800
H197	H	-4.009964	-0.398299	-0.539183
H198	H	-3.509964	0.101701	-0.039183
C199	C	-3.827789	0.087025	-0.616729
C200	C	-3.327789	0.587025	-0.116729
C201	C	-3.969674	0.125424	-0.596083
C202	C	-3.469674	0.625424	-0.096083
C203	C	-3.952009	0.200070	-0.630552
C204	C	-3.452009	0.700070	-0.130552
H205	H	-3.691600	0.118041	-0.597974
H206	H	-3.191600	0.618041	-0.097974
H207	H	-3.855791	0.080594	-0.672879
H208	H	-3.355791	0.580594	-0.172879
H209	H	-3.941659	0.131859	-0.539944
H210	H	-3.441659	0.631859	-0.039944
H211	H	-4.105881	0.094432	-0.614838
H212	H	-3.605881	0.594432	-0.114838
H213	H	-3.980010	0.193639	-0.686703
H214	H	-3.480010	0.693639	-0.186703
H215	H	-3.815814	0.231078	-0.611794
H216	H	-3.315814	0.731078	-0.111794
H217	H	-4.048286	0.226130	-0.616555
H218	H	-3.548286	0.726130	-0.116555
H219	H	-3.770144	0.056378	-0.457392
H220	H	-3.270144	0.556378	0.042608
H221	H	-4.017610	-0.839126	-0.117310
H222	H	-3.517610	-0.339126	0.382690
H223	H	-4.083348	-0.242409	-0.859641
H224	H	-3.583348	0.257591	-0.359641
H225	H	-4.145505	-0.232028	-1.009649
H226	H	-3.645505	0.267972	-0.509649
H227	H	-4.017688	0.028377	-0.984823
H228	H	-3.517688	0.528377	-0.484823
