data_functionalizedCrystal
_audit_creation_method	'MofGen! by Chris Wilmer'
_symmetry_space_group_name_H-M	'P1'
_symmetry_Int_Tables_number	1
_symmetry_cell_setting	triclinic
loop_
_symmetry_equiv_pos_as_xyz
  x,y,z
_cell_length_a	19.077068
_cell_length_b	19.805407
_cell_length_c	19.805399
_cell_angle_alpha	89.978936
_cell_angle_beta	87.730571
_cell_angle_gamma	87.673869
loop_
_atom_site_label
_atom_site_type_symbol
_atom_site_fract_x
_atom_site_fract_y
_atom_site_fract_z
Zn1	Zn	-0.280237	-1.023903	0.393561
Zn2	Zn	-0.030237	-0.773903	0.643561
Zn3	Zn	0.219763	-0.523903	0.893561
Zn4	Zn	0.469763	-0.273903	1.143561
Zn5	Zn	-0.397936	-1.019269	0.284915
Zn6	Zn	-0.147936	-0.769269	0.534915
Zn7	Zn	0.102064	-0.519269	0.784915
Zn8	Zn	0.352064	-0.269269	1.034915
Zn9	Zn	-0.280254	-0.910717	0.280384
Zn10	Zn	-0.030254	-0.660717	0.530384
Zn11	Zn	0.219746	-0.410717	0.780384
Zn12	Zn	0.469746	-0.160717	1.030384
Zn13	Zn	-0.397896	-0.906133	0.398057
Zn14	Zn	-0.147896	-0.656133	0.648057
Zn15	Zn	0.102104	-0.406133	0.898057
Zn16	Zn	0.352104	-0.156133	1.148057
O17	O	-0.339081	-0.965006	0.339229
O18	O	-0.089081	-0.715006	0.589229
O19	O	0.160919	-0.465006	0.839229
O20	O	0.410919	-0.215006	1.089229
O21	O	-0.295859	-1.118005	0.379164
O22	O	-0.045859	-0.868005	0.629164
O23	O	0.204141	-0.618005	0.879164
O24	O	0.454141	-0.368005	1.129164
O25	O	-0.382349	-1.004848	0.189598
O26	O	-0.132349	-0.754848	0.439598
O27	O	0.117651	-0.504848	0.689598
O28	O	0.367651	-0.254848	0.939598
O29	O	-0.181761	-0.929590	0.291619
O30	O	0.068239	-0.679590	0.541619
O31	O	0.318239	-0.429590	0.791619
O32	O	0.568239	-0.179590	1.041619
O33	O	-0.382332	-1.114600	0.299342
O34	O	-0.132332	-0.864600	0.549342
O35	O	0.117668	-0.614600	0.799342
O36	O	0.367668	-0.364600	1.049342
O37	O	-0.181748	-1.012747	0.374770
O38	O	0.068252	-0.762747	0.624770
O39	O	0.318252	-0.512747	0.874770
O40	O	0.568252	-0.262747	1.124770
O41	O	-0.295889	-0.925096	0.186269
O42	O	-0.045889	-0.675096	0.436269
O43	O	0.204111	-0.425096	0.686269
O44	O	0.454111	-0.175096	0.936269
O45	O	-0.295850	-0.815393	0.295978
O46	O	-0.045850	-0.565393	0.545978
O47	O	0.204150	-0.315393	0.795978
O48	O	0.454150	-0.065393	1.045978
O49	O	-0.382265	-0.921777	0.492177
O50	O	-0.132265	-0.671777	0.742177
O51	O	0.117735	-0.421777	0.992177
O52	O	0.367735	-0.171777	1.242177
O53	O	-0.382282	-0.812025	0.382433
O54	O	-0.132282	-0.562025	0.632433
O55	O	0.117718	-0.312025	0.882433
O56	O	0.367718	-0.062025	1.132433
O57	O	-0.295821	-1.008302	0.488873
O58	O	-0.045821	-0.758302	0.738873
O59	O	0.204179	-0.508302	0.988873
O60	O	0.454179	-0.258302	1.238873
O61	O	-0.496422	-1.000403	0.303702
O62	O	-0.246422	-0.750403	0.553702
O63	O	0.003578	-0.500403	0.803702
O64	O	0.253578	-0.250403	1.053702
O65	O	-0.496393	-0.917283	0.386827
O66	O	-0.246393	-0.667283	0.636827
O67	O	0.003607	-0.417283	0.886827
O68	O	0.253607	-0.167283	1.136827
C69	C	-0.339064	-0.789150	0.339202
C70	C	-0.089064	-0.539150	0.589202
C71	C	0.160936	-0.289150	0.839202
C72	C	0.410936	-0.039150	1.089202
C73	C	-0.339074	-0.713918	0.339207
C74	C	-0.089074	-0.463918	0.589207
C75	C	0.160926	-0.213918	0.839207
C76	C	0.410926	0.036082	1.089207
C77	C	-0.384146	-0.676835	0.384156
C78	C	-0.134146	-0.426835	0.634156
C79	C	0.115854	-0.176835	0.884156
C80	C	0.365854	0.073165	1.134156
C81	C	-0.384146	-0.606147	0.384163
C82	C	-0.134146	-0.356147	0.634163
C83	C	0.115854	-0.106147	0.884163
C84	C	0.365854	0.143853	1.134163
C85	C	-0.339077	-0.572542	0.339219
C86	C	-0.089077	-0.322542	0.589219
C87	C	0.160923	-0.072542	0.839219
C88	C	0.410923	0.177458	1.089219
C89	C	-0.294000	-0.609630	0.294268
C90	C	-0.044000	-0.359630	0.544268
C91	C	0.206000	-0.109630	0.794268
C92	C	0.456000	0.140370	1.044268
C93	C	-0.293997	-0.680317	0.294265
C94	C	-0.043997	-0.430317	0.544265
C95	C	0.206003	-0.180317	0.794265
C96	C	0.456003	0.069683	1.044265
C97	C	-0.294010	-0.324556	0.294284
C98	C	-0.044010	-0.074556	0.544284
C99	C	0.205990	0.175444	0.794284
C100	C	0.455990	0.425444	1.044284
C101	C	-0.294018	-0.253864	0.294290
C102	C	-0.044018	-0.003864	0.544290
C103	C	0.205982	0.246136	0.794290
C104	C	0.455982	0.496136	1.044290
C105	C	-0.384159	-0.250386	0.384183
C106	C	-0.134159	-0.000386	0.634183
C107	C	0.115841	0.249614	0.884183
C108	C	0.365841	0.499614	1.134183
C109	C	-0.384156	-0.321073	0.384179
C110	C	-0.134156	-0.071073	0.634179
C111	C	0.115844	0.178927	0.884179
C112	C	0.365844	0.428927	1.134179
C113	C	-0.339077	-0.358155	0.339231
C114	C	-0.089077	-0.108155	0.589231
C115	C	0.160923	0.141845	0.839231
C116	C	0.410923	0.391845	1.089231
C117	C	-0.339077	-0.434803	0.339224
C118	C	-0.089077	-0.184803	0.589224
C119	C	0.160923	0.065197	0.839224
C120	C	0.410923	0.315197	1.089224
C121	C	-0.339080	-0.495895	0.339222
C122	C	-0.089080	-0.245895	0.589222
C123	C	0.160920	0.004105	0.839222
C124	C	0.410920	0.254105	1.089222
C125	C	-0.521945	-0.957861	0.346259
C126	C	-0.271945	-0.707861	0.596259
C127	C	-0.021945	-0.457861	0.846259
C128	C	0.228055	-0.207861	1.096259
C129	C	-0.600175	-0.954866	0.349289
C130	C	-0.350175	-0.704866	0.599289
C131	C	-0.100175	-0.454866	0.849289
C132	C	0.149825	-0.204866	1.099289
C133	C	-0.636919	-0.996769	0.307469
C134	C	-0.386919	-0.746769	0.557469
C135	C	-0.136919	-0.496769	0.807469
C136	C	0.113081	-0.246769	1.057469
C137	C	-0.710425	-0.993957	0.310323
C138	C	-0.460425	-0.743957	0.560323
C139	C	-0.210425	-0.493957	0.810323
C140	C	0.039575	-0.243957	1.060323
C141	C	-0.747184	-0.949237	0.354993
C142	C	-0.497184	-0.699237	0.604993
C143	C	-0.247184	-0.449237	0.854993
C144	C	0.002816	-0.199237	1.104993
C145	C	-0.710435	-0.907333	0.396817
C146	C	-0.460435	-0.657333	0.646817
C147	C	-0.210435	-0.407333	0.896817
C148	C	0.039565	-0.157333	1.146817
C149	C	-0.636931	-0.910149	0.393966
C150	C	-0.386931	-0.660149	0.643966
C151	C	-0.136931	-0.410149	0.893966
C152	C	0.113069	-0.160149	1.143966
C153	C	-0.967019	-0.936173	0.368160
C154	C	-0.717019	-0.686173	0.618160
C155	C	-0.467019	-0.436173	0.868160
C156	C	-0.217019	-0.186173	1.118160
C157	C	-1.040528	-0.933358	0.371006
C158	C	-0.790528	-0.683358	0.621006
C159	C	-0.540528	-0.433358	0.871006
C160	C	-0.290528	-0.183358	1.121006
C161	C	-1.040513	-1.019983	0.284512
C162	C	-0.790513	-0.769983	0.534512
C163	C	-0.540513	-0.519983	0.784512
C164	C	-0.290513	-0.269983	1.034512
C165	C	-0.967008	-1.022793	0.281662
C166	C	-0.717008	-0.772793	0.531662
C167	C	-0.467008	-0.522793	0.781662
C168	C	-0.217008	-0.272793	1.031662
C169	C	-0.930264	-0.980891	0.323489
C170	C	-0.680264	-0.730891	0.573489
C171	C	-0.430264	-0.480891	0.823489
C172	C	-0.180264	-0.230891	1.073489
N173	N	-0.822319	-0.946360	0.357910
N174	N	-0.572319	-0.696360	0.607910
N175	N	-0.322319	-0.446360	0.857910
N176	N	-0.072319	-0.196360	1.107910
N177	N	-0.855131	-0.983772	0.320575
N178	N	-0.605131	-0.733772	0.570575
N179	N	-0.355131	-0.483772	0.820575
N180	N	-0.105131	-0.233772	1.070575
C181	C	-0.155503	-0.972197	0.332187
C182	C	0.094497	-0.722197	0.582187
C183	C	0.344497	-0.472197	0.832187
C184	C	0.594497	-0.222197	1.082187
C185	C	-0.077273	-0.975261	0.329186
C186	C	0.172727	-0.725261	0.579186
C187	C	0.422727	-0.475261	0.829186
C188	C	0.672727	-0.225261	1.079186
C189	C	-0.339037	-0.965045	0.515770
C190	C	-0.089037	-0.715045	0.765770
C191	C	0.160963	-0.465045	1.015770
C192	C	0.410963	-0.215045	1.265770
C193	C	-0.339018	-0.965062	0.591002
C194	C	-0.089018	-0.715062	0.841002
C195	C	0.160982	-0.465062	1.091002
C196	C	0.410982	-0.215062	1.341002
C197	C	-0.339094	-0.141548	0.339250
C198	C	-0.089094	0.108452	0.589250
C199	C	0.160906	0.358452	0.839250
C200	C	0.410906	0.608452	1.089250
C201	C	-0.339087	-0.216780	0.339242
C202	C	-0.089087	0.033220	0.589242
C203	C	0.160913	0.283220	0.839242
C204	C	0.410913	0.533220	1.089242
C205	C	-0.339074	-0.965007	0.163373
C206	C	-0.089074	-0.715007	0.413373
C207	C	0.160926	-0.465007	0.663373
C208	C	0.410926	-0.215007	0.913373
C209	C	-0.338895	-0.965129	0.088135
C210	C	-0.088895	-0.715129	0.338135
C211	C	0.161105	-0.465129	0.588135
C212	C	0.411105	-0.215129	0.838135
C213	C	-0.294004	-1.010117	0.624627
C214	C	-0.044004	-0.760117	0.874627
C215	C	0.205996	-0.510117	1.124627
C216	C	0.455996	-0.260117	1.374627
C217	C	-0.293984	-1.010125	0.695315
C218	C	-0.043984	-0.760125	0.945315
C219	C	0.206016	-0.510125	1.195315
C220	C	0.456016	-0.260125	1.445315
C221	C	-0.338981	-0.965080	0.732376
C222	C	-0.088981	-0.715080	0.982376
C223	C	0.161019	-0.465080	1.232376
C224	C	0.411019	-0.215080	1.482376
C225	C	-0.383996	-0.920021	0.698746
C226	C	-0.133996	-0.670021	0.948746
C227	C	0.116004	-0.420021	1.198746
C228	C	0.366004	-0.170021	1.448746
C229	C	-0.384013	-0.920010	0.628059
C230	C	-0.134013	-0.670010	0.878059
C231	C	0.115987	-0.420010	1.128059
C232	C	0.365987	-0.170010	1.378059
C233	C	-0.383931	-0.920062	0.983817
C234	C	-0.133931	-0.670062	1.233817
C235	C	0.116069	-0.420062	1.483817
C236	C	0.366069	-0.170062	1.733817
C237	C	-0.383913	-0.920077	1.054508
C238	C	-0.133913	-0.670077	1.304508
C239	C	0.116087	-0.420077	1.554508
C240	C	0.366087	-0.170077	1.804508
C241	C	-0.293902	-1.010176	1.051072
C242	C	-0.043902	-0.760176	1.301072
C243	C	0.206098	-0.510176	1.551072
C244	C	0.456098	-0.260176	1.801072
C245	C	-0.293918	-1.010165	0.980385
C246	C	-0.043918	-0.760165	1.230385
C247	C	0.206082	-0.510165	1.480385
C248	C	0.456082	-0.260165	1.730385
C249	C	-0.338931	-0.965104	0.946762
C250	C	-0.088931	-0.715104	1.196762
C251	C	0.161069	-0.465104	1.446762
C252	C	0.411069	-0.215104	1.696762
C253	C	-0.338951	-0.965095	0.870114
C254	C	-0.088951	-0.715095	1.120114
C255	C	0.161049	-0.465095	1.370114
C256	C	0.411049	-0.215095	1.620114
C257	C	-0.338964	-0.965092	0.809022
C258	C	-0.088964	-0.715092	1.059022
C259	C	0.161036	-0.465092	1.309022
C260	C	0.411036	-0.215092	1.559022
H261	H	-0.257301	-0.582264	0.257677
H262	H	-0.007301	-0.332264	0.507677
H263	H	0.242699	-0.082264	0.757677
H264	H	0.492699	0.167736	1.007677
H265	H	-0.257364	-1.046799	0.594456
H266	H	-0.007364	-0.796799	0.844456
H267	H	0.242636	-0.546799	1.094456
H268	H	0.492636	-0.296799	1.344456
H269	H	-0.257291	-0.710509	0.257666
H270	H	-0.007291	-0.460509	0.507666
H271	H	0.242709	-0.210509	0.757666
H272	H	0.492709	0.039491	1.007666
H273	H	-1.070456	-0.896950	0.407393
H274	H	-0.820456	-0.646950	0.657393
H275	H	-0.570456	-0.396950	0.907393
H276	H	-0.320456	-0.146950	1.157393
H277	H	-0.420593	-0.883379	0.956449
H278	H	-0.170593	-0.633379	1.206449
H279	H	0.079407	-0.383379	1.456449
H280	H	0.329407	-0.133379	1.706449
H281	H	-0.257313	-0.226505	0.257690
H282	H	-0.007313	0.023495	0.507690
H283	H	0.242687	0.273495	0.757690
H284	H	0.492687	0.523495	1.007690
Br285	Br	-0.445061	-0.858885	0.749043
Br286	Br	-0.195061	-0.608885	0.999043
Br287	Br	0.054939	-0.358885	1.249043
Br288	Br	0.304939	-0.108885	1.499043
H289	H	-0.607014	-0.876028	0.428021
H290	H	-0.357014	-0.626028	0.678021
H291	H	-0.107014	-0.376028	0.928021
H292	H	0.142986	-0.126028	1.178021
Br293	Br	-0.445319	-0.722434	0.445151
Br294	Br	-0.195319	-0.472434	0.695151
Br295	Br	0.054681	-0.222434	0.945151
Br296	Br	0.304681	0.027566	1.195151
H297	H	-1.070437	-1.054098	0.250460
H298	H	-0.820437	-0.804098	0.500460
H299	H	-0.570437	-0.554098	0.750460
H300	H	-0.320437	-0.304098	1.000460
Br301	Br	-0.917124	-1.083494	0.221045
Br302	Br	-0.667124	-0.833494	0.471045
Br303	Br	-0.417124	-0.583494	0.721045
Br304	Br	-0.167124	-0.333494	0.971045
Br305	Br	-0.232828	-0.374873	0.233287
Br306	Br	0.017172	-0.124873	0.483287
Br307	Br	0.267172	0.125127	0.733287
Br308	Br	0.517172	0.375127	0.983287
Br309	Br	-0.445341	-0.200057	0.445183
Br310	Br	-0.195341	0.049943	0.695183
Br311	Br	0.054659	0.299943	0.945183
Br312	Br	0.304659	0.549943	1.195183
H313	H	-0.420848	-0.575957	0.420764
H314	H	-0.170848	-0.325957	0.670764
H315	H	0.079152	-0.075957	0.920764
H316	H	0.329152	0.174043	1.170764
H317	H	-0.606994	-1.033181	0.271091
H318	H	-0.356994	-0.783181	0.521091
H319	H	-0.106994	-0.533181	0.771091
H320	H	0.143006	-0.283181	1.021091
Br321	Br	-0.917162	-0.879306	0.424925
Br322	Br	-0.667162	-0.629306	0.674925
Br323	Br	-0.417162	-0.379306	0.924925
Br324	Br	-0.167162	-0.129306	1.174925
Br325	Br	-0.760290	-1.050832	0.253569
Br326	Br	-0.510290	-0.800832	0.503569
Br327	Br	-0.260290	-0.550832	0.753569
Br328	Br	-0.010290	-0.300832	1.003569
H329	H	-0.740371	-0.870924	0.433192
H330	H	-0.490371	-0.620924	0.683192
H331	H	-0.240371	-0.370924	0.933192
H332	H	0.009629	-0.120924	1.183192
H333	H	-0.420660	-0.883316	0.600683
H334	H	-0.170660	-0.633316	0.850683
H335	H	0.079340	-0.383316	1.100683
H336	H	0.329340	-0.133316	1.350683
Br337	Br	-0.232924	-1.071303	0.740948
Br338	Br	0.017076	-0.821303	0.990948
Br339	Br	0.267076	-0.571303	1.240948
Br340	Br	0.517076	-0.321303	1.490948
H341	H	-0.257279	-1.046847	0.950213
H342	H	-0.007279	-0.796847	1.200213
H343	H	0.242721	-0.546847	1.450213
H344	H	0.492721	-0.296847	1.700213
H345	H	-0.257248	-1.046865	1.078457
H346	H	-0.007248	-0.796865	1.328457
H347	H	0.242752	-0.546865	1.578457
H348	H	0.492752	-0.296865	1.828457
H349	H	-0.420858	-0.348430	0.420775
H350	H	-0.170858	-0.098430	0.670775
H351	H	0.079142	0.151570	0.920775
H352	H	0.329142	0.401570	1.170775
Br353	Br	-0.444986	-0.858942	1.104806
Br354	Br	-0.194986	-0.608942	1.354806
Br355	Br	0.055014	-0.358942	1.604806
Br356	Br	0.305014	-0.108942	1.854806
