data_functionalizedCrystal
_audit_creation_method	'MofGen! by Chris Wilmer'
_symmetry_space_group_name_H-M	'P1'
_symmetry_Int_Tables_number	1
_symmetry_cell_setting	triclinic
loop_
_symmetry_equiv_pos_as_xyz
  x,y,z
_cell_length_a	12.837943
_cell_length_b	14.044220
_cell_length_c	11.295483
_cell_angle_alpha	94.468632
_cell_angle_beta	85.461227
_cell_angle_gamma	94.008909
loop_
_atom_site_label
_atom_site_type_symbol
_atom_site_fract_x
_atom_site_fract_y
_atom_site_fract_z
O1	O	1.404877	0.242691	-0.099010
O2	O	1.904877	0.742691	0.400990
O3	O	1.101936	0.230415	-0.099017
O4	O	1.601936	0.730415	0.400983
O5	O	1.248859	0.098158	-0.099002
O6	O	1.748859	0.598158	0.400998
O7	O	1.257954	0.374947	-0.099025
O8	O	1.757954	0.874947	0.400975
O9	O	1.235952	0.109755	0.099047
O10	O	1.735952	0.609755	0.599047
O11	O	1.089030	0.242012	0.099032
O12	O	1.589030	0.742012	0.599032
O13	O	1.391970	0.254287	0.099039
O14	O	1.891970	0.754287	0.599039
Cu15	Cu	1.239322	0.249208	0.117119
Cu16	Cu	1.739322	0.749208	0.617119
Cu17	Cu	1.254585	0.235494	-0.117097
Cu18	Cu	1.754585	0.735494	0.382903
O19	O	1.245048	0.386544	0.099024
O20	O	1.745048	0.886544	0.599024
C21	C	1.056479	0.232067	0.000007
C22	C	1.556479	0.732067	0.500007
C23	C	0.940259	0.219699	0.000005
C24	C	1.440259	0.719699	0.500005
C25	C	0.713048	0.368378	0.000009
C26	C	1.213048	0.868378	0.500009
C27	C	0.603848	0.356763	0.000008
C28	C	1.103848	0.856763	0.500008
C29	C	0.612656	0.184853	0.000010
C30	C	1.112656	0.684853	0.500010
C31	C	0.721856	0.196469	0.000011
C32	C	1.221856	0.696469	0.500011
C33	C	0.772048	0.288234	0.000009
C34	C	1.272048	0.788234	0.500009
C35	C	0.881251	0.299849	0.000002
C36	C	1.381251	0.799849	0.500002
C37	C	0.890056	0.127940	0.000012
C38	C	1.390056	0.627940	0.500012
C39	C	0.780856	0.116324	0.000011
C40	C	1.280856	0.616324	0.500011
C41	C	1.238424	0.068282	0.000023
C42	C	1.738424	0.568282	0.500023
C43	C	1.226550	-0.038016	0.000024
C44	C	1.726550	0.461984	0.500024
C45	C	1.204843	-0.232639	0.000007
C46	C	1.704843	0.267361	0.500007
C47	C	1.289060	-0.282665	0.000005
C48	C	1.789060	0.217335	0.500005
C49	C	1.276982	-0.390961	-0.000005
C50	C	1.776982	0.109039	0.499995
C51	C	1.216919	-0.124334	0.000016
C52	C	1.716919	0.375666	0.500016
C53	C	1.437428	0.252635	0.000012
C54	C	1.937428	0.752635	0.500012
C55	C	1.553649	0.265002	0.000007
C56	C	2.053649	0.765002	0.500007
C57	C	1.255482	0.416420	-0.000004
C58	C	1.755482	0.916420	0.499996
C59	C	1.267357	0.522717	-0.000013
C60	C	1.767357	1.022717	0.499987
N61	N	1.228594	0.258854	0.281854
N62	N	1.728594	0.758854	0.781854
N63	N	1.265320	0.225841	-0.281832
N64	N	1.765320	0.725841	0.218168
C65	C	1.342540	0.156351	0.531156
C66	C	1.842540	0.656351	1.031156
C67	C	1.334441	0.163648	0.655818
C68	C	1.834441	0.663648	1.155818
C69	C	1.204292	0.280740	0.655845
C70	C	1.704292	0.780740	1.155845
C71	C	1.212391	0.273443	0.531182
C72	C	1.712391	0.773443	1.031182
C73	C	1.281518	0.211247	0.468842
C74	C	1.781518	0.711247	0.968842
C75	C	1.289622	0.203956	0.344177
C76	C	1.789622	0.703956	0.844177
C77	C	1.159469	0.321042	0.344206
C78	C	1.659469	0.821042	0.844206
C79	C	1.151370	0.328339	0.468869
C80	C	1.651370	0.828339	0.968869
H81	H	0.753915	0.443098	0.000006
H82	H	1.253915	0.943098	0.500006
Br83	Br	1.424353	-0.218496	0.000018
Br84	Br	1.924353	0.281504	0.500018
Br85	Br	0.523778	0.465535	0.000017
Br86	Br	1.023778	0.965535	0.500017
Br87	Br	1.069558	-0.296810	-0.000007
Br88	Br	1.569558	0.203190	0.499993
H89	H	0.938107	0.062681	0.000004
H90	H	1.438107	0.562681	0.500004
Br91	Br	0.949369	0.424385	-0.000009
Br92	Br	1.449369	0.924385	0.499991
H93	H	1.345912	0.153316	0.293420
H94	H	1.845912	0.653316	0.793420
H95	H	1.398833	0.105716	0.480397
H96	H	1.898833	0.605716	0.980397
H97	H	1.148003	0.331371	0.706619
H98	H	1.648003	0.831371	1.206619
H99	H	1.095084	0.378975	0.519641
H100	H	1.595084	0.878975	1.019641
Br101	Br	1.076661	0.395557	0.259627
Br102	Br	1.576661	0.895557	0.759627
H103	H	0.571765	0.110147	0.000110
H104	H	1.071765	0.610147	0.500110
Br105	Br	1.417254	0.089137	0.740385
Br106	Br	1.917254	0.589137	1.240385
H107	H	0.739974	0.041612	0.000026
H108	H	1.239974	0.541612	0.500026
