data_functionalizedCrystal
_audit_creation_method	'MofGen! by Chris Wilmer'
_symmetry_space_group_name_H-M	'P1'
_symmetry_Int_Tables_number	1
_symmetry_cell_setting	triclinic
loop_
_symmetry_equiv_pos_as_xyz
  x,y,z
_cell_length_a	14.908571
_cell_length_b	16.625545
_cell_length_c	14.908308
_cell_angle_alpha	93.266139
_cell_angle_beta	89.824947
_cell_angle_gamma	93.279815
loop_
_atom_site_label
_atom_site_type_symbol
_atom_site_fract_x
_atom_site_fract_y
_atom_site_fract_z
Zn1	Zn	1.345266	0.420778	0.587574
Zn2	Zn	1.678600	0.754111	0.920907
Zn3	Zn	2.011933	1.087445	1.254240
Zn4	Zn	1.353838	0.548312	0.437211
Zn5	Zn	1.687171	0.881646	0.770545
Zn6	Zn	2.020504	1.214979	1.103878
Zn7	Zn	1.203583	0.405291	0.428572
Zn8	Zn	1.536916	0.738624	0.761905
Zn9	Zn	1.870249	1.071958	1.095238
Zn10	Zn	1.194866	0.547354	0.578863
Zn11	Zn	1.528199	0.880688	0.912196
Zn12	Zn	1.861532	1.214021	1.245530
O13	O	1.274388	0.480434	0.508055
O14	O	1.607721	0.813767	0.841388
O15	O	1.941055	1.147101	1.174722
O16	O	1.472229	0.444578	0.574889
O17	O	1.805562	0.777911	0.908222
O18	O	2.138896	1.111245	1.241556
O19	O	1.341141	0.523260	0.310241
O20	O	1.674475	0.856593	0.643574
O21	O	2.007808	1.189927	0.976907
O22	O	1.222438	0.294518	0.449693
O23	O	1.555772	0.627851	0.783027
O24	O	1.889105	0.961184	1.116360
O25	O	1.478526	0.538277	0.464418
O26	O	1.811860	0.871610	0.797752
O27	O	2.145193	1.204944	1.131085
O28	O	1.326533	0.305896	0.566511
O29	O	1.659866	0.639229	0.899845
O30	O	1.993199	0.972562	1.233178
O31	O	1.230750	0.418183	0.303893
O32	O	1.564083	0.751516	0.637227
O33	O	1.897416	1.084849	0.970560
O34	O	1.076601	0.417254	0.441247
O35	O	1.409934	0.750587	0.774580
O36	O	1.743267	1.083920	1.107914
O37	O	1.207581	0.536644	0.705843
O38	O	1.540915	0.869978	1.039176
O39	O	1.874248	1.203311	1.372510
O40	O	1.070196	0.521627	0.551665
O41	O	1.403530	0.854961	0.884999
O42	O	1.736863	1.188294	1.218332
O43	O	1.318080	0.443649	0.712243
O44	O	1.651413	0.776982	1.045576
O45	O	1.984747	1.110316	1.378909
O46	O	1.332689	0.661013	0.455972
O47	O	1.666022	0.994346	0.789305
O48	O	1.999356	1.327680	1.122639
O49	O	1.215893	0.660309	0.560043
O50	O	1.549226	0.993643	0.893376
O51	O	1.882559	1.326976	1.226710
C52	C	1.040773	0.467657	0.494574
C53	C	1.374107	0.800990	0.827907
C54	C	1.707440	1.134323	1.161241
C55	C	0.940831	0.462211	0.488828
C56	C	1.274164	0.795544	0.822162
C57	C	1.607497	1.128877	1.155495
C58	C	0.746416	0.560814	0.592855
C59	C	1.079750	0.894148	0.926189
C60	C	1.413083	1.227481	1.259522
C61	C	0.652511	0.555700	0.587460
C62	C	0.985845	0.889033	0.920793
C63	C	1.319178	1.222367	1.254126
C64	C	0.659113	0.446865	0.472647
C65	C	0.992447	0.780198	0.805980
C66	C	1.325780	1.113532	1.139313
C67	C	0.753018	0.451979	0.478042
C68	C	1.086352	0.785313	0.811375
C69	C	1.419685	1.118646	1.144709
C70	C	0.796667	0.508957	0.538148
C71	C	1.130000	0.842290	0.871481
C72	C	1.463333	1.175623	1.204814
C73	C	0.890574	0.514074	0.543538
C74	C	1.223907	0.847407	0.876871
C75	C	1.557241	1.180741	1.210205
C76	C	0.897174	0.405236	0.428730
C77	C	1.230507	0.738569	0.762063
C78	C	1.563841	1.071902	1.095397
C79	C	0.803269	0.400122	0.423334
C80	C	1.136602	0.733455	0.756668
C81	C	1.469935	1.066788	1.090001
C82	C	1.274298	0.689918	0.508021
C83	C	1.607632	1.023252	0.841354
C84	C	1.940965	1.356585	1.174688
C85	C	1.274340	0.779543	0.508041
C86	C	1.607674	1.112876	0.841374
C87	C	1.941007	1.446209	1.174708
C88	C	1.274481	1.107732	0.508157
C89	C	1.607814	1.441065	0.841490
C90	C	1.941148	1.774398	1.174824
C91	C	1.274439	1.016419	0.508127
C92	C	1.607772	1.349753	0.841460
C93	C	1.941106	1.683086	1.174794
C94	C	1.274410	0.943640	0.508099
C95	C	1.607743	1.276973	0.841432
C96	C	1.941077	1.610307	1.174765
C97	C	1.274369	0.852322	0.508070
C98	C	1.607703	1.185655	0.841403
C99	C	1.941036	1.518989	1.174736
C100	C	1.508915	0.493262	0.521589
C101	C	1.842248	0.826595	0.854922
C102	C	2.175582	1.159928	1.188256
C103	C	1.608856	0.498728	0.527356
C104	C	1.942190	0.832062	0.860690
C105	C	2.275523	1.165395	1.194023
C106	C	1.260902	0.491767	0.742580
C107	C	1.594235	0.825101	1.075913
C108	C	1.927569	1.158434	1.409247
C109	C	1.255155	0.496597	0.842521
C110	C	1.588489	0.829930	1.175854
C111	C	1.921822	1.163264	1.509187
C112	C	1.274493	1.270134	0.508120
C113	C	1.607827	1.603467	0.841454
C114	C	1.941160	1.936800	1.174787
C115	C	1.274517	1.180517	0.508174
C116	C	1.607850	1.513850	0.841507
C117	C	1.941184	1.847183	1.174841
C118	C	1.287873	0.469089	0.274445
C119	C	1.621207	0.802423	0.607779
C120	C	1.954540	1.135756	0.941112
C121	C	1.293794	0.464042	0.174515
C122	C	1.627128	0.797375	0.507849
C123	C	1.960461	1.130709	0.841182
C124	C	1.359416	0.408817	1.036985
C125	C	1.692749	0.742151	1.370318
C126	C	2.026083	1.075484	1.703652
C127	C	1.354019	0.413353	1.130888
C128	C	1.687352	0.746686	1.464222
C129	C	2.020686	1.080019	1.797555
C130	C	1.238961	0.510198	1.124232
C131	C	1.572294	0.843531	1.457565
C132	C	1.905627	1.176864	1.790899
C133	C	1.244358	0.505663	1.030329
C134	C	1.577691	0.838996	1.363662
C135	C	1.911024	1.172329	1.696995
C136	C	1.304588	0.454972	0.986709
C137	C	1.637922	0.788305	1.320042
C138	C	1.971255	1.121638	1.653375
C139	C	1.309989	0.450441	0.892804
C140	C	1.643322	0.783775	1.226137
C141	C	1.976656	1.117108	1.559471
C142	C	1.194927	0.547282	0.886149
C143	C	1.528260	0.880615	1.219482
C144	C	1.861593	1.213948	1.552816
C145	C	1.189530	0.551817	0.980052
C146	C	1.522863	0.885150	1.313386
C147	C	1.856196	1.218483	1.646719
H148	H	0.767717	0.353730	0.374401
H149	H	1.101051	0.687064	0.707734
H150	H	1.434384	1.020397	1.041067
H151	H	1.359033	0.409167	0.857290
H152	H	1.692366	0.742500	1.190624
H153	H	2.025700	1.075834	1.523957
H154	H	1.408463	0.367547	1.001469
H155	H	1.741796	0.700880	1.334803
H156	H	2.075129	1.034214	1.668136
H157	H	1.189924	0.551468	1.159764
H158	H	1.523257	0.884801	1.493097
H159	H	1.856590	1.218134	1.826430
H160	H	0.623558	0.400472	0.423717
H161	H	0.956891	0.733806	0.757051
H162	H	1.290225	1.067139	1.090384
H163	H	0.781956	0.607211	0.641791
H164	H	1.115289	0.940545	0.975124
H165	H	1.448622	1.273878	1.308457
H166	H	0.926111	0.560469	0.592478
H167	H	1.259444	0.893802	0.925811
H168	H	1.592777	1.227136	1.259144
H169	H	1.398663	0.375767	1.171820
H170	H	1.731997	0.709100	1.505153
H171	H	2.065330	1.042434	1.838487
H172	H	1.140490	0.593086	1.015580
H173	H	1.473823	0.926419	1.348914
H174	H	1.807157	1.259753	1.682247
H175	H	1.150284	0.584866	0.845204
H176	H	1.483617	0.918199	1.178537
H177	H	1.816951	1.251533	1.511870
H178	H	0.938098	0.363011	0.384181
H179	H	1.271431	0.696344	0.717514
H180	H	1.604765	1.029678	1.050848
Br181	Br	0.584316	0.626078	0.661713
Br182	Br	0.917649	0.959411	0.995047
Br183	Br	1.250982	1.292744	1.328380
