data_functionalizedCrystal
_audit_creation_method	'MofGen! by Chris Wilmer'
_symmetry_space_group_name_H-M	'P1'
_symmetry_Int_Tables_number	1
_symmetry_cell_setting	triclinic
loop_
_symmetry_equiv_pos_as_xyz
  x,y,z
_cell_length_a	12.759401
_cell_length_b	12.594516
_cell_length_c	12.759393
_cell_angle_alpha	89.970876
_cell_angle_beta	89.981504
_cell_angle_gamma	90.016214
loop_
_atom_site_label
_atom_site_type_symbol
_atom_site_fract_x
_atom_site_fract_y
_atom_site_fract_z
Zn1	Zn	1.606246	-0.423675	-0.593999
Zn2	Zn	1.606136	-0.601694	-0.418327
Zn3	Zn	1.430547	-0.423730	-0.418339
Zn4	Zn	1.430532	-0.601612	-0.593968
O5	O	1.518365	-0.512678	-0.506158
O6	O	1.753252	-0.447300	-0.570704
O7	O	1.582804	-0.578144	-0.271307
O8	O	1.453907	-0.274777	-0.441658
O9	O	1.753171	-0.578090	-0.441638
O10	O	1.582991	-0.274736	-0.570715
O11	O	1.453800	-0.447395	-0.271316
O12	O	1.283524	-0.447316	-0.441628
O13	O	1.453880	-0.577951	-0.740993
O14	O	1.283513	-0.578005	-0.570663
O15	O	1.582976	-0.447221	-0.741016
O16	O	1.582789	-0.750629	-0.441608
O17	O	1.453774	-0.750569	-0.570651
C18	C	1.245398	-0.512658	-0.506144
C19	C	1.128621	-0.512676	-0.506163
C20	C	1.073781	-0.580834	-0.573240
C21	C	0.964057	-0.580848	-0.573251
C22	C	0.964023	-0.444541	-0.439099
C23	C	1.073745	-0.444523	-0.439094
C24	C	1.128657	-0.648987	-0.640308
C25	C	1.073816	-0.717152	-0.707390
C26	C	0.964092	-0.717165	-0.707402
C27	C	0.909209	-0.649014	-0.640331
C28	C	1.518296	-0.789219	-0.506148
C29	C	1.518363	-0.907524	-0.506179
C30	C	1.448185	-0.976783	-0.576316
C31	C	1.422585	-1.047654	-0.480449
C32	C	1.544058	-1.047453	-0.602062
C33	C	1.492713	-0.976836	-0.410261
C34	C	1.614230	-0.976629	-0.531938
C35	C	1.588667	-1.047468	-0.436006
C36	C	1.792398	-0.512698	-0.506173
C37	C	1.909175	-0.512707	-0.506179
C38	C	1.518439	-0.512570	-0.780192
C39	C	1.518470	-0.512525	-0.896968
C40	C	1.518463	-0.235057	-0.506192
C41	C	1.518505	-0.116752	-0.506206
C42	C	1.585700	-0.444447	-0.951844
C43	C	1.585725	-0.444409	-1.061568
C44	C	1.451288	-0.580534	-1.061531
C45	C	1.451258	-0.580567	-0.951809
C46	C	1.652912	-0.376405	-0.897003
C47	C	1.720147	-0.308323	-0.951879
C48	C	1.720172	-0.308284	-1.061603
C49	C	1.652962	-0.376328	-1.116451
C50	C	1.518352	-0.512708	-0.233191
C51	C	1.518525	-0.512454	-0.116415
H52	H	1.217999	-0.648985	-0.640305
H53	H	1.652975	-0.376279	-1.205796
C54	C	1.367880	-0.934846	-0.656329
H55	H	1.402888	-0.893277	-0.707698
H56	H	1.317308	-0.892377	-0.621311
H57	H	1.333912	-0.993023	-0.689353
C58	C	1.668922	-1.089145	-0.355813
H59	H	1.720296	-1.130594	-0.390874
H60	H	1.634086	-1.131683	-0.305115
H61	H	1.701908	-1.030862	-0.321987
H62	H	1.652901	-0.376431	-0.807660
C63	C	1.134079	-0.369554	-0.365312
H64	H	1.207284	-0.379297	-0.374924
H65	H	1.116073	-0.385044	-0.294694
H66	H	1.116112	-0.298057	-0.380817
H67	H	0.819864	-0.649021	-0.640355
C68	C	1.313151	-1.089803	-0.451022
H69	H	1.263317	-1.065608	-0.500913
H70	H	1.294464	-1.064586	-0.383400
H71	H	1.314156	-1.165225	-0.450624
C72	C	1.794067	-0.233471	-0.891555
H73	H	1.834101	-0.192912	-0.939955
H74	H	1.839820	-0.274200	-0.848747
H75	H	1.753874	-0.187103	-0.848761
C76	C	1.463293	-0.935114	-0.300707
H77	H	1.463384	-0.859684	-0.301376
H78	H	1.512878	-0.959879	-0.250852
H79	H	1.395448	-0.960025	-0.282317
H80	H	1.695219	-0.945412	-0.553750
C81	C	0.903654	-0.369588	-0.365323
H82	H	0.830453	-0.379368	-0.374927
H83	H	0.921648	-0.298088	-0.380814
H84	H	0.921608	-0.385086	-0.294702
C85	C	1.573346	-1.089356	-0.711584
H86	H	1.523365	-1.065140	-0.761317
H87	H	1.573817	-1.164773	-0.710659
H88	H	1.640920	-1.063982	-0.730354
C89	C	1.794125	-0.233398	-1.121964
H90	H	1.834152	-0.192888	-1.073584
H91	H	1.753970	-0.187001	-1.164774
H92	H	1.839899	-0.274115	-1.164759
C93	C	1.377374	-0.655386	-1.121862
H94	H	1.387029	-0.645624	-1.195068
H95	H	1.306782	-0.639815	-1.103885
H96	H	1.392731	-0.726910	-1.103863
C97	C	1.134183	-0.792115	-0.781158
H98	H	1.207384	-0.782356	-0.771537
H99	H	1.116236	-0.776634	-0.851778
H100	H	1.116179	-0.863615	-0.765650
C101	C	1.377310	-0.655449	-0.891437
H102	H	1.386912	-0.645713	-0.818237
H103	H	1.392659	-0.726962	-0.909400
H104	H	1.306727	-0.639850	-0.909418
C105	C	0.903770	-0.792133	-0.781195
H106	H	0.952170	-0.832720	-0.821131
H107	H	0.860993	-0.751478	-0.827044
H108	H	0.860944	-0.838471	-0.740927
