data_functionalizedCrystal
_audit_creation_method	'MofGen! by Chris Wilmer'
_symmetry_space_group_name_H-M	'P1'
_symmetry_Int_Tables_number	1
_symmetry_cell_setting	triclinic
loop_
_symmetry_equiv_pos_as_xyz
  x,y,z
_cell_length_a	16.959455
_cell_length_b	29.839131
_cell_length_c	16.959447
_cell_angle_alpha	89.966085
_cell_angle_beta	89.985678
_cell_angle_gamma	90.038367
loop_
_atom_site_label
_atom_site_type_symbol
_atom_site_fract_x
_atom_site_fract_y
_atom_site_fract_z
Zn1	Zn	1.208267	-0.178881	-0.446889
Zn2	Zn	1.708267	0.321119	0.053111
Zn3	Zn	1.208140	-0.254014	-0.314702
Zn4	Zn	1.708140	0.245986	0.185298
Zn5	Zn	1.076095	-0.178895	-0.314726
Zn6	Zn	1.576095	0.321105	0.185274
Zn7	Zn	1.076010	-0.253981	-0.446841
Zn8	Zn	1.576010	0.246019	0.053159
O9	O	1.142128	-0.216443	-0.380790
O10	O	1.642128	0.283557	0.119210
O11	O	1.318861	-0.188856	-0.429364
O12	O	1.818861	0.311144	0.070636
O13	O	1.190606	-0.244070	-0.204094
O14	O	1.690606	0.255930	0.295906
O15	O	1.093716	-0.116026	-0.332288
O16	O	1.593716	0.383974	0.167712
O17	O	1.318767	-0.244056	-0.332247
O18	O	1.818767	0.255944	0.167753
O19	O	1.190822	-0.116016	-0.429388
O20	O	1.690822	0.383984	0.070612
O21	O	1.093593	-0.188880	-0.204112
O22	O	1.593593	0.311120	0.295888
O23	O	0.965473	-0.188847	-0.332242
O24	O	1.465473	0.311153	0.167758
O25	O	1.093572	-0.243999	-0.557458
O26	O	1.593572	0.256001	-0.057458
O27	O	0.965411	-0.244012	-0.429305
O28	O	1.465411	0.255988	0.070695
O29	O	1.190740	-0.188823	-0.557493
O30	O	1.690740	0.311177	-0.057493
O31	O	1.190524	-0.316877	-0.332200
O32	O	1.690524	0.183123	0.167800
O33	O	1.093449	-0.316852	-0.429282
O34	O	1.593449	0.183148	0.070718
C35	C	0.936762	-0.216428	-0.380771
C36	C	1.436762	0.283572	0.119229
C37	C	0.848905	-0.216433	-0.380782
C38	C	1.348905	0.283567	0.119218
C39	C	0.477437	-0.187695	-0.330354
C40	C	0.977437	0.312305	0.169646
C41	C	0.477421	-0.245228	-0.431270
C42	C	0.977421	0.254772	0.068730
C43	C	0.559967	-0.245221	-0.431265
C44	C	1.059967	0.254779	0.068735
C45	C	0.601252	-0.216452	-0.380803
C46	C	1.101252	0.283548	0.119197
C47	C	0.559991	-0.187688	-0.330346
C48	C	1.059991	0.312312	0.169654
C49	C	0.601235	-0.273987	-0.481716
C50	C	1.101235	0.226013	0.018284
C51	C	0.683786	-0.273982	-0.481713
C52	C	1.183786	0.226018	0.018287
C53	C	0.725072	-0.245210	-0.431254
C54	C	1.225072	0.254790	0.068746
C55	C	0.683806	-0.216445	-0.380795
C56	C	1.183806	0.283555	0.119205
C57	C	0.725090	-0.187676	-0.330333
C58	C	1.225090	0.312324	0.169667
C59	C	0.683826	-0.158908	-0.279878
C60	C	1.183826	0.341092	0.220122
C61	C	0.601277	-0.158916	-0.279887
C62	C	1.101277	0.341084	0.220113
C63	C	0.807620	-0.245202	-0.431245
C64	C	1.307620	0.254798	0.068755
C65	C	0.807644	-0.187669	-0.330325
C66	C	1.307644	0.312331	0.169675
C67	C	1.141985	-0.333165	-0.380750
C68	C	1.641985	0.166835	0.119250
C69	C	1.141996	-0.383100	-0.380760
C70	C	1.641996	0.116900	0.119240
C71	C	1.192767	-0.692743	-0.330313
C72	C	1.692767	-0.192743	0.169687
C73	C	1.192864	-0.880416	-0.330344
C74	C	1.692864	-0.380416	0.169656
O75	O	1.235918	-0.904681	-0.287422
O76	O	1.735918	-0.404681	0.212578
N77	N	1.142292	-0.903885	-0.380849
N78	N	1.642292	-0.403885	0.119151
C79	C	1.091695	-0.880432	-0.431354
C80	C	1.591695	-0.380432	0.068646
O81	O	1.048688	-0.904700	-0.474319
O82	O	1.548688	-0.404700	0.025681
C83	C	1.091602	-0.692760	-0.431327
C84	C	1.591602	-0.192760	0.068673
C85	C	1.142172	-0.669294	-0.380812
C86	C	1.642172	-0.169294	0.119188
C87	C	1.243333	-0.669277	-0.279803
C88	C	1.743333	-0.169277	0.220197
C89	C	1.243305	-0.622362	-0.279793
C90	C	1.743305	-0.122362	0.220207
C91	C	1.192711	-0.598913	-0.330293
C92	C	1.692711	-0.098913	0.169707
C93	C	1.142144	-0.622379	-0.380802
C94	C	1.642144	-0.122379	0.119198
C95	C	1.041010	-0.669308	-0.481835
C96	C	1.541010	-0.169308	0.018165
C97	C	1.040992	-0.622387	-0.481826
C98	C	1.540992	-0.122387	0.018174
C99	C	1.091563	-0.598921	-0.431311
C100	C	1.591563	-0.098921	0.068689
C101	C	1.091522	-0.552014	-0.431292
C102	C	1.591522	-0.052014	0.068708
N103	N	1.142094	-0.528545	-0.380786
N104	N	1.642094	-0.028545	0.119214
C105	C	1.192689	-0.551995	-0.330287
C106	C	1.692689	-0.051995	0.169713
C107	C	1.091746	-0.978963	-0.431364
C108	C	1.591746	-0.478963	0.068636
C109	C	1.091768	-1.025881	-0.431370
C110	C	1.591768	-0.525881	0.068630
C111	C	1.192939	-1.025862	-0.330360
C112	C	1.692939	-0.525862	0.169640
C113	C	1.192912	-0.978943	-0.330351
C114	C	1.692912	-0.478943	0.169649
C115	C	1.142319	-0.955494	-0.380858
C116	C	1.642319	-0.455494	0.119142
C117	C	1.192626	-0.453469	-0.330268
C118	C	1.692626	0.046531	0.169732
C119	C	1.192591	-0.406549	-0.330260
C120	C	1.692591	0.093451	0.169740
C121	C	1.091424	-0.406572	-0.431273
C122	C	1.591424	0.093428	0.068727
C123	C	1.091455	-0.453488	-0.431278
C124	C	1.591455	0.046512	0.068722
C125	C	1.142063	-0.476935	-0.380773
C126	C	1.642063	0.023065	0.119227
O127	O	1.048497	-0.527720	-0.474197
O128	O	1.548497	-0.027720	0.025803
O129	O	1.235702	-0.527719	-0.287341
O130	O	1.735702	-0.027719	0.212659
C131	C	1.192795	-0.739659	-0.330323
C132	C	1.692795	-0.239659	0.169677
C133	C	1.142228	-0.763125	-0.380833
C134	C	1.642228	-0.263125	0.119167
C135	C	1.091633	-0.739675	-0.431332
C136	C	1.591633	-0.239675	0.068668
C137	C	1.142250	-0.810043	-0.380839
C138	C	1.642250	-0.310043	0.119161
C139	C	1.192845	-0.833492	-0.330339
C140	C	1.692845	-0.333492	0.169661
C141	C	1.243417	-0.810024	-0.279834
C142	C	1.743417	-0.310024	0.220166
C143	C	1.243389	-0.763108	-0.279824
C144	C	1.743389	-0.263108	0.220176
C145	C	1.041061	-0.763144	-0.481838
C146	C	1.541061	-0.263144	0.018162
C147	C	1.041092	-0.810059	-0.481843
C148	C	1.541092	-0.310059	0.018157
C149	C	1.091687	-0.833509	-0.431344
C150	C	1.591687	-0.333509	0.068656
C151	C	1.348296	-0.216458	-0.380808
C152	C	1.848296	0.283542	0.119192
C153	C	1.436153	-0.216465	-0.380816
C154	C	1.936153	0.283535	0.119184
C155	C	1.142161	-0.216406	-0.586958
C156	C	1.642161	0.283594	-0.086958
C157	C	1.142175	-0.216390	-0.674814
C158	C	1.642175	0.283610	-0.174814
C159	C	1.142293	-0.099264	-0.380846
C160	C	1.642293	0.400736	0.119154
C161	C	1.142363	-0.049330	-0.380870
C162	C	1.642363	0.450670	0.119130
C163	C	1.091678	-0.245070	-1.046274
C164	C	1.591678	0.254930	-0.546274
C165	C	1.192860	-0.187615	-1.046306
C166	C	1.692860	0.312385	-0.546306
C167	C	1.192839	-0.187625	-0.963760
C168	C	1.692839	0.312375	-0.463760
C169	C	1.142238	-0.216358	-0.922468
C170	C	1.642238	0.283642	-0.422468
C171	C	1.091657	-0.245081	-0.963721
C172	C	1.591657	0.254919	-0.463721
C173	C	1.243424	-0.158905	-0.922501
C174	C	1.743424	0.341095	-0.422501
C175	C	1.243406	-0.158914	-0.839950
C176	C	1.743406	0.341086	-0.339950
C177	C	1.192800	-0.187645	-0.798656
C178	C	1.692800	0.312355	-0.298656
C179	C	1.142217	-0.216369	-0.839914
C180	C	1.642217	0.283631	-0.339914
C181	C	1.091615	-0.245102	-0.798621
C182	C	1.591615	0.254898	-0.298621
C183	C	1.041028	-0.273824	-0.839878
C184	C	1.541028	0.226176	-0.339878
C185	C	1.041051	-0.273812	-0.922426
C186	C	1.541051	0.226188	-0.422426
C187	C	1.192776	-0.187657	-0.716107
C188	C	1.692776	0.312343	-0.216107
C189	C	1.091594	-0.245113	-0.716068
C190	C	1.591594	0.254887	-0.216068
C191	C	1.142141	-0.216447	-0.175423
C192	C	1.642141	0.283553	0.324577
C193	C	1.142280	-0.216337	-0.087567
C194	C	1.642280	0.283663	0.412433
H195	H	0.567615	-0.297413	-0.522794
H196	H	1.067615	0.202587	-0.022794
C197	C	0.985334	-0.596597	-0.537390
C198	C	1.485334	-0.096597	-0.037390
N199	N	0.943412	-0.577172	-0.579239
N200	N	1.443412	-0.077172	-0.079239
C201	C	1.035823	-0.479301	-0.486843
C202	C	1.535823	0.020699	0.013157
N203	N	0.993926	-0.498741	-0.528703
N204	N	1.493926	0.001259	-0.028703
H205	H	1.233966	-0.164273	-0.682520
H206	H	1.733966	0.335727	-0.182520
C207	C	0.985421	-0.737356	-0.537416
C208	C	1.485421	-0.237356	-0.037416
N209	N	0.943515	-0.717934	-0.579286
N210	N	1.443515	-0.217934	-0.079286
H211	H	0.999826	-0.688406	-0.522966
H212	H	1.499826	-0.188406	-0.022966
C213	C	1.035926	-0.276722	-0.670652
C214	C	1.535926	0.223278	-0.170652
N215	N	0.993996	-0.300529	-0.636446
N216	N	1.493996	0.199471	-0.136446
H217	H	1.050489	-0.268453	-1.079869
H218	H	1.550489	0.231547	-0.579869
C219	C	0.432046	-0.156052	-0.274856
C220	C	0.932046	0.343948	0.225144
N221	N	0.397856	-0.132218	-0.233055
N222	N	0.897856	0.367782	0.266945
C223	C	0.985368	-0.305430	-0.794445
C224	C	1.485368	0.194570	-0.294445
N225	N	0.943445	-0.329233	-0.760222
N226	N	1.443445	0.170767	-0.260222
H227	H	1.284486	-0.603259	-0.238662
H228	H	1.784486	-0.103259	0.261338
C229	C	1.248513	-0.156008	-1.091731
C230	C	1.748513	0.343992	-0.591731
N231	N	1.290430	-0.132197	-1.125949
N232	N	1.790430	0.367803	-0.625949
C233	C	0.729169	-0.305625	-0.537217
C234	C	1.229169	0.194375	-0.037217
N235	N	0.763353	-0.329458	-0.579025
N236	N	1.263353	0.170542	-0.079025
H237	H	1.284597	-0.135526	-0.806366
H238	H	1.784597	0.364474	-0.306366
H239	H	0.999868	-0.297198	-0.956025
H240	H	1.499868	0.202802	-0.456025
H241	H	1.050582	-1.044983	-0.472496
H242	H	1.550582	-0.544983	0.027504
H243	H	1.234091	-0.959840	-0.289218
H244	H	1.734091	-0.459840	0.210782
H245	H	1.284538	-0.688365	-0.238680
H246	H	1.784538	-0.188365	0.261320
H247	H	1.284568	-0.744006	-0.238690
H248	H	1.784568	-0.244006	0.261310
H249	H	0.841252	-0.164238	-0.289237
H250	H	1.341252	0.335762	0.210763
H251	H	0.443803	-0.268653	-0.472350
H252	H	0.943803	0.231347	0.027650
C253	C	0.555880	-0.127277	-0.224388
C254	C	1.055880	0.372723	0.275612
N255	N	0.521683	-0.103447	-0.182585
N256	N	1.021683	0.396553	0.317415
H257	H	0.841214	-0.268625	-0.472322
H258	H	1.341214	0.231375	0.027678
H259	H	1.234135	-1.044962	-0.289242
H260	H	1.734135	-0.544962	0.210758
H261	H	1.050545	-0.959874	-0.472494
H262	H	1.550545	-0.459874	0.027506
C263	C	1.299074	-0.127296	-0.967928
C264	C	1.799074	0.372704	-0.467928
N265	N	1.340985	-0.103484	-1.002147
N266	N	1.840985	0.396516	-0.502147
C267	C	1.248220	-0.380739	-0.274684
C268	C	1.748220	0.119261	0.225316
N269	N	1.290119	-0.361301	-0.232825
N270	N	1.790119	0.138699	0.267175
H271	H	1.050228	-0.387473	-0.472387
H272	H	1.550228	0.112527	0.027613
H273	H	0.717450	-0.135486	-0.238788
H274	H	1.217450	0.364514	0.261212
H275	H	1.284611	-0.829124	-0.238713
H276	H	1.784611	-0.329124	0.261287
C277	C	1.248292	-0.479254	-0.274706
C278	C	1.748292	0.020746	0.225294
N279	N	1.290215	-0.498675	-0.232852
N280	N	1.790215	0.001325	0.267148
C281	C	0.985456	-0.835867	-0.537416
C282	C	1.485456	-0.335867	-0.037416
N283	N	0.943557	-0.855303	-0.579277
N284	N	1.443557	-0.355303	-0.079277
