data_functionalizedCrystal
_audit_creation_method	'MofGen! by Chris Wilmer'
_symmetry_space_group_name_H-M	'P1'
_symmetry_Int_Tables_number	1
_symmetry_cell_setting	triclinic
loop_
_symmetry_equiv_pos_as_xyz
  x,y,z
_cell_length_a	11.792254
_cell_length_b	7.681208
_cell_length_c	8.559649
_cell_angle_alpha	85.076566
_cell_angle_beta	103.011369
_cell_angle_gamma	84.227994
loop_
_atom_site_label
_atom_site_type_symbol
_atom_site_fract_x
_atom_site_fract_y
_atom_site_fract_z
O1	O	1.498899	-0.146424	-0.203917
O2	O	1.998899	0.353576	0.296083
O3	O	1.166497	-0.146427	-0.226449
O4	O	1.666497	0.353573	0.273551
O5	O	1.361983	-0.146424	0.017163
O6	O	1.861983	0.353576	0.517163
O7	O	1.303413	-0.146428	-0.447529
O8	O	1.803413	0.353572	0.052471
O9	O	1.337888	0.146446	-0.012868
O10	O	1.837888	0.646446	0.487132
O11	O	1.142403	0.146443	-0.256480
O12	O	1.642403	0.646443	0.243520
O13	O	1.474804	0.146446	-0.233948
O14	O	1.974804	0.646446	0.266052
Zn15	Zn	1.304778	0.192943	-0.249982
Zn16	Zn	1.804778	0.692943	0.250018
Zn17	Zn	1.336523	-0.192925	-0.210415
Zn18	Zn	1.836523	0.307075	0.289585
O19	O	1.279319	0.146442	-0.477560
O20	O	1.779319	0.646442	0.022440
C21	C	1.112289	0.000007	-0.240045
C22	C	1.612289	0.500007	0.259955
C23	C	0.986665	0.000006	-0.235796
C24	C	1.486665	0.500006	0.264204
N25	N	1.283121	0.456289	-0.276985
N26	N	1.783121	0.956289	0.223015
C27	C	0.884645	-0.000002	-0.232344
C28	C	1.384645	0.499998	0.267656
C29	C	0.756654	-0.000003	-0.228027
C30	C	1.256654	0.499997	0.271973
C31	C	1.529012	0.000007	-0.220351
C32	C	2.029012	0.500007	0.279649
C33	C	1.654637	-0.000003	-0.224599
C34	C	2.154637	0.499997	0.275401
C35	C	1.354374	0.000008	0.061639
C36	C	1.854374	0.500008	0.561639
C37	C	1.367587	-0.000002	0.238905
C38	C	1.867587	0.499998	0.738905
N39	N	1.358180	0.543730	-0.183412
N40	N	1.858180	1.043730	0.316588
C41	C	1.286927	0.000006	-0.522036
C42	C	1.786927	0.500006	-0.022036
C43	C	1.273716	0.000005	-0.699300
C44	C	1.773716	0.500005	-0.199300
H45	H	1.206528	0.531524	-0.372477
H46	H	1.706528	1.031524	0.127523
H47	H	1.458066	0.000013	0.321620
H48	H	1.958066	0.500013	0.821620
H49	H	1.434771	0.468485	-0.087902
H50	H	1.934771	0.968485	0.412098
H51	H	1.183241	0.000009	0.217992
H52	H	1.683241	0.500009	0.717992
