data_functionalizedCrystal
_audit_creation_method	'MofGen! by Chris Wilmer'
_symmetry_space_group_name_H-M	'P1'
_symmetry_Int_Tables_number	1
_symmetry_cell_setting	triclinic
loop_
_symmetry_equiv_pos_as_xyz
  x,y,z
_cell_length_a	14.971506
_cell_length_b	19.188930
_cell_length_c	14.048226
_cell_angle_alpha	89.988446
_cell_angle_beta	89.993237
_cell_angle_gamma	83.383585
loop_
_atom_site_label
_atom_site_type_symbol
_atom_site_fract_x
_atom_site_fract_y
_atom_site_fract_z
O1	O	1.186455	0.091055	-0.079178
O2	O	1.686455	0.591055	0.420822
O3	O	0.926000	0.101936	-0.079180
O4	O	1.426000	0.601936	0.420820
O5	O	1.063743	-0.005135	-0.079161
O6	O	1.563743	0.494865	0.420839
O7	O	1.048711	0.198127	-0.079198
O8	O	1.548711	0.698127	0.420802
O9	O	1.063727	-0.005142	0.079161
O10	O	1.563727	0.494858	0.579161
O11	O	0.925983	0.101930	0.079141
O12	O	1.425983	0.601930	0.579141
O13	O	1.186438	0.091049	0.079143
O14	O	1.686438	0.591049	0.579143
Zn15	Zn	1.056208	0.096488	0.104279
Zn16	Zn	1.556208	0.596488	0.604279
Zn17	Zn	1.056230	0.096497	-0.104316
Zn18	Zn	1.556230	0.596497	0.395684
O19	O	1.048695	0.198120	0.079123
O20	O	1.548695	0.698120	0.579123
C21	C	0.892670	0.101444	-0.000019
C22	C	1.392670	0.601444	0.499981
C23	C	0.793381	0.099978	-0.000019
C24	C	1.293381	0.599978	0.499981
C25	C	1.063248	-0.031151	0.000003
C26	C	1.563248	0.468849	0.500003
C27	C	1.061787	-0.108660	0.000011
C28	C	1.561787	0.391340	0.500011
C29	C	0.354796	0.157287	-0.000040
C30	C	0.854796	0.657287	0.499960
C31	C	0.448089	0.158659	-0.000044
C32	C	0.948089	0.658659	0.499956
C33	C	0.505641	0.095750	-0.000028
C34	C	1.005641	0.595750	0.499972
C35	C	0.469896	0.031465	-0.000018
C36	C	0.969896	0.531465	0.499982
C37	C	0.376605	0.030094	-0.000020
C38	C	0.876605	0.530094	0.499980
C39	C	0.664344	0.034327	-0.000010
C40	C	1.164344	0.534327	0.499990
C41	C	0.757642	0.035698	-0.000006
C42	C	1.257642	0.535698	0.499994
C43	C	0.735828	0.162892	-0.000034
C44	C	1.235828	0.662892	0.499966
C45	C	0.642537	0.161521	-0.000036
C46	C	1.142537	0.661521	0.499964
C47	C	0.606798	0.097236	-0.000024
C48	C	1.106798	0.597236	0.499976
C49	C	1.142611	-0.153320	0.000016
C50	C	1.642611	0.346680	0.500016
C51	C	1.141238	-0.226148	0.000001
C52	C	1.641238	0.273852	0.500001
C53	C	1.059037	-0.254314	-0.000000
C54	C	1.559037	0.245686	0.500000
C55	C	0.978203	-0.209645	-0.000011
C56	C	1.478203	0.290355	0.499989
C57	C	0.979578	-0.136818	-0.000005
C58	C	1.479578	0.363182	0.499995
N59	N	0.996198	-0.362527	0.053879
N60	N	1.496198	0.137473	0.553879
N61	N	0.994897	-0.431710	0.053875
N62	N	1.494897	0.068290	0.553875
C63	C	1.054888	-0.473736	-0.000020
C64	C	1.554888	0.026264	0.499980
N65	N	1.116243	-0.443967	-0.053900
N66	N	1.616243	0.056033	0.446100
N67	N	1.117547	-0.374778	-0.053892
N68	N	1.617547	0.125222	0.446108
C69	C	1.057537	-0.333281	-0.000007
C70	C	1.557537	0.166719	0.499993
C71	C	1.134229	-0.597365	-0.000033
C72	C	1.634229	-0.097365	0.499967
C73	C	1.132853	-0.670194	-0.000054
C74	C	1.632853	-0.170194	0.499946
C75	C	0.969815	-0.653689	-0.000056
C76	C	1.469815	-0.153689	0.499944
C77	C	0.971194	-0.580861	-0.000044
C78	C	1.471194	-0.080861	0.499956
C79	C	1.053403	-0.552704	-0.000028
C80	C	1.553403	-0.052704	0.499972
C81	C	1.219768	0.091541	-0.000020
C82	C	1.719768	0.591541	0.499980
C83	C	1.319057	0.093007	-0.000026
C84	C	1.819057	0.593007	0.499974
C85	C	1.049190	0.224136	-0.000042
C86	C	1.549190	0.724136	0.499958
C87	C	1.050651	0.301645	-0.000057
C88	C	1.550651	0.801645	0.499943
N89	N	1.056200	0.096482	0.246640
N90	N	1.556200	0.596482	0.746640
N91	N	1.056245	0.096497	-0.246677
N92	N	1.556245	0.596497	0.253323
C93	C	1.117212	0.049091	0.296466
C94	C	1.617212	0.549091	0.796466
C95	C	1.117218	0.049090	0.396124
C96	C	1.617218	0.549090	0.896124
C97	C	1.056216	0.096485	0.445953
C98	C	1.556216	0.596485	0.945953
C99	C	0.995197	0.143879	0.396119
C100	C	1.495197	0.643879	0.896119
C101	C	0.995187	0.143876	0.296464
C102	C	1.495187	0.643876	0.796464
C103	C	0.995223	0.143884	0.603834
C104	C	1.495223	0.643884	1.103834
C105	C	0.995233	0.143889	0.703496
C106	C	1.495233	0.643889	1.203496
C107	C	1.117253	0.049099	0.703494
C108	C	1.617253	0.549099	1.203494
C109	C	1.117244	0.049095	0.603838
C110	C	1.617244	0.549095	1.103838
C111	C	1.056226	0.096490	0.554011
C112	C	1.556226	0.596490	1.054011
H113	H	0.307942	0.208515	-0.000045
H114	H	0.807942	0.708515	0.499955
O115	O	0.884020	-0.532686	-0.000026
O116	O	1.384020	-0.032686	0.499974
H117	H	0.826628	-0.564504	-0.000018
H118	H	1.326628	-0.064504	0.499982
O119	O	0.338050	-0.039236	0.000004
O120	O	0.838050	0.460764	0.500004
H121	H	0.393741	-0.082750	0.000027
H122	H	0.893741	0.417250	0.500027
O123	O	1.183004	-0.002032	0.242723
O124	O	1.683004	0.497968	0.742723
H125	H	1.225423	-0.034991	0.294117
H126	H	1.725423	0.465009	0.794117
H127	H	0.595679	0.212747	-0.000043
H128	H	1.095679	0.712747	0.499957
H129	H	1.198672	-0.706555	-0.000055
H130	H	1.698672	-0.206555	0.499945
O131	O	1.183036	-0.002025	0.449854
O132	O	1.683036	0.497975	0.949854
H133	H	1.145536	-0.036021	0.495270
H134	H	1.645536	0.463979	0.995270
H135	H	0.635250	-0.018020	-0.000005
H136	H	1.135250	0.481980	0.499995
H137	H	0.945504	0.182466	0.255896
H138	H	1.445504	0.682466	0.755896
O139	O	1.183034	-0.002024	0.550088
O140	O	1.683034	0.497976	1.050088
H141	H	1.225458	-0.034986	0.601475
H142	H	1.725458	0.465014	1.101475
H143	H	0.477183	0.211001	-0.000064
H144	H	0.977183	0.711001	0.499936
O145	O	1.183073	-0.002014	0.757235
O146	O	1.683073	0.497986	1.257235
H147	H	1.225501	-0.034962	0.705843
H148	H	1.725501	0.465038	1.205843
O149	O	0.881155	-0.684062	-0.000056
O150	O	1.381155	-0.184062	0.499944
H151	H	0.825183	-0.640768	-0.000060
H152	H	1.325183	-0.140768	0.499940
H153	H	1.209552	-0.130399	0.000026
H154	H	1.709552	0.369601	0.500026
O155	O	1.228414	-0.274330	0.000019
O156	O	1.728414	0.225670	0.500019
H157	H	1.285809	-0.242515	0.000039
H158	H	1.785809	0.257485	0.500039
O159	O	0.889544	-0.240023	-0.000011
O160	O	1.389544	0.259977	0.499989
H161	H	0.833570	-0.196730	-0.000020
H162	H	1.333570	0.303270	0.499980
O163	O	0.929422	0.194992	0.757247
O164	O	1.429422	0.694992	1.257247
H165	H	0.886977	0.227937	0.705859
H166	H	1.386977	0.727937	1.205859
O167	O	0.774366	0.232231	-0.000057
O168	O	1.274366	0.732231	0.499943
H169	H	0.848905	0.222618	-0.000066
H170	H	1.348905	0.722618	0.499934
O171	O	0.929417	0.195005	0.550086
O172	O	1.429417	0.695005	1.050086
H173	H	0.887007	0.227969	0.601476
H174	H	1.387007	0.727969	1.101476
H175	H	0.804499	-0.015528	-0.000001
H176	H	1.304499	0.484472	0.499999
H177	H	0.913759	-0.100456	-0.000009
H178	H	1.413759	0.399544	0.499991
H179	H	0.945523	0.182467	0.436696
H180	H	1.445523	0.682467	0.936696
H181	H	1.201169	-0.574438	-0.000024
H182	H	1.701169	-0.074438	0.499976
O183	O	0.531969	-0.036387	0.000010
O184	O	1.031969	0.463613	0.500010
H185	H	0.575014	-0.038805	-0.064510
H186	H	1.075014	0.461195	0.435490
