data_functionalizedCrystal
_audit_creation_method	'MofGen! by Chris Wilmer'
_symmetry_space_group_name_H-M	'P1'
_symmetry_Int_Tables_number	1
_symmetry_cell_setting	triclinic
loop_
_symmetry_equiv_pos_as_xyz
  x,y,z
_cell_length_a	16.959455
_cell_length_b	16.959453
_cell_length_c	16.959447
_cell_angle_alpha	90.031064
_cell_angle_beta	90.014322
_cell_angle_gamma	90.016935
loop_
_atom_site_label
_atom_site_type_symbol
_atom_site_fract_x
_atom_site_fract_y
_atom_site_fract_z
Zn1	Zn	1.208384	-0.314730	0.446905
Zn2	Zn	1.708384	0.185270	0.946905
Zn3	Zn	1.208307	-0.446923	0.314724
Zn4	Zn	1.708307	0.053077	0.814724
Zn5	Zn	1.076213	-0.314755	0.314742
Zn6	Zn	1.576213	0.185245	0.814742
Zn7	Zn	1.076178	-0.446864	0.446863
Zn8	Zn	1.576178	0.053136	0.946863
O9	O	1.142270	-0.380818	0.380808
O10	O	1.642270	0.119182	0.880808
O11	O	1.318985	-0.332280	0.429381
O12	O	1.818985	0.167720	0.929381
O13	O	1.190767	-0.429426	0.204116
O14	O	1.690767	0.070574	0.704116
O15	O	1.093793	-0.204141	0.332299
O16	O	1.593793	0.295859	0.832299
O17	O	1.318928	-0.429402	0.332268
O18	O	1.818928	0.070598	0.832268
O19	O	1.190898	-0.204123	0.429398
O20	O	1.690898	0.295877	0.929398
O21	O	1.093718	-0.332323	0.204129
O22	O	1.593718	0.167677	0.704129
O23	O	0.965597	-0.332265	0.332258
O24	O	1.465597	0.167735	0.832258
O25	O	1.093733	-0.429301	0.557479
O26	O	1.593733	0.070699	1.057479
O27	O	0.965571	-0.429325	0.429327
O28	O	1.465571	0.070675	0.929327
O29	O	1.190864	-0.332223	0.557510
O30	O	1.690864	0.167777	1.057510
O31	O	1.190733	-0.557526	0.332228
O32	O	1.690733	-0.057526	0.832228
O33	O	1.093658	-0.557482	0.429310
O34	O	1.593658	-0.057482	0.929310
C35	C	0.936904	-0.380792	0.380790
C36	C	1.436904	0.119208	0.880790
C37	C	0.849048	-0.380800	0.380801
C38	C	1.349048	0.119200	0.880801
C39	C	1.142204	-0.586184	0.380780
C40	C	1.642204	-0.086184	0.880780
C41	C	1.142249	-0.674041	0.380794
C42	C	1.642249	-0.174041	0.880794
C43	C	0.477561	-0.330238	0.330370
C44	C	0.977561	0.169762	0.830370
C45	C	0.477583	-0.431463	0.431292
C46	C	0.977583	0.068537	0.931292
C47	C	0.560129	-0.431452	0.431287
C48	C	1.060129	0.068548	0.931287
C49	C	0.601395	-0.380834	0.380822
C50	C	1.101395	0.119166	0.880822
C51	C	0.560114	-0.330226	0.330362
C52	C	1.060114	0.169774	0.830362
C53	C	0.601415	-0.482064	0.481740
C54	C	1.101415	0.017936	0.981740
C55	C	0.683966	-0.482055	0.481737
C56	C	1.183966	0.017945	0.981737
C57	C	0.725233	-0.431432	0.431275
C58	C	1.225233	0.068568	0.931275
C59	C	0.683948	-0.380822	0.380814
C60	C	1.183948	0.119178	0.880814
C61	C	0.725214	-0.330204	0.330350
C62	C	1.225214	0.169796	0.830350
C63	C	0.683930	-0.279589	0.279892
C64	C	1.183930	0.220411	0.779892
C65	C	0.601382	-0.279603	0.279901
C66	C	1.101382	0.220397	0.779901
C67	C	0.807782	-0.431418	0.431266
C68	C	1.307782	0.068582	0.931266
C69	C	0.807767	-0.330193	0.330341
C70	C	1.307767	0.169807	0.830341
C71	C	1.192898	-1.045448	0.431463
C72	C	1.692898	-0.545448	0.931463
C73	C	1.091863	-1.045584	0.330271
C74	C	1.591863	-0.545584	0.830271
C75	C	1.091834	-0.963039	0.330253
C76	C	1.591834	-0.463039	0.830253
C77	C	1.142337	-0.921694	0.380842
C78	C	1.642337	-0.421694	0.880842
C79	C	1.192869	-0.962895	0.431449
C80	C	1.692869	-0.462895	0.931449
C81	C	1.041297	-0.921831	0.279652
C82	C	1.541297	-0.421831	0.779652
C83	C	1.041265	-0.839280	0.279633
C84	C	1.541265	-0.339280	0.779633
C85	C	1.091773	-0.797934	0.330218
C86	C	1.591773	-0.297934	0.830218
C87	C	1.142307	-0.839140	0.380827
C88	C	1.642307	-0.339140	0.880827
C89	C	1.192810	-0.797796	0.431415
C90	C	1.692810	-0.297796	0.931415
C91	C	1.243349	-0.839000	0.482021
C92	C	1.743349	-0.339000	0.982021
C93	C	1.243376	-0.921549	0.482034
C94	C	1.743376	-0.421549	0.982034
C95	C	1.091746	-0.715386	0.330205
C96	C	1.591746	-0.215386	0.830205
C97	C	1.192781	-0.715242	0.431401
C98	C	1.692781	-0.215242	0.931401
C99	C	1.348439	-0.380845	0.380827
C100	C	1.848439	0.119155	0.880827
C101	C	1.436295	-0.380856	0.380835
C102	C	1.936295	0.119144	0.880835
C103	C	1.142303	-0.380753	0.586977
C104	C	1.642303	0.119247	1.086977
C105	C	1.142317	-0.380725	0.674833
C106	C	1.642317	0.119275	1.174833
C107	C	1.142358	-0.174650	0.380855
C108	C	1.642358	0.325350	0.880855
C109	C	1.142395	-0.086793	0.380875
C110	C	1.642395	0.413207	0.880875
C111	C	1.142283	-0.380826	0.175442
C112	C	1.642283	0.119174	0.675442
C113	C	1.142422	-0.380631	0.087586
C114	C	1.642422	0.119369	0.587586
C115	C	1.091840	-0.431185	1.046296
C116	C	1.591840	0.068815	1.546296
C117	C	1.192984	-0.330097	1.046323
C118	C	1.692984	0.169903	1.546323
C119	C	1.192963	-0.330114	0.963777
C120	C	1.692963	0.169886	1.463777
C121	C	1.142380	-0.380668	0.922487
C122	C	1.642380	0.119332	1.422487
C123	C	1.091819	-0.431205	0.963742
C124	C	1.591819	0.068795	1.463742
C125	C	1.243529	-0.279584	0.922515
C126	C	1.743529	0.220416	1.422515
C127	C	1.243511	-0.279599	0.839964
C128	C	1.743511	0.220401	1.339964
C129	C	1.192923	-0.330149	0.798672
C130	C	1.692923	0.169851	1.298672
C131	C	1.142359	-0.380688	0.839933
C132	C	1.642359	0.119312	1.339933
C133	C	1.091777	-0.431242	0.798643
C134	C	1.591777	0.068758	1.298643
C135	C	1.041208	-0.481777	0.839902
C136	C	1.541208	0.018223	1.339902
C137	C	1.041232	-0.481756	0.922450
C138	C	1.541232	0.018244	1.422450
C139	C	1.192900	-0.330171	0.716124
C140	C	1.692900	0.169829	1.216124
C141	C	1.091756	-0.431262	0.716089
C142	C	1.591756	0.068738	1.216089
H143	H	0.841360	-0.288968	0.289251
H144	H	1.341360	0.211032	0.789251
C145	C	0.985569	-0.537385	0.794472
C146	C	1.485569	-0.037385	1.294472
N147	N	0.943662	-0.579266	0.760251
N148	N	1.443662	-0.079266	1.260251
H149	H	1.234048	-1.079001	0.472663
H150	H	1.734048	-0.579001	0.972663
H151	H	1.000179	-0.955500	0.238468
H152	H	1.500179	-0.455500	0.738468
C153	C	1.248523	-0.274586	0.670742
C154	C	1.748523	0.225414	1.170742
N155	N	1.290419	-0.232716	0.636562
N156	N	1.790419	0.267284	1.136562
C157	C	1.036375	-1.091066	0.274565
C158	C	1.536375	-0.591066	0.774565
N159	N	0.994603	-1.125327	0.232581
N160	N	1.494603	-0.625327	0.732581
H161	H	1.284715	-0.238430	0.956140
H162	H	1.784715	0.261570	1.456140
H163	H	1.000064	-0.522901	0.956051
H164	H	1.500064	-0.022901	1.456051
H165	H	1.234170	-0.288943	1.079946
H166	H	1.734170	0.211057	1.579946
C167	C	0.729333	-0.223908	0.224385
C168	C	1.229333	0.276092	0.724385
N169	N	0.763534	-0.181968	0.182581
N170	N	1.263534	0.318032	0.682581
C171	C	1.248342	-0.669769	0.487051
C172	C	1.748342	-0.169769	0.987051
N173	N	1.290191	-0.635520	0.528966
N174	N	1.790191	-0.135520	1.028966
C175	C	0.985665	-0.793963	0.223973
C176	C	1.485665	-0.293963	0.723973
N177	N	0.943784	-0.759829	0.182052
N178	N	1.443784	-0.259829	0.682052
H179	H	0.567761	-0.238397	0.238820
H180	H	1.067761	0.261603	0.738820
C181	C	0.432149	-0.274564	0.274870
C182	C	0.932149	0.225436	0.774870
N183	N	0.397944	-0.232630	0.233066
N184	N	0.897944	0.267370	0.733066
C185	C	1.036211	-0.486766	1.091681
C186	C	1.536211	0.013234	1.591681
N187	N	0.994310	-0.528628	1.125866
N188	N	1.494310	-0.028628	1.625866
H189	H	1.284522	-0.955105	0.523234
H190	H	1.784522	-0.455105	1.023234
H191	H	0.443979	-0.472679	0.472373
H192	H	0.943979	0.027321	0.972373
H193	H	1.050594	-0.681841	0.289007
H194	H	1.550594	-0.181841	0.789007
C195	C	1.036108	-0.486875	0.670676
C196	C	1.536108	0.013125	1.170676
N197	N	0.994194	-0.528763	0.636472
N198	N	1.494194	-0.028763	1.136472
C199	C	1.299128	-0.224002	0.794586
C200	C	1.799128	0.275998	1.294586
N201	N	1.341017	-0.182121	0.760407
N202	N	1.841017	0.317879	1.260407
H203	H	0.567810	-0.523280	0.522820
H204	H	1.067810	-0.023280	1.022820
H205	H	0.717572	-0.523268	0.522823
H206	H	1.217572	-0.023268	1.022823
C207	C	1.298900	-0.793510	0.537667
C208	C	1.798900	-0.293510	1.037667
N209	N	1.340741	-0.759244	0.579577
N210	N	1.840741	-0.259244	1.079577
C211	C	0.853190	-0.487091	0.486766
C212	C	1.353190	0.012909	0.986766
N213	N	0.887390	-0.529024	0.528574
N214	N	1.387390	-0.029024	1.028574
