data_functionalizedCrystal
_audit_creation_method	'MofGen! by Chris Wilmer'
_symmetry_space_group_name_H-M	'P1'
_symmetry_Int_Tables_number	1
_symmetry_cell_setting	triclinic
loop_
_symmetry_equiv_pos_as_xyz
  x,y,z
_cell_length_a	13.339070
_cell_length_b	16.992695
_cell_length_c	16.053802
_cell_angle_alpha	87.258926
_cell_angle_beta	93.278881
_cell_angle_gamma	103.148759
loop_
_atom_site_label
_atom_site_type_symbol
_atom_site_fract_x
_atom_site_fract_y
_atom_site_fract_z
O1	O	-1.378705	-0.397711	-0.069464
O2	O	-1.079932	-0.345192	-0.069459
O3	O	-1.228121	-0.257049	-0.069455
O4	O	-1.230517	-0.485855	-0.069468
O5	O	-1.219962	-0.261873	0.069404
O6	O	-1.071773	-0.350016	0.069400
O7	O	-1.370546	-0.402535	0.069395
Zn8	Zn	-1.219864	-0.377042	0.091444
Zn9	Zn	-1.230614	-0.370686	-0.091508
O10	O	-1.222358	-0.490679	0.069391
C11	C	-1.037446	-0.338733	-0.000028
C12	C	-0.923006	-0.312289	-0.000026
C13	C	-1.220960	-0.229578	-0.000025
C14	C	-1.211765	-0.140533	-0.000025
C15	C	-1.413032	-0.408995	-0.000037
C16	C	-1.527473	-0.435438	-0.000045
C17	C	-0.574838	-0.517902	-0.000051
C18	C	-0.682359	-0.542749	-0.000056
C19	C	-0.742526	-0.485136	-0.000048
C20	C	-0.695161	-0.402672	-0.000036
C21	C	-0.587629	-0.377821	-0.000038
C22	C	-0.755318	-0.345056	-0.000035
C23	C	-0.707953	-0.262591	-0.000023
C24	C	-0.600431	-0.237745	-0.000024
C25	C	-0.540264	-0.295358	-0.000032
C26	C	-0.862850	-0.369906	-0.000033
C27	C	-0.875641	-0.229826	-0.000020
C28	C	-0.768119	-0.204978	-0.000015
C29	C	-1.229519	-0.518150	-0.000040
C30	C	-1.238714	-0.607194	-0.000046
N31	N	-1.212535	-0.381380	0.216304
C32	C	-1.300479	-0.109593	-0.000026
C33	C	-1.291834	-0.025925	-0.000034
C34	C	-1.194474	0.026800	-0.000035
C35	C	-1.105754	-0.004145	-0.000037
C36	C	-1.114400	-0.087811	-0.000035
C37	C	-1.158640	0.278195	-0.000046
C38	C	-1.150000	0.361866	-0.000045
C39	C	-1.336081	0.340079	-0.000044
C40	C	-1.344718	0.256412	-0.000037
C41	C	-1.255998	0.225475	-0.000043
N42	N	-1.185635	0.112322	-0.000040
N43	N	-1.264838	0.139954	-0.000044
N44	N	-1.237951	-0.366343	-0.216368
C45	C	-1.275616	-0.343899	0.260000
C46	C	-1.270499	-0.346944	0.347406
C47	C	-1.202307	-0.387475	0.391116
C48	C	-1.139220	-0.424957	0.347414
C49	C	-1.144331	-0.421907	0.260009
C50	C	-1.179975	-0.400775	0.652525
C51	C	-1.174870	-0.403824	0.739936
C52	C	-1.306149	-0.325809	0.739922
C53	C	-1.311260	-0.322767	0.652516
C54	C	-1.248168	-0.360245	0.608822
N55	N	-1.197078	-0.390590	0.480460
N56	N	-1.253393	-0.357125	0.519480
H57	H	-0.901404	-0.437050	-0.000040
H58	H	-1.092963	-0.452427	0.224433
O59	O	-1.011102	0.046959	-0.000078
C60	C	-0.827446	0.059729	-0.000031
C61	C	-0.934579	0.001767	-0.000006
H62	H	-0.765548	0.023214	0.000044
H63	H	-0.822096	0.101445	-0.058157
H64	H	-0.815383	0.097445	0.058067
H65	H	-0.946713	-0.036002	-0.058065
H66	H	-0.939878	-0.039895	0.058159
O67	O	-1.378113	0.003994	0.000008
C68	C	-1.563593	-0.026443	-0.000028
C69	C	-1.465962	-0.060434	-0.000056
H70	H	-1.634644	-0.078516	-0.000097
H71	H	-1.560848	0.010139	0.058097
H72	H	-1.567562	0.014223	-0.058128
H73	H	-1.461930	-0.101134	0.058004
H74	H	-1.468747	-0.096970	-0.058219
H75	H	-1.423999	0.213488	-0.000036
H76	H	-1.119337	-0.436832	0.775520
O77	O	-1.118656	-0.437258	0.610217
C78	C	-0.987867	-0.514923	0.619463
C79	C	-1.057271	-0.473653	0.667484
H80	H	-0.938204	-0.544344	0.665743
H81	H	-1.037884	-0.563103	0.578547
H82	H	-0.936077	-0.467816	0.578539
H83	H	-1.109072	-0.520700	0.708454
H84	H	-1.007193	-0.425458	0.708348
H85	H	-0.830075	-0.505373	-0.000054
O86	O	-0.728199	-0.622883	-0.000027
C87	C	-0.704161	-0.759198	-0.000089
C88	C	-0.652113	-0.668469	-0.000105
H89	H	-0.642670	-0.796080	-0.000169
H90	H	-0.750732	-0.776400	0.058037
H91	H	-0.757630	-0.772278	-0.058188
H92	H	-0.598595	-0.655323	0.057955
H93	H	-0.605606	-0.651313	-0.058268
O94	O	-1.055343	0.412974	-0.000092
C95	C	-0.871686	0.425758	-0.000063
C96	C	-0.978813	0.367789	-0.000028
H97	H	-0.809782	0.389248	0.000007
H98	H	-0.866349	0.467473	-0.058190
H99	H	-0.859619	0.463475	0.058035
H100	H	-0.990951	0.330019	-0.058087
H101	H	-0.984100	0.326128	0.058137
H102	H	-1.321864	-0.316423	0.382983
O103	O	-1.377114	-0.282970	0.610155
C104	C	-1.395159	-0.174602	0.512130
C105	C	-1.320625	-0.219842	0.559913
H106	H	-1.349516	-0.123543	0.471511
H107	H	-1.452071	-0.218391	0.470950
H108	H	-1.439071	-0.148345	0.558608
H109	H	-1.276643	-0.246102	0.513495
H110	H	-1.263779	-0.176020	0.601106
O111	O	-1.072497	0.248118	-0.000194
C112	C	-0.978503	0.168768	-0.072109
C113	C	-1.076103	0.202797	-0.072055
H114	H	-0.981397	0.132105	-0.130193
H115	H	-0.907406	0.220800	-0.072160
H116	H	-0.974485	0.128160	-0.013971
H117	H	-1.080221	0.243394	-0.130182
H118	H	-1.147154	0.150726	-0.071960
O119	O	-1.367523	-0.289380	0.782238
C120	C	-1.498205	-0.211615	0.772998
C121	C	-1.428780	-0.252862	0.724974
H122	H	-1.547733	-0.182065	0.726721
H123	H	-1.550112	-0.258680	0.813884
H124	H	-1.448105	-0.163512	0.813954
H125	H	-1.478799	-0.300959	0.683973
H126	H	-1.376866	-0.205748	0.684141
O127	O	-1.341884	-0.304463	0.217674
C128	C	-1.471593	-0.227441	0.226895
C129	C	-1.396575	-0.272063	0.274930
H130	H	-1.515846	-0.201249	0.273166
H131	H	-1.426356	-0.176407	0.186014
H132	H	-1.528169	-0.271690	0.185935
H133	H	-1.339982	-0.227877	0.315936
H134	H	-1.441880	-0.323109	0.315759
H135	H	-1.042160	-0.113000	-0.000034
O136	O	-1.072920	-0.464213	0.389965
C137	C	-0.927856	-0.453977	0.488640
C138	C	-1.002885	-0.409423	0.440520
H139	H	-0.871200	-0.409696	0.529512
H140	H	-0.973083	-0.504948	0.529599
H141	H	-0.883694	-0.480267	0.442379
H142	H	-1.047066	-0.383082	0.486720
H143	H	-0.957600	-0.358494	0.399548
H144	H	-0.452710	-0.275131	-0.000028
H145	H	-0.525841	-0.564801	-0.000065
H146	H	-0.561870	-0.170596	-0.000024
H147	H	-0.729540	-0.137833	-0.000012
H148	H	-0.924629	-0.182912	-0.000017
H149	H	-1.408311	0.365279	-0.000041
H150	H	-1.379759	-0.152518	-0.000020
