data_functionalizedCrystal
_audit_creation_method	'MofGen! by Chris Wilmer'
_symmetry_space_group_name_H-M	'P1'
_symmetry_Int_Tables_number	1
_symmetry_cell_setting	triclinic
loop_
_symmetry_equiv_pos_as_xyz
  x,y,z
_cell_length_a	15.297327
_cell_length_b	13.897449
_cell_length_c	15.298259
_cell_angle_alpha	80.342199
_cell_angle_beta	88.343348
_cell_angle_gamma	80.293069
loop_
_atom_site_label
_atom_site_type_symbol
_atom_site_fract_x
_atom_site_fract_y
_atom_site_fract_z
Zn1	Zn	-0.262970	-1.323191	-0.555612
Zn2	Zn	-0.434819	-1.313676	-0.434472
Zn3	Zn	-0.288359	-1.184279	-0.409154
Zn4	Zn	-0.409413	-1.130064	-0.580889
O5	O	-0.348890	-1.237802	-0.495032
O6	O	-0.285773	-1.456905	-0.539560
O7	O	-0.436648	-1.315218	-0.308545
O8	O	-0.162410	-1.229377	-0.407407
O9	O	-0.412030	-1.449915	-0.450559
O10	O	-0.143757	-1.331435	-0.515010
O11	O	-0.329044	-1.220151	-0.289943
O12	O	-0.304410	-1.042110	-0.431918
O13	O	-0.368730	-1.136975	-0.700105
O14	O	-0.393348	-1.002279	-0.558091
O15	O	-0.261139	-1.278865	-0.681534
O16	O	-0.554029	-1.262648	-0.475069
O17	O	-0.535364	-1.127749	-0.582641
C18	C	-0.576477	-1.188306	-0.534364
C19	C	-0.673835	-1.167216	-0.551220
C20	C	-0.348878	-0.987196	-0.495000
C21	C	-0.348890	-0.879978	-0.495011
C22	C	-0.986991	-1.388893	-0.374858
C23	C	-0.895519	-1.408709	-0.359017
C24	C	-0.840094	-1.348338	-0.407067
C25	C	-0.876149	-1.268146	-0.470960
C26	C	-0.967630	-1.248324	-0.486798
C27	C	-0.820733	-1.207768	-0.519006
C28	C	-0.856788	-1.127577	-0.582900
C29	C	-0.948261	-1.107759	-0.598736
C30	C	-1.003686	-1.168130	-0.550686
C31	C	-0.729252	-1.227591	-0.503168
C32	C	-0.709891	-1.087022	-0.615108
C33	C	-0.801363	-1.067206	-0.630950
C34	C	-0.348886	-0.683681	-0.495027
C35	C	-0.348886	-0.792915	-0.495016
C36	C	-0.120411	-1.287515	-0.455565
C37	C	-0.023047	-1.308699	-0.438746
C38	C	-0.309268	-1.202934	-0.723489
C39	C	-0.292384	-1.188075	-0.820844
C40	C	-0.348899	-0.489389	-0.495055
C41	C	-0.348892	-0.596607	-0.495040
C42	C	-0.468891	-1.344179	-1.134004
C43	C	-0.484761	-1.358133	-1.042535
C44	C	-0.436668	-1.315620	-0.987108
C45	C	-0.372703	-1.259150	-1.023158
C46	C	-0.356837	-1.245187	-1.114637
C47	C	-0.324613	-1.216629	-0.967741
C48	C	-0.260648	-1.160158	-1.003791
C49	C	-0.244785	-1.146199	-1.095261
C50	C	-0.292878	-1.188712	-1.150688
C51	C	-0.340479	-1.230591	-0.876262
C52	C	-0.228425	-1.131600	-0.856895
C53	C	-0.212555	-1.117646	-0.948364
C54	C	-0.388295	-1.272604	-0.267452
C55	C	-0.404932	-1.287703	-0.170055
H56	H	-0.699904	-1.292883	-0.451145
Br57	Br	-0.634680	-1.005076	-0.680314
H58	H	-0.536849	-1.404100	-1.013191
H59	H	-0.830732	-1.001913	-0.682972
Br60	Br	-0.846591	-1.517542	-0.272316
H61	H	-0.508048	-1.378778	-1.179141
Br62	Br	-0.271338	-1.169782	-1.274830
H63	H	-1.032126	-1.438034	-0.335738
H64	H	-0.392555	-1.276577	-0.846918
H65	H	-0.192709	-1.100207	-1.124611
Br66	Br	-0.715906	-1.375483	-0.385832
Br67	Br	-1.127899	-1.140867	-0.571790
H68	H	-0.977615	-1.042452	-0.650752
Br69	Br	-0.125748	-1.041011	-0.997300
Br70	Br	-0.458203	-1.334562	-0.862969
Br71	Br	-0.163166	-1.073880	-0.781683
