data_functionalizedCrystal
_audit_creation_method	'MofGen! by Chris Wilmer'
_symmetry_space_group_name_H-M	'P1'
_symmetry_Int_Tables_number	1
_symmetry_cell_setting	triclinic
loop_
_symmetry_equiv_pos_as_xyz
  x,y,z
_cell_length_a	14.044220
_cell_length_b	23.532357
_cell_length_c	12.503572
_cell_angle_alpha	93.494896
_cell_angle_beta	86.164750
_cell_angle_gamma	88.008585
loop_
_atom_site_label
_atom_site_type_symbol
_atom_site_fract_x
_atom_site_fract_y
_atom_site_fract_z
O1	O	1.261863	0.134223	-0.089231
O2	O	1.511863	0.384223	0.160769
O3	O	1.761863	0.634223	0.410769
O4	O	2.011863	0.884223	0.660769
O5	O	0.985944	0.129270	-0.089257
O6	O	1.235944	0.379270	0.160743
O7	O	1.485944	0.629270	0.410743
O8	O	1.735944	0.879270	0.660743
O9	O	1.132247	0.049266	-0.089221
O10	O	1.382247	0.299266	0.160779
O11	O	1.632247	0.549266	0.410779
O12	O	1.882247	0.799266	0.660779
O13	O	1.115560	0.214227	-0.089267
O14	O	1.365560	0.464227	0.160733
O15	O	1.615560	0.714227	0.410733
O16	O	1.865560	0.964227	0.660733
O17	O	1.121244	0.055293	0.089418
O18	O	1.371244	0.305293	0.339418
O19	O	1.621244	0.555293	0.589418
O20	O	1.871244	0.805293	0.839418
O21	O	0.974941	0.135297	0.089382
O22	O	1.224941	0.385297	0.339382
O23	O	1.474941	0.635297	0.589382
O24	O	1.724941	0.885297	0.839382
O25	O	1.250860	0.140250	0.089409
O26	O	1.500860	0.390250	0.339409
O27	O	1.750860	0.640250	0.589409
O28	O	2.000860	0.890250	0.839409
Cu29	Cu	1.111896	0.138324	0.105707
Cu30	Cu	1.361896	0.388324	0.355707
Cu31	Cu	1.611896	0.638324	0.605707
Cu32	Cu	1.861896	0.888324	0.855707
Cu33	Cu	1.124908	0.131196	-0.105555
Cu34	Cu	1.374908	0.381196	0.144445
Cu35	Cu	1.624908	0.631196	0.394445
Cu36	Cu	1.874908	0.881196	0.644445
O37	O	1.104557	0.220254	0.089373
O38	O	1.354557	0.470254	0.339373
O39	O	1.604557	0.720254	0.589373
O40	O	1.854557	0.970254	0.839373
C41	C	0.945149	0.130116	0.000060
C42	C	1.195149	0.380116	0.250060
C43	C	1.445149	0.630116	0.500060
C44	C	1.695149	0.880116	0.750060
C45	C	0.839987	0.123649	0.000051
C46	C	1.089987	0.373649	0.250051
C47	C	1.339987	0.623649	0.500051
C48	C	1.589987	0.873649	0.750051
C49	C	0.647439	0.111829	0.000075
C50	C	0.897439	0.361829	0.250075
C51	C	1.147439	0.611829	0.500075
C52	C	1.397439	0.861829	0.750075
C53	C	0.589361	0.157688	0.000067
C54	C	0.839361	0.407688	0.250067
C55	C	1.089361	0.657688	0.500067
C56	C	1.339361	0.907688	0.750067
C57	C	0.482220	0.151111	0.000081
C58	C	0.732220	0.401111	0.250081
C59	C	0.982220	0.651111	0.500081
C60	C	1.232220	0.901111	0.750081
C61	C	0.754589	0.118405	0.000062
C62	C	1.004589	0.368405	0.250062
C63	C	1.254589	0.618405	0.500062
C64	C	1.504589	0.868405	0.750062
C65	C	1.126328	0.031040	0.000102
C66	C	1.376328	0.281040	0.250102
C67	C	1.626328	0.531040	0.500102
C68	C	1.876328	0.781040	0.750102
C69	C	1.125072	-0.032246	0.000112
C70	C	1.375072	0.217754	0.250112
C71	C	1.625072	0.467754	0.500112
C72	C	1.875072	0.717754	0.750112
C73	C	1.123194	-0.427972	-0.097323
C74	C	1.373194	-0.177972	0.152677
C75	C	1.623194	0.072028	0.402677
C76	C	1.873194	0.322028	0.652677
C77	C	1.122001	-0.487436	-0.097329
C78	C	1.372001	-0.237436	0.152671
C79	C	1.622001	0.012564	0.402671
C80	C	1.872001	0.262564	0.652671
O81	O	1.126453	-0.520982	-0.180144
O82	O	1.376453	-0.270982	0.069856
O83	O	1.626453	-0.020982	0.319856
O84	O	1.876453	0.229018	0.569856
N85	N	1.115412	-0.513894	0.000046
N86	N	1.365412	-0.263894	0.250046
N87	N	1.615412	-0.013894	0.500046
N88	N	1.865412	0.236106	0.750046
C89	C	1.110005	-0.480884	0.097433
C90	C	1.360005	-0.230884	0.347433
C91	C	1.610005	0.019116	0.597433
C92	C	1.860005	0.269116	0.847433
O93	O	1.104290	-0.508848	0.180257
O94	O	1.354290	-0.258848	0.430257
O95	O	1.604290	-0.008848	0.680257
O96	O	1.854290	0.241152	0.930257
C97	C	1.111191	-0.421420	0.097438
C98	C	1.361191	-0.171420	0.347438
C99	C	1.611191	0.078580	0.597438
C100	C	1.861191	0.328580	0.847438
C101	C	1.117791	-0.394966	0.000057
C102	C	1.367791	-0.144966	0.250057
C103	C	1.617791	0.105034	0.500057
C104	C	1.867791	0.355034	0.750057
C105	C	1.129792	-0.401518	-0.194696
C106	C	1.379792	-0.151518	0.055304
C107	C	1.629792	0.098482	0.305304
C108	C	1.879792	0.348482	0.555304
C109	C	1.130986	-0.342057	-0.194690
C110	C	1.380986	-0.092057	0.055310
C111	C	1.630986	0.157943	0.305310
C112	C	1.880986	0.407943	0.555310
C113	C	1.125583	-0.309052	-0.097310
C114	C	1.375583	-0.059052	0.152690
C115	C	1.625583	0.190948	0.402690
C116	C	1.875583	0.440948	0.652690
C117	C	1.118985	-0.335506	0.000064
C118	C	1.368985	-0.085506	0.250064
C119	C	1.618985	0.164494	0.500064
C120	C	1.868985	0.414494	0.750064
C121	C	1.105778	-0.388411	0.194825
C122	C	1.355778	-0.138411	0.444825
C123	C	1.605778	0.111589	0.694825
C124	C	1.855778	0.361589	0.944825
C125	C	1.106964	-0.328944	0.194821
C126	C	1.356964	-0.078944	0.444821
C127	C	1.606964	0.171056	0.694821
C128	C	1.856964	0.421056	0.944821
C129	C	1.113563	-0.302490	0.097440
C130	C	1.363563	-0.052490	0.347440
C131	C	1.613563	0.197510	0.597440
C132	C	1.863563	0.447510	0.847440
C133	C	1.114776	-0.243040	0.097450
C134	C	1.364776	0.006960	0.347450
C135	C	1.614776	0.256960	0.597450
C136	C	1.864776	0.506960	0.847450
N137	N	1.121366	-0.216582	0.000075
N138	N	1.371366	0.033418	0.250075
N139	N	1.621366	0.283418	0.500075
N140	N	1.871366	0.533418	0.750075
C141	C	1.126769	-0.249588	-0.097305
C142	C	1.376769	0.000412	0.152695
C143	C	1.626769	0.250412	0.402695
C144	C	1.876769	0.500412	0.652695
C145	C	1.107513	-0.605761	0.097415
C146	C	1.357513	-0.355761	0.347415
C147	C	1.607513	-0.105761	0.597415
C148	C	1.857513	0.144239	0.847415
C149	C	1.106334	-0.665223	0.097411
C150	C	1.356334	-0.415223	0.347411
C151	C	1.606334	-0.165223	0.597411
C152	C	1.856334	0.084777	0.847411
C153	C	1.118328	-0.671772	-0.097352
C154	C	1.368328	-0.421772	0.152648
C155	C	1.618328	-0.171772	0.402648
C156	C	1.868328	0.078228	0.652648
C157	C	1.119514	-0.612309	-0.097347
C158	C	1.369514	-0.362309	0.152653
C159	C	1.619514	-0.112309	0.402653
C160	C	1.869514	0.137691	0.652653
C161	C	1.114103	-0.579303	0.000040
C162	C	1.364103	-0.329303	0.250040
C163	C	1.614103	-0.079303	0.500040
C164	C	1.864103	0.170697	0.750040
C165	C	1.129278	-0.124717	-0.097283
C166	C	1.379278	0.125283	0.152717
C167	C	1.629278	0.375283	0.402717
C168	C	1.879278	0.625283	0.652717
C169	C	1.130476	-0.065252	-0.097268
C170	C	1.380476	0.184748	0.152732
C171	C	1.630476	0.434748	0.402732
C172	C	1.880476	0.684748	0.652732
C173	C	1.118476	-0.058708	0.097494
C174	C	1.368476	0.191292	0.347494
C175	C	1.618476	0.441292	0.597494
C176	C	1.868476	0.691292	0.847494
C177	C	1.117283	-0.118169	0.097479
C178	C	1.367283	0.131831	0.347479
C179	C	1.617283	0.381831	0.597479
C180	C	1.867283	0.631831	0.847479
C181	C	1.122681	-0.151172	0.000082
C182	C	1.372681	0.098828	0.250082
C183	C	1.622681	0.348828	0.500082
C184	C	1.872681	0.598828	0.750082
O185	O	1.110324	-0.209458	0.180223
O186	O	1.360324	0.040542	0.430223
O187	O	1.610324	0.290542	0.680223
O188	O	1.860324	0.540542	0.930223
O189	O	1.132471	-0.221616	-0.180115
O190	O	1.382471	0.028384	0.069885
O191	O	1.632471	0.278384	0.319885
O192	O	1.882471	0.528384	0.569885
C193	C	1.291655	0.139404	0.000090
C194	C	1.541655	0.389404	0.250090
C195	C	1.791655	0.639404	0.500090
C196	C	2.041655	0.889404	0.750090
C197	C	1.396818	0.145870	0.000092
C198	C	1.646818	0.395870	0.250092
C199	C	1.896818	0.645870	0.500092
C200	C	2.146818	0.895870	0.750092
C201	C	1.110476	0.238480	0.000047
C202	C	1.360476	0.488480	0.250047
C203	C	1.610476	0.738480	0.500047
C204	C	1.860476	0.988480	0.750047
C205	C	1.111732	0.301766	0.000030
C206	C	1.361732	0.551766	0.250030
C207	C	1.611732	0.801766	0.500030
C208	C	1.861732	1.051766	0.750030
N209	N	1.102751	0.143338	0.254297
N210	N	1.352751	0.393338	0.504297
N211	N	1.602751	0.643338	0.754297
N212	N	1.852751	0.893338	1.004297
N213	N	1.134061	0.126178	-0.254145
N214	N	1.384061	0.376178	-0.004145
N215	N	1.634061	0.626178	0.245855
N216	N	1.884061	0.876178	0.495855
C217	C	1.089298	0.150718	0.473409
C218	C	1.339298	0.400718	0.723409
C219	C	1.589298	0.650718	0.973409
C220	C	1.839298	0.900718	1.223409
C221	C	1.147511	0.118799	0.526750
C222	C	1.397511	0.368799	0.776750
C223	C	1.647511	0.618799	1.026750
C224	C	1.897511	0.868799	1.276750
C225	C	1.140026	0.122906	0.648671
C226	C	1.390026	0.372906	0.898671
C227	C	1.640026	0.622906	1.148671
C228	C	1.890026	0.872906	1.398671
C229	C	1.096782	0.146612	0.351476
C230	C	1.346782	0.396612	0.601476
C231	C	1.596782	0.646612	0.851476
C232	C	1.846782	0.896612	1.101476
H233	H	0.620103	0.201889	0.000050
H234	H	0.870103	0.451889	0.250050
H235	H	1.120103	0.701889	0.500050
H236	H	1.370103	0.951889	0.750050
F237	F	1.112728	-0.023571	0.201127
F238	F	1.362728	0.226429	0.451127
F239	F	1.612728	0.476429	0.701127
F240	F	1.862728	0.726429	0.951127
F241	F	1.220284	0.079236	0.466761
F242	F	1.470284	0.329236	0.716761
F243	F	1.720284	0.579236	0.966761
F244	F	1.970284	0.829236	1.216761
F245	F	1.101761	-0.570639	0.201074
F246	F	1.351761	-0.320639	0.451074
F247	F	1.601761	-0.070639	0.701074
F248	F	1.851761	0.179361	0.951074
H249	H	0.616698	0.067632	0.000093
H250	H	0.866698	0.317632	0.250093
H251	H	1.116698	0.567632	0.500093
H252	H	1.366698	0.817632	0.750093
H253	H	1.100406	-0.409939	0.274123
H254	H	1.350406	-0.159939	0.524123
H255	H	1.600406	0.090061	0.774123
H256	H	1.850406	0.340061	1.024123
F257	F	1.016813	0.190466	0.533396
F258	F	1.266813	0.440466	0.783396
F259	F	1.516813	0.690466	1.033396
F260	F	1.766813	0.940466	1.283396
H261	H	1.135852	-0.043716	-0.176571
H262	H	1.385852	0.206284	0.073429
H263	H	1.635852	0.456284	0.323429
H264	H	1.885852	0.706284	0.573429
H265	H	1.133669	-0.151582	-0.176593
H266	H	1.383669	0.098418	0.073407
H267	H	1.633669	0.348418	0.323407
H268	H	1.883669	0.598418	0.573407
F269	F	1.126536	-0.584160	-0.200992
F270	F	1.376536	-0.334160	0.049008
F271	F	1.626536	-0.084160	0.299008
F272	F	1.876536	0.165840	0.549008
F273	F	1.138004	-0.313910	-0.298337
F274	F	1.388004	-0.063910	-0.048337
F275	F	1.638004	0.186090	0.201663
F276	F	1.888004	0.436090	0.451663
H277	H	1.134189	-0.428385	-0.273999
H278	H	1.384189	-0.178385	-0.023999
H279	H	1.634189	0.071615	0.226001
H280	H	1.884189	0.321615	0.476001
F281	F	1.124073	-0.706910	-0.200993
F282	F	1.374073	-0.456910	0.049007
F283	F	1.624073	-0.206910	0.299007
F284	F	1.874073	0.043090	0.549007
H285	H	1.100975	-0.686757	0.176709
H286	H	1.350975	-0.436757	0.426709
H287	H	1.600975	-0.186757	0.676709
H288	H	1.850975	0.063243	0.926709
H289	H	1.102543	-0.302073	0.274127
H290	H	1.352543	-0.052073	0.524127
H291	H	1.602543	0.197927	0.774127
H292	H	1.852543	0.447927	1.024127
F293	F	1.110277	-0.146325	0.201123
F294	F	1.360277	0.103675	0.451123
F295	F	1.610277	0.353675	0.701123
F296	F	1.860277	0.603675	0.951123
