data_functionalizedCrystal
_audit_creation_method	'MofGen! by Chris Wilmer'
_symmetry_space_group_name_H-M	'P1'
_symmetry_Int_Tables_number	1
_symmetry_cell_setting	triclinic
loop_
_symmetry_equiv_pos_as_xyz
  x,y,z
_cell_length_a	17.038272
_cell_length_b	17.019372
_cell_length_c	16.098687
_cell_angle_alpha	96.590091
_cell_angle_beta	87.071094
_cell_angle_gamma	87.242864
loop_
_atom_site_label
_atom_site_type_symbol
_atom_site_fract_x
_atom_site_fract_y
_atom_site_fract_z
O1	O	0.099258	1.053645	0.006242
O2	O	0.432591	1.386978	0.339576
O3	O	0.765925	1.720312	0.672909
O4	O	0.112796	0.824054	-0.010211
O5	O	0.446129	1.157387	0.323123
O6	O	0.779462	1.490721	0.656456
O7	O	-0.007783	0.937485	-0.002075
O8	O	0.325551	1.270819	0.331258
O9	O	0.658884	1.604152	0.664591
O10	O	0.219836	0.940214	-0.001893
O11	O	0.553170	1.273547	0.331440
O12	O	0.886503	1.606880	0.664774
O13	O	-0.014802	0.944075	0.136907
O14	O	0.318531	1.277409	0.470240
O15	O	0.651864	1.610742	0.803574
O16	O	0.105776	0.830644	0.128772
O17	O	0.439109	1.163978	0.462105
O18	O	0.772443	1.497311	0.795439
O19	O	0.092239	1.060235	0.145225
O20	O	0.425572	1.393568	0.478558
O21	O	0.758905	1.726902	0.811892
Zn22	Zn	0.097893	0.946486	0.159065
Zn23	Zn	0.431226	1.279819	0.492398
Zn24	Zn	0.764560	1.613153	0.825731
Zn25	Zn	0.107141	0.937803	-0.024051
Zn26	Zn	0.440475	1.271136	0.309283
Zn27	Zn	0.773808	1.604470	0.642616
O28	O	0.212817	0.946804	0.137090
O29	O	0.546150	1.280137	0.470423
O30	O	0.879484	1.613471	0.803756
C31	C	0.108912	0.797828	0.057165
C32	C	0.442245	1.131161	0.390498
C33	C	0.775578	1.464494	0.723832
C34	C	0.107788	0.709862	0.050861
C35	C	0.441121	1.043196	0.384195
C36	C	0.774455	1.376529	0.717528
C37	C	0.101600	0.212167	0.011353
C38	C	0.434934	0.545500	0.344686
C39	C	0.768267	0.878834	0.678020
C40	C	0.102656	0.294820	0.017287
C41	C	0.435989	0.628154	0.350621
C42	C	0.769323	0.961487	0.683954
C43	C	0.099363	0.339731	0.096014
C44	C	0.432696	0.673064	0.429348
C45	C	0.766030	1.006398	0.762681
C46	C	0.095006	0.301985	0.168812
C47	C	0.428340	0.635318	0.502146
C48	C	0.761673	0.968652	0.835479
C49	C	0.093945	0.219334	0.162877
C50	C	0.427279	0.552667	0.496211
C51	C	0.760612	0.886000	0.829544
C52	C	0.102370	0.589465	0.117724
C53	C	0.435704	0.922798	0.451058
C54	C	0.769037	1.256131	0.784391
C55	C	0.103434	0.672122	0.123654
C56	C	0.436767	1.005455	0.456987
C57	C	0.770101	1.338788	0.790320
C58	C	0.111082	0.664951	-0.027872
C59	C	0.444415	0.998285	0.305461
C60	C	0.777749	1.331618	0.638795
C61	C	0.110025	0.582298	-0.033800
C62	C	0.443359	0.915632	0.299533
C63	C	0.776692	1.248965	0.632867
C64	C	0.105665	0.544560	0.038998
C65	C	0.438998	0.877893	0.372331
C66	C	0.772331	1.211226	0.705664
C67	C	0.100444	0.424216	0.102082
C68	C	0.433778	0.757549	0.435415
C69	C	0.767111	1.090883	0.768749
C70	C	0.104578	0.460077	0.032929
C71	C	0.437911	0.793410	0.366263
C72	C	0.771245	1.126743	0.699596
C73	C	-0.040410	0.938298	0.067238
C74	C	0.292924	1.271632	0.400571
C75	C	0.626257	1.604965	0.733905
C76	C	-0.127169	0.930893	0.066707
C77	C	0.206164	1.264226	0.400040
C78	C	0.539498	1.597559	0.733374
C79	C	-0.177589	0.998883	0.071580
C80	C	0.155744	1.332217	0.404914
C81	C	0.489077	1.665550	0.738247
C82	C	-0.259108	0.991920	0.071073
C83	C	0.074225	1.325253	0.404407
C84	C	0.407559	1.658587	0.737740
C85	C	-0.290205	0.916966	0.065699
C86	C	0.043128	1.250299	0.399032
C87	C	0.376461	1.583632	0.732366
C88	C	-0.239779	0.848970	0.060823
C89	C	0.093555	1.182303	0.394156
C90	C	0.426888	1.515637	0.727490
C91	C	-0.158261	0.855934	0.061324
C92	C	0.175072	1.189267	0.394657
C93	C	0.508405	1.522600	0.727991
C94	C	-0.535852	0.892364	0.063925
C95	C	-0.202519	1.225697	0.397258
C96	C	0.130815	1.559031	0.730591
C97	C	-0.617376	0.885405	0.063427
C98	C	-0.284043	1.218739	0.396760
C99	C	0.049290	1.552072	0.730093
C100	C	-0.636700	1.028356	0.073675
C101	C	-0.303367	1.361689	0.407009
C102	C	0.029967	1.695023	0.740342
C103	C	-0.555180	1.035314	0.074181
C104	C	-0.221847	1.368647	0.407514
C105	C	0.111487	1.701980	0.740848
C106	C	-0.504760	0.967318	0.069300
C107	C	-0.171427	1.300651	0.402634
C108	C	0.161906	1.633984	0.735967
C109	C	-0.373531	0.909846	0.065183
C110	C	-0.040197	1.243180	0.398517
C111	C	0.293136	1.576513	0.731850
C112	C	-0.421436	0.974437	0.069810
C113	C	-0.088103	1.307771	0.403143
C114	C	0.245230	1.641104	0.736477
C115	C	0.245444	0.945991	0.067774
C116	C	0.578777	1.279324	0.401108
C117	C	0.912110	1.612657	0.734441
C118	C	0.332204	0.953396	0.068300
C119	C	0.665537	1.286729	0.401633
C120	C	0.998870	1.620063	0.734966
C121	C	0.096122	1.086461	0.077847
C122	C	0.429456	1.419795	0.411181
C123	C	0.762789	1.753128	0.744514
C124	C	0.097247	1.174426	0.084145
C125	C	0.430580	1.507760	0.417479
C126	C	0.763913	1.841093	0.750812
N127	N	0.091580	0.952418	0.284037
N128	N	0.424914	1.285751	0.617370
N129	N	0.758247	1.619084	0.950703
N130	N	0.113447	0.931877	-0.149022
N131	N	0.446781	1.265211	0.184311
N132	N	0.780114	1.598544	0.517644
C133	C	0.062288	0.980033	0.810825
C134	C	0.395622	1.313367	1.144158
C135	C	0.728955	1.646700	1.477491
C136	C	0.066714	0.975866	0.723339
C137	C	0.400047	1.309199	1.056672
C138	C	0.733381	1.642533	1.390005
C139	C	0.122296	0.923538	0.676007
C140	C	0.455629	1.256871	1.009340
C141	C	0.788962	1.590205	1.342674
C142	C	0.173460	0.875380	0.716166
C143	C	0.506793	1.208714	1.049499
C144	C	0.840127	1.542047	1.382833
C145	C	0.169038	0.879552	0.803651
C146	C	0.502371	1.212886	1.136984
C147	C	0.835704	1.546219	1.470317
C148	C	0.138322	0.908432	0.411680
C149	C	0.471656	1.241765	0.745014
C150	C	0.804989	1.575098	1.078347
C151	C	0.142740	0.904262	0.324190
C152	C	0.476073	1.237595	0.657523
C153	C	0.809406	1.570928	0.990856
C154	C	0.035994	1.004749	0.331369
C155	C	0.369327	1.338082	0.664702
C156	C	0.702661	1.671415	0.998035
C157	C	0.031573	1.008913	0.418854
C158	C	0.364906	1.342246	0.752188
C159	C	0.698240	1.675579	1.085521
C160	C	0.082740	0.960758	0.459006
C161	C	0.416074	1.294091	0.792339
C162	C	0.749407	1.627425	1.125673
C163	C	0.126819	0.919275	0.586582
C164	C	0.460153	1.252609	0.919915
C165	C	0.793486	1.585942	1.253249
C166	C	0.078220	0.965025	0.548430
C167	C	0.411553	1.298359	0.881763
C168	C	0.744887	1.631692	1.215096
H169	H	0.097765	0.460791	0.166182
H170	H	0.431098	0.794125	0.499515
H171	H	0.764431	1.127458	0.832849
H172	H	0.107256	0.423507	-0.031170
H173	H	0.440589	0.756840	0.302163
H174	H	0.773922	1.090174	0.635497
H175	H	0.090408	0.188606	0.222153
H176	H	0.423742	0.521939	0.555486
H177	H	0.757075	0.855273	0.888819
Br178	Br	-0.033442	1.070100	0.276874
Br179	Br	0.299891	1.403433	0.610208
Br180	Br	0.633224	1.736767	0.943541
Br181	Br	-0.281981	0.747244	0.053515
Br182	Br	0.051353	1.080577	0.386849
Br183	Br	0.384686	1.413911	0.720182
Br184	Br	0.238476	0.814200	0.858144
Br185	Br	0.571809	1.147534	1.191478
Br186	Br	0.905143	1.480867	1.524811
Br187	Br	-0.135395	1.100613	0.078886
Br188	Br	0.197938	1.433946	0.412220
Br189	Br	0.531272	1.767279	0.745553
Br190	Br	0.108558	0.346038	-0.081507
Br191	Br	0.441891	0.679371	0.251826
Br192	Br	0.775225	1.012704	0.585160
Br193	Br	0.090533	0.362934	0.275658
Br194	Br	0.423867	0.696268	0.608991
Br195	Br	0.757200	1.029601	0.942325
Br196	Br	0.218175	0.833235	0.259958
Br197	Br	0.551509	1.166569	0.593292
Br198	Br	0.884842	1.499902	0.926625
Br199	Br	0.002794	1.036044	0.612666
Br200	Br	0.336128	1.369378	0.945999
Br201	Br	0.669461	1.702711	1.279333
H202	H	0.218720	0.832777	0.677624
H203	H	0.552053	1.166110	1.010957
H204	H	0.885387	1.499443	1.344290
Br205	Br	0.098967	0.733072	0.230505
Br206	Br	0.432300	1.066405	0.563838
Br207	Br	0.765633	1.399739	0.897172
H208	H	0.172074	0.876667	0.548037
H209	H	0.505407	1.210001	0.881371
H210	H	0.838740	1.543334	1.214704
H211	H	0.104287	0.175606	-0.052755
H212	H	0.437621	0.508939	0.280578
H213	H	0.770954	0.842273	0.613911
H214	H	0.179983	0.869221	0.444365
H215	H	0.513317	1.202554	0.777698
H216	H	0.846650	1.535887	1.111031
H217	H	-0.529867	1.096349	0.078557
H218	H	-0.196534	1.429682	0.411891
H219	H	0.136799	1.763016	0.745224
Br220	Br	0.116995	0.716173	-0.126663
Br221	Br	0.450328	1.049506	0.206670
Br222	Br	0.783661	1.382839	0.540003
Br223	Br	0.114498	0.521353	-0.140648
Br224	Br	0.447832	0.854687	0.192685
Br225	Br	0.781165	1.188020	0.526019
Br226	Br	-0.089832	0.763657	0.054703
Br227	Br	0.243501	1.096990	0.388037
Br228	Br	0.576835	1.430323	0.721370
Br229	Br	-0.327533	1.084198	0.077687
Br230	Br	0.005800	1.417531	0.411020
Br231	Br	0.339133	1.750864	0.744354
Br232	Br	-0.415741	0.808125	0.057882
Br233	Br	-0.082407	1.141458	0.391215
Br234	Br	0.250926	1.474791	0.724549
H235	H	-0.677760	1.083714	0.077647
H236	H	-0.344427	1.417048	0.410981
H237	H	-0.011093	1.750381	0.744314
Br238	Br	-0.013153	1.051047	0.875051
Br239	Br	0.320180	1.384381	1.208385
Br240	Br	0.653513	1.717714	1.541718
H241	H	0.098808	0.558749	0.177002
H242	H	0.432141	0.892082	0.510335
H243	H	0.765475	1.225415	0.843668
Br244	Br	-0.659579	0.783675	0.056141
Br245	Br	-0.326246	1.117009	0.389474
Br246	Br	0.007087	1.450342	0.722808
H247	H	-0.494810	0.836996	0.059951
H248	H	-0.161476	1.170330	0.393284
H249	H	0.171857	1.503663	0.726617
Br250	Br	-0.043862	1.079926	0.483092
Br251	Br	0.289471	1.413259	0.816425
Br252	Br	0.622804	1.746593	1.149758
H253	H	-0.396112	1.035464	0.074167
H254	H	-0.062779	1.368797	0.407501
H255	H	0.270554	1.702130	0.740834
H256	H	0.025057	1.015079	0.690647
H257	H	0.358390	1.348412	1.023980
H258	H	0.691724	1.681745	1.357314
