data_functionalizedCrystal
_audit_creation_method	'MofGen! by Chris Wilmer'
_symmetry_space_group_name_H-M	'P1'
_symmetry_Int_Tables_number	1
_symmetry_cell_setting	triclinic
loop_
_symmetry_equiv_pos_as_xyz
  x,y,z
_cell_length_a	16.109301
_cell_length_b	12.376897
_cell_length_c	16.109301
_cell_angle_alpha	102.669145
_cell_angle_beta	96.538468
_cell_angle_gamma	77.337959
loop_
_atom_site_label
_atom_site_type_symbol
_atom_site_fract_x
_atom_site_fract_y
_atom_site_fract_z
O1	O	1.088928	0.093940	-0.092649
O2	O	1.588928	0.593940	0.407351
O3	O	0.846863	0.093957	-0.105945
O4	O	1.346863	0.593957	0.394055
O5	O	0.974547	0.093936	0.021732
O6	O	1.474547	0.593936	0.521732
O7	O	0.961244	0.093960	-0.220326
O8	O	1.461244	0.593960	0.279674
O9	O	1.002962	-0.094061	-0.006721
O10	O	1.502962	0.405939	0.493279
O11	O	0.875278	-0.094041	-0.134398
O12	O	1.375278	0.405959	0.365602
O13	O	1.117343	-0.094057	-0.121101
O14	O	1.617343	0.405943	0.378899
Zn15	Zn	1.000822	-0.123898	-0.132267
Zn16	Zn	1.500822	0.376102	0.367733
Zn17	Zn	0.963384	0.123797	-0.094779
Zn18	Zn	1.463384	0.623797	0.405221
O19	O	0.989659	-0.094037	-0.248779
O20	O	1.489659	0.405963	0.251221
C21	C	0.830095	-0.000040	-0.119633
C22	C	1.330095	0.499960	0.380367
C23	C	0.737799	-0.000034	-0.118017
C24	C	1.237799	0.499966	0.381983
N25	N	1.026378	-0.292943	-0.157851
N26	N	1.526378	0.207057	0.342149
C27	C	0.428803	-0.000047	-0.188502
C28	C	0.928803	0.499953	0.311498
C29	C	0.515522	-0.000040	-0.190026
C30	C	1.015522	0.499960	0.309974
C31	C	0.535395	-0.000040	-0.038537
C32	C	1.035395	0.499960	0.461463
C33	C	0.448676	-0.000039	-0.037012
C34	C	0.948676	0.499961	0.462988
C35	C	0.395383	-0.000048	-0.111998
C36	C	0.895383	0.499952	0.388002
C37	C	0.568821	-0.000043	-0.115047
C38	C	1.068821	0.499957	0.384953
C39	C	0.662846	-0.000036	-0.116699
C40	C	1.162846	0.499964	0.383301
C41	C	0.301352	-0.000053	-0.110346
C42	C	0.801352	0.499947	0.389654
C43	C	0.878479	-0.648004	-0.009794
C44	C	1.378479	-0.148004	0.490206
C45	C	0.860578	-0.529673	0.008114
C46	C	1.360578	-0.029673	0.508114
C47	C	0.902027	-0.470485	-0.033376
C48	C	1.402027	0.029515	0.466624
C49	C	0.961379	-0.529639	-0.092777
C50	C	1.461379	-0.029639	0.407223
C51	C	0.979286	-0.647981	-0.110682
C52	C	1.479286	-0.147981	0.389318
C53	C	1.002834	-0.470462	-0.134264
C54	C	1.502834	0.029538	0.365736
C55	C	1.062186	-0.529616	-0.193664
C56	C	1.562186	-0.029616	0.306336
C57	C	1.080089	-0.647947	-0.211567
C58	C	1.580089	-0.147947	0.288433
C59	C	1.038641	-0.707135	-0.170077
C60	C	1.538641	-0.207135	0.329923
C61	C	0.984927	-0.352120	-0.116358
C62	C	1.484927	0.147880	0.383642
C63	C	1.085734	-0.352097	-0.217246
C64	C	1.585734	0.147903	0.282754
C65	C	1.103634	-0.470428	-0.235154
C66	C	1.603634	0.029572	0.264846
C67	C	1.134110	-0.000058	-0.107414
C68	C	1.634110	0.499942	0.392586
C69	C	1.226405	-0.000056	-0.109029
C70	C	1.726405	0.499944	0.390971
C71	C	0.988216	-0.000063	0.038481
C72	C	1.488216	0.499937	0.538481
C73	C	0.986601	-0.000064	0.130776
C74	C	1.486601	0.499936	0.630776
N75	N	0.937834	0.292842	-0.069189
N76	N	1.437834	0.792842	0.430811
C77	C	0.975990	-0.000035	-0.265527
C78	C	1.475990	0.499965	0.234473
C79	C	0.977603	-0.000026	-0.357821
C80	C	1.477603	0.499974	0.142179
C81	C	1.058607	-0.000051	0.353050
C82	C	1.558607	0.499949	0.853050
C83	C	1.057081	-0.000042	0.439772
C84	C	1.557081	0.499958	0.939772
C85	C	0.905591	-0.000036	0.419898
C86	C	1.405591	0.499964	0.919898
C87	C	0.907117	-0.000037	0.333180
C88	C	1.407117	0.499963	0.833180
C89	C	0.983627	-0.000051	0.299757
C90	C	1.483627	0.499949	0.799757
C91	C	0.980577	-0.000040	0.473198
C92	C	1.480577	0.499960	0.973198
C93	C	0.978922	-0.000030	0.567225
C94	C	1.478922	0.499970	1.067225
C95	C	0.985282	-0.000059	0.205724
C96	C	1.485282	0.499941	0.705724
H97	H	0.385413	-0.000054	-0.249560
H98	H	0.885413	0.499946	0.250440
Cl99	Cl	0.812848	-0.000027	0.266179
Cl100	Cl	1.312848	0.499973	0.766179
Cl101	Cl	1.154712	-0.722309	-0.286233
Cl102	Cl	1.654712	-0.222309	0.213767
H103	H	0.421466	-0.000036	0.025290
H104	H	0.921466	0.499964	0.525290
H105	H	1.120906	-0.000060	0.325841
H106	H	1.620906	0.499940	0.825841
Cl107	Cl	0.602400	-0.000041	0.055723
Cl108	Cl	1.102400	0.499959	0.555723
Cl109	Cl	1.151345	-0.000040	0.506766
Cl110	Cl	1.651345	0.499960	1.006766
H111	H	0.936601	-0.303968	-0.067995
H112	H	1.436601	0.196032	0.432005
H113	H	0.887448	-0.374135	-0.018792
H114	H	1.387448	0.125865	0.481208
H115	H	0.843299	-0.000028	0.447122
H116	H	1.343299	0.499972	0.947122
Cl117	Cl	0.557531	-0.000035	-0.286206
Cl118	Cl	1.057531	0.499965	0.213794
H119	H	0.844744	-0.696206	0.023986
H120	H	1.344744	-0.196206	0.523986
Cl121	Cl	0.785946	-0.455317	0.082763
Cl122	Cl	1.285946	0.044683	0.582763
Cl123	Cl	1.061135	-0.855900	-0.192595
Cl124	Cl	1.561135	-0.355900	0.307405
H125	H	1.151960	-0.518608	-0.283520
H126	H	1.651960	-0.018608	0.216480
H127	H	1.119485	-0.303906	-0.251030
H128	H	1.619485	0.196094	0.248970
