data_functionalizedCrystal
_audit_creation_method	'MofGen! by Chris Wilmer'
_symmetry_space_group_name_H-M	'P1'
_symmetry_Int_Tables_number	1
_symmetry_cell_setting	triclinic
loop_
_symmetry_equiv_pos_as_xyz
  x,y,z
_cell_length_a	12.645330
_cell_length_b	18.215407
_cell_length_c	18.215399
_cell_angle_alpha	90.016824
_cell_angle_beta	89.974561
_cell_angle_gamma	89.981860
loop_
_atom_site_label
_atom_site_type_symbol
_atom_site_fract_x
_atom_site_fract_y
_atom_site_fract_z
Zn1	Zn	-0.422012	-1.125087	-0.416141
Zn2	Zn	-0.599302	-1.125017	-0.293085
Zn3	Zn	-0.422054	-1.002026	-0.293088
Zn4	Zn	-0.599236	-1.002001	-0.416110
O5	O	-0.510651	-1.063533	-0.354606
O6	O	-0.445540	-1.228062	-0.399829
O7	O	-0.575835	-1.108684	-0.190101
O8	O	-0.273702	-1.018390	-0.309426
O9	O	-0.575794	-1.228011	-0.309421
O10	O	-0.273671	-1.108802	-0.399832
O11	O	-0.445612	-1.018322	-0.190104
O12	O	-0.445548	-0.899038	-0.309396
O13	O	-0.575681	-1.018347	-0.519099
O14	O	-0.575722	-0.899020	-0.399780
O15	O	-0.445476	-1.108778	-0.519121
O16	O	-0.747641	-1.108659	-0.309391
O17	O	-0.747592	-1.018280	-0.399777
C18	C	-0.510633	-0.872326	-0.354585
C19	C	-0.510651	-0.790528	-0.354594
C20	C	-0.786081	-1.063479	-0.354596
C21	C	-0.903911	-1.063523	-0.354616
C22	C	-0.510566	-1.063567	-0.546559
C23	C	-0.510530	-1.063582	-0.628358
C24	C	-1.071488	-1.006900	-0.411653
C25	C	-0.948929	-1.006610	-0.411470
C26	C	-0.948506	-1.042535	-0.277058
C27	C	-1.071105	-1.042189	-0.277404
C28	C	-1.070999	-1.141482	-0.374509
C29	C	-0.948392	-1.141004	-0.376205
C30	C	-0.234146	-1.063607	-0.354633
C31	C	-0.116316	-1.063638	-0.354644
C32	C	-0.510670	-1.255486	-0.354628
C33	C	-0.510678	-1.337284	-0.354637
C34	C	-0.578539	-0.602343	-0.401597
C35	C	-0.578542	-0.525485	-0.401606
C36	C	-0.442782	-0.525474	-0.307631
C37	C	-0.442775	-0.602331	-0.307626
C38	C	-0.510659	-0.640764	-0.354608
C39	C	-0.510670	-0.487048	-0.354622
C40	C	-0.510673	-0.403714	-0.354632
C41	C	-0.510655	-0.724103	-0.354600
C42	C	-0.442677	-1.016571	-0.816554
C43	C	-0.442656	-1.016584	-0.893413
C44	C	-0.578257	-1.110682	-0.893400
C45	C	-0.578283	-1.110665	-0.816543
C46	C	-0.510487	-1.063610	-0.778122
C47	C	-0.510440	-1.063640	-0.931838
C48	C	-0.510417	-1.063654	-1.015172
C49	C	-0.510511	-1.063595	-0.694783
C50	C	-0.510659	-1.063540	-0.163400
C51	C	-0.510396	-1.063668	-0.081602
H52	H	-1.100899	-1.019910	-0.469351
H53	H	-1.101842	-1.160630	-0.430103
C54	C	-0.653215	-0.483222	-0.453294
C55	C	-0.773717	-0.493765	-0.447144
C56	C	-0.848392	-0.451504	-0.498835
C57	C	-0.802566	-0.398700	-0.556675
C58	C	-0.682058	-0.388154	-0.562826
C59	C	-0.607383	-0.430416	-0.511136
H60	H	-0.807646	-0.532856	-0.404326
H61	H	-0.937601	-0.459310	-0.494281
H62	H	-0.857845	-0.367415	-0.594940
H63	H	-0.648129	-0.349064	-0.605645
H64	H	-0.518175	-0.422609	-0.515690
H65	H	-1.102390	-0.949551	-0.398661
C66	C	-0.909000	-1.162399	-0.453309
C67	C	-0.836783	-1.109786	-0.496489
C68	C	-0.797382	-1.131180	-0.573593
C69	C	-0.830197	-1.205186	-0.607517
C70	C	-0.902418	-1.257804	-0.564337
C71	C	-0.941819	-1.236410	-0.487233
H72	H	-0.812488	-1.054998	-0.471376
H73	H	-0.743919	-1.092229	-0.605557
H74	H	-0.801030	-1.221023	-0.664594
H75	H	-0.926713	-1.312592	-0.589450
H76	H	-0.995282	-1.275361	-0.455269
C77	C	-0.652837	-1.162434	-0.935665
C78	C	-0.727441	-1.214167	-0.893388
C79	C	-0.802028	-1.265917	-0.935651
C80	C	-0.802011	-1.265934	-1.020191
C81	C	-0.727404	-1.214199	-1.062473
C82	C	-0.652817	-1.162449	-1.020210
H83	H	-0.727456	-1.214156	-0.830802
H84	H	-0.857257	-1.304215	-0.904350
H85	H	-0.857225	-1.304242	-1.051476
H86	H	-0.727389	-1.214209	-1.125059
H87	H	-0.597588	-1.124151	-1.051510
C88	C	-0.368102	-0.644599	-0.255933
C89	C	-0.284923	-0.697460	-0.287915
C90	C	-0.210251	-0.739727	-0.236227
C91	C	-0.218758	-0.729132	-0.152555
C92	C	-0.301941	-0.676268	-0.120568
C93	C	-0.376613	-0.634001	-0.172257
H94	H	-0.278622	-0.705305	-0.349858
H95	H	-0.148674	-0.778860	-0.259906
H96	H	-0.163482	-0.760420	-0.114292
H97	H	-0.308242	-0.668423	-0.058626
H98	H	-0.438190	-0.594868	-0.148578
C99	C	-0.368113	-0.964807	-0.774290
C100	C	-0.293528	-0.913062	-0.816569
C101	C	-0.218964	-0.861295	-0.774308
C102	C	-0.218984	-0.861273	-0.689768
C103	C	-0.293571	-0.913021	-0.647484
C104	C	-0.368136	-0.964788	-0.689746
H105	H	-0.293511	-0.913076	-0.879155
H106	H	-0.163749	-0.822988	-0.805609
H107	H	-0.163787	-0.822952	-0.658483
H108	H	-0.293589	-0.913006	-0.584898
H109	H	-0.423350	-1.003095	-0.658444
H110	H	-0.387440	-0.978279	-0.924701
H111	H	-0.917896	-0.986224	-0.259925
C112	C	-0.908207	-1.024313	-0.489174
C113	C	-0.937252	-1.097791	-0.525799
C114	C	-0.896549	-1.115476	-0.603513
C115	C	-0.826800	-1.059683	-0.644603
C116	C	-0.797751	-0.986200	-0.607977
C117	C	-0.838454	-0.968515	-0.530263
H118	H	-0.988888	-1.139097	-0.495382
H119	H	-0.918054	-1.169873	-0.630626
H120	H	-0.796669	-1.072775	-0.702131
H121	H	-0.746115	-0.944895	-0.638394
H122	H	-0.816950	-0.914118	-0.503151
C123	C	-0.909424	-0.928650	-0.393688
C124	C	-0.989432	-0.866463	-0.379605
C125	C	-0.949928	-0.788500	-0.361821
C126	C	-0.830417	-0.772723	-0.358119
C127	C	-0.750402	-0.834911	-0.372202
C128	C	-0.789906	-0.912875	-0.389986
H129	H	-1.077908	-0.878141	-0.382346
H130	H	-1.009161	-0.742464	-0.351396
H131	H	-0.801174	-0.715010	-0.344954
H132	H	-0.661926	-0.823234	-0.369461
H133	H	-0.730673	-0.958911	-0.400411
H134	H	-1.099797	-0.985285	-0.260576
H135	H	-0.633506	-1.148971	-0.785250
H136	H	-0.919348	-1.082550	-0.233421
C137	C	-1.111180	-1.095576	-0.218051
C138	C	-1.031624	-1.138385	-0.170489
C139	C	-1.071694	-1.191762	-0.111130
C140	C	-1.191318	-1.202329	-0.099333
C141	C	-1.270881	-1.159518	-0.146897
C142	C	-1.230812	-1.106142	-0.206256
H143	H	-0.943064	-1.130564	-0.179220
H144	H	-1.012795	-1.223453	-0.075920
H145	H	-1.220980	-1.241841	-0.055392
H146	H	-1.359441	-1.167340	-0.138166
H147	H	-1.289710	-1.074450	-0.241466
C148	C	-0.907031	-1.201095	-0.324150
C149	C	-0.787331	-1.215220	-0.317625
C150	C	-0.745989	-1.275295	-0.265541
C151	C	-0.824348	-1.321247	-0.219980
C152	C	-0.944056	-1.307123	-0.226502
C153	C	-0.985397	-1.247048	-0.278587
H154	H	-0.729318	-1.181203	-0.351354
H155	H	-0.657373	-1.285750	-0.260712
H156	H	-0.793744	-1.365718	-0.181424
H157	H	-1.002068	-1.341140	-0.192774
H158	H	-1.074014	-1.236593	-0.283415
H159	H	-1.099987	-1.183753	-0.332986
H160	H	-0.387515	-0.494173	-0.269379
C161	C	-0.653201	-0.644620	-0.453281
C162	C	-0.727864	-0.602354	-0.504971
C163	C	-0.802526	-0.644628	-0.556659
C164	C	-0.802526	-0.729168	-0.556656
C165	C	-0.727861	-0.771439	-0.504964
C166	C	-0.653199	-0.729165	-0.453277
H167	H	-0.727866	-0.539768	-0.504975
H168	H	-0.857798	-0.613336	-0.594925
H169	H	-0.857795	-0.760462	-0.594918
H170	H	-0.727858	-0.834025	-0.504961
H171	H	-0.597927	-0.760457	-0.415011
