data_functionalizedCrystal
_audit_creation_method	'MofGen! by Chris Wilmer'
_symmetry_space_group_name_H-M	'P1'
_symmetry_Int_Tables_number	1
_symmetry_cell_setting	triclinic
loop_
_symmetry_equiv_pos_as_xyz
  x,y,z
_cell_length_a	12.759401
_cell_length_b	14.908520
_cell_length_c	12.759393
_cell_angle_alpha	86.737527
_cell_angle_beta	90.018496
_cell_angle_gamma	93.320696
loop_
_atom_site_label
_atom_site_type_symbol
_atom_site_fract_x
_atom_site_fract_y
_atom_site_fract_z
Zn1	Zn	1.582067	-0.359100	0.618083
Zn2	Zn	2.082067	0.140900	1.118083
Zn3	Zn	1.571798	-0.509987	0.452530
Zn4	Zn	2.071798	-0.009987	0.952530
Zn5	Zn	1.406366	-0.359147	0.442425
Zn6	Zn	1.906366	0.140853	0.942425
Zn7	Zn	1.396199	-0.509917	0.628166
Zn8	Zn	1.896199	-0.009917	1.128166
O9	O	1.489108	-0.434538	0.535301
O10	O	1.989108	0.065462	1.035301
O11	O	1.727726	-0.379125	0.596130
O12	O	2.227726	0.120875	1.096130
O13	O	1.549811	-0.490026	0.304171
O14	O	2.049811	0.009974	0.804171
O15	O	1.438226	-0.232897	0.457278
O16	O	1.938226	0.267103	0.957278
O17	O	1.720181	-0.489981	0.474499
O18	O	2.220181	0.010019	0.974499
O19	O	1.567313	-0.232862	0.586332
O20	O	2.067313	0.267138	1.086332
O21	O	1.428268	-0.379205	0.296748
O22	O	1.928268	0.120795	0.796748
O23	O	1.257997	-0.379138	0.467055
O24	O	1.757997	0.120862	0.967055
O25	O	1.420898	-0.489862	0.773847
O26	O	1.920898	0.010138	1.273847
O27	O	1.250528	-0.489908	0.603519
O28	O	1.750528	0.010092	1.103519
O29	O	1.557454	-0.379058	0.766438
O30	O	2.057454	0.120942	1.266438
O31	O	1.539952	-0.636222	0.484277
O32	O	2.039952	-0.136222	0.984277
O33	O	1.410940	-0.636171	0.613317
O34	O	1.910940	-0.136171	1.113317
C35	C	1.216142	-0.434521	0.535286
C36	C	1.716142	0.065479	1.035286
C37	C	1.099364	-0.434536	0.535305
C38	C	1.599364	0.065464	1.035305
C39	C	1.040634	-0.492306	0.606257
C40	C	1.540634	0.007694	1.106257
C41	C	0.930909	-0.492318	0.606269
C42	C	1.430909	0.007682	1.106269
C43	C	0.938654	-0.376786	0.464369
C44	C	1.438654	0.123214	0.964369
C45	C	1.048377	-0.376771	0.464363
C46	C	1.548377	0.123229	0.964363
C47	C	1.036161	-0.559010	0.688179
C48	C	1.536161	-0.059010	1.188179
C49	C	0.926436	-0.559022	0.688191
C50	C	1.426436	-0.059022	1.188191
C51	C	1.473257	-0.668930	0.551010
C52	C	1.973257	-0.168930	1.051010
C53	C	1.466573	-0.769204	0.557766
C54	C	1.966573	-0.269204	1.057766
C55	C	1.588489	-0.957621	0.436200
C56	C	2.088489	-0.457621	0.936200
C57	C	1.582212	-1.051837	0.442544
C58	C	2.082212	-0.551837	0.942544
C59	C	1.447746	-1.051854	0.576803
C60	C	1.947746	-0.551854	1.076803
C61	C	1.454024	-0.957638	0.570459
C62	C	1.954024	-0.457638	1.070459
C63	C	1.524397	-0.910524	0.500154
C64	C	2.024397	-0.410524	1.000154
C65	C	1.530668	-0.816307	0.493805
C66	C	2.030668	-0.316307	0.993805
C67	C	1.396208	-0.816325	0.628069
C68	C	1.896208	-0.316325	1.128069
C69	C	1.389931	-0.910541	0.634413
C70	C	1.889931	-0.410541	1.134413
C71	C	1.763140	-0.434555	0.535317
C72	C	2.263140	0.065445	1.035317
C73	C	1.879916	-0.434563	0.535324
C74	C	2.379916	0.065437	1.035324
C75	C	1.489187	-0.434447	0.809328
C76	C	1.989187	0.065553	1.309328
C77	C	1.489221	-0.434408	0.926102
C78	C	1.989221	0.065592	1.426102
C79	C	1.505049	-0.199231	0.519553
C80	C	2.005049	0.300769	1.019553
C81	C	1.511842	-0.098957	0.512842
C82	C	2.011842	0.401043	1.012842
C83	C	1.489093	-0.434563	0.262335
C84	C	1.989093	0.065437	0.762335
C85	C	1.489280	-0.434348	0.145545
C86	C	1.989280	0.065652	0.645545
C87	C	1.560336	-0.376707	0.977108
C88	C	2.060336	0.123293	1.477108
C89	C	1.560363	-0.376674	1.086830
C90	C	2.060363	0.123326	1.586830
C91	C	1.418158	-0.492052	1.094531
C92	C	1.918158	0.007948	1.594531
C93	C	1.418126	-0.492079	0.984811
C94	C	1.918126	0.007921	1.484811
C95	C	1.642440	-0.310097	0.972663
C96	C	2.142440	0.189903	1.472663
C97	C	1.642467	-0.310064	1.082385
C98	C	2.142467	0.189936	1.582385
H99	H	0.894118	-0.534082	0.763869
H100	H	1.394118	-0.034082	1.263869
H101	H	1.067224	-0.540377	0.768335
H102	H	1.567224	-0.040377	1.268335
H103	H	1.634405	-1.090179	0.390468
H104	H	2.134405	-0.590179	0.890468
O105	O	1.619845	-0.217555	0.927024
O106	O	2.119845	0.282445	1.427024
H107	H	1.541859	-0.199357	0.954821
H108	H	2.041859	0.300643	1.454821
O109	O	1.742558	-0.343266	0.929791
O110	O	2.242558	0.156734	1.429791
H111	H	1.781650	-0.289568	0.877250
H112	H	2.281650	0.210432	1.377250
O113	O	1.606582	-0.765496	0.417989
O114	O	2.106582	-0.265496	0.917989
H115	H	1.662861	-0.722502	0.462179
H116	H	2.162861	-0.222502	0.962179
O117	O	1.371861	-1.102682	0.652634
O118	O	1.871861	-0.602682	1.152634
H119	H	1.328351	-1.054107	0.696050
H120	H	1.828351	-0.554107	1.196050
H121	H	0.891935	-0.628875	0.670947
H122	H	1.391935	-0.128875	1.170947
H123	H	1.332638	-0.948914	0.691656
H124	H	1.832638	-0.448914	1.191656
H125	H	1.096192	-0.329723	0.406594
H126	H	1.596192	0.170277	0.906594
H127	H	1.617825	-0.243680	1.111977
H128	H	2.117825	0.256320	1.611977
O129	O	1.664385	-0.906796	0.360377
O130	O	2.164385	-0.406796	0.860377
H131	H	1.707902	-0.955375	0.316972
H132	H	2.207902	-0.455375	0.816972
O133	O	1.748571	-0.334860	1.123510
O134	O	2.248571	0.165140	1.623510
H135	H	1.800492	-0.347035	1.056629
H136	H	2.300492	0.152965	1.556629
H137	H	0.897128	-0.329755	0.406611
H138	H	1.397128	0.170245	0.906611
O139	O	1.075309	-0.646874	0.655285
O140	O	1.575309	-0.146874	1.155285
H141	H	1.122230	-0.677389	0.719818
H142	H	1.622230	-0.177389	1.219818
O143	O	1.327075	-0.765531	0.697059
O144	O	1.827075	-0.265531	1.197059
H145	H	1.343264	-0.692101	0.680843
H146	H	1.843264	-0.192101	1.180843
H147	H	1.360273	-0.539004	1.142345
H148	H	1.860273	-0.039004	1.642345
O149	O	1.341375	-0.554267	0.929789
O150	O	1.841375	-0.054267	1.429789
H151	H	1.291936	-0.594353	0.989048
H152	H	1.791936	-0.094353	1.489048
