data_functionalizedCrystal
_audit_creation_method	'MofGen! by Chris Wilmer'
_symmetry_space_group_name_H-M	'P1'
_symmetry_Int_Tables_number	1
_symmetry_cell_setting	triclinic
loop_
_symmetry_equiv_pos_as_xyz
  x,y,z
_cell_length_a	13.032831
_cell_length_b	13.897448
_cell_length_c	13.033109
_cell_angle_alpha	97.153140
_cell_angle_beta	76.665514
_cell_angle_gamma	82.822399
loop_
_atom_site_label
_atom_site_type_symbol
_atom_site_fract_x
_atom_site_fract_y
_atom_site_fract_z
Zn1	Zn	1.700113	-0.678106	-0.806401
Zn2	Zn	2.200113	-0.178106	-0.306401
Zn3	Zn	1.677445	-0.815943	-0.628782
Zn4	Zn	2.177445	-0.315943	-0.128782
Zn5	Zn	1.499937	-0.631189	-0.606295
Zn6	Zn	1.999937	-0.131189	-0.106295
Zn7	Zn	1.522460	-0.815858	-0.783826
Zn8	Zn	2.022460	-0.315858	-0.283826
O9	O	1.599989	-0.735274	-0.706326
O10	O	2.099989	-0.235274	-0.206326
O11	O	1.845742	-0.716060	-0.801698
O12	O	2.345742	-0.216060	-0.301698
O13	O	1.634986	-0.771836	-0.477168
O14	O	2.134986	-0.271836	0.022832
O15	O	1.526552	-0.502443	-0.632875
O16	O	2.026552	-0.002443	-0.132875
O17	O	1.829088	-0.817329	-0.671203
O18	O	2.329088	-0.317329	-0.171203
O19	O	1.673620	-0.536912	-0.779893
O20	O	2.173620	-0.036912	-0.279893
O21	O	1.504572	-0.636098	-0.460646
O22	O	2.004572	-0.136098	0.039354
O23	O	1.354289	-0.636016	-0.610986
O24	O	1.854289	-0.136016	-0.110986
O25	O	1.564938	-0.817184	-0.935453
O26	O	2.064938	-0.317184	-0.435453
O27	O	1.370836	-0.771691	-0.741418
O28	O	1.870836	-0.271691	-0.241418
O29	O	1.695459	-0.715978	-0.952038
O30	O	2.195459	-0.215978	-0.452038
O31	O	1.656825	-0.950902	-0.649313
O32	O	2.156825	-0.450902	-0.149313
O33	O	1.542958	-0.950840	-0.763223
O34	O	2.042958	-0.450840	-0.263223
C35	C	1.324023	-0.698754	-0.671313
C36	C	1.824023	-0.198754	-0.171313
C37	C	1.205967	-0.683157	-0.656359
C38	C	1.705967	-0.183157	-0.156359
C39	C	1.161536	-0.743414	-0.714130
C40	C	1.661536	-0.243414	-0.214130
C41	C	1.039519	-0.727296	-0.698676
C42	C	1.539519	-0.227296	-0.198676
C43	C	1.599907	-0.985874	-0.706286
C44	C	2.099907	-0.485874	-0.206286
C45	C	1.599974	-1.093100	-0.706316
C46	C	2.099974	-0.593100	-0.206316
C47	C	1.600094	-1.289418	-0.706397
C48	C	2.100094	-0.789418	-0.206397
C49	C	1.600025	-1.180173	-0.706355
C50	C	2.100025	-0.680173	-0.206355
C51	C	1.877032	-0.771938	-0.741477
C52	C	2.377032	-0.271938	-0.241477
C53	C	1.995092	-0.787562	-0.756456
C54	C	2.495092	-0.287562	-0.256456
C55	C	1.635240	-0.771805	-0.983361
C56	C	2.135240	-0.271805	-0.483361
C57	C	1.650262	-0.787373	-1.101417
C58	C	2.150262	-0.287373	-0.601417
C59	C	1.600102	-0.483702	-0.706394
C60	C	2.100102	0.016298	-0.206394
C61	C	1.600151	-0.376498	-0.706423
C62	C	2.100151	0.123502	-0.206423
C63	C	1.592433	-0.727152	-1.145876
C64	C	2.092433	-0.227152	-0.645876
C65	C	1.607957	-0.743241	-1.267892
C66	C	2.107957	-0.243241	-0.767892
C67	C	1.564936	-0.698824	-0.430376
C68	C	2.064936	-0.198824	0.069624
C69	C	1.550120	-0.683012	-0.312347
C70	C	2.050120	-0.183012	0.187653
H71	H	0.987229	-0.663766	-0.637775
H72	H	1.487229	-0.163766	-0.137775
N73	N	1.230791	-0.827565	-0.794798
N74	N	1.730791	-0.327565	-0.294798
H75	H	1.221226	-0.820184	-0.868299
H76	H	1.721226	-0.320184	-0.368299
H77	H	1.308108	-0.827107	-0.794308
H78	H	1.808108	-0.327107	-0.294308
H79	H	1.047382	-0.851083	-0.817368
H80	H	1.547382	-0.351083	-0.317368
N81	N	1.136710	-0.599017	-0.575678
N82	N	1.636710	-0.099017	-0.075678
H83	H	1.059361	-0.599433	-0.576070
H84	H	1.559361	-0.099433	-0.076070
H85	H	1.146373	-0.606463	-0.502227
H86	H	1.646373	-0.106463	-0.002227
N87	N	1.731075	-0.871440	-1.170646
N88	N	2.231075	-0.371440	-0.670646
H89	H	1.767535	-0.909417	-1.124213
H90	H	2.267535	-0.409417	-0.624213
H91	H	1.693634	-0.916380	-1.211171
H92	H	2.193634	-0.416380	-0.711171
H93	H	1.531426	-0.663689	-1.093605
H94	H	2.031426	-0.163689	-0.593605
H95	H	1.668963	-0.806713	-1.320159
H96	H	2.168963	-0.306713	-0.820159
H97	H	1.489110	-0.619542	-1.260082
H98	H	1.989110	-0.119542	-0.760082
