data_functionalizedCrystal
_audit_creation_method	'MofGen! by Chris Wilmer'
_symmetry_space_group_name_H-M	'P1'
_symmetry_Int_Tables_number	1
_symmetry_cell_setting	triclinic
loop_
_symmetry_equiv_pos_as_xyz
  x,y,z
_cell_length_a	10.654550
_cell_length_b	16.992695
_cell_length_c	9.130313
_cell_angle_alpha	89.995176
_cell_angle_beta	89.999724
_cell_angle_gamma	87.576577
loop_
_atom_site_label
_atom_site_type_symbol
_atom_site_fract_x
_atom_site_fract_y
_atom_site_fract_z
O1	O	1.677362	0.110190	-0.121691
O2	O	2.177362	0.610190	0.378309
O3	O	1.312790	0.120688	-0.121718
O4	O	1.812790	0.620688	0.378282
O5	O	1.493615	0.001288	-0.121693
O6	O	1.993615	0.501288	0.378307
O7	O	1.496538	0.229590	-0.121716
O8	O	1.996538	0.729590	0.378284
O9	O	1.493601	0.001285	0.121906
O10	O	1.993601	0.501285	0.621906
O11	O	1.312777	0.120685	0.121881
O12	O	1.812777	0.620685	0.621881
O13	O	1.677348	0.110186	0.121908
O14	O	2.177348	0.610186	0.621908
Cu15	Cu	1.495061	0.115435	0.144137
Cu16	Cu	1.995061	0.615435	0.644137
Cu17	Cu	1.495077	0.115439	-0.143947
Cu18	Cu	1.995077	0.615439	0.356053
O19	O	1.496524	0.229586	0.121883
O20	O	1.996524	0.729586	0.621883
C21	C	1.265919	0.119916	0.000078
C22	C	1.765919	0.619916	0.500078
C23	C	1.126277	0.117609	0.000068
C24	C	1.626277	0.617609	0.500068
C25	C	1.052866	0.187910	0.000065
C26	C	1.552866	0.687910	0.500065
C27	C	0.921658	0.185738	0.000091
C28	C	1.421658	0.685738	0.500091
C29	C	0.937282	0.042959	0.000116
C30	C	1.437282	0.542959	0.500116
C31	C	1.068488	0.045132	0.000101
C32	C	1.568488	0.545132	0.500101
C33	C	1.489848	-0.027946	0.000106
C34	C	1.989848	0.472054	0.500106
C35	C	1.478628	-0.115051	0.000105
C36	C	1.978628	0.384949	0.500105
C37	C	1.586879	-0.164703	0.000114
C38	C	2.086879	0.335297	0.500114
C39	C	1.576330	-0.246547	0.000099
C40	C	2.076330	0.253453	0.500099
C41	C	1.457529	-0.278738	0.000086
C42	C	1.957529	0.221262	0.500086
C43	C	1.349270	-0.229080	0.000072
C44	C	1.849270	0.270920	0.500072
C45	C	1.359820	-0.147237	0.000076
C46	C	1.859820	0.352763	0.500076
C47	C	1.413802	-0.522573	0.000062
C48	C	1.913802	-0.022573	0.500062
C49	C	1.403260	-0.604422	0.000062
C50	C	1.903260	-0.104422	0.500062
C51	C	1.630321	-0.621884	0.000087
C52	C	2.130321	-0.121884	0.500087
C53	C	1.640861	-0.540039	0.000100
C54	C	2.140861	-0.040039	0.500100
C55	C	1.532602	-0.490388	0.000079
C56	C	2.032602	0.009612	0.500079
N57	N	1.446743	-0.362395	0.000075
N58	N	1.946743	0.137605	0.500075
N59	N	1.543389	-0.406733	0.000079
N60	N	2.043389	0.093267	0.500079
C61	C	1.724220	0.110959	0.000108
C62	C	2.224220	0.610959	0.500108
C63	C	1.863862	0.113265	0.000109
C64	C	2.363862	0.613265	0.500109
C65	C	1.500291	0.258821	0.000080
C66	C	2.000291	0.758821	0.500080
C67	C	1.511510	0.345926	0.000072
C68	C	2.011510	0.845926	0.500072
N69	N	1.495059	0.115432	0.346759
N70	N	1.995059	0.615432	0.846759
N71	N	1.495089	0.115437	-0.346570
N72	N	1.995089	0.615437	0.153430
C73	C	1.575159	0.062584	0.423422
C74	C	2.075159	0.562584	0.923422
C75	C	1.575171	0.062584	0.576759
C76	C	2.075171	0.562584	1.076759
C77	C	1.414980	0.168287	0.576756
C78	C	1.914980	0.668287	1.076756
C79	C	1.414963	0.168282	0.423422
C80	C	1.914963	0.668282	0.923422
H81	H	1.128262	-0.012119	0.000107
H82	H	1.628262	0.487881	0.500107
C83	C	1.717571	-0.129302	0.000129
C84	C	2.217571	0.370698	0.500129
N85	N	1.816011	-0.102640	0.000134
N86	N	2.316011	0.397360	0.500134
H87	H	1.664480	-0.286971	0.000110
H88	H	2.164480	0.213029	0.500110
H89	H	1.271671	-0.106811	0.000068
H90	H	1.771671	0.393189	0.500068
C91	C	1.326903	0.226458	0.339088
C92	C	1.826903	0.726458	0.839088
N93	N	1.260599	0.270286	0.275568
N94	N	1.760599	0.770286	0.775568
C95	C	1.663257	0.004441	0.339098
C96	C	2.163257	0.504441	0.839098
N97	N	1.729610	-0.039357	0.275589
N98	N	2.229610	0.460643	0.775589
C99	C	1.663276	0.004441	0.661081
C100	C	2.163276	0.504441	1.161081
N101	N	1.729637	-0.039358	0.724592
N102	N	2.229637	0.460642	1.224592
H103	H	1.718458	-0.662318	0.000102
H104	H	2.218458	-0.162318	0.500102
H105	H	1.349769	0.211318	0.639191
H106	H	1.849769	0.711318	1.139191
C107	C	1.771551	-0.504637	0.000117
C108	C	2.271551	-0.004637	0.500117
N109	N	1.869989	-0.477971	0.000136
N110	N	2.369989	0.022029	0.500136
H111	H	1.099913	0.246926	0.000049
H112	H	1.599913	0.746926	0.500049
H113	H	0.861892	0.242984	0.000091
H114	H	1.361892	0.742984	0.500091
C115	C	1.294712	-0.467968	0.000030
C116	C	1.794712	0.032032	0.500030
N117	N	1.205008	-0.426835	0.000002
N118	N	1.705008	0.073165	0.500002
C119	C	1.272564	-0.639829	0.000036
C120	C	1.772564	-0.139829	0.500036
N121	N	1.174128	-0.666498	0.000016
N122	N	1.674128	-0.166498	0.500016
H123	H	0.890215	-0.016050	0.000152
H124	H	1.390215	0.483950	0.500152
H125	H	1.252539	-0.255296	0.000051
H126	H	1.752539	0.244704	0.500051
