data_functionalizedCrystal
_audit_creation_method	'MofGen! by Chris Wilmer'
_symmetry_space_group_name_H-M	'P1'
_symmetry_Int_Tables_number	1
_symmetry_cell_setting	triclinic
loop_
_symmetry_equiv_pos_as_xyz
  x,y,z
_cell_length_a	15.297475
_cell_length_b	16.120484
_cell_length_c	16.120297
_cell_angle_alpha	95.614431
_cell_angle_beta	83.675009
_cell_angle_gamma	83.687474
loop_
_atom_site_label
_atom_site_type_symbol
_atom_site_fract_x
_atom_site_fract_y
_atom_site_fract_z
Zn1	Zn	1.308575	-0.577514	-0.709546
Zn2	Zn	1.308464	-0.710185	-0.576838
Zn3	Zn	1.168358	-0.546794	-0.546209
Zn4	Zn	1.152498	-0.690914	-0.690328
O5	O	1.234474	-0.631352	-0.630730
O6	O	1.432514	-0.616035	-0.712803
O7	O	1.296469	-0.683720	-0.456922
O8	O	1.193642	-0.435032	-0.563100
O9	O	1.432432	-0.713507	-0.615303
O10	O	1.296659	-0.457601	-0.683104
O11	O	1.193534	-0.563677	-0.434418
O12	O	1.042301	-0.544991	-0.544465
O13	O	1.166612	-0.680662	-0.808731
O14	O	1.030649	-0.650874	-0.650349
O15	O	1.281281	-0.597348	-0.822850
O16	O	1.281091	-0.823466	-0.596668
O17	O	1.166503	-0.809308	-0.680049
C18	C	1.004335	-0.592508	-0.591999
C19	C	0.905878	-0.575912	-0.575450
C20	C	1.222087	-0.846427	-0.639619
C21	C	1.216867	-0.938452	-0.643463
C22	C	0.604176	-0.749976	-0.749011
C23	C	0.696681	-0.765575	-0.764558
C24	C	0.748985	-0.718161	-0.717283
C25	C	0.708775	-0.655144	-0.654457
C26	C	0.616261	-0.639548	-0.638905
C27	C	0.761069	-0.607733	-0.607176
C28	C	0.720859	-0.544716	-0.544351
C29	C	0.628354	-0.529122	-0.528801
C30	C	0.576051	-0.576537	-0.576077
C31	C	0.853583	-0.623329	-0.622728
C32	C	0.865668	-0.512901	-0.512622
C33	C	0.773163	-0.497301	-0.497075
C34	C	1.207342	-1.106945	-0.650499
C35	C	1.261764	-1.154945	-0.611002
C36	C	1.256464	-1.248701	-0.614917
C37	C	1.212640	-1.013181	-0.646585
C38	C	1.465512	-0.670347	-0.669614
C39	C	1.563966	-0.686965	-0.686183
C40	C	1.222190	-0.640282	-0.846670
C41	C	1.216955	-0.644088	-0.938691
C42	C	1.246932	-0.415441	-0.621829
C43	C	1.252241	-0.323433	-0.618036
C44	C	1.207366	-0.651012	-1.107168
C45	C	1.261770	-0.611473	-1.155163
C46	C	1.256435	-0.615326	-1.248910
C47	C	1.212700	-0.647160	-1.013413
C48	C	1.246765	-0.622405	-0.415637
C49	C	1.252184	-0.618395	-0.323636
H50	H	0.886313	-0.674637	-0.673882
C51	C	0.584862	-0.460645	-0.460579
C52	C	0.650463	-0.422443	-0.422520
C53	C	0.610433	-0.359351	-0.359678
H54	H	0.549011	-0.484579	-0.419616
H55	H	0.549069	-0.419814	-0.484739
H56	H	0.686241	-0.463266	-0.398360
H57	H	0.686318	-0.398491	-0.463461
H58	H	0.574640	-0.318520	-0.383838
H59	H	0.574583	-0.383293	-0.318721
H60	H	0.654936	-0.333418	-0.333852
H61	H	0.740410	-0.445993	-0.445922
H62	H	1.156772	-1.136261	-0.687250
H63	H	1.156787	-0.687753	-1.136482
C64	C	0.849406	-0.735190	-0.734319
C65	C	0.873426	-0.800509	-0.799471
C66	C	0.965929	-0.816212	-0.815201
H67	H	0.872653	-0.750784	-0.685043
H68	H	0.872613	-0.685938	-0.750086
H69	H	0.850229	-0.849751	-0.783701
H70	H	0.850201	-0.784934	-0.848760
H71	H	0.989136	-0.766960	-0.830968
H72	H	0.989168	-0.831802	-0.765921
H73	H	0.982239	-0.860527	-0.859413
C74	C	0.740169	-0.833995	-0.832830
C75	C	0.674568	-0.872166	-0.870919
C76	C	0.714596	-0.935193	-0.933826
H77	H	0.775977	-0.874862	-0.808749
H78	H	0.776005	-0.809983	-0.873758
H79	H	0.638747	-0.896178	-0.829998
H80	H	0.638756	-0.831321	-0.895017
H81	H	0.750432	-0.911181	-0.974754
H82	H	0.750403	-0.976054	-0.909738
H83	H	0.670092	-0.961094	-0.959682
H84	H	1.312354	-0.574729	-1.125847
H85	H	0.908253	-0.474293	-0.474125
C86	C	1.329285	-1.116023	-0.561977
C87	C	1.378466	-1.178740	-0.526319
C88	C	1.440676	-1.142914	-0.481160
H89	H	1.299450	-1.075134	-0.518747
H90	H	1.367971	-1.090077	-0.598770
H91	H	1.339785	-1.204673	-0.489529
H92	H	1.408320	-1.219633	-0.569530
H93	H	1.479363	-1.116967	-0.517954
H94	H	1.410834	-1.102026	-0.437935
H95	H	1.474059	-1.185463	-0.456968
C96	C	0.547238	-0.801333	-0.800269
C97	C	0.457618	-0.774173	-0.773211
C98	C	0.405140	-0.821461	-0.820420
H99	H	0.559783	-0.859002	-0.792942
H100	H	0.559879	-0.794150	-0.857978
H101	H	0.444982	-0.781363	-0.715516
H102	H	0.445046	-0.716510	-0.780540
H103	H	0.417781	-0.814278	-0.878130
H104	H	0.417692	-0.879128	-0.813090
H105	H	0.344328	-0.803035	-0.802074
H106	H	0.500725	-0.563838	-0.563424
