data_functionalizedCrystal
_audit_creation_method	'MofGen! by Chris Wilmer'
_symmetry_space_group_name_H-M	'P1'
_symmetry_Int_Tables_number	1
_symmetry_cell_setting	triclinic
loop_
_symmetry_equiv_pos_as_xyz
  x,y,z
_cell_length_a	16.120484
_cell_length_b	19.805407
_cell_length_c	19.805399
_cell_angle_alpha	90.019197
_cell_angle_beta	92.871043
_cell_angle_gamma	87.078256
loop_
_atom_site_label
_atom_site_type_symbol
_atom_site_fract_x
_atom_site_fract_y
_atom_site_fract_z
Zn1	Zn	-0.332012	-1.021072	-0.396374
Zn2	Zn	0.167988	-0.521072	0.103626
Zn3	Zn	-0.471430	-1.015249	-0.288922
Zn4	Zn	0.028570	-0.515249	0.211078
Zn5	Zn	-0.332026	-0.907886	-0.283200
Zn6	Zn	0.167974	-0.407886	0.216800
Zn7	Zn	-0.471376	-0.902114	-0.402067
Zn8	Zn	0.028624	-0.402114	0.097933
O9	O	-0.401711	-0.961580	-0.342641
O10	O	0.098289	-0.461580	0.157359
O11	O	-0.350523	-1.115015	-0.382132
O12	O	0.149477	-0.615015	0.117868
O13	O	-0.452966	-1.000985	-0.193447
O14	O	0.047034	-0.500985	0.306553
O15	O	-0.215358	-0.927752	-0.293435
O16	O	0.284642	-0.427752	0.206565
O17	O	-0.452953	-1.110737	-0.303188
O18	O	0.047047	-0.610737	0.196812
O19	O	-0.215348	-1.010910	-0.376583
O20	O	0.284652	-0.510910	0.123417
O21	O	-0.350546	-0.922106	-0.189243
O22	O	0.149454	-0.422106	0.310757
O23	O	-0.350494	-0.812404	-0.298956
O24	O	0.149506	-0.312404	0.201044
O25	O	-0.452861	-0.917916	-0.496028
O26	O	0.047139	-0.417916	0.003972
O27	O	-0.452874	-0.808164	-0.386287
O28	O	0.047126	-0.308164	0.113713
O29	O	-0.350471	-1.005313	-0.491844
O30	O	0.149529	-0.505313	0.008156
O31	O	-0.588088	-0.995389	-0.308709
O32	O	-0.088088	-0.495389	0.191291
O33	O	-0.588049	-0.912270	-0.391836
O34	O	-0.088049	-0.412270	0.108164
C35	C	-0.401680	-0.785725	-0.342619
C36	C	0.098320	-0.285725	0.157381
C37	C	-0.401687	-0.710493	-0.342626
C38	C	0.098313	-0.210493	0.157374
C39	C	-0.348446	-0.677373	-0.383801
C40	C	0.151554	-0.177373	0.116199
C41	C	-0.348448	-0.606685	-0.383802
C42	C	0.151552	-0.106685	0.116198
C43	C	-0.401697	-0.569117	-0.342631
C44	C	0.098303	-0.069117	0.157369
C45	C	-0.454942	-0.602242	-0.301452
C46	C	0.045058	-0.102242	0.198548
C47	C	-0.454934	-0.672929	-0.301447
C48	C	0.045066	-0.172929	0.198553
C49	C	-0.454972	-0.317167	-0.301467
C50	C	0.045028	0.182833	0.198533
C51	C	-0.454977	-0.246475	-0.301475
C52	C	0.045023	0.253525	0.198525
C53	C	-0.348486	-0.250923	-0.383822
C54	C	0.151514	0.249077	0.116178
C55	C	-0.348479	-0.321610	-0.383817
C56	C	0.151521	0.178390	0.116183
C57	C	-0.401719	-0.354729	-0.342635
C58	C	0.098281	0.145271	0.157365
C59	C	-0.401715	-0.431378	-0.342634
C60	C	0.098285	0.068622	0.157366
C61	C	-0.401707	-0.492470	-0.342636
C62	C	0.098293	0.007530	0.157364
C63	C	-0.618319	-0.952590	-0.351526
C64	C	-0.118319	-0.452590	0.148474
C65	C	-0.710985	-0.948805	-0.355349
C66	C	-0.210985	-0.448805	0.144651
C67	C	-0.880646	-0.941900	-0.362344
C68	C	-0.380646	-0.441900	0.137656
C69	C	-0.921935	-0.981382	-0.322948
C70	C	-0.421935	-0.481382	0.177052
C71	C	-1.016341	-0.977540	-0.326840
C72	C	-0.516341	-0.477540	0.173160
C73	C	-0.786232	-0.945741	-0.358453
C74	C	-0.286232	-0.445741	0.141547
C75	C	-0.184257	-0.970624	-0.333736
C76	C	0.315743	-0.470624	0.166264
C77	C	-0.091591	-0.974478	-0.329941
C78	C	0.408409	-0.474478	0.170059
C79	C	-0.401658	-0.961620	-0.519181
C80	C	0.098342	-0.461620	-0.019181
C81	C	-0.401636	-0.961637	-0.594412
C82	C	0.098364	-0.461637	-0.094412
C83	C	-0.401736	-0.138122	-0.342657
C84	C	0.098264	0.361878	0.157343
C85	C	-0.401730	-0.213354	-0.342647
C86	C	0.098270	0.286646	0.157353
C87	C	-0.348319	-1.007146	-0.627579
C88	C	0.151681	-0.507146	-0.127579
C89	C	-0.348295	-1.007154	-0.698267
C90	C	0.151705	-0.507154	-0.198267
C91	C	-0.401593	-0.961656	-0.735786
C92	C	0.098407	-0.461656	-0.235786
C93	C	-0.454912	-0.916142	-0.702614
C94	C	0.045088	-0.416142	-0.202614
C95	C	-0.454932	-0.916132	-0.631928
C96	C	0.045068	-0.416132	-0.131928
C97	C	-0.454834	-0.916184	-0.987685
C98	C	0.045166	-0.416184	-0.487685
C99	C	-0.454813	-0.916199	-1.058376
C100	C	0.045187	-0.416199	-0.558376
C101	C	-0.348197	-1.007206	-1.054024
C102	C	0.151803	-0.507206	-0.554024
C103	C	-0.348217	-1.007196	-0.983337
C104	C	0.151783	-0.507196	-0.483337
C105	C	-0.401533	-0.961680	-0.950171
C106	C	0.098467	-0.461680	-0.450171
C107	C	-0.401557	-0.961671	-0.873524
C108	C	0.098443	-0.461671	-0.373524
C109	C	-0.401573	-0.961668	-0.812433
C110	C	0.098427	-0.461668	-0.312433
C111	C	-0.401703	-0.961582	-0.166784
C112	C	0.098297	-0.461582	0.333216
C113	C	-0.401491	-0.961705	-0.091544
C114	C	0.098509	-0.461705	0.408456
H115	H	-0.498324	-0.344124	-0.267934
H116	H	0.001676	0.155876	0.232066
H117	H	-0.305132	-0.223949	-0.417352
H118	H	0.194868	0.276051	0.082648
C119	C	-0.289544	-1.057269	-1.090508
C120	C	0.210456	-0.557269	-0.590508
H121	H	-0.297157	-1.050757	-1.137979
H122	H	0.202843	-0.550757	-0.637979
H123	H	-0.301760	-1.102236	-1.079431
H124	H	0.198240	-0.602236	-0.579431
H125	H	-0.233527	-1.049690	-1.076626
H126	H	0.266473	-0.549690	-0.576626
H127	H	-0.305120	-0.352195	-0.417345
H128	H	0.194880	0.147805	0.082655
H129	H	-0.498216	-0.879146	-1.088923
H130	H	0.001784	-0.379146	-0.588923
H131	H	-0.886383	-1.018068	-0.286296
H132	H	-0.386383	-0.518068	0.213704
H133	H	-0.304880	-1.044214	-0.725268
H134	H	0.195120	-0.544214	-0.225268
C135	C	-0.928667	-0.892337	-0.411848
C136	C	-0.428667	-0.392337	0.088152
H137	H	-0.986738	-0.896221	-0.407994
H138	H	-0.486738	-0.396221	0.092006
H139	H	-0.914404	-0.902775	-0.456761
H140	H	-0.414404	-0.402775	0.043239
H141	H	-0.914503	-0.847429	-0.401317
H142	H	-0.414503	-0.347429	0.098683
C143	C	-0.513507	-0.709361	-0.256161
C144	C	-0.013507	-0.209361	0.243839
H145	H	-0.545228	-0.676864	-0.231647
H146	H	-0.045228	-0.176864	0.268353
H147	H	-0.481569	-0.738249	-0.225400
H148	H	0.018431	-0.238249	0.274600
H149	H	-0.549873	-0.735438	-0.283501
H150	H	-0.049873	-0.235438	0.216499
H151	H	-0.304920	-1.044198	-0.597036
H152	H	0.195080	-0.544198	-0.097036
C153	C	-0.289874	-0.718695	-0.429091
C154	C	0.210126	-0.218695	0.070909
H155	H	-0.297499	-0.765537	-0.423197
H156	H	0.202501	-0.265537	0.076803
H157	H	-0.233844	-0.709427	-0.416963
H158	H	0.266156	-0.209427	0.083037
H159	H	-0.302157	-0.706618	-0.475058
H160	H	0.197843	-0.206618	0.024942
H161	H	-0.498294	-0.571649	-0.267926
H162	H	0.001706	-0.071649	0.232074
H163	H	-0.498341	-0.215889	-0.267946
H164	H	0.001659	0.284111	0.232054
C165	C	-0.289587	-1.057241	-0.942069
C166	C	0.210413	-0.557241	-0.442069
H167	H	-0.257822	-1.084342	-0.971947
H168	H	0.242178	-0.584342	-0.471947
H169	H	-0.321487	-1.085402	-0.915804
H170	H	0.178513	-0.585402	-0.415804
H171	H	-0.253263	-1.032849	-0.913005
H172	H	0.246737	-0.532849	-0.413005
C173	C	-0.513601	-0.866088	-0.595445
C174	C	-0.013601	-0.366088	-0.095445
H175	H	-0.545352	-0.839000	-0.627913
H176	H	-0.045352	-0.339000	-0.127913
H177	H	-0.481729	-0.837914	-0.566552
H178	H	0.018271	-0.337914	-0.066552
H179	H	-0.549936	-0.890482	-0.569371
H180	H	-0.049936	-0.390482	-0.069371
C181	C	-0.513463	-0.866105	-0.951210
C182	C	-0.013463	-0.366105	-0.451210
H183	H	-0.545200	-0.839011	-0.983681
H184	H	-0.045200	-0.339011	-0.483681
H185	H	-0.481555	-0.837942	-0.922333
H186	H	0.018445	-0.337942	-0.422333
H187	H	-0.549812	-0.890467	-0.925119
H188	H	-0.049812	-0.390467	-0.425119
C189	C	-0.513540	-0.866094	-0.743881
C190	C	-0.013540	-0.366094	-0.243881
H191	H	-0.545292	-0.838985	-0.714001
H192	H	-0.045292	-0.338985	-0.214001
H193	H	-0.549863	-0.890478	-0.772947
H194	H	-0.049863	-0.390478	-0.272947
H195	H	-0.481631	-0.837931	-0.770144
H196	H	0.018369	-0.337931	-0.270144
C197	C	-0.289884	-0.570256	-0.429096
C198	C	0.210116	-0.070256	0.070904
H199	H	-0.258178	-0.602753	-0.453622
H200	H	0.241822	-0.102753	0.046378
H201	H	-0.253517	-0.544178	-0.401765
H202	H	0.246483	-0.044178	0.098235
H203	H	-0.321832	-0.541369	-0.459858
H204	H	0.178168	-0.041369	0.040142
