data_functionalizedCrystal
_audit_creation_method	'MofGen! by Chris Wilmer'
_symmetry_space_group_name_H-M	'P1'
_symmetry_Int_Tables_number	1
_symmetry_cell_setting	triclinic
loop_
_symmetry_equiv_pos_as_xyz
  x,y,z
_cell_length_a	15.995343
_cell_length_b	12.837942
_cell_length_c	11.295483
_cell_angle_alpha	85.469583
_cell_angle_beta	85.899052
_cell_angle_gamma	90.840938
loop_
_atom_site_label
_atom_site_type_symbol
_atom_site_fract_x
_atom_site_fract_y
_atom_site_fract_z
O1	O	1.126724	-0.126607	-0.098903
O2	O	1.626724	0.373393	0.401097
O3	O	0.884267	-0.143113	-0.098932
O4	O	1.384267	0.356887	0.401068
O5	O	1.000119	0.016042	-0.098911
O6	O	1.500119	0.516042	0.401089
O7	O	1.010872	-0.285762	-0.098924
O8	O	1.510872	0.214238	0.401076
O9	O	0.989942	0.002085	0.099138
O10	O	1.489942	0.502085	0.599138
O11	O	0.874089	-0.157071	0.099117
O12	O	1.374089	0.342929	0.599117
O13	O	1.116547	-0.140564	0.099146
O14	O	1.616547	0.359436	0.599146
Cu15	Cu	0.994389	-0.150092	0.117215
Cu16	Cu	1.494389	0.349908	0.617215
Cu17	Cu	1.006425	-0.133586	-0.117001
Cu18	Cu	1.506425	0.366414	0.382999
O19	O	1.000695	-0.299720	0.099125
O20	O	1.500695	0.200280	0.599125
C21	C	0.847929	-0.149411	0.000089
C22	C	1.347929	0.350589	0.500089
C23	C	0.754816	-0.147368	0.000078
C24	C	1.254816	0.352632	0.500078
C25	C	0.584333	-0.143663	0.000095
C26	C	1.084333	0.356337	0.500095
C27	C	0.551821	-0.028776	0.000099
C28	C	1.051821	0.471224	0.500099
C29	C	0.454947	-0.026647	0.000556
C30	C	0.954947	0.473353	0.500556
C31	C	0.416481	-0.140014	0.000109
C32	C	0.916481	0.359986	0.500109
C33	C	0.444382	-0.205735	0.112977
C34	C	0.944382	0.294265	0.612977
C35	C	0.541278	-0.207104	0.113065
C36	C	1.041278	0.292896	0.613065
C37	C	0.552897	-0.192913	-0.112162
C38	C	1.052897	0.307087	0.387838
C39	C	0.456139	-0.188568	-0.113638
C40	C	0.956139	0.311432	0.386362
C41	C	0.321618	-0.137958	0.000121
C42	C	0.821618	0.362042	0.500121
C43	C	0.679195	-0.145723	0.000090
C44	C	1.179195	0.354277	0.500090
C45	C	0.991398	0.047684	0.000113
C46	C	1.491398	0.547684	0.500113
C47	C	0.980565	0.162761	0.000109
C48	C	1.480565	0.662761	0.500109
C49	C	1.152885	-0.134267	0.000122
C50	C	1.652885	0.365733	0.500122
C51	C	1.245998	-0.136309	0.000125
C52	C	1.745998	0.363691	0.500125
C53	C	1.009416	-0.331361	0.000099
C54	C	1.509416	0.168639	0.500099
C55	C	1.020249	-0.446438	0.000094
C56	C	1.520249	0.053562	0.500094
N57	N	0.985930	-0.161701	0.281950
N58	N	1.485930	0.338299	0.781950
C59	C	1.110803	0.403724	0.000100
C60	C	1.610803	0.903724	0.500100
C61	C	1.100628	0.511850	0.000097
C62	C	1.600628	1.011850	0.500097
C63	C	0.950041	0.487141	0.000091
C64	C	1.450041	0.987141	0.500091
C65	C	0.960216	0.379015	0.000095
C66	C	1.460216	0.879015	0.500095
C67	C	1.040599	0.337311	0.000101
C68	C	1.540599	0.837311	0.500101
C69	C	1.050773	0.229183	0.000112
C70	C	1.550773	0.729183	0.500112
C71	C	0.900187	0.204476	0.000098
C72	C	1.400187	0.704476	0.500098
C73	C	0.890012	0.312602	0.000095
C74	C	1.390012	0.812602	0.500095
N75	N	1.014890	-0.121968	-0.281736
N76	N	1.514890	0.378032	0.218264
C77	C	1.075780	-0.038343	0.531255
C78	C	1.575780	0.461657	1.031255
C79	C	1.069394	-0.047123	0.655918
C80	C	1.569394	0.452877	1.155918
C81	C	0.966767	-0.188036	0.655940
C82	C	1.466767	0.311964	1.155940
C83	C	0.973153	-0.179256	0.531277
C84	C	1.473153	0.320744	1.031277
C85	C	1.027662	-0.104408	0.468939
C86	C	1.527662	0.395592	0.968939
C87	C	1.034052	-0.095633	0.344275
C88	C	1.534052	0.404367	0.844275
C89	C	0.931422	-0.236541	0.344298
C90	C	1.431422	0.263459	0.844298
C91	C	0.925036	-0.245321	0.468961
C92	C	1.425036	0.254679	0.968961
H93	H	0.560557	-0.173534	0.197760
H94	H	1.060557	0.326466	0.697760
Cl95	Cl	1.211851	0.351290	0.000137
Cl96	Cl	1.711851	0.851290	0.500137
H97	H	1.120169	0.022595	0.480499
H98	H	1.620169	0.522595	0.980499
H99	H	1.157795	0.565921	0.000092
H100	H	1.657795	1.065921	0.500092
H101	H	0.580434	0.021458	-0.080827
H102	H	1.080434	0.521458	0.419173
H103	H	0.824566	0.346573	0.000086
H104	H	1.324566	0.846573	0.500086
Cl105	Cl	0.811925	0.120977	0.000115
Cl106	Cl	1.311925	0.620977	0.500115
H107	H	0.436476	0.024273	-0.080336
H108	H	0.936476	0.524273	0.419664
Cl109	Cl	0.401794	-0.153717	0.243163
Cl110	Cl	0.901794	0.346283	0.743163
Cl111	Cl	0.898236	-0.282115	0.734319
Cl112	Cl	1.398236	0.217885	1.234319
H113	H	0.884597	0.521116	0.000074
H114	H	1.384597	1.021116	0.500074
H115	H	1.078439	-0.034691	0.293520
H116	H	1.578439	0.465309	0.793520
Cl117	Cl	1.129885	0.035936	0.734255
Cl118	Cl	1.629885	0.535936	1.234255
H119	H	0.880653	-0.306259	0.519731
H120	H	1.380653	0.193741	1.019731
H121	H	0.892244	-0.290338	0.293546
H122	H	1.392244	0.209662	0.793546
Cl123	Cl	0.584757	0.030066	0.124883
Cl124	Cl	1.084757	0.530066	0.624883
H125	H	0.428737	0.012625	0.081942
H126	H	0.928737	0.512625	0.581942
Cl127	Cl	0.405189	-0.335010	0.118970
Cl128	Cl	0.905189	0.164990	0.618970
Cl129	Cl	0.573779	-0.337699	0.120499
Cl130	Cl	1.073779	0.162301	0.620499
Cl131	Cl	0.598865	-0.127637	-0.244288
Cl132	Cl	1.098865	0.372363	0.255712
Cl133	Cl	1.151824	0.176755	0.000128
Cl134	Cl	1.651824	0.676755	0.500128
H135	H	0.430153	-0.270804	-0.120807
H136	H	0.930153	0.229196	0.379193
Cl137	Cl	0.428959	-0.114512	-0.242561
Cl138	Cl	0.928959	0.385488	0.257439
H139	H	0.573713	-0.277400	-0.113254
H140	H	1.073713	0.222600	0.386746
