data_functionalizedCrystal
_audit_creation_method	'MofGen! by Chris Wilmer'
_symmetry_space_group_name_H-M	'P1'
_symmetry_Int_Tables_number	1
_symmetry_cell_setting	triclinic
loop_
_symmetry_equiv_pos_as_xyz
  x,y,z
_cell_length_a	10.723024
_cell_length_b	17.038272
_cell_length_c	9.198806
_cell_angle_alpha	89.996565
_cell_angle_beta	89.996352
_cell_angle_gamma	87.789713
loop_
_atom_site_label
_atom_site_type_symbol
_atom_site_fract_x
_atom_site_fract_y
_atom_site_fract_z
O1	O	1.667337	0.109720	-0.120885
O2	O	1.305156	0.120222	-0.120890
O3	O	1.484094	0.001144	-0.120876
O4	O	1.488399	0.228799	-0.120899
O5	O	1.484079	0.001144	0.120909
O6	O	1.305141	0.120222	0.120895
O7	O	1.667322	0.109720	0.120900
Cu8	Cu	1.486230	0.114971	0.142975
Cu9	Cu	1.486248	0.114971	-0.142964
O10	O	1.488384	0.228798	0.120886
C11	C	1.258578	0.119458	0.000002
C12	C	1.119813	0.117171	0.000000
C13	C	1.480171	-0.028006	0.000016
C14	C	1.468489	-0.114864	0.000016
C15	C	1.050993	0.183801	-0.000007
C16	C	0.907571	0.181440	-0.000009
C17	C	1.575744	-0.164385	0.000019
C18	C	1.564760	-0.245996	0.000005
C19	C	1.446520	-0.278084	-0.000002
C20	C	1.339256	-0.228557	-0.000009
C21	C	1.350241	-0.146947	-0.000006
C22	C	1.407711	-0.524057	-0.000022
C23	C	1.396734	-0.605673	-0.000021
C24	C	1.622239	-0.623107	-0.000010
C25	C	1.633214	-0.541495	0.000002
C26	C	1.525950	-0.491974	-0.000013
C27	C	1.435289	-0.361504	-0.000011
C28	C	1.537182	-0.408556	-0.000014
C29	C	1.713900	0.110484	0.000005
C30	C	1.852666	0.112771	-0.000003
C31	C	1.492307	0.257948	-0.000009
C32	C	1.503989	0.344806	-0.000018
N33	N	1.486226	0.114970	0.344089
N34	N	1.486261	0.114966	-0.344078
C35	C	1.561337	0.064752	0.416291
C36	C	1.561356	0.064749	0.583704
H37	H	1.098254	0.242594	-0.000005
C38	C	1.763285	-0.506205	0.000001
C39	C	1.801847	-0.452508	0.125558
C40	C	1.931921	-0.417221	0.125562
C41	C	2.023434	-0.435632	0.000009
C42	C	1.984875	-0.489332	-0.125558
C43	C	1.854801	-0.524619	-0.125562
H44	H	1.734101	-0.438876	0.218508
H45	H	1.960464	-0.377468	0.218515
H46	H	2.119723	-0.409511	0.000012
H47	H	2.052621	-0.502964	-0.218508
H48	H	1.826257	-0.564372	-0.218515
H49	H	1.339017	-0.387640	-0.000014
C50	C	0.932563	0.035704	0.000006
C51	C	0.920800	-0.023332	-0.125541
C52	C	1.000708	-0.100399	-0.125532
C53	C	1.092379	-0.118429	0.000024
C54	C	1.104146	-0.059391	0.125580
C55	C	1.024238	0.017675	0.125571
H56	H	0.852936	-0.009987	-0.218493
H57	H	0.991997	-0.144103	-0.218477
H58	H	1.151532	-0.175478	0.000030
H59	H	1.172010	-0.072737	0.218532
H60	H	1.032949	0.061379	0.218516
H61	H	1.421957	0.157965	0.593840
H62	H	1.421931	0.157959	0.406212
H63	H	1.072552	0.058378	-0.000031
H64	H	1.625624	0.021757	0.354170
H65	H	0.848415	0.238480	-0.000021
C66	C	1.289728	-0.469588	-0.000022
C67	C	1.266266	-0.411088	0.125529
C68	C	1.148278	-0.356612	0.125531
C69	C	1.053753	-0.360636	-0.000018
C70	C	1.077213	-0.419139	-0.125578
C71	C	1.195200	-0.473614	-0.125581
H72	H	1.336241	-0.408106	0.218476
H73	H	1.130913	-0.313305	0.218480
H74	H	0.966412	-0.320310	-0.000016
H75	H	1.007237	-0.422120	-0.218526
H76	H	1.212566	-0.516922	-0.218530
C77	C	1.648234	0.006664	0.667574
C78	C	1.648171	0.006769	0.834979
C79	C	1.735052	-0.051319	0.918852
C80	C	1.821996	-0.109512	0.835320
C81	C	1.822061	-0.109619	0.667905
C82	C	1.735180	-0.051531	0.584032
H83	H	1.583808	0.049848	0.896823
H84	H	1.735003	-0.051239	1.042784
H85	H	1.886310	-0.152511	0.897407
H86	H	1.886425	-0.152698	0.606061
H87	H	1.735230	-0.051611	0.460100
H88	H	1.652100	-0.286314	0.000011
H89	H	1.672028	-0.138265	0.000033
H90	H	1.709567	-0.663435	-0.000001
H91	H	1.300443	-0.631796	-0.000003
H92	H	1.242982	-0.254689	-0.000024
H93	H	1.262902	-0.106627	-0.000008
H94	H	1.633453	-0.382426	-0.000040
