data_functionalizedCrystal
_audit_creation_method	'MofGen! by Chris Wilmer'
_symmetry_space_group_name_H-M	'P1'
_symmetry_Int_Tables_number	1
_symmetry_cell_setting	triclinic
loop_
_symmetry_equiv_pos_as_xyz
  x,y,z
_cell_length_a	19.121459
_cell_length_b	19.121241
_cell_length_c	19.120904
_cell_angle_alpha	89.875472
_cell_angle_beta	90.078301
_cell_angle_gamma	89.914667
loop_
_atom_site_label
_atom_site_type_symbol
_atom_site_fract_x
_atom_site_fract_y
_atom_site_fract_z
Zn1	Zn	-0.252666	1.066084	-0.431907
Zn2	Zn	0.247334	1.566084	0.068093
Zn3	Zn	-0.364500	1.075968	-0.310116
Zn4	Zn	0.135500	1.575968	0.189884
Zn5	Zn	-0.252250	0.953832	-0.309693
Zn6	Zn	0.247750	1.453832	0.190307
Zn7	Zn	-0.374414	0.954217	-0.421899
Zn8	Zn	0.125586	1.454217	0.078101
O9	O	-0.310957	1.012525	-0.368404
O10	O	0.189043	1.512525	0.131596
O11	O	-0.263525	1.165326	-0.420116
O12	O	0.236475	1.665326	0.079884
O13	O	-0.345287	1.063742	-0.212132
O14	O	0.154713	1.563742	0.287868
O15	O	-0.154377	0.964425	-0.329916
O16	O	0.345623	1.464425	0.170084
O17	O	-0.345689	1.172588	-0.330637
O18	O	0.154311	1.672588	0.169363
O19	O	-0.154682	1.046896	-0.419706
O20	O	0.345318	1.546896	0.080294
O21	O	-0.262817	0.974009	-0.211821
O22	O	0.237183	1.474009	0.288179
O23	O	-0.272431	0.855952	-0.320212
O24	O	0.227569	1.355952	0.179788
O25	O	-0.362586	0.965081	-0.521155
O26	O	0.137414	1.465081	-0.021155
O27	O	-0.362184	0.856235	-0.402650
O28	O	0.137816	1.356235	0.097350
O29	O	-0.273139	1.047269	-0.528507
O30	O	0.226861	1.547269	-0.028507
O31	O	-0.463743	1.064115	-0.320933
O32	O	0.036257	1.564115	0.179067
O33	O	-0.471027	0.974665	-0.403060
O34	O	0.028973	1.474665	0.096940
C35	C	-0.318338	0.830701	-0.360300
C36	C	0.181662	1.330701	0.139700
C37	C	-0.321514	0.752916	-0.356848
C38	C	0.178486	1.252916	0.143152
C39	C	-0.280301	0.712593	-0.401879
C40	C	0.219699	1.212593	0.098121
C41	C	-0.283281	0.639505	-0.398631
C42	C	0.216719	1.139505	0.101369
C43	C	-0.327478	0.606743	-0.350354
C44	C	0.172522	1.106743	0.149646
C45	C	-0.368692	0.647071	-0.305318
C46	C	0.131308	1.147071	0.194682
C47	C	-0.365708	0.720157	-0.308564
C48	C	0.134292	1.220157	0.191436
C49	C	-0.338620	0.386260	-0.338217
C50	C	0.161380	0.886260	0.161783
C51	C	-0.341603	0.313168	-0.334976
C52	C	0.158397	0.813168	0.165024
C53	C	-0.256191	0.305607	-0.428288
C54	C	0.243809	0.805607	0.071712
C55	C	-0.253214	0.378695	-0.431532
C56	C	0.246786	0.878695	0.068468
C57	C	-0.294425	0.419017	-0.386494
C58	C	0.205575	0.919017	0.113506
C59	C	-0.330526	0.532036	-0.347034
C60	C	0.169474	1.032036	0.152966
C61	C	-0.291372	0.493723	-0.389812
C62	C	0.208628	0.993723	0.110188
C63	C	-0.492777	1.020523	-0.360973
C64	C	0.007223	1.520523	0.139027
C65	C	-0.570559	1.024007	-0.357820
C66	C	-0.070559	1.524007	0.142180
C67	C	-1.010284	1.046067	-0.337828
C68	C	-0.510284	1.546067	0.162172
C69	C	-0.937200	1.042786	-0.340792
C70	C	-0.437200	1.542786	0.159208
C71	C	-0.904478	0.994544	-0.384997
C72	C	-0.404478	1.494544	0.115003
C73	C	-0.944844	0.949575	-0.426236
C74	C	-0.444844	1.449575	0.073764
C75	C	-1.017926	0.952852	-0.423268
C76	C	-0.517926	1.452852	0.076732
C77	C	-0.684007	0.982315	-0.396091
C78	C	-0.184007	1.482315	0.103909
C79	C	-0.610919	0.979042	-0.399058
C80	C	-0.110919	1.479042	0.100942
C81	C	-0.603280	1.072253	-0.313612
C82	C	-0.103280	1.572253	0.186388
C83	C	-0.676364	1.075529	-0.310651
C84	C	-0.176364	1.575529	0.189349
C85	C	-0.716724	1.030557	-0.351888
C86	C	-0.216724	1.530557	0.148112
C87	C	-0.829774	0.991192	-0.388029
C88	C	-0.329774	1.491192	0.111971
C89	C	-0.791426	1.033907	-0.348852
C90	C	-0.291426	1.533907	0.151148
C91	C	-0.128427	1.004515	-0.375880
C92	C	0.371573	1.504515	0.124120
C93	C	-0.050644	1.001102	-0.379066
C94	C	0.449356	1.501102	0.120934
C95	C	-0.319015	1.005115	-0.550933
C96	C	0.180985	1.505115	-0.050933
C97	C	-0.322448	1.001958	-0.628716
C98	C	0.177552	1.501958	-0.128716
C99	C	-0.303548	1.195060	-0.376540
C100	C	0.196452	1.695060	0.123460
C101	C	-0.300390	1.272845	-0.380007
C102	C	0.199610	1.772845	0.119993
C103	C	-0.277493	1.043263	-0.669088
C104	C	0.222507	1.543263	-0.169088
C105	C	-0.280717	1.040288	-0.742173
C106	C	0.219283	1.540288	-0.242173
C107	C	-0.328900	0.996010	-0.774885
C108	C	0.171100	1.496010	-0.274885
C109	C	-0.373857	0.954700	-0.734508
C110	C	0.126143	1.454700	-0.234508
C111	C	-0.370629	0.957672	-0.661424
C112	C	0.129371	1.457672	-0.161424
C113	C	-0.340972	0.984891	-0.995359
C114	C	0.159028	1.484891	-0.495359
C115	C	-0.344198	0.981923	-1.068448
C116	C	0.155802	1.481923	-0.568448
C117	C	-0.251056	1.067511	-1.076108
C118	C	0.248944	1.567511	-0.576108
C119	C	-0.247836	1.070482	-1.003023
C120	C	0.252164	1.570482	-0.503023
C121	C	-0.292791	1.029169	-0.962652
C122	C	0.207209	1.529169	-0.462652
C123	C	-0.332198	0.992969	-0.849590
C124	C	0.167802	1.492969	-0.349590
C125	C	-0.289489	1.032207	-0.887949
C126	C	0.210511	1.532207	-0.387949
C127	C	-0.302879	1.019944	-0.186589
C128	C	0.197121	1.519944	0.313411
C129	C	-0.299243	1.023229	-0.108820
C130	C	0.200757	1.523229	0.391180
H131	H	-0.404674	0.620390	-0.266007
H132	H	0.095326	1.120390	0.233993
H133	H	-0.249723	0.606677	-0.435301
H134	H	0.250277	1.106677	0.064699
O135	O	-0.414379	0.917534	-0.622309
O136	O	0.085621	1.417534	-0.122309
C137	C	-0.457592	0.877807	-0.666852
C138	C	0.042408	1.377807	-0.166852
H139	H	-0.461145	0.904455	-0.720131
H140	H	0.038855	1.404455	-0.220131
H141	H	-0.512102	0.873631	-0.643146
H142	H	-0.012102	1.373631	-0.143146
H143	H	-0.434475	0.823212	-0.673296
H144	H	0.065525	1.323212	-0.173296
O145	O	-0.384440	0.281264	-0.288040
O146	O	0.115560	0.781264	0.211960
C147	C	-0.344257	0.239062	-0.242655
C148	C	0.155743	0.739062	0.257345
H149	H	-0.292805	0.224775	-0.269108
H150	H	0.207195	0.724775	0.230892
H151	H	-0.374429	0.189306	-0.229783
H152	H	0.125571	0.689306	0.270217
H153	H	-0.333044	0.268979	-0.192374
H154	H	0.166956	0.768979	0.307626
H155	H	-0.217227	0.405365	-0.470847
H156	H	0.282773	0.905365	0.029153
O157	O	-0.708004	1.122534	-0.267758
O158	O	-0.208004	1.622534	0.232242
C159	C	-0.687849	1.190800	-0.287024
C160	C	-0.187849	1.690800	0.212976
H161	H	-0.635931	1.188658	-0.316184
H162	H	-0.135931	1.688658	0.183816
H163	H	-0.681743	1.224186	-0.238078
H164	H	-0.181743	1.724186	0.261922
H165	H	-0.729572	1.214756	-0.322389
H166	H	-0.229572	1.714756	0.177611
O167	O	-0.378761	0.425390	-0.294540
O168	O	0.121239	0.925390	0.205460
C169	C	-0.449929	0.409979	-0.306065
C170	C	0.050071	0.909979	0.193935
H171	H	-0.456835	0.387795	-0.360928
H172	H	0.043165	0.887795	0.139072
H173	H	-0.482265	0.459811	-0.300695
H174	H	0.017735	0.959811	0.199305
H175	H	-0.468235	0.369871	-0.265892
H176	H	0.031765	0.869871	0.234108
O177	O	-1.042179	1.092921	-0.294960
O178	O	-0.542179	1.592921	0.205040
C179	C	-1.115338	1.086169	-0.301175
C180	C	-0.615338	1.586169	0.198825
H181	H	-1.128638	1.061450	-0.353729
H182	H	-0.628638	1.561450	0.146271
H183	H	-1.140722	1.140031	-0.297699
H184	H	-0.640722	1.640031	0.202301
H185	H	-1.135814	1.051568	-0.257126
H186	H	-0.635814	1.551568	0.242874
O187	O	-0.898098	1.086542	-0.300715
O188	O	-0.398098	1.586542	0.199285
C189	C	-0.942651	1.129817	-0.261055
C190	C	-0.442651	1.629817	0.238945
H191	H	-0.995903	1.133385	-0.287714
H192	H	-0.495903	1.633385	0.212286
H193	H	-0.918919	1.184314	-0.256957
H194	H	-0.418919	1.684314	0.243043
H195	H	-0.949156	1.106746	-0.206426
H196	H	-0.449156	1.606746	0.293574
O197	O	-0.564044	1.115833	-0.273475
O198	O	-0.064044	1.615833	0.226525
C199	C	-0.521430	1.075964	-0.228199
C200	C	-0.021430	1.575964	0.271801
H201	H	-0.545554	1.022016	-0.220485
H202	H	-0.045554	1.522016	0.279515
H203	H	-0.517189	1.103461	-0.175526
H204	H	-0.017189	1.603461	0.324474
H205	H	-0.467091	1.070176	-0.251975
H206	H	0.032909	1.570176	0.248025
O207	O	-0.237145	1.080441	-0.781469
O208	O	0.262855	1.580441	-0.281469
C209	C	-0.277014	1.125678	-0.824125
C210	C	0.222986	1.625678	-0.324125
H211	H	-0.331535	1.102882	-0.831796
H212	H	0.168465	1.602882	-0.331796
H213	H	-0.250397	1.131704	-0.877105
H214	H	0.249603	1.631704	-0.377105
H215	H	-0.281350	1.179027	-0.797969
H216	H	0.218650	1.679027	-0.297969
O217	O	-0.391070	0.939006	-1.100263
O218	O	0.108930	1.439006	-0.600263
C219	C	-0.436510	0.979107	-1.142479
C220	C	0.063490	1.479107	-0.642479
H221	H	-0.437637	1.035308	-1.122732
H222	H	0.062363	1.535308	-0.622732
H223	H	-0.491426	0.956115	-1.139981
H224	H	0.008574	1.456115	-0.639981
H225	H	-0.417214	0.978326	-1.198859
H226	H	0.082786	1.478326	-0.698859
H227	H	-0.238259	1.079321	-0.642459
H228	H	0.261741	1.579321	-0.142459
O229	O	-0.242649	1.075121	-0.856097
O230	O	0.257351	1.575121	-0.356097
C231	C	-0.197190	1.035010	-0.813911
C232	C	0.302810	1.535010	-0.313911
H233	H	-0.223538	0.983501	-0.799588
H234	H	0.276462	1.483501	-0.299588
H235	H	-0.184388	1.065190	-0.764172
H236	H	0.315612	1.565190	-0.264172
H237	H	-0.146884	1.023905	-0.843857
H238	H	0.353116	1.523905	-0.343857
O239	O	-0.384672	0.944862	-0.956083
O240	O	0.115328	1.444862	-0.456083
C241	C	-0.426407	0.988398	-0.913744
C242	C	0.073593	1.488398	-0.413744
H243	H	-0.399093	1.040794	-0.906158
H244	H	0.100907	1.540794	-0.406158
H245	H	-0.434679	0.962381	-0.860701
H246	H	0.065321	1.462381	-0.360701
H247	H	-0.479196	0.997221	-0.940134
H248	H	0.020804	1.497221	-0.440134
O249	O	-0.913025	0.902810	-0.469258
O250	O	-0.413025	1.402810	0.030742
C251	C	-0.871068	0.938888	-0.517967
C252	C	-0.371068	1.438888	-0.017967
H253	H	-0.890997	0.994809	-0.523895
H254	H	-0.390997	1.494809	-0.023895
H255	H	-0.873650	0.911316	-0.570708
H256	H	-0.373650	1.411316	-0.070708
H257	H	-0.814631	0.939714	-0.498689
H258	H	-0.314631	1.439714	0.001311
O259	O	-1.057030	0.909146	-0.463398
O260	O	-0.557030	1.409146	0.036602
C261	C	-1.012480	0.865852	-0.503040
C262	C	-0.512480	1.365852	-0.003040
H263	H	-0.959300	0.892078	-0.508880
H264	H	-0.459300	1.392078	-0.008880
H265	H	-1.036325	0.857053	-0.556979
H266	H	-0.536325	1.357053	-0.056979
H267	H	-1.005790	0.813417	-0.475318
H268	H	-0.505790	1.313417	0.024682
H269	H	-0.399267	0.752988	-0.271895
H270	H	0.100733	1.252988	0.228105
H271	H	-0.208602	1.106540	-0.976394
H272	H	0.291398	1.606540	-0.476394
O273	O	-0.248485	0.525466	-0.436800
O274	O	0.251515	1.025466	0.063200
C275	C	-0.267711	0.505487	-0.505100
C276	C	0.232289	1.005487	-0.005100
H277	H	-0.296838	0.453549	-0.503053
H278	H	0.203162	0.953549	-0.003053
H279	H	-0.218749	0.499497	-0.538520
H280	H	0.281251	0.999497	-0.038520
H281	H	-0.303092	0.547258	-0.528958
H282	H	0.196908	1.047258	-0.028958
H283	H	-0.413087	0.918645	-0.761148
H284	H	0.086913	1.418645	-0.261148
O285	O	-0.373384	0.500242	-0.300048
O286	O	0.126616	1.000242	0.199952
C287	C	-0.354195	0.520252	-0.231746
C288	C	0.145805	1.020252	0.268254
H289	H	-0.297313	0.538019	-0.231474
H290	H	0.202687	1.038019	0.268526
H291	H	-0.360606	0.473847	-0.194787
H292	H	0.139394	0.973847	0.305213
H293	H	-0.389148	0.565067	-0.213746
H294	H	0.110852	1.065067	0.286254
H295	H	-0.584281	0.939756	-0.435057
H296	H	-0.084281	1.439756	0.064943
H297	H	-0.818071	1.073183	-0.312858
H298	H	-0.318071	1.573183	0.187142
O299	O	-0.237309	0.744303	-0.448798
O300	O	0.262691	1.244303	0.051202
C301	C	-0.201587	0.693036	-0.487858
C302	C	0.298413	1.193036	0.012142
H303	H	-0.199980	0.641989	-0.456984
H304	H	0.300020	1.141989	0.043016
H305	H	-0.145933	0.711416	-0.498606
H306	H	0.354067	1.211416	0.001394
H307	H	-0.229959	0.684249	-0.539568
H308	H	0.270041	1.184249	-0.039568
O309	O	-0.216259	0.266363	-0.472058
O310	O	0.283741	0.766363	0.027942
C311	C	-0.259887	0.224035	-0.513697
C312	C	0.240113	0.724035	-0.013697
H313	H	-0.312237	0.216423	-0.486279
H314	H	0.187763	0.716423	0.013721
H315	H	-0.233910	0.171004	-0.522004
H316	H	0.266090	0.671004	-0.022004
H317	H	-0.268794	0.250450	-0.566479
H318	H	0.231206	0.750450	-0.066479
H319	H	-0.214456	1.101144	-1.108986
H320	H	0.285544	1.601144	-0.608986
O321	O	-0.723101	0.938603	-0.436219
O322	O	-0.223101	1.438603	0.063781
C323	C	-0.678546	0.895313	-0.475859
C324	C	-0.178546	1.395313	0.024141
H325	H	-0.625368	0.921544	-0.481697
H326	H	-0.125368	1.421544	0.018303
H327	H	-0.702388	0.886512	-0.529799
H328	H	-0.202388	1.386512	-0.029799
H329	H	-0.671852	0.842880	-0.448136
H330	H	-0.171852	1.342880	0.051864
O331	O	-0.797951	0.944433	-0.431054
O332	O	-0.297951	1.444433	0.068946
C333	C	-0.755990	0.980519	-0.479755
C334	C	-0.255990	1.480519	0.020245
H335	H	-0.775922	1.036439	-0.485681
H336	H	-0.275922	1.536439	0.014319
H337	H	-0.758562	0.952950	-0.532498
H338	H	-0.258562	1.452950	-0.032498
H339	H	-0.699556	0.981347	-0.460468
H340	H	-0.199556	1.481347	0.039532
H341	H	-0.371432	0.956921	-0.876232
H342	H	0.128568	1.456921	-0.376232
