data_functionalizedCrystal
_audit_creation_method	'MofGen! by Chris Wilmer'
_symmetry_space_group_name_H-M	'P1'
_symmetry_Int_Tables_number	1
_symmetry_cell_setting	triclinic
loop_
_symmetry_equiv_pos_as_xyz
  x,y,z
_cell_length_a	14.044191
_cell_length_b	14.044190
_cell_length_c	12.996460
_cell_angle_alpha	89.989157
_cell_angle_beta	89.997003
_cell_angle_gamma	93.191777
loop_
_atom_site_label
_atom_site_type_symbol
_atom_site_fract_x
_atom_site_fract_y
_atom_site_fract_z
O1	O	1.277180	0.230203	-0.085538
O2	O	1.610513	0.563536	0.247795
O3	O	1.943846	0.896869	0.581128
O4	O	1.000507	0.221890	-0.085551
O5	O	1.333840	0.555223	0.247783
O6	O	1.667174	0.888557	0.581116
O7	O	1.134687	0.087710	-0.085525
O8	O	1.468020	0.421043	0.247809
O9	O	1.801354	0.754377	0.581142
O10	O	1.143000	0.364383	-0.085565
O11	O	1.476333	0.697716	0.247769
O12	O	1.809666	1.031049	0.581102
O13	O	1.134671	0.087701	0.085609
O14	O	1.468004	0.421034	0.418943
O15	O	1.801338	0.754367	0.752276
O16	O	1.000491	0.221880	0.085583
O17	O	1.333824	0.555214	0.418916
O18	O	1.667158	0.888547	0.752250
O19	O	1.277164	0.230193	0.085595
O20	O	1.610497	0.563527	0.418929
O21	O	1.943830	0.896860	0.752262
Cu22	Cu	1.138826	0.226036	0.101215
Cu23	Cu	1.472159	0.559369	0.434548
Cu24	Cu	1.805493	0.892703	0.767882
Cu25	Cu	1.138845	0.226047	-0.101170
Cu26	Cu	1.472178	0.559380	0.232163
Cu27	Cu	1.805512	0.892714	0.565496
O28	O	1.142984	0.364373	0.085569
O29	O	1.476317	0.697707	0.418902
O30	O	1.809651	1.031040	0.752236
C31	C	0.964877	0.218249	0.000015
C32	C	1.298210	0.551582	0.333348
C33	C	1.631544	0.884915	0.666682
C34	C	0.858734	0.207401	0.000011
C35	C	1.192067	0.540735	0.333344
C36	C	1.525400	0.874068	0.666678
C37	C	0.613277	0.264502	0.000013
C38	C	0.946610	0.597835	0.333346
C39	C	1.279943	0.931169	0.666680
C40	C	0.664400	0.187585	0.000023
C41	C	0.997734	0.520919	0.333356
C42	C	1.331067	0.854252	0.666689
C43	C	0.772537	0.198614	0.000016
C44	C	1.105871	0.531947	0.333349
C45	C	1.439204	0.865280	0.666683
C46	C	0.505130	0.253475	0.000019
C47	C	0.838463	0.586809	0.333353
C48	C	1.171796	0.920142	0.666686
C49	C	1.131043	0.052083	0.000045
C50	C	1.464376	0.385416	0.333379
C51	C	1.797709	0.718750	0.666712
C52	C	1.120195	-0.054060	0.000054
C53	C	1.453529	0.279273	0.333387
C54	C	1.786862	0.612606	0.666720
C55	C	1.177296	-0.299517	0.000016
C56	C	1.510629	0.033816	0.333349
C57	C	1.843963	0.367149	0.666683
C58	C	1.100379	-0.248394	0.000020
C59	C	1.433713	0.084940	0.333353
C60	C	1.767046	0.418273	0.666686
C61	C	1.111408	-0.140257	0.000039
C62	C	1.444741	0.193077	0.333372
C63	C	1.778074	0.526410	0.666705
C64	C	1.166269	-0.407664	-0.000003
C65	C	1.499602	-0.074331	0.333330
C66	C	1.832936	0.259002	0.666664
C67	C	1.312794	0.233834	0.000027
C68	C	1.646127	0.567168	0.333361
C69	C	1.979461	0.900501	0.666694
C70	C	1.418937	0.244682	0.000024
C71	C	1.752271	0.578015	0.333358
C72	C	2.085604	0.911348	0.666691
C73	C	1.146628	0.400000	-0.000003
C74	C	1.479962	0.733333	0.333330
C75	C	1.813295	1.066667	0.666664
C76	C	1.157476	0.506143	-0.000018
C77	C	1.490809	0.839477	0.333315
C78	C	1.824142	1.172810	0.666649
N79	N	1.138820	0.226028	0.243562
N80	N	1.472153	0.559361	0.576896
N81	N	1.805486	0.892695	0.910229
N82	N	1.138858	0.226048	-0.243518
N83	N	1.472191	0.559381	0.089816
N84	N	1.805525	0.892715	0.423149
C85	C	1.138844	0.226048	0.663376
C86	C	1.472177	0.559381	0.996710
C87	C	1.805510	0.892715	1.330043
C88	C	1.138834	0.226045	0.546571
C89	C	1.472168	0.559379	0.879905
C90	C	1.805501	0.892712	1.213238
C91	C	1.138832	0.226039	0.453473
C92	C	1.472166	0.559372	0.786806
C93	C	1.805499	0.892705	1.120140
C94	C	1.138822	0.226035	0.336660
C95	C	1.472155	0.559368	0.669994
C96	C	1.805489	0.892701	1.003327
H97	H	1.026247	-0.285839	0.000011
H98	H	1.359580	0.047494	0.333344
H99	H	1.692913	0.380828	0.666677
H100	H	0.650720	0.338629	-0.000001
H101	H	0.984053	0.671962	0.333333
H102	H	1.317386	1.005295	0.666666
H103	H	1.251423	-0.262074	0.000030
H104	H	1.584756	0.071259	0.333363
H105	H	1.918089	0.404592	0.666696
H106	H	0.626955	0.113453	-0.000039
H107	H	0.960288	0.446786	0.333294
H108	H	1.293622	0.780119	0.666627
