data_functionalizedCrystal
_audit_creation_method	'MofGen! by Chris Wilmer'
_symmetry_space_group_name_H-M	'P1'
_symmetry_Int_Tables_number	1
_symmetry_cell_setting	triclinic
loop_
_symmetry_equiv_pos_as_xyz
  x,y,z
_cell_length_a	12.837943
_cell_length_b	17.038272
_cell_length_c	11.295483
_cell_angle_alpha	94.391706
_cell_angle_beta	85.461227
_cell_angle_gamma	92.970248
loop_
_atom_site_label
_atom_site_type_symbol
_atom_site_fract_x
_atom_site_fract_y
_atom_site_fract_z
O1	O	1.400057	0.199823	-0.099006
O2	O	1.097361	0.189716	-0.099013
O3	O	1.246909	0.080820	-0.099000
O4	O	1.250509	0.308719	-0.099019
O5	O	1.233773	0.090368	0.099049
O6	O	1.084224	0.199264	0.099036
O7	O	1.386921	0.209371	0.099043
Cu8	Cu	1.234373	0.205189	0.117123
Cu9	Cu	1.249908	0.193897	-0.117093
O10	O	1.237372	0.318267	0.099030
C11	C	1.051871	0.191076	0.000011
C12	C	0.935896	0.180893	0.000008
C13	C	0.705733	0.303310	0.000015
C14	C	0.596764	0.293746	0.000014
C15	C	0.608986	0.152201	0.000013
C16	C	0.717955	0.161765	0.000014
C17	C	0.766324	0.237322	0.000014
C18	C	0.875296	0.246885	0.000007
C19	C	0.887516	0.105342	0.000014
C20	C	0.778546	0.095777	0.000013
C21	C	1.237069	0.056221	0.000024
C22	C	1.227305	-0.031301	0.000024
C23	C	1.316945	-0.074719	0.000027
C24	C	1.307766	-0.156956	0.000015
C25	C	1.208945	-0.195773	0.000009
C26	C	1.119299	-0.152349	0.000002
C27	C	1.128480	-0.070114	0.000005
C28	C	1.176511	-0.443954	-0.000008
C29	C	1.167337	-0.526195	-0.000007
C30	C	1.355805	-0.530796	0.000004
C31	C	1.364977	-0.448559	0.000014
C32	C	1.275331	-0.405143	0.000001
C33	C	1.199560	-0.279832	0.000001
C34	C	1.284718	-0.321086	0.000000
C35	C	1.432411	0.208011	0.000017
C36	C	1.548386	0.218194	0.000011
C37	C	1.247213	0.342865	0.000003
C38	C	1.256977	0.430387	-0.000004
N39	N	1.223454	0.213132	0.281859
N40	N	1.260835	0.185950	-0.281829
C41	C	1.339435	0.128734	0.531158
C42	C	1.331191	0.134742	0.655821
C43	C	1.198717	0.231151	0.655850
C44	C	1.206961	0.225143	0.531187
C45	C	1.277323	0.173934	0.468845
C46	C	1.285572	0.167930	0.344180
C47	C	1.153093	0.264335	0.344211
C48	C	1.144849	0.270343	0.468874
H49	H	0.569577	0.090691	0.000112
H50	H	0.739148	0.034262	0.000027
C51	C	1.029876	-0.022354	0.000005
H52	H	0.969706	-0.057248	0.000011
H53	H	1.034122	0.006495	-0.069059
H54	H	1.024957	0.013148	0.069078
C55	C	1.121325	0.287473	0.724439
H56	H	1.125316	0.284577	0.807607
H57	H	1.052280	0.272729	0.704025
H58	H	1.138647	0.339869	0.704012
C59	C	0.758944	0.386416	0.000004
H60	H	0.707249	0.424347	0.000007
H61	H	0.805780	0.389756	-0.069060
H62	H	0.796616	0.396419	0.069077
C63	C	0.928502	0.329993	0.000009
H64	H	0.876804	0.367923	0.000022
H65	H	0.975338	0.333343	-0.069054
H66	H	0.966174	0.339991	0.069084
H67	H	1.365179	-0.289479	-0.000021
H68	H	1.086860	-0.557796	0.000007
C69	C	1.399516	0.085024	0.724362
H70	H	1.442604	0.053671	0.669375
H71	H	1.355876	0.051796	0.773005
H72	H	1.442240	0.118938	0.772978
H73	H	0.936862	0.051609	0.000005
H74	H	1.396734	0.087042	0.480399
C75	C	1.067462	0.326672	0.537456
H76	H	1.071451	0.323781	0.620626
H77	H	0.998416	0.311931	0.517042
H78	H	1.084792	0.379065	0.517020
C79	C	1.454410	-0.578552	0.000005
H80	H	1.514577	-0.543655	0.000016
H81	H	1.459328	-0.614054	-0.069060
H82	H	1.450167	-0.607400	0.069078
H83	H	0.547433	0.347481	0.000019
C84	C	1.425648	-0.032027	0.000034
H85	H	1.477719	-0.069667	0.000023
H86	H	1.428569	0.003284	0.069098
H87	H	1.437728	-0.003371	-0.069039
C88	C	1.406369	-0.204712	0.000031
H89	H	1.466536	-0.169815	0.000053
H90	H	1.411297	-0.240214	-0.069033
H91	H	1.402115	-0.233559	0.069105
C92	C	1.473680	-0.405867	0.000005
H93	H	1.525754	-0.443504	-0.000007
H94	H	1.476603	-0.370554	0.069067
H95	H	1.485754	-0.377213	-0.069070
H96	H	1.103515	-0.408614	-0.000018
H97	H	1.038837	-0.183960	-0.000010
C98	C	1.090860	-0.322530	-0.000006
H99	H	1.038783	-0.284897	-0.000013
H100	H	1.078782	-0.351193	0.069052
H101	H	1.087953	-0.357836	-0.069085
H102	H	1.342867	0.126235	0.293423
H103	H	1.102521	0.301142	0.293462
