data_functionalizedCrystal
_audit_creation_method	'MofGen! by Chris Wilmer'
_symmetry_space_group_name_H-M	'P1'
_symmetry_Int_Tables_number	1
_symmetry_cell_setting	triclinic
loop_
_symmetry_equiv_pos_as_xyz
  x,y,z
_cell_length_a	19.288864
_cell_length_b	13.339070
_cell_length_c	17.766277
_cell_angle_alpha	89.997794
_cell_angle_beta	89.976791
_cell_angle_gamma	99.382770
loop_
_atom_site_label
_atom_site_type_symbol
_atom_site_fract_x
_atom_site_fract_y
_atom_site_fract_z
O1	O	0.945924	0.126087	-0.062840
O2	O	0.746977	0.143096	-0.062789
O3	O	0.823618	-0.012568	-0.062806
O4	O	0.869283	0.281751	-0.062822
O5	O	0.823598	-0.012576	0.062383
O6	O	0.746957	0.143088	0.062400
O7	O	0.945903	0.126079	0.062349
Cu8	Cu	0.846428	0.134583	0.073805
Cu9	Cu	0.846452	0.134592	-0.074245
O10	O	0.869263	0.281743	0.062366
C11	C	0.720984	0.142544	-0.000188
C12	C	0.643560	0.140901	-0.000168
C13	C	0.616663	0.232238	-0.000185
C14	C	0.543915	0.230694	-0.000193
C15	C	0.498067	0.137809	-0.000200
C16	C	0.524972	0.046461	-0.000178
C17	C	0.597719	0.048007	-0.000163
C18	C	0.375583	0.064794	-0.044080
C19	C	0.302838	0.063252	-0.044100
C20	C	0.273691	0.133037	-0.000245
C21	C	0.317301	0.204382	0.043621
C22	C	0.390047	0.205928	0.043637
C23	C	0.419184	0.136123	-0.000216
C24	C	0.167913	0.222706	-0.000270
C25	C	0.095163	0.221159	-0.000273
C26	C	0.076222	0.036923	-0.000266
C27	C	0.148970	0.038473	-0.000255
C28	C	0.194812	0.131367	-0.000260
C29	C	0.815894	-0.050226	-0.000211
C30	C	0.792901	-0.162423	-0.000208
C31	C	0.971681	-0.528031	-0.000253
C32	C	0.993286	-0.422617	-0.000252
C33	C	0.943192	-0.357563	-0.000241
C34	C	0.871489	-0.397934	-0.000231
C35	C	0.849881	-0.503359	-0.000227
C36	C	0.821392	-0.332891	-0.000215
C37	C	0.749689	-0.373262	-0.000205
C38	C	0.728085	-0.478677	-0.000201
C39	C	0.778180	-0.543730	-0.000212
C40	C	0.842999	-0.227467	-0.000219
C41	C	0.721199	-0.202795	-0.000193
C42	C	0.699594	-0.308209	-0.000195
C43	C	0.971897	0.126630	-0.000254
C44	C	1.049320	0.128273	-0.000278
C45	C	0.876987	0.319401	-0.000231
C46	C	0.899980	0.431598	-0.000238
N47	N	0.846416	0.134575	0.177935
N48	N	0.846468	0.134591	-0.178375
C49	C	0.880375	0.065681	0.217315
C50	C	0.880378	0.065676	0.296116
C51	C	0.846433	0.134583	0.335536
C52	C	0.812467	0.203483	0.296147
C53	C	0.812459	0.203479	0.217347
C54	C	0.855080	0.226676	0.460370
C55	C	0.855093	0.226682	0.539169
C56	C	0.846454	0.134595	0.578582
C57	C	0.837815	0.042500	0.539187
C58	C	0.837807	0.042496	0.460387
C59	C	0.846437	0.134595	0.420982
C60	C	0.880417	0.065690	0.703408
C61	C	0.880415	0.065684	0.782211
C62	C	0.812509	0.203500	0.782240
C63	C	0.812506	0.203497	0.703438
C64	C	0.846463	0.134593	0.664027
H65	H	0.293572	0.261207	0.079333
H66	H	0.425551	0.264016	0.079357
C67	C	0.254873	-0.015215	-0.092354
H68	H	0.207374	-0.006133	-0.086091
H69	H	0.259907	-0.081834	-0.076927
H70	H	0.267741	-0.006071	-0.143820
H71	H	0.641212	-0.341094	-0.000186
C72	C	0.775113	0.279274	0.174025
H73	H	0.779970	0.269402	0.121449
H74	H	0.795651	0.346702	0.186929
H75	H	0.726674	0.268467	0.186960
H76	H	0.760592	-0.629568	-0.000216
H77	H	0.960787	-0.271731	-0.000240
H78	H	0.399307	0.007964	-0.079797
H79	H	0.784866	0.259601	0.814335
H80	H	0.862104	0.301669	0.428287
C81	C	0.649215	-0.523088	-0.000186
H82	H	0.643522	-0.595188	-0.000179
H83	H	0.627743	-0.500738	-0.043837
H84	H	0.627726	-0.500748	0.043480
C85	C	0.775131	0.279281	0.339505
H86	H	0.780005	0.269424	0.392077
H87	H	0.726693	0.268477	0.326621
H88	H	0.795670	0.346713	0.326574
H89	H	0.680408	-0.149828	-0.000180
C90	C	0.178563	-0.061996	-0.000247
H91	H	0.228454	-0.047773	-0.000232
H92	H	0.162773	-0.100095	-0.043904
H93	H	0.162725	-0.100100	0.043413
C94	C	0.514320	0.331168	-0.000223
H95	H	0.552040	0.386713	-0.000230
H96	H	0.486306	0.334403	0.043422
H97	H	0.486363	0.334380	-0.043895
H98	H	0.908064	0.009577	0.814274
H99	H	0.653984	0.307880	-0.000191
C100	C	0.775161	0.279293	0.660119
H101	H	0.754949	0.320338	0.694880
H102	H	0.739261	0.243042	0.629398
H103	H	0.808239	0.321276	0.629362
C104	C	0.474546	-0.055713	-0.000187
H105	H	0.500987	-0.109891	-0.000169
H106	H	0.445799	-0.060144	-0.043849
H107	H	0.445749	-0.060146	0.043468
C108	C	0.218341	0.324884	-0.000268
H109	H	0.191900	0.379061	-0.000268
H110	H	0.247136	0.329320	-0.043919
H111	H	0.247090	0.329312	0.043398
C112	C	0.065576	0.321634	-0.000292
H113	H	0.103299	0.377176	-0.000300
H114	H	0.037569	0.324866	0.043358
H115	H	0.037615	0.324856	-0.043959
H116	H	0.038893	-0.038706	-0.000318
H117	H	1.012460	-0.581006	-0.000256
C118	C	0.917717	-0.010120	0.173966
H119	H	0.937937	-0.051159	0.208710
H120	H	0.953611	0.026125	0.143201
H121	H	0.884633	-0.052110	0.143251
H122	H	0.908065	0.009582	0.671317
H123	H	0.862132	0.301671	0.571239
H124	H	0.901380	-0.194607	-0.000227
C125	C	0.627311	-0.052465	-0.000150
H126	H	0.677202	-0.038240	-0.000137
H127	H	0.611520	-0.090566	-0.043805
H128	H	0.611476	-0.090567	0.043513
C129	C	1.072152	-0.378210	-0.000260
H130	H	1.077845	-0.306110	-0.000251
H131	H	1.093648	-0.400547	-0.043918
H132	H	1.093617	-0.400564	0.043400
C133	C	0.917735	-0.010108	0.339443
H134	H	0.937960	-0.051141	0.304685
H135	H	0.884666	-0.052090	0.370205
H136	H	0.953637	0.026159	0.370159
H137	H	0.830771	-0.032491	0.428314
H138	H	0.830779	-0.032485	0.571275
