data_functionalizedCrystal
_audit_creation_method	'MofGen! by Chris Wilmer'
_symmetry_space_group_name_H-M	'P1'
_symmetry_Int_Tables_number	1
_symmetry_cell_setting	triclinic
loop_
_symmetry_equiv_pos_as_xyz
  x,y,z
_cell_length_a	18.878441
_cell_length_b	14.446369
_cell_length_c	18.878441
_cell_angle_alpha	120.003483
_cell_angle_beta	90.001428
_cell_angle_gamma	60.001852
loop_
_atom_site_label
_atom_site_type_symbol
_atom_site_fract_x
_atom_site_fract_y
_atom_site_fract_z
Zr1	Zr	0.682386	1.013276	0.093018
O2	O	0.569284	1.206394	0.206127
O3	O	0.717057	0.820158	0.058339
O4	O	0.717058	1.013281	0.206125
O5	O	0.569284	1.013266	-0.058231
O6	O	0.833626	1.013287	0.206129
O7	O	0.569283	1.013270	0.058340
O8	O	0.833624	0.667824	-0.058234
O9	O	0.569285	1.358729	0.206132
O10	O	0.818839	0.899595	0.043557
O11	O	0.731846	0.899588	-0.043442
O12	O	0.731847	1.126966	0.130558
O13	O	0.644854	1.126960	0.043559
Zr14	Zr	0.868299	1.013279	-0.092894
Zr15	Zr	0.868299	1.013285	0.093024
Zr16	Zr	0.682387	1.013271	-0.092900
Zr17	Zr	0.682388	1.256234	0.093026
Zr18	Zr	0.868297	0.770321	-0.092902
O19	O	0.833628	1.206398	-0.058215
O20	O	0.833627	1.206406	0.206136
O21	O	0.569285	1.206386	-0.058224
O22	O	0.981401	0.820162	-0.206003
O23	O	0.981401	0.820170	0.058348
O24	O	0.717058	0.820150	-0.206012
O25	O	0.981402	1.013289	0.058354
O26	O	0.833627	1.013274	-0.206002
O27	O	0.717059	1.013269	-0.206006
O28	O	0.981402	1.013286	-0.058217
O29	O	0.717061	1.358736	0.206137
O30	O	0.833625	0.667819	-0.206014
O31	O	0.981400	0.667826	-0.206009
O32	O	0.981400	0.667831	-0.058229
O33	O	0.569286	1.358725	0.058353
O34	O	0.717061	1.358732	0.058358
O35	O	0.818839	0.899589	-0.130434
O36	O	0.905832	0.899596	-0.043436
O37	O	0.818840	1.126968	0.043565
O38	O	0.731847	1.126961	-0.043434
C39	C	0.542795	1.013267	0.000054
C40	C	0.463870	1.013263	0.000051
C41	C	0.775341	0.709374	0.000051
C42	C	0.775340	0.606232	0.000048
C43	C	0.472198	0.894579	-0.045359
C44	C	0.398037	0.894583	-0.045360
C45	C	0.315549	1.013273	0.000056
C46	C	0.307223	1.131967	0.045467
C47	C	0.381383	1.131961	0.045462
C48	C	0.152653	1.131970	0.045476
C49	C	0.078488	1.131977	0.045483
C50	C	0.169307	0.894593	-0.045346
C51	C	0.243467	0.894587	-0.045351
C52	C	0.235136	1.013281	0.000062
C53	C	0.720736	0.459219	-0.055074
C54	C	0.720439	0.566838	-0.054851
C55	C	0.735315	0.655230	0.094583
C56	C	0.734905	0.547997	0.094296
C57	C	0.870007	0.372778	-0.038553
C58	C	0.869868	0.478928	-0.040482
C59	C	1.007891	1.013289	0.000070
C60	C	1.086815	1.013292	0.000072
C61	C	0.775342	1.013285	0.232616
C62	C	0.775342	1.013287	0.311543
C63	C	0.775345	1.317181	0.000073
C64	C	0.775346	1.420323	0.000076
C65	C	0.839560	1.013293	0.348626
C66	C	0.839562	1.013283	0.422781
C67	C	0.775342	1.013278	0.459857
C68	C	0.711121	1.013269	0.422768
C69	C	0.711123	1.013269	0.348610
C70	C	0.711119	1.013272	0.577338
C71	C	0.711116	1.013274	0.651503
C72	C	0.839558	1.013287	0.651509
C73	C	0.839560	1.013287	0.577351
C74	C	0.775338	1.013280	0.540269
C75	C	0.775341	1.013274	0.767508
C76	C	0.775333	1.013280	0.688585
C77	C	1.007889	0.709385	0.000059
C78	C	1.086812	0.606247	0.000058
C79	C	0.775341	0.709367	-0.232503
C80	C	0.775341	0.606223	-0.311434
C81	C	1.007889	0.709378	-0.232496
C82	C	1.086813	0.606238	-0.311423
C83	C	0.542796	1.317177	0.232619
C84	C	0.463872	1.420318	0.311547
C85	C	0.542797	1.317170	0.000065
C86	C	0.463873	1.420309	0.000066
C87	C	0.775344	1.317188	0.232627
C88	C	0.775345	1.420333	0.311558
C89	C	1.078466	0.557811	0.045475
C90	C	1.152617	0.460915	0.045491
C91	C	1.235112	0.412450	0.000085
C92	C	1.243457	0.460895	-0.045333
C93	C	1.169307	0.557796	-0.045344
C94	C	0.820750	0.557786	-0.393918
C95	C	0.820747	0.460885	-0.468089
C96	C	0.775338	0.412415	-0.459774
C97	C	0.729923	0.460862	-0.377281
C98	C	0.729922	0.557768	-0.303112
C99	C	1.169294	0.557805	-0.303076
C100	C	1.243459	0.460907	-0.377230
C101	C	1.235141	0.412436	-0.459731
C102	C	1.152651	0.460878	-0.468076
C103	C	1.078488	0.557781	-0.393923
C104	C	0.381391	1.468762	0.303200
C105	C	0.307227	1.565691	0.377354
C106	C	0.315545	1.614166	0.459854
C107	C	0.398034	1.565718	0.468200
C108	C	0.472197	1.468798	0.394047
C109	C	0.472219	1.468754	-0.045343
C110	C	0.398069	1.565677	-0.045339
C111	C	0.315573	1.614146	0.000069
C112	C	0.307229	1.565696	0.045484
C113	C	0.381378	1.468782	0.045484
C114	C	0.820762	1.468771	0.303215
C115	C	0.820780	1.565674	0.377371
C116	C	0.775374	1.614142	0.459870
C117	C	0.729955	1.565694	0.468211
C118	C	0.729943	1.468787	0.394055
H119	H	0.404825	0.797939	-0.082339
O120	O	0.908830	1.013282	0.537358
H121	H	0.877952	1.102029	0.537533
O122	O	0.784163	0.518927	0.151703
H123	H	0.784237	0.442196	0.151931
H124	H	0.857737	1.429323	0.236047
O125	O	0.680953	0.408568	-0.368326
H126	H	0.649368	0.458527	-0.298509
H127	H	1.145891	0.421399	-0.535258
H128	H	1.295482	0.333546	0.000101
H129	H	0.404880	1.605109	-0.082325
H130	H	0.891850	1.013292	0.681706
O131	O	0.561167	0.766564	-0.094338
H132	H	0.568709	0.709652	-0.164136
H133	H	0.891852	1.013305	0.318446
H134	H	0.651323	0.494979	-0.028518
H135	H	0.891853	1.013286	0.452973
H136	H	0.539355	1.429356	0.400853
O137	O	0.869766	1.617922	0.368366
H138	H	0.901322	1.567949	0.298540
H139	H	0.692947	0.597193	-0.235953
O140	O	1.178320	0.610007	-0.094350
H141	H	1.146720	0.716911	-0.048520
O142	O	0.775379	1.718682	0.539848
H143	H	0.843002	1.681490	0.539790
H144	H	1.176083	0.597256	-0.235907
O145	O	0.680973	1.617988	0.557193
H146	H	0.688607	1.693523	0.607349
H147	H	1.310635	0.421421	-0.082300
H148	H	0.650615	0.655637	-0.028071
O149	O	0.143616	1.260030	0.094547
H150	H	0.175227	1.265639	0.144737
H151	H	0.666323	0.747535	0.125718
O152	O	0.372361	1.260005	0.094515
H153	H	0.403974	1.265632	0.144704
O154	O	0.869750	0.408626	-0.557053
H155	H	0.843526	0.489983	-0.564585
H156	H	0.310631	0.797939	-0.082323
H157	H	0.658822	1.013268	0.681685
O158	O	1.143598	0.408673	0.094475
H159	H	1.175188	0.427299	0.144688
O160	O	0.869726	0.610060	-0.402897
H161	H	0.901288	0.560097	-0.472719
H162	H	0.910886	0.346806	0.001425
H163	H	0.176088	0.797948	-0.082317
O164	O	1.332424	0.408654	-0.368221
H165	H	1.325740	0.458624	-0.298394
H166	H	0.658834	1.013256	0.452957
H167	H	0.692955	1.429358	0.400860
H168	H	0.775346	0.333508	-0.520174
H169	H	0.539385	1.429299	-0.082326
O170	O	-0.010484	1.259987	0.094453
H171	H	-0.003821	1.342522	0.126018
H172	H	1.295536	0.333532	-0.520104
O173	O	0.218257	1.259988	0.094451
H174	H	0.210728	1.316905	0.164244
O175	O	0.755988	0.518234	-0.147058
H176	H	0.773544	0.417474	-0.192211
O177	O	0.641866	1.013257	0.308600
H178	H	0.577113	1.102002	0.356777
O179	O	0.235609	1.718643	0.000032
H180	H	0.235665	1.806942	0.028432
H181	H	1.011301	0.597271	0.082460
O182	O	0.989526	0.609990	-0.402930
H183	H	0.996211	0.559983	-0.472757
H184	H	0.374602	1.429299	0.236031
H185	H	0.374571	1.429340	0.082459
O186	O	0.218262	1.617912	0.368344
H187	H	0.224945	1.567892	0.298517
H188	H	0.658825	1.013260	0.547146
H189	H	0.240051	1.605174	0.082454
H190	H	0.747442	0.370350	-0.124859
H191	H	0.255150	1.693084	0.520228
O192	O	0.407002	1.618002	0.557184
H193	H	0.375383	1.599397	0.593131
O194	O	0.642638	0.601884	0.135252
H195	H	0.598731	0.704135	0.155071
H196	H	0.773179	0.684018	0.137450
H197	H	0.903448	0.279031	-0.107093
O198	O	0.909468	0.426414	-0.132752
H199	H	0.862035	0.490714	-0.149681
H200	H	0.913984	0.500434	-0.004491
