data_functionalizedCrystal
_audit_creation_method	'MofGen! by Chris Wilmer'
_symmetry_space_group_name_H-M	'P1'
_symmetry_Int_Tables_number	1
_symmetry_cell_setting	triclinic
loop_
_symmetry_equiv_pos_as_xyz
  x,y,z
_cell_length_a	10.686220
_cell_length_b	10.686203
_cell_length_c	19.805399
_cell_angle_alpha	85.613528
_cell_angle_beta	85.648109
_cell_angle_gamma	89.651864
loop_
_atom_site_label
_atom_site_type_symbol
_atom_site_fract_x
_atom_site_fract_y
_atom_site_fract_z
Zn1	Zn	1.956131	0.352102	0.287876
Zn2	Zn	1.972126	0.561884	0.165430
Zn3	Zn	1.746367	0.368251	0.182661
Zn4	Zn	1.762445	0.577925	0.286538
O5	O	1.859267	0.465041	0.230626
O6	O	2.133791	0.366459	0.264982
O7	O	1.942144	0.536244	0.072999
O8	O	1.760770	0.190566	0.204389
O9	O	2.145543	0.520585	0.175021
O10	O	1.914882	0.178701	0.281690
O11	O	1.776280	0.393983	0.085658
O12	O	1.572961	0.409537	0.203092
O13	O	1.788172	0.547924	0.381433
O14	O	1.584773	0.563583	0.279410
O15	O	1.930472	0.382013	0.382416
O16	O	1.957734	0.739556	0.173724
O17	O	1.803683	0.751341	0.262702
C18	C	1.533352	0.490054	0.242976
C19	C	1.393926	0.500785	0.248274
C20	C	1.884223	0.790962	0.216212
C21	C	1.895014	0.930384	0.210064
C22	C	2.186455	0.439931	0.218229
C23	C	2.325883	0.429231	0.212945
C24	C	1.859332	0.464956	0.407170
C25	C	1.859359	0.464920	0.482402
C26	C	1.834236	1.137845	0.245118
C27	C	1.823538	0.998416	0.251313
C28	C	1.859269	0.465029	0.054771
C29	C	1.859457	0.464693	-0.020455
C30	C	1.933456	0.378526	0.518259
C31	C	1.933466	0.378489	0.588949
C32	C	1.859385	0.464853	0.623780
C33	C	1.785279	0.551251	0.587918
C34	C	1.785263	0.551281	0.517230
C35	C	1.785341	0.551128	0.872994
C36	C	1.785366	0.551094	0.943686
C37	C	1.933544	0.378336	0.944713
C38	C	1.933528	0.378367	0.874025
C39	C	1.859418	0.464760	0.838170
C40	C	1.859406	0.464798	0.761520
C41	C	1.859403	0.464821	0.700427
H42	H	1.374300	0.359763	0.178640
O43	O	1.713428	0.635093	0.621853
C44	C	1.729307	0.616524	0.691935
H45	H	1.822977	0.568010	0.699744
H46	H	1.727986	0.711130	0.714961
H47	H	1.649800	0.555420	0.717769
O48	O	1.740867	0.940593	0.299130
C49	C	1.806434	0.859193	0.343471
H50	H	1.908243	0.891084	0.342230
H51	H	1.760884	0.861047	0.397333
H52	H	1.803192	0.759629	0.326707
O53	O	1.977879	0.988335	0.162388
C54	C	1.970577	1.119309	0.166656
H55	H	1.930740	1.140212	0.219649
H56	H	2.068366	1.161880	0.156409
H57	H	1.906726	1.161743	0.127362
O58	O	1.335980	0.583559	0.289188
C59	C	1.205004	0.576220	0.285540
H60	H	1.179788	0.480712	0.268410
H61	H	1.155823	0.588642	0.337722
H62	H	1.173488	0.653371	0.247541
O63	O	2.005451	0.294510	0.484536
C64	C	2.070875	0.218269	0.531345
H65	H	2.019172	0.217849	0.583870
H66	H	2.076693	0.118413	0.514792
H67	H	2.169659	0.256891	0.533223
H68	H	1.993807	0.308141	0.618140
H69	H	1.993857	0.308045	0.845669
H70	H	1.993883	0.307986	0.973915
H71	H	1.725035	0.621424	0.972044
O72	O	1.713307	0.635155	0.838272
C73	C	1.647896	0.711343	0.884178
H74	H	1.699641	0.711746	0.932421
H75	H	1.642027	0.811210	0.859882
H76	H	1.549131	0.672682	0.897350
H77	H	1.724912	0.621621	0.488037
