data_functionalizedCrystal
_audit_creation_method	'MofGen! by Chris Wilmer'
_symmetry_space_group_name_H-M	'P1'
_symmetry_Int_Tables_number	1
_symmetry_cell_setting	triclinic
loop_
_symmetry_equiv_pos_as_xyz
  x,y,z
_cell_length_a	14.044209
_cell_length_b	14.044190
_cell_length_c	9.198806
_cell_angle_alpha	90.008003
_cell_angle_beta	89.998473
_cell_angle_gamma	93.189865
loop_
_atom_site_label
_atom_site_type_symbol
_atom_site_fract_x
_atom_site_fract_y
_atom_site_fract_z
O1	O	-1.277174	-0.230156	-0.120746
O2	O	-1.000502	-0.221852	-0.120786
O3	O	-1.134681	-0.087668	-0.120738
O4	O	-1.142994	-0.364340	-0.120794
O5	O	-1.134670	-0.087667	0.121047
O6	O	-1.000490	-0.221851	0.120999
O7	O	-1.277162	-0.230155	0.121039
Cu8	Cu	-1.138825	-0.226003	0.143096
Cu9	Cu	-1.138839	-0.226004	-0.142843
O10	O	-1.142982	-0.364339	0.120991
C11	C	-0.964874	-0.218216	0.000101
C12	C	-0.858731	-0.207373	0.000087
C13	C	-0.664393	-0.187548	0.000117
C14	C	-0.613265	-0.264463	0.000106
C15	C	-0.505128	-0.253432	0.000123
C16	C	-0.772539	-0.198577	0.000100
C17	C	-0.312790	-0.233793	0.000144
C18	C	-0.418932	-0.244642	0.000136
C19	C	-1.131039	-0.052045	0.000158
C20	C	-1.120192	0.054098	0.000169
C21	C	-1.146625	-0.399962	0.000091
C22	C	-1.157472	-0.506105	0.000071
C23	C	-1.177292	0.299557	0.000121
C24	C	-1.100376	0.248431	0.000119
C25	C	-1.111404	0.140294	0.000147
C26	C	-1.166265	0.407703	0.000093
N27	N	-1.138822	-0.226002	0.344210
N28	N	-1.138848	-0.225998	-0.343957
C29	C	-1.195140	-0.169393	0.416427
C30	C	-1.195154	-0.169390	0.583839
H31	H	-1.026243	0.285873	0.000100
H32	H	-1.243374	-0.120929	0.645943
N33	N	-0.660224	-0.357466	0.000100
N34	N	-0.715016	-0.382267	0.102005
H35	H	-0.748184	-0.447949	0.102000
H36	H	-1.251419	0.262116	0.000146
N37	N	-1.078359	-0.286815	0.422114
N38	N	-1.087362	-0.375171	0.405217
H39	H	-1.044659	-0.418124	0.460233
N40	N	-0.617417	-0.094559	0.000146
N41	N	-0.528365	-0.085620	0.000157
H42	H	-0.495177	-0.019947	0.000173
N43	N	-1.255602	-0.108590	0.338501
N44	N	-1.255501	-0.108674	0.202616
H45	H	-1.298204	-0.065730	0.147580
H46	H	-1.090634	-0.274470	0.593949
