data_functionalizedCrystal
_audit_creation_method	'MofGen! by Chris Wilmer'
_symmetry_space_group_name_H-M	'P1'
_symmetry_Int_Tables_number	1
_symmetry_cell_setting	triclinic
loop_
_symmetry_equiv_pos_as_xyz
  x,y,z
_cell_length_a	12.827893
_cell_length_b	13.897448
_cell_length_c	12.827885
_cell_angle_alpha	89.967724
_cell_angle_beta	89.980538
_cell_angle_gamma	90.017663
loop_
_atom_site_label
_atom_site_type_symbol
_atom_site_fract_x
_atom_site_fract_y
_atom_site_fract_z
Zn1	Zn	1.597655	-0.383969	-0.590831
Zn2	Zn	2.097655	0.116031	-0.090831
Zn3	Zn	1.597541	-0.545295	-0.416083
Zn4	Zn	2.097541	-0.045295	0.083917
Zn5	Zn	1.422896	-0.384016	-0.416104
Zn6	Zn	1.922896	0.115984	0.083896
Zn7	Zn	1.422875	-0.545224	-0.590783
Zn8	Zn	1.922875	-0.045224	-0.090783
O9	O	1.510242	-0.464626	-0.503450
O10	O	2.010242	0.035374	-0.003450
O11	O	1.743876	-0.405380	-0.567661
O12	O	2.243876	0.094620	-0.067661
O13	O	1.574336	-0.523951	-0.269850
O14	O	2.074336	-0.023951	0.230150
O15	O	1.446134	-0.249028	-0.439311
O16	O	1.946134	0.250972	0.060689
O17	O	1.743792	-0.523905	-0.439275
O18	O	2.243792	-0.023905	0.060725
O19	O	1.574529	-0.248994	-0.567681
O20	O	2.074529	0.251006	-0.067681
O21	O	1.446024	-0.405460	-0.269865
O22	O	1.946024	0.094540	0.230135
O23	O	1.276657	-0.405390	-0.439265
O24	O	1.776657	0.094610	0.060735
O25	O	1.446098	-0.523783	-0.737026
O26	O	1.946098	-0.023783	-0.237026
O27	O	1.276641	-0.523829	-0.567601
O28	O	1.776641	-0.023829	-0.067601
O29	O	1.574509	-0.405310	-0.737060
O30	O	2.074509	0.094690	-0.237060
O31	O	1.574315	-0.680267	-0.439229
O32	O	2.074315	-0.180267	0.060771
O33	O	1.445988	-0.680215	-0.567580
O34	O	1.945988	-0.180215	-0.067580
C35	C	1.238732	-0.464607	-0.503430
C36	C	1.738732	0.035393	-0.003430
C37	C	1.122579	-0.464623	-0.503447
C38	C	1.622579	0.035377	-0.003447
C39	C	1.070814	-0.523321	-0.566853
C40	C	1.570814	-0.023321	-0.066853
C41	C	0.950763	-0.523338	-0.566872
C42	C	1.450763	-0.023338	-0.066872
C43	C	1.510165	-0.715240	-0.503420
C44	C	2.010165	-0.215240	-0.003420
C45	C	1.510228	-0.822454	-0.503442
C46	C	2.010228	-0.322454	-0.003442
C47	C	1.510338	-1.018749	-0.503508
C48	C	2.010338	-0.518749	-0.003508
C49	C	1.510274	-0.909517	-0.503474
C50	C	2.010274	-0.409517	-0.003474
C51	C	1.782812	-0.464645	-0.503471
C52	C	2.282812	0.035355	-0.003471
C53	C	1.898965	-0.464654	-0.503480
C54	C	2.398965	0.035346	-0.003480
C55	C	1.510314	-0.464533	-0.776021
C56	C	2.010314	0.035467	-0.276021
C57	C	1.510344	-0.464494	-0.892174
C58	C	2.010344	0.035506	-0.392174
C59	C	1.510347	-0.213033	-0.503504
C60	C	2.010347	0.286967	-0.003504
C61	C	1.510391	-0.105819	-0.503526
C62	C	2.010391	0.394181	-0.003526
C63	C	1.446872	-0.405849	-0.943966
C64	C	1.946872	0.094151	-0.443966
C65	C	1.446902	-0.405807	-1.064017
C66	C	1.946902	0.094193	-0.564017
C67	C	1.510230	-0.464649	-0.231940
C68	C	2.010230	0.035351	0.268060
C69	C	1.510402	-0.464416	-0.115788
C70	C	2.010402	0.035584	0.384212
H71	H	1.078020	-0.414377	-0.449180
H72	H	1.578020	0.085623	0.050820
H73	H	0.906247	-0.573595	-0.621154
H74	H	1.406247	-0.073595	-0.121154
O75	O	0.952173	-0.404830	-0.438660
O76	O	1.452173	0.095170	0.061340
C77	C	1.015244	-0.459720	-0.371090
C78	C	1.515244	0.040280	0.128910
H79	H	1.031493	-0.532871	-0.407821
H80	H	1.531493	-0.032871	0.092179
H81	H	1.092041	-0.420470	-0.357217
H82	H	1.592041	0.079530	0.142783
H83	H	0.973203	-0.470203	-0.293597
H84	H	1.473203	0.029797	0.206403
H85	H	1.392505	-0.355676	-0.899431
H86	H	1.892505	0.144324	-0.399431
O87	O	1.382181	-0.345769	-1.117099
O88	O	1.882181	0.154231	-0.617099
C89	C	1.405007	-0.249621	-1.090507
C90	C	1.905007	0.250379	-0.590507
H91	H	1.488457	-0.244739	-1.060441
H92	H	1.988457	0.255261	-0.560441
H93	H	1.396108	-0.202002	-1.162344
H94	H	1.896108	0.297998	-0.662344
H95	H	1.348914	-0.224373	-1.027235
H96	H	1.848914	0.275627	-0.527235
O97	O	1.575183	-0.524455	-1.062781
O98	O	2.075183	-0.024455	-0.562781
C99	C	1.552315	-0.620605	-1.089334
C100	C	2.052315	-0.120605	-0.589334
H101	H	1.512234	-0.622639	-1.168605
H102	H	2.012234	-0.122639	-0.668605
H103	H	1.627719	-0.663867	-1.092954
H104	H	2.127719	-0.163867	-0.592954
H105	H	1.498502	-0.653057	-1.027916
H106	H	1.998502	-0.153057	-0.527916
O107	O	1.124078	-0.583128	-0.631653
O108	O	1.624078	-0.083128	-0.131653
C109	C	1.187236	-0.528221	-0.699204
C110	C	1.687236	-0.028221	-0.199204
H111	H	1.203472	-0.455064	-0.662469
H112	H	1.703472	0.044936	-0.162469
H113	H	1.264033	-0.567449	-0.713052
H114	H	1.764033	-0.067449	-0.213052
H115	H	1.145275	-0.517751	-0.776711
H116	H	1.645275	-0.017751	-0.276711
O117	O	1.575319	-0.524218	-0.945339
O118	O	2.075319	-0.024218	-0.445339
C119	C	1.642776	-0.469228	-1.008510
C120	C	2.142776	0.030772	-0.508510
H121	H	1.649278	-0.393296	-0.975569
H122	H	2.149278	0.106704	-0.475569
H123	H	1.723185	-0.504115	-1.009853
H124	H	2.223185	-0.004115	-0.509853
H125	H	1.610415	-0.465809	-1.091189
H126	H	2.110415	0.034191	-0.591189
