data_functionalizedCrystal
_audit_creation_method	'MofGen! by Chris Wilmer'
_symmetry_space_group_name_H-M	'P1'
_symmetry_Int_Tables_number	1
_symmetry_cell_setting	triclinic
loop_
_symmetry_equiv_pos_as_xyz
  x,y,z
_cell_length_a	19.077312
_cell_length_b	12.645330
_cell_length_c	19.076919
_cell_angle_alpha	87.725680
_cell_angle_beta	85.331053
_cell_angle_gamma	87.718625
loop_
_atom_site_label
_atom_site_type_symbol
_atom_site_fract_x
_atom_site_fract_y
_atom_site_fract_z
Zn1	Zn	1.061720	-0.507702	0.355281
Zn2	Zn	1.066398	-0.678130	0.237404
Zn3	Zn	0.948575	-0.494051	0.242148
Zn4	Zn	0.943829	-0.678087	0.359987
O5	O	1.005130	-0.589493	0.298705
O6	O	1.160987	-0.536041	0.335690
O7	O	1.054712	-0.648017	0.139386
O8	O	0.963613	-0.347517	0.257172
O9	O	1.164424	-0.661254	0.249086
O10	O	1.046739	-0.357547	0.340290
O11	O	0.968149	-0.512774	0.142871
O12	O	0.849299	-0.512732	0.261735
O13	O	0.955523	-0.661180	0.458011
O14	O	0.845812	-0.647942	0.348310
O15	O	1.042137	-0.535999	0.454553
O16	O	1.050110	-0.826469	0.253649
O17	O	0.960059	-0.826437	0.343710
C18	C	0.821978	-0.578852	0.306049
C19	C	0.743623	-0.574326	0.309207
C20	C	1.005096	-0.864919	0.298690
C21	C	1.005145	-0.982753	0.298704
C22	C	0.302379	-0.541783	0.331866
C23	C	0.376001	-0.546055	0.328894
C24	C	0.414595	-0.613267	0.282245
C25	C	0.379564	-0.676219	0.238570
C26	C	0.305943	-0.671952	0.241546
C27	C	0.634970	-0.633011	0.268507
C28	C	0.708597	-0.637271	0.265534
C29	C	0.705029	-0.507108	0.355859
C30	C	0.631407	-0.502843	0.358827
C31	C	0.596381	-0.565799	0.315155
N32	N	0.489849	-0.617632	0.279205
N33	N	0.521128	-0.561438	0.318199
C34	C	1.061712	-1.150282	0.241940
C35	C	1.061884	-1.027739	0.242066
C36	C	1.022301	-1.032625	0.372203
C37	C	1.022744	-1.155231	0.371896
C38	C	0.931369	-1.144654	0.282703
C39	C	0.931793	-1.021973	0.281023
C40	C	1.188998	-0.600176	0.291334
C41	C	1.267352	-0.604728	0.288192
C42	C	0.997779	-0.600107	0.482575
C43	C	0.994646	-0.604631	0.560930
C44	C	1.005184	-0.312992	0.298735
C45	C	1.005207	-0.195164	0.298748
C46	C	1.012494	-0.578845	0.115549
C47	C	1.015763	-0.574031	0.037189
C48	C	1.038267	-0.541584	0.595942
C49	C	1.035315	-0.545830	0.669565
C50	C	0.988745	-0.613128	0.708174
C51	C	0.945119	-0.676178	0.673156
C52	C	0.948068	-0.671926	0.599535
C53	C	0.975086	-0.632828	0.928551
C54	C	0.972142	-0.637078	1.002177
C55	C	1.062337	-0.506728	0.998580
C56	C	1.065285	-0.502486	0.924958
C57	C	1.021657	-0.565531	0.889947
N58	N	0.985728	-0.617472	0.783428
N59	N	1.024671	-0.561181	0.814694
H60	H	0.270960	-0.487045	0.369848
H61	H	1.075557	-1.005917	0.386436
H62	H	0.915190	-1.171504	0.230198
H63	H	0.606462	-0.684272	0.232944
Cl64	Cl	1.123833	-0.417879	0.876426
Cl65	Cl	0.893226	-0.751185	0.555520
H66	H	0.918803	-0.988915	0.226948
H67	H	0.887663	-0.991030	0.319606
Cl68	Cl	0.582893	-0.418349	0.417476
Cl69	Cl	1.096819	-0.456980	0.547412
H70	H	0.404516	-0.494802	0.364460
Cl71	Cl	0.866423	-1.189392	0.346637
Cl72	Cl	0.749065	-0.427975	0.410761
H73	H	1.070838	-0.494493	0.698068
Cl74	Cl	1.045934	-1.189839	0.157392
Cl75	Cl	1.117178	-0.427472	1.042598
Cl76	Cl	0.920239	-0.712086	0.884547
H77	H	0.934217	-0.691883	1.033611
Cl78	Cl	0.886571	-0.760779	0.721694
H79	H	0.740018	-0.692007	0.227545
Cl80	Cl	1.146412	-0.988405	0.258089
Cl81	Cl	0.428082	-0.760719	0.179929
Cl82	Cl	0.261909	-0.751095	0.186646
H83	H	1.116171	-1.184923	0.252186
Cl84	Cl	1.045800	-0.975334	0.157793
H85	H	1.076627	-1.187844	0.385835
H86	H	0.983228	-1.185155	0.415518
H87	H	0.982269	-1.003686	0.415535
