data_functionalizedCrystal
_audit_creation_method	'MofGen! by Chris Wilmer'
_symmetry_space_group_name_H-M	'P1'
_symmetry_Int_Tables_number	1
_symmetry_cell_setting	triclinic
loop_
_symmetry_equiv_pos_as_xyz
  x,y,z
_cell_length_a	18.215407
_cell_length_b	12.645330
_cell_length_c	18.215399
_cell_angle_alpha	90.023030
_cell_angle_beta	90.019833
_cell_angle_gamma	90.018140
loop_
_atom_site_label
_atom_site_type_symbol
_atom_site_fract_x
_atom_site_fract_y
_atom_site_fract_z
Zn1	Zn	1.125109	-0.422038	0.416141
Zn2	Zn	1.458442	-0.088704	0.749474
Zn3	Zn	1.791775	0.244629	1.082808
Zn4	Zn	1.125033	-0.599320	0.293085
Zn5	Zn	1.458366	-0.265986	0.626419
Zn6	Zn	1.791699	0.067347	0.959752
Zn7	Zn	1.002041	-0.422072	0.293088
Zn8	Zn	1.335375	-0.088739	0.626422
Zn9	Zn	1.668708	0.244594	0.959755
Zn10	Zn	1.002023	-0.599261	0.416110
Zn11	Zn	1.335356	-0.265927	0.749444
Zn12	Zn	1.668689	0.067406	1.082777
O13	O	1.063551	-0.510673	0.354606
O14	O	1.396885	-0.177339	0.687940
O15	O	1.730218	0.155994	1.021273
O16	O	1.228083	-0.445565	0.399829
O17	O	1.561416	-0.112231	0.733162
O18	O	1.894750	0.221102	1.066496
O19	O	1.108693	-0.575847	0.190101
O20	O	1.442027	-0.242513	0.523435
O21	O	1.775360	0.090820	0.856768
O22	O	1.018406	-0.273720	0.309426
O23	O	1.351739	0.059613	0.642759
O24	O	1.685073	0.392946	0.976092
O25	O	1.228027	-0.575813	0.309421
O26	O	1.561360	-0.242480	0.642754
O27	O	1.894694	0.090854	0.976087
O28	O	1.108823	-0.273695	0.399832
O29	O	1.442157	0.059638	0.733165
O30	O	1.775490	0.392972	1.066499
O31	O	1.018332	-0.445624	0.190104
O32	O	1.351666	-0.112290	0.523437
O33	O	1.684999	0.221043	0.856770
O34	O	0.899055	-0.445566	0.309396
O35	O	1.232388	-0.112233	0.642729
O36	O	1.565721	0.221100	0.976063
O37	O	1.018374	-0.575713	0.519099
O38	O	1.351708	-0.242379	0.852432
O39	O	1.685041	0.090954	1.185765
O40	O	0.899041	-0.575746	0.399780
O41	O	1.232374	-0.242413	0.733113
O42	O	1.565708	0.090920	1.066446
O43	O	1.108805	-0.445507	0.519121
O44	O	1.442138	-0.112174	0.852455
O45	O	1.775472	0.221159	1.185788
O46	O	1.108675	-0.747659	0.309391
O47	O	1.442009	-0.414326	0.642724
O48	O	1.775342	-0.080993	0.976057
O49	O	1.018300	-0.747616	0.399777
O50	O	1.351634	-0.414283	0.733110
O51	O	1.684967	-0.080949	1.066443
C52	C	0.872345	-0.510654	0.354585
C53	C	1.205678	-0.177321	0.687918
C54	C	1.539012	0.156012	1.021252
C55	C	0.790546	-0.510672	0.354594
C56	C	1.123880	-0.177339	0.687927
C57	C	1.457213	0.155994	1.021260
C58	C	1.063498	-0.786102	0.354596
C59	C	1.396831	-0.452769	0.687929
C60	C	1.730164	-0.119436	1.021263
C61	C	1.063542	-0.903932	0.354616
C62	C	1.396875	-0.570599	0.687949
C63	C	1.730209	-0.237266	1.021283
C64	C	0.602364	-0.578563	0.401597
C65	C	0.935698	-0.245230	0.734931
C66	C	1.269031	0.088103	1.068264
C67	C	0.525506	-0.578567	0.401606
C68	C	0.858839	-0.245233	0.734940
C69	C	1.192172	0.088100	1.068273
C70	C	0.525490	-0.442801	0.307631
C71	C	0.858824	-0.109468	0.640965
C72	C	1.192157	0.223866	0.974298
C73	C	0.602348	-0.442793	0.307626
C74	C	0.935681	-0.109460	0.640960
C75	C	1.269014	0.223873	0.974293
C76	C	0.640783	-0.510680	0.354608
C77	C	0.974116	-0.177347	0.687942
C78	C	1.307449	0.155986	1.021275
C79	C	0.487067	-0.510692	0.354622
C80	C	0.820400	-0.177358	0.687956
C81	C	1.153733	0.155975	1.021289
C82	C	0.403733	-0.510695	0.354632
C83	C	0.737066	-0.177361	0.687965
C84	C	1.070400	0.155972	1.021299
C85	C	0.724122	-0.510676	0.354600
C86	C	1.057455	-0.177343	0.687933
C87	C	1.390788	0.155991	1.021267
C88	C	1.006922	-1.071513	0.411653
C89	C	1.340255	-0.738180	0.744987
C90	C	1.673588	-0.404847	1.078320
C91	C	1.006632	-0.948954	0.411470
C92	C	1.339965	-0.615620	0.744803
C93	C	1.673299	-0.282287	1.078137
C94	C	1.042549	-0.948523	0.277058
C95	C	1.375882	-0.615190	0.610391
C96	C	1.709216	-0.281856	0.943724
C97	C	1.042203	-1.071122	0.277404
C98	C	1.375537	-0.737788	0.610737
C99	C	1.708870	-0.404455	0.944070
C100	C	1.141502	-1.071022	0.374509
C101	C	1.474835	-0.737688	0.707842
C102	C	1.808168	-0.404355	1.041175
C103	C	1.141024	-0.948415	0.376205
C104	C	1.474357	-0.615082	0.709538
C105	C	1.807691	-0.281748	1.042871
C106	C	1.255504	-0.510692	0.354628
C107	C	1.588838	-0.177358	0.687961
C108	C	1.922171	0.155975	1.021295
C109	C	1.337303	-0.510700	0.354637
C110	C	1.670636	-0.177366	0.687970
C111	C	2.003970	0.155967	1.021304
C112	C	1.063596	-0.510600	0.546559
C113	C	1.396929	-0.177266	0.879893
C114	C	1.730263	0.156067	1.213226
C115	C	1.063615	-0.510568	0.628358
C116	C	1.396949	-0.177235	0.961692
C117	C	1.730282	0.156098	1.295025
C118	C	1.063625	-0.234167	0.354633
C119	C	1.396959	0.099166	0.687966
C120	C	1.730292	0.432499	1.021299
C121	C	1.063657	-0.116337	0.354644
C122	C	1.396990	0.216996	0.687977
C123	C	1.730323	0.550329	1.021311
C124	C	1.063549	-0.510669	0.163400
C125	C	1.396882	-0.177336	0.496733
C126	C	1.730216	0.155998	0.830067
C127	C	1.063672	-0.510401	0.081602
C128	C	1.397006	-0.177068	0.414935
C129	C	1.730339	0.156265	0.748268
C130	C	1.110720	-0.442707	0.816565
C131	C	1.444053	-0.109374	1.149899
C132	C	1.777386	0.223960	1.483232
C133	C	1.110728	-0.442676	0.893424
C134	C	1.444062	-0.109343	1.226757
C135	C	1.777395	0.223990	1.560091
C136	C	1.016563	-0.578266	0.893389
C137	C	1.349896	-0.244932	1.226722
C138	C	1.683230	0.088401	1.560056
C139	C	1.016551	-0.578290	0.816532
C140	C	1.349884	-0.244957	1.149865
C141	C	1.683218	0.088376	1.483198
C142	C	1.063634	-0.510513	0.778122
C143	C	1.396967	-0.177179	1.111455
C144	C	1.730300	0.156154	1.444788
C145	C	1.063654	-0.510457	0.931838
C146	C	1.396988	-0.177124	1.265171
C147	C	1.730321	0.156210	1.598505
C148	C	1.063663	-0.510424	1.015172
C149	C	1.396997	-0.177091	1.348505
C150	C	1.730330	0.156243	1.681838
C151	C	1.063624	-0.510544	0.694783
C152	C	1.396957	-0.177211	1.028116
C153	C	1.730290	0.156123	1.361449
H154	H	0.494229	-0.633842	0.439871
H155	H	0.827562	-0.300509	0.773204
H156	H	1.160895	0.032824	1.106537
O157	O	1.161499	-0.369603	0.775140
O158	O	1.494833	-0.036270	1.108473
O159	O	1.828166	0.297064	1.441806
H160	H	1.153589	-0.381018	0.715237
H161	H	1.486922	-0.047684	1.048570
H162	H	1.820256	0.285649	1.381903
O163	O	0.965788	-0.651371	0.934820
O164	O	1.299122	-0.318038	1.268153
O165	O	1.632455	0.015295	1.601486
H166	H	0.908032	-0.633182	0.920063
H167	H	1.241365	-0.299849	1.253397
H168	H	1.574699	0.033484	1.586730
H169	H	0.949572	-1.102414	0.398661
H170	H	1.282905	-0.769081	0.731994
H171	H	1.616238	-0.435747	1.065327
O172	O	0.643823	-0.651768	0.452276
O173	O	0.977156	-0.318434	0.785610
O174	O	1.310490	0.014899	1.118943
H175	H	0.604193	-0.698962	0.484958
H176	H	0.937526	-0.365629	0.818291
H177	H	1.270859	-0.032296	1.151624
O178	O	0.484037	-0.369616	0.256935
O179	O	0.817370	-0.036283	0.590268
O180	O	1.150703	0.297051	0.923601
H181	H	0.424138	-0.381042	0.264819
H182	H	0.757471	-0.047709	0.598152
H183	H	1.090805	0.285624	0.931485
O184	O	0.967957	-0.907986	0.254357
O185	O	1.301291	-0.574652	0.587690
O186	O	1.634624	-0.241319	0.921023
H187	H	0.926289	-0.933878	0.295006
H188	H	1.259622	-0.600544	0.628339
H189	H	1.592955	-0.267211	0.961672
O190	O	0.965742	-0.651396	0.775059
O191	O	1.299075	-0.318063	1.108392
O192	O	1.632409	0.015271	1.441726
H193	H	0.933004	-0.698521	0.814678
H194	H	1.266338	-0.365188	1.148012
H195	H	1.599671	-0.031855	1.481345
H196	H	0.633629	-0.387508	0.269362
H197	H	0.966962	-0.054175	0.602696
H198	H	1.300295	0.279159	0.936029
O199	O	1.023972	-0.909001	0.487657
O200	O	1.357305	-0.575667	0.820991
O201	O	1.690639	-0.242334	1.154324
H202	H	1.032644	-0.977246	0.524964
H203	H	1.365977	-0.643912	0.858298
H204	H	1.699310	-0.310579	1.191631
H205	H	1.183771	-1.100007	0.332986
H206	H	1.517104	-0.766674	0.666320
H207	H	1.850437	-0.433341	0.999653
O208	O	1.161518	-0.369550	0.934891
O209	O	1.494851	-0.036217	1.268224
O210	O	1.828184	0.297117	1.601558
H211	H	1.194257	-0.322434	0.895267
H212	H	1.527590	0.010900	1.228601
H213	H	1.860923	0.344233	1.561934
H214	H	1.019935	-1.100928	0.469351
H215	H	1.353268	-0.767594	0.802684
H216	H	1.686602	-0.434261	1.136018
O217	O	1.094564	-1.110397	0.219218
O218	O	1.427897	-0.777064	0.552552
O219	O	1.761231	-0.443730	0.885885
H220	H	1.138039	-1.159061	0.245311
H221	H	1.471372	-0.825727	0.578644
H222	H	1.804705	-0.492394	0.911977
H223	H	0.948921	-0.919719	0.398309
H224	H	1.282255	-0.586386	0.731643
H225	H	1.615588	-0.253052	1.064976
H226	H	1.185520	-0.917762	0.337706
H227	H	1.518853	-0.584429	0.671039
H228	H	1.852187	-0.251096	1.004372
O229	O	1.095550	-0.909901	0.219253
O230	O	1.428883	-0.576567	0.552586
O231	O	1.762217	-0.243234	0.885919
H232	H	1.079503	-0.942531	0.164992
H233	H	1.412836	-0.609198	0.498326
H234	H	1.746169	-0.275864	0.831659
H235	H	0.985298	-1.099813	0.260576
H236	H	1.318632	-0.766479	0.593909
H237	H	1.651965	-0.433146	0.927242
H238	H	1.160652	-1.101868	0.430103
H239	H	1.493985	-0.768535	0.763436
H240	H	1.827319	-0.435201	1.096770
H241	H	1.156855	-0.919267	0.433284
H242	H	1.490189	-0.585934	0.766617
H243	H	1.823522	-0.252600	1.099950
