data_functionalizedCrystal
_audit_creation_method	'MofGen! by Chris Wilmer'
_symmetry_space_group_name_H-M	'P1'
_symmetry_Int_Tables_number	1
_symmetry_cell_setting	triclinic
loop_
_symmetry_equiv_pos_as_xyz
  x,y,z
_cell_length_a	14.519731
_cell_length_b	14.519709
_cell_length_c	9.730223
_cell_angle_alpha	89.994652
_cell_angle_beta	89.996618
_cell_angle_gamma	83.684499
loop_
_atom_site_label
_atom_site_type_symbol
_atom_site_fract_x
_atom_site_fract_y
_atom_site_fract_z
O1	O	1.223854	0.120984	-0.114296
O2	O	1.723854	0.620984	0.385704
O3	O	0.955380	0.135201	-0.114298
O4	O	1.455380	0.635201	0.385702
O5	O	1.096735	-0.006145	-0.114285
O6	O	1.596735	0.493855	0.385715
O7	O	1.082498	0.262330	-0.114310
O8	O	1.582498	0.762330	0.385690
O9	O	1.096726	-0.006149	0.114295
O10	O	1.596726	0.493851	0.614295
O11	O	0.955370	0.135197	0.114282
O12	O	1.455370	0.635197	0.614282
O13	O	1.223845	0.120981	0.114284
O14	O	1.723845	0.620981	0.614284
Zn15	Zn	1.089606	0.128088	0.150575
Zn16	Zn	1.589606	0.628088	0.650575
Zn17	Zn	1.089618	0.128093	-0.150589
Zn18	Zn	1.589618	0.628093	0.349411
O19	O	1.082489	0.262327	0.114270
O20	O	1.582489	0.762327	0.614270
C21	C	0.921016	0.134532	-0.000009
C22	C	1.421016	0.634532	0.499991
C23	C	0.818635	0.132536	-0.000009
C24	C	1.318635	0.632536	0.499991
C25	C	0.735491	0.130915	-0.000015
C26	C	1.235491	0.630915	0.499985
C27	C	0.631182	0.128888	-0.000015
C28	C	1.131182	0.628888	0.499985
C29	C	0.548043	0.127280	-0.000015
C30	C	1.048043	0.627280	0.499985
C31	C	0.443728	0.125253	-0.000017
C32	C	0.943728	0.625253	0.499983
C33	C	1.096067	-0.040507	0.000006
C34	C	1.596067	0.459493	0.500006
C35	C	1.094079	-0.142889	0.000006
C36	C	1.594079	0.357111	0.500006
C37	C	1.086759	-0.517785	-0.000029
C38	C	1.586759	-0.017785	0.499971
C39	C	1.088792	-0.413477	-0.000019
C40	C	1.588792	0.086523	0.499981
C41	C	1.090419	-0.330340	-0.000010
C42	C	1.590419	0.169660	0.499990
C43	C	1.092452	-0.226025	-0.000002
C44	C	1.592452	0.273975	0.499998
C45	C	1.258209	0.121649	-0.000009
C46	C	1.758209	0.621649	0.499991
C47	C	1.360589	0.123645	-0.000017
C48	C	1.860589	0.623645	0.499983
C49	C	1.083157	0.296688	-0.000023
C50	C	1.583157	0.796688	0.499977
C51	C	1.085146	0.399070	-0.000033
C52	C	1.585146	0.899070	0.499967
N53	N	1.089605	0.128084	0.356111
N54	N	1.589605	0.628084	0.856111
N55	N	1.089627	0.128090	-0.356125
N56	N	1.589627	0.628090	0.143875
C57	C	1.152218	0.065522	0.428043
C58	C	1.652218	0.565522	0.928043
C59	C	1.152227	0.065523	0.571926
C60	C	1.652227	0.565523	1.071926
C61	C	1.027007	0.190654	0.571932
C62	C	1.527007	0.690654	1.071932
C63	C	1.026994	0.190649	0.428052
C64	C	1.526994	0.690649	0.928052
H65	H	1.203198	0.014577	0.369472
H66	H	1.703198	0.514577	0.869472
F67	F	1.218867	-0.001065	0.648477
F68	F	1.718867	0.498935	1.148477
H69	H	0.976032	0.241595	0.630521
H70	H	1.476032	0.741595	1.130521
F71	F	0.960345	0.257235	0.351491
F72	F	1.460345	0.757235	0.851491
