data_functionalizedCrystal
_audit_creation_method	'MofGen! by Chris Wilmer'
_symmetry_space_group_name_H-M	'P1'
_symmetry_Int_Tables_number	1
_symmetry_cell_setting	triclinic
loop_
_symmetry_equiv_pos_as_xyz
  x,y,z
_cell_length_a	13.033293
_cell_length_b	13.031981
_cell_length_c	13.032268
_cell_angle_alpha	89.068348
_cell_angle_beta	89.079182
_cell_angle_gamma	103.320033
loop_
_atom_site_label
_atom_site_type_symbol
_atom_site_fract_x
_atom_site_fract_y
_atom_site_fract_z
Zn1	Zn	1.463157	-0.323864	-0.735826
Zn2	Zn	1.468592	-0.473460	-0.542764
Zn3	Zn	1.313616	-0.318367	-0.542776
Zn4	Zn	1.270112	-0.516855	-0.686686
O5	O	1.378869	-0.408136	-0.627013
O6	O	1.609526	-0.327848	-0.730775
O7	O	1.468515	-0.432425	-0.401741
O8	O	1.349385	-0.173422	-0.588955
O9	O	1.613519	-0.437755	-0.588934
O10	O	1.459252	-0.177461	-0.730788
O11	O	1.354656	-0.318479	-0.401751
O12	O	1.162198	-0.360557	-0.541307
O13	O	1.275239	-0.511716	-0.834228
O14	O	1.130235	-0.506385	-0.647036
O15	O	1.417068	-0.369927	-0.870331
O16	O	1.426331	-0.624890	-0.541285
O17	O	1.280509	-0.656772	-0.647024
C18	C	1.108452	-0.437585	-0.588841
C19	C	0.992759	-0.450211	-0.572531
C20	C	0.939180	-0.401573	-0.635521
C21	C	0.819606	-0.414622	-0.618666
C22	C	1.349314	-0.678603	-0.588847
C23	C	1.336760	-0.794304	-0.572566
C24	C	1.385474	-0.847815	-0.635538
C25	C	1.372500	-0.967399	-0.618713
C26	C	1.650343	-0.378574	-0.665334
C27	C	1.766029	-0.365976	-0.681665
C28	C	1.340694	-0.446275	-0.889868
C29	C	1.324426	-0.462527	-1.001881
C30	C	1.408565	-0.136614	-0.665354
C31	C	1.421220	-0.020907	-0.681693
C32	C	1.387348	-0.399619	-1.069683
C33	C	1.370535	-0.416415	-1.185455
C34	C	1.416964	-0.370065	-0.365199
C35	C	1.433466	-0.353497	-0.253257
H36	H	0.808677	-0.314665	-0.748072
H37	H	1.499781	-0.287194	-1.225602
C38	C	0.827878	-0.518997	-0.483541
C39	C	0.935190	-0.519474	-0.482884
H40	H	0.792340	-0.561765	-0.428198
H41	H	0.819879	-0.448840	-0.476282
H42	H	0.798634	-0.546082	-0.546584
H43	H	0.964436	-0.492381	-0.419843
H44	H	0.943195	-0.589645	-0.490134
C45	C	1.454191	-0.682854	-0.724459
C46	C	1.454746	-0.790158	-0.725135
H47	H	1.496964	-0.647262	-0.779771
H48	H	1.384028	-0.674902	-0.731757
H49	H	1.481224	-0.653623	-0.661393
H50	H	1.427706	-0.819391	-0.788199
H51	H	1.524923	-0.798117	-0.717845
H52	H	1.321181	-1.010114	-0.552343
H53	H	1.472529	-0.978196	-0.748070
H54	H	1.285445	-0.837023	-0.506201
C55	C	1.281686	-0.505241	-1.330243
C56	C	1.281009	-0.505922	-1.222780
H57	H	1.226422	-0.560504	-1.353284
H58	H	1.271614	-0.439444	-1.355166
H59	H	1.347479	-0.515331	-1.355156
H60	H	1.215219	-0.495824	-1.197867
H61	H	1.291073	-0.571735	-1.197846
C62	C	1.249748	-0.649017	-1.002442
C63	C	1.234897	-0.552027	-1.039206
H64	H	1.194470	-0.704270	-1.025477
H65	H	1.315523	-0.659107	-1.027374
H66	H	1.249303	-0.649455	-0.929537
H67	H	1.235350	-0.551586	-1.112110
H68	H	1.169105	-0.541934	-1.014278
H69	H	0.981833	-0.350267	-0.701925
H70	H	0.776958	-0.465925	-0.552253
C71	C	1.434213	-0.240955	-0.972959
C72	C	1.476878	-0.310126	-1.032348
H73	H	1.489489	-0.185711	-0.949907
H74	H	1.387315	-0.211984	-1.013257
H75	H	1.396913	-0.278259	-0.915425
H76	H	1.514171	-0.272824	-1.089887
H77	H	1.523794	-0.339099	-0.992049
