data_functionalizedCrystal
_audit_creation_method	'MofGen! by Chris Wilmer'
_symmetry_space_group_name_H-M	'P1'
_symmetry_Int_Tables_number	1
_symmetry_cell_setting	triclinic
loop_
_symmetry_equiv_pos_as_xyz
  x,y,z
_cell_length_a	6.394989
_cell_length_b	16.992694
_cell_length_c	16.053802
_cell_angle_alpha	92.750953
_cell_angle_beta	87.356563
_cell_angle_gamma	88.582967
loop_
_atom_site_label
_atom_site_type_symbol
_atom_site_fract_x
_atom_site_fract_y
_atom_site_fract_z
O1	O	-0.435392	-1.047996	-0.069315
O2	O	-0.430522	-0.819664	-0.069340
O3	O	-0.129434	-0.937071	-0.069328
O4	O	-0.736480	-0.930589	-0.069327
O5	O	-0.145934	-0.930608	0.069530
O6	O	-0.447022	-0.813201	0.069518
O7	O	-0.451892	-1.041533	0.069543
Zn8	Zn	-0.452077	-0.926341	0.091577
Zn9	Zn	-0.430337	-0.934856	-0.091374
O10	O	-0.752980	-0.924126	0.069531
C11	C	-0.432511	-0.787158	0.000086
C12	C	-0.413828	-0.699930	0.000076
C13	C	-0.449903	-1.074039	0.000115
C14	C	-0.468585	-1.161268	0.000119
N15	N	-0.466913	-0.920535	0.216437
C16	C	-0.059648	-0.932558	0.000098
C17	C	0.177241	-0.928641	0.000097
N18	N	-0.415486	-0.940668	-0.216234
C19	C	-0.594076	-0.651471	0.000077
C20	C	-0.576512	-0.569510	0.000089
C21	C	-0.378698	-0.536010	0.000093
C22	C	-0.198436	-0.584476	0.000095
C23	C	-0.216003	-0.666435	0.000089
C24	C	-0.305891	-0.291692	0.000116
C25	C	-0.288337	-0.209727	0.000119
C26	C	-0.666415	-0.194766	0.000114
C27	C	-0.683964	-0.276728	0.000103
C28	C	-0.503703	-0.325186	0.000109
N29	N	-0.360739	-0.452234	0.000102
N30	N	-0.521664	-0.408961	0.000106
C31	C	-0.338851	-0.970511	0.260136
C32	C	-0.349250	-0.966457	0.347542
C33	C	-0.487723	-0.912431	0.391248
C34	C	-0.615790	-0.862449	0.347543
C35	C	-0.605379	-0.866500	0.260138
C36	C	-0.533141	-0.894737	0.652656
C37	C	-0.543548	-0.890692	0.740067
C38	C	-0.277004	-0.994700	0.740060
C39	C	-0.266614	-0.998749	0.652654
C40	C	-0.394673	-0.948764	0.608956
N41	N	-0.498361	-0.908288	0.480591
N42	N	-0.384023	-0.952904	0.519615
H43	H	-0.755158	-0.678739	0.000073
H44	H	-0.244971	-1.007151	0.383122
H45	H	-0.709658	-0.825803	0.224559
C46	C	-0.070737	-0.172875	0.000130
H47	H	-0.086099	-0.117123	0.000124
H48	H	-0.001706	-0.187130	0.048555
H49	H	0.009822	-0.191628	-0.048296
H50	H	-0.159108	-0.331137	0.000121
C51	C	-0.774779	-0.516205	0.000081
H52	H	-0.735993	-0.462595	0.000093
H53	H	-0.849559	-0.528809	-0.048347
H54	H	-0.861095	-0.524316	0.048505
H55	H	-0.813173	-0.155303	0.000110
C56	C	-0.901561	-0.313571	0.000110
H57	H	-1.006400	-0.272971	0.000121
H58	H	-0.910529	-0.347481	-0.048312
H59	H	-0.922012	-0.342982	0.048540
H60	H	-0.153858	-1.042741	0.617070
H61	H	-0.226101	-1.014509	0.224557
C62	C	-0.136132	-1.049670	0.788129
H63	H	-0.162145	-1.039517	0.846444
H64	H	-0.165967	-1.102974	0.773797
H65	H	0.006650	-1.040418	0.773810
H66	H	-0.728530	-0.818456	0.383133
C67	C	-0.695867	-0.831260	0.788146
H68	H	-0.683740	-0.836016	0.846459
H69	H	-0.662607	-0.779283	0.773836
H70	H	-0.835242	-0.841832	0.773813
C71	C	-0.017737	-0.719743	0.000088
H72	H	-0.056529	-0.773352	0.000092
H73	H	0.068578	-0.711635	-0.048332
H74	H	0.057046	-0.707137	0.048520
H75	H	-0.637416	-0.854039	0.617084
H76	H	-0.037372	-0.557194	0.000111
