data_functionalizedCrystal
_audit_creation_method	'MofGen! by Chris Wilmer'
_symmetry_space_group_name_H-M	'P1'
_symmetry_Int_Tables_number	1
_symmetry_cell_setting	triclinic
loop_
_symmetry_equiv_pos_as_xyz
  x,y,z
_cell_length_a	19.805407
_cell_length_b	12.594516
_cell_length_c	12.594509
_cell_angle_alpha	89.975348
_cell_angle_beta	89.976910
_cell_angle_gamma	90.017993
loop_
_atom_site_label
_atom_site_type_symbol
_atom_site_fract_x
_atom_site_fract_y
_atom_site_fract_z
Zn1	Zn	1.034802	-0.423671	-0.601917
Zn2	Zn	1.034732	-0.601677	-0.423945
Zn3	Zn	0.921612	-0.423719	-0.423941
Zn4	Zn	0.921601	-0.601614	-0.601870
O5	O	0.978187	-0.512670	-0.512918
O6	O	1.129510	-0.447290	-0.578329
O7	O	1.019702	-0.578116	-0.274998
O8	O	0.936660	-0.274766	-0.447568
O9	O	1.129458	-0.578070	-0.447574
O10	O	1.019821	-0.274732	-0.578326
O11	O	0.936593	-0.447371	-0.274996
O12	O	0.826894	-0.447310	-0.447523
O13	O	0.936642	-0.577964	-0.750822
O14	O	0.826886	-0.578009	-0.578246
O15	O	1.019811	-0.447230	-0.750857
O16	O	1.019691	-0.750614	-0.447529
O17	O	0.936574	-0.750568	-0.578250
C18	C	0.802331	-0.512659	-0.512880
C19	C	0.727099	-0.512680	-0.512889
C20	C	0.265338	-0.444700	-0.581148
C21	C	0.336027	-0.444702	-0.581140
C22	C	0.371337	-0.512686	-0.512953
C23	C	0.335956	-0.580680	-0.444776
C24	C	0.265268	-0.580683	-0.444789
C25	C	0.621029	-0.580672	-0.444719
C26	C	0.691721	-0.580662	-0.444708
C27	C	0.691787	-0.444691	-0.581070
C28	C	0.621100	-0.444694	-0.581084
C29	C	0.585724	-0.512692	-0.512911
C30	C	0.509076	-0.512690	-0.512922
C31	C	0.447984	-0.512683	-0.512936
C32	C	0.978142	-0.789211	-0.512908
C33	C	0.978185	-0.907516	-0.512939
C34	C	0.932974	-0.976783	-0.583988
C35	C	0.916482	-1.047647	-0.486864
C36	C	0.994739	-1.047452	-0.610079
C37	C	0.961661	-0.976822	-0.415764
C38	C	1.039947	-0.976621	-0.539044
C39	C	1.023478	-1.047452	-0.441853
C40	C	1.154730	-0.512682	-0.512957
C41	C	1.229962	-0.512687	-0.512974
C42	C	0.978233	-0.512584	-0.790539
C43	C	0.978253	-0.512548	-0.908845
C44	C	0.978250	-0.235049	-0.512952
C45	C	0.978277	-0.116744	-0.512966
C46	C	0.933046	-0.583565	-1.048843
C47	C	0.916497	-0.486501	-0.978037
C48	C	0.994771	-0.609602	-0.978079
C49	C	0.961711	-0.415299	-1.048825
C50	C	1.040013	-0.538466	-1.048873
C51	C	1.023488	-0.441334	-0.978099
C52	C	0.978180	-0.512679	-0.236377
C53	C	0.978291	-0.512415	-0.118072
H54	H	0.236466	-0.636047	-0.389277
N55	N	0.582883	-0.654001	-0.371182
H56	H	0.553545	-0.610686	-0.321937
H57	H	0.553600	-0.703372	-0.414433
N58	N	1.013238	-1.088560	-0.718875
H59	H	0.979018	-1.062854	-0.772470
H60	H	1.059534	-1.061607	-0.739043
N61	N	0.882246	-0.935653	-0.663458
H62	H	0.894236	-0.962447	-0.736647
H63	H	0.835657	-0.961498	-0.643515
H64	H	0.592353	-0.389331	-0.636606
H65	H	1.061734	-0.381153	-0.947234
N66	N	1.109156	-0.567615	-1.090124
H67	H	1.121580	-0.641030	-1.064437
H68	H	1.108713	-0.566598	-1.170305
H69	H	0.947637	-0.945925	-0.333602
H70	H	1.008726	-0.691737	-0.947004
H71	H	0.364827	-0.389344	-0.636658
N72	N	0.227262	-0.371362	-0.654690
H73	H	0.239586	-0.387986	-0.730710
H74	H	0.177125	-0.381704	-0.644267
N75	N	0.729941	-0.371367	-0.654621
H76	H	0.780080	-0.381685	-0.644278
H77	H	0.717599	-0.388040	-0.730606
N78	N	0.943140	-0.306476	-1.089813
H79	H	0.896656	-0.286695	-1.063416
H80	H	0.977110	-0.252789	-1.063470
N81	N	1.074180	-1.088300	-0.362200
H82	H	1.061624	-1.062469	-0.288898
H83	H	1.074197	-1.168484	-0.363170
N84	N	0.882350	-0.663092	-1.089991
H85	H	0.847721	-0.625429	-1.135216
H86	H	0.906384	-0.718364	-1.134093
H87	H	0.720469	-0.636027	-0.389180
H88	H	0.364711	-0.636038	-0.389260
H89	H	0.864284	-0.464517	-0.946922
N90	N	1.109061	-0.935264	-0.568314
H91	H	1.121491	-0.960908	-0.641734
H92	H	1.108569	-0.855084	-0.567337
H93	H	0.864294	-1.078868	-0.464807
