data_functionalizedCrystal
_audit_creation_method	'MofGen! by Chris Wilmer'
_symmetry_space_group_name_H-M	'P1'
_symmetry_Int_Tables_number	1
_symmetry_cell_setting	triclinic
loop_
_symmetry_equiv_pos_as_xyz
  x,y,z
_cell_length_a	15.698487
_cell_length_b	23.196402
_cell_length_c	23.196401
_cell_angle_alpha	59.999265
_cell_angle_beta	90.005479
_cell_angle_gamma	60.001335
loop_
_atom_site_label
_atom_site_type_symbol
_atom_site_fract_x
_atom_site_fract_y
_atom_site_fract_z
Zr1	Zr	0.820615	0.631024	-0.075642
O2	O	0.684580	0.751303	-0.167694
O3	O	0.862314	0.510755	-0.047426
O4	O	0.862286	0.631041	-0.167701
O5	O	0.684634	0.631001	0.047459
O6	O	1.002467	0.631043	-0.167703
O7	O	0.684608	0.631017	-0.047419
O8	O	1.002517	0.415873	0.047447
O9	O	0.684584	0.846170	-0.167690
O10	O	0.984718	0.560221	-0.035390
O11	O	0.880121	0.560208	0.035418
O12	O	0.880088	0.701829	-0.106190
O13	O	0.775492	0.701815	-0.035381
Zr14	Zr	1.044229	0.631002	0.075677
Zr15	Zr	1.044188	0.631028	-0.075644
Zr16	Zr	0.820657	0.630998	0.075679
Zr17	Zr	0.820621	0.782327	-0.075635
Zr18	Zr	1.044223	0.479699	0.075670
O19	O	1.002531	0.751271	0.047461
O20	O	1.002472	0.751308	-0.167697
O21	O	0.684639	0.751266	0.047465
O22	O	1.180264	0.510723	0.167729
O23	O	1.180205	0.510760	-0.047430
O24	O	0.862373	0.510718	0.167732
O25	O	1.180210	0.631025	-0.047425
O26	O	1.002559	0.630985	0.167736
O27	O	0.862378	0.630983	0.167737
O28	O	1.180236	0.631009	0.047454
O29	O	0.862295	0.846173	-0.167692
O30	O	1.002550	0.415853	0.167727
O31	O	1.180260	0.415856	0.167725
O32	O	1.180228	0.415876	0.047445
O33	O	0.684617	0.846150	-0.047410
O34	O	0.862328	0.846153	-0.047412
O35	O	0.984756	0.560197	0.106224
O36	O	1.089352	0.560211	0.035416
O37	O	0.984723	0.701818	-0.035384
O38	O	0.880127	0.701804	0.035424
C39	C	0.932415	0.441757	0.000009
C40	C	0.932412	0.377525	0.000006
C41	C	0.987003	0.347362	-0.036957
C42	C	0.987013	0.287001	-0.036951
C43	C	0.932412	0.256817	0.000008
C44	C	0.877818	0.286984	0.036980
C45	C	0.877819	0.347338	0.036979
C46	C	0.840940	0.194787	-0.005266
C47	C	0.840937	0.134437	-0.005270
C48	C	0.932413	0.070662	0.000015
C49	C	1.023891	0.067251	0.005290
C50	C	1.023891	0.127605	0.005290
C51	C	0.932406	0.191372	0.000014
C52	C	0.987020	-0.024952	-0.036944
C53	C	0.987033	-0.085318	-0.036933
C54	C	0.877828	-0.085328	0.036994
C55	C	0.877825	-0.024969	0.036988
C56	C	0.932419	0.005218	0.000015
C57	C	0.652767	0.631008	0.000020
C58	C	0.557854	0.631007	0.000021
C59	C	0.384069	0.631021	0.000015
C60	C	0.480773	0.631017	0.000017
C61	C	1.212078	0.631017	0.000014
C62	C	1.306990	0.631019	0.000013
C63	C	0.932371	0.631045	-0.189262
C64	C	0.932353	0.631057	-0.253501
C65	C	0.932430	0.820269	0.000026
C66	C	0.932433	0.884501	0.000028
C67	C	1.009582	0.631059	-0.283665
C68	C	1.009606	0.631043	-0.344012
C69	C	0.932383	0.631040	-0.374201
C70	C	0.855147	0.631033	-0.344027
C71	C	0.855132	0.631041	-0.283677
C72	C	0.838139	0.678533	-0.493579
C73	C	0.838154	0.678530	-0.553930
C74	C	0.932429	0.631011	-0.560337
C75	C	1.026696	0.583506	-0.506390
C76	C	1.026681	0.583514	-0.446041
C77	C	0.932391	0.631031	-0.439639
C78	C	1.009690	0.630995	-0.655935
C79	C	1.009714	0.630973	-0.716280
C80	C	0.855247	0.630972	-0.716298
C81	C	0.855231	0.630985	-0.655950
C82	C	0.932452	0.631000	-0.625774
C83	C	0.932474	0.630980	0.189297
C84	C	0.932492	0.630969	0.253536
C85	C	1.212070	0.441761	0.000006
C86	C	1.306980	0.377531	0.000003
C87	C	0.932466	0.441724	0.189288
C88	C	0.932481	0.377481	0.253525
C89	C	1.212122	0.441729	0.189286
C90	C	1.307049	0.377487	0.253521
C91	C	0.652723	0.820297	-0.189251
C92	C	0.557795	0.884539	-0.253487
C93	C	0.652775	0.820265	0.000028
C94	C	0.557865	0.884495	0.000032
C95	C	0.932378	0.820302	-0.189254
C96	C	0.932363	0.884545	-0.253491
C97	C	1.296932	0.347373	-0.036965
C98	C	1.386102	0.287030	-0.036983
C99	C	1.485318	0.256842	-0.000028
C100	C	1.495363	0.287006	0.036941
C101	C	1.406195	0.347352	0.036954
C102	C	0.987107	0.347307	0.320658
C103	C	0.987117	0.286952	0.381021
C104	C	0.932507	0.256769	0.374250
C105	C	0.877875	0.286950	0.307110
C106	C	0.877859	0.347307	0.246749
C107	C	1.406236	0.347326	0.246726
C108	C	1.495439	0.286973	0.307077
C109	C	1.485453	0.256778	0.374222
C110	C	1.386256	0.286945	0.381016
C111	C	1.297055	0.347301	0.320666
C112	C	0.458609	0.914707	-0.246691
C113	C	0.369406	0.975079	-0.307042
C114	C	0.379392	1.005277	-0.374187
C115	C	0.478589	0.975106	-0.380981
C116	C	0.567789	0.914739	-0.320631
C117	C	0.567912	0.914659	0.036994
C118	C	0.478743	0.975019	0.036995
C119	C	0.379527	1.005209	0.000038
C120	C	0.369481	0.975042	-0.036928
C121	C	0.458650	0.914688	-0.036933
C122	C	0.986984	0.914708	-0.246697
C123	C	0.986990	0.975063	-0.307048
C124	C	0.932369	1.005258	-0.374193
C125	C	0.877747	0.975088	-0.380985
C126	C	0.877748	0.914730	-0.320634
H127	H	1.031477	-0.000376	-0.067047
Cl128	Cl	1.106702	0.631047	-0.381939
H129	H	0.486943	0.999570	0.067100
Cl130	Cl	0.244715	1.012992	-0.298485
Cl131	Cl	1.106816	0.630970	-0.754199
H132	H	1.414386	0.371902	0.192059
H133	H	1.216296	0.371851	0.326209
H134	H	0.833265	0.890177	-0.326176
H135	H	0.306929	1.054353	0.000047
H136	H	1.378141	0.262351	0.435694
Cl137	Cl	1.145181	0.523789	-0.378222
Cl138	Cl	1.055770	0.385236	0.329189
Cl139	Cl	0.491125	1.013075	-0.465398
Cl140	Cl	1.138897	-0.012918	0.011932
Cl141	Cl	1.106663	0.631072	-0.245727
H142	H	0.288688	0.999632	-0.067018
H143	H	0.833363	0.262403	0.067074
Cl144	Cl	0.267242	1.081166	-0.450050
H145	H	0.648549	0.890177	-0.326172
H146	H	1.576201	0.262417	0.301533
Cl147	Cl	1.055663	-0.123235	-0.083409
Cl148	Cl	0.809187	0.385229	0.162356
H149	H	1.576157	0.262418	0.067028
H150	H	1.558094	0.207632	0.423357
Cl151	Cl	1.055807	0.249021	0.465416
H152	H	0.648691	0.890083	0.067093
Cl153	Cl	0.446028	0.876756	-0.162287
H154	H	0.450454	0.890130	-0.067030
Cl155	Cl	1.055660	0.876762	-0.162294
H156	H	0.792374	0.630965	-0.740875
Cl157	Cl	1.055656	1.012983	-0.298493
H158	H	0.932377	1.054405	-0.423329
H159	H	1.103464	0.544811	-0.511603
Cl160	Cl	0.932539	0.180889	0.450142
Cl161	Cl	0.809074	1.013063	-0.465401
Cl162	Cl	0.809184	0.385259	0.083452
H163	H	0.833413	0.262366	0.301608
H164	H	1.098377	0.124823	0.009587
H165	H	1.031469	0.262437	-0.067053
Cl166	Cl	0.809185	-0.123267	0.083458
Cl167	Cl	1.055638	0.385306	-0.083435
H168	H	0.833367	-0.000407	0.067085
H169	H	0.766439	0.246723	-0.009584
Cl170	Cl	1.106772	0.631008	-0.617995
Cl171	Cl	0.758134	0.630988	-0.618029
Cl172	Cl	0.725936	0.138734	-0.011905
H173	H	0.761397	0.717216	-0.597852
H174	H	1.414390	0.371899	0.067062
H175	H	0.792273	0.631029	-0.368609
Cl176	Cl	0.719618	0.738336	-0.485564
H177	H	0.792241	0.631039	-0.259117
H178	H	1.216153	0.371952	-0.067067
H179	H	1.377902	0.262478	-0.067088
Cl180	Cl	1.597406	0.180976	-0.000050
