data_functionalizedCrystal
_audit_creation_method	'MofGen! by Chris Wilmer'
_symmetry_space_group_name_H-M	'P1'
_symmetry_Int_Tables_number	1
_symmetry_cell_setting	triclinic
loop_
_symmetry_equiv_pos_as_xyz
  x,y,z
_cell_length_a	7.088929
_cell_length_b	8.559649
_cell_length_c	8.597275
_cell_angle_alpha	102.375378
_cell_angle_beta	91.318685
_cell_angle_gamma	84.674985
loop_
_atom_site_label
_atom_site_type_symbol
_atom_site_fract_x
_atom_site_fract_y
_atom_site_fract_z
O1	O	-0.164628	-2.102606	-0.034425
O2	O	-0.151555	-1.639990	0.044989
O3	O	-0.195208	-1.876668	-0.220064
O4	O	-0.120975	-1.865928	0.230629
O5	O	0.116922	-1.908296	-0.255557
O6	O	0.160575	-1.671618	0.009496
O7	O	0.147501	-2.134233	-0.069918
Cu8	Cu	0.182538	-1.905813	-0.033452
Cu9	Cu	-0.186591	-1.868410	0.008523
O10	O	0.191154	-1.897555	0.195135
C11	C	0.005500	-1.596470	0.033261
C12	C	0.008448	-1.419674	0.051175
N13	N	0.442163	-1.932132	-0.062977
C14	C	-0.048562	-1.889567	-0.294975
C15	C	-0.076629	-1.880860	-0.465303
N16	N	-0.446219	-1.842104	0.038034
C17	C	-0.009558	-2.177753	-0.058189
C18	C	-0.012518	-2.354548	-0.076102
C19	C	0.044505	-1.884657	0.270046
C20	C	0.072559	-1.893362	0.440376
H21	H	0.489375	-1.748800	0.142712
C22	C	-0.278185	-1.857398	-0.532245
N23	N	-0.430001	-1.839723	-0.582676
C24	C	0.274126	-1.916821	-0.492675
N25	N	0.425944	-1.934487	-0.442247
C26	C	0.529181	-2.058199	-0.204396
N27	N	0.594724	-2.153148	-0.310913
C28	C	-0.039806	-1.461945	-0.241831
N29	N	-0.060355	-1.542848	-0.366662
C30	C	0.035744	-1.312270	0.216912
N31	N	0.056308	-1.231372	0.341743
