data_functionalizedCrystal
_audit_creation_method	'MofGen! by Chris Wilmer'
_symmetry_space_group_name_H-M	'P1'
_symmetry_Int_Tables_number	1
_symmetry_cell_setting	triclinic
loop_
_symmetry_equiv_pos_as_xyz
  x,y,z
_cell_length_a	19.288864
_cell_length_b	14.853567
_cell_length_c	17.766277
_cell_angle_alpha	89.997439
_cell_angle_beta	89.976791
_cell_angle_gamma	83.385589
loop_
_atom_site_label
_atom_site_type_symbol
_atom_site_fract_x
_atom_site_fract_y
_atom_site_fract_z
O1	O	0.921733	0.112464	-0.062829
O2	O	0.719523	0.127636	-0.062777
O3	O	0.826029	-0.011211	-0.062807
O4	O	0.815227	0.251310	-0.062800
O5	O	0.826011	-0.011218	0.062382
O6	O	0.719504	0.127629	0.062411
O7	O	0.921714	0.112457	0.062359
Cu8	Cu	0.820607	0.120042	0.073816
Cu9	Cu	0.820630	0.120051	-0.074234
O10	O	0.815208	0.251303	0.062389
C11	C	0.693636	0.127144	-0.000176
C12	C	0.616527	0.125679	-0.000157
C13	C	0.572106	0.207147	-0.000166
C14	C	0.499654	0.205770	-0.000175
C15	C	0.471627	0.122920	-0.000188
C16	C	0.516058	0.041441	-0.000175
C17	C	0.588508	0.042820	-0.000159
C18	C	0.363152	0.057794	-0.044075
C19	C	0.290703	0.056418	-0.044095
C20	C	0.248167	0.118664	-0.000234
C21	C	0.278088	0.182300	0.043638
C22	C	0.350538	0.183679	0.043654
C23	C	0.393068	0.121416	-0.000205
C24	C	0.125185	0.198645	-0.000252
C25	C	0.052732	0.197265	-0.000255
C26	C	0.069138	0.032933	-0.000263
C27	C	0.141589	0.034316	-0.000252
C28	C	0.169608	0.117174	-0.000250
C29	C	0.825530	-0.044800	-0.000215
C30	C	0.824064	-0.144875	-0.000221
C31	C	0.754596	-0.557014	-0.000189
C32	C	0.881128	-0.579015	-0.000221
C33	C	0.882507	-0.484989	-0.000226
C34	C	0.819930	-0.426971	-0.000211
C35	C	0.755974	-0.462979	-0.000191
C36	C	0.946462	-0.448973	-0.000239
C37	C	0.947844	-0.354942	-0.000242
C38	C	0.885266	-0.296923	-0.000233
C39	C	0.821307	-0.332936	-0.000214
C40	C	0.758730	-0.274918	-0.000199
C41	C	0.694770	-0.310930	-0.000185
C42	C	0.693396	-0.404960	-0.000181
C43	C	0.886641	-0.202893	-0.000236
C44	C	0.760107	-0.180883	-0.000201
C45	C	0.947601	0.112949	-0.000243
C46	C	1.024710	0.114414	-0.000268
C47	C	0.815707	0.284893	-0.000205
C48	C	0.817174	0.384968	-0.000204
N49	N	0.820597	0.120036	0.177946
N50	N	0.820646	0.120050	-0.178364
C51	C	0.867773	0.058585	0.217320
C52	C	0.867777	0.058581	0.296122
C53	C	0.820612	0.120043	0.335547
C54	C	0.773427	0.181499	0.296164
C55	C	0.773419	0.181495	0.217363
C56	C	0.811590	0.202186	0.460389
C57	C	0.811602	0.202191	0.539187
C58	C	0.820630	0.120054	0.578593
C59	C	0.829661	0.037908	0.539190
C60	C	0.829653	0.037905	0.460390
C61	C	0.820614	0.120053	0.420992
C62	C	0.867813	0.058593	0.703413
C63	C	0.867813	0.058588	0.782216
C64	C	0.773465	0.181514	0.782256
C65	C	0.773463	0.181511	0.703455
C66	C	0.820640	0.120052	0.664038
H67	H	0.243457	0.232986	0.079354
C68	C	0.919682	-0.008993	0.173962
H69	H	0.912933	-0.000184	0.121391
H70	H	0.912110	-0.069149	0.186874
H71	H	0.966039	0.000684	0.186863
C72	C	0.625938	-0.247109	-0.000167
H73	H	0.587648	-0.282018	-0.000154
H74	H	0.623856	-0.209966	-0.043820
H75	H	0.623842	-0.209977	0.043497
H76	H	0.997409	-0.496218	-0.000244
H77	H	0.735022	0.231541	0.328267
H78	H	0.804254	0.269079	0.571263
C79	C	0.691271	-0.117071	-0.000184
H80	H	0.652986	-0.151987	-0.000170
H81	H	0.689184	-0.079928	-0.043837
H82	H	0.689171	-0.079937	0.043480
C83	C	1.018195	-0.315337	-0.000268
H84	H	1.055265	-0.363358	-0.000282
H85	H	1.021360	-0.279107	0.043383
H86	H	1.021365	-0.279120	-0.043935
H87	H	0.837004	-0.028981	0.428312
H88	H	0.938716	-0.173576	-0.000242
H89	H	0.735002	0.231537	0.185305
C90	C	0.156009	0.289783	-0.000242
H91	H	0.119174	0.338108	-0.000238
H92	H	0.183953	0.293741	-0.043893
H93	H	0.183909	0.293733	0.043424
H94	H	0.016564	0.263609	-0.000259
H95	H	0.594914	0.274617	-0.000166
H96	H	0.463479	0.272114	-0.000180
C97	C	0.623049	-0.444575	-0.000156
H98	H	0.631192	-0.508884	-0.000146
H99	H	0.597281	-0.424650	-0.043803
H100	H	0.597278	-0.424642	0.043514
C101	C	0.949957	-0.642830	-0.000236
H102	H	0.939976	-0.703988	-0.000235
H103	H	0.976173	-0.631939	0.043411
H104	H	0.976181	-0.631944	-0.043907
H105	H	0.906195	0.008538	0.328186
H106	H	0.702522	-0.586339	-0.000180
H107	H	0.374897	0.235492	0.079378
H108	H	0.624677	-0.023524	-0.000151
H109	H	0.046319	-0.034525	-0.000321
H110	H	0.837012	-0.028976	0.571273
C111	C	0.919698	-0.009017	0.660051
H112	H	0.947789	-0.045626	0.694790
H113	H	0.948639	0.023315	0.629293
H114	H	0.894671	-0.046465	0.629327
C115	C	0.409934	-0.010674	-0.092332
H116	H	0.381738	-0.048758	-0.118472
H117	H	0.441817	-0.046544	-0.060715
H118	H	0.435099	0.021048	-0.127593
C119	C	0.919710	-0.009010	0.825527
H120	H	0.947809	-0.045604	0.790763
H121	H	0.894699	-0.046461	0.856284
H122	H	0.948653	0.023338	0.856249
H123	H	0.735059	0.231554	0.814356
H124	H	0.177758	-0.032025	-0.000248
H125	H	0.735050	0.231554	0.671394
C126	C	0.801664	0.292543	0.417050
H127	H	0.796299	0.341464	0.451800
H128	H	0.761222	0.294506	0.386329
H129	H	0.841359	0.297406	0.386291
H130	H	0.266347	0.004605	-0.079821
H131	H	0.493234	-0.026016	-0.000196
