data_functionalizedCrystal
_audit_creation_method	'MofGen! by Chris Wilmer'
_symmetry_space_group_name_H-M	'P1'
_symmetry_Int_Tables_number	1
_symmetry_cell_setting	triclinic
loop_
_symmetry_equiv_pos_as_xyz
  x,y,z
_cell_length_a	12.759401
_cell_length_b	16.120444
_cell_length_c	12.759393
_cell_angle_alpha	87.135249
_cell_angle_beta	90.019676
_cell_angle_gamma	92.926867
loop_
_atom_site_label
_atom_site_type_symbol
_atom_site_fract_x
_atom_site_fract_y
_atom_site_fract_z
Zn1	Zn	1.584975	-0.331858	0.615155
Zn2	Zn	1.575921	-0.471294	0.448370
Zn3	Zn	1.409271	-0.331899	0.439496
Zn4	Zn	1.400324	-0.471233	0.624007
O5	O	1.492623	-0.401571	0.531757
O6	O	1.730795	-0.350362	0.593039
O7	O	1.553769	-0.452846	0.300174
O8	O	1.440113	-0.215228	0.455380
O9	O	1.724142	-0.452805	0.470503
O10	O	1.569202	-0.215197	0.584435
O11	O	1.431333	-0.350433	0.293655
O12	O	1.261064	-0.350374	0.463963
O13	O	1.424863	-0.452701	0.769851
O14	O	1.254490	-0.452742	0.599522
O15	O	1.560526	-0.350303	0.763347
O16	O	1.545093	-0.587951	0.479087
O17	O	1.416083	-0.587907	0.608127
C18	C	1.219656	-0.401556	0.531741
C19	C	1.102879	-0.401570	0.531761
C20	C	1.051475	-0.348325	0.595675
C21	C	0.941751	-0.348333	0.595683
C22	C	0.934842	-0.454840	0.467859
C23	C	1.044565	-0.454827	0.467847
C24	C	1.478663	-0.618179	0.545553
C25	C	1.472788	-0.710845	0.551490
C26	C	1.523361	-0.921789	0.501184
C27	C	1.462080	-0.880501	0.562341
C28	C	1.468039	-0.786096	0.556302
C29	C	1.517402	-1.016203	0.507222
C30	C	1.766655	-0.401586	0.531773
C31	C	1.883431	-0.401592	0.531780
C32	C	1.492707	-0.401491	0.805785
C33	C	1.492742	-0.401457	0.922560
C34	C	1.506665	-0.184117	0.517930
C35	C	1.512649	-0.091451	0.512038
C36	C	1.492604	-0.401590	0.258791
C37	C	1.492787	-0.401390	0.142002
C38	C	1.563387	-0.348129	0.974037
C39	C	1.563407	-0.348093	1.083758
C40	C	1.422134	-0.454719	1.090518
C41	C	1.422110	-0.454750	0.980798
H42	H	1.086419	-0.498187	0.415794
H43	H	1.580297	-0.886240	0.444293
O44	O	1.632029	-0.296278	0.917621
C45	C	1.694401	-0.249217	0.986590
H46	H	1.651571	-0.246307	1.064612
H47	H	1.772225	-0.279747	1.000212
C48	C	1.767869	-0.164072	0.842304
C49	C	1.715260	-0.160492	0.938130
H50	H	1.780740	-0.109344	0.812411
H51	H	1.725851	-0.195780	0.795837
H52	H	1.832717	-0.189518	0.853670
H53	H	1.650408	-0.135057	0.926762
H54	H	1.757268	-0.128778	0.984594
H55	H	0.887350	-0.498201	0.415823
O56	O	1.631929	-0.296316	1.133926
C57	C	1.616822	-0.307724	1.243258
H58	H	1.533983	-0.335020	1.259967
H59	H	1.676280	-0.352112	1.277233
C60	C	1.733650	-0.189824	1.273697
C61	C	1.631902	-0.223343	1.294219
H62	H	1.742956	-0.137776	1.305134
H63	H	1.743831	-0.182140	1.200039
H64	H	1.783186	-0.226822	1.302010
H65	H	1.582368	-0.186350	1.265894
H66	H	1.621712	-0.231019	1.367874
O67	O	1.394115	-0.922780	0.630301
C68	C	1.338281	-0.865798	0.685955
H69	H	1.385159	-0.803665	0.685743
H70	H	1.259081	-0.856657	0.646827
C71	C	1.263380	-0.976149	0.800150
C72	C	1.320960	-0.899838	0.799897
H73	H	1.252690	-0.997147	0.870434
H74	H	1.300992	-1.014540	0.762653
H75	H	1.197385	-0.968521	0.767539
H76	H	1.386958	-0.907469	0.832496
H77	H	1.283358	-0.861449	0.837403
O78	O	1.353577	-0.506607	1.146985
C79	C	1.371181	-0.589709	1.125478
H80	H	1.411437	-0.591461	1.045928
H81	H	1.423399	-0.617775	1.189021
C82	C	1.216054	-0.638052	1.221312
C83	C	1.265488	-0.640205	1.123603
H84	H	1.150859	-0.669203	1.220160
H85	H	1.204195	-0.582065	1.235806
H86	H	1.259579	-0.661440	1.274254
H87	H	1.221969	-0.616809	1.070665
H88	H	1.277338	-0.696190	1.109100
O89	O	1.353626	-0.506598	0.930673
C90	C	1.409950	-0.560478	0.870657
H91	H	1.491466	-0.531085	0.852367
H92	H	1.417508	-0.622253	0.916867
C93	C	1.251031	-0.611694	0.789845
C94	C	1.351147	-0.575590	0.767374
H95	H	1.214757	-0.621020	0.726137
H96	H	1.213083	-0.575397	0.830281
H97	H	1.257343	-0.663169	0.828356
H98	H	1.344833	-0.524112	0.728875
H99	H	1.389093	-0.611880	0.726928
H100	H	0.899903	-0.304974	0.647726
O101	O	1.107965	-0.296512	0.657783
C102	C	1.039059	-0.249533	0.714215
H103	H	0.961015	-0.246614	0.671008
H104	H	1.025454	-0.280141	0.795894
C105	C	1.183447	-0.164397	0.776959
C106	C	1.087595	-0.160806	0.723886
H107	H	1.213387	-0.109667	0.782930
H108	H	1.229871	-0.196049	0.738943
H109	H	1.172096	-0.189907	0.845019
H110	H	1.098948	-0.135306	0.655823
H111	H	1.041173	-0.129147	0.761891
