data_functionalizedCrystal
_audit_creation_method	'MofGen! by Chris Wilmer'
_symmetry_space_group_name_H-M	'P1'
_symmetry_Int_Tables_number	1
_symmetry_cell_setting	triclinic
loop_
_symmetry_equiv_pos_as_xyz
  x,y,z
_cell_length_a	12.645330
_cell_length_b	17.077404
_cell_length_c	17.077396
_cell_angle_alpha	89.982480
_cell_angle_beta	89.972961
_cell_angle_gamma	90.008032
loop_
_atom_site_label
_atom_site_type_symbol
_atom_site_fract_x
_atom_site_fract_y
_atom_site_fract_z
Zn1	Zn	-0.422161	1.200093	-0.443861
Zn2	Zn	0.077839	1.700093	0.056139
Zn3	Zn	-0.599449	1.200029	-0.312600
Zn4	Zn	-0.099449	1.700029	0.187400
Zn5	Zn	-0.422186	1.068830	-0.312608
Zn6	Zn	0.077814	1.568830	0.187392
Zn7	Zn	-0.599369	1.068816	-0.443823
Zn8	Zn	-0.099369	1.568816	0.056177
O9	O	-0.510791	1.134442	-0.378223
O10	O	-0.010791	1.634442	0.121777
O11	O	-0.445702	1.309931	-0.426461
O12	O	0.054298	1.809931	0.073539
O13	O	-0.575979	1.182604	-0.202754
O14	O	-0.075979	1.682604	0.297246
O15	O	-0.273835	1.086275	-0.330038
O16	O	0.226165	1.586275	0.169962
O17	O	-0.575955	1.309884	-0.330025
O18	O	-0.075955	1.809884	0.169975
O19	O	-0.273817	1.182713	-0.426469
O20	O	0.226183	1.682713	0.073531
O21	O	-0.445744	1.086213	-0.202760
O22	O	0.054256	1.586213	0.297240
O23	O	-0.445666	0.958981	-0.330002
O24	O	0.054334	1.458981	0.169998
O25	O	-0.575818	1.086252	-0.553675
O26	O	-0.075818	1.586252	-0.053675
O27	O	-0.575842	0.958971	-0.426405
O28	O	-0.075842	1.458971	0.073595
O29	O	-0.445624	1.182700	-0.553703
O30	O	0.054376	1.682700	-0.053703
O31	O	-0.747786	1.182590	-0.329988
O32	O	-0.247786	1.682590	0.170012
O33	O	-0.747727	1.086189	-0.426397
O34	O	-0.247727	1.586189	0.073603
C35	C	-0.510749	0.930494	-0.378200
C36	C	-0.010749	1.430494	0.121800
C37	C	-0.510756	0.843244	-0.378209
C38	C	-0.010756	1.343244	0.121791
C39	C	-0.578725	0.467445	-0.428364
C40	C	-0.078725	0.967445	0.071636
C41	C	-0.578711	0.549426	-0.428352
C42	C	-0.078711	1.049426	0.071648
C43	C	-0.510819	0.590395	-0.378236
C44	C	-0.010819	1.090395	0.121764
C45	C	-0.442944	0.549380	-0.328123
C46	C	0.057056	1.049380	0.171877
C47	C	-0.442964	0.467401	-0.328131
C48	C	0.057036	0.967401	0.171869
C49	C	-0.442906	0.720250	-0.328110
C50	C	0.057094	1.220250	0.171890
C51	C	-0.442884	0.802235	-0.328102
C52	C	0.057116	1.302235	0.171898
C53	C	-0.578653	0.802275	-0.428330
C54	C	-0.078653	1.302275	0.071670
C55	C	-0.578673	0.720296	-0.428339
C56	C	-0.078673	1.220296	0.071661
C57	C	-0.510796	0.679286	-0.378226
C58	C	-0.010796	1.179286	0.121774
C59	C	-0.786221	1.134403	-0.378204
C60	C	-0.286221	1.634403	0.121796
C61	C	-0.904051	1.134458	-0.378223
C62	C	-0.404051	1.634458	0.121777
C63	C	-1.071608	1.195006	-0.317449
C64	C	-0.571608	1.695006	0.182551
C65	C	-0.949048	1.195204	-0.317598
C66	C	-0.449048	1.695204	0.182402
C67	C	-0.948435	1.156887	-0.460967
C68	C	-0.448435	1.656887	0.039033
C69	C	-1.071034	1.157367	-0.460644
C70	C	-0.571034	1.657367	0.039356
C71	C	-1.071369	1.051456	-0.357068
C72	C	-0.571369	1.551456	0.142932
C73	C	-0.948765	1.051854	-0.355213
C74	C	-0.448765	1.551854	0.144787
C75	C	-0.234286	1.134503	-0.378259
C76	C	0.265714	1.634503	0.121741
C77	C	-0.116456	1.134529	-0.378274
C78	C	0.383544	1.634529	0.121726
C79	C	-0.510709	1.134481	-0.582967
C80	C	-0.010709	1.634481	-0.082967
C81	C	-0.510674	1.134498	-0.670217
C82	C	-0.010674	1.634498	-0.170217
C83	C	-0.510835	1.339186	-0.378246
C84	C	-0.010835	1.839186	0.121754
C85	C	-0.510853	1.426436	-0.378256
C86	C	-0.010853	1.926436	0.121744
C87	C	-0.442853	1.084323	-0.711210
C88	C	0.057147	1.584323	-0.211210
C89	C	-0.442829	1.084335	-0.793190
C90	C	0.057171	1.584335	-0.293190
C91	C	-0.510621	1.134528	-0.834177
C92	C	-0.010621	1.634528	-0.334177
C93	C	-0.578450	1.184706	-0.793178
C94	C	-0.078450	1.684706	-0.293178
C95	C	-0.578479	1.184689	-0.711199
C96	C	-0.078479	1.684689	-0.211199
C97	C	-0.578384	1.184740	-0.964049
C98	C	-0.078384	1.684740	-0.464049
C99	C	-0.578354	1.184759	-1.046033
C100	C	-0.078354	1.684759	-0.546033
C101	C	-0.442734	1.084387	-1.046040
C102	C	0.057266	1.584387	-0.546040
C103	C	-0.442763	1.084369	-0.964061
C104	C	0.057237	1.584369	-0.464061
C105	C	-0.510590	1.134548	-0.923068
C106	C	-0.010590	1.634548	-0.423068
C107	C	-0.510797	1.134448	-0.174275
C108	C	-0.010797	1.634448	0.325725
C109	C	-0.510533	1.134583	-0.087026
C110	C	-0.010533	1.634583	0.412974
H111	H	-0.633952	0.686940	-0.469151
H112	H	-0.133952	1.186940	0.030849
H113	H	-0.918145	1.004363	-0.396266
H114	H	-0.418145	1.504363	0.103734
H115	H	-0.387555	1.043501	-0.930692
H116	H	0.112445	1.543501	-0.430692
C117	C	-0.909049	1.099195	-0.523835
C118	C	-0.409049	1.599195	-0.023835
N119	N	-0.879379	1.055741	-0.571187
N120	N	-0.379379	1.555741	-0.071187
H121	H	-1.100372	1.006395	-0.401370
H122	H	-0.600372	1.506395	0.098630
C123	C	-0.368254	0.594450	-0.273000
C124	C	0.131746	1.094450	0.227000
N125	N	-0.311990	0.628396	-0.231485
N126	N	0.188010	1.128396	0.268515
H127	H	-0.387693	0.434013	-0.287330
H128	H	0.112307	0.934013	0.212670
C129	C	-0.652937	1.239968	-1.091117
C130	C	-0.152937	1.739968	-0.591117
N131	N	-0.709116	1.281551	-1.125073
N132	N	-0.209116	1.781551	-0.625073
H133	H	-0.919043	1.181171	-0.256244
H134	H	-0.419043	1.681171	0.243756
C135	C	-0.653263	1.239741	-0.838266
C136	C	-0.153263	1.739741	-0.338266
N137	N	-0.709697	1.281132	-0.872225
N138	N	-0.209697	1.781132	-0.372225
C139	C	-0.906862	1.237997	-0.485636
C140	C	-0.406862	1.737997	0.014364
N141	N	-0.875552	1.299091	-0.504212
N142	N	-0.375552	1.799091	-0.004212
C143	C	-1.113249	1.023904	-0.276971
C144	C	-0.613249	1.523904	0.223029
N145	N	-1.144792	1.003160	-0.216639
N146	N	-0.644792	1.503160	0.283361
C147	C	-0.909576	1.029000	-0.272954
C148	C	-0.409576	1.529000	0.227046
N149	N	-0.880048	1.011786	-0.210998
N150	N	-0.380048	1.511786	0.289002
H151	H	-0.387642	1.043454	-0.677845
H152	H	0.112358	1.543454	-0.177845
C153	C	-1.109564	1.239402	-0.484901
C154	C	-0.609564	1.739402	0.015099
N155	N	-1.138580	1.301194	-0.503168
N156	N	-0.638580	1.801194	-0.003168
H157	H	-0.387606	1.043474	-0.826563
H158	H	0.112394	1.543474	-0.326563
C159	C	-0.653083	1.239889	-0.666108
C160	C	-0.153083	1.739889	-0.166108
N161	N	-0.709278	1.281468	-0.632146
N162	N	-0.209278	1.781468	-0.132146
H163	H	-1.100696	1.115247	-0.507525
H164	H	-0.600696	1.615247	-0.007525
C165	C	-0.653380	0.594532	-0.483471
C166	C	-0.153380	1.094532	0.016529
N167	N	-0.709626	0.628506	-0.524989
N168	N	-0.209626	1.128506	-0.024989
C169	C	-0.653321	0.847386	-0.483452
C170	C	-0.153321	1.347386	0.016548
N171	N	-0.709557	0.881368	-0.524970
N172	N	-0.209557	1.381368	-0.024970
H173	H	-0.387590	0.835590	-0.287300
H174	H	0.112410	1.335590	0.212700
C175	C	-1.111541	1.176294	-0.234320
C176	C	-0.611541	1.676294	0.265680
N177	N	-1.141624	1.162198	-0.171704
N178	N	-0.641624	1.662198	0.328296
H179	H	-0.387631	0.686863	-0.287304
H180	H	0.112369	1.186863	0.212696
H181	H	-0.633607	1.225608	-0.930675
H182	H	-0.133607	1.725608	-0.430675
C183	C	-1.113151	1.277682	-0.336172
C184	C	-0.613151	1.777682	0.163828
N185	N	-1.144451	1.339951	-0.350273
N186	N	-0.644451	1.839951	0.149727
C187	C	-0.653415	0.422386	-0.483495
C188	C	-0.153415	0.922386	0.016505
N189	N	-0.709679	0.388450	-0.525018
N190	N	-0.209679	0.888450	-0.025018
H191	H	-0.387505	1.043530	-1.079420
H192	H	0.112495	1.543530	-0.579420
H193	H	-0.919646	1.256733	-0.331624
H194	H	-0.419646	1.756733	0.168376
