data_functionalizedCrystal
_audit_creation_method	'MofGen! by Chris Wilmer'
_symmetry_space_group_name_H-M	'P1'
_symmetry_Int_Tables_number	1
_symmetry_cell_setting	triclinic
loop_
_symmetry_equiv_pos_as_xyz
  x,y,z
_cell_length_a	21.606444
_cell_length_b	21.606444
_cell_length_c	21.606444
_cell_angle_alpha	89.999087
_cell_angle_beta	60.003167
_cell_angle_gamma	59.999875
loop_
_atom_site_label
_atom_site_type_symbol
_atom_site_fract_x
_atom_site_fract_y
_atom_site_fract_z
Zr1	Zr	0.677470	0.596216	-0.081219
O2	O	0.806580	0.497394	-0.180034
O3	O	0.548354	0.626511	-0.050930
O4	O	0.677467	0.626513	-0.180043
O5	O	0.677471	0.497390	0.050929
O6	O	0.677471	0.728362	-0.180046
O7	O	0.677467	0.497393	-0.050921
O8	O	0.446512	0.728359	0.050913
O9	O	0.908430	0.497393	-0.180030
O10	O	0.601467	0.715440	-0.038011
O11	O	0.601467	0.639429	0.038001
O12	O	0.753480	0.639430	-0.114013
O13	O	0.753480	0.563419	-0.038001
Zr14	Zr	0.677484	0.758651	0.081214
Zr15	Zr	0.677477	0.758654	-0.081225
Zr16	Zr	0.677477	0.596212	0.081220
Zr17	Zr	0.839910	0.596214	-0.081214
Zr18	Zr	0.515043	0.758652	0.081209
O19	O	0.806599	0.728356	0.050925
O20	O	0.806589	0.728361	-0.180042
O21	O	0.806589	0.497389	0.050933
O22	O	0.548374	0.857472	0.180029
O23	O	0.548364	0.857478	-0.050938
O24	O	0.548364	0.626506	0.180037
O25	O	0.677482	0.857476	-0.050934
O26	O	0.677487	0.728354	0.180037
O27	O	0.677482	0.626504	0.180041
O28	O	0.677487	0.857474	0.050916
O29	O	0.908436	0.626510	-0.180035
O30	O	0.446517	0.728356	0.180030
O31	O	0.446523	0.857473	0.180025
O32	O	0.446517	0.857476	0.050908
O33	O	0.908436	0.497390	-0.050913
O34	O	0.908441	0.626507	-0.050918
O35	O	0.601473	0.715436	0.114008
O36	O	0.601473	0.791447	0.037996
O37	O	0.753487	0.715438	-0.038006
O38	O	0.753487	0.639427	0.038006
C39	C	0.474289	0.677435	-0.000009
C40	C	0.405329	0.677436	-0.000011
C41	C	0.372931	0.717111	-0.039690
C42	C	0.308131	0.717114	-0.039685
C43	C	0.275734	0.677437	-0.000005
C44	C	0.308134	0.637760	0.039678
C45	C	0.372929	0.637762	0.039677
C46	C	0.046825	0.637751	0.039685
C47	C	-0.017972	0.637750	0.039681
C48	C	-0.017973	0.717103	-0.039677
C49	C	0.046822	0.717105	-0.039679
C50	C	0.079213	0.677432	0.000008
C51	C	0.149475	0.677431	0.000003
C52	C	0.205477	0.677433	-0.000004
C53	C	0.677468	0.474247	0.000005
C54	C	0.677465	0.405288	0.000007
C55	C	0.598116	0.412565	0.039677
C56	C	0.598118	0.347767	0.039677
C57	C	0.677471	0.275694	0.000004
C58	C	0.756826	0.268419	-0.039667
C59	C	0.756822	0.333215	-0.039663
C60	C	0.756841	0.007101	-0.039684
C61	C	0.756838	-0.057697	-0.039687
C62	C	0.598137	0.021653	0.039656
C63	C	0.598134	0.086449	0.039660
C64	C	0.677488	0.079169	-0.000007
C65	C	0.677485	0.149430	-0.000006
C66	C	0.677475	0.205434	-0.000002
C67	C	0.880665	0.677431	0.000004
C68	C	0.949625	0.677430	0.000006
C69	C	0.677468	0.677438	-0.203188
C70	C	0.677465	0.677439	-0.272148
C71	C	0.677485	0.880619	-0.000010
C72	C	0.677488	0.949579	-0.000012
C73	C	0.756837	0.637753	-0.735130
C74	C	0.756835	0.637752	-0.670333
C75	C	0.677483	0.677428	-0.598263
C76	C	0.598127	0.717104	-0.590992
C77	C	0.598131	0.717100	-0.655789
C78	C	0.598112	0.717116	-0.329674
C79	C	0.598115	0.717118	-0.264876
C80	C	0.756816	0.637767	-0.344218
C81	C	0.756820	0.637764	-0.409015
C82	C	0.677465	0.677436	-0.401738
C83	C	0.677469	0.677436	-0.471999
C84	C	0.677478	0.677433	-0.528003
C85	C	0.677485	0.677429	0.203183
C86	C	0.677488	0.677427	0.272143
C87	C	0.474297	0.880621	-0.000017
C88	C	0.405340	0.949581	-0.000021
C89	C	0.474297	0.677431	0.203177
C90	C	0.405340	0.677430	0.272134
C91	C	0.474306	0.880617	0.203169
C92	C	0.405352	0.949575	0.272124
C93	C	0.880647	0.474250	-0.203174
C94	C	0.949601	0.405291	-0.272129
C95	C	0.880656	0.474245	0.000011
C96	C	0.949613	0.405285	0.000016
C97	C	0.880656	0.677436	-0.203182
C98	C	0.949613	0.677437	-0.272139
C99	C	0.372954	0.942291	-0.039705
C100	C	0.308170	1.007080	-0.039725
C101	C	0.275770	1.079159	-0.000056
C102	C	0.308163	1.086448	0.039629
C103	C	0.372949	1.021660	0.039644
C104	C	0.372961	0.717105	0.344198
C105	C	0.308177	0.717101	0.408997
C106	C	0.275770	0.677427	0.401730
C107	C	0.308156	0.637747	0.329658
C108	C	0.372943	0.637747	0.264861
C109	C	0.372970	1.021643	0.264828
C110	C	0.308189	1.086443	0.329612
C111	C	0.275787	1.079174	0.401691
C112	C	0.308175	1.007099	0.408986
C113	C	0.372959	0.942300	0.344202
C114	C	0.981991	0.333224	-0.264834
C115	C	1.046792	0.268424	-0.329618
C116	C	1.079198	0.275693	-0.401697
C117	C	1.046805	0.347768	-0.408991
C118	C	0.982010	0.412566	-0.344207
C119	C	0.982006	0.412576	0.039693
C120	C	1.046808	0.347787	0.039695
C121	C	1.079211	0.275707	0.000024
C122	C	1.046815	0.268418	-0.039658
C123	C	0.982019	0.333207	-0.039664
C124	C	0.982000	0.717119	-0.264847
C125	C	1.046784	0.717134	-0.329634
C126	C	1.079184	0.677463	-0.401711
C127	C	1.046791	0.637780	-0.409001
C128	C	0.982004	0.637769	-0.344216
H129	H	0.399308	0.749418	-0.072006
H130	H	0.281747	0.605458	0.071991
H131	H	1.073151	0.749448	-0.323683
H132	H	0.399334	0.883606	-0.072017
F133	F	0.841289	0.595503	-0.678078
H134	H	0.955629	0.471261	0.072003
H135	H	0.399316	0.883622	0.350153
H136	H	0.533498	0.471247	0.071987
F137	F	0.273704	0.999306	-0.081962
F138	F	1.148172	0.206760	0.000037
H139	H	0.281826	1.145124	0.323660
H140	H	-0.044356	0.749410	-0.071990
H141	H	0.821437	0.327286	-0.071956
H142	H	1.131939	0.677478	-0.454458
F143	F	1.081301	0.355492	-0.485709
F144	F	1.148159	0.206721	-0.470639
H145	H	0.281816	0.749416	0.467675
F146	F	0.841300	-0.134407	-0.081914
H147	H	0.955639	0.471245	-0.350157
F148	F	0.206817	0.677434	0.470700
H149	H	0.281760	0.605445	0.323752
F150	F	1.081272	0.355560	0.081934
F151	F	1.081307	0.191700	-0.081875
F152	F	0.206837	1.148146	0.470634
F153	F	0.841277	0.595537	-0.485715
H154	H	0.821431	0.605462	-0.350137
F155	F	0.947546	0.325435	-0.081892
F156	F	0.513676	0.163154	0.081883
F157	F	0.206816	1.148107	-0.000077
H158	H	0.955629	0.749424	-0.206164
F159	F	0.273681	0.999374	0.485704
H160	H	1.073155	0.209743	-0.323664
H161	H	0.281773	1.145144	0.071926
H162	H	1.073182	0.605480	-0.467695
F163	F	0.513677	0.759325	-0.648046
F164	F	0.513664	0.355517	0.081906
H165	H	0.399343	1.027576	0.206144
F166	F	0.407393	0.595521	0.188166
F167	F	0.513656	0.759338	-0.321921
F168	F	0.273667	0.759329	-0.081930
F169	F	0.081301	0.759331	-0.081915
F170	F	0.081287	0.595530	0.081925
H171	H	0.955610	0.327291	-0.206149
H172	H	0.955642	0.605452	-0.350163
F173	F	0.841296	0.595527	-0.811829
F174	F	0.407406	1.029431	0.081888
H175	H	-0.044348	0.605439	0.071995
H176	H	0.533523	0.027575	0.071957
F177	F	0.407407	0.595536	0.081910
F178	F	0.841279	0.191711	-0.081885
F179	F	0.841297	-0.000657	-0.081903
H180	H	0.533493	0.749428	-0.206192
H181	H	0.399339	0.749413	0.350130
F182	F	0.513674	0.759326	-0.514289
