data_functionalizedCrystal
_audit_creation_method	'MofGen! by Chris Wilmer'
_symmetry_space_group_name_H-M	'P1'
_symmetry_Int_Tables_number	1
_symmetry_cell_setting	triclinic
loop_
_symmetry_equiv_pos_as_xyz
  x,y,z
_cell_length_a	19.188930
_cell_length_b	17.699083
_cell_length_c	16.176319
_cell_angle_alpha	90.007696
_cell_angle_beta	90.021299
_cell_angle_gamma	83.213897
loop_
_atom_site_label
_atom_site_type_symbol
_atom_site_fract_x
_atom_site_fract_y
_atom_site_fract_z
O1	O	-0.926253	-0.094493	-0.069014
O2	O	-0.722956	-0.107214	-0.068957
O3	O	-0.830349	0.009343	-0.068980
O4	O	-0.818861	-0.211050	-0.068991
O5	O	-0.830334	0.009351	0.068513
O6	O	-0.722942	-0.107206	0.068536
O7	O	-0.926239	-0.094486	0.068479
Cu8	Cu	-0.824589	-0.100845	0.081062
Cu9	Cu	-0.824606	-0.100854	-0.081540
O10	O	-0.818847	-0.211043	0.068502
C11	C	-0.829930	0.037543	-0.000233
C12	C	-0.828695	0.121560	-0.000233
C13	C	-0.696938	-0.106798	-0.000204
C14	C	-0.619432	-0.105561	-0.000182
C15	C	-0.952258	-0.094902	-0.000276
C16	C	-1.029763	-0.096138	-0.000304
C17	C	-0.574584	-0.173953	-0.000198
C18	C	-0.501759	-0.172791	-0.000207
C19	C	-0.473785	-0.103234	-0.000216
C20	C	-0.518642	-0.034833	-0.000195
C21	C	-0.591465	-0.035997	-0.000178
N22	N	-0.365750	-0.050069	-0.047042
N23	N	-0.296570	-0.048968	-0.047060
C24	C	-0.254372	-0.099724	-0.000267
N25	N	-0.283966	-0.151634	0.046535
N26	N	-0.353152	-0.152737	0.046550
C27	C	-0.394821	-0.101965	-0.000235
C28	C	-0.130559	-0.166861	-0.000292
C29	C	-0.057733	-0.165696	-0.000296
C30	C	-0.074617	-0.027736	-0.000292
C31	C	-0.147442	-0.028903	-0.000280
C32	C	-0.175408	-0.098467	-0.000284
C33	C	-0.819266	-0.239243	-0.000247
C34	C	-0.820500	-0.323259	-0.000253
N35	N	-0.824582	-0.100839	0.195427
C36	C	-0.891732	0.170264	-0.000249
C37	C	-0.890567	0.249206	-0.000256
C38	C	-0.826365	0.279442	-0.000241
C39	C	-0.763323	0.230732	-0.000227
C40	C	-0.764489	0.151791	-0.000226
C41	C	-0.758623	0.549089	-0.000232
C42	C	-0.757463	0.628035	-0.000231
C43	C	-0.884702	0.646503	-0.000262
C44	C	-0.885867	0.567563	-0.000261
C45	C	-0.822826	0.518859	-0.000252
C46	C	-0.824089	0.433262	-0.000246
C47	C	-0.825101	0.365038	-0.000241
N48	N	-0.824619	-0.100855	-0.195905
C49	C	-0.872149	-0.049248	0.238681
C50	C	-0.872153	-0.049248	0.325228
C51	C	-0.824592	-0.100841	0.368520
C52	C	-0.777019	-0.152434	0.325259
C53	C	-0.777013	-0.152431	0.238714
C54	C	-0.777043	-0.152448	0.674288
C55	C	-0.777054	-0.152449	0.760839
C56	C	-0.872183	-0.049265	0.760802
C57	C	-0.872177	-0.049262	0.674256
C58	C	-0.824602	-0.100852	0.631004
C59	C	-0.824598	-0.100851	0.537160
C60	C	-0.824599	-0.100846	0.462362
H61	H	-0.597349	-0.230598	-0.000203
H62	H	-0.910882	-0.007238	0.203439
Br63	Br	-0.673067	0.483001	-0.000224
H64	H	-0.936033	0.686167	-0.000274
H65	H	-0.944012	0.145652	-0.000256
Br66	Br	-0.036660	0.066665	-0.000291
H67	H	-0.738322	-0.194465	0.796085
Br68	Br	-0.973001	0.526532	-0.000283
Br69	Br	-0.678935	0.085692	-0.000210
Br70	Br	-0.936707	0.020771	0.383933
Br71	Br	-0.712481	-0.222462	0.615592
H72	H	-0.465238	-0.228486	-0.000218
Br73	Br	-0.480679	0.059567	-0.000199
H74	H	-0.021218	-0.221391	-0.000305
Br75	Br	-0.976121	0.315302	-0.000278
Br76	Br	-0.712465	-0.222451	0.384008
Br77	Br	-0.712449	-0.222445	0.180011
Br78	Br	-0.168518	-0.261267	-0.000291
Br79	Br	-0.208310	0.063920	-0.000260
Br80	Br	-0.670325	0.669069	-0.000209
H81	H	-0.711049	0.255356	-0.000219
Br82	Br	-0.936729	0.020756	0.615506
H83	H	-0.627981	0.019698	-0.000165
Br84	Br	-0.936749	0.020753	0.819506
