data_functionalizedCrystal
_audit_creation_method	'MofGen! by Chris Wilmer'
_symmetry_space_group_name_H-M	'P1'
_symmetry_Int_Tables_number	1
_symmetry_cell_setting	triclinic
loop_
_symmetry_equiv_pos_as_xyz
  x,y,z
_cell_length_a	16.120530
_cell_length_b	16.120484
_cell_length_c	10.686551
_cell_angle_alpha	91.292191
_cell_angle_beta	97.503409
_cell_angle_gamma	90.167327
loop_
_atom_site_label
_atom_site_type_symbol
_atom_site_fract_x
_atom_site_fract_y
_atom_site_fract_z
Zn1	Zn	1.299168	-0.355207	0.840318
Zn2	Zn	1.632501	-0.021873	1.173651
Zn3	Zn	1.965834	0.311460	1.506985
Zn4	Zn	1.281321	-0.503929	0.639338
Zn5	Zn	1.614655	-0.170596	0.972672
Zn6	Zn	1.947988	0.162738	1.306005
Zn7	Zn	1.148285	-0.358860	0.618040
Zn8	Zn	1.481618	-0.025527	0.951373
Zn9	Zn	1.814951	0.307806	1.284706
Zn10	Zn	1.152958	-0.487215	0.839163
Zn11	Zn	1.486292	-0.153882	1.172496
Zn12	Zn	1.819625	0.179451	1.505829
O13	O	1.220433	-0.426303	0.734215
O14	O	1.553766	-0.092969	1.067548
O15	O	1.887100	0.240364	1.400881
O16	O	1.413665	-0.380401	0.823054
O17	O	1.746999	-0.047067	1.156388
O18	O	2.080332	0.286266	1.489721
O19	O	1.254249	-0.493209	0.459862
O20	O	1.587582	-0.159876	0.793195
O21	O	1.920916	0.173458	1.126528
O22	O	1.173813	-0.242418	0.639095
O23	O	1.507146	0.090916	0.972429
O24	O	1.840479	0.424249	1.305762
O25	O	1.400554	-0.489666	0.675396
O26	O	1.733887	-0.156333	1.008729
O27	O	2.067221	0.177000	1.342062
O28	O	1.284665	-0.239733	0.802402
O29	O	1.617999	0.093600	1.135735
O30	O	1.951332	0.426933	1.469069
O31	O	1.156508	-0.386628	0.444214
O32	O	1.489841	-0.053294	0.777547
O33	O	1.823174	0.280039	1.110880
O34	O	1.032039	-0.370421	0.637975
O35	O	1.365373	-0.037088	0.971309
O36	O	1.698706	0.296246	1.304642
O37	O	1.181778	-0.461180	1.015967
O38	O	1.515111	-0.127847	1.349301
O39	O	1.848445	0.205486	1.682634
O40	O	1.035473	-0.464723	0.800433
O41	O	1.368806	-0.131390	1.133767
O42	O	1.702140	0.201944	1.467100
O43	O	1.289197	-0.364194	1.016816
O44	O	1.622531	-0.030861	1.350149
O45	O	1.955864	0.302473	1.683483
O46	O	1.258781	-0.617670	0.674276
O47	O	1.592114	-0.284336	1.007609
O48	O	1.925447	0.048997	1.340942
O49	O	1.164473	-0.605390	0.821086
O50	O	1.497806	-0.272057	1.154419
O51	O	1.831140	0.061276	1.487753
C52	C	1.003454	-0.416155	0.716769
C53	C	1.336788	-0.082822	1.050102
C54	C	1.670121	0.250511	1.383435
C55	C	0.910631	-0.411833	0.709336
C56	C	1.243964	-0.078500	1.042670
C57	C	1.577297	0.254834	1.376003
C58	C	0.740682	-0.403921	0.695777
C59	C	1.074016	-0.070588	1.029110
C60	C	1.407349	0.262745	1.362443
C61	C	0.701026	-0.448741	0.772749
C62	C	1.034359	-0.115408	1.106083
C63	C	1.367693	0.217926	1.439416
C64	C	0.606461	-0.444339	0.765205
C65	C	0.939794	-0.111006	1.098538
C66	C	1.273128	0.222328	1.431871
C67	C	0.835256	-0.408322	0.703320
C68	C	1.168589	-0.074989	1.036653
C69	C	1.501923	0.258344	1.369986
C70	C	1.210222	-0.641596	0.749896
C71	C	1.543555	-0.308263	1.083229
C72	C	1.876888	0.025070	1.416563
C73	C	1.205932	-0.733701	0.756653
C74	C	1.539265	-0.400368	1.089986
C75	C	1.872598	-0.067035	1.423320
C76	C	1.198106	-0.902338	0.769015
C77	C	1.531439	-0.569005	1.102349
C78	C	1.864773	-0.235671	1.435682
C79	C	1.242911	-0.949433	0.699447
C80	C	1.576244	-0.616100	1.032780
C81	C	1.909577	-0.282766	1.366113
C82	C	1.238556	-1.043268	0.706325
C83	C	1.571890	-0.709935	1.039659
C84	C	1.905223	-0.376602	1.372992
C85	C	1.202459	-0.808494	0.762138
C86	C	1.535793	-0.475161	1.095472
C87	C	1.869126	-0.141827	1.428805
C88	C	1.438259	-0.436490	0.751730
C89	C	1.771592	-0.103157	1.085063
C90	C	2.104925	0.230176	1.418396
C91	C	1.531083	-0.440832	0.759194
C92	C	1.864417	-0.107498	1.092527
C93	C	2.197750	0.225835	1.425860
C94	C	1.238000	-0.410415	1.063476
C95	C	1.571333	-0.077082	1.396809
C96	C	1.904666	0.256251	1.730143
C97	C	1.245485	-0.403645	1.203788
C98	C	1.578819	-0.070312	1.537121
C99	C	1.912152	0.263022	1.870454
C100	C	1.230708	-0.210168	0.718502
C101	C	1.564042	0.123165	1.051835
C102	C	1.897375	0.456498	1.385168
C103	C	1.235087	-0.118065	0.711806
C104	C	1.568421	0.215269	1.045139
C105	C	1.901754	0.548602	1.378472
C106	C	1.202986	-0.442071	0.406234
C107	C	1.536319	-0.108738	0.739567
C108	C	1.869652	0.224596	1.072900
C109	C	1.195673	-0.448615	0.265919
C110	C	1.529006	-0.115282	0.599252
C111	C	1.862339	0.218051	0.932585
H112	H	1.284539	-0.919280	0.634720
H113	H	1.617872	-0.585947	0.968053
H114	H	1.951205	-0.252613	1.301387
H115	H	0.738096	-0.490417	0.844315
H116	H	1.071430	-0.157084	1.177649
H117	H	1.404763	0.176249	1.510982
N118	N	1.309572	-0.345778	1.275498
N119	N	1.642905	-0.012445	1.608831
N120	N	1.976239	0.320888	1.942164
H121	H	1.349560	-0.378652	1.335761
H122	H	1.682893	-0.045319	1.669094
H123	H	2.016227	0.288015	2.002428
H124	H	1.280283	-0.303191	1.324605
H125	H	1.613616	0.030142	1.657939
H126	H	1.946949	0.363476	1.991272
N127	N	1.142963	-0.942270	0.854744
N128	N	1.476296	-0.608937	1.188078
N129	N	1.809630	-0.275603	1.521411
H130	H	1.147630	-1.004614	0.847559
H131	H	1.480964	-0.671281	1.180892
H132	H	1.814297	-0.337948	1.514226
H133	H	1.082961	-0.925420	0.829139
H134	H	1.416294	-0.592087	1.162472
H135	H	1.749628	-0.258753	1.495806
H136	H	1.147301	-0.492298	1.211770
H137	H	1.480635	-0.158965	1.545103
H138	H	1.813968	0.174368	1.878436
N139	N	0.691581	-0.348738	0.600961
N140	N	1.024914	-0.015405	0.934294
N141	N	1.358248	0.317928	1.267628
H142	H	0.659948	-0.306258	0.646713
H143	H	0.993281	0.027075	0.980046
H144	H	1.326615	0.360408	1.313380
H145	H	0.650718	-0.383614	0.542042
H146	H	0.984051	-0.050281	0.875376
H147	H	1.317384	0.283052	1.208709
