data_functionalizedCrystal
_audit_creation_method	'MofGen! by Chris Wilmer'
_symmetry_space_group_name_H-M	'P1'
_symmetry_Int_Tables_number	1
_symmetry_cell_setting	triclinic
loop_
_symmetry_equiv_pos_as_xyz
  x,y,z
_cell_length_a	8.597187
_cell_length_b	11.792254
_cell_length_c	7.681481
_cell_angle_alpha	95.781964
_cell_angle_beta	91.833072
_cell_angle_gamma	84.768036
loop_
_atom_site_label
_atom_site_type_symbol
_atom_site_fract_x
_atom_site_fract_y
_atom_site_fract_z
O1	O	2.038038	0.202356	0.455624
O2	O	2.371371	0.535689	0.788957
O3	O	2.704704	0.869022	1.122291
O4	O	1.588082	0.210417	0.387364
O5	O	1.921415	0.543750	0.720698
O6	O	2.254748	0.877083	1.054031
O7	O	1.823970	0.041409	0.423137
O8	O	2.157303	0.374742	0.756470
O9	O	2.490637	0.708076	1.089803
O10	O	1.802149	0.371363	0.419851
O11	O	2.135483	0.704697	0.753185
O12	O	2.468816	1.038030	1.086518
O13	O	1.853003	0.020558	0.134682
O14	O	2.186337	0.353892	0.468015
O15	O	2.519670	0.687225	0.801349
O16	O	1.617115	0.189566	0.098909
O17	O	1.950449	0.522899	0.432243
O18	O	2.283782	0.856233	0.765576
O19	O	2.067071	0.181505	0.167169
O20	O	2.400404	0.514838	0.500502
O21	O	2.733738	0.848172	0.833836
Zn22	Zn	1.846703	0.182225	0.087241
Zn23	Zn	2.180036	0.515558	0.420574
Zn24	Zn	2.513370	0.848892	0.753908
Zn25	Zn	1.808450	0.209697	0.467292
Zn26	Zn	2.141783	0.543030	0.800626
Zn27	Zn	2.475117	0.876363	1.133959
O28	O	1.831183	0.350513	0.131397
O29	O	2.164516	0.683846	0.464730
O30	O	2.497850	1.017179	0.798063
C31	C	1.544994	0.197964	0.234398
C32	C	1.878327	0.531297	0.567731
C33	C	2.211661	0.864630	0.901065
C34	C	1.373351	0.191908	0.208359
C35	C	1.706684	0.525242	0.541692
C36	C	2.040018	0.858575	0.875025
C37	C	1.837112	-0.011331	0.278701
C38	C	2.170446	0.322002	0.612035
C39	C	2.503779	0.655335	0.945368
C40	C	1.832998	-0.137417	0.278079
C41	C	2.166332	0.195916	0.611412
C42	C	2.499665	0.529249	0.944746
C43	C	1.829655	-0.239813	0.277578
C44	C	2.162989	0.093521	0.610911
C45	C	2.496322	0.426854	0.944245
C46	C	1.825474	-0.368272	0.276960
C47	C	2.158807	-0.034939	0.610293
C48	C	2.492141	0.298395	0.943627
C49	C	2.110158	0.193958	0.320139
C50	C	2.443492	0.527292	0.653473
C51	C	2.776825	0.860625	0.986806
C52	C	2.281800	0.200014	0.346190
C53	C	2.615134	0.533348	0.679523
C54	C	2.948467	0.866681	1.012856
C55	C	1.818040	0.403253	0.275836
C56	C	2.151374	0.736587	0.609169
C57	C	2.484707	1.069920	0.942502
C58	C	1.822153	0.529340	0.276470
C59	C	2.155486	0.862673	0.609803
C60	C	2.488820	1.196007	0.943136
N61	N	1.872821	0.163476	-0.172133
N62	N	2.206154	0.496809	0.161201
N63	N	2.539487	0.830143	0.494534
N64	N	1.782344	0.228437	0.726668
N65	N	2.115678	0.561770	1.060001
N66	N	2.449011	0.895104	1.393334
H67	H	1.334740	0.211588	0.484112
H68	H	1.668073	0.544921	0.817446
H69	H	2.001406	0.878255	1.150779
H70	H	1.320416	0.180349	0.070445
H71	H	1.653750	0.513682	0.403778
H72	H	1.987083	0.847015	0.737112
H73	H	1.689986	0.294742	-0.212141
H74	H	2.023319	0.628075	0.121192
H75	H	2.356653	0.961409	0.454525
C76	C	1.997601	0.073900	-0.254793
C77	C	2.330934	0.407233	0.078540
C78	C	2.664268	0.740567	0.411874
H79	H	1.994760	0.075939	-0.378185
H80	H	2.328093	0.409273	-0.044852
H81	H	2.661427	0.742606	0.288482
H82	H	2.097950	0.090583	-0.209419
H83	H	2.431283	0.423916	0.123915
H84	H	2.764617	0.757249	0.457248
H85	H	1.977049	-0.000093	-0.227793
H86	H	2.310382	0.333240	0.105540
H87	H	2.643715	0.666573	0.438873
