data_functionalizedCrystal
_audit_creation_method	'MofGen! by Chris Wilmer'
_symmetry_space_group_name_H-M	'P1'
_symmetry_Int_Tables_number	1
_symmetry_cell_setting	triclinic
loop_
_symmetry_equiv_pos_as_xyz
  x,y,z
_cell_length_a	14.395555
_cell_length_b	14.560438
_cell_length_c	14.560438
_cell_angle_alpha	60.000095
_cell_angle_beta	90.002728
_cell_angle_gamma	59.996804
loop_
_atom_site_label
_atom_site_type_symbol
_atom_site_fract_x
_atom_site_fract_y
_atom_site_fract_z
Zr1	Zr	0.894849	1.005287	-0.120498
O2	O	0.746503	1.196907	-0.267158
O3	O	0.940333	0.813674	-0.075536
O4	O	0.940317	1.005288	-0.267144
O5	O	0.746524	1.005291	0.075591
O6	O	1.093191	1.005281	-0.267136
O7	O	0.746520	1.005293	-0.075550
O8	O	1.093221	0.662519	0.075616
O9	O	0.746494	1.348052	-0.267160
O10	O	1.073810	0.892480	-0.056357
O11	O	0.959725	0.892483	0.056431
O12	O	0.959705	1.118083	-0.169162
O13	O	0.845620	1.118087	-0.056374
Zr14	Zr	1.138672	1.005272	0.120567
Zr15	Zr	1.138666	1.005276	-0.120485
Zr16	Zr	0.894855	1.005283	0.120555
Zr17	Zr	0.894834	1.246347	-0.120502
Zr18	Zr	1.138687	0.764213	0.120572
O19	O	1.093188	1.196885	0.075606
O20	O	1.093179	1.196891	-0.267139
O21	O	0.746512	1.196901	0.075588
O22	O	1.287018	0.813653	0.267227
O23	O	1.287009	0.813659	-0.075518
O24	O	0.940342	0.813668	0.267209
O25	O	1.286997	1.005269	-0.075521
O26	O	1.093204	1.005272	0.267214
O27	O	0.940330	1.005279	0.267206
O28	O	1.287001	1.005266	0.075619
O29	O	0.940296	1.348043	-0.267150
O30	O	1.093226	0.662516	0.267220
O31	O	1.287027	0.662507	0.267230
O32	O	1.287022	0.662511	0.075626
O33	O	0.746499	1.348049	-0.075556
O34	O	0.940300	1.348040	-0.075546
O35	O	1.073816	0.892476	0.169232
O36	O	1.187901	0.892473	0.056443
O37	O	1.073796	1.118076	-0.056362
O38	O	0.959711	1.118080	0.056427
C39	C	1.016779	0.703751	0.000040
C40	C	1.016785	0.601415	0.000042
C41	C	1.100976	0.373917	0.083304
C42	C	1.101004	0.470053	0.083310
C43	C	0.932540	0.636642	-0.083243
C44	C	0.932518	0.540507	-0.083252
C45	C	0.711783	1.005293	0.000019
C46	C	0.608277	1.005298	0.000013
C47	C	0.485473	1.128307	-0.061483
C48	C	0.454640	1.066816	-0.106047
C49	C	0.454686	1.066784	0.044570
C50	C	0.578807	0.943806	-0.044613
C51	C	0.578850	0.943792	0.106063
C52	C	0.548091	0.882211	0.061525
C53	C	1.321738	1.005266	0.000051
C54	C	1.425244	1.005261	0.000056
C55	C	1.016753	1.005285	-0.301485
C56	C	1.016750	1.005287	-0.403818
C57	C	1.016742	1.306809	0.000029
C58	C	1.016736	1.409145	0.000027
C59	C	0.957190	1.123047	-0.510777
C60	C	0.957203	1.123041	-0.606926
C61	C	1.076339	0.887503	-0.489142
C62	C	1.076331	0.887511	-0.392996
C63	C	1.016768	1.005275	0.301554
C64	C	1.016771	1.005273	0.403887
C65	C	1.321756	0.703737	0.000056
C66	C	1.425269	0.601396	0.000064
C67	C	1.016787	0.703746	0.301560
C68	C	1.016796	0.601408	0.403895
C69	C	1.321764	0.703732	0.301576
C70	C	1.425280	0.601390	0.403916
C71	C	0.711757	1.306827	-0.301506
C72	C	0.608241	1.409170	-0.403846
C73	C	0.711765	1.306822	0.000013
C74	C	0.608252	1.409163	0.000006
C75	C	1.016734	1.306814	-0.301490
C76	C	1.016725	1.409152	-0.403825
C77	C	1.414348	0.553318	-0.058811
C78	C	1.511614	0.457165	-0.058808
C79	C	1.630717	0.457175	0.058954
C80	C	1.533453	0.553333	0.058943
C81	C	1.076353	0.553324	0.510853
C82	C	1.076349	0.457175	0.607003
C83	C	0.957228	0.457200	0.489224
C84	C	0.957226	0.553353	0.393076
C85	C	1.533463	0.553305	0.393124
C86	C	1.630723	0.457152	0.489288
C87	C	1.511602	0.457173	0.607032
C88	C	1.414345	0.553331	0.510869
H89	H	0.863917	0.569202	-0.151072
Cl90	Cl	0.882325	1.271090	-0.741388
H91	H	1.326264	0.592460	-0.106766
H92	H	1.124838	0.791610	-0.305899
Cl93	Cl	1.206854	0.208780	0.187993
H94	H	1.124854	0.592452	0.519668
H95	H	0.573756	0.778111	0.113537
Cl96	Cl	1.151227	0.739451	-0.475549
Cl97	Cl	0.882349	0.396778	0.475634
H98	H	0.401179	1.118796	0.082234
Cl99	Cl	1.547184	0.613785	0.132958
H100	H	1.542372	0.592434	0.306042
H101	H	0.632370	0.891847	0.195711
H102	H	0.460021	1.232322	-0.113568
Cl103	Cl	1.206913	0.425758	0.188004
H104	H	1.124845	0.418031	0.694090
H105	H	0.908722	0.592507	0.305980
Cl106	Cl	1.497877	0.396730	-0.132828
Cl107	Cl	1.766724	0.396708	0.475713
H108	H	0.401117	1.118805	-0.195715
Cl109	Cl	0.826667	0.801783	-0.187925
Cl110	Cl	1.766722	0.396739	0.132976
H111	H	1.502713	0.418029	0.694123
H112	H	1.326251	0.592485	0.519665
H113	H	0.632168	0.891856	-0.082381
H114	H	0.908675	1.218948	-0.519594
