data_functionalizedCrystal
_audit_creation_method	'MofGen! by Chris Wilmer'
_symmetry_space_group_name_H-M	'P1'
_symmetry_Int_Tables_number	1
_symmetry_cell_setting	triclinic
loop_
_symmetry_equiv_pos_as_xyz
  x,y,z
_cell_length_a	11.792254
_cell_length_b	12.503572
_cell_length_c	11.792241
_cell_angle_alpha	93.547243
_cell_angle_beta	95.803993
_cell_angle_gamma	93.542595
loop_
_atom_site_label
_atom_site_type_symbol
_atom_site_fract_x
_atom_site_fract_y
_atom_site_fract_z
O1	O	1.513405	0.089320	-0.149111
O2	O	1.846738	0.422653	0.184223
O3	O	2.180072	0.755987	0.517556
O4	O	1.183066	0.089323	-0.165128
O5	O	1.516399	0.422656	0.168205
O6	O	1.849732	0.755989	0.501538
O7	O	1.356251	0.089314	0.008050
O8	O	1.689585	0.422647	0.341383
O9	O	2.022918	0.755980	0.674717
O10	O	1.340219	0.089329	-0.322289
O11	O	1.673553	0.422662	0.011044
O12	O	2.006886	0.755996	0.344377
O13	O	1.343227	-0.089328	-0.004996
O14	O	1.676560	0.244006	0.328338
O15	O	2.009893	0.577339	0.661671
O16	O	1.170041	-0.089319	-0.178174
O17	O	1.503375	0.244015	0.155159
O18	O	1.836708	0.577348	0.488492
O19	O	1.500380	-0.089321	-0.162156
O20	O	1.833714	0.244012	0.171177
O21	O	2.167047	0.577346	0.504510
Cu22	Cu	1.334022	-0.105631	-0.171357
Cu23	Cu	1.667355	0.227702	0.161977
Cu24	Cu	2.000688	0.561035	0.495310
Cu25	Cu	1.349425	0.105633	-0.155928
Cu26	Cu	1.682758	0.438966	0.177405
Cu27	Cu	2.016091	0.772299	0.510738
O28	O	1.327195	-0.089312	-0.335335
O29	O	1.660528	0.244021	-0.002002
O30	O	1.993862	0.577354	0.331332
C31	C	1.134263	0.000002	-0.170642
C32	C	1.467596	0.333335	0.162691
C33	C	1.800930	0.666669	0.496024
C34	C	1.008250	0.000003	-0.167622
C35	C	1.341583	0.333336	0.165711
C36	C	1.674917	0.666670	0.499045
C37	C	0.905914	0.000007	-0.165168
C38	C	1.239247	0.333341	0.168165
C39	C	1.572580	0.666674	0.501499
C40	C	0.777527	0.000008	-0.162099
C41	C	1.110860	0.333341	0.171234
C42	C	1.444194	0.666675	0.504567
N43	N	1.323196	-0.254223	-0.182207
N44	N	1.656530	0.079110	0.151126
N45	N	1.989863	0.412444	0.484459
C46	C	1.307272	-0.473337	-0.198178
C47	C	1.640605	-0.140004	0.135155
C48	C	1.973939	0.193329	0.468488
C49	C	1.376180	-0.526668	-0.129101
C50	C	1.709513	-0.193335	0.204232
C51	C	2.042846	0.139999	0.537565
C52	C	1.367319	-0.648591	-0.137988
C53	C	1.700652	-0.315258	0.195345
C54	C	2.033986	0.018076	0.528679
C55	C	1.316131	-0.351404	-0.189293
C56	C	1.649464	-0.018070	0.144040
C57	C	1.982798	0.315263	0.477373
C58	C	1.549183	0.000002	-0.156642
C59	C	1.882517	0.333335	0.176691
C60	C	2.215850	0.666668	0.510024
C61	C	1.675197	0.000008	-0.159662
C62	C	2.008530	0.333341	0.173671
C63	C	2.341864	0.666675	0.507004
C64	C	1.348732	-0.000007	0.043818
C65	C	1.682065	0.333327	0.377151
C66	C	2.015399	0.666660	0.710485
C67	C	1.345718	-0.000005	0.169832
C68	C	1.679051	0.333328	0.503165
C69	C	2.012384	0.666661	0.836499
N70	N	1.360259	0.254224	-0.145069
N71	N	1.693592	0.587558	0.188264
N72	N	2.026925	0.920891	0.521598
C73	C	1.334714	0.000010	-0.371103
C74	C	1.668048	0.333344	-0.037770
C75	C	2.001381	0.666677	0.295564
C76	C	1.337729	0.000016	-0.497116
C77	C	1.671063	0.333350	-0.163783
C78	C	2.004396	0.666683	0.169550
C79	C	1.340176	0.000013	0.400546
C80	C	1.673509	0.333346	0.733879
C81	C	2.006843	0.666679	1.067212
C82	C	1.343255	0.000003	0.272160
C83	C	1.676588	0.333336	0.605493
C84	C	2.009922	0.666669	0.938826
H85	H	1.441828	-0.480759	-0.063289
H86	H	1.775162	-0.147425	0.270044
H87	H	2.108495	0.185908	0.603378
H88	H	1.241629	-0.519242	-0.263988
H89	H	1.574962	-0.185908	0.069346
H90	H	1.908295	0.147425	0.402679
