data_functionalizedCrystal
_audit_creation_method	'MofGen! by Chris Wilmer'
_symmetry_space_group_name_H-M	'P1'
_symmetry_Int_Tables_number	1
_symmetry_cell_setting	triclinic
loop_
_symmetry_equiv_pos_as_xyz
  x,y,z
_cell_length_a	15.944551
_cell_length_b	14.519709
_cell_length_c	13.596369
_cell_angle_alpha	89.999709
_cell_angle_beta	89.993059
_cell_angle_gamma	96.410558
loop_
_atom_site_label
_atom_site_type_symbol
_atom_site_fract_x
_atom_site_fract_y
_atom_site_fract_z
O1	O	0.110109	-1.223676	-0.081665
O2	O	0.443442	-0.890343	0.251668
O3	O	0.776776	-0.557009	0.585001
O4	O	0.123076	-0.955176	-0.081696
O5	O	0.456409	-0.621843	0.251638
O6	O	0.789742	-0.288510	0.584971
O7	O	-0.005672	-1.096758	-0.081671
O8	O	0.327661	-0.763425	0.251662
O9	O	0.660995	-0.430092	0.584996
O10	O	0.238856	-1.082094	-0.081690
O11	O	0.572190	-0.748761	0.251643
O12	O	0.905523	-0.415427	0.584976
O13	O	-0.005679	-1.096744	0.081912
O14	O	0.327655	-0.763411	0.415245
O15	O	0.660988	-0.430077	0.748579
O16	O	0.123069	-0.955162	0.081887
O17	O	0.456402	-0.621829	0.415220
O18	O	0.789735	-0.288496	0.748554
O19	O	0.110102	-1.223662	0.081917
O20	O	0.443435	-0.890328	0.415251
O21	O	0.776769	-0.556995	0.748584
Zn22	Zn	0.116584	-1.089410	0.107875
Zn23	Zn	0.449918	-0.756076	0.441208
Zn24	Zn	0.783251	-0.422743	0.774541
Zn25	Zn	0.116593	-1.089428	-0.107653
Zn26	Zn	0.449927	-0.756095	0.225680
Zn27	Zn	0.783260	-0.422762	0.559014
O28	O	0.238850	-1.082080	0.081893
O29	O	0.572183	-0.748746	0.415226
O30	O	0.905516	-0.415413	0.748559
C31	C	0.122468	-0.920810	0.000092
C32	C	0.455801	-0.587477	0.333425
C33	C	0.789134	-0.254144	0.666759
C34	C	0.120657	-0.818432	0.000081
C35	C	0.453990	-0.485099	0.333414
C36	C	0.787324	-0.151766	0.666747
C37	C	-0.036970	-1.096142	0.000121
C38	C	0.296363	-0.762809	0.333454
C39	C	0.629696	-0.429476	0.666787
C40	C	-0.130219	-1.094317	0.000121
C41	C	0.203114	-0.760984	0.333454
C42	C	0.536448	-0.427651	0.666788
C43	C	0.110710	-1.258028	0.000128
C44	C	0.444043	-0.924694	0.333461
C45	C	0.777377	-0.591361	0.666794
C46	C	0.112521	-1.360406	0.000132
C47	C	0.445854	-1.027072	0.333466
C48	C	0.779187	-0.693739	0.666799
C49	C	-0.345209	-1.002196	0.000097
C50	C	-0.011876	-0.668862	0.333430
C51	C	0.321457	-0.335529	0.666764
C52	C	-0.406168	-1.044967	0.080758
C53	C	-0.072834	-0.711634	0.414091
C54	C	0.260499	-0.378300	0.747425
C55	C	-0.300950	-1.091015	0.000113
C56	C	0.032384	-0.757682	0.333446
C57	C	0.365717	-0.424349	0.666780
C58	C	-0.406144	-1.045002	-0.080522
C59	C	-0.072811	-0.711668	0.252812
C60	C	0.260522	-0.378335	0.586145
C61	C	-0.465867	-1.087820	0.000101
C62	C	-0.132534	-0.754486	0.333434
C63	C	0.200800	-0.421153	0.666768
C64	C	-0.360680	-1.133811	0.080841
C65	C	-0.027347	-0.800478	0.414174
C66	C	0.305987	-0.467144	0.747507
C67	C	-0.360650	-1.133833	-0.080512
C68	C	-0.027317	-0.800500	0.252822
C69	C	0.306016	-0.467167	0.586155
C70	C	-0.421591	-1.176669	0.000169
C71	C	-0.088258	-0.843336	0.333502
C72	C	0.245076	-0.510003	0.666836
C73	C	-0.205945	-1.092854	0.000121
C74	C	0.127389	-0.759521	0.333454
C75	C	0.460722	-0.426187	0.666787
C76	C	-0.560871	-1.085988	0.000100
C77	C	-0.227537	-0.752655	0.333434
C78	C	0.105796	-0.419321	0.666767
C79	C	0.270148	-1.082696	0.000099
C80	C	0.603481	-0.749362	0.333432
C81	C	0.936815	-0.416029	0.666766
C82	C	0.363397	-1.084521	0.000092
C83	C	0.696730	-0.751187	0.333425
C84	C	1.030063	-0.417854	0.666759
N85	N	0.116578	-1.089404	0.254966
N86	N	0.449911	-0.756070	0.588300
N87	N	0.783244	-0.422737	0.921633
C88	C	0.113990	-0.443548	0.000126
C89	C	0.447324	-0.110215	0.333459
C90	C	0.780657	0.223118	0.666792
C91	C	0.115842	-0.547853	0.000113
C92	C	0.449175	-0.214520	0.333446
C93	C	0.782508	0.118814	0.666780
C94	C	0.117323	-0.630987	0.000102
C95	C	0.450657	-0.297654	0.333436
C96	C	0.783990	0.035680	0.666769
C97	C	0.119175	-0.735298	0.000091
C98	C	0.452509	-0.401965	0.333425
C99	C	0.785842	-0.068632	0.666758
N100	N	0.116593	-1.089442	-0.254745
N101	N	0.449927	-0.756108	0.078589
N102	N	0.783260	-0.422775	0.411922
C103	C	0.116594	-1.089427	0.656257
C104	C	0.449928	-0.756094	0.989591
C105	C	0.783261	-0.422760	1.322924
C106	C	0.116592	-1.089418	0.544606
C107	C	0.449926	-0.756085	0.877939
C108	C	0.783259	-0.422751	1.211273
C109	C	0.116587	-1.089416	0.455615
C110	C	0.449920	-0.756083	0.788949
C111	C	0.783253	-0.422749	1.122282
C112	C	0.116584	-1.089406	0.343957
C113	C	0.449917	-0.756072	0.677290
C114	C	0.783250	-0.422739	1.010624
H115	H	-0.312009	-0.928471	0.000169
H116	H	0.021325	-0.595138	0.333503
H117	H	0.354658	-0.261805	0.666836
C118	C	-0.404917	-1.213986	0.229697
C119	C	-0.071584	-0.880652	0.563031
C120	C	0.261750	-0.547319	0.896364
C121	C	-0.333633	-1.184476	0.173003
C122	C	-0.000300	-0.851142	0.506336
C123	C	0.333034	-0.517809	0.839669
H124	H	-0.388217	-1.245266	0.286590
H125	H	-0.054883	-0.911933	0.619923
H126	H	0.278450	-0.578599	0.953257
H127	H	-0.431986	-1.161795	0.248963
H128	H	-0.098652	-0.828461	0.582296
H129	H	0.234681	-0.495128	0.915630
H130	H	-0.442887	-1.254924	0.191991
H131	H	-0.109553	-0.921591	0.525324
H132	H	0.223780	-0.588257	0.858657
H133	H	-0.295666	-1.143532	0.210707
H134	H	0.037667	-0.810198	0.544040
H135	H	0.371001	-0.476865	0.877374
H136	H	-0.306551	-1.236674	0.153738
H137	H	0.026782	-0.903341	0.487072
H138	H	0.360115	-0.570007	0.820405
H139	H	-0.454643	-1.250458	0.000223
H140	H	-0.121309	-0.917125	0.333556
H141	H	0.212024	-0.583792	0.666890
H142	H	-0.340463	-1.171374	-0.148699
H143	H	-0.007129	-0.838041	0.184634
H144	H	0.326204	-0.504708	0.517967
C145	C	-0.362042	-0.963967	-0.228923
C146	C	-0.028709	-0.630633	0.104410
C147	C	0.304625	-0.297300	0.437744
C148	C	-0.433331	-0.994285	-0.172582
C149	C	-0.099998	-0.660952	0.160751
C150	C	0.233336	-0.327619	0.494085
H151	H	-0.378826	-0.932658	-0.285756
H152	H	-0.045492	-0.599324	0.047577
H153	H	0.287841	-0.265991	0.380910
H154	H	-0.324448	-0.922877	-0.190940
H155	H	0.008885	-0.589544	0.142394
H156	H	0.342218	-0.256211	0.475727
H157	H	-0.334513	-1.015808	-0.248296
H158	H	-0.001180	-0.682475	0.085038
H159	H	0.332154	-0.349142	0.418371
H160	H	-0.460857	-0.942443	-0.153203
H161	H	-0.127524	-0.609109	0.180130
H162	H	0.205810	-0.275776	0.513464
H163	H	-0.470939	-1.035377	-0.210572
H164	H	-0.137606	-0.702043	0.122761
H165	H	0.195728	-0.368710	0.456094
C166	C	-0.394465	-0.902902	0.172647
C167	C	-0.061131	-0.569569	0.505981
C168	C	0.272202	-0.236236	0.839314
C169	C	-0.433399	-0.994249	0.172802
C170	C	-0.100066	-0.660915	0.506136
C171	C	0.233267	-0.327582	0.839469
H172	H	-0.411279	-0.871588	0.229467
H173	H	-0.077945	-0.538254	0.562800
H174	H	0.255388	-0.204921	0.896133
H175	H	-0.334927	-0.903205	0.173010
H176	H	-0.001593	-0.569872	0.506343
H177	H	0.331740	-0.236539	0.839677
H178	H	-0.410797	-0.871960	0.115366
H179	H	-0.077463	-0.538627	0.448699
H180	H	0.255870	-0.205293	0.782032
H181	H	-0.417062	-1.025193	0.230081
H182	H	-0.083729	-0.691860	0.563414
H183	H	0.249604	-0.358527	0.896747
H184	H	-0.492950	-0.993950	0.172449
H185	H	-0.159617	-0.660617	0.505782
H186	H	0.173717	-0.327284	0.839116
