data_functionalizedCrystal
_audit_creation_method	'MofGen! by Chris Wilmer'
_symmetry_space_group_name_H-M	'P1'
_symmetry_Int_Tables_number	1
_symmetry_cell_setting	triclinic
loop_
_symmetry_equiv_pos_as_xyz
  x,y,z
_cell_length_a	18.050591
_cell_length_b	18.050590
_cell_length_c	13.897441
_cell_angle_alpha	89.966994
_cell_angle_beta	89.973262
_cell_angle_gamma	90.015000
loop_
_atom_site_label
_atom_site_type_symbol
_atom_site_fract_x
_atom_site_fract_y
_atom_site_fract_z
Zn1	Zn	1.135394	-0.295706	-0.545520
Zn2	Zn	1.385394	-0.045706	-0.295520
Zn3	Zn	1.635394	0.204294	-0.045520
Zn4	Zn	1.885394	0.454294	0.204480
Zn5	Zn	1.135310	-0.419910	-0.384214
Zn6	Zn	1.385310	-0.169910	-0.134214
Zn7	Zn	1.635310	0.080090	0.115786
Zn8	Zn	1.885310	0.330090	0.365786
Zn9	Zn	1.011198	-0.295731	-0.384221
Zn10	Zn	1.261198	-0.045731	-0.134221
Zn11	Zn	1.511198	0.204269	0.115779
Zn12	Zn	1.761198	0.454269	0.365779
Zn13	Zn	1.011182	-0.419851	-0.545450
Zn14	Zn	1.261182	-0.169851	-0.295450
Zn15	Zn	1.511182	0.080149	-0.045450
Zn16	Zn	1.761182	0.330149	0.204550
O17	O	1.073271	-0.357800	-0.464851
O18	O	1.323271	-0.107800	-0.214851
O19	O	1.573271	0.142200	0.035149
O20	O	1.823271	0.392200	0.285149
O21	O	1.239307	-0.312196	-0.524148
O22	O	1.489307	-0.062196	-0.274148
O23	O	1.739307	0.187804	-0.024148
O24	O	1.989307	0.437804	0.225852
O25	O	1.118818	-0.403473	-0.249233
O26	O	1.368818	-0.153473	0.000767
O27	O	1.618818	0.096527	0.250767
O28	O	1.868818	0.346527	0.500767
O29	O	1.027714	-0.191803	-0.405650
O30	O	1.277714	0.058197	-0.155650
O31	O	1.527714	0.308197	0.094350
O32	O	1.777714	0.558197	0.344350
O33	O	1.239246	-0.403449	-0.405638
O34	O	1.489246	-0.153449	-0.155638
O35	O	1.739246	0.096551	0.094362
O36	O	1.989246	0.346551	0.344362
O37	O	1.118960	-0.191785	-0.524155
O38	O	1.368960	0.058215	-0.274155
O39	O	1.618960	0.308215	-0.024155
O40	O	1.868960	0.558215	0.225845
O41	O	1.027633	-0.312239	-0.249238
O42	O	1.277633	-0.062239	0.000762
O43	O	1.527633	0.187761	0.250762
O44	O	1.777633	0.437761	0.500762
O45	O	0.907271	-0.312181	-0.405582
O46	O	1.157271	-0.062181	-0.155582
O47	O	1.407271	0.187819	0.094418
O48	O	1.657271	0.437819	0.344418
O49	O	1.027687	-0.403348	-0.680441
O50	O	1.277687	-0.153348	-0.430441
O51	O	1.527687	0.096652	-0.180441
O52	O	1.777687	0.346652	0.069559
O53	O	0.907259	-0.403372	-0.524036
O54	O	1.157259	-0.153372	-0.274036
O55	O	1.407259	0.096628	-0.024036
O56	O	1.657259	0.346628	0.225964
O57	O	1.118945	-0.312139	-0.680492
O58	O	1.368945	-0.062139	-0.430492
O59	O	1.618945	0.187861	-0.180492
O60	O	1.868945	0.437861	0.069508
O61	O	1.118803	-0.523827	-0.405570
O62	O	1.368803	-0.273827	-0.155570
O63	O	1.618803	-0.023827	0.094430
O64	O	1.868803	0.226173	0.344430
O65	O	1.027606	-0.523784	-0.524030
O66	O	1.277606	-0.273784	-0.274030
O67	O	1.527606	-0.023784	-0.024030
O68	O	1.777606	0.226216	0.225970
C69	C	0.880319	-0.357773	-0.464803
C70	C	1.130319	-0.107773	-0.214803
C71	C	1.380319	0.142227	0.035197
C72	C	1.630319	0.392227	0.285197
C73	C	0.797773	-0.357780	-0.464805
C74	C	1.047773	-0.107780	-0.214805
C75	C	1.297773	0.142220	0.035195
C76	C	1.547773	0.392220	0.285195
C77	C	1.073214	-0.550752	-0.464813
C78	C	1.323214	-0.300752	-0.214813
C79	C	1.573214	-0.050752	0.035187
C80	C	1.823214	0.199248	0.285187
C81	C	1.073257	-0.633298	-0.464828
C82	C	1.323257	-0.383298	-0.214828
C83	C	1.573257	-0.133298	0.035172
C84	C	1.823257	0.116702	0.285172
C85	C	0.548932	-0.308139	-0.400542
C86	C	0.798932	-0.058139	-0.150542
C87	C	1.048932	0.191861	0.099458
C88	C	1.298932	0.441861	0.349458
C89	C	0.598369	-0.290047	-0.488573
C90	C	0.848369	-0.040047	-0.238573
C91	C	1.098369	0.209953	0.011427
C92	C	1.348369	0.459953	0.261427
C93	C	0.500652	-0.357818	-0.464884
C94	C	0.750652	-0.107818	-0.214884
C95	C	1.000652	0.142182	0.035116
C96	C	1.250652	0.392182	0.285116
C97	C	0.598297	-0.375857	-0.376819
C98	C	0.848297	-0.125857	-0.126819
C99	C	1.098297	0.124143	0.123181
C100	C	1.348297	0.374143	0.373181
C101	C	0.646638	-0.357798	-0.464841
C102	C	0.896638	-0.107798	-0.214841
C103	C	1.146638	0.142202	0.035159
C104	C	1.396638	0.392202	0.285159
C105	C	0.549002	-0.339691	-0.552962
C106	C	0.799002	-0.089691	-0.302962
C107	C	1.049002	0.160309	-0.052962
C108	C	1.299002	0.410309	0.197038
C109	C	0.548926	-0.425532	-0.441149
C110	C	0.798926	-0.175532	-0.191149
C111	C	1.048926	0.074468	0.058851
C112	C	1.298926	0.324468	0.308851
C113	C	0.598341	-0.407465	-0.529240
C114	C	0.848341	-0.157465	-0.279240
C115	C	1.098341	0.092535	-0.029240
C116	C	1.348341	0.342535	0.220760
C117	C	0.416554	-0.357828	-0.464908
C118	C	0.666554	-0.107828	-0.214908
C119	C	0.916554	0.142172	0.035092
C120	C	1.166554	0.392172	0.285092
C121	C	0.730734	-0.357788	-0.464827
C122	C	0.980734	-0.107788	-0.214827
C123	C	1.230734	0.142212	0.035173
C124	C	1.480734	0.392212	0.285173
C125	C	1.122953	-0.832745	-0.400500
C126	C	1.372953	-0.582745	-0.150500
C127	C	1.622953	-0.332745	0.099500
C128	C	1.872953	-0.082745	0.349500
C129	C	1.141097	-0.882073	-0.488538
C130	C	1.391097	-0.632073	-0.238538
C131	C	1.641097	-0.382073	0.011462
C132	C	1.891097	-0.132073	0.261462
C133	C	1.073299	-0.784428	-0.464867
C134	C	1.323299	-0.534428	-0.214867
C135	C	1.573299	-0.284428	0.035133
C136	C	1.823299	-0.034428	0.285133
C137	C	1.055231	-0.882181	-0.376869
C138	C	1.305231	-0.632181	-0.126869
C139	C	1.555231	-0.382181	0.123131
C140	C	1.805231	-0.132181	0.373131
C141	C	1.073341	-0.930413	-0.464896
C142	C	1.323341	-0.680413	-0.214896
C143	C	1.573341	-0.430413	0.035104
C144	C	1.823341	-0.180413	0.285104
C145	C	1.091478	-0.832669	-0.552951
C146	C	1.341478	-0.582669	-0.302951
C147	C	1.591478	-0.332669	-0.052951
C148	C	1.841478	-0.082669	0.197049
C149	C	1.005581	-0.832773	-0.441222
C150	C	1.255581	-0.582773	-0.191222
C151	C	1.505581	-0.332773	0.058778
C152	C	1.755581	-0.082773	0.308778
C153	C	1.023699	-0.882079	-0.529321
C154	C	1.273699	-0.632079	-0.279321
C155	C	1.523699	-0.382079	-0.029321
C156	C	1.773699	-0.132079	0.220679
C157	C	1.073277	-0.700330	-0.464849
C158	C	1.323277	-0.450330	-0.214849
C159	C	1.573277	-0.200330	0.035151
C160	C	1.823277	0.049670	0.285151
C161	C	1.073364	-1.014509	-0.464925
C162	C	1.323364	-0.764509	-0.214925
C163	C	1.573364	-0.514509	0.035075
C164	C	1.823364	-0.264509	0.285075
C165	C	1.266976	-0.357826	-0.464900
C166	C	1.516976	-0.107826	-0.214900
C167	C	1.766976	0.142174	0.035100
C168	C	2.016976	0.392174	0.285100
C169	C	1.349522	-0.357838	-0.464921
C170	C	1.599522	-0.107838	-0.214921
C171	C	1.849522	0.142162	0.035079
C172	C	2.099522	0.392162	0.285079
C173	C	1.073323	-0.357734	-0.716444
C174	C	1.323323	-0.107734	-0.466444
C175	C	1.573323	0.142266	-0.216444
C176	C	1.823323	0.392266	0.033556
C177	C	1.073346	-0.357706	-0.823658
C178	C	1.323346	-0.107706	-0.573658
C179	C	1.573346	0.142294	-0.323658
C180	C	1.823346	0.392294	-0.073658
C181	C	1.073348	-0.164094	-0.464911
C182	C	1.323348	0.085906	-0.214911
C183	C	1.573348	0.335906	0.035089
C184	C	1.823348	0.585906	0.285089
C185	C	1.073381	-0.081548	-0.464936
C186	C	1.323381	0.168452	-0.214936
C187	C	1.573381	0.418452	0.035064
C188	C	1.823381	0.668452	0.285064
C189	C	1.073366	-0.357656	-1.019954
C190	C	1.323366	-0.107656	-0.769954
C191	C	1.573366	0.142344	-0.519954
C192	C	1.823366	0.392344	-0.269954
C193	C	1.073353	-0.357686	-0.910721
C194	C	1.323353	-0.107686	-0.660721
C195	C	1.573353	0.142314	-0.410721
C196	C	1.823353	0.392314	-0.160721
C197	C	1.073261	-0.357811	-0.214237
C198	C	1.323261	-0.107811	0.035763
C199	C	1.573261	0.142189	0.285763
C200	C	1.823261	0.392189	0.535763
C201	C	1.073382	-0.357630	-0.107023
C202	C	1.323382	-0.107630	0.142977
C203	C	1.573382	0.142370	0.392977
C204	C	1.823382	0.392370	0.642977
H205	H	0.527240	-0.266105	-0.346216
H206	H	0.777240	-0.016105	-0.096216
H207	H	1.027240	0.233895	0.153784
H208	H	1.277240	0.483895	0.403784
Cl209	Cl	0.631894	-0.201622	-0.519558
Cl210	Cl	0.881894	0.048378	-0.269558
Cl211	Cl	1.131894	0.298378	-0.019558
Cl212	Cl	1.381894	0.548378	0.230442
Cl213	Cl	0.917157	-0.799313	-0.410280
Cl214	Cl	1.167157	-0.549313	-0.160280
Cl215	Cl	1.417157	-0.299313	0.089720
Cl216	Cl	1.667157	-0.049313	0.339720
H217	H	0.619897	-0.449469	-0.583696
H218	H	0.869897	-0.199469	-0.333696
H219	H	1.119897	0.050531	-0.083696
H220	H	1.369897	0.300531	0.166304
Cl221	Cl	1.187801	-0.799296	-0.316546
Cl222	Cl	1.437801	-0.549296	-0.066546
Cl223	Cl	1.687801	-0.299296	0.183454
Cl224	Cl	1.937801	-0.049296	0.433454
Cl225	Cl	0.958896	-0.915317	-0.613473
Cl226	Cl	1.208896	-0.665317	-0.363473
Cl227	Cl	1.458896	-0.415317	-0.113473
Cl228	Cl	1.708896	-0.165317	0.136527
H229	H	1.106721	-0.811013	-0.627446
H230	H	1.356721	-0.561013	-0.377446
H231	H	1.606721	-0.311013	-0.127446
H232	H	1.856721	-0.061013	0.122554
Cl233	Cl	1.229544	-0.915494	-0.519462
Cl234	Cl	1.479544	-0.665494	-0.269462
Cl235	Cl	1.729544	-0.415494	-0.019462
Cl236	Cl	1.979544	-0.165494	0.230538
Cl237	Cl	0.515715	-0.316016	-0.667951
Cl238	Cl	0.765715	-0.066016	-0.417951
Cl239	Cl	1.015715	0.183984	-0.167951
Cl240	Cl	1.265715	0.433984	0.082049
Cl241	Cl	1.031609	-0.915759	-0.261955
Cl242	Cl	1.281609	-0.665759	-0.011955
Cl243	Cl	1.531609	-0.415759	0.238045
Cl244	Cl	1.781609	-0.165759	0.488045
H245	H	0.619953	-0.391122	-0.302363
H246	H	0.869953	-0.141122	-0.052363
H247	H	1.119953	0.108878	0.197637
H248	H	1.369953	0.358878	0.447637
Cl249	Cl	0.515364	-0.513931	-0.410131
Cl250	Cl	0.765364	-0.263931	-0.160131
Cl251	Cl	1.015364	-0.013931	0.089869
Cl252	Cl	1.265364	0.236069	0.339869
