data_functionalizedCrystal
_audit_creation_method	'MofGen! by Chris Wilmer'
_symmetry_space_group_name_H-M	'P1'
_symmetry_Int_Tables_number	1
_symmetry_cell_setting	triclinic
loop_
_symmetry_equiv_pos_as_xyz
  x,y,z
_cell_length_a	10.654550
_cell_length_b	10.654551
_cell_length_c	9.130313
_cell_angle_alpha	90.002645
_cell_angle_beta	90.004263
_cell_angle_gamma	84.485132
loop_
_atom_site_label
_atom_site_type_symbol
_atom_site_fract_x
_atom_site_fract_y
_atom_site_fract_z
O1	O	1.667835	0.176401	0.121910
O2	O	1.302356	0.193207	0.121885
O3	O	1.493498	0.002064	0.121899
O4	O	1.476693	0.367543	0.121896
O5	O	1.493495	0.002054	-0.121700
O6	O	1.302354	0.193197	-0.121713
O7	O	1.667832	0.176390	-0.121689
Cu8	Cu	1.485093	0.184793	-0.143944
Cu9	Cu	1.485096	0.184805	0.144140
O10	O	1.476691	0.367533	-0.121703
C11	C	1.255557	0.191968	0.000083
C12	C	1.116114	0.188276	0.000074
C13	C	1.492263	-0.044739	0.000103
C14	C	1.488570	-0.184182	0.000112
C15	C	1.036629	0.300817	0.000095
C16	C	0.905608	0.297341	0.000120
C17	C	0.933570	0.068771	0.000110
C18	C	1.064589	0.072249	0.000074
C19	C	1.088154	0.416844	0.000094
C20	C	1.008667	0.529395	0.000116
C21	C	0.877647	0.525918	0.000142
C22	C	0.826112	0.409891	0.000145
C23	C	1.486839	-0.249688	0.132895
C24	C	1.483359	-0.380709	0.132888
C25	C	1.483346	-0.380705	-0.132696
C26	C	1.486817	-0.249686	-0.132688
C27	C	1.488592	-0.184184	0.265696
C28	C	1.486863	-0.249691	0.398490
C29	C	1.483383	-0.380711	0.398483
C30	C	1.481632	-0.446225	0.265682
C31	C	1.714632	0.177629	0.000117
C32	C	1.854075	0.181321	0.000135
C33	C	1.477926	0.414336	0.000097
C34	C	1.481619	0.553779	0.000097
N35	N	1.485099	0.184804	0.346763
N36	N	1.485100	0.184783	-0.346566
C37	C	1.569895	0.100333	0.423421
C38	C	1.569899	0.100325	0.576758
C39	C	1.400299	0.269264	0.576765
C40	C	1.400302	0.269276	0.423431
C41	C	1.654692	0.015860	0.346753
C42	C	1.739495	-0.068619	0.423411
C43	C	1.739499	-0.068627	0.576748
C44	C	1.654700	0.015845	0.653426
H45	H	1.194836	0.419687	0.000080
F46	F	0.878719	-0.054704	0.000118
H47	H	1.050636	0.623860	0.000101
H48	H	1.481921	-0.434057	-0.240816
F49	F	1.477916	-0.585668	0.265681
H50	H	1.331254	0.338062	0.361015
H51	H	1.488200	-0.196346	-0.240812
H52	H	1.808556	-0.137404	0.639161
H53	H	0.812931	0.617562	0.000145
H54	H	1.331258	0.338036	0.639207
F55	F	1.654690	0.015858	0.183559
F56	F	0.686666	0.406196	0.000152
F57	F	1.149187	-0.047530	0.000050
F58	F	1.492302	-0.044742	0.265714
H59	H	1.488277	-0.196339	0.506611
H60	H	1.481962	-0.434041	0.506609
F61	F	1.829748	-0.158505	0.341804
H62	H	1.654719	0.015840	0.778284
