data_functionalizedCrystal
_audit_creation_method	'MofGen! by Chris Wilmer'
_symmetry_space_group_name_H-M	'P1'
_symmetry_Int_Tables_number	1
_symmetry_cell_setting	triclinic
loop_
_symmetry_equiv_pos_as_xyz
  x,y,z
_cell_length_a	11.026607
_cell_length_b	16.992695
_cell_length_c	15.455313
_cell_angle_alpha	92.847427
_cell_angle_beta	93.267297
_cell_angle_gamma	80.372880
loop_
_atom_site_label
_atom_site_type_symbol
_atom_site_fract_x
_atom_site_fract_y
_atom_site_fract_z
O1	O	1.647504	-0.330182	0.072140
O2	O	2.147504	0.169818	0.572140
O3	O	1.290521	-0.292275	0.072140
O4	O	1.790521	0.207725	0.572140
O5	O	1.467581	-0.196884	0.072133
O6	O	1.967581	0.303116	0.572133
O7	O	1.470444	-0.425573	0.072147
O8	O	1.970444	0.074427	0.572147
O9	O	1.457453	-0.202311	-0.072129
O10	O	1.957453	0.297689	0.427871
O11	O	1.280393	-0.297701	-0.072122
O12	O	1.780393	0.202299	0.427878
O13	O	1.637376	-0.335608	-0.072122
O14	O	2.137376	0.164392	0.427878
Cu15	Cu	1.457960	-0.317150	-0.085294
Cu16	Cu	1.957960	0.182850	0.414706
Cu17	Cu	1.469937	-0.310733	0.085312
Cu18	Cu	1.969937	0.189267	0.585312
O19	O	1.460316	-0.430999	-0.072115
O20	O	1.960316	0.069001	0.427885
C21	C	1.239568	-0.287995	0.000009
C22	C	1.739568	0.212005	0.500009
C23	C	1.102833	-0.267148	0.000009
C24	C	1.602833	0.232852	0.500009
C25	C	1.458835	-0.169865	0.000002
C26	C	1.958835	0.330135	0.500002
C27	C	1.447849	-0.081270	0.000002
C28	C	1.947849	0.418730	0.500002
N29	N	1.449545	-0.321665	-0.205289
N30	N	1.949545	0.178335	0.294711
C31	C	1.034609	-0.324710	0.000013
C32	C	1.534609	0.175290	0.500013
C33	C	0.893286	-0.303165	0.000013
C34	C	1.393286	0.196835	0.500013
C35	C	1.688329	-0.339888	0.000011
C36	C	2.188329	0.160112	0.500011
C37	C	1.825065	-0.360735	0.000017
C38	C	2.325065	0.139265	0.500017
C39	C	1.469062	-0.458018	0.000018
C40	C	1.969062	0.041982	0.500018
C41	C	1.480048	-0.546613	0.000023
C42	C	1.980048	-0.046613	0.500023
C43	C	1.553847	-0.045991	0.000002
C44	C	2.053847	0.454009	0.500002
C45	C	1.543518	0.037254	0.000010
C46	C	2.043518	0.537254	0.500010
C47	C	1.427190	0.085218	0.000013
C48	C	1.927190	0.585218	0.500013
C49	C	1.321185	0.049934	0.000016
C50	C	1.821185	0.549934	0.500016
C51	C	1.331515	-0.033310	0.000014
C52	C	1.831515	0.466690	0.500014
C53	C	1.384374	0.334860	0.000025
C54	C	1.884374	0.834860	0.500025
C55	C	1.374051	0.418108	0.000024
C56	C	1.874051	0.918108	0.500024
C57	C	1.596385	0.405422	0.000019
C58	C	2.096385	0.905422	0.500019
C59	C	1.606705	0.322178	0.000012
C60	C	2.106705	0.822178	0.500012
C61	C	1.500700	0.286901	0.000020
C62	C	2.000700	0.786901	0.500020
N63	N	1.416629	0.170308	0.000018
N64	N	1.916629	0.670308	0.500018
N65	N	1.511263	0.201813	0.000021
N66	N	2.011263	0.701813	0.500021
C67	C	1.524795	-0.281162	-0.250686
C68	C	2.024795	0.218838	0.249314
C69	C	1.518443	-0.284585	-0.341494
C70	C	2.018443	0.215415	0.158506
C71	C	1.436846	-0.328515	-0.386903
C72	C	1.936846	0.171485	0.113097
C73	C	1.361587	-0.369019	-0.341499
C74	C	1.861587	0.130981	0.158501
C75	C	1.367933	-0.365591	-0.250693
C76	C	1.867933	0.134409	0.249307
C77	C	1.409449	-0.343290	-0.658483
C78	C	1.909449	0.156710	-0.158483
C79	C	1.403111	-0.346717	-0.749296
C80	C	1.903111	0.153283	-0.249296
C81	C	1.559967	-0.262281	-0.749284
C82	C	2.059967	0.237719	-0.249284
C83	C	1.566311	-0.258861	-0.658476
C84	C	2.066311	0.241139	-0.158476
C85	C	1.491048	-0.299361	-0.613081
C86	C	1.991048	0.200639	-0.113081
N87	N	1.430354	-0.332017	-0.479723
N88	N	1.930354	0.167983	0.020277
N89	N	1.497534	-0.295854	-0.520262
N90	N	1.997534	0.204146	-0.020262
N91	N	1.478362	-0.306214	0.205307
N92	N	1.978362	0.193786	0.705307
H93	H	1.080827	-0.389941	0.000012
H94	H	1.580827	0.110059	0.500012
H95	H	1.621241	-0.229307	-0.786253
H96	H	2.121241	0.270693	-0.286253
H97	H	0.871275	-0.425971	0.000015
H98	H	1.371275	0.074029	0.500015
H99	H	1.632754	-0.223090	-0.621506
H100	H	2.132754	0.276910	-0.121506
H101	H	1.295142	-0.404784	-0.378477
H102	H	1.795142	0.095216	0.121523
O103	O	1.315083	-0.394089	-0.798278
O104	O	1.815083	0.105911	-0.298278
H105	H	1.263801	-0.421667	-0.751457
H106	H	1.763801	0.078333	-0.251457
H107	H	1.348169	-0.376268	-0.621529
H108	H	1.848169	0.123732	-0.121529
O109	O	1.286778	-0.409279	-0.201722
O110	O	1.786778	0.090721	0.298278
H111	H	1.228980	-0.440410	-0.248552
H112	H	1.728980	0.059590	0.251448
H113	H	0.847075	-0.237929	0.000031
H114	H	1.347075	0.262071	0.500031
H115	H	1.056616	-0.201916	0.000027
H116	H	1.556616	0.298084	0.500027
O117	O	1.679316	-0.097724	0.000007
O118	O	2.179316	0.402276	0.500007
H119	H	1.751286	-0.059202	0.000019
H120	H	2.251286	0.440798	0.500019
H121	H	1.701431	0.283130	0.000009
H122	H	2.201431	0.783130	0.500009
O123	O	1.657841	0.075307	-0.000006
O124	O	2.157841	0.575307	0.499994
H125	H	1.740464	0.027969	-0.000024
H126	H	2.240464	0.527969	0.499976
H127	H	1.682688	0.434154	0.000014
H128	H	2.182688	0.934154	0.500014
O129	O	1.248578	0.469847	0.000037
O130	O	1.748578	0.969847	0.500037
H131	H	1.176601	0.431333	0.000052
H132	H	1.676601	0.931333	0.500052
H133	H	1.591246	-0.245394	-0.213720
H134	H	2.091246	0.254606	0.286280
O135	O	1.270045	0.296813	0.000011
O136	O	1.770045	0.796813	0.500011
H137	H	1.187422	0.344153	-0.000002
H138	H	1.687422	0.844153	0.499998
O139	O	1.195715	0.101666	0.000010
O140	O	1.695715	0.601666	0.500010
H141	H	1.189817	0.142111	0.058802
H142	H	1.689817	0.642111	0.558802
O143	O	1.217191	-0.071367	0.000006
O144	O	1.717191	0.428633	0.500006
H145	H	1.134564	-0.024032	-0.000002
H146	H	1.634564	0.475968	0.499998
O147	O	1.599629	-0.240918	-0.390461
O148	O	2.099629	0.259082	0.109539
H149	H	1.657454	-0.209810	-0.343630
H150	H	2.157454	0.290190	0.156370
