data_functionalizedCrystal
_audit_creation_method	'MofGen! by Chris Wilmer'
_symmetry_space_group_name_H-M	'P1'
_symmetry_Int_Tables_number	1
_symmetry_cell_setting	triclinic
loop_
_symmetry_equiv_pos_as_xyz
  x,y,z
_cell_length_a	9.065218
_cell_length_b	13.596369
_cell_length_c	9.065218
_cell_angle_alpha	90.004126
_cell_angle_beta	85.015885
_cell_angle_gamma	90.005377
loop_
_atom_site_label
_atom_site_type_symbol
_atom_site_fract_x
_atom_site_fract_y
_atom_site_fract_z
O1	O	1.960403	0.081790	0.216359
O2	O	2.293736	0.415123	0.549693
O3	O	2.627070	0.748456	0.883026
O4	O	1.531118	0.081791	0.234106
O5	O	1.864452	0.415124	0.567439
O6	O	2.197785	0.748457	0.900772
O7	O	1.754634	0.081788	0.010590
O8	O	2.087967	0.415121	0.343923
O9	O	2.421301	0.748455	0.677257
O10	O	1.736887	0.081792	0.439875
O11	O	2.070221	0.415125	0.773208
O12	O	2.403554	0.748459	1.106542
O13	O	1.754611	-0.081795	0.010578
O14	O	2.087945	0.251538	0.343911
O15	O	2.421278	0.584872	0.677245
O16	O	1.531096	-0.081792	0.234094
O17	O	1.864429	0.251541	0.567427
O18	O	2.197762	0.584874	0.900760
O19	O	1.960380	-0.081793	0.216347
O20	O	2.293714	0.251540	0.549680
O21	O	2.627047	0.584873	0.883014
Zn22	Zn	1.745734	-0.107765	0.225218
Zn23	Zn	2.079068	0.225568	0.558552
Zn24	Zn	2.412401	0.558901	0.891885
Zn25	Zn	1.745764	0.107762	0.225235
Zn26	Zn	2.079098	0.441096	0.558568
Zn27	Zn	2.412431	0.774429	0.891901
O28	O	1.736865	-0.081791	0.439863
O29	O	2.070198	0.251542	0.773196
O30	O	2.403531	0.584876	1.106529
C31	C	1.476120	-0.000001	0.232394
C32	C	1.809454	0.333333	0.565727
C33	C	2.142787	0.666666	0.899061
C34	C	1.312277	-0.000000	0.227294
C35	C	1.645611	0.333333	0.560628
C36	C	1.978944	0.666666	0.893961
N37	N	1.745725	-0.254857	0.225207
N38	N	2.079058	0.078476	0.558540
N39	N	2.412391	0.411810	0.891873
C40	C	1.745762	-0.656148	0.225236
C41	C	2.079096	-0.322815	0.558569
C42	C	2.412429	0.010519	0.891903
C43	C	1.745748	-0.544497	0.225233
C44	C	2.079081	-0.211163	0.558566
C45	C	2.412414	0.122170	0.891899
C46	C	1.745744	-0.455506	0.225222
C47	C	2.079078	-0.122173	0.558556
C48	C	2.412411	0.211161	0.891889
C49	C	1.745728	-0.343848	0.225217
C50	C	2.079061	-0.010514	0.558550
C51	C	2.412395	0.322819	0.891884
C52	C	2.015378	0.000000	0.218059
C53	C	2.348712	0.333333	0.551392
C54	C	2.682045	0.666667	0.884725
C55	C	2.179221	0.000006	0.223158
C56	C	2.512555	0.333339	0.556492
C57	C	2.845888	0.666673	0.889825
C58	C	1.752917	-0.000002	-0.044403
C59	C	2.086250	0.333331	0.288931
C60	C	2.419584	0.666665	0.622264
C61	C	1.747817	0.000003	-0.208245
C62	C	2.081151	0.333336	0.125088
C63	C	2.414484	0.666670	0.458421
N64	N	1.745785	0.254854	0.225235
N65	N	2.079119	0.588188	0.558568
N66	N	2.412452	0.921521	0.891901
C67	C	1.738582	0.000001	0.494855
C68	C	2.071915	0.333335	0.828189
C69	C	2.405248	0.666668	1.161522
C70	C	1.743681	0.000003	0.658698
C71	C	2.077015	0.333336	0.992032
C72	C	2.410348	0.666670	1.325365
