data_functionalizedCrystal
_audit_creation_method	'MofGen! by Chris Wilmer'
_symmetry_space_group_name_H-M	'P1'
_symmetry_Int_Tables_number	1
_symmetry_cell_setting	triclinic
loop_
_symmetry_equiv_pos_as_xyz
  x,y,z
_cell_length_a	14.519709
_cell_length_b	15.995350
_cell_length_c	12.996460
_cell_angle_alpha	89.996086
_cell_angle_beta	90.000034
_cell_angle_gamma	83.586260
loop_
_atom_site_label
_atom_site_type_symbol
_atom_site_fract_x
_atom_site_fract_y
_atom_site_fract_z
O1	O	1.223669	0.109760	-0.085428
O2	O	0.955169	0.122686	-0.085458
O3	O	1.096759	-0.005654	-0.085441
O4	O	1.082080	0.238099	-0.085445
O5	O	1.096744	-0.005661	0.085693
O6	O	0.955154	0.122678	0.085675
O7	O	1.223655	0.109753	0.085706
Cu8	Cu	1.089403	0.116215	0.101317
Cu9	Cu	1.089421	0.116224	-0.101069
O10	O	1.082065	0.238092	0.085689
C11	C	0.920803	0.122080	0.000104
C12	C	0.818425	0.120275	0.000092
C13	C	1.096145	-0.036853	0.000124
C14	C	1.094325	-0.129806	0.000118
C15	C	0.443541	0.113629	0.000139
C16	C	0.547846	0.115475	0.000126
C17	C	0.630980	0.116952	0.000115
C18	C	0.735291	0.118797	0.000104
C19	C	1.087791	-0.467563	0.000120
C20	C	0.986954	-0.420280	-0.000275
C21	C	0.988773	-0.323587	0.000111
C22	C	1.091032	-0.299998	0.000118
C23	C	1.140761	-0.341005	0.097848
C24	C	1.138227	-0.437645	0.097930
C25	C	1.140327	-0.437992	-0.096681
C26	C	1.140303	-0.341046	-0.097973
C27	C	1.092869	-0.205298	0.000121
C28	C	1.085957	-0.562264	0.000125
C29	C	1.258021	0.110359	0.000141
C30	C	1.360399	0.112164	0.000146
C31	C	1.082679	0.269292	0.000122
C32	C	1.084498	0.362245	0.000121
N33	N	1.089398	0.116209	0.243664
N34	N	1.089433	0.116223	-0.243416
C35	C	1.089419	0.116224	0.663478
C36	C	1.089411	0.116223	0.546673
C37	C	1.089409	0.116217	0.453575
C38	C	1.089399	0.116214	0.336762
H39	H	0.949683	-0.295221	-0.069946
Br40	Br	1.077765	-0.468249	0.219680
H41	H	1.212261	-0.469782	0.102369
H42	H	1.103946	-0.313849	-0.170271
Br43	Br	0.919781	-0.451258	-0.117090
Br44	Br	0.919872	-0.453442	0.115515
H45	H	1.107365	-0.458578	-0.170754
Br46	Br	1.265979	-0.317279	0.103921
H47	H	1.214674	-0.469641	-0.097333
Br48	Br	1.083177	-0.293796	0.219060
H49	H	0.949408	-0.295785	0.070278
Br50	Br	1.264595	-0.315251	-0.107809
