data_functionalizedCrystal
_audit_creation_method	'MofGen! by Chris Wilmer'
_symmetry_space_group_name_H-M	'P1'
_symmetry_Int_Tables_number	1
_symmetry_cell_setting	triclinic
loop_
_symmetry_equiv_pos_as_xyz
  x,y,z
_cell_length_a	14.519731
_cell_length_b	14.519731
_cell_length_c	8.140239
_cell_angle_alpha	89.995496
_cell_angle_beta	89.997185
_cell_angle_gamma	83.688853
loop_
_atom_site_label
_atom_site_type_symbol
_atom_site_fract_x
_atom_site_fract_y
_atom_site_fract_z
O1	O	1.223862	0.120982	-0.136621
O2	O	1.557196	0.454316	0.196713
O3	O	1.890529	0.787649	0.530046
O4	O	0.955389	0.135198	-0.136624
O5	O	1.288723	0.468531	0.196710
O6	O	1.622056	0.801865	0.530043
O7	O	1.096734	-0.006146	-0.136607
O8	O	1.430067	0.327187	0.196726
O9	O	1.763400	0.660520	0.530059
O10	O	1.082518	0.262327	-0.136637
O11	O	1.415851	0.595660	0.196696
O12	O	1.749185	0.928993	0.530029
O13	O	1.096726	-0.006148	0.136620
O14	O	1.430059	0.327185	0.469953
O15	O	1.763393	0.660519	0.803287
O16	O	0.955381	0.135196	0.136603
O17	O	1.288715	0.468530	0.469937
O18	O	1.622048	0.801863	0.803270
O19	O	1.223855	0.120981	0.136606
O20	O	1.557188	0.454314	0.469940
O21	O	1.890521	0.787647	0.803273
Zn22	Zn	1.089617	0.128088	0.179986
Zn23	Zn	1.422950	0.461422	0.513319
Zn24	Zn	1.756283	0.794755	0.846652
Zn25	Zn	1.089627	0.128090	-0.180003
Zn26	Zn	1.422960	0.461424	0.153330
Zn27	Zn	1.756294	0.794757	0.486664
O28	O	1.082510	0.262325	0.136590
O29	O	1.415843	0.595658	0.469923
O30	O	1.749177	0.928992	0.803257
C31	C	0.921026	0.134531	-0.000010
C32	C	1.254359	0.467864	0.333323
C33	C	1.587693	0.801198	0.666656
C34	C	0.818645	0.132535	-0.000011
C35	C	1.151979	0.465868	0.333322
C36	C	1.485312	0.799202	0.666656
C37	C	0.735501	0.130913	-0.000018
C38	C	1.068835	0.464247	0.333316
C39	C	1.402168	0.797580	0.666649
C40	C	0.631192	0.128887	-0.000018
C41	C	0.964526	0.462220	0.333315
C42	C	1.297859	0.795553	0.666649
C43	C	0.548053	0.127278	-0.000018
C44	C	0.881386	0.460612	0.333316
C45	C	1.214720	0.793945	0.666649
C46	C	0.443738	0.125252	-0.000021
C47	C	0.777071	0.458585	0.333312
C48	C	1.110404	0.791919	0.666646
C49	C	1.096064	-0.040507	0.000007
C50	C	1.429397	0.292827	0.333340
C51	C	1.762730	0.626160	0.666673
C52	C	1.094068	-0.142887	0.000008
C53	C	1.427401	0.190446	0.333341
C54	C	1.760734	0.523780	0.666674
C55	C	1.092446	-0.226031	0.000004
C56	C	1.425779	0.107302	0.333337
C57	C	1.759113	0.440635	0.666671
C58	C	1.090419	-0.330340	-0.000009
C59	C	1.423753	0.002993	0.333325
C60	C	1.757086	0.336326	0.666658
C61	C	1.088811	-0.413479	-0.000019
C62	C	1.422144	-0.080146	0.333314
C63	C	1.755478	0.253187	0.666647
C64	C	1.086785	-0.517795	-0.000029
C65	C	1.420118	-0.184462	0.333305
C66	C	1.753451	0.148872	0.666638
C67	C	1.258218	0.121648	-0.000011
C68	C	1.591551	0.454981	0.333323
C69	C	1.924885	0.788314	0.666656
C70	C	1.360598	0.123643	-0.000021
C71	C	1.693932	0.456977	0.333313
C72	C	2.027265	0.790310	0.666646
C73	C	1.083180	0.296685	-0.000028
C74	C	1.416513	0.630019	0.333306
C75	C	1.749847	0.963352	0.666639
C76	C	1.085176	0.399066	-0.000039
C77	C	1.418509	0.732399	0.333294
C78	C	1.751843	1.065732	0.666627
N79	N	1.089617	0.128086	0.425668
N80	N	1.422950	0.461420	0.759001
N81	N	1.756283	0.794753	1.092335
N82	N	1.089635	0.128085	-0.425685
N83	N	1.422968	0.461418	-0.092352
N84	N	1.756301	0.794752	0.240981
