data_functionalizedCrystal
_audit_creation_method	'MofGen! by Chris Wilmer'
_symmetry_space_group_name_H-M	'P1'
_symmetry_Int_Tables_number	1
_symmetry_cell_setting	triclinic
loop_
_symmetry_equiv_pos_as_xyz
  x,y,z
_cell_length_a	19.805407
_cell_length_b	19.077068
_cell_length_c	19.805399
_cell_angle_alpha	87.730571
_cell_angle_beta	90.019573
_cell_angle_gamma	92.327086
loop_
_atom_site_label
_atom_site_type_symbol
_atom_site_fract_x
_atom_site_fract_y
_atom_site_fract_z
Zn1	Zn	1.023904	-0.280218	0.393534
Zn2	Zn	1.523904	0.219782	0.893534
Zn3	Zn	1.019269	-0.397917	0.284888
Zn4	Zn	1.519269	0.102083	0.784888
Zn5	Zn	0.910718	-0.280237	0.280359
Zn6	Zn	1.410718	0.219763	0.780359
Zn7	Zn	0.906134	-0.397880	0.398033
Zn8	Zn	1.406134	0.102120	0.898033
O9	O	0.965006	-0.339063	0.339204
O10	O	1.465006	0.160937	0.839204
O11	O	1.118005	-0.295839	0.379134
O12	O	1.618005	0.204161	0.879134
O13	O	1.004848	-0.382330	0.189571
O14	O	1.504848	0.117670	0.689571
O15	O	0.929590	-0.181744	0.291594
O16	O	1.429590	0.318256	0.791594
O17	O	1.114600	-0.382312	0.299312
O18	O	1.614600	0.117688	0.799312
O19	O	1.012748	-0.181729	0.374743
O20	O	1.512748	0.318271	0.874743
O21	O	0.925096	-0.295872	0.186244
O22	O	1.425096	0.204128	0.686244
O23	O	0.815394	-0.295835	0.295957
O24	O	1.315394	0.204165	0.795957
O25	O	0.921778	-0.382248	0.492152
O26	O	1.421778	0.117752	0.992152
O27	O	0.812026	-0.382267	0.382411
O28	O	1.312026	0.117733	0.882411
O29	O	1.008303	-0.295802	0.488846
O30	O	1.508303	0.204198	0.988846
O31	O	1.000404	-0.496403	0.303675
O32	O	1.500404	0.003597	0.803675
O33	O	0.917284	-0.496376	0.386802
O34	O	1.417284	0.003624	0.886802
C35	C	0.789151	-0.339050	0.339181
C36	C	1.289151	0.160950	0.839181
C37	C	0.713918	-0.339061	0.339188
C38	C	1.213918	0.160939	0.839188
C39	C	0.676836	-0.384133	0.384138
C40	C	1.176836	0.115867	0.884138
C41	C	0.606147	-0.384135	0.384147
C42	C	1.106147	0.115865	0.884147
C43	C	0.572543	-0.339066	0.339204
C44	C	1.072543	0.160934	0.839204
C45	C	0.609630	-0.293989	0.294252
C46	C	1.109630	0.206011	0.794252
C47	C	0.680318	-0.293985	0.294246
C48	C	1.180318	0.206015	0.794246
C49	C	0.324556	-0.294004	0.294275
C50	C	0.824556	0.205996	0.794275
C51	C	0.253864	-0.294014	0.294283
C52	C	0.753864	0.205986	0.794283
C53	C	0.250386	-0.384154	0.384176
C54	C	0.750386	0.115846	0.884176
C55	C	0.321073	-0.384150	0.384170
C56	C	0.821073	0.115850	0.884170
C57	C	0.358155	-0.339070	0.339221
C58	C	0.858155	0.160930	0.839221
C59	C	0.434804	-0.339069	0.339212
C60	C	0.934804	0.160931	0.839212
C61	C	0.495895	-0.339071	0.339209
C62	C	0.995895	0.160929	0.839209
C63	C	0.957862	-0.521927	0.346233
C64	C	1.457862	-0.021927	0.846233
C65	C	0.954867	-0.600157	0.349263
C66	C	1.454867	-0.100157	0.849263
C67	C	0.996770	-0.636901	0.307443
C68	C	1.496770	-0.136901	0.807443
C69	C	0.993957	-0.710406	0.310296
C70	C	1.493957	-0.210406	0.810296
C71	C	0.949238	-0.747167	0.354968
C72	C	1.449238	-0.247167	0.854968
C73	C	0.907333	-0.710418	0.396793
C74	C	1.407333	-0.210418	0.896793
C75	C	0.910150	-0.636914	0.393942
C76	C	1.410150	-0.136914	0.893942
C77	C	0.936174	-0.967002	0.368135
C78	C	1.436174	-0.467002	0.868135
C79	C	0.933359	-1.040511	0.370981
C80	C	1.433359	-0.540511	0.870981
C81	C	1.019984	-1.040494	0.284485
C82	C	1.519984	-0.540494	0.784485
C83	C	1.022794	-0.966989	0.281635
C84	C	1.522794	-0.466989	0.781635
C85	C	0.980892	-0.930246	0.323463
C86	C	1.480892	-0.430246	0.823463
N87	N	0.946361	-0.822301	0.357884
N88	N	1.446361	-0.322301	0.857884
N89	N	0.983773	-0.855113	0.320549
N90	N	1.483773	-0.355113	0.820549
C91	C	1.141548	-0.339077	0.339226
C92	C	1.641548	0.160923	0.839226
C93	C	1.216780	-0.339083	0.339236
C94	C	1.716780	0.160917	0.839236
C95	C	0.965046	-0.339019	0.515745
C96	C	1.465046	0.160981	1.015745
C97	C	0.965063	-0.339000	0.590976
C98	C	1.465063	0.161000	1.090976
C99	C	0.972197	-0.155485	0.332161
C100	C	1.472197	0.344515	0.832161
C101	C	0.975262	-0.077255	0.329160
C102	C	1.475262	0.422745	0.829160
C103	C	0.965008	-0.339056	0.163347
C104	C	1.465008	0.160944	0.663347
C105	C	0.965130	-0.338877	0.088109
C106	C	1.465130	0.161123	0.588109
C107	C	1.010118	-0.293985	0.624600
C108	C	1.510118	0.206015	1.124600
C109	C	1.010125	-0.293965	0.695288
C110	C	1.510125	0.206035	1.195288
C111	C	0.965081	-0.338963	0.732350
C112	C	1.465081	0.161037	1.232350
C113	C	0.920022	-0.383980	0.698721
C114	C	1.420022	0.116020	1.198721
C115	C	0.920011	-0.383996	0.628035
C116	C	1.420011	0.116004	1.128035
C117	C	0.920062	-0.383914	0.983792
C118	C	1.420062	0.116086	1.483792
C119	C	0.920078	-0.383896	1.054484
C120	C	1.420078	0.116104	1.554484
C121	C	1.010177	-0.293883	1.051045
C122	C	1.510177	0.206117	1.551045
C123	C	1.010166	-0.293899	0.980358
C124	C	1.510166	0.206101	1.480358
C125	C	0.965104	-0.338913	0.946736
C126	C	1.465104	0.161087	1.446736
C127	C	0.965096	-0.338934	0.870088
C128	C	1.465096	0.161066	1.370088
C129	C	0.965093	-0.338947	0.808997
C130	C	1.465093	0.161053	1.308997
H131	H	0.575957	-0.420838	0.420749
H132	H	1.075957	0.079162	0.920749
C133	C	0.870489	-0.433433	0.946828
C134	C	1.370489	0.066567	1.446828
C135	C	0.793775	-0.427671	0.956338
C136	C	1.293775	0.072329	1.456338
C137	C	0.744193	-0.477193	0.919378
C138	C	1.244193	0.022807	1.419378
C139	C	0.771326	-0.532477	0.872907
C140	C	1.271326	-0.032477	1.372907
C141	C	0.848044	-0.538241	0.863395
C142	C	1.348044	-0.038241	1.363395
C143	C	0.897625	-0.488719	0.900355
C144	C	1.397625	0.011281	1.400355
H145	H	0.773686	-0.386744	0.990741
H146	H	1.273686	0.113256	1.490741
H147	H	0.687401	-0.472925	0.926420
H148	H	1.187401	0.027075	1.426420
H149	H	0.734623	-0.569136	0.845547
H150	H	1.234623	-0.069136	1.345547
H151	H	0.868132	-0.579167	0.828992
H152	H	1.368132	-0.079167	1.328992
H153	H	0.954417	-0.492986	0.893313
H154	H	1.454417	0.007014	1.393313
H155	H	0.883343	-0.420615	0.728903
H156	H	1.383343	0.079385	1.228903
C157	C	0.209594	-0.433738	0.433627
C158	C	0.709594	0.066262	0.933627
C159	C	0.216187	-0.513742	0.431048
C160	C	0.716187	-0.013742	0.931048
C161	C	0.175397	-0.563326	0.480495
C162	C	0.675397	-0.063326	0.980495
C163	C	0.128015	-0.532907	0.532523
C164	C	0.628015	-0.032907	1.032523
C165	C	0.121421	-0.452899	0.535104
C166	C	0.621421	0.047101	1.035104
C167	C	0.162211	-0.403315	0.485657
C168	C	0.662211	0.096685	0.985657
H169	H	0.251263	-0.536263	0.392532
H170	H	0.751263	-0.036263	0.892532
H171	H	0.180279	-0.622553	0.478584
H172	H	0.680279	-0.122553	0.978584
H173	H	0.097821	-0.569612	0.569127
H174	H	0.597821	-0.069612	1.069127
H175	H	0.086345	-0.430378	0.573620
H176	H	0.586345	0.069622	1.073620
H177	H	0.157329	-0.344088	0.487568
H178	H	0.657329	0.155912	0.987568
H179	H	1.046866	-0.257228	1.078429
H180	H	1.546866	0.242772	1.578429
C181	C	0.870522	-0.433392	1.095255
C182	C	1.370522	0.066608	1.595255
C183	C	0.818594	-0.402869	1.142674
C184	C	1.318594	0.097131	1.642674
C185	C	0.769042	-0.452363	1.183446
C186	C	1.269042	0.047637	1.683446
C187	C	0.771418	-0.532378	1.176799
C188	C	1.271418	-0.032378	1.676799
C189	C	0.823348	-0.562905	1.129377
C190	C	1.323348	-0.062905	1.629377
C191	C	0.872900	-0.513411	1.088605
C192	C	1.372900	-0.013411	1.588605
H193	H	0.816833	-0.343633	1.147597
H194	H	1.316833	0.156367	1.647597
H195	H	0.730600	-0.429764	1.218551
H196	H	1.230600	0.070236	1.718551
H197	H	0.734736	-0.569016	1.206981
H198	H	1.234736	-0.069016	1.706981
H199	H	0.825108	-0.622141	1.124455
H200	H	1.325108	-0.122141	1.624455
H201	H	0.911342	-0.536010	1.053501
H202	H	1.411342	-0.036010	1.553501
C203	C	1.059691	-0.244450	0.732271
C204	C	1.559691	0.255550	1.232271
C205	C	1.111641	-0.274941	0.782048
C206	C	1.611641	0.225059	1.282048
C207	C	1.161209	-0.225422	0.819029
C208	C	1.661209	0.274578	1.319029
C209	C	1.158827	-0.145413	0.806233
C210	C	1.658827	0.354587	1.306233
C211	C	1.106874	-0.114918	0.756454
C212	C	1.606874	0.385082	1.256454
C213	C	1.057306	-0.164436	0.719473
C214	C	1.557306	0.335564	1.219473
H215	H	1.113407	-0.334172	0.791522
H216	H	1.613407	0.165828	1.291522
H217	H	1.199668	-0.247997	0.855879
H218	H	1.699668	0.252003	1.355879
H219	H	1.195520	-0.108756	0.833609
H220	H	1.695520	0.391244	1.333609
H221	H	1.105108	-0.055686	0.746979
H222	H	1.605108	0.444314	1.246979
H223	H	1.018847	-0.141861	0.682623
H224	H	1.518847	0.358139	1.182623
H225	H	0.883316	-0.420644	0.600659
H226	H	1.383316	0.079356	1.100659
H227	H	1.054099	-1.070418	0.250432
H228	H	1.554099	-0.570418	0.750432
H229	H	0.704191	-0.420836	0.420734
H230	H	1.204191	0.079164	0.920734
H231	H	0.226505	-0.257309	0.257684
H232	H	0.726505	0.242691	0.757684
H233	H	1.046848	-0.257260	0.950185
H234	H	1.546848	0.242740	1.450185
H235	H	0.348430	-0.420852	0.420766
H236	H	0.848430	0.079148	0.920766
C237	C	0.572665	-0.244410	0.244818
C238	C	1.072665	0.255590	0.744818
C239	C	0.585506	-0.164405	0.247398
C240	C	1.085506	0.335595	0.747398
C241	C	0.548541	-0.114825	0.197963
C242	C	1.048541	0.385175	0.697963
C243	C	0.498734	-0.145250	0.145948
C244	C	0.998734	0.354750	0.645948
C245	C	0.485890	-0.225258	0.143366
C246	C	0.985890	0.274742	0.643366
C247	C	0.522855	-0.274838	0.192801
C248	C	1.022855	0.225162	0.692801
H249	H	0.622378	-0.141879	0.285905
H250	H	1.122378	0.358121	0.785905
H251	H	0.558049	-0.055597	0.199875
H252	H	1.058049	0.444403	0.699875
H253	H	0.471370	-0.108548	0.109353
H254	H	0.971370	0.391452	0.609353
H255	H	0.449018	-0.247784	0.104859
H256	H	0.949018	0.252216	0.604859
H257	H	0.513347	-0.334066	0.190889
H258	H	1.013347	0.165934	0.690889
H259	H	0.710510	-0.257278	0.257647
H260	H	1.210510	0.242722	0.757647
C261	C	1.045963	-0.596467	0.258303
C262	C	1.545963	-0.096467	0.758303
C263	C	1.040099	-0.606635	0.181747
C264	C	1.540099	-0.106635	0.681747
C265	C	1.089295	-0.566203	0.132608
C266	C	1.589295	-0.066203	0.632608
C267	C	1.144354	-0.515604	0.160025
C268	C	1.644354	-0.015604	0.660025
C269	C	1.150220	-0.505434	0.236585
C270	C	1.650220	-0.005434	0.736585
C271	C	1.101024	-0.545866	0.285724
C272	C	1.601024	-0.045866	0.785724
H273	H	0.999338	-0.644093	0.161448
H274	H	1.499338	-0.144093	0.661448
H275	H	1.084952	-0.573732	0.075933
H276	H	1.584952	-0.073732	0.575933
H277	H	1.180772	-0.485674	0.123649
H278	H	1.680772	0.014326	0.623649
H279	H	1.190981	-0.467976	0.256884
H280	H	1.690981	0.032024	0.756884
H281	H	1.105367	-0.538337	0.342399
H282	H	1.605367	-0.038337	0.842399
C283	C	0.864054	-0.596494	0.439944
C284	C	1.364054	-0.096494	0.939944
C285	C	0.895292	-0.545902	0.491151
C286	C	1.395292	-0.045902	0.991151
C287	C	0.849197	-0.505483	0.537157
C288	C	1.349197	-0.005483	1.037157
C289	C	0.771865	-0.515656	0.531957
C290	C	1.271865	-0.015656	1.031957
C291	C	0.740623	-0.566251	0.480748
C292	C	1.240623	-0.066251	0.980748
C293	C	0.786718	-0.606669	0.434742
C294	C	1.286718	-0.106669	0.934742
H295	H	0.952541	-0.538369	0.495002
H296	H	1.452541	-0.038369	0.995002
H297	H	0.872324	-0.468030	0.575065
H298	H	1.372324	0.031970	1.075065
H299	H	0.737742	-0.485736	0.566014
H300	H	1.237742	0.014264	1.066014
H301	H	0.683374	-0.573783	0.476897
H302	H	1.183374	-0.073783	0.976897
H303	H	0.763591	-0.644122	0.396834
H304	H	1.263591	-0.144122	0.896834
H305	H	0.354740	-0.257303	0.257670
H306	H	0.854740	0.242697	0.757670
C307	C	1.040055	-0.750820	0.264293
C308	C	1.540055	-0.250820	0.764293
C309	C	1.034963	-0.740774	0.186953
C310	C	1.534963	-0.240774	0.686953
C311	C	1.081067	-0.781185	0.140949
C312	C	1.581067	-0.281185	0.640949
C313	C	1.132263	-0.831643	0.172286
C314	C	1.632263	-0.331643	0.672286
C315	C	1.137358	-0.841691	0.249630
C316	C	1.637358	-0.341691	0.749630
C317	C	1.091254	-0.801280	0.295634
C318	C	1.591254	-0.301280	0.795634
H319	H	0.997062	-0.703420	0.163752
H320	H	1.497062	-0.203420	0.663752
H321	H	1.077295	-0.773746	0.083694
H322	H	1.577295	-0.273746	0.583694
H323	H	1.166392	-0.861557	0.138231
H324	H	1.666392	-0.361557	0.638231
H325	H	1.175258	-0.879044	0.272831
H326	H	1.675258	-0.379044	0.772831
H327	H	1.095026	-0.808718	0.352889
H328	H	1.595026	-0.308718	0.852889
C329	C	0.884166	-1.080950	0.420124
C330	C	1.384166	-0.580950	0.920124
C331	C	0.838075	-1.040537	0.466134
C332	C	1.338075	-0.540537	0.966134
C333	C	0.788883	-1.080976	0.515272
C334	C	1.288883	-0.580976	1.015272
C335	C	0.785782	-1.161827	0.518400
C336	C	1.285782	-0.661827	1.018400
C337	C	0.831875	-1.202245	0.472389
C338	C	1.331875	-0.702245	0.972389
C339	C	0.881067	-1.161806	0.423251
C340	C	1.381067	-0.661806	0.923251
H341	H	0.840369	-0.980681	0.463819
H342	H	1.340369	-0.480681	0.963819
H343	H	0.754762	-1.051055	0.549332
H344	H	1.254762	-0.551055	1.049332
H345	H	0.749368	-1.191762	0.554775
H346	H	1.249368	-0.691762	1.054775
H347	H	0.829581	-1.262100	0.474703
H348	H	1.329581	-0.762100	0.974703
H349	H	0.915187	-1.191726	0.389190
H350	H	1.415187	-0.691726	0.889190
C351	C	0.890080	-0.926587	0.414137
C352	C	1.390080	-0.426587	0.914137
C353	C	0.921316	-0.875995	0.465344
C354	C	1.421316	-0.375995	0.965344
C355	C	0.875220	-0.835574	0.511348
C356	C	1.375220	-0.335574	1.011348
C357	C	0.797888	-0.845745	0.506144
C358	C	1.297888	-0.345745	1.006144
C359	C	0.766648	-0.896339	0.454935
C360	C	1.266648	-0.396339	0.954935
C361	C	0.812744	-0.936760	0.408931
C362	C	1.312744	-0.436760	0.908931
H363	H	0.978565	-0.868463	0.469198
H364	H	1.478565	-0.368463	0.969198
H365	H	0.898347	-0.798120	0.549256
H366	H	1.398347	-0.298120	1.049256
H367	H	0.763765	-0.815823	0.540199
H368	H	1.263765	-0.315823	1.040199
H369	H	0.709398	-0.903870	0.451081
H370	H	1.209398	-0.403870	0.951081
H371	H	0.789617	-0.974213	0.371023
H372	H	1.289617	-0.474213	0.871023
H373	H	0.870925	-0.740354	0.433168
H374	H	1.370925	-0.240354	0.933168
H375	H	1.046800	-0.257345	0.594428
H376	H	1.546800	0.242655	1.094428
H377	H	1.059207	-0.937060	0.245260
H378	H	1.559207	-0.437060	0.745260
