data_functionalizedCrystal
_audit_creation_method	'MofGen! by Chris Wilmer'
_symmetry_space_group_name_H-M	'P1'
_symmetry_Int_Tables_number	1
_symmetry_cell_setting	triclinic
loop_
_symmetry_equiv_pos_as_xyz
  x,y,z
_cell_length_a	8.497374
_cell_length_b	18.215407
_cell_length_c	18.215405
_cell_angle_alpha	89.974667
_cell_angle_beta	89.985971
_cell_angle_gamma	90.003703
loop_
_atom_site_label
_atom_site_type_symbol
_atom_site_fract_x
_atom_site_fract_y
_atom_site_fract_z
Zn1	Zn	0.891978	1.124955	0.293103
Zn2	Zn	0.628155	1.124898	0.416139
Zn3	Zn	0.628196	1.001922	0.293092
Zn4	Zn	0.891878	1.001853	0.416133
O5	O	0.760052	1.063407	0.354617
O6	O	0.857006	1.227931	0.309431
O7	O	0.407398	1.108590	0.399814
O8	O	0.663247	1.018295	0.190109
O9	O	0.663177	1.227890	0.399825
O10	O	0.857046	1.108687	0.190117
O11	O	0.407429	1.018240	0.309412
O12	O	0.663149	0.898929	0.309406
O13	O	1.112653	1.018178	0.399816
O14	O	0.856875	0.898878	0.399805
O15	O	1.112727	1.108620	0.309426
O16	O	0.663079	1.108523	0.519122
O17	O	0.856835	1.018123	0.519118
C18	C	0.760007	0.872201	0.354604
C19	C	0.760025	0.790402	0.354616
C20	C	0.860771	0.602201	0.401761
C21	C	0.860791	0.525342	0.401763
C22	C	0.659367	0.525365	0.307486
C23	C	0.659357	0.602222	0.307481
C24	C	0.760056	0.640638	0.354622
C25	C	0.760086	0.486922	0.354630
C26	C	0.760107	0.403589	0.354632
C27	C	0.760038	0.723977	0.354619
C28	C	0.759976	1.063329	0.545823
C29	C	0.759996	1.063363	0.627622
C30	C	1.171532	1.063401	0.354618
C31	C	1.350176	1.063403	0.354626
C32	C	0.760098	1.255360	0.354630
C33	C	0.760118	1.337159	0.354636
C34	C	0.760163	1.063505	0.162664
C35	C	0.760210	1.063547	0.080865
C36	C	0.659293	1.110545	0.815793
C37	C	0.659332	1.110578	0.892652
C38	C	0.860924	1.016363	0.892688
C39	C	0.860892	1.016334	0.815831
C40	C	0.760068	1.063424	0.777385
C41	C	0.760138	1.063486	0.931101
C42	C	0.760180	1.063521	1.014435
C43	C	0.760028	1.063390	0.694046
H44	H	0.942805	0.494050	0.440147
O45	O	0.959076	0.970697	0.930003
C46	C	1.227354	0.934839	0.953464
C47	C	1.116380	0.986615	0.911174
H48	H	1.354556	0.947680	0.938245
H49	H	1.210200	0.942955	1.015002
H50	H	1.199440	0.875508	0.938415
H51	H	1.144225	1.045965	0.926162
H52	H	1.133554	0.978435	0.849646
H53	H	0.577273	1.148950	0.923921
H54	H	0.577343	0.633519	0.269090
H55	H	0.577379	0.494077	0.269106
H56	H	0.942963	0.977962	0.784557
O57	O	0.958746	0.639405	0.447570
C58	C	1.158478	0.631266	0.541105
C59	C	1.047619	0.589045	0.489253
H60	H	1.230337	0.590569	0.574830
H61	H	1.241195	0.667246	0.507408
H62	H	1.085878	0.667251	0.579502
H63	H	1.120092	0.553020	0.450846
H64	H	0.964898	0.553112	0.522996
O65	O	0.561314	1.156359	0.778561
C66	C	0.361301	1.249780	0.786641
C67	C	0.472209	1.197944	0.828895
H68	H	0.289207	1.283404	0.827318
H69	H	0.433716	1.288267	0.750631
H70	H	0.278792	1.216002	0.750684
H71	H	0.554740	1.231663	0.864892
H72	H	0.399696	1.159455	0.864859
