data_functionalizedCrystal
_audit_creation_method	'MofGen! by Chris Wilmer'
_symmetry_space_group_name_H-M	'P1'
_symmetry_Int_Tables_number	1
_symmetry_cell_setting	triclinic
loop_
_symmetry_equiv_pos_as_xyz
  x,y,z
_cell_length_a	19.188928
_cell_length_b	26.809956
_cell_length_c	19.188930
_cell_angle_alpha	90.000789
_cell_angle_beta	96.855705
_cell_angle_gamma	89.974501
loop_
_atom_site_label
_atom_site_type_symbol
_atom_site_fract_x
_atom_site_fract_y
_atom_site_fract_z
O1	O	-0.926151	0.041678	0.087150
O2	O	-0.426151	0.541678	0.587150
O3	O	-0.722840	0.041638	0.098886
O4	O	-0.222840	0.541638	0.598886
O5	O	-0.830363	0.041649	-0.008638
O6	O	-0.330363	0.541649	0.491362
O7	O	-0.818629	0.041666	0.194674
O8	O	-0.318629	0.541666	0.694674
O9	O	-0.830343	-0.041310	-0.008621
O10	O	-0.330343	0.458690	0.491379
O11	O	-0.722820	-0.041322	0.098902
O12	O	-0.222820	0.458678	0.598902
O13	O	-0.926131	-0.041281	0.087166
O14	O	-0.426131	0.458719	0.587166
Zn15	Zn	-0.824472	-0.054473	0.093037
Zn16	Zn	-0.324472	0.445527	0.593037
Zn17	Zn	-0.824499	0.054829	0.093015
Zn18	Zn	-0.324499	0.554829	0.593015
O19	O	-0.818608	-0.041293	0.194690
O20	O	-0.318608	0.458707	0.694690
C21	C	-0.696819	0.000153	0.098514
C22	C	-0.196819	0.500153	0.598514
C23	C	-0.619314	0.000137	0.097374
C24	C	-0.119314	0.500137	0.597374
C25	C	-0.574390	0.000148	0.160465
C26	C	-0.074390	0.500148	0.660465
C27	C	-0.501566	0.000151	0.159394
C28	C	-0.001566	0.500151	0.659394
C29	C	-0.473670	0.000152	0.095229
C30	C	0.026330	0.500152	0.595229
C31	C	-0.518603	0.000138	0.032129
C32	C	-0.018603	0.500138	0.532129
C33	C	-0.591426	0.000130	0.033202
C34	C	-0.091426	0.500130	0.533202
N35	N	-0.365696	0.028399	0.046177
N36	N	0.134304	0.528399	0.546177
N37	N	-0.296518	0.028407	0.045162
N38	N	0.203482	0.528407	0.545162
C39	C	-0.254261	0.000175	0.091992
C40	C	0.245739	0.500175	0.591992
N41	N	-0.283795	-0.028060	0.139886
N42	N	0.216205	0.471940	0.639886
N43	N	-0.352979	-0.028067	0.140903
N44	N	0.147021	0.471933	0.640903
C45	C	-0.394707	0.000160	0.094058
C46	C	0.105293	0.500160	0.594058
C47	C	-0.130372	0.000189	0.153927
C48	C	0.369628	0.500189	0.653927
C49	C	-0.057547	0.000189	0.152853
C50	C	0.442453	0.500189	0.652853
C51	C	-0.074586	0.000180	0.025586
C52	C	0.425414	0.500180	0.525586
C53	C	-0.147409	0.000175	0.026661
C54	C	0.352591	0.500175	0.526661
C55	C	-0.175298	0.000182	0.090833
C56	C	0.324702	0.500182	0.590833
N57	N	-0.824459	-0.129069	0.093051
N58	N	-0.324459	0.370931	0.593051
C59	C	-0.872104	-0.473690	0.045415
C60	C	-0.372104	0.026310	0.545415
C61	C	-0.872120	-0.682568	0.045405
C62	C	-0.372120	-0.182568	0.545405
O63	O	-0.912602	-0.709567	0.004908
O64	O	-0.412602	-0.209567	0.504908
N65	N	-0.824503	-0.708696	0.093000
N66	N	-0.324503	-0.208696	0.593000
C67	C	-0.776874	-0.682602	0.140598
C68	C	-0.276874	-0.182602	0.640598
O69	O	-0.736368	-0.709619	0.181075
O70	O	-0.236368	-0.209619	0.681075
C71	C	-0.776855	-0.473725	0.140605
C72	C	-0.276855	0.026275	0.640605
C73	C	-0.824481	-0.447599	0.093011
C74	C	-0.324481	0.052401	0.593011
C75	C	-0.919725	-0.447564	-0.002175
C76	C	-0.419725	0.052436	0.497825
C77	C	-0.919723	-0.395348	-0.002169
C78	C	-0.419723	0.104652	0.497831
C79	C	-0.872100	-0.369257	0.045427
C80	C	-0.372100	0.130743	0.545427
C81	C	-0.824479	-0.395383	0.093017
C82	C	-0.324479	0.104617	0.593017
C83	C	-0.729224	-0.447632	0.188199
C84	C	-0.229224	0.052368	0.688199
C85	C	-0.729222	-0.395410	0.188195
C86	C	-0.229222	0.104590	0.688195
C87	C	-0.776848	-0.369284	0.140602
C88	C	-0.276848	0.130716	0.640602
C89	C	-0.776853	-0.317076	0.140618
C90	C	-0.276853	0.182924	0.640618
N91	N	-0.824471	-0.290948	0.093023
N92	N	-0.324471	0.209052	0.593023
C93	C	-0.872094	-0.317038	0.045428
C94	C	-0.372094	0.182962	0.545428
C95	C	-0.776889	-0.792265	0.140592
C96	C	-0.276889	-0.292265	0.640592
C97	C	-0.776894	-0.844484	0.140591
C98	C	-0.276894	-0.344484	0.640591
C99	C	-0.872140	-0.844446	0.045397
C100	C	-0.372140	-0.344446	0.545397
C101	C	-0.872137	-0.792226	0.045402
C102	C	-0.372137	-0.292226	0.545402
C103	C	-0.824507	-0.766137	0.092997
C104	C	-0.324507	-0.266137	0.592997
C105	C	-0.872087	-0.207380	0.045444
C106	C	-0.372087	0.292620	0.545444
C107	C	-0.872082	-0.155159	0.045455
C108	C	-0.372082	0.344841	0.545455
C109	C	-0.776835	-0.155202	0.140647
C110	C	-0.276835	0.344798	0.640647
C111	C	-0.776841	-0.207418	0.140638
C112	C	-0.276841	0.292582	0.640638
C113	C	-0.824470	-0.233506	0.093030
C114	C	-0.324470	0.266494	0.593030
O115	O	-0.736388	-0.290045	0.181089
O116	O	-0.236388	0.209955	0.681089
O117	O	-0.912584	-0.290013	0.004946
O118	O	-0.412584	0.209987	0.504946
C119	C	-0.872106	-0.525906	0.045410
C120	C	-0.372106	-0.025906	0.545410
C121	C	-0.824485	-0.552032	0.093000
C122	C	-0.324485	-0.052032	0.593000
C123	C	-0.776862	-0.525942	0.140596
C124	C	-0.276862	-0.025942	0.640596
C125	C	-0.824490	-0.604251	0.092999
C126	C	-0.324490	-0.104251	0.592999
C127	C	-0.872114	-0.630341	0.045403
C128	C	-0.372114	-0.130341	0.545403
C129	C	-0.919731	-0.604213	-0.002192
C130	C	-0.419731	-0.104213	0.497808
C131	C	-0.919729	-0.551997	-0.002186
C132	C	-0.419729	-0.051997	0.497814
C133	C	-0.729244	-0.552070	0.188191
C134	C	-0.229244	-0.052070	0.688191
C135	C	-0.729250	-0.604286	0.188182
C136	C	-0.229250	-0.104286	0.688182
C137	C	-0.776874	-0.630377	0.140586
C138	C	-0.276874	-0.130377	0.640586
C139	C	0.047848	0.000196	0.087540
C140	C	0.547848	0.500196	0.587540
C141	C	-0.029656	0.000189	0.088686
C142	C	0.470344	0.500189	0.588686
C143	C	-0.829973	0.000168	-0.034641
C144	C	-0.329973	0.500168	0.465359
C145	C	-0.828832	0.000164	-0.112145
C146	C	-0.328832	0.500164	0.387855
N147	N	-0.824518	0.129425	0.092995
N148	N	-0.324518	0.629425	0.592995
C149	C	-0.891923	0.000174	-0.157070
C150	C	-0.391923	0.500174	0.342930
C151	C	-0.890851	0.000182	-0.229893
C152	C	-0.390851	0.500182	0.270107
C153	C	-0.826685	0.000169	-0.257789
C154	C	-0.326685	0.500169	0.242211
C155	C	-0.763586	0.000162	-0.212855
C156	C	-0.263586	0.500162	0.287145
C157	C	-0.764659	0.000159	-0.140033
C158	C	-0.264659	0.500159	0.359967
N159	N	-0.777631	-0.028073	-0.365788
N160	N	-0.277631	0.471927	0.134212
N161	N	-0.776615	-0.028072	-0.434967
N162	N	-0.276615	0.471928	0.065033
C163	C	-0.823447	0.000179	-0.477198
C164	C	-0.323447	0.500179	0.022802
N165	N	-0.871343	0.028421	-0.447639
N166	N	-0.371343	0.528421	0.052361
N167	N	-0.872360	0.028417	-0.378454
N168	N	-0.372360	0.528417	0.121546
C169	C	-0.825514	0.000172	-0.336752
C170	C	-0.325514	0.500172	0.163248
C171	C	-0.885380	0.000198	-0.601087
C172	C	-0.385380	0.500198	-0.101087
C173	C	-0.884306	0.000209	-0.673912
C174	C	-0.384306	0.500209	-0.173912
C175	C	-0.757039	0.000184	-0.656872
C176	C	-0.257039	0.500184	-0.156872
C177	C	-0.758115	0.000178	-0.584049
C178	C	-0.258115	0.500178	-0.084049
C179	C	-0.822287	0.000183	-0.556161
C180	C	-0.322287	0.500183	-0.056161
C181	C	-0.818998	0.000189	0.220693
C182	C	-0.318998	0.500189	0.720693
C183	C	-0.820139	0.000197	0.298197
C184	C	-0.320139	0.500197	0.798197
H185	H	-0.910869	-0.228615	0.006676
H186	H	-0.410869	0.271385	0.506676
H187	H	-0.935684	0.000220	-0.710489
H188	H	-0.435684	0.500220	-0.210489
H189	H	-0.944177	0.000179	-0.134369
H190	H	-0.444177	0.500179	0.365631
H191	H	-0.910867	-0.133889	0.006699
H192	H	-0.410867	0.366111	0.506699
H193	H	-0.738067	-0.228690	0.179399
H194	H	-0.238067	0.271310	0.679399
N195	N	-0.958901	0.000194	-0.278360
N196	N	-0.458901	0.500194	0.221640
H197	H	-0.999716	0.000197	-0.249643
H198	H	-0.499716	0.500197	0.250357
H199	H	-0.961213	-0.030560	-0.308946
H200	H	-0.461213	0.469440	0.191054
H201	H	-0.706739	0.000167	-0.547470
H202	H	-0.206739	0.500167	-0.047470
N203	N	-0.696612	0.000144	-0.091568
N204	N	-0.196612	0.500144	0.408432
H205	H	-0.668612	0.030893	-0.100510
H206	H	-0.168612	0.530893	0.399490
H207	H	-0.668654	-0.030634	-0.100542
H208	H	-0.168654	0.469366	0.399458
H209	H	-0.597092	0.000155	0.212720
H210	H	-0.097092	0.500155	0.712720
N211	N	-0.971088	-0.367173	-0.053505
N212	N	-0.471088	0.132827	0.446495
H213	H	-1.001252	-0.391631	-0.083655
H214	H	-0.501252	0.108369	0.416345
H215	H	-0.944454	-0.345517	-0.084307
H216	H	-0.444454	0.154483	0.415693
H217	H	-0.704793	0.000176	-0.679584
H218	H	-0.204793	0.500176	-0.179584
H219	H	-0.711341	0.000153	-0.235573
H220	H	-0.211341	0.500153	0.264427
N221	N	-0.195861	0.000171	-0.041392
N222	N	0.304139	0.500171	0.458608
H223	H	-0.226481	0.030920	-0.043790
H224	H	0.273519	0.530920	0.456210
H225	H	-0.226384	-0.030606	-0.043741
H226	H	0.273616	0.469394	0.456259
N227	N	-0.639878	0.000122	-0.034853
N228	N	-0.139878	0.500122	0.465147
H229	H	-0.670496	0.030872	-0.037251
H230	H	-0.170496	0.530872	0.462749
H231	H	-0.670402	-0.030654	-0.037199
H232	H	-0.170402	0.469346	0.462801
H233	H	-0.153080	0.000187	0.206179
H234	H	0.346920	0.500187	0.706179
N235	N	-0.954590	0.000205	-0.571001
N236	N	-0.454590	0.500205	-0.071001
H237	H	-0.994397	0.000217	-0.610514
H238	H	-0.494397	0.500217	-0.110514
H239	H	-0.957815	0.030957	-0.541152
H240	H	-0.457815	0.530957	-0.041152
H241	H	-0.051874	0.000212	-0.026659
H242	H	0.448126	0.500212	0.473341
H243	H	-0.464982	0.000159	0.210772
H244	H	0.035018	0.500159	0.710772
N245	N	-0.488520	0.000133	-0.037079
N246	N	0.011480	0.500133	0.462921
H247	H	-0.435570	0.000140	-0.028186
H248	H	0.064430	0.500140	0.471814
H249	H	-0.504996	0.030882	-0.064689
H250	H	-0.004996	0.530882	0.435311
H251	H	-0.958506	-0.468802	-0.040936
H252	H	-0.458506	0.031198	0.459064
N253	N	-0.009089	0.000161	0.220904
N254	N	0.490911	0.500161	0.720904
H255	H	-0.037810	0.000154	0.261717
H256	H	0.462190	0.500154	0.761717
H257	H	0.021497	0.030906	0.223256
H258	H	0.521497	0.530906	0.723256
H259	H	-0.910918	-0.865698	0.006644
H260	H	-0.410918	-0.365698	0.506644
N261	N	-0.923495	-0.764044	-0.005932
N262	N	-0.423495	-0.264044	0.494068
H263	H	-0.973023	-0.773111	0.001985
H264	H	-0.473023	-0.273111	0.501985
H265	H	-0.915547	-0.773147	-0.055443
H266	H	-0.415547	-0.273147	0.444557
N267	N	-0.725531	-0.872660	0.191928
N268	N	-0.225531	-0.372660	0.691928
H269	H	-0.695361	-0.848203	0.222074
H270	H	-0.195361	-0.348203	0.722074
H271	H	-0.694751	-0.894335	0.165269
H272	H	-0.194751	-0.394335	0.665269
N273	N	-0.725510	-0.764129	0.191927
N274	N	-0.225510	-0.264129	0.691927
H275	H	-0.695350	-0.788610	0.222074
H276	H	-0.195350	-0.288610	0.722074
H277	H	-0.752135	-0.742452	0.222733
H278	H	-0.252135	-0.242452	0.722733
H279	H	-0.690443	-0.468897	0.226953
H280	H	-0.190443	0.031103	0.726953
N281	N	-0.677845	-0.367270	0.239528
N282	N	-0.177845	0.132730	0.739528
H283	H	-0.647678	-0.391748	0.269674
H284	H	-0.147678	0.108252	0.769674
H285	H	-0.704471	-0.345596	0.270335
H286	H	-0.204471	0.154404	0.770335
H287	H	-0.738062	-0.133951	0.179401
H288	H	-0.238062	0.366049	0.679401
H289	H	-0.958510	-0.530729	-0.040941
H290	H	-0.458510	-0.030729	0.459059
H291	H	-0.958511	-0.625464	-0.040944
H292	H	-0.458511	-0.125464	0.459056
N293	N	-0.677877	-0.632462	0.239516
N294	N	-0.177877	-0.132462	0.739516
H295	H	-0.647707	-0.608006	0.269662
H296	H	-0.147707	-0.108006	0.769662
H297	H	-0.647098	-0.654133	0.212851
H298	H	-0.147098	-0.154133	0.712851
H299	H	-0.690462	-0.530831	0.226948
H300	H	-0.190462	-0.030831	0.726948
