data_functionalizedCrystal
_audit_creation_method	'MofGen! by Chris Wilmer'
_symmetry_space_group_name_H-M	'P1'
_symmetry_Int_Tables_number	1
_symmetry_cell_setting	triclinic
loop_
_symmetry_equiv_pos_as_xyz
  x,y,z
_cell_length_a	11.792254
_cell_length_b	10.540510
_cell_length_c	10.868271
_cell_angle_alpha	89.997346
_cell_angle_beta	89.995741
_cell_angle_gamma	84.355954
loop_
_atom_site_label
_atom_site_type_symbol
_atom_site_fract_x
_atom_site_fract_y
_atom_site_fract_z
O1	O	1.507336	0.174071	-0.102314
O2	O	1.177042	0.191986	-0.102316
O3	O	1.349742	-0.001705	-0.102314
O4	O	1.334636	0.367762	-0.102316
O5	O	1.349728	-0.001712	0.102330
O6	O	1.177028	0.191978	0.102329
O7	O	1.507322	0.174063	0.102331
Zn8	Zn	1.342173	0.183020	0.134821
Zn9	Zn	1.342192	0.183030	-0.134807
O10	O	1.334622	0.367754	0.102329
C11	C	1.134741	0.190854	0.000006
C12	C	1.008720	0.187476	0.000005
C13	C	0.906377	0.184731	-0.000000
C14	C	0.777981	0.181299	-0.000001
C15	C	1.348609	-0.049009	0.000005
C16	C	1.345242	-0.189948	-0.000002
C17	C	1.465216	-0.407788	0.000467
C18	C	1.468808	-0.261204	-0.000000
C19	C	1.281996	-0.234499	-0.116862
C20	C	1.279278	-0.381251	-0.116954
C21	C	1.276688	-0.381060	0.115766
C22	C	1.282549	-0.234738	0.117304
C23	C	1.549623	0.175196	0.000006
C24	C	1.675644	0.178573	-0.000001
C25	C	1.335755	0.415058	0.000007
C26	C	1.339123	0.555997	0.000006
N27	N	1.342168	0.183012	0.318835
N28	N	1.342205	0.183027	-0.318821
C29	C	1.342186	0.183027	0.569842
C30	C	1.342172	0.183022	0.430164
H31	H	1.518295	-0.232022	0.083768
H32	H	1.513350	-0.449900	0.084274
Br33	Br	1.545008	-0.480549	-0.138421
Br34	Br	1.355220	-0.183308	-0.261817
H35	H	1.518594	-0.232955	-0.083914
H36	H	1.183914	-0.402913	0.116552
Br37	Br	1.125244	-0.419093	-0.125802
H38	H	1.322512	-0.421602	-0.204308
H39	H	1.191028	-0.186818	-0.121208
H40	H	1.315950	-0.423371	0.204346
H41	H	1.328570	-0.206277	0.203756
Br42	Br	1.132182	-0.152480	0.129070
