data_functionalizedCrystal
_audit_creation_method	'MofGen! by Chris Wilmer'
_symmetry_space_group_name_H-M	'P1'
_symmetry_Int_Tables_number	1
_symmetry_cell_setting	triclinic
loop_
_symmetry_equiv_pos_as_xyz
  x,y,z
_cell_length_a	13.262390
_cell_length_b	10.540510
_cell_length_c	11.804365
_cell_angle_alpha	101.952739
_cell_angle_beta	62.657606
_cell_angle_gamma	84.472352
loop_
_atom_site_label
_atom_site_type_symbol
_atom_site_fract_x
_atom_site_fract_y
_atom_site_fract_z
O1	O	1.519423	0.018651	-0.591143
O2	O	1.191426	0.064618	-0.484910
O3	O	1.362925	-0.143740	-0.540455
O4	O	1.347924	0.227009	-0.535598
O5	O	1.317775	-0.088939	-0.327776
O6	O	1.146276	0.119419	-0.272231
O7	O	1.474274	0.073452	-0.378464
Cu8	Cu	1.306152	0.101439	-0.305928
Cu9	Cu	1.359547	0.036631	-0.557446
O10	O	1.302774	0.281810	-0.322919
C11	C	1.126851	0.094482	-0.364968
C12	C	1.001706	0.101806	-0.324436
C13	C	0.747400	0.002943	-0.673928
C14	C	0.864981	-0.003945	-0.712012
C15	C	0.899168	0.022492	-0.615121
C16	C	0.815762	0.055819	-0.480140
C17	C	0.698171	0.062699	-0.442052
C18	C	0.849939	0.082248	-0.383246
C19	C	0.766533	0.115575	-0.248264
C20	C	0.648954	0.122453	-0.210183
C21	C	0.614766	0.096016	-0.307074
C22	C	0.967531	0.075368	-0.421333
C23	C	0.918302	0.135123	-0.189458
C24	C	0.800721	0.142012	-0.151374
C25	C	1.339233	-0.163545	-0.433756
C26	C	1.335890	-0.304200	-0.432681
C27	C	1.454926	-0.532104	-0.470781
C28	C	1.458597	-0.385950	-0.472423
C29	C	1.298858	-0.374677	-0.533784
C30	C	1.296179	-0.521223	-0.533005
C31	C	1.242280	-0.458486	-0.290322
C32	C	1.247761	-0.312249	-0.290608
C33	C	1.538848	0.043588	-0.498409
C34	C	1.663995	0.036261	-0.538950
C35	C	1.326467	0.301614	-0.429621
C36	C	1.329812	0.442267	-0.430704
N37	N	1.268606	0.147020	-0.129027
N38	N	1.397102	-0.008961	-0.734350
C39	C	1.487266	-0.118443	0.174102
C40	C	1.515668	-0.152931	0.040241
C41	C	1.453905	-0.077946	-0.002083
C42	C	1.363734	0.031532	0.089468
C43	C	1.335335	0.066030	0.223340
C44	C	1.301974	0.106527	0.047155
C45	C	1.211803	0.216005	0.138706
C46	C	1.183408	0.250496	0.272564
C47	C	1.245172	0.175512	0.314888
C48	C	1.330373	0.072029	-0.086717
C49	C	1.178442	0.256502	-0.037479
C50	C	1.150040	0.290990	0.096382
H51	H	0.719552	-0.018591	-0.752802
H52	H	0.932883	-0.031087	-0.821914
O53	O	0.558989	0.158473	-0.064594
H54	H	0.471481	0.158835	-0.054388
H55	H	0.946135	0.156649	-0.110561
O56	O	1.612914	-0.271009	-0.058486
H57	H	1.681061	-0.237586	-0.137357
O58	O	1.025986	0.015092	-0.656200
H59	H	1.076985	-0.086810	-0.719327
H60	H	0.732796	0.169147	-0.041470
H61	H	1.076621	0.380131	0.170938
O62	O	1.553885	-0.199307	0.219744
H63	H	1.493019	-0.241561	0.296265
O64	O	1.382056	-0.369790	-0.672222
H65	H	1.354960	-0.419929	-0.742809
H66	H	1.128151	0.317564	-0.071937
H67	H	1.489264	-0.338536	-0.401284
O68	O	1.057485	0.039417	-0.566910
H69	H	1.102888	0.122041	-0.586787
H70	H	1.261732	-0.480408	-0.210894
O71	O	1.493759	-0.563524	-0.375905
H72	H	1.424310	-0.597762	-0.299179
H73	H	1.149977	-0.472248	-0.259664
H74	H	1.520841	-0.602143	-0.572779
H75	H	1.274394	-0.264543	-0.215566
O76	O	1.214541	0.212725	0.459270
H77	H	1.272642	0.142191	0.473312
O78	O	1.086204	0.368625	0.371298
H79	H	1.048035	0.414984	0.319381
H80	H	0.519024	0.101627	-0.276072
O81	O	1.484523	-0.115160	-0.146456
H82	H	1.576372	-0.110535	-0.209104
O83	O	1.548583	-0.383879	-0.609150
H84	H	1.589637	-0.487386	-0.674359
H85	H	1.358379	-0.588640	-0.637693
O86	O	1.176173	-0.542801	-0.500964
H87	H	1.120310	-0.448618	-0.486103
H88	H	1.156618	-0.253342	-0.254259
O89	O	1.180475	-0.302831	-0.501036
H90	H	1.146700	-0.215918	-0.412143
H91	H	1.403790	-0.017108	-0.161246
