data_functionalizedCrystal
_audit_creation_method	'MofGen! by Chris Wilmer'
_symmetry_space_group_name_H-M	'P1'
_symmetry_Int_Tables_number	1
_symmetry_cell_setting	triclinic
loop_
_symmetry_equiv_pos_as_xyz
  x,y,z
_cell_length_a	19.288856
_cell_length_b	18.366186
_cell_length_c	19.288857
_cell_angle_alpha	90.003709
_cell_angle_beta	96.867065
_cell_angle_gamma	89.991641
loop_
_atom_site_label
_atom_site_type_symbol
_atom_site_fract_x
_atom_site_fract_y
_atom_site_fract_z
O1	O	-0.921352	0.060586	0.086616
O2	O	-0.588019	0.393920	0.419950
O3	O	-0.254685	0.727253	0.753283
O4	O	-0.719090	0.060581	0.098311
O5	O	-0.385757	0.393914	0.431645
O6	O	-0.052423	0.727248	0.764978
O7	O	-0.826068	0.060575	-0.008667
O8	O	-0.492735	0.393908	0.324666
O9	O	-0.159402	0.727242	0.658000
O10	O	-0.814374	0.060592	0.193595
O11	O	-0.481041	0.393926	0.526928
O12	O	-0.147707	0.727259	0.860261
O13	O	-0.826054	-0.060524	-0.008663
O14	O	-0.492721	0.272809	0.324670
O15	O	-0.159388	0.606142	0.658003
O16	O	-0.719076	-0.060518	0.098315
O17	O	-0.385743	0.272815	0.431648
O18	O	-0.052410	0.606148	0.764982
O19	O	-0.921338	-0.060513	0.086620
O20	O	-0.588005	0.272820	0.419953
O21	O	-0.254671	0.606154	0.753287
Zn22	Zn	-0.820205	-0.079743	0.092468
Zn23	Zn	-0.486872	0.253590	0.425801
Zn24	Zn	-0.153538	0.586924	0.759135
Zn25	Zn	-0.820223	0.079811	0.092463
Zn26	Zn	-0.486890	0.413144	0.425797
Zn27	Zn	-0.153557	0.746477	0.759130
O28	O	-0.814360	-0.060507	0.193598
O29	O	-0.481027	0.272826	0.526932
O30	O	-0.147693	0.606160	0.860265
C31	C	-0.693207	0.000030	0.097938
C32	C	-0.359873	0.333364	0.431271
C33	C	-0.026540	0.666697	0.764604
C34	C	-0.616103	0.000028	0.096811
C35	C	-0.282769	0.333361	0.430144
C36	C	0.050564	0.666695	0.763478
C37	C	-0.052060	0.000022	0.151959
C38	C	0.281273	0.333356	0.485293
C39	C	0.614607	0.666689	0.818626
C40	C	-0.124507	0.000028	0.153024
C41	C	0.208827	0.333361	0.486357
C42	C	0.542160	0.666694	0.819691
C43	C	-0.169215	0.000022	0.090254
C44	C	0.164118	0.333355	0.423588
C45	C	0.497452	0.666688	0.756921
C46	C	-0.141472	0.000029	0.026415
C47	C	0.191862	0.333363	0.359748
C48	C	0.525195	0.666696	0.693082
C49	C	-0.069026	0.000031	0.025352
C50	C	0.264307	0.333365	0.358685
C51	C	0.597640	0.666698	0.692019
C52	C	-0.290482	-0.042409	0.043441
C53	C	0.042851	0.290924	0.376775
C54	C	0.376185	0.624258	0.710108
C55	C	-0.362926	-0.042415	0.044507
C56	C	-0.029592	0.290918	0.377840
C57	C	0.303741	0.624251	0.711173
C58	C	-0.392661	0.000019	0.093530
C59	C	-0.059328	0.333353	0.426863
C60	C	0.274006	0.666686	0.760197
C61	C	-0.349942	0.042451	0.141499
C62	C	-0.016609	0.375784	0.474832
C63	C	0.316724	0.709117	0.808166
C64	C	-0.277497	0.042453	0.140436
C65	C	0.055836	0.375786	0.473770
C66	C	0.389170	0.709119	0.807103
C67	C	-0.247771	0.000020	0.091400
C68	C	0.085562	0.333354	0.424733
C69	C	0.418896	0.666687	0.758066
C70	C	-0.498951	0.000023	0.158520
C71	C	-0.165618	0.333356	0.491853
C72	C	0.167716	0.666689	0.825186
C73	C	-0.571399	0.000033	0.159582
C74	C	-0.238066	0.333366	0.492915
C75	C	0.095267	0.666699	0.826248
C76	C	-0.588363	0.000027	0.032971
C77	C	-0.255030	0.333360	0.366304
C78	C	0.078303	0.666694	0.699637
C79	C	-0.515916	0.000024	0.031910
C80	C	-0.182583	0.333358	0.365244
C81	C	0.150750	0.666691	0.698577
C82	C	-0.471214	0.000019	0.094687
C83	C	-0.137881	0.333352	0.428020
C84	C	0.195453	0.666686	0.761354
N85	N	-0.820198	-0.188634	0.092471
N86	N	-0.486864	0.144699	0.425804
N87	N	-0.153531	0.478033	0.759138
C88	C	-0.862228	-0.773179	0.134468
C89	C	-0.528894	-0.439845	0.467801
C90	C	-0.195561	-0.106512	0.801134
C91	C	-0.862221	-0.696951	0.134474
C92	C	-0.528887	-0.363618	0.467808
C93	C	-0.195554	-0.030284	0.801141
C94	C	-0.820230	-0.658845	0.092455
C95	C	-0.486896	-0.325512	0.425789
C96	C	-0.153563	0.007821	0.759122
C97	C	-0.778230	-0.696974	0.050440
C98	C	-0.444896	-0.363641	0.383773
C99	C	-0.111563	-0.030307	0.717107
C100	C	-0.778233	-0.773200	0.050440
C101	C	-0.444899	-0.439867	0.383773
C102	C	-0.111566	-0.106534	0.717106
C103	C	-0.818505	-0.538085	0.029831
C104	C	-0.485171	-0.204751	0.363164
C105	C	-0.151838	0.128582	0.696498
C106	C	-0.818506	-0.461860	0.029830
C107	C	-0.485173	-0.128526	0.363163
C108	C	-0.151840	0.204807	0.696496
C109	C	-0.820216	-0.423738	0.092457
C110	C	-0.486883	-0.090404	0.425791
C111	C	-0.153549	0.242929	0.759124
C112	C	-0.821938	-0.461850	0.155087
C113	C	-0.488605	-0.128517	0.488420
C114	C	-0.155272	0.204816	0.821754
C115	C	-0.821941	-0.538077	0.155087
C116	C	-0.488608	-0.204743	0.488420
C117	C	-0.155275	0.128590	0.821753
C118	C	-0.820221	-0.576191	0.092452
C119	C	-0.486888	-0.242857	0.425785
C120	C	-0.153555	0.090476	0.759118
C121	C	-0.862202	-0.302963	0.134481
C122	C	-0.528869	0.030370	0.467814
C123	C	-0.195535	0.363703	0.801148
C124	C	-0.862190	-0.226734	0.134489
C125	C	-0.528856	0.106599	0.467823
C126	C	-0.195523	0.439932	0.801156
C127	C	-0.778203	-0.226759	0.050449
C128	C	-0.444870	0.106575	0.383782
C129	C	-0.111536	0.439908	0.717115
C130	C	-0.778211	-0.302987	0.050447
C131	C	-0.444878	0.030347	0.383780
C132	C	-0.111544	0.363680	0.717113
C133	C	-0.820214	-0.341084	0.092462
C134	C	-0.486881	-0.007751	0.425795
C135	C	-0.153548	0.325582	0.759128
C136	C	0.052779	0.000034	0.086996
C137	C	0.386112	0.333367	0.420329
C138	C	0.719445	0.666701	0.753662
C139	C	-0.024324	0.000026	0.088129
C140	C	0.309009	0.333359	0.421462
C141	C	0.642342	0.666692	0.754795
C142	C	-0.825686	0.000025	-0.034542
C143	C	-0.492353	0.333358	0.298792
C144	C	-0.159019	0.666691	0.632125
C145	C	-0.824559	0.000023	-0.111646
C146	C	-0.491226	0.333356	0.221688
C147	C	-0.157892	0.666689	0.555021
N148	N	-0.820236	0.188702	0.092455
N149	N	-0.486903	0.522035	0.425788
N150	N	-0.153569	0.855369	0.759121
C151	C	-0.824041	0.066034	-0.147858
C152	C	-0.490707	0.399367	0.185475
C153	C	-0.157374	0.732701	0.518808
C154	C	-0.822972	0.066039	-0.220304
C155	C	-0.489639	0.399373	0.113029
C156	C	-0.156305	0.732706	0.446362
C157	C	-0.822436	0.000030	-0.256537
C158	C	-0.489102	0.333363	0.076797
C159	C	-0.155769	0.666696	0.410130
C160	C	-0.822950	-0.065991	-0.220315
C161	C	-0.489617	0.267343	0.113019
C162	C	-0.156284	0.600676	0.446352
C163	C	-0.824012	-0.065994	-0.147869
C164	C	-0.490679	0.267339	0.185464
C165	C	-0.157345	0.600673	0.518797
C166	C	-0.861432	-0.050537	-0.376768
C167	C	-0.528098	0.282796	-0.043434
C168	C	-0.194765	0.616130	0.289899
C169	C	-0.860374	-0.050531	-0.449213
C170	C	-0.527041	0.282803	-0.115879
C171	C	-0.193708	0.616136	0.217454
C172	C	-0.819158	0.000038	-0.479982
C173	C	-0.485825	0.333371	-0.146649
C174	C	-0.152491	0.666704	0.186684
C175	C	-0.779008	0.050612	-0.438300
C176	C	-0.445675	0.383945	-0.104966
C177	C	-0.112341	0.717279	0.228367
C178	C	-0.780070	0.050608	-0.365854
C179	C	-0.446736	0.383942	-0.032521
C180	C	-0.113403	0.717275	0.300812
C181	C	-0.821284	0.000026	-0.335092
C182	C	-0.487951	0.333359	-0.001758
C183	C	-0.154617	0.666693	0.331575
C184	C	-0.817480	0.066059	-0.594749
C185	C	-0.484146	0.399393	-0.261416
C186	C	-0.150813	0.732726	0.071918
C187	C	-0.816407	0.066062	-0.667196
C188	C	-0.483073	0.399395	-0.333863
C189	C	-0.149740	0.732729	-0.000529
C190	C	-0.816392	-0.065970	-0.667206
C191	C	-0.483059	0.267364	-0.333873
C192	C	-0.149725	0.600697	-0.000539
C193	C	-0.817458	-0.065970	-0.594760
C194	C	-0.484125	0.267363	-0.261426
C195	C	-0.150791	0.600696	0.071907
C196	C	-0.818005	0.000046	-0.558536
C197	C	-0.484672	0.333380	-0.225203
C198	C	-0.151338	0.666713	0.108131
C199	C	-0.814742	0.000045	0.219473
C200	C	-0.481409	0.333378	0.552806
C201	C	-0.148076	0.666711	0.886140
C202	C	-0.815869	0.000052	0.296577
C203	C	-0.482536	0.333385	0.629910
C204	C	-0.149203	0.666718	0.963244
H205	H	-0.624764	0.000028	-0.018138
H206	H	-0.291431	0.333361	0.315195
H207	H	0.041902	0.666695	0.648529
H208	H	-0.374151	0.077003	0.181420
H209	H	-0.040817	0.410336	0.514753
H210	H	0.292516	0.743670	0.848087
H211	H	-0.896414	-0.665908	0.168689
H212	H	-0.563081	-0.332575	0.502023
H213	H	-0.229748	0.000759	0.835356
H214	H	-0.817921	0.119814	-0.565254
H215	H	-0.484588	0.453147	-0.231920
H216	H	-0.151254	0.786481	0.101413
H217	H	-0.397702	-0.076969	0.005451
H218	H	-0.064368	0.256364	0.338784
H219	H	0.268965	0.589697	0.672117
Cl220	Cl	-0.915002	-0.350861	0.187302
Cl221	Cl	-0.581669	-0.017528	0.520635
Cl222	Cl	-0.248335	0.315805	0.853968
Cl223	Cl	-0.253113	-0.095718	-0.018228
Cl224	Cl	0.080220	0.237616	0.315105
Cl225	Cl	0.413553	0.570949	0.648438
H226	H	-0.823330	-0.430813	0.206084
H227	H	-0.489997	-0.097480	0.539418
H228	H	-0.156664	0.235853	0.872751
H229	H	-0.745446	0.091790	-0.463350
H230	H	-0.412112	0.425123	-0.130017
H231	H	-0.078779	0.758456	0.203316
H232	H	-0.817886	-0.119724	-0.565276
H233	H	-0.484553	0.213609	-0.231942
H234	H	-0.151219	0.546943	0.101391
H235	H	-0.822512	-0.119736	-0.249820
H236	H	-0.489178	0.213597	0.083514
H237	H	-0.155845	0.546931	0.416847
Cl238	Cl	-0.729595	0.114181	-0.313455
Cl239	Cl	-0.396261	0.447514	0.019878
Cl240	Cl	-0.062928	0.780848	0.353211
H241	H	-0.896383	-0.195699	0.168706
H242	H	-0.563050	0.137635	0.502039
H243	H	-0.229716	0.470968	0.835372
Cl244	Cl	-0.197676	0.000025	-0.052496
Cl245	Cl	0.135658	0.333358	0.280837
Cl246	Cl	0.468991	0.666692	0.614171
H247	H	-0.822546	0.119795	-0.249794
H248	H	-0.489212	0.453129	0.083540
H249	H	-0.155879	0.786462	0.416873
Cl250	Cl	-0.159383	0.000021	0.233275
Cl251	Cl	0.173950	0.333355	0.566608
Cl252	Cl	0.507284	0.666688	0.899942
H253	H	-0.824484	0.119790	-0.118369
H254	H	-0.491151	0.453123	0.214964
H255	H	-0.157817	0.786456	0.548298
Cl256	Cl	-0.725421	-0.350911	-0.002376
Cl257	Cl	-0.392088	-0.017578	0.330958
Cl258	Cl	-0.058755	0.315756	0.664291
H259	H	-0.823342	-0.569105	0.206082
H260	H	-0.490008	-0.235771	0.539415
H261	H	-0.156675	0.097562	0.872749
Cl262	Cl	-0.913270	-0.114099	-0.338097
Cl263	Cl	-0.579937	0.219235	-0.004763
Cl264	Cl	-0.246604	0.552568	0.328570
H265	H	-0.815950	-0.119716	-0.696705
H266	H	-0.482617	0.213617	-0.363372
H267	H	-0.149283	0.546951	-0.030038
H268	H	-0.046446	0.000034	-0.026628
H269	H	0.286888	0.333367	0.306705
H270	H	0.620221	0.666701	0.640038
Cl271	Cl	-0.824663	-0.148987	-0.102342
Cl272	Cl	-0.491329	0.184347	0.230991
Cl273	Cl	-0.157996	0.517680	0.564324
Cl274	Cl	-0.725408	-0.178862	-0.002370
Cl275	Cl	-0.392075	0.154471	0.330963
Cl276	Cl	-0.058742	0.487805	0.664296
H277	H	-0.815981	0.119819	-0.696678
H278	H	-0.482648	0.453152	-0.363345
H279	H	-0.149314	0.786485	-0.030012
H280	H	-0.817109	-0.430834	-0.021167
H281	H	-0.483776	-0.097501	0.312166
H282	H	-0.150442	0.235832	0.645499
H283	H	-0.893069	-0.091709	-0.483146
H284	H	-0.559736	0.241625	-0.149812
H285	H	-0.226403	0.574958	0.183521
H286	H	-0.817106	-0.569117	-0.021171
H287	H	-0.483773	-0.235784	0.312163
H288	H	-0.150439	0.097550	0.645496
Cl289	Cl	0.004133	0.000025	0.230878
Cl290	Cl	0.337466	0.333359	0.564212
Cl291	Cl	0.670800	0.666692	0.897545
H292	H	-0.744039	-0.665944	0.016230
H293	H	-0.410706	-0.332610	0.349563
H294	H	-0.077372	0.000723	0.682896
H295	H	-0.744037	-0.804237	0.016227
H296	H	-0.410703	-0.470903	0.349560
H297	H	-0.077370	-0.137570	0.682894
H298	H	-0.493334	0.000023	-0.020068
H299	H	-0.160001	0.333356	0.313266
H300	H	0.173332	0.666689	0.646599
H301	H	-0.242718	0.077003	0.179493
H302	H	0.090615	0.410336	0.512827
H303	H	0.423948	0.743670	0.846160
H304	H	-0.896429	-0.804193	0.168681
H305	H	-0.563096	-0.470860	0.502014
H306	H	-0.229762	-0.137527	0.835348
H307	H	-0.593979	0.000036	0.211563
H308	H	-0.260646	0.333369	0.544896
H309	H	0.072688	0.666703	0.878229
Cl310	Cl	-0.442751	0.000019	0.237437
Cl311	Cl	-0.109418	0.333352	0.570770
Cl312	Cl	0.223916	0.666685	0.904103
