data_functionalizedCrystal
_audit_creation_method	'MofGen! by Chris Wilmer'
_symmetry_space_group_name_H-M	'P1'
_symmetry_Int_Tables_number	1
_symmetry_cell_setting	triclinic
loop_
_symmetry_equiv_pos_as_xyz
  x,y,z
_cell_length_a	17.699083
_cell_length_b	14.971486
_cell_length_c	14.048226
_cell_angle_alpha	90.006640
_cell_angle_beta	90.000433
_cell_angle_gamma	83.448572
loop_
_atom_site_label
_atom_site_type_symbol
_atom_site_fract_x
_atom_site_fract_y
_atom_site_fract_z
O1	O	-1.004356	-0.113112	-0.079028
O2	O	-0.784014	-0.127829	-0.079059
O3	O	-0.900091	0.009750	-0.079036
O4	O	-0.888279	-0.250691	-0.079051
O5	O	-0.900077	0.009758	0.079286
O6	O	-0.784000	-0.127820	0.079262
O7	O	-1.004342	-0.113104	0.079294
Zn8	Zn	-0.894169	-0.120461	0.104415
Zn9	Zn	-0.894187	-0.120472	-0.104180
O10	O	-0.888265	-0.250683	0.079270
C11	C	-0.755809	-0.127297	0.000098
C12	C	-0.671787	-0.125715	0.000086
C13	C	-0.899556	0.043077	0.000125
C14	C	-0.897973	0.142368	0.000124
C15	C	-1.032547	-0.113636	0.000135
C16	C	-1.116569	-0.115218	0.000140
C17	C	-0.623365	-0.206471	0.000082
C18	C	-0.544418	-0.204979	0.000094
C19	C	-0.513894	-0.122731	0.000104
C20	C	-0.562323	-0.041969	0.000111
C21	C	-0.641268	-0.043462	0.000106
C22	C	-0.243945	-0.035947	0.000135
C23	C	-0.164993	-0.034461	0.000138
C24	C	-0.147094	-0.197465	0.000124
C25	C	-0.226040	-0.198958	0.000118
C26	C	-0.274461	-0.118196	0.000130
C27	C	-0.360064	-0.119815	0.000119
C28	C	-0.428293	-0.121111	0.000109
C29	C	-0.888801	-0.284010	0.000108
C30	C	-0.890383	-0.383301	0.000103
N31	N	-0.894162	-0.120453	0.246776
C32	C	-0.966165	0.199828	0.000134
C33	C	-0.964673	0.293123	0.000124
C34	C	-0.894988	0.328955	0.000111
C35	C	-0.826791	0.271488	0.000098
C36	C	-0.828284	0.178196	0.000101
C37	C	-0.823685	0.465940	0.000094
C38	C	-0.822192	0.559239	0.000093
C39	C	-0.960074	0.580867	0.000117
C40	C	-0.961566	0.487574	0.000120
C41	C	-0.893369	0.430114	0.000109
N42	N	-0.894200	-0.120472	-0.246541
C43	C	-0.945577	-0.059559	0.296604
C44	C	-0.945582	-0.059558	0.396262
C45	C	-0.894175	-0.120457	0.446089
C46	C	-0.842755	-0.181355	0.396254
C47	C	-0.842746	-0.181350	0.296598
C48	C	-0.842776	-0.181361	0.603968
C49	C	-0.842785	-0.181367	0.703631
C50	C	-0.945612	-0.059569	0.703632
C51	C	-0.945604	-0.059565	0.603976
C52	C	-0.894184	-0.120464	0.554148
H53	H	-0.648210	-0.273447	0.000073
H54	H	-0.765448	0.588411	0.000097
O55	O	-0.995464	-0.000196	0.555724
C56	C	-1.039602	0.155491	0.525640
C57	C	-0.983084	0.088293	0.580255
H58	H	-1.029624	0.227049	0.545469
H59	H	-1.030844	0.145244	0.445814
H60	H	-1.100224	0.143917	0.545257
H61	H	-0.922439	0.099826	0.560718
H62	H	-0.991909	0.098556	0.660069
H63	H	-0.987479	-0.009983	0.744208
H64	H	-0.250887	-0.265933	0.000105
H65	H	-0.987447	-0.009973	0.436832
O66	O	-0.497489	-0.283508	0.000046
C67	C	-0.488066	-0.445349	0.000085
C68	C	-0.541299	-0.356478	0.000114
H69	H	-0.523465	-0.504368	0.000159
H70	H	-0.450666	-0.448790	-0.066183
H71	H	-0.450648	-0.448676	0.066332
H72	H	-0.578764	-0.353092	-0.066088
H73	H	-0.578647	-0.353075	0.066425
H74	H	-0.987441	-0.009971	0.256041
O75	O	-0.792766	-0.240544	0.751888
C76	C	-0.690780	-0.361358	0.741376
C77	C	-0.747379	-0.294380	0.686607
H78	H	-0.654081	-0.404914	0.688621
H79	H	-0.652903	-0.322824	0.788014
H80	H	-0.723500	-0.405964	0.788051
H81	H	-0.714721	-0.249757	0.639881
H82	H	-0.785256	-0.332970	0.640029
O83	O	-0.792932	-0.240555	0.555457
C84	C	-0.776924	-0.362768	0.442966
C85	C	-0.833449	-0.295767	0.497828
H86	H	-0.809659	-0.407437	0.396374
H87	H	-0.739089	-0.324253	0.396257
H88	H	-0.740169	-0.406259	0.495712
H89	H	-0.870254	-0.252260	0.445151
H90	H	-0.871231	-0.334337	0.544551
O91	O	-0.761972	0.122504	0.000133
C92	C	-0.625054	0.110892	0.000044
C93	C	-0.700097	0.174064	0.000037
H94	H	-0.575009	0.152552	-0.000054
H95	H	-0.622244	0.066695	0.066314
H96	H	-0.622358	0.066651	-0.066200
H97	H	-0.702844	0.218360	0.066236
H98	H	-0.702877	0.218200	-0.066278
H99	H	-1.015603	0.627656	0.000124
O100	O	-0.100087	-0.275943	-0.000047
C101	C	-0.060662	-0.414835	-0.082056
C102	C	-0.113925	-0.325987	-0.081987
H103	H	-0.071842	-0.455329	-0.148287
H104	H	0.001021	-0.399699	-0.082108
H105	H	-0.071770	-0.455283	-0.015776
H106	H	-0.102884	-0.285496	-0.148256
H107	H	-0.175590	-0.341187	-0.081886
O108	O	-0.792711	-0.240421	0.444613
C109	C	-0.661162	-0.293056	0.475077
C110	C	-0.717752	-0.226099	0.420270
H111	H	-0.600545	-0.281513	0.455400
H112	H	-0.669935	-0.282600	0.554874
H113	H	-0.671119	-0.364676	0.455480
H114	H	-0.707829	-0.154452	0.439786
H115	H	-0.708965	-0.236633	0.340486
O116	O	-0.135468	0.045518	0.000196
C117	C	-0.161548	0.207045	0.000166
C118	C	-0.195087	0.116540	0.000125
H119	H	-0.209734	0.264490	0.000088
H120	H	-0.125062	0.211874	0.066440
H121	H	-0.125009	0.211769	-0.066075
H122	H	-0.231661	0.111755	0.066320
H123	H	-0.231530	0.111750	-0.066193
O124	O	-0.757368	0.410249	0.000123
C125	C	-0.620450	0.398637	0.000044
C126	C	-0.695494	0.461809	0.000029
H127	H	-0.570406	0.440298	-0.000052
H128	H	-0.617643	0.354443	0.066317
H129	H	-0.617751	0.354394	-0.066197
H130	H	-0.698243	0.506108	0.066226
H131	H	-0.698269	0.505942	-0.066288
O132	O	-1.030966	0.348844	0.000012
C133	C	-1.148351	0.395892	-0.082011
C134	C	-1.073306	0.332725	-0.081990
H135	H	-1.182597	0.382895	-0.148312
H136	H	-1.182682	0.382880	-0.015788
H137	H	-1.135304	0.468721	-0.081973
H138	H	-1.086285	0.259874	-0.082061
H139	H	-1.038997	0.345815	-0.148206
O140	O	-0.792879	-0.240629	0.248234
C141	C	-0.748629	-0.396223	0.217760
C142	C	-0.805162	-0.329191	0.272573
H143	H	-0.758529	-0.467839	0.237433
H144	H	-0.757450	-0.385836	0.137964
H145	H	-0.688010	-0.384609	0.237356
H146	H	-0.865802	-0.340763	0.253057
H147	H	-0.796274	-0.339594	0.352356
H148	H	-1.022910	0.170661	0.000151
H149	H	-0.537465	0.024999	0.000133
O150	O	-0.291049	0.042444	0.000009
C151	C	-0.390525	0.135395	-0.082048
C152	C	-0.337234	0.046568	-0.082009
H153	H	-0.427868	0.138767	-0.148362
H154	H	-0.427989	0.138798	-0.015839
H155	H	-0.355126	0.194415	-0.082000
H156	H	-0.372573	-0.012501	-0.082090
H157	H	-0.299767	0.043244	-0.148213
O158	O	-1.029237	0.452720	0.000302
C159	C	-1.110907	0.359898	0.082306
C160	C	-1.034252	0.399329	0.082234
H161	H	-1.114980	0.316708	0.148531
H162	H	-1.159426	0.416953	0.082372
H163	H	-1.115042	0.316792	0.016020
H164	H	-1.030042	0.442425	0.148509
H165	H	-0.985770	0.342231	0.082119
H166	H	-0.680693	0.022298	0.000109
H167	H	-0.770052	0.300671	0.000081
