data_functionalizedCrystal
_audit_creation_method	'MofGen! by Chris Wilmer'
_symmetry_space_group_name_H-M	'P1'
_symmetry_Int_Tables_number	1
_symmetry_cell_setting	triclinic
loop_
_symmetry_equiv_pos_as_xyz
  x,y,z
_cell_length_a	15.711784
_cell_length_b	15.538191
_cell_length_c	9.482900
_cell_angle_alpha	95.622696
_cell_angle_beta	77.889480
_cell_angle_gamma	83.430448
loop_
_atom_site_label
_atom_site_type_symbol
_atom_site_fract_x
_atom_site_fract_y
_atom_site_fract_z
O1	O	1.016985	0.457126	-0.120900
O2	O	0.785630	0.392395	-0.120898
O3	O	0.946344	0.303150	-0.120906
O4	O	0.856271	0.546371	-0.120892
O5	O	0.913666	0.321384	0.120888
O6	O	0.752952	0.410629	0.120897
O7	O	0.984307	0.475360	0.120894
Cu8	Cu	0.865646	0.444660	0.142973
Cu9	Cu	0.904291	0.423095	-0.142977
O10	O	0.823594	0.564606	0.120903
C11	C	0.740405	0.390938	-0.000000
C12	C	0.654335	0.359420	0.000000
C13	C	0.566616	0.240766	-0.000006
C14	C	0.647488	0.270390	-0.000005
C15	C	0.580308	0.418860	-0.000002
C16	C	0.499430	0.389248	-0.000010
C17	C	0.492592	0.300200	-0.000010
C18	C	0.425405	0.448682	-0.000014
C19	C	0.344533	0.419072	-0.000013
C20	C	0.337686	0.330028	-0.000009
C21	C	0.411720	0.270590	-0.000009
C22	C	0.432243	0.537730	-0.000003
C23	C	0.358219	0.597165	-0.000007
C24	C	0.277347	0.567554	-0.000017
C25	C	0.270500	0.478510	-0.000013
C26	C	0.203313	0.626992	-0.000017
C27	C	0.122442	0.597382	-0.000017
C28	C	0.189628	0.448900	-0.000013
C29	C	0.939429	0.280418	-0.000014
C30	C	0.967501	0.185516	-0.000029
C31	C	0.688627	-0.198370	0.000006
C32	C	0.715023	-0.287540	0.000009
C33	C	0.863493	-0.258820	0.000006
C34	C	0.837111	-0.169646	-0.000004
C35	C	0.749677	-0.139429	-0.000003
C36	C	0.898161	-0.110705	-0.000012
C37	C	0.871780	-0.021539	-0.000015
C38	C	0.784349	0.008686	-0.000009
C39	C	0.723296	-0.050263	-0.000005
C40	C	0.985593	-0.140924	-0.000003
C41	C	1.046643	-0.081983	-0.000011
C42	C	1.020264	0.007184	-0.000024
C43	C	0.932833	0.037409	-0.000018
C44	C	1.081317	0.066133	-0.000028
C45	C	1.054935	0.155299	-0.000031
C46	C	0.906451	0.126575	-0.000021
C47	C	1.029533	0.476817	-0.000007
C48	C	1.115604	0.508334	-0.000017
C49	C	0.830509	0.587337	0.000007
C50	C	0.802438	0.682238	0.000013
N51	N	0.838471	0.459828	0.344095
N52	N	0.931475	0.407922	-0.344098
C53	C	0.896272	0.427563	0.416291
C54	C	0.873665	0.440192	0.583709
H55	H	0.208893	0.699496	-0.000002
O56	O	1.120784	0.218873	-0.000055
H57	H	1.099004	0.267616	0.098501
O58	O	0.812147	0.159174	-0.000028
H59	H	0.783261	0.206550	0.098519
O60	O	0.983983	0.378575	0.333978
H61	H	1.037588	0.412395	0.363068
H62	H	1.007072	-0.213531	-0.000015
O63	O	0.042594	0.661479	-0.000031
H64	H	0.060938	0.728372	-0.000049
H65	H	0.997699	0.370943	0.593773
H66	H	0.406156	0.198077	-0.000025
O67	O	0.785940	0.489175	0.665987
H68	H	0.781953	0.491415	0.784572
H69	H	0.772247	0.496797	0.406228
H70	H	1.117831	-0.106598	-0.000007
H71	H	0.184064	0.376387	-0.000028
H72	H	0.271832	0.305921	0.000005
H73	H	0.707762	0.221984	-0.000007
O74	O	0.559229	0.144720	-0.000007
H75	H	0.624289	0.108361	-0.000000
H76	H	0.934682	-0.283435	0.000011
O77	O	0.587685	0.514903	-0.000007
H78	H	0.656357	0.525509	-0.000015
O79	O	0.594321	-0.165772	0.000010
H80	H	0.592070	-0.133272	-0.098545
H81	H	0.762870	0.081292	-0.000002
H82	H	0.652100	-0.025660	-0.000015
O83	O	0.649175	-0.351118	0.000004
H84	H	0.583948	-0.315123	-0.000007
O85	O	1.175615	0.033540	-0.000012
H86	H	1.183703	-0.038365	-0.000008
O87	O	0.519466	0.569676	0.000001
H88	H	0.568610	0.538014	-0.098561
H89	H	0.363798	0.669669	-0.000002
