data_functionalizedCrystal
_audit_creation_method	'MofGen! by Chris Wilmer'
_symmetry_space_group_name_H-M	'P1'
_symmetry_Int_Tables_number	1
_symmetry_cell_setting	triclinic
loop_
_symmetry_equiv_pos_as_xyz
  x,y,z
_cell_length_a	18.050591
_cell_length_b	18.215405
_cell_length_c	18.215399
_cell_angle_alpha	90.032960
_cell_angle_beta	89.977309
_cell_angle_gamma	89.979109
loop_
_atom_site_label
_atom_site_type_symbol
_atom_site_fract_x
_atom_site_fract_y
_atom_site_fract_z
Zn1	Zn	1.135323	0.293053	-0.416218
Zn2	Zn	1.385323	0.543053	-0.166218
Zn3	Zn	1.635323	0.793053	0.083782
Zn4	Zn	1.885323	1.043053	0.333782
Zn5	Zn	1.135237	0.416129	-0.293146
Zn6	Zn	1.385237	0.666129	-0.043146
Zn7	Zn	1.635237	0.916129	0.206854
Zn8	Zn	1.885237	1.166129	0.456854
Zn9	Zn	1.011138	0.293072	-0.293152
Zn10	Zn	1.261138	0.543072	-0.043152
Zn11	Zn	1.511138	0.793072	0.206848
Zn12	Zn	1.761138	1.043072	0.456848
Zn13	Zn	1.011097	0.416073	-0.416158
Zn14	Zn	1.261097	0.666073	-0.166158
Zn15	Zn	1.511097	0.916073	0.083842
Zn16	Zn	1.761097	1.166073	0.333842
O17	O	1.073199	0.354582	-0.354669
O18	O	1.323199	0.604582	-0.104669
O19	O	1.573199	0.854582	0.145331
O20	O	1.823199	1.104582	0.395331
O21	O	1.239236	0.309394	-0.399914
O22	O	1.489236	0.559394	-0.149914
O23	O	1.739236	0.809394	0.100086
O24	O	1.989236	1.059394	0.350086
O25	O	1.118756	0.399837	-0.190162
O26	O	1.368756	0.649837	0.059838
O27	O	1.618756	0.899837	0.309838
O28	O	1.868756	1.149837	0.559838
O29	O	1.027665	0.190086	-0.309505
O30	O	1.277665	0.440086	-0.059505
O31	O	1.527665	0.690086	0.190495
O32	O	1.777665	0.940086	0.440495
O33	O	1.239173	0.399818	-0.309494
O34	O	1.489173	0.649818	-0.059494
O35	O	1.739173	0.899818	0.190506
O36	O	1.989173	1.149818	0.440506
O37	O	1.118902	0.190071	-0.399921
O38	O	1.368902	0.440071	-0.149921
O39	O	1.618902	0.690071	0.100079
O40	O	1.868902	0.940071	0.350079
O41	O	1.027581	0.309428	-0.190167
O42	O	1.277581	0.559428	0.059833
O43	O	1.527581	0.809428	0.309833
O44	O	1.777581	1.059428	0.559833
O45	O	0.907208	0.309374	-0.309447
O46	O	1.157208	0.559374	-0.059447
O47	O	1.407208	0.809374	0.190553
O48	O	1.657208	1.059374	0.440553
O49	O	1.027595	0.399723	-0.519150
O50	O	1.277595	0.649723	-0.269150
O51	O	1.527595	0.899723	-0.019150
O52	O	1.777595	1.149723	0.230850
O53	O	0.907178	0.399742	-0.399819
O54	O	1.157178	0.649742	-0.149819
O55	O	1.407178	0.899742	0.100181
O56	O	1.657178	1.149742	0.350181
O57	O	1.118863	0.309340	-0.519194
O58	O	1.368863	0.559340	-0.269194
O59	O	1.618863	0.809340	-0.019194
O60	O	1.868863	1.059340	0.230806
O61	O	1.118716	0.519106	-0.309436
O62	O	1.368716	0.769106	-0.059436
O63	O	1.618716	1.019106	0.190564
O64	O	1.868716	1.269106	0.440564
O65	O	1.027511	0.519065	-0.399813
O66	O	1.277511	0.769065	-0.149813
O67	O	1.527511	1.019065	0.100187
O68	O	1.777511	1.269065	0.350187
C69	C	0.880247	0.354555	-0.354628
C70	C	1.130247	0.604555	-0.104628
C71	C	1.380247	0.854555	0.145372
C72	C	1.630247	1.104555	0.395372
C73	C	0.797701	0.354561	-0.354628
C74	C	1.047701	0.604561	-0.104628
C75	C	1.297701	0.854561	0.145372
C76	C	1.547701	1.104561	0.395372
C77	C	1.073120	0.545788	-0.354633
C78	C	1.323120	0.795788	-0.104633
C79	C	1.573120	1.045788	0.145367
C80	C	1.823120	1.295788	0.395367
C81	C	1.073155	0.627587	-0.354643
C82	C	1.323155	0.877587	-0.104643
C83	C	1.573155	1.127587	0.145357
C84	C	1.823155	1.377587	0.395357
C85	C	1.073234	0.354523	-0.546622
C86	C	1.323234	0.604523	-0.296622
C87	C	1.573234	0.854523	-0.046622
C88	C	1.823234	1.104523	0.203378
C89	C	1.073249	0.354498	-0.628420
C90	C	1.323249	0.604498	-0.378420
C91	C	1.573249	0.854498	-0.128420
C92	C	1.823249	1.104498	0.121580
C93	C	0.598245	0.305361	-0.305597
C94	C	0.848245	0.555361	-0.055597
C95	C	1.098245	0.805361	0.194403
C96	C	1.348245	1.055361	0.444403
C97	C	0.548829	0.372487	-0.287483
C98	C	0.798829	0.622487	-0.037483
C99	C	1.048829	0.872487	0.212517
C100	C	1.298829	1.122487	0.462517
C101	C	0.646570	0.354583	-0.354661
C102	C	0.896570	0.604583	-0.104661
C103	C	1.146570	0.854583	0.145339
C104	C	1.396570	1.104583	0.395339
C105	C	0.548905	0.287481	-0.372773
C106	C	0.798905	0.537481	-0.122773
C107	C	1.048905	0.787481	0.127227
C108	C	1.298905	1.037481	0.377227
C109	C	0.500585	0.354599	-0.354692
C110	C	0.750585	0.604599	-0.104692
C111	C	1.000585	0.854599	0.145308
C112	C	1.250585	1.104599	0.395308
C113	C	0.598241	0.421744	-0.336512
C114	C	0.848241	0.671744	-0.086512
C115	C	1.098241	0.921744	0.163488
C116	C	1.348241	1.171744	0.413488
C117	C	0.598322	0.336692	-0.421833
C118	C	0.848322	0.586692	-0.171833
C119	C	1.098322	0.836692	0.078167
C120	C	1.348322	1.086692	0.328167
C121	C	0.548928	0.403864	-0.403745
C122	C	0.798928	0.653864	-0.153745
C123	C	1.048928	0.903864	0.096255
C124	C	1.298928	1.153864	0.346255
C125	C	0.730669	0.354573	-0.354642
C126	C	0.980669	0.604573	-0.104642
C127	C	1.230669	0.854573	0.145358
C128	C	1.480669	1.104573	0.395358
C129	C	0.416489	0.354616	-0.354712
C130	C	0.666489	0.604616	-0.104712
C131	C	0.916489	0.854616	0.145288
C132	C	1.166489	1.104616	0.395288
C133	C	1.266904	0.354610	-0.354710
C134	C	1.516904	0.604610	-0.104710
C135	C	1.766904	0.854610	0.145290
C136	C	2.016904	1.104610	0.395290
C137	C	1.349450	0.354622	-0.354727
C138	C	1.599450	0.604622	-0.104727
C139	C	1.849450	0.854622	0.145273
C140	C	2.099450	1.104622	0.395273
C141	C	1.073298	0.162629	-0.354720
C142	C	1.323298	0.412629	-0.104720
C143	C	1.573298	0.662629	0.145280
C144	C	1.823298	0.912629	0.395280
C145	C	1.073340	0.080830	-0.354742
C146	C	1.323340	0.330830	-0.104742
C147	C	1.573340	0.580830	0.145258
C148	C	1.823340	0.830830	0.395258
C149	C	1.120757	0.815778	-0.307670
C150	C	1.370757	1.065778	-0.057670
C151	C	1.620757	1.315778	0.192330
C152	C	1.870757	1.565778	0.442330
C153	C	1.120790	0.892637	-0.307688
C154	C	1.370790	1.142637	-0.057688
C155	C	1.620790	1.392637	0.192312
C156	C	1.870790	1.642637	0.442312
C157	C	1.025736	0.892634	-0.401720
C158	C	1.275736	1.142634	-0.151720
C159	C	1.525736	1.392634	0.098280
C160	C	1.775736	1.642634	0.348280
C161	C	1.025707	0.815777	-0.401705
C162	C	1.275707	1.065777	-0.151705
C163	C	1.525707	1.315777	0.098295
C164	C	1.775707	1.565777	0.348295
C165	C	1.073216	0.777351	-0.354676
C166	C	1.323216	1.027351	-0.104676
C167	C	1.573216	1.277351	0.145324
C168	C	1.823216	1.527351	0.395324
C169	C	1.073278	0.931067	-0.354709
C170	C	1.323278	1.181067	-0.104709
C171	C	1.573278	1.431067	0.145291
C172	C	1.823278	1.681067	0.395291
C173	C	1.073314	1.014400	-0.354728
C174	C	1.323314	1.264400	-0.104728
C175	C	1.573314	1.514400	0.145272
C176	C	1.823314	1.764400	0.395272
C177	C	1.073182	0.694012	-0.354657
C178	C	1.323182	0.944012	-0.104657
C179	C	1.573182	1.194012	0.145343
C180	C	1.823182	1.444012	0.395343
C181	C	1.025814	0.307390	-0.816618
C182	C	1.275814	0.557390	-0.566618
C183	C	1.525814	0.807390	-0.316618
C184	C	1.775814	1.057390	-0.066618
C185	C	1.025827	0.307375	-0.893477
C186	C	1.275827	0.557375	-0.643477
C187	C	1.525827	0.807375	-0.393477
C188	C	1.775827	1.057375	-0.143477
C189	C	1.120772	0.401518	-0.893461
C190	C	1.370772	0.651518	-0.643461
C191	C	1.620772	0.901518	-0.393461
C192	C	1.870772	1.151518	-0.143461
C193	C	1.120755	0.401536	-0.816604
C194	C	1.370755	0.651536	-0.566604
C195	C	1.620755	0.901536	-0.316604
C196	C	1.870755	1.151536	-0.066604
C197	C	1.073277	0.354468	-0.778184
C198	C	1.323277	0.604468	-0.528184
C199	C	1.573277	0.854468	-0.278184
C200	C	1.823277	1.104468	-0.028184
C201	C	1.073307	0.354435	-0.931900
C202	C	1.323307	0.604435	-0.681900
C203	C	1.573307	0.854435	-0.431900
C204	C	1.823307	1.104435	-0.181900
C205	C	1.073321	0.354419	-1.015234
C206	C	1.323321	0.604419	-0.765234
C207	C	1.573321	0.854419	-0.515234
C208	C	1.823321	1.104419	-0.265234
C209	C	1.073262	0.354485	-0.694845
C210	C	1.323262	0.604485	-0.444845
C211	C	1.573262	0.854485	-0.194845
C212	C	1.823262	1.104485	0.055155
C213	C	1.073206	0.354587	-0.163462
C214	C	1.323206	0.604587	0.086538
C215	C	1.573206	0.854587	0.336538
C216	C	1.823206	1.104587	0.586538
C217	C	1.073335	0.354405	-0.081664
C218	C	1.323335	0.604405	0.168336
C219	C	1.573335	0.854405	0.418336
C220	C	1.823335	1.104405	0.668336
H221	H	0.619899	0.263781	-0.264060
H222	H	0.869899	0.513781	-0.014060
H223	H	1.119899	0.763781	0.235940
H224	H	1.369899	1.013781	0.485940
C225	C	1.173022	0.773512	-0.255941
C226	C	1.423022	1.023512	-0.005941
C227	C	1.673022	1.273512	0.244059
C228	C	1.923022	1.523512	0.494059
N229	N	1.212392	0.741679	-0.216979
N230	N	1.462392	0.991679	0.033021
N231	N	1.712392	1.241679	0.283021
N232	N	1.962392	1.491679	0.533021
H233	H	0.527090	0.387630	-0.230690
H234	H	0.777090	0.637630	0.019310
H235	H	1.027090	0.887630	0.269310
H236	H	1.277090	1.137630	0.519310
H237	H	0.986994	0.784487	-0.439987
H238	H	1.236994	1.034487	-0.189987
H239	H	1.486994	1.284487	0.060013
H240	H	1.736994	1.534487	0.310013
C241	C	0.627394	0.498437	-0.315740
C242	C	0.877394	0.748437	-0.065740
C243	C	1.127394	0.998437	0.184260
C244	C	1.377394	1.248437	0.434260
N245	N	0.649354	0.556200	-0.300091
N246	N	0.899354	0.806200	-0.050091
N247	N	1.149354	1.056200	0.199909
N248	N	1.399354	1.306200	0.449909
H249	H	0.987154	0.269064	-0.785339
H250	H	1.237154	0.519064	-0.535339
H251	H	1.487154	0.769064	-0.285339
H252	H	1.737154	1.019064	-0.035339
H253	H	1.159407	0.439875	-0.785310
H254	H	1.409407	0.689875	-0.535310
H255	H	1.659407	0.939875	-0.285310
H256	H	1.909407	1.189875	-0.035310
C257	C	0.519630	0.210808	-0.393455
C258	C	0.769630	0.460808	-0.143455
C259	C	1.019630	0.710808	0.106545
C260	C	1.269630	0.960808	0.356545
N261	N	0.497584	0.153057	-0.409027
N262	N	0.747584	0.403057	-0.159027
N263	N	0.997584	0.653057	0.090973
N264	N	1.247584	0.903057	0.340973
H265	H	0.987177	0.269041	-0.924766
H266	H	1.237177	0.519041	-0.674766
H267	H	1.487177	0.769041	-0.424766
H268	H	1.737177	1.019041	-0.174766
H269	H	0.527410	0.445544	-0.445250
H270	H	0.777410	0.695544	-0.195250
H271	H	1.027410	0.945544	0.054750
H272	H	1.277410	1.195544	0.304750
H273	H	1.159427	0.439839	-0.924751
H274	H	1.409427	0.689839	-0.674751
H275	H	1.659427	0.939839	-0.424751
H276	H	1.909427	1.189839	-0.174751
C277	C	0.627722	0.316203	-0.498533
C278	C	0.877722	0.566203	-0.248533
C279	C	1.127722	0.816203	0.001467
C280	C	1.377722	1.066203	0.251467
N281	N	0.649870	0.300761	-0.556303
N282	N	0.899870	0.550761	-0.306303
N283	N	1.149870	0.800761	-0.056303
N284	N	1.399870	1.050761	0.193697
H285	H	1.159503	0.923921	-0.269412
H286	H	1.409503	1.173921	-0.019412
H287	H	1.659503	1.423921	0.230588
H288	H	1.909503	1.673921	0.480588
C289	C	0.973470	0.934910	-0.453441
C290	C	1.223470	1.184910	-0.203441
C291	C	1.473470	1.434910	0.046559
C292	C	1.723470	1.684910	0.296559
N293	N	0.934099	0.966751	-0.492395
N294	N	1.184099	1.216751	-0.242395
N295	N	1.434099	1.466751	0.007605
N296	N	1.684099	1.716751	0.257605
