data_functionalizedCrystal
_audit_creation_method	'MofGen! by Chris Wilmer'
_symmetry_space_group_name_H-M	'P1'
_symmetry_Int_Tables_number	1
_symmetry_cell_setting	triclinic
loop_
_symmetry_equiv_pos_as_xyz
  x,y,z
_cell_length_a	12.759395
_cell_length_b	21.395361
_cell_length_c	21.395355
_cell_angle_alpha	89.978489
_cell_angle_beta	89.978919
_cell_angle_gamma	90.030554
loop_
_atom_site_label
_atom_site_type_symbol
_atom_site_fract_x
_atom_site_fract_y
_atom_site_fract_z
Zn1	Zn	1.606169	-0.249514	-0.354190
Zn2	Zn	2.106169	0.250486	0.145810
Zn3	Zn	1.606005	-0.354274	-0.249407
Zn4	Zn	2.106005	0.145726	0.250593
Zn5	Zn	1.430462	-0.249514	-0.249433
Zn6	Zn	1.930462	0.250486	0.250567
Zn7	Zn	1.430410	-0.354257	-0.354154
Zn8	Zn	1.930410	0.145743	0.145846
O9	O	1.518262	-0.301889	-0.301796
O10	O	2.018262	0.198111	0.198204
O11	O	1.753168	-0.263417	-0.340295
O12	O	2.253168	0.236583	0.159705
O13	O	1.582672	-0.340384	-0.161733
O14	O	2.082672	0.159616	0.338267
O15	O	1.453860	-0.161836	-0.263356
O16	O	1.953860	0.338164	0.236644
O17	O	1.753048	-0.340384	-0.263311
O18	O	2.253048	0.159616	0.236689
O19	O	1.582951	-0.161836	-0.340320
O20	O	2.082951	0.338164	0.159680
O21	O	1.453701	-0.263417	-0.161752
O22	O	1.953701	0.236583	0.338248
O23	O	1.283434	-0.263401	-0.263320
O24	O	1.783434	0.236599	0.236680
O25	O	1.453772	-0.340356	-0.441837
O26	O	1.953772	0.159644	0.058163
O27	O	1.283396	-0.340356	-0.340258
O28	O	1.783396	0.159644	0.159742
O29	O	1.582901	-0.263401	-0.441863
O30	O	2.082901	0.236599	0.058137
O31	O	1.582622	-0.441949	-0.263276
O32	O	2.082622	0.058051	0.236724
O33	O	1.453613	-0.441937	-0.340233
O34	O	1.953613	0.058063	0.159767
C35	C	1.245294	-0.301877	-0.301789
C36	C	1.745294	0.198123	0.198211
C37	C	1.128517	-0.301887	-0.301800
C38	C	1.628517	0.198113	0.198200
C39	C	1.518123	-0.464677	-0.301761
C40	C	2.018123	0.035323	0.198239
C41	C	1.518160	-0.534318	-0.301767
C42	C	2.018160	-0.034318	0.198233
C43	C	1.585394	-0.567017	-0.261737
C44	C	2.085394	-0.067017	0.238263
C45	C	1.585443	-0.632452	-0.261751
C46	C	2.085443	-0.132452	0.238249
C47	C	1.518239	-0.665187	-0.301789
C48	C	2.018239	-0.165187	0.198211
C49	C	1.450999	-0.632480	-0.341827
C50	C	1.950999	-0.132480	0.158173
C51	C	1.450960	-0.567046	-0.341816
C52	C	1.950960	-0.067046	0.158184
C53	C	1.423641	-0.768902	-0.306702
C54	C	1.923641	-0.268902	0.193298
C55	C	1.423678	-0.834335	-0.306709
C56	C	1.923678	-0.334335	0.193291
C57	C	1.518361	-0.867007	-0.301826
C58	C	2.018361	-0.367007	0.198174
C59	C	1.613009	-0.834239	-0.296923
C60	C	2.113009	-0.334239	0.203077
C61	C	1.612969	-0.768805	-0.296912
C62	C	2.112969	-0.268805	0.203088
C63	C	1.518274	-0.736139	-0.301805
C64	C	2.018274	-0.236139	0.198195
C65	C	1.585654	-0.970659	-0.261808
C66	C	2.085654	-0.470659	0.238192
C67	C	1.585705	-1.036095	-0.261827
C68	C	2.085705	-0.536095	0.238173
C69	C	1.451252	-1.036122	-0.341899
C70	C	1.951252	-0.536122	0.158101
C71	C	1.451211	-0.970686	-0.341884
C72	C	1.951211	-0.470686	0.158116
C73	C	1.518410	-0.937959	-0.301835
C74	C	2.018410	-0.437959	0.198165
C75	C	1.128623	-0.221871	-0.382093
C76	C	1.628623	0.278129	0.117907
C77	C	1.073815	-0.181871	-0.422244
C78	C	1.573815	0.318129	0.077756
C79	C	0.964094	-0.181882	-0.422252
C80	C	1.464094	0.318118	0.077748
C81	C	0.909177	-0.221896	-0.382103
C82	C	1.409177	0.278104	0.117897
C83	C	0.963985	-0.261897	-0.341951
C84	C	1.463985	0.238103	0.158049
C85	C	1.073709	-0.261882	-0.341949
C86	C	1.573709	0.238118	0.158051
C87	C	0.963880	-0.341908	-0.261657
C88	C	1.463880	0.158092	0.238343
C89	C	1.073601	-0.341901	-0.261651
C90	C	1.573601	0.158099	0.238349
C91	C	0.908963	-0.381923	-0.221507
C92	C	1.408963	0.118077	0.278493
C93	C	0.963771	-0.421927	-0.181358
C94	C	1.463771	0.078073	0.318642
C95	C	1.073500	-0.421915	-0.181353
C96	C	1.573500	0.078085	0.318647
C97	C	1.128409	-0.381901	-0.221500
C98	C	1.628409	0.118099	0.278500
C99	C	1.792295	-0.301902	-0.301804
C100	C	2.292295	0.198098	0.198196
C101	C	1.909072	-0.301908	-0.301808
C102	C	2.409072	0.198092	0.198192
C103	C	1.518349	-0.301877	-0.465220
C104	C	2.018349	0.198123	0.034780
C105	C	1.518386	-0.301871	-0.534861
C106	C	2.018386	0.198129	-0.034861
C107	C	1.518429	-0.138466	-0.301845
C108	C	2.018429	0.361534	0.198155
C109	C	1.518501	-0.068825	-0.301866
C110	C	2.018501	0.431175	0.198134
C111	C	1.585621	-0.261799	-0.567589
C112	C	2.085621	0.238201	-0.067589
C113	C	1.585619	-0.261773	-0.633024
C114	C	2.085619	0.238227	-0.133024
C115	C	1.518394	-0.301829	-0.665729
C116	C	2.018394	0.198171	-0.165729
C117	C	1.451146	-0.341903	-0.632993
C118	C	1.951146	0.158097	-0.132993
C119	C	1.451142	-0.341925	-0.567559
C120	C	1.951142	0.158075	-0.067559
C121	C	1.510050	-0.358244	-0.769392
C122	C	2.010050	0.141756	-0.269392
C123	C	1.510062	-0.358224	-0.834825
C124	C	2.010062	0.141776	-0.334825
C125	C	1.518401	-0.301762	-0.867550
C126	C	2.018401	0.198238	-0.367550
C127	C	1.526750	-0.245320	-0.834834
C128	C	2.026750	0.254680	-0.334834
C129	C	1.526746	-0.245341	-0.769400
C130	C	2.026746	0.254659	-0.269400
C131	C	1.518391	-0.301810	-0.736682
C132	C	2.018391	0.198190	-0.236682
C133	C	1.585637	-0.261658	-0.971231
C134	C	2.085637	0.238342	-0.471231
C135	C	1.585629	-0.261630	-1.036667
C136	C	2.085629	0.238370	-0.536667
C137	C	1.451161	-0.341766	-1.036635
C138	C	1.951161	0.158234	-0.536635
C139	C	1.451165	-0.341789	-0.971200
C140	C	1.951165	0.158211	-0.471200
C141	C	1.518408	-0.301735	-0.938501
C142	C	2.018408	0.198265	-0.438501
C143	C	1.518235	-0.301857	-0.139009
C144	C	2.018235	0.198143	0.360991
C145	C	1.518402	-0.301686	-0.069368
C146	C	2.018402	0.198314	0.430632
H147	H	1.640115	-0.540372	-0.229128
H148	H	2.140115	-0.040372	0.270872
O149	O	1.133050	-0.138716	-0.465546
O150	O	1.633050	0.361284	0.034454
H151	H	1.112018	-0.089527	-0.454892
H152	H	1.612018	0.410473	0.045108
H153	H	1.690109	-0.860840	-0.292947
H154	H	2.190109	-0.360840	0.207053
H155	H	1.396387	-0.374555	-0.540912
H156	H	1.896387	0.125445	-0.040912
H157	H	1.503270	-0.404183	-0.861458
H158	H	2.003270	0.095817	-0.361458
O159	O	1.378421	-0.531772	-0.384982
O160	O	1.878421	-0.031772	0.115018
H161	H	1.331687	-0.565524	-0.412822
H162	H	1.831687	-0.065524	0.087178
O163	O	1.501042	-0.419144	-0.734097
O164	O	2.001042	0.080856	-0.234097
H165	H	1.495249	-0.458387	-0.767837
H166	H	1.995249	0.041613	-0.267837
H167	H	0.919469	-0.149307	-0.454943
H168	H	1.419469	0.350693	0.045057
H169	H	1.217750	-0.381884	-0.221496
H170	H	1.717750	0.118116	0.278504
O171	O	1.321596	-0.869672	-0.311993
O172	O	1.821596	-0.369672	0.188007
H173	H	1.337526	-0.920661	-0.311171
H174	H	1.837526	-0.420661	0.188829
H175	H	1.640376	-0.944011	-0.229200
H176	H	2.140376	-0.444011	0.270800
O177	O	1.378663	-0.935419	-0.385048
O178	O	1.878663	-0.435419	0.114952
H179	H	1.396630	-0.947944	-0.434236
H180	H	1.896630	-0.447944	0.065764
O181	O	0.790621	-0.381934	-0.221509
O182	O	1.290621	0.118066	0.278491
H183	H	0.761714	-0.394681	-0.268740
H184	H	1.261714	0.105319	0.231260
H185	H	1.640377	-0.228995	-1.063314
H186	H	2.140377	0.271005	-0.563314
H187	H	1.640374	-0.229184	-0.540970
H188	H	2.140374	0.270816	-0.040970
H189	H	1.640197	-0.659081	-0.229154
H190	H	2.140197	-0.159081	0.270846
H191	H	1.217964	-0.221855	-0.382088
H192	H	1.717964	0.278145	0.117912
O193	O	1.658147	-0.218556	-0.668337
O194	O	2.158147	0.281444	-0.168337
H195	H	1.704910	-0.190712	-0.634606
H196	H	2.204910	0.309288	-0.134606
O197	O	0.790835	-0.221903	-0.382101
O198	O	1.290835	0.278097	0.117899
H199	H	0.761921	-0.234644	-0.429332
H200	H	1.261921	0.265356	0.070668
O201	O	1.715044	-0.733459	-0.291634
O202	O	2.215044	-0.233459	0.208366
H203	H	1.780895	-0.767166	-0.288245
H204	H	2.280895	-0.267166	0.211755
O205	O	1.658228	-1.071371	-0.218653
O206	O	2.158228	-0.571371	0.281347
H207	H	1.640229	-1.058857	-0.169466
H208	H	2.140229	-0.558857	0.330534
O209	O	1.378759	-1.071417	-0.385083
O210	O	1.878759	-0.571417	0.114917
H211	H	1.390075	-1.122412	-0.378363
H212	H	1.890075	-0.622412	0.121637
H213	H	1.396283	-0.659137	-0.374427
H214	H	1.896283	-0.159137	0.125573
O215	O	0.904546	-0.465080	-0.138056
O216	O	1.404546	0.034920	0.361944
H217	H	0.819043	-0.458367	-0.144806
H218	H	1.319043	0.041633	0.355194
H219	H	1.346533	-0.742306	-0.310681
H220	H	1.846533	-0.242306	0.189319
O221	O	1.378650	-0.384972	-1.071899
O222	O	1.878650	0.115028	-0.571899
H223	H	1.389950	-0.378227	-1.122898
H224	H	1.889950	0.121773	-0.622898
H225	H	1.533542	-0.199384	-0.742765
H226	H	2.033542	0.300616	-0.242765
H227	H	1.118118	-0.454486	-0.148654
H228	H	1.618118	0.045514	0.351346
H229	H	1.533542	-0.199344	-0.861477
H230	H	2.033542	0.300656	-0.361477
H231	H	1.640385	-0.229041	-0.944606
H232	H	2.140385	0.270959	-0.444606
O233	O	1.378619	-0.384993	-0.935893
O234	O	1.878619	0.115007	-0.435893
H235	H	1.331863	-0.412838	-0.969626
H236	H	1.831863	0.087162	-0.469626
H237	H	1.396408	-0.374515	-0.659626
H238	H	1.896408	0.125485	-0.159626
