data_functionalizedCrystal
_audit_creation_method	'MofGen! by Chris Wilmer'
_symmetry_space_group_name_H-M	'P1'
_symmetry_Int_Tables_number	1
_symmetry_cell_setting	triclinic
loop_
_symmetry_equiv_pos_as_xyz
  x,y,z
_cell_length_a	10.723022
_cell_length_b	6.394989
_cell_length_c	9.798715
_cell_angle_alpha	90.000171
_cell_angle_beta	90.004017
_cell_angle_gamma	85.482469
loop_
_atom_site_label
_atom_site_type_symbol
_atom_site_fract_x
_atom_site_fract_y
_atom_site_fract_z
O1	O	-1.660298	-0.293006	-0.113492
O2	O	-1.297443	-0.321057	-0.113492
O3	O	-1.484021	-0.003041	-0.113493
O4	O	-1.473720	-0.611022	-0.113491
O5	O	-1.484007	-0.003040	0.113489
O6	O	-1.297429	-0.321057	0.113490
O7	O	-1.660284	-0.293005	0.113490
Zn8	Zn	-1.478854	-0.307031	0.149528
Zn9	Zn	-1.478873	-0.307032	-0.149530
O10	O	-1.473706	-0.611021	0.113491
C11	C	-1.250915	-0.319016	-0.000001
C12	C	-1.112296	-0.312911	-0.000001
C13	C	-1.061788	-0.129522	-0.000002
C14	C	-0.918518	-0.123207	-0.000002
C15	C	-0.706812	-0.295046	-0.000001
C16	C	-0.845431	-0.301152	-0.000001
C17	C	-1.481977	0.074810	-0.000007
C18	C	-1.475753	0.311134	-0.000008
N19	N	-1.478850	-0.307029	0.353628
N20	N	-1.478886	-0.307017	-0.353630
C21	C	-1.557183	-0.172914	0.421404
C22	C	-1.557203	-0.172907	0.578567
H23	H	-0.875040	0.033809	-0.000037
F24	F	-0.902247	-0.506399	0.000009
F25	F	-1.143900	0.069594	-0.000007
F26	F	-1.030184	-0.512027	-0.000010
F27	F	-1.644596	-0.022465	0.345175
F28	F	-1.644869	-0.022833	0.654746
H29	H	-1.411797	-0.421837	0.411953
F30	F	-1.391229	-0.457118	0.570199
