data_functionalizedCrystal
_audit_creation_method	'MofGen! by Chris Wilmer'
_symmetry_space_group_name_H-M	'P1'
_symmetry_Int_Tables_number	1
_symmetry_cell_setting	triclinic
loop_
_symmetry_equiv_pos_as_xyz
  x,y,z
_cell_length_a	12.759401
_cell_length_b	10.686285
_cell_length_c	12.759393
_cell_angle_alpha	85.602987
_cell_angle_beta	89.980324
_cell_angle_gamma	85.632237
loop_
_atom_site_label
_atom_site_type_symbol
_atom_site_fract_x
_atom_site_fract_y
_atom_site_fract_z
Zn1	Zn	1.638403	-0.502274	-0.561967
Zn2	Zn	1.651797	-0.713314	-0.372834
Zn3	Zn	1.462706	-0.502337	-0.386302
Zn4	Zn	1.476190	-0.713221	-0.548481
O5	O	1.557274	-0.607787	-0.467396
O6	O	1.787201	-0.530281	-0.536886
O7	O	1.626675	-0.685392	-0.227596
O8	O	1.474763	-0.325753	-0.420885
O9	O	1.797042	-0.685331	-0.397931
O10	O	1.603847	-0.325706	-0.549945
O11	O	1.487751	-0.530389	-0.237490
O12	O	1.317473	-0.530299	-0.407808
O13	O	1.497746	-0.685174	-0.697296
O14	O	1.327380	-0.685235	-0.526960
O15	O	1.616923	-0.530192	-0.707203
O16	O	1.639751	-0.889878	-0.384854
O17	O	1.510734	-0.889810	-0.513901
C18	C	1.284305	-0.607765	-0.467383
C19	C	1.167530	-0.607786	-0.467400
C20	C	1.107554	-0.527198	-0.539848
C21	C	0.997831	-0.527210	-0.539854
C22	C	1.008070	-0.688411	-0.394961
C23	C	1.117790	-0.688391	-0.394950
C24	C	0.838395	-0.378478	-0.587104
C25	C	0.778416	-0.297901	-0.659568
C26	C	0.812844	-0.278669	-0.763332
C27	C	0.907251	-0.340033	-0.794652
C28	C	0.967224	-0.420620	-0.722193
C29	C	0.932796	-0.439828	-0.618416
C30	C	1.277228	-0.837125	-0.347712
C31	C	1.337204	-0.917719	-0.275257
C32	C	1.302779	-0.936964	-0.171490
C33	C	1.208371	-0.875622	-0.140172
C34	C	1.148395	-0.795028	-0.212627
C35	C	1.182827	-0.775781	-0.316393
C36	C	1.578187	-0.935628	-0.446476
C37	C	1.587230	-1.075880	-0.437561
C38	C	1.831309	-0.607809	-0.467410
C39	C	1.948086	-0.607819	-0.467416
C40	C	1.557345	-0.607666	-0.741437
C41	C	1.557375	-0.607614	-0.858217
C42	C	1.536307	-0.278665	-0.488421
C43	C	1.527373	-0.138413	-0.497381
C44	C	1.619434	-0.526902	-0.918241
C45	C	1.619449	-0.526848	-1.027969
C46	C	1.495342	-0.688228	-1.017639
C47	C	1.495322	-0.688275	-0.907914
C48	C	1.647536	-0.377973	-1.187436
C49	C	1.709612	-0.297272	-1.247462
C50	C	1.810887	-0.277925	-1.213102
C51	C	1.850107	-0.339298	-1.118716
C52	C	1.788037	-0.420008	-1.058694
C53	C	1.686746	-0.439331	-1.093055
C54	C	1.467247	-0.837151	-0.748444
C55	C	1.405181	-0.917869	-0.688420
C56	C	1.303905	-0.937229	-0.722778
C57	C	1.264690	-0.875878	-0.817166
C58	C	1.326756	-0.795161	-0.877190
C59	C	1.428030	-0.775799	-0.842825
C60	C	1.557258	-0.607816	-0.194427
C61	C	1.557408	-0.607512	-0.077670
H62	H	0.935268	-0.324378	-0.879152
O63	O	1.538294	-0.398825	-1.224495
H64	H	1.480138	-0.368972	-1.164869
H65	H	0.701550	-0.247938	-0.634057
H66	H	1.437124	-0.967835	-0.611570
O67	O	1.155452	-0.896753	-0.854225
H68	H	1.138615	-0.840538	-0.929947
O69	O	0.954415	-0.775348	-0.316827
H70	H	1.014556	-0.831373	-0.266439
H71	H	1.294818	-0.745207	-0.954047
H72	H	1.669959	-0.461219	-0.877782
O73	O	1.367470	-1.023896	-0.093344
H74	H	1.327664	-1.026970	-0.015928
O75	O	1.046575	-0.728843	-0.178850
H76	H	0.991846	-0.799858	-0.150611
O77	O	0.801264	-0.399206	-0.475179
H78	H	0.860851	-0.369240	-0.420885
H79	H	1.469204	-1.084648	-0.555420
H80	H	1.180337	-0.891298	-0.055678
O81	O	1.428422	-0.775225	-1.071247
H82	H	1.385256	-0.831348	-1.011072
H83	H	1.645387	-1.129640	-0.379519
O84	O	1.830305	-0.486174	-0.956880
H85	H	1.831905	-0.589553	-0.961794
O86	O	1.959351	-0.318451	-1.081662
H87	H	1.995922	-0.252014	-1.139253
H88	H	1.549712	-0.821385	-0.720456
H89	H	1.861430	-0.212216	-1.261984
O90	O	0.748164	-0.191752	-0.841491
H91	H	0.676742	-0.152308	-0.802280
O92	O	1.667311	-0.231057	-1.349252
H93	H	1.586446	-0.258042	-1.363052
O94	O	1.236956	-1.024288	-0.658040
H95	H	1.281234	-1.063700	-0.586632
O96	O	1.439035	-0.983884	-0.309027
H97	H	1.452910	-0.956949	-0.393352
O98	O	1.314353	-0.816368	-0.459640
H99	H	1.390067	-0.872582	-0.469249
H100	H	1.148048	-0.461560	-0.598838
H101	H	1.044091	-0.470575	-0.747692
