data_functionalizedCrystal
_audit_creation_method	'MofGen! by Chris Wilmer'
_symmetry_space_group_name_H-M	'P1'
_symmetry_Int_Tables_number	1
_symmetry_cell_setting	triclinic
loop_
_symmetry_equiv_pos_as_xyz
  x,y,z
_cell_length_a	12.827893
_cell_length_b	18.050590
_cell_length_c	18.050582
_cell_angle_alpha	89.976663
_cell_angle_beta	89.987073
_cell_angle_gamma	90.018523
loop_
_atom_site_label
_atom_site_type_symbol
_atom_site_fract_x
_atom_site_fract_y
_atom_site_fract_z
Zn1	Zn	1.597581	-0.295707	-0.419869
Zn2	Zn	1.597485	-0.419890	-0.295677
Zn3	Zn	1.422842	-0.295719	-0.295698
Zn4	Zn	1.422798	-0.419860	-0.419830
O5	O	1.510177	-0.357794	-0.357769
O6	O	1.743804	-0.312188	-0.403403
O7	O	1.574296	-0.403437	-0.191755
O8	O	1.446080	-0.191793	-0.312194
O9	O	1.743734	-0.403425	-0.312160
O10	O	1.574460	-0.191784	-0.403422
O11	O	1.445987	-0.312208	-0.191770
O12	O	1.276600	-0.312178	-0.312156
O13	O	1.446006	-0.403373	-0.523760
O14	O	1.276568	-0.403384	-0.403356
O15	O	1.574418	-0.312159	-0.523789
O16	O	1.574254	-0.523811	-0.312122
O17	O	1.445912	-0.523788	-0.403336
C18	C	1.238667	-0.357780	-0.357754
C19	C	1.122514	-0.357792	-0.357766
C20	C	1.070741	-0.402994	-0.402825
C21	C	0.950690	-0.403007	-0.402838
C22	C	1.510096	-0.550746	-0.357739
C23	C	1.510157	-0.633292	-0.357751
C24	C	1.580095	-0.832728	-0.308218
C25	C	1.605614	-0.882067	-0.375997
C26	C	1.510217	-0.784422	-0.357781
C27	C	1.484804	-0.882165	-0.290032
C28	C	1.510276	-0.930407	-0.357803
C29	C	1.535785	-0.832674	-0.425596
C30	C	1.414931	-0.832768	-0.339584
C31	C	1.440413	-0.882085	-0.407411
C32	C	1.510185	-0.700324	-0.357767
C33	C	1.510307	-1.014504	-0.357825
C34	C	1.782747	-0.357809	-0.357783
C35	C	1.898900	-0.357815	-0.357789
C36	C	1.510218	-0.357761	-0.551474
C37	C	1.510235	-0.357747	-0.634020
C38	C	1.510286	-0.164088	-0.357815
C39	C	1.510332	-0.081543	-0.357834
C40	C	1.440458	-0.407282	-0.833455
C41	C	1.535803	-0.425435	-0.882844
C42	C	1.510286	-0.357690	-0.785151
C43	C	1.414994	-0.339516	-0.882844
C44	C	1.510328	-0.357637	-0.931136
C45	C	1.605682	-0.375879	-0.833452
C46	C	1.484808	-0.289929	-0.833447
C47	C	1.580219	-0.308057	-0.882814
C48	C	1.510261	-0.357723	-0.701052
C49	C	1.510364	-0.357604	-1.015232
C50	C	1.510196	-0.357773	-0.164816
C51	C	1.510381	-0.357578	-0.082271
H52	H	0.943417	-0.319117	-0.319208
F53	F	1.128968	-0.453567	-0.453235
H54	H	1.639357	-0.266096	-0.904349
H55	H	1.463205	-0.232664	-0.811733
F56	F	1.309638	-0.319452	-0.911202
F57	F	1.363345	-0.462167	-0.805126
F58	F	1.564004	-0.500306	-0.911206
F59	F	1.064286	-0.307216	-0.307358
F60	F	1.710976	-0.910360	-0.396144
F61	F	1.657357	-0.804399	-0.253489
F62	F	0.892498	-0.453595	-0.453259
H63	H	1.686310	-0.391294	-0.811847
F64	F	1.564045	-0.804382	-0.500516
H65	H	1.381345	-0.903619	-0.449383
H66	H	1.334347	-0.811096	-0.324159
F67	F	1.456677	-0.910581	-0.215132
