data_functionalizedCrystal
_audit_creation_method	'MofGen! by Chris Wilmer'
_symmetry_space_group_name_H-M	'P1'
_symmetry_Int_Tables_number	1
_symmetry_cell_setting	triclinic
loop_
_symmetry_equiv_pos_as_xyz
  x,y,z
_cell_length_a	16.120490
_cell_length_b	16.120484
_cell_length_c	12.827885
_cell_angle_alpha	87.136072
_cell_angle_beta	92.917123
_cell_angle_gamma	90.164100
loop_
_atom_site_label
_atom_site_type_symbol
_atom_site_fract_x
_atom_site_fract_y
_atom_site_fract_z
Zn1	Zn	1.254492	-0.395626	0.695598
Zn2	Zn	1.754492	0.104374	1.195598
Zn3	Zn	1.247331	-0.534698	0.529224
Zn4	Zn	1.747331	-0.034698	1.029224
Zn5	Zn	1.115427	-0.388599	0.511596
Zn6	Zn	1.615427	0.111401	1.011596
Zn7	Zn	1.108344	-0.527572	0.694646
Zn8	Zn	1.608344	-0.027572	1.194646
O9	O	1.181398	-0.461624	0.607766
O10	O	1.681398	0.038376	1.107766
O11	O	1.369908	-0.419998	0.681304
O12	O	1.869908	0.080002	1.181304
O13	O	1.229801	-0.515359	0.380650
O14	O	1.729801	-0.015359	0.880650
O15	O	1.139835	-0.273169	0.529025
O16	O	1.639835	0.226831	1.029025
O17	O	1.364647	-0.522173	0.559069
O18	O	1.864647	-0.022173	1.059069
O19	O	1.242006	-0.278332	0.664211
O20	O	1.742006	0.221668	1.164211
O21	O	1.132892	-0.408021	0.367698
O22	O	1.632892	0.091979	0.867698
O23	O	0.998121	-0.401111	0.528102
O24	O	1.498121	0.098889	1.028102
O25	O	1.127763	-0.510027	0.841008
O26	O	1.627763	-0.010027	1.341008
O27	O	0.992918	-0.503213	0.662588
O28	O	1.492918	-0.003213	1.162588
O29	O	1.235138	-0.413088	0.841707
O30	O	1.735138	0.086912	1.341707
O31	O	1.222933	-0.650115	0.558146
O32	O	1.722933	-0.150115	1.058146
O33	O	1.120820	-0.644879	0.679681
O34	O	1.620820	-0.144879	1.179681
C35	C	0.965347	-0.450627	0.593329
C36	C	1.465347	0.049373	1.093329
C37	C	0.872918	-0.445942	0.587179
C38	C	1.372918	0.054058	1.087179
C39	C	0.659950	-0.485917	0.639668
C40	C	1.159950	0.014083	1.139668
C41	C	0.703695	-0.437397	0.575950
C42	C	1.203695	0.062603	1.075950
C43	C	0.797859	-0.442153	0.582200
C44	C	1.297859	0.057847	1.082200
C45	C	0.565776	-0.481162	0.633420
C46	C	1.065776	0.018838	1.133420
C47	C	1.170353	-0.677670	0.620747
C48	C	1.670353	-0.177670	1.120747
C49	C	1.165704	-0.770099	0.626341
C50	C	1.665704	-0.270099	1.126341
C51	C	1.157221	-0.939328	0.636575
C52	C	1.657221	-0.439328	1.136575
C53	C	1.205725	-0.983086	0.578983
C54	C	1.705725	-0.483086	1.078983
C55	C	1.201005	-1.077251	0.584678
C56	C	1.701005	-0.577251	1.084678
C57	C	1.161940	-0.845155	0.630882
C58	C	1.661940	-0.345155	1.130882
C59	C	1.398293	-0.472664	0.622259
C60	C	1.898293	0.027336	1.122259
C61	C	1.490721	-0.477369	0.628435
C62	C	1.990721	0.022631	1.128435
C63	C	1.181459	-0.461547	0.880335
C64	C	1.681459	0.038453	1.380335
C65	C	1.181485	-0.461514	0.996488
C66	C	1.681485	0.038486	1.496488
C67	C	1.192509	-0.244735	0.594758
C68	C	1.692509	0.255265	1.094758
C69	C	1.197244	-0.152310	0.589215
C70	C	1.697244	0.347690	1.089215
C71	C	1.181389	-0.461643	0.336257
C72	C	1.681389	0.038357	0.836257
C73	C	1.181536	-0.461449	0.220101
C74	C	1.681536	0.038551	0.720101
C75	C	1.234623	-0.413536	1.048619
C76	C	1.734623	0.086464	1.548619
C77	C	1.234651	-0.413501	1.168669
C78	C	1.734651	0.086499	1.668669
H79	H	0.693217	-0.531024	0.698907
H80	H	1.193217	-0.031024	1.198907
H81	H	1.250794	-0.949827	0.525400
H82	H	1.750794	-0.449827	1.025400
O83	O	1.103470	-0.979127	0.700400
O84	O	1.603470	-0.479127	1.200400
C85	C	1.110676	-1.065648	0.691951
C86	C	1.610676	-0.565648	1.191951
H87	H	1.137376	-1.078816	0.613856
H88	H	1.637376	-0.578816	1.113856
H89	H	1.046758	-1.095621	0.696764
H90	H	1.546758	-0.595621	1.196764
H91	H	1.153719	-1.092472	0.758399
H92	H	1.653719	-0.592472	1.258399
H93	H	1.280093	-0.372482	1.004373
H94	H	1.780093	0.127518	1.504373
O95	O	1.288812	-0.364397	1.222173
O96	O	1.788812	0.135603	1.722173
C97	C	1.244186	-0.308320	1.278944
C98	C	1.744186	0.191680	1.778944
H99	H	1.178972	-0.299841	1.241304
H100	H	1.678972	0.200159	1.741304
H101	H	1.277536	-0.245857	1.278457
H102	H	1.777536	0.254143	1.778457
H103	H	1.239963	-0.333916	1.362975
H104	H	1.739963	0.166084	1.862975
H105	H	1.136043	-0.502531	1.175278
H106	H	1.636043	-0.002531	1.675278
H107	H	1.136007	-0.502558	1.040733
H108	H	1.636007	-0.002558	1.540733
H109	H	0.670426	-0.392286	0.516706
H110	H	1.170426	0.107714	1.016706
