data_functionalizedCrystal
_audit_creation_method	'MofGen! by Chris Wilmer'
_symmetry_space_group_name_H-M	'P1'
_symmetry_Int_Tables_number	1
_symmetry_cell_setting	triclinic
loop_
_symmetry_equiv_pos_as_xyz
  x,y,z
_cell_length_a	23.532407
_cell_length_b	22.610064
_cell_length_c	23.532407
_cell_angle_alpha	90.004436
_cell_angle_beta	82.848713
_cell_angle_gamma	90.002839
loop_
_atom_site_label
_atom_site_type_symbol
_atom_site_fract_x
_atom_site_fract_y
_atom_site_fract_z
O1	O	0.755264	0.049122	0.069127
O2	O	1.255264	0.549122	0.569127
O3	O	0.589400	0.049140	0.079130
O4	O	1.089400	0.549140	0.579130
O5	O	0.677333	0.049114	-0.008803
O6	O	1.177333	0.549114	0.491197
O7	O	0.667330	0.049148	0.157060
O8	O	1.167330	0.549148	0.657060
O9	O	0.677318	-0.049255	-0.008790
O10	O	1.177318	0.450745	0.491210
O11	O	0.589385	-0.049229	0.079143
O12	O	1.089385	0.450771	0.579143
O13	O	0.755248	-0.049248	0.069140
O14	O	1.255248	0.450752	0.569140
Zn15	Zn	0.672314	-0.064856	0.074144
Zn16	Zn	1.172314	0.435144	0.574144
Zn17	Zn	0.672334	0.064749	0.074127
Zn18	Zn	1.172334	0.564749	0.574127
O19	O	0.667315	-0.049221	0.157073
O20	O	1.167315	0.450779	0.657073
C21	C	0.568176	-0.000042	0.078882
C22	C	1.068176	0.499958	0.578882
C23	C	0.504959	-0.000036	0.078116
C24	C	1.004959	0.499964	0.578116
N25	N	0.672304	-0.153309	0.074155
N26	N	1.172304	0.346691	0.574155
C27	C	0.105856	-0.000053	0.125350
C28	C	0.605856	0.499947	0.625350
C29	C	0.046456	-0.000056	0.124638
C30	C	0.546456	0.499944	0.624638
O31	O	0.009711	-0.000069	0.168424
O32	O	0.509711	0.499931	0.668424
N33	N	0.023830	-0.000066	0.072362
N34	N	0.523830	0.499934	0.572362
C35	C	0.060607	-0.000078	0.020794
C36	C	0.560607	0.499922	0.520794
O37	O	0.035908	-0.000088	-0.023737
O38	O	0.535908	0.499912	0.476263
C39	C	0.120006	-0.000079	0.021506
C40	C	0.620006	0.499921	0.521506
C41	C	0.142629	-0.000063	0.073785
C42	C	0.642629	0.499937	0.573785
C43	C	0.128480	-0.000037	0.177625
C44	C	0.628480	0.499963	0.677625
C45	C	0.187876	-0.000033	0.178336
C46	C	0.687876	0.499967	0.678336
C47	C	0.224649	-0.000043	0.126772
C48	C	0.724649	0.499957	0.626772
C49	C	0.202025	-0.000058	0.074497
C50	C	0.702025	0.499942	0.574497
C51	C	0.156783	-0.000095	-0.030062
C52	C	0.656783	0.499905	0.469938
C53	C	0.216185	-0.000096	-0.029345
C54	C	0.716185	0.499904	0.470655
C55	C	0.238808	-0.000080	0.022934
C56	C	0.738808	0.499920	0.522934
C57	C	0.298194	-0.000063	0.023643
C58	C	0.798194	0.499937	0.523643
N59	N	0.320821	-0.000054	0.075920
N60	N	0.820821	0.499946	0.575920
C61	C	0.284048	-0.000043	0.127484
C62	C	0.784048	0.499957	0.627484
C63	C	-0.064135	-0.000078	0.019302
C64	C	0.435865	0.499922	0.519302
C65	C	-0.123533	-0.000074	0.018589
C66	C	0.376467	0.499926	0.518589
C67	C	-0.137680	-0.000053	0.122434
C68	C	0.362320	0.499947	0.622434
C69	C	-0.078281	-0.000053	0.123146
C70	C	0.421719	0.499947	0.623146
C71	C	-0.041509	-0.000069	0.071578
C72	C	0.458491	0.499931	0.571578
C73	C	0.408784	-0.000033	0.128974
C74	C	0.908784	0.499967	0.628974
C75	C	0.468186	-0.000025	0.129680
C76	C	0.968186	0.499975	0.629680
C77	C	0.482329	-0.000049	0.025836
C78	C	0.982329	0.499951	0.525836
C79	C	0.422932	-0.000053	0.025129
C80	C	0.922932	0.499947	0.525129
C81	C	0.386160	-0.000047	0.076702
C82	C	0.886160	0.499953	0.576702
O83	O	0.334974	-0.000053	-0.020119
O84	O	0.834974	0.499947	0.479881
O85	O	0.308756	-0.000042	0.172007
O86	O	0.808756	0.499958	0.672007
C87	C	0.711273	-0.561962	0.035196
C88	C	1.211273	-0.061962	0.535196
C89	C	0.711276	-0.623882	0.035192
C90	C	1.211276	-0.123882	0.535192
O91	O	0.744384	-0.655911	0.002076
O92	O	1.244384	-0.155911	0.502076
N93	N	0.672334	-0.654846	0.074115
N94	N	1.172334	-0.154846	0.574115
C95	C	0.633383	-0.623887	0.113041
C96	C	1.133383	-0.123887	0.613041
O97	O	0.600260	-0.655910	0.146147
O98	O	1.100260	-0.155910	0.646147
C99	C	0.633378	-0.561968	0.113042
C100	C	1.133378	-0.061968	0.613042
C101	C	0.672326	-0.531007	0.074120
C102	C	1.172326	-0.031007	0.574120
C103	C	0.750218	-0.531001	-0.003724
C104	C	1.250218	-0.031001	0.496276
C105	C	0.750215	-0.469086	-0.003719
C106	C	1.250215	0.030914	0.496281
C107	C	0.711268	-0.438131	0.035206
C108	C	1.211268	0.061869	0.535206
C109	C	0.672323	-0.469092	0.074125
C110	C	1.172323	0.030908	0.574125
C111	C	0.594424	-0.531010	0.151965
C112	C	1.094424	-0.031010	0.651965
C113	C	0.594422	-0.469087	0.151962
C114	C	1.094422	0.030913	0.651962
C115	C	0.633370	-0.438126	0.113040
C116	C	1.133370	0.061874	0.613040
C117	C	0.633374	-0.376221	0.113054
C118	C	1.133374	0.123779	0.613054
N119	N	0.672316	-0.345257	0.074131
N120	N	1.172316	0.154743	0.574131
C121	C	0.711263	-0.376212	0.035207
C122	C	1.211263	0.123788	0.535207
C123	C	0.633396	-0.753921	0.113035
C124	C	1.133396	-0.253921	0.613035
C125	C	0.633403	-0.815838	0.113037
C126	C	1.133403	-0.315838	0.613037
C127	C	0.711296	-0.815829	0.035187
C128	C	1.211296	-0.315829	0.535187
C129	C	0.711291	-0.753910	0.035188
C130	C	1.211291	-0.253910	0.535188
C131	C	0.672338	-0.722957	0.074112
C132	C	1.172338	-0.222957	0.574112
C133	C	0.711255	-0.246185	0.035220
C134	C	1.211255	0.253815	0.535220
C135	C	0.711251	-0.184264	0.035230
C136	C	1.211251	0.315736	0.535230
C137	C	0.633357	-0.184278	0.113078
C138	C	1.133357	0.315722	0.613078
C139	C	0.633363	-0.246194	0.113071
C140	C	1.133363	0.253806	0.613071
C141	C	0.672314	-0.277146	0.074137
C142	C	1.172314	0.222854	0.574137
O143	O	0.600281	-0.344153	0.146151
O144	O	1.100281	0.155847	0.646151
O145	O	0.744376	-0.344181	0.002101
O146	O	1.244376	0.155819	0.502101
C147	C	0.776472	-0.000064	0.069388
C148	C	1.276472	0.499936	0.569388
C149	C	0.839689	-0.000066	0.070154
C150	C	1.339689	0.499934	0.570154
C151	C	0.677071	-0.000074	-0.030013
C152	C	1.177071	0.499926	0.469987
C153	C	0.676305	-0.000083	-0.093230
C154	C	1.176305	0.499917	0.406770
N155	N	0.672349	0.153202	0.074111
N156	N	1.172349	0.653202	0.574111
C157	C	0.621110	-0.000039	-0.359397
C158	C	1.121110	0.499961	0.140603
C159	C	0.621821	-0.000044	-0.299997
C160	C	1.121821	0.499956	0.200003
O161	O	0.578035	-0.000020	-0.263252
O162	O	1.078035	0.499980	0.236748
N163	N	0.674097	-0.000057	-0.277371
N164	N	1.174097	0.499943	0.222629
C165	C	0.725666	-0.000059	-0.314148
C166	C	1.225666	0.499941	0.185852
O167	O	0.770196	-0.000070	-0.289449
O168	O	1.270196	0.499930	0.210551
C169	C	0.724954	-0.000050	-0.373547
C170	C	1.224954	0.499950	0.126453
C171	C	0.672674	-0.000043	-0.396170
C172	C	1.172674	0.499957	0.103830
C173	C	0.568834	-0.000032	-0.382020
C174	C	1.068834	0.499968	0.117980
C175	C	0.568123	-0.000029	-0.441417
C176	C	1.068123	0.499971	0.058583
C177	C	0.619687	-0.000032	-0.478189
C178	C	1.119687	0.499968	0.021811
C179	C	0.671963	-0.000040	-0.455566
C180	C	1.171963	0.499960	0.044434
C181	C	0.776521	-0.000048	-0.410324
C182	C	1.276521	0.499952	0.089676
C183	C	0.775805	-0.000039	-0.469726
C184	C	1.275805	0.499961	0.030274
C185	C	0.723525	-0.000032	-0.492349
C186	C	1.223525	0.499968	0.007651
C187	C	0.722816	-0.000040	-0.551735
C188	C	1.222816	0.499960	-0.051735
N189	N	0.670539	-0.000027	-0.574361
N190	N	1.170539	0.499973	-0.074361
C191	C	0.618975	-0.000024	-0.537589
C192	C	1.118975	0.499976	-0.037589
C193	C	0.727157	-0.000077	-0.189406
C194	C	1.227157	0.499923	0.310594
C195	C	0.727870	-0.000090	-0.130008
C196	C	1.227870	0.499910	0.369992
C197	C	0.624025	-0.000074	-0.115860
C198	C	1.124025	0.499926	0.384140
C199	C	0.623313	-0.000065	-0.175260
C200	C	1.123313	0.499935	0.324740
C201	C	0.674881	-0.000064	-0.212032
C202	C	1.174881	0.499936	0.287968
C203	C	0.617486	-0.000017	-0.662325
C204	C	1.117486	0.499983	-0.162325
C205	C	0.616779	-0.000016	-0.721727
C206	C	1.116779	0.499984	-0.221727
C207	C	0.720623	-0.000028	-0.735869
C208	C	1.220623	0.499972	-0.235869
C209	C	0.721330	-0.000033	-0.676473
C210	C	1.221330	0.499967	-0.176473
C211	C	0.669757	-0.000025	-0.639701
C212	C	1.169757	0.499975	-0.139701
O213	O	0.766579	-0.000061	-0.588514
O214	O	1.266579	0.499939	-0.088514
O215	O	0.574452	-0.000005	-0.562296
O216	O	1.074452	0.499995	-0.062296
C217	C	0.667577	-0.000032	0.178283
C218	C	1.167577	0.499968	0.678283
C219	C	0.668343	-0.000019	0.241500
C220	C	1.168343	0.499981	0.741500
H221	H	0.378852	-0.000029	0.170970
H222	H	0.878852	0.499971	0.670970
C223	C	-0.053691	0.000083	0.179891
C224	C	0.446309	0.500083	0.679891
C225	C	-0.020012	0.050699	0.183336
C226	C	0.479988	0.550699	0.683336
C227	C	0.002638	0.050849	0.235606
C228	C	0.502638	0.550849	0.735606
H229	H	-0.030779	-0.034180	0.182393
H230	H	0.469221	0.465820	0.682393
H231	H	-0.084089	0.000123	0.210512
H232	H	0.415911	0.500123	0.710512
H233	H	0.010381	0.050654	0.152724
H234	H	0.510381	0.550654	0.652724
H235	H	-0.042912	0.084971	0.180844
H236	H	0.457088	0.584971	0.680844
H237	H	-0.027759	0.050889	0.266227
H238	H	0.472241	0.550889	0.766227
H239	H	0.025548	0.016583	0.238104
H240	H	0.525548	0.516583	0.738104
H241	H	0.025488	0.085194	0.237953
H242	H	0.525488	0.585194	0.737953
H243	H	0.582038	-0.000071	-0.085909
H244	H	1.082038	0.499929	0.414091
H245	H	0.574205	-0.000013	-0.740143
H246	H	1.074205	0.499987	-0.240143
H247	H	0.246123	-0.000109	-0.071339
H248	H	0.746123	0.499891	0.428661
C249	C	0.778047	0.000048	-0.651826
C250	C	1.278047	0.500048	-0.151826
C251	C	0.781489	0.050650	-0.618125
C252	C	1.281489	0.550650	-0.118125
C253	C	0.833725	0.050746	-0.595409
C254	C	1.333725	0.550746	-0.095409
H255	H	0.808705	0.000074	-0.682175
H256	H	1.308705	0.500074	-0.182175
H257	H	0.780483	-0.034237	-0.628917
H258	H	1.280483	0.465763	-0.128917
H259	H	0.779059	0.084926	-0.641033
H260	H	1.279059	0.584926	-0.141033
H261	H	0.750843	0.050634	-0.587767
H262	H	1.250843	0.550634	-0.087767
H263	H	0.836161	0.016461	-0.572500
H264	H	1.336161	0.516461	-0.072500
H265	H	0.864379	0.050771	-0.625762
H266	H	1.364379	0.550771	-0.125762
H267	H	0.836065	0.085076	-0.572536
H268	H	1.336065	0.585076	-0.072536
C269	C	0.088532	-0.000143	0.233597
C270	C	0.588532	0.499857	0.733597
C271	C	0.054019	-0.050755	0.236249
C272	C	0.554019	0.449245	0.736249
C273	C	0.017222	-0.050870	0.287809
C274	C	0.517222	0.449130	0.787809
H275	H	0.065017	0.034123	0.235529
H276	H	0.565017	0.534123	0.735529
H277	H	0.110501	-0.000165	0.264844
H278	H	0.610501	0.499835	0.764844
H279	H	0.032053	-0.050727	0.205011
H280	H	0.532053	0.449273	0.705011
H281	H	0.077518	-0.085029	0.234327
H282	H	0.577518	0.414971	0.734327
H283	H	0.039191	-0.050893	0.319056
H284	H	0.539191	0.449107	0.819056
H285	H	-0.006289	-0.016602	0.289736
H286	H	0.493711	0.483398	0.789736
H287	H	-0.006195	-0.085213	0.289618
H288	H	0.493805	0.414787	0.789618
H289	H	0.601677	-0.728721	0.144736
H290	H	1.101677	-0.228721	0.644736
H291	H	0.404512	-0.000058	-0.017441
H292	H	0.904512	0.499942	0.482559
H293	H	0.138374	-0.000108	-0.072634
H294	H	0.638374	0.499892	0.427366
C295	C	0.522234	0.000061	-0.030163
C296	C	1.022234	0.500061	0.469837
C297	C	0.512073	0.050668	-0.061667
C298	C	1.012073	0.550668	0.438333
C299	C	0.548830	0.050790	-0.113253
C300	C	1.048830	0.550790	0.386747
H301	H	0.515443	-0.034209	-0.051676
H302	H	1.015443	0.465791	0.448324
H303	H	0.560857	0.000096	-0.022270
H304	H	1.060857	0.500096	0.477730
H305	H	0.473459	0.050628	-0.069562
H306	H	0.973459	0.550628	0.430438
H307	H	0.518868	0.084946	-0.040172
H308	H	1.018868	0.584946	0.459828
H309	H	0.587453	0.050825	-0.105359
H310	H	1.087453	0.550825	0.394641
H311	H	0.542035	0.016518	-0.134761
H312	H	1.042035	0.516518	0.365239
H313	H	0.541944	0.085128	-0.134632
H314	H	1.041944	0.585128	0.365368
C315	C	0.753564	-0.150757	-0.007096
C316	C	1.253564	0.349243	0.492904
C317	C	0.787660	-0.191123	-0.041195
C318	C	1.287660	0.308877	0.458805
C319	C	0.826638	-0.160281	-0.080196
C320	C	1.326638	0.339719	0.419804
H321	H	0.777209	-0.126598	0.013205
H322	H	1.277209	0.373402	0.513205
H323	H	0.733228	-0.126617	-0.030731
H324	H	1.233228	0.373383	0.469269
H325	H	0.807995	-0.215253	-0.017563
H326	H	1.307995	0.284747	0.482437
H327	H	0.764031	-0.215284	-0.061507
H328	H	1.264031	0.284716	0.438493
H329	H	0.806301	-0.136142	-0.103831
H330	H	1.306301	0.363858	0.396169
H331	H	0.850278	-0.136123	-0.059891
H332	H	1.350278	0.363877	0.440109
H333	H	0.849773	-0.187665	-0.103340
H334	H	1.349773	0.312335	0.396660
H335	H	0.742973	-0.271379	0.003516
H336	H	1.242973	0.228621	0.503516
H337	H	-0.167632	-0.000047	0.164421
H338	H	0.332368	0.499953	0.664421
H339	H	0.486602	-0.000012	0.172255
H340	H	0.986602	0.499988	0.672255
H341	H	-0.141947	-0.000077	-0.023982
H342	H	0.358053	0.499923	0.476018
H343	H	0.743005	-0.728705	0.003494
H344	H	1.243005	-0.228705	0.503494
H345	H	0.769152	-0.000080	-0.219343
H346	H	1.269152	0.499920	0.280657
C347	C	0.591169	-0.279841	0.155397
C348	C	1.091169	0.220159	0.655397
C349	C	0.621300	-0.315379	0.190116
C350	C	1.121300	0.184621	0.690116
C351	C	0.582446	-0.346370	0.229115
C352	C	1.082446	0.153630	0.729115
H353	H	0.567563	-0.304042	0.135094
H354	H	1.067563	0.195958	0.635094
H355	H	0.567984	-0.252551	0.178612
H356	H	1.067984	0.247449	0.678612
H357	H	0.644475	-0.342666	0.166904
H358	H	1.144475	0.157334	0.666904
H359	H	0.644905	-0.291192	0.210431
H360	H	1.144905	0.208808	0.710431
H361	H	0.559261	-0.319081	0.252330
H362	H	1.059261	0.180919	0.752330
H363	H	0.558841	-0.370568	0.208808
H364	H	1.058841	0.129432	0.708808
H365	H	0.602884	-0.370483	0.252680
H366	H	1.102884	0.129517	0.752680
H367	H	0.781929	-0.443881	-0.035414
H368	H	1.281929	0.056119	0.464586
H369	H	0.206289	-0.000019	0.220908
H370	H	0.706289	0.499981	0.720908
C371	C	0.552065	-0.435450	0.194135
C372	C	1.052065	0.064550	0.694135
C373	C	0.517365	-0.399917	0.163977
C374	C	1.017365	0.100083	0.663977
C375	C	0.478337	-0.368930	0.202808
C376	C	0.978337	0.131070	0.702808
H377	H	0.572345	-0.411246	0.217759
H378	H	1.072345	0.088754	0.717759
H379	H	0.528840	-0.462743	0.217305
H380	H	1.028840	0.037257	0.717305
H381	H	0.540588	-0.372628	0.140817
H382	H	1.040588	0.127372	0.640817
H383	H	0.497073	-0.424107	0.140356
H384	H	0.997073	0.075893	0.640356
H385	H	0.455112	-0.396223	0.225978
H386	H	0.955112	0.103777	0.725978
H387	H	0.498622	-0.344729	0.226430
H388	H	0.998622	0.155271	0.726430
H389	H	0.454785	-0.344822	0.182352
H390	H	0.954785	0.155178	0.682352
C391	C	0.792573	-0.564495	-0.046012
C392	C	1.292573	-0.064495	0.453988
C393	C	0.826682	-0.524116	-0.080081
C394	C	1.326682	-0.024116	0.419919
C395	C	0.865718	-0.554944	-0.119037
C396	C	1.365718	-0.054944	0.380963
H397	H	0.772300	-0.588658	-0.069677
H398	H	1.272300	-0.088658	0.430323
H399	H	0.816199	-0.588630	-0.025660
H400	H	1.316199	-0.088630	0.474340
H401	H	0.803060	-0.499992	-0.100432
H402	H	1.303060	0.000008	0.399568
H403	H	0.846968	-0.499952	-0.056432
H404	H	1.346968	0.000048	0.443568
H405	H	0.889343	-0.579079	-0.098685
H406	H	1.389343	-0.079079	0.401315
H407	H	0.845439	-0.579106	-0.142698
H408	H	1.345439	-0.079106	0.357302
H409	H	0.888868	-0.527552	-0.142154
H410	H	1.388868	-0.027552	0.357846
H411	H	-0.034198	-0.000085	-0.022693
H412	H	0.465802	0.499915	0.477307
C413	C	0.590981	-0.150740	0.155309
C414	C	1.090981	0.349260	0.655309
C415	C	0.535074	-0.165817	0.146361
C416	C	1.035074	0.334183	0.646361
C417	C	0.496018	-0.134938	0.185256
C418	C	0.996018	0.365062	0.685256
H419	H	0.596478	-0.109421	0.149775
H420	H	1.096478	0.390579	0.649775
H421	H	0.596909	-0.160895	0.193302
H422	H	1.096909	0.339105	0.693302
H423	H	0.529147	-0.155658	0.108378
H424	H	1.029147	0.344342	0.608378
H425	H	0.529558	-0.207131	0.151900
H426	H	1.029558	0.292869	0.651900
H427	H	0.501947	-0.145093	0.223248
H428	H	1.001947	0.354907	0.723248
H429	H	0.501521	-0.093620	0.179718
H430	H	1.001521	0.406380	0.679718
H431	H	0.458082	-0.145168	0.179193
H432	H	0.958082	0.354832	0.679193
C433	C	0.831752	-0.000131	-0.509717
C434	C	1.331752	0.499869	-0.009717
C435	C	0.834368	-0.050730	-0.544248
C436	C	1.334368	0.449270	-0.044248
C437	C	0.885894	-0.050833	-0.581097
C438	C	1.385894	0.449167	-0.081097
H439	H	0.863033	-0.000167	-0.487804
H440	H	1.363033	0.499833	0.012196
H441	H	0.833643	0.034156	-0.533211
H442	H	1.333643	0.534156	-0.033211
H443	H	0.832482	-0.085009	-0.520756
H444	H	1.332482	0.414991	-0.020756
H445	H	0.803099	-0.050705	-0.566173
H446	H	1.303099	0.449295	-0.066173
H447	H	0.887785	-0.016545	-0.604592
H448	H	1.387785	0.483455	-0.104592
H449	H	0.917171	-0.050866	-0.559180
H450	H	1.417171	0.449134	-0.059180
H451	H	0.887673	-0.085160	-0.604535
H452	H	1.387673	0.414840	-0.104535
H453	H	0.743008	-0.841044	0.003492
H454	H	1.243008	-0.341044	0.503492
H455	H	0.819093	-0.000053	-0.391915
H456	H	1.319093	0.499947	0.108085
H457	H	0.601694	-0.841042	0.144737
H458	H	1.101694	-0.341042	0.644737
C459	C	0.552071	-0.564507	0.194249
C460	C	1.052071	-0.064507	0.694249
C461	C	0.517955	-0.524133	0.228319
C462	C	1.017955	-0.024133	0.728319
C463	C	0.478925	-0.554968	0.267274
C464	C	0.978925	-0.054968	0.767274
H465	H	0.572348	-0.588661	0.217912
H466	H	1.072348	-0.088661	0.717912
H467	H	0.528450	-0.588651	0.173895
H468	H	1.028450	-0.088651	0.673895
H469	H	0.541573	-0.500000	0.248671
H470	H	1.041573	0.000000	0.748671
H471	H	0.497664	-0.499978	0.204671
H472	H	0.997664	0.000022	0.704671
H473	H	0.455304	-0.579112	0.246920
H474	H	0.955304	-0.079112	0.746920
H475	H	0.499207	-0.579121	0.290934
H476	H	0.999207	-0.079121	0.790934
H477	H	0.455769	-0.527579	0.290392
H478	H	0.955769	-0.027579	0.790392
H479	H	0.762606	-0.000034	-0.765820
H480	H	1.262606	0.499966	-0.265820
C481	C	0.784690	-0.000073	-0.105561
C482	C	1.284690	0.499927	0.394439
C483	C	0.829691	-0.000062	-0.150485
C484	C	1.329691	0.499938	0.349515
C485	C	0.882043	-0.000035	-0.127989
C486	C	1.382043	0.499965	0.372011
H487	H	0.787205	-0.034369	-0.082696
H488	H	1.287205	0.465631	0.417304
H489	H	0.787165	0.034242	-0.082697
H490	H	1.287165	0.534242	0.417303
H491	H	0.827217	-0.034374	-0.173340
H492	H	1.327217	0.465626	0.326660
H493	H	0.827195	0.034231	-0.173354
H494	H	1.327195	0.534231	0.326646
H495	H	0.884519	0.034281	-0.105126
H496	H	1.384519	0.534281	0.394874
H497	H	0.884552	-0.034331	-0.105125
H498	H	1.384552	0.465669	0.394875
H499	H	0.912583	-0.000021	-0.158467
H500	H	1.412583	0.499979	0.341533
H501	H	0.575489	-0.000010	-0.632392
H502	H	1.075489	0.499990	-0.132392
C503	C	0.511302	0.000016	-0.465862
C504	C	1.011302	0.500016	0.034138
C505	C	0.466303	0.000035	-0.420936
C506	C	0.966303	0.500035	0.079064
C507	C	0.413949	0.000086	-0.443428
C508	C	0.913949	0.500086	0.056572
H509	H	0.508772	-0.034275	-0.488736
H510	H	1.008772	0.465725	0.011264
H511	H	0.508839	0.034337	-0.488716
H512	H	1.008839	0.534337	0.011284
H513	H	0.468765	-0.034283	-0.398092
H514	H	0.968765	0.465717	0.101908
H515	H	0.468815	0.034323	-0.398058
H516	H	0.968815	0.534323	0.101942
H517	H	0.411487	0.034407	-0.466282
H518	H	0.911487	0.534407	0.033718
H519	H	0.411425	-0.034205	-0.466302
H520	H	0.911425	0.465795	0.033698
H521	H	0.383412	0.000104	-0.412949
H522	H	0.883412	0.500104	0.087051
C523	C	0.512905	0.000000	-0.342007
C524	C	1.012905	0.500000	0.157993
C525	C	0.524703	0.000004	-0.285141
C526	C	1.024703	0.500004	0.214859
C527	C	0.473191	0.000037	-0.248269
C528	C	0.973191	0.500037	0.251731
H529	H	0.491411	-0.034291	-0.348773
H530	H	0.991411	0.465709	0.151227
H531	H	0.491456	0.034321	-0.348798
H532	H	0.991456	0.534321	0.151202
H533	H	0.546142	-0.034313	-0.278352
H534	H	1.046142	0.465687	0.221648
H535	H	0.546188	0.034293	-0.278357
H536	H	1.046188	0.534293	0.221643
H537	H	0.451743	0.034358	-0.255060
H538	H	0.951743	0.534358	0.244940
H539	H	0.451702	-0.034254	-0.255040
H540	H	0.951702	0.465746	0.244960
H541	H	0.481189	0.000046	-0.209681
H542	H	0.981189	0.500046	0.290319
H543	H	0.580742	-0.000062	-0.193674
H544	H	1.080742	0.499938	0.306326
