data_functionalizedCrystal
_audit_creation_method	'MofGen! by Chris Wilmer'
_symmetry_space_group_name_H-M	'P1'
_symmetry_Int_Tables_number	1
_symmetry_cell_setting	triclinic
loop_
_symmetry_equiv_pos_as_xyz
  x,y,z
_cell_length_a	16.959455
_cell_length_b	21.295417
_cell_length_c	16.959447
_cell_angle_alpha	89.964725
_cell_angle_beta	89.977004
_cell_angle_gamma	90.027526
loop_
_atom_site_label
_atom_site_type_symbol
_atom_site_fract_x
_atom_site_fract_y
_atom_site_fract_z
Zn1	Zn	1.208347	-0.250646	-0.447010
Zn2	Zn	1.708347	0.249354	0.052990
Zn3	Zn	1.208239	-0.355923	-0.314820
Zn4	Zn	1.708239	0.144077	0.185180
Zn5	Zn	1.076169	-0.250666	-0.314833
Zn6	Zn	1.576169	0.249334	0.185167
Zn7	Zn	1.076116	-0.355876	-0.446944
Zn8	Zn	1.576116	0.144124	0.053056
O9	O	1.142218	-0.303278	-0.380902
O10	O	1.642218	0.196722	0.119098
O11	O	1.318944	-0.264623	-0.429496
O12	O	1.818944	0.235377	0.070504
O13	O	1.190697	-0.341989	-0.204211
O14	O	1.690697	0.158011	0.295789
O15	O	1.093770	-0.162574	-0.332399
O16	O	1.593770	0.337426	0.167601
O17	O	1.318864	-0.341969	-0.332377
O18	O	1.818864	0.158031	0.167623
O19	O	1.190881	-0.162560	-0.429509
O20	O	1.690881	0.337440	0.070491
O21	O	1.093666	-0.264657	-0.204220
O22	O	1.593666	0.235343	0.295780
O23	O	0.965551	-0.264611	-0.332336
O24	O	1.465551	0.235389	0.167664
O25	O	1.093679	-0.341889	-0.557564
O26	O	1.593679	0.158111	-0.057564
O27	O	0.965512	-0.341908	-0.429398
O28	O	1.465512	0.158092	0.070602
O29	O	1.190829	-0.264577	-0.557612
O30	O	1.690829	0.235423	-0.057612
O31	O	1.190646	-0.444006	-0.332313
O32	O	1.690646	0.055994	0.167687
O33	O	1.093575	-0.443972	-0.429385
O34	O	1.593575	0.056028	0.070615
C35	C	0.936852	-0.303257	-0.380862
C36	C	1.436852	0.196743	0.119138
C37	C	0.848995	-0.303264	-0.380864
C38	C	1.348995	0.196736	0.119136
C39	C	0.477468	-0.343512	-0.330306
C40	C	0.977468	0.156488	0.169694
C41	C	0.477571	-0.263096	-0.431594
C42	C	0.977571	0.236904	0.068406
C43	C	0.560117	-0.263085	-0.431574
C44	C	1.060117	0.236915	0.068426
C45	C	0.601342	-0.303290	-0.380921
C46	C	1.101342	0.196710	0.119079
C47	C	0.560021	-0.343505	-0.330287
C48	C	1.060021	0.156495	0.169713
C49	C	0.601444	-0.222876	-0.482213
C50	C	1.101444	0.277124	0.017787
C51	C	0.683995	-0.222864	-0.482197
C52	C	1.183995	0.277136	0.017803
C53	C	0.725222	-0.263066	-0.431539
C54	C	1.225222	0.236934	0.068461
C55	C	0.683896	-0.303282	-0.380902
C56	C	1.183896	0.196718	0.119098
C57	C	0.725121	-0.343486	-0.330248
C58	C	1.225121	0.156514	0.169752
C59	C	0.683796	-0.383700	-0.279607
C60	C	1.183796	0.116300	0.220393
C61	C	0.601248	-0.383706	-0.279629
C62	C	1.101248	0.116294	0.220371
C63	C	0.807770	-0.263059	-0.431517
C64	C	1.307770	0.236941	0.068483
C65	C	0.807674	-0.343479	-0.330229
C66	C	1.307674	0.156521	0.169771
C67	C	1.142114	-0.466830	-0.380858
C68	C	1.642114	0.033170	0.119142
C69	C	1.142142	-0.536798	-0.380866
C70	C	1.642142	-0.036798	0.119134
C71	C	1.192732	-0.569661	-0.330372
C72	C	1.692732	-0.069661	0.169628
C73	C	1.192769	-0.635404	-0.330390
C74	C	1.692769	-0.135404	0.169610
C75	C	1.142202	-0.668280	-0.380893
C76	C	1.642202	-0.168280	0.119107
C77	C	1.091609	-0.635409	-0.431396
C78	C	1.591609	-0.135409	0.068604
C79	C	1.091579	-0.569667	-0.431382
C80	C	1.591579	-0.069667	0.068618
N81	N	1.073056	-0.771543	-0.386905
N82	N	1.573056	-0.271543	0.113095
N83	N	1.073087	-0.833994	-0.386914
N84	N	1.573087	-0.333994	0.113086
C85	C	1.142291	-0.866355	-0.380938
C86	C	1.642291	-0.366355	0.119062
N87	N	1.211465	-0.833905	-0.374939
N88	N	1.711465	-0.333905	0.125061
N89	N	1.211433	-0.771448	-0.374926
N90	N	1.711433	-0.271448	0.125074
C91	C	1.142230	-0.739566	-0.380914
C92	C	1.642230	-0.239566	0.119086
C93	C	1.192925	-0.970504	-0.330462
C94	C	1.692925	-0.470504	0.169538
C95	C	1.192963	-1.036248	-0.330485
C96	C	1.692963	-0.536248	0.169515
C97	C	1.091796	-1.036251	-0.431487
C98	C	1.591796	-0.536251	0.068513
C99	C	1.091765	-0.970509	-0.431467
C100	C	1.591765	-0.470509	0.068533
C101	C	1.142328	-0.937639	-0.380951
C102	C	1.642328	-0.437639	0.119049
C103	C	1.348386	-0.303299	-0.380942
C104	C	1.848386	0.196701	0.119058
C105	C	1.436243	-0.303308	-0.380959
C106	C	1.936243	0.196692	0.119041
C107	C	1.142260	-0.303226	-0.587070
C108	C	1.642260	0.196774	-0.087070
C109	C	1.142278	-0.303203	-0.674927
C110	C	1.642278	0.196797	-0.174927
C111	C	1.142343	-0.139088	-0.380963
C112	C	1.642343	0.360912	0.119037
C113	C	1.142397	-0.069120	-0.380989
C114	C	1.642397	0.430880	0.119011
C115	C	1.091828	-0.262874	-1.046414
C116	C	1.591828	0.237126	-0.546414
C117	C	1.192868	-0.343400	-1.046391
C118	C	1.692868	0.156600	-0.546391
C119	C	1.192854	-0.343415	-0.963845
C120	C	1.692854	0.156585	-0.463845
C121	C	1.142326	-0.303159	-0.922580
C122	C	1.642326	0.196841	-0.422580
C123	C	1.091811	-0.262889	-0.963860
C124	C	1.591811	0.237111	-0.463860
C125	C	1.243362	-0.383689	-0.922559
C126	C	1.743362	0.116311	-0.422559
C127	C	1.243349	-0.383706	-0.840008
C128	C	1.743349	0.116294	-0.340008
C129	C	1.192825	-0.343446	-0.798741
C130	C	1.692825	0.156554	-0.298741
C131	C	1.142309	-0.303174	-0.840026
C132	C	1.642309	0.196826	-0.340026
C133	C	1.091781	-0.262918	-0.798761
C134	C	1.591781	0.237082	-0.298761
C135	C	1.041268	-0.222642	-0.840045
C136	C	1.541268	0.277358	-0.340045
C137	C	1.041287	-0.222629	-0.922593
C138	C	1.541287	0.277371	-0.422593
C139	C	1.192806	-0.343459	-0.716192
C140	C	1.692806	0.156541	-0.216192
C141	C	1.091764	-0.262933	-0.716207
C142	C	1.591764	0.237067	-0.216207
C143	C	1.142221	-0.303285	-0.175535
C144	C	1.642221	0.196715	0.324465
C145	C	1.142356	-0.303130	-0.087679
C146	C	1.642356	0.196870	0.412321
H147	H	0.717635	-0.190120	-0.523432
H148	H	1.217635	0.309880	-0.023432
H149	H	1.233938	-0.376247	-0.682582
H150	H	1.733938	0.123753	-0.182582
H151	H	1.050621	-0.230148	-0.682615
H152	H	1.550621	0.269852	-0.182615
Br153	Br	1.023284	-0.208212	-1.102438
Br154	Br	1.523284	0.291788	-0.602438
Br155	Br	1.261635	-1.080850	-0.261960
Br156	Br	1.761635	-0.580850	0.238040
Br157	Br	0.545160	-0.438277	-0.210908
Br158	Br	1.045160	0.061723	0.289092
Br159	Br	0.863616	-0.398039	-0.261475
Br160	Br	1.363616	0.101961	0.238525
H161	H	1.233905	-0.542901	-0.289241
H162	H	1.733905	-0.042901	0.210759
H163	H	0.567873	-0.190148	-0.523458
H164	H	1.067873	0.309852	-0.023458
Br165	Br	1.022918	-0.525063	-0.499916
Br166	Br	1.522918	-0.025063	0.000084
Br167	Br	0.972697	-0.168012	-0.784032
Br168	Br	1.472697	0.331988	-0.284032
H169	H	0.444001	-0.230367	-0.472838
H170	H	0.944001	0.269633	0.027162
Br171	Br	0.739754	-0.438267	-0.210873
Br172	Br	1.239754	0.061733	0.289127
Br173	Br	0.421389	-0.398080	-0.261576
Br174	Br	0.921389	0.101920	0.238424
Br175	Br	1.261429	-0.398038	-1.102394
Br176	Br	1.761429	0.101962	-0.602394
Br177	Br	0.863850	-0.208494	-0.500245
Br178	Br	1.363850	0.291506	-0.000245
H179	H	1.233968	-0.662167	-0.289273
H180	H	1.733968	-0.162167	0.210727
Br181	Br	1.022989	-0.680024	-0.499942
Br182	Br	1.522989	-0.180024	0.000058
Br183	Br	1.261541	-0.925892	-0.261903
Br184	Br	1.761541	-0.425892	0.238097
H185	H	1.050628	-1.063018	-0.472610
H186	H	1.550628	-0.563018	0.027390
Br187	Br	1.023102	-0.925905	-0.499996
Br188	Br	1.523102	-0.425905	0.000004
H189	H	1.000161	-0.189839	-0.956214
H190	H	1.500161	0.310161	-0.456214
H191	H	1.284479	-0.416502	-0.806401
H192	H	1.784479	0.083498	-0.306401
H193	H	1.284490	-0.416470	-0.956163
H194	H	1.784490	0.083530	-0.456163
