data_functionalizedCrystal
_audit_creation_method	'MofGen! by Chris Wilmer'
_symmetry_space_group_name_H-M	'P1'
_symmetry_Int_Tables_number	1
_symmetry_cell_setting	triclinic
loop_
_symmetry_equiv_pos_as_xyz
  x,y,z
_cell_length_a	42.795324
_cell_length_b	42.779590
_cell_length_c	42.784893
_cell_angle_alpha	119.999958
_cell_angle_beta	90.000498
_cell_angle_gamma	59.987998
loop_
_atom_site_label
_atom_site_type_symbol
_atom_site_fract_x
_atom_site_fract_y
_atom_site_fract_z
O1	O	-0.214288	-0.275767	-0.009302
O2	O	-0.168865	-0.211747	0.009251
O3	O	-0.168848	-0.275766	-0.054754
O4	O	-0.214305	-0.211749	0.054703
O5	O	-0.220834	-0.223766	-0.054750
O6	O	-0.220851	-0.159748	0.009256
O7	O	-0.266274	-0.223767	-0.009298
Cu8	Cu	-0.248309	-0.187009	-0.000021
Cu9	Cu	-0.186830	-0.248505	-0.000026
O10	O	-0.266291	-0.159749	0.054707
C11	C	-0.079112	0.005332	0.028111
C12	C	-0.098001	-0.013389	0.028378
C13	C	-0.022515	-0.051278	0.028115
C14	C	-0.041490	-0.069913	0.028382
C15	C	-0.079101	-0.051276	0.028117
C16	C	-0.041502	-0.013390	0.028377
C17	C	-0.113690	0.131594	0.017853
C18	C	-0.131508	0.167354	0.014952
C19	C	-0.168778	0.185293	0.013497
C20	C	-0.188096	0.224062	0.010345
C21	C	-0.188230	0.167471	0.014946
C22	C	-0.170415	0.131717	0.017851
C23	C	-0.133143	0.113778	0.019304
C24	C	-0.170748	-0.096092	0.017875
C25	C	-0.188679	-0.116808	0.014980
C26	C	-0.169338	-0.155545	0.013527
C27	C	-0.188774	-0.178013	0.010383
C28	C	-0.132063	-0.173563	0.014974
C29	C	-0.114135	-0.152845	0.017876
C30	C	-0.133481	-0.114107	0.019324
C31	C	0.113950	-0.096099	0.017868
C32	C	0.152599	-0.116819	0.014967
C33	C	0.171992	-0.155557	0.013515
C34	C	0.213898	-0.178026	0.010367
C35	C	0.152736	-0.173573	0.014962
C36	C	0.114089	-0.152853	0.017862
C37	C	0.094697	-0.114113	0.019318
C38	C	-0.113826	0.075006	0.022451
C39	C	-0.098429	0.044102	0.024961
C40	C	0.019389	-0.073744	0.024969
C41	C	0.052791	-0.091650	0.022463
C42	C	-0.098540	-0.073741	0.024972
C43	C	-0.114037	-0.091646	0.022467
C44	C	-0.356010	-0.440874	-0.028197
C45	C	-0.393621	-0.422150	-0.028460
C46	C	-0.356026	-0.384258	-0.028191
C47	C	-0.393638	-0.365620	-0.028454
C48	C	-0.412610	-0.384259	-0.028192
C49	C	-0.337123	-0.422149	-0.028459
C50	C	-0.264318	-0.567153	-0.017962
C51	C	-0.246372	-0.602918	-0.015069
C52	C	-0.265702	-0.620859	-0.013616
C53	C	-0.246248	-0.659634	-0.010471
C54	C	-0.302978	-0.603035	-0.015061
C55	C	-0.320918	-0.567276	-0.017959
C56	C	-0.301587	-0.549335	-0.019410
C57	C	-0.549075	-0.339439	-0.017942
C58	C	-0.587723	-0.318722	-0.015043
C59	C	-0.607121	-0.279980	-0.013583
C60	C	-0.649026	-0.257510	-0.010435
C61	C	-0.587865	-0.261960	-0.015027
C62	C	-0.549217	-0.282680	-0.017933
C63	C	-0.529825	-0.321422	-0.019388
C64	C	-0.264384	-0.339434	-0.017940
C65	C	-0.246456	-0.318712	-0.015035
C66	C	-0.265802	-0.279970	-0.013577
C67	C	-0.246366	-0.257499	-0.010426
C68	C	-0.303076	-0.261951	-0.015020
C69	C	-0.321002	-0.282673	-0.017923
C70	C	-0.301651	-0.321417	-0.019386
C71	C	-0.321046	-0.510557	-0.022550
C72	C	-0.336555	-0.479648	-0.025054
C73	C	-0.336589	-0.361790	-0.025042
C74	C	-0.321094	-0.343882	-0.022533
C75	C	-0.454516	-0.361792	-0.025043
C76	C	-0.487918	-0.343885	-0.022535
C77	C	-0.079020	-0.384495	-0.361620
C78	C	-0.041403	-0.422387	-0.380519
C79	C	-0.079020	-0.384496	-0.305021
C80	C	-0.041403	-0.422387	-0.324007
C81	C	-0.022420	-0.441111	-0.361624
C82	C	-0.097917	-0.365858	-0.324003
C83	C	-0.170704	-0.282540	-0.396173
C84	C	-0.188645	-0.261696	-0.413986
C85	C	-0.169305	-0.279587	-0.451262
C86	C	-0.188754	-0.256985	-0.470575
C87	C	-0.132024	-0.318325	-0.470726
C88	C	-0.114087	-0.339168	-0.452914
C89	C	-0.133429	-0.321274	-0.415636
C90	C	0.114068	-0.567387	-0.453312
C91	C	0.152719	-0.603152	-0.471255
C92	C	0.172111	-0.621093	-0.451918
C93	C	0.214020	-0.659866	-0.471366
C94	C	0.152845	-0.603268	-0.414636
C95	C	0.114193	-0.567510	-0.396697
C96	C	0.094807	-0.549569	-0.416039
C97	C	-0.170703	-0.282540	-0.168527
C98	C	-0.188643	-0.261694	-0.129872
C99	C	-0.169303	-0.279584	-0.110483
C100	C	-0.188752	-0.256982	-0.068571
C101	C	-0.132023	-0.318318	-0.129750
C102	C	-0.114085	-0.339162	-0.168404
C103	C	-0.133430	-0.321271	-0.187790
C104	C	-0.113975	-0.343877	-0.396325
C105	C	-0.098470	-0.361893	-0.380931
C106	C	-0.098470	-0.361893	-0.263110
C107	C	-0.113975	-0.343877	-0.229703
C108	C	0.019490	-0.479884	-0.381076
C109	C	0.052896	-0.510792	-0.396582
O110	O	0.337150	-0.223779	-0.009306
O111	O	0.227709	-0.159761	0.009240
O112	O	0.291712	-0.223787	-0.054762
O113	O	0.273148	-0.159752	0.054696
O114	O	0.291723	-0.275780	-0.054757
O115	O	0.227720	-0.211754	0.009245
O116	O	0.337161	-0.275772	-0.009301
Cu117	Cu	0.282441	-0.248510	-0.000028
Cu118	Cu	0.282429	-0.187022	-0.000034
O119	O	0.273158	-0.211745	0.054701
O120	O	-0.266145	0.327673	-0.009342
O121	O	-0.220686	0.236755	0.009214
O122	O	-0.220680	0.236741	-0.054792
O123	O	-0.266150	0.327687	0.054665
O124	O	-0.168708	0.236740	-0.054793
O125	O	-0.168714	0.236754	0.009213
O126	O	-0.214173	0.327672	-0.009343
Cu127	Cu	-0.186698	0.282213	-0.000065
Cu128	Cu	-0.248161	0.282214	-0.000063
O129	O	-0.214178	0.327686	0.054663
O130	O	0.337289	-0.763491	-0.496919
O131	O	0.227839	-0.672559	-0.451462
O132	O	0.291823	-0.672558	-0.451460
O133	O	0.273306	-0.763492	-0.496921
O134	O	0.291824	-0.672559	-0.503445
O135	O	0.227841	-0.672560	-0.503447
O136	O	0.337290	-0.763492	-0.548904
Cu137	Cu	0.282566	-0.718026	-0.530922
Cu138	Cu	0.282564	-0.718025	-0.469444
O139	O	0.273307	-0.763493	-0.548906
O140	O	-0.214310	-0.211744	-0.548617
O141	O	-0.168849	-0.275765	-0.503172
O142	O	-0.168867	-0.211745	-0.503165
O143	O	-0.214291	-0.275764	-0.548624
O144	O	-0.220852	-0.159746	-0.451176
O145	O	-0.220833	-0.223766	-0.451183
O146	O	-0.266294	-0.159746	-0.496628
Cu147	Cu	-0.248311	-0.187008	-0.469159
Cu148	Cu	-0.186833	-0.248502	-0.530641
O149	O	-0.266276	-0.223766	-0.496635
C150	C	-0.412477	0.005353	0.361577
C151	C	-0.393494	-0.013370	0.380472
C152	C	-0.355877	-0.051262	0.304974
C153	C	-0.336979	-0.069900	0.323956
C154	C	-0.355877	-0.051261	0.361573
C155	C	-0.393493	-0.013371	0.323960
C156	C	-0.548964	0.131630	0.396146
C157	C	-0.587616	0.167395	0.413963
C158	C	-0.607006	0.185335	0.451239
C159	C	-0.648917	0.224109	0.470557
C160	C	-0.587740	0.167511	0.470699
C161	C	-0.549090	0.131753	0.452884
C162	C	-0.529702	0.113812	0.415606
C163	C	-0.321313	-0.096082	0.453249
C164	C	-0.303498	-0.116799	0.471188
C165	C	-0.266223	-0.155540	0.451847
C166	C	-0.246905	-0.178010	0.471291
C167	C	-0.246762	-0.173560	0.414565
C168	C	-0.264574	-0.152839	0.396630
C169	C	-0.301854	-0.114098	0.415976
C170	C	-0.321310	-0.096084	0.168484
C171	C	-0.303496	-0.116806	0.129829
C172	C	-0.266220	-0.155546	0.110436
C173	C	-0.246903	-0.178017	0.068524
C174	C	-0.246761	-0.173566	0.129699
C175	C	-0.264577	-0.152844	0.168353
C176	C	-0.301852	-0.114100	0.187743
C177	C	-0.487792	0.075035	0.396290
C178	C	-0.454386	0.044127	0.380893
C179	C	-0.336561	-0.073729	0.263063
C180	C	-0.321165	-0.091637	0.229656
C181	C	-0.336562	-0.073728	0.381020
C182	C	-0.321167	-0.091635	0.396523
C183	C	0.310622	-0.440908	-0.361624
C184	C	0.310882	-0.422188	-0.380524
C185	C	0.310612	-0.384291	-0.305026
C186	C	0.310872	-0.365658	-0.324013
C187	C	0.310610	-0.384299	-0.361629
C188	C	0.310883	-0.422180	-0.324007
C189	C	0.300402	-0.567174	-0.396174
C190	C	0.297512	-0.602937	-0.413986
C191	C	0.296060	-0.620881	-0.451262
C192	C	0.292920	-0.659653	-0.470575
C193	C	0.297502	-0.603061	-0.470726
C194	C	0.300397	-0.567304	-0.452916
C195	C	0.301847	-0.549361	-0.415638
C196	C	0.300354	-0.339495	-0.453317
C197	C	0.297452	-0.318782	-0.471260
C198	C	0.295989	-0.280043	-0.451923
C199	C	0.292838	-0.257577	-0.471372
C200	C	0.297432	-0.262020	-0.414643
C201	C	0.300340	-0.282736	-0.396703
C202	C	0.301799	-0.321475	-0.416044
C203	C	0.300361	-0.339454	-0.168533
C204	C	0.297457	-0.318730	-0.129878
C205	C	0.295995	-0.279991	-0.110491
C206	C	0.292844	-0.257517	-0.068578
C207	C	0.297435	-0.261976	-0.129758
C208	C	0.300338	-0.282700	-0.168411
C209	C	0.301805	-0.321443	-0.187797
C210	C	0.304982	-0.510586	-0.396327
C211	C	0.307483	-0.479679	-0.380934
C212	C	0.307462	-0.361820	-0.263116
C213	C	0.304953	-0.343910	-0.229709
C214	C	0.307459	-0.361837	-0.381081
C215	C	0.304948	-0.343934	-0.396587
C216	C	0.254260	-0.050989	0.361568
C217	C	0.253988	-0.013100	0.380462
C218	C	0.254259	-0.050997	0.304965
C219	C	0.253987	-0.013108	0.323946
C220	C	0.254249	0.005619	0.361562
C221	C	0.253998	-0.069630	0.323951
C222	C	0.264525	-0.152928	0.396140
C223	C	0.267427	-0.173767	0.413957
C224	C	0.268878	-0.155873	0.451233
C225	C	0.272031	-0.178470	0.470551
C226	C	0.267425	-0.117137	0.470691
C227	C	0.264519	-0.096299	0.452876
C228	C	0.263069	-0.114196	0.415598
C229	C	0.264471	0.131893	0.453234
C230	C	0.267361	0.167657	0.471172
C231	C	0.268813	0.185592	0.451830
C232	C	0.271952	0.224364	0.471273
C233	C	0.267370	0.167764	0.414549
C234	C	0.264473	0.132008	0.396615
C235	C	0.263026	0.114072	0.415962
C236	C	0.264520	-0.152961	0.168477
C237	C	0.267425	-0.173811	0.129822
C238	C	0.268875	-0.155925	0.110429
C239	C	0.272026	-0.178531	0.068517
C240	C	0.267424	-0.117193	0.129691
C241	C	0.264521	-0.096346	0.168344
C242	C	0.263065	-0.114232	0.187735
C243	C	0.259921	-0.091599	0.396282
C244	C	0.257411	-0.073586	0.380884
C245	C	0.257408	-0.073603	0.263055
C246	C	0.259918	-0.091622	0.229647
C247	C	0.257388	0.044391	0.381009
C248	C	0.259889	0.075297	0.396510
C249	C	-0.022478	-0.051362	-0.361660
C250	C	-0.041451	-0.070002	-0.380558
C251	C	-0.079081	0.005260	-0.305060
C252	C	-0.097967	-0.013466	-0.324043
C253	C	-0.079063	-0.051362	-0.361660
C254	C	-0.041468	-0.013467	-0.324044
C255	C	0.113988	-0.096187	-0.396223
C256	C	0.152637	-0.116906	-0.414038
C257	C	0.172033	-0.155651	-0.451314
C258	C	0.213941	-0.178123	-0.470630
C259	C	0.152778	-0.173673	-0.470775
C260	C	0.114131	-0.152950	-0.452962
C261	C	0.094736	-0.114205	-0.415684
C262	C	-0.113586	-0.153326	-0.453339
C263	C	-0.131390	-0.174172	-0.471279
C264	C	-0.168660	-0.156282	-0.451940
C265	C	-0.187965	-0.178882	-0.471386
C266	C	-0.188127	-0.117540	-0.414659
C267	C	-0.170327	-0.096692	-0.396722
C268	C	-0.133052	-0.114591	-0.416067
C269	C	-0.113673	0.131553	-0.168569
C270	C	-0.131493	0.167320	-0.129914
C271	C	-0.168765	0.185263	-0.110524
C272	C	-0.188088	0.224042	-0.068611
C273	C	-0.188214	0.167436	-0.129788
C274	C	-0.170392	0.131669	-0.168441
C275	C	-0.133122	0.113733	-0.187830
C276	C	0.052831	-0.091740	-0.396370
C277	C	0.019427	-0.073831	-0.380974
C278	C	-0.098402	0.044039	-0.263149
C279	C	-0.113803	0.074951	-0.229742
C280	C	-0.098365	-0.073966	-0.381109
C281	C	-0.113751	-0.091984	-0.396613
O282	O	0.273124	-0.159827	-0.496921
O283	O	0.291693	-0.223838	-0.451465
O284	O	0.227688	-0.159834	-0.451470
O285	O	0.337129	-0.223831	-0.496916
O286	O	0.227714	-0.211845	-0.503460
O287	O	0.291719	-0.275849	-0.503455
O288	O	0.273150	-0.211838	-0.548911
Cu289	Cu	0.282437	-0.248593	-0.530930
Cu290	Cu	0.282406	-0.187083	-0.469446
O291	O	0.337155	-0.275842	-0.548906
C292	C	-0.356042	0.615789	0.361531
C293	C	-0.393655	0.634429	0.380429
C294	C	-0.356024	0.559167	0.304931
C295	C	-0.393637	0.577893	0.323915
C296	C	-0.412627	0.615789	0.361531
C297	C	-0.337138	0.577893	0.323915
C298	C	-0.264400	0.660614	0.396093
C299	C	-0.246470	0.681333	0.413908
C300	C	-0.265818	0.720078	0.451184
C301	C	-0.246382	0.742551	0.470499
C302	C	-0.303094	0.738100	0.470645
C303	C	-0.321019	0.717377	0.452832
C304	C	-0.301670	0.678632	0.415554
C305	C	-0.549111	0.717753	0.453212
C306	C	-0.587760	0.738598	0.471152
C307	C	-0.607141	0.720708	0.451813
C308	C	-0.649046	0.743309	0.471259
C309	C	-0.587868	0.681966	0.414532
C310	C	-0.549219	0.661118	0.396595
C311	C	-0.529843	0.679018	0.415939
C312	C	-0.264327	0.432873	0.168440
C313	C	-0.246381	0.397107	0.129785
C314	C	-0.265711	0.379164	0.110395
C315	C	-0.246256	0.340385	0.068483
C316	C	-0.302986	0.396991	0.129660
C317	C	-0.320930	0.432757	0.168313
C318	C	-0.301595	0.450694	0.187701
C319	C	-0.321110	0.656167	0.396240
C320	C	-0.336605	0.638258	0.380845
C321	C	-0.336568	0.520388	0.263021
C322	C	-0.321057	0.489476	0.229614
C323	C	-0.454533	0.638393	0.380981
C324	C	-0.487936	0.656411	0.396485
H325	H	0.168528	-0.205116	0.013781
C326	C	-0.192469	-0.227579	0.356797
C327	C	-0.205788	-0.216141	0.393304
H328	H	-0.167172	-0.253866	0.343672
H329	H	-0.208728	-0.232327	0.342839
H330	H	-0.192467	-0.204303	0.359123
H331	H	-0.205792	-0.239416	0.390978
H332	H	-0.189524	-0.211395	0.407265
C333	C	-0.059415	0.135075	0.017575
C334	C	-0.072724	0.111881	0.019456
H335	H	-0.034126	0.122905	0.018567
H336	H	-0.059401	0.132739	-0.005701
H337	H	-0.075691	0.165312	0.038589
H338	H	-0.056451	0.081645	-0.001560
H339	H	-0.072736	0.114213	0.042735
H340	H	-0.115654	0.181831	-0.114231
H341	H	-0.116274	-0.332884	-0.113961
C342	C	-0.282604	-0.123543	0.266284
C343	C	-0.295256	-0.111058	0.303382
H344	H	-0.256846	-0.148949	0.253585
H345	H	-0.298309	-0.130154	0.252518
H346	H	-0.284071	-0.099993	0.267592
H347	H	-0.293791	-0.134607	0.302074
H348	H	-0.279547	-0.104449	0.317151
C349	C	-0.304380	-0.086532	0.095084
C350	C	-0.324884	-0.096999	0.108655
H351	H	-0.317584	-0.074305	0.082011
H352	H	-0.302020	-0.065622	0.116027
H353	H	-0.279633	-0.112574	0.078004
H354	H	-0.349631	-0.070956	0.125738
H355	H	-0.327249	-0.117910	0.087709
C356	C	-0.451147	0.045094	0.434866
C357	C	-0.414055	0.007807	0.422208
H358	H	-0.463835	0.058172	0.460634
H359	H	-0.449840	0.065856	0.433381
H360	H	-0.464922	0.036541	0.419172
H361	H	-0.400278	0.016361	0.437901
H362	H	-0.415359	-0.012959	0.423696
H363	H	-0.186456	-0.267968	-0.184309
H364	H	0.098163	-0.064556	0.019052
H365	H	0.301583	-0.552569	-0.365822
C366	C	-0.446960	-0.412672	0.003510
C367	C	-0.414181	-0.443310	-0.029040
H368	H	-0.459651	-0.425737	0.003148
H369	H	-0.439803	-0.404121	0.025827
H370	H	-0.463660	-0.387383	0.003625
H371	H	-0.397479	-0.468598	-0.029154
H372	H	-0.421337	-0.451868	-0.051363
C373	C	-0.552722	0.135113	0.341858
C374	C	-0.527653	0.111915	0.355173
H375	H	-0.539563	0.122942	0.316564
H376	H	-0.573659	0.132781	0.341845
H377	H	-0.561940	0.165348	0.358131
H378	H	-0.518437	0.081681	0.338901
H379	H	-0.506708	0.114243	0.355183
C380	C	0.285952	0.008270	0.301454
C381	C	0.253408	0.008044	0.303372
H382	H	0.285594	0.021326	0.288752
H383	H	0.286061	0.024856	0.326620
H384	H	0.308270	-0.021223	0.287683
H385	H	0.231089	0.037537	0.317145
H386	H	0.253295	-0.008541	0.278201
C387	C	-0.528471	0.738955	0.507951
C388	C	-0.527812	0.737422	0.474476
H389	H	-0.515319	0.751095	0.521075
H390	H	-0.554243	0.756912	0.523966
H391	H	-0.516290	0.709895	0.501514
H392	H	-0.539995	0.766483	0.480914
H393	H	-0.502035	0.719465	0.458458
C394	C	-0.608500	0.660747	0.359791
C395	C	-0.609162	0.662290	0.393272
H396	H	-0.621644	0.648596	0.346665
H397	H	-0.620683	0.689801	0.366221
H398	H	-0.582723	0.642790	0.343779
H399	H	-0.634939	0.680249	0.409286
H400	H	-0.596980	0.633231	0.386842
H401	H	-0.533542	-0.268006	-0.019109
C402	C	0.264810	-0.210993	0.341853
C403	C	0.262926	-0.172598	0.355167
H404	H	0.263821	-0.223132	0.316560
H405	H	0.288084	-0.231954	0.341839
H406	H	0.243799	-0.203927	0.358128
H407	H	0.283939	-0.179664	0.338894
H408	H	0.239650	-0.151632	0.355178
C409	C	-0.646906	-0.312158	-0.010597
C410	C	-0.608888	-0.338526	-0.013452
H411	H	-0.659970	-0.324387	-0.009616
H412	H	-0.659133	-0.283096	0.012024
H413	H	-0.647396	-0.311116	-0.032266
H414	H	-0.608398	-0.339565	0.008219
H415	H	-0.596658	-0.367596	-0.036075
C416	C	0.297705	-0.207959	-0.133524
C417	C	0.295829	-0.219393	-0.108450
H418	H	0.296711	-0.181669	-0.120368
H419	H	0.320979	-0.231232	-0.154470
H420	H	0.276694	-0.203214	-0.142734
H421	H	0.316842	-0.224141	-0.099242
H422	H	0.272553	-0.196114	-0.087497
C423	C	0.303341	-0.250705	0.389083
C424	C	0.269029	-0.216346	0.392568
H425	H	0.304329	-0.276991	0.375880
H426	H	0.324344	-0.255405	0.375173
H427	H	0.304615	-0.243024	0.413836
H428	H	0.267756	-0.224025	0.367816
H429	H	0.248020	-0.211646	0.406478
C430	C	0.329247	-0.638187	-0.536571
C431	C	0.295908	-0.622786	-0.511698
H432	H	0.328263	-0.650366	-0.561866
H433	H	0.331173	-0.614341	-0.528749
H434	H	0.350914	-0.660305	-0.535970
H435	H	0.274241	-0.600665	-0.512297
H436	H	0.293978	-0.646634	-0.519522
H437	H	-0.216107	-0.333385	-0.013858
H438	H	0.098285	-0.552785	-0.469064
C439	C	0.303338	-0.128377	0.511633
C440	C	0.269025	-0.097470	0.511661
H441	H	0.304327	-0.116232	0.536927
H442	H	0.304615	-0.154421	0.502600
H443	H	0.324342	-0.135433	0.495358
H444	H	0.248020	-0.090416	0.527934
H445	H	0.267744	-0.071418	0.520699
C446	C	0.296268	-0.062274	0.483740
C447	C	0.262924	-0.053725	0.474261
H448	H	0.295284	-0.035992	0.496940
H449	H	0.298200	-0.072119	0.499687
H450	H	0.317931	-0.084506	0.461021
H451	H	0.241261	-0.031495	0.496981
H452	H	0.260987	-0.043874	0.458314
C453	C	-0.228250	0.135381	-0.164437
C454	C	-0.191772	0.112079	-0.189617
H455	H	-0.241449	0.123288	-0.177511
H456	H	-0.225883	0.133049	-0.143497
H457	H	-0.242158	0.165610	-0.155231
H458	H	-0.177863	0.081850	-0.198821
H459	H	-0.194138	0.114407	-0.210563
C460	C	0.148717	-0.599438	-0.525413
C461	C	0.173896	-0.622738	-0.512229
H462	H	0.161792	-0.611528	-0.550708
H463	H	0.127786	-0.601777	-0.525384
H464	H	0.139502	-0.569208	-0.509092
H465	H	0.183108	-0.652969	-0.528548
H466	H	0.194833	-0.620404	-0.512261
C467	C	-0.553093	0.135461	0.510753
C468	C	-0.527914	0.112164	0.474273
H469	H	-0.540020	0.123365	0.523957
H470	H	-0.562306	0.165687	0.524661
H471	H	-0.574028	0.133123	0.508381
H472	H	-0.506981	0.114504	0.476645
H473	H	-0.518696	0.081929	0.460362
C474	C	-0.293265	-0.443515	0.003523
C475	C	-0.295407	-0.443298	-0.029032
H476	H	-0.267512	-0.456571	0.003169
H477	H	-0.308984	-0.414025	0.025837
H478	H	-0.301842	-0.460103	0.003638
H479	H	-0.286832	-0.426706	-0.029145
H480	H	-0.279683	-0.472793	-0.051352
H481	H	-0.603449	0.770142	0.501505
H482	H	-0.026164	-0.438056	-0.411427
C483	C	-0.048730	0.067264	-0.203463
C484	C	-0.072704	0.111831	-0.189882
H485	H	-0.023439	0.055086	-0.216624
H486	H	-0.048722	0.064942	-0.182514
H487	H	-0.057769	0.051537	-0.220465
H488	H	-0.063667	0.127559	-0.172877
H489	H	-0.072712	0.114156	-0.210834
C490	C	-0.206618	-0.393452	-0.017651
C491	C	-0.243117	-0.382016	-0.019538
H492	H	-0.193493	-0.419737	-0.018634
H493	H	-0.192661	-0.398203	-0.038664
H494	H	-0.208949	-0.370174	0.005627
H495	H	-0.240786	-0.405293	-0.042818
H496	H	-0.257078	-0.377267	0.001476
H497	H	-0.603659	-0.230417	-0.013842
C498	C	-0.528762	0.585783	0.354813
C499	C	-0.528037	0.618537	0.355619
H500	H	-0.515687	0.559496	0.329514
H501	H	-0.516537	0.579995	0.371642
H502	H	-0.554554	0.595641	0.362728
H503	H	-0.502245	0.608680	0.347706
H504	H	-0.540261	0.624324	0.338784
C505	C	0.304780	-0.289271	-0.227610
C506	C	0.301925	-0.262901	-0.189590
H507	H	0.305757	-0.277045	-0.240683
H508	H	0.327400	-0.318333	-0.239834
H509	H	0.283115	-0.290312	-0.228096
H510	H	0.323591	-0.261863	-0.189104
H511	H	0.279302	-0.233831	-0.177362
C512	C	-0.228269	0.135421	0.017549
C513	C	-0.191794	0.112128	0.019441
H514	H	-0.241466	0.123324	0.018527
H515	H	-0.242181	0.165648	0.038562
H516	H	-0.225894	0.133081	-0.005729
H517	H	-0.194169	0.114470	0.042721
H518	H	-0.177879	0.081893	-0.001573
H519	H	0.268605	-0.102630	0.113899
H520	H	0.311310	-0.437847	-0.308765
C521	C	0.264745	0.135387	0.511010
C522	C	0.262872	0.112186	0.474501
H523	H	0.263756	0.123220	0.524138
H524	H	0.288016	0.133052	0.508688
H525	H	0.243730	0.165622	0.524965
H526	H	0.283889	0.081951	0.460545
H527	H	0.239599	0.114516	0.476821
C528	C	-0.130487	-0.209830	-0.536301
C529	C	-0.109989	-0.216756	-0.512254
H530	H	-0.117272	-0.236120	-0.561597
H531	H	-0.155228	-0.202159	-0.527351
H532	H	-0.132856	-0.186517	-0.536268
H533	H	-0.107623	-0.240067	-0.512284
H534	H	-0.085241	-0.224432	-0.521206
C535	C	-0.152288	-0.312224	-0.266330
C536	C	-0.139640	-0.324697	-0.303423
H537	H	-0.178044	-0.286813	-0.253625
H538	H	-0.150823	-0.335772	-0.267643
H539	H	-0.136577	-0.305620	-0.252563
H540	H	-0.155349	-0.331304	-0.317191
H541	H	-0.141108	-0.301144	-0.302112
H542	H	-0.216408	-0.205112	0.113908
C543	C	-0.239708	-0.141809	0.355614
C544	C	-0.243185	-0.172643	0.355654
H545	H	-0.226502	-0.154038	0.330316
H546	H	-0.264456	-0.115777	0.364566
H547	H	-0.225803	-0.134707	0.371928
H548	H	-0.257092	-0.179743	0.339342
H549	H	-0.218433	-0.198683	0.346697
C550	C	0.148617	-0.058722	-0.356164
C551	C	0.173801	-0.097102	-0.392645
H552	H	0.161685	-0.046498	-0.342956
H553	H	0.127682	-0.037811	-0.358534
H554	H	0.139411	-0.065830	-0.342259
H555	H	0.183006	-0.089993	-0.406551
H556	H	0.194744	-0.118016	-0.390277
C557	C	-0.389609	-0.311984	-0.029209
C558	C	-0.414216	-0.324467	-0.029035
H559	H	-0.402312	-0.286583	-0.029573
H560	H	-0.382460	-0.305366	-0.006886
H561	H	-0.367369	-0.335538	-0.051289
H562	H	-0.436456	-0.300914	-0.006953
H563	H	-0.421371	-0.331083	-0.051360
H564	H	-0.408735	0.002302	0.308722
H565	H	-0.318725	0.382379	0.113870
H566	H	0.301558	-0.371002	-0.184316
C567	C	0.212150	-0.658138	-0.416996
C568	C	0.174156	-0.622987	-0.393379
H569	H	0.225307	-0.670308	-0.403870
H570	H	0.212597	-0.680254	-0.439704
H571	H	0.224315	-0.647686	-0.423424
H572	H	0.161990	-0.633439	-0.386953
H573	H	0.173707	-0.600866	-0.370664
H574	H	-0.351666	-0.064537	0.469004
C575	C	-0.206552	-0.570652	-0.017709
C576	C	-0.243060	-0.547449	-0.019577
H577	H	-0.193428	-0.558490	-0.018713
H578	H	-0.208867	-0.568312	0.005570
H579	H	-0.192600	-0.600888	-0.038720
H580	H	-0.257014	-0.517212	0.001436
H581	H	-0.240747	-0.549784	-0.042858
H582	H	-0.248582	0.447477	0.184224
C583	C	0.118198	-0.571213	-0.342532
C584	C	0.093019	-0.547917	-0.355720
H585	H	0.105126	-0.559114	-0.317233
H586	H	0.127408	-0.601439	-0.358845
H587	H	0.139133	-0.568877	-0.342570
H588	H	0.072084	-0.550255	-0.355685
H589	H	0.083802	-0.517684	-0.339403
C590	C	-0.375079	0.429052	0.164306
C591	C	-0.361902	0.452353	0.189487
H592	H	-0.400374	0.441150	0.177379
H593	H	-0.375040	0.431381	0.143365
H594	H	-0.358763	0.398824	0.155103
H595	H	-0.378217	0.482581	0.198688
H596	H	-0.361944	0.450028	0.210436
H597	H	-0.318712	-0.617647	-0.013880
H598	H	-0.116316	-0.205101	0.013796
H599	H	0.311314	-0.437866	-0.411432
H600	H	-0.603298	0.181904	0.398116
H601	H	-0.218476	-0.102970	-0.398914
C602	C	-0.061449	-0.396257	-0.450797
C603	C	-0.073109	-0.381742	-0.474305
H604	H	-0.036150	-0.422541	-0.464004
H605	H	-0.062012	-0.374029	-0.428085
H606	H	-0.078274	-0.402052	-0.444366
H607	H	-0.056286	-0.375944	-0.480734
H608	H	-0.072543	-0.403976	-0.497025
C609	C	0.011898	-0.145874	-0.424417
C610	C	-0.020873	-0.111171	-0.422279
H611	H	0.024599	-0.171290	-0.450173
H612	H	0.028591	-0.137408	-0.415838
H613	H	0.004727	-0.152466	-0.408695
H614	H	-0.013702	-0.104577	-0.437999
H615	H	-0.037569	-0.119638	-0.430863
C616	C	-0.263683	-0.183118	0.203102
C617	C	-0.243186	-0.172645	0.189529
H618	H	-0.250475	-0.195343	0.216174
H619	H	-0.288429	-0.157083	0.220179
H620	H	-0.266039	-0.204036	0.182156
H621	H	-0.240833	-0.151724	0.210476
H622	H	-0.218433	-0.198683	0.172451
H623	H	-0.248641	0.629066	0.365741
H624	H	-0.351368	0.732053	0.468679
C625	C	-0.193737	-0.657683	-0.010626
C626	C	-0.205404	-0.622506	-0.013476
H627	H	-0.168444	-0.669776	-0.009644
H628	H	-0.210567	-0.647284	0.011992
H629	H	-0.194282	-0.679850	-0.032298
H630	H	-0.204861	-0.600337	0.008198
H631	H	-0.188569	-0.632904	-0.036097
H632	H	-0.083787	-0.167516	0.019056
C633	C	0.118105	-0.211032	0.017567
C634	C	0.092923	-0.172657	0.019453
H635	H	0.105037	-0.223257	0.018550
H636	H	0.139045	-0.231944	-0.005707
H637	H	0.127305	-0.203918	0.038584
H638	H	0.083725	-0.179772	-0.001566
H639	H	0.071976	-0.151741	0.042729
H640	H	-0.128905	0.002286	0.028809
C641	C	0.297806	-0.599219	-0.356112
C642	C	0.295924	-0.622520	-0.392592
H643	H	0.296824	-0.611307	-0.342904
H644	H	0.321076	-0.601558	-0.358484
H645	H	0.276791	-0.568988	-0.342206
H646	H	0.316941	-0.652751	-0.406498
H647	H	0.272651	-0.620185	-0.390221
H648	H	-0.408867	0.562219	0.308672
C649	C	-0.242806	-0.207813	-0.133872
C650	C	-0.229618	-0.219114	-0.108693
H651	H	-0.268103	-0.181527	-0.120797
H652	H	-0.226498	-0.203115	-0.143080
H653	H	-0.242766	-0.231132	-0.154813
H654	H	-0.229655	-0.195797	-0.087754
H655	H	-0.245930	-0.223810	-0.099479
C656	C	-0.074256	-0.376385	-0.525016
C657	C	-0.110764	-0.337986	-0.511696
H658	H	-0.061130	-0.388523	-0.550310
H659	H	-0.060307	-0.369328	-0.508746
H660	H	-0.076571	-0.397348	-0.525032
H661	H	-0.108448	-0.317021	-0.511677
H662	H	-0.124716	-0.345042	-0.527970
H663	H	0.296282	-0.333400	-0.114193
H664	H	0.268537	0.182168	0.501524
H665	H	-0.318843	0.769645	0.500995
C666	C	0.016173	-0.123546	0.029140
C667	C	-0.020917	-0.111064	0.028966
H668	H	0.028871	-0.148947	0.029505
H669	H	0.029941	-0.130166	0.006817
H670	H	0.014860	-0.099992	0.051220
H671	H	-0.019603	-0.134617	0.006885
H672	H	-0.034687	-0.104446	0.051292
H673	H	-0.026235	0.002203	-0.308804
C674	C	-0.106620	0.183488	-0.020947
C675	C	-0.110118	0.186935	0.013364
H676	H	-0.093414	0.195577	-0.021924
H677	H	-0.092711	0.153260	-0.041957
H678	H	-0.131366	0.199297	-0.022227
H679	H	-0.085373	0.171123	0.014642
H680	H	-0.124028	0.217169	0.034380
C681	C	-0.045553	0.045035	0.029118
C682	C	-0.020936	0.007761	0.028950
H683	H	-0.032857	0.058093	0.029475
H684	H	-0.052705	0.036475	0.006797
H685	H	-0.067792	0.065820	0.051201
H686	H	0.001301	-0.013026	0.006866
H687	H	-0.013779	0.016320	0.051273
H688	H	-0.218576	0.182082	0.013763
H689	H	0.168574	-0.205218	-0.501125
C690	C	0.148580	-0.058636	0.015269
C691	C	0.173763	-0.097014	0.013378
H692	H	0.161646	-0.046407	0.014292
H693	H	0.139380	-0.065745	-0.005745
H694	H	0.127638	-0.037725	0.038546
H695	H	0.194704	-0.117926	-0.009901
H696	H	0.182969	-0.089906	0.034393
C697	C	0.344337	-0.334250	-0.292892
C698	C	0.311442	-0.324502	-0.303447
H699	H	0.344691	-0.308844	-0.280200
H700	H	0.344214	-0.342707	-0.276188
H701	H	0.366417	-0.357806	-0.315133
H702	H	0.289362	-0.300948	-0.281206
H703	H	0.311562	-0.316040	-0.320152
H704	H	-0.351352	-0.267998	-0.019098
C705	C	-0.647048	0.222379	0.523199
C706	C	-0.609053	0.187229	0.511670
H707	H	-0.660205	0.234549	0.548492
H708	H	-0.647495	0.244497	0.522606
H709	H	-0.659212	0.211928	0.506319
H710	H	-0.596888	0.197682	0.528548
H711	H	-0.608604	0.165108	0.512266
H712	H	-0.351659	-0.064533	0.184271
C713	C	-0.253164	0.231721	-0.094903
C714	C	-0.229184	0.187156	-0.108478
H715	H	-0.278457	0.243892	-0.081751
H716	H	-0.244135	0.247454	-0.077897
H717	H	-0.253167	0.234039	-0.115856
H718	H	-0.229179	0.184838	-0.087525
H719	H	-0.238216	0.171419	-0.125485
C720	C	-0.300737	-0.204988	-0.010577
C721	C	-0.324342	-0.219370	-0.013425
H722	H	-0.313864	-0.178703	-0.009596
H723	H	-0.294313	-0.199236	0.012042
H724	H	-0.278026	-0.227268	-0.032249
H725	H	-0.347051	-0.197091	0.008249
H726	H	-0.330771	-0.225119	-0.036046
C727	C	-0.361373	-0.058623	0.525349
C728	C	-0.324891	-0.096998	0.512161
H729	H	-0.374582	-0.046402	0.550643
H730	H	-0.359012	-0.037709	0.525323
H731	H	-0.375269	-0.065736	0.509028
H732	H	-0.310994	-0.089885	0.528480
H733	H	-0.327251	-0.117917	0.512189
H734	H	-0.351267	-0.552767	-0.019137
C735	C	0.329168	-0.227920	-0.383915
C736	C	0.295830	-0.219441	-0.393388
H737	H	0.328178	-0.201633	-0.370795
H738	H	0.331101	-0.237675	-0.367897
H739	H	0.350835	-0.250198	-0.406632
H740	H	0.274163	-0.197165	-0.370671
H741	H	0.293892	-0.209680	-0.409407
H742	H	-0.219028	-0.102135	0.013802
C743	C	-0.228517	-0.042068	0.017597
C744	C	-0.192015	-0.053510	0.019474
H745	H	-0.241645	-0.015779	0.018586
H746	H	-0.226192	-0.065340	-0.005678
H747	H	-0.242471	-0.037320	0.038613
H748	H	-0.178060	-0.058262	-0.001543
H749	H	-0.194338	-0.030233	0.042752
H750	H	-0.533288	-0.370984	-0.019129
C751	C	0.061793	-0.019303	-0.355274
C752	C	0.092670	-0.053597	-0.355250
H753	H	0.048631	0.006988	-0.329979
H754	H	0.071006	-0.014562	-0.371542
H755	H	0.044798	-0.027075	-0.364314
H756	H	0.109666	-0.045826	-0.346213
H757	H	0.083457	-0.058338	-0.338977
C758	C	-0.049080	-0.374796	-0.203153
C759	C	-0.073109	-0.381739	-0.189584
H760	H	-0.023782	-0.401080	-0.216228
H761	H	-0.058034	-0.367123	-0.220227
H762	H	-0.049123	-0.351479	-0.182205
H763	H	-0.073067	-0.405053	-0.210533
H764	H	-0.064152	-0.389417	-0.172509
H765	H	-0.186457	-0.267967	-0.365821
C766	C	-0.018899	-0.412894	-0.270668
C767	C	-0.020815	-0.443540	-0.303438
H768	H	-0.006187	-0.425952	-0.257971
H769	H	-0.005146	-0.404342	-0.277842
H770	H	-0.044067	-0.387607	-0.253964
H771	H	0.004353	-0.468826	-0.320144
H772	H	-0.034567	-0.452098	-0.296265
C773	C	-0.242805	-0.207811	-0.356110
C774	C	-0.229619	-0.219116	-0.392590
H775	H	-0.268100	-0.181521	-0.342900
H776	H	-0.242769	-0.231123	-0.358480
H777	H	-0.226492	-0.203115	-0.342206
H778	H	-0.245931	-0.223815	-0.406495
H779	H	-0.229658	-0.195798	-0.390221
H780	H	0.301572	-0.552800	-0.468766
H781	H	0.301543	-0.371038	-0.469068
C782	C	0.297754	-0.376963	-0.525418
C783	C	0.295861	-0.338588	-0.512234
H784	H	0.296769	-0.389188	-0.550713
H785	H	0.321028	-0.397874	-0.525388
H786	H	0.276744	-0.369847	-0.509097
H787	H	0.316873	-0.345704	-0.528553
H788	H	0.272584	-0.317672	-0.512266
H789	H	0.268611	-0.205351	0.114140
C790	C	0.336249	-0.293764	-0.355696
C791	C	0.301936	-0.262928	-0.355731
H792	H	0.337236	-0.281532	-0.330401
H793	H	0.337529	-0.319792	-0.364638
H794	H	0.357253	-0.300873	-0.372020
H795	H	0.280931	-0.255821	-0.339408
H796	H	0.300652	-0.236892	-0.346784
H797	H	0.253588	-0.100125	0.308711
C798	C	0.253276	-0.016408	0.434830
C799	C	0.253431	0.008047	0.422179
H800	H	0.252940	-0.003358	0.460581
H801	H	0.231194	-0.016549	0.433392
H802	H	0.275593	-0.045901	0.419101
H803	H	0.231113	0.037539	0.437907
H804	H	0.275515	0.008192	0.423621
C805	C	0.264820	-0.211027	0.164721
C806	C	0.262927	-0.172625	0.189790
H807	H	0.263841	-0.223166	0.177880
H808	H	0.243812	-0.203972	0.155511
H809	H	0.288097	-0.231988	0.143773
H810	H	0.239650	-0.151662	0.210737
H811	H	0.283938	-0.179678	0.199006
C812	C	0.271810	0.222627	0.416899
C813	C	0.268963	0.187477	0.393287
H814	H	0.272797	0.234793	0.403770
H815	H	0.250141	0.244746	0.439607
H816	H	0.294426	0.212175	0.423327
H817	H	0.246345	0.197929	0.386861
H818	H	0.290634	0.165353	0.370571
H819	H	-0.128873	0.002211	-0.308802
C820	C	0.264774	0.135702	0.342446
C821	C	0.262889	0.112411	0.355638
H822	H	0.263800	0.123600	0.317147
H823	H	0.243760	0.165929	0.358756
H824	H	0.288046	0.133365	0.342481
H825	H	0.239616	0.114751	0.355606
H826	H	0.283905	0.082177	0.339323
H827	H	-0.216121	0.666658	0.398059
H828	H	0.263337	-0.064808	0.184025
C829	C	0.118154	-0.211146	-0.510828
C830	C	0.092969	-0.172762	-0.474350
H831	H	0.105089	-0.223379	-0.524030
H832	H	0.127354	-0.204043	-0.524739
H833	H	0.139095	-0.232052	-0.508453
H834	H	0.072029	-0.151855	-0.476725
H835	H	0.083763	-0.179863	-0.460436
C836	C	-0.059293	-0.211397	-0.511113
C837	C	-0.072618	-0.172996	-0.474604
H838	H	-0.034002	-0.223536	-0.524239
H839	H	-0.059276	-0.232356	-0.508792
H840	H	-0.075560	-0.204339	-0.525069
H841	H	-0.056352	-0.180054	-0.460646
H842	H	-0.072632	-0.152033	-0.476923
C843	C	-0.228196	-0.042807	-0.342556
C844	C	-0.191723	-0.054111	-0.355746
H845	H	-0.241404	-0.016522	-0.317257
H846	H	-0.242100	-0.038107	-0.358867
H847	H	-0.225819	-0.066125	-0.342592
H848	H	-0.194100	-0.030794	-0.355712
H849	H	-0.177817	-0.058809	-0.339430
H850	H	-0.408899	0.664922	0.411337
C851	C	-0.282777	0.581185	0.327958
C852	C	-0.295418	0.556731	0.303341
H853	H	-0.257020	0.568117	0.315257
H854	H	-0.298488	0.610668	0.335111
H855	H	-0.284243	0.581348	0.350199
H856	H	-0.293954	0.556571	0.281101
H857	H	-0.279702	0.527241	0.296182
H858	H	-0.216035	0.382602	0.114100
