data_functionalizedCrystal
_audit_creation_method	'MofGen! by Chris Wilmer'
_symmetry_space_group_name_H-M	'P1'
_symmetry_Int_Tables_number	1
_symmetry_cell_setting	triclinic
loop_
_symmetry_equiv_pos_as_xyz
  x,y,z
_cell_length_a	19.805406
_cell_length_b	19.805407
_cell_length_c	19.805399
_cell_angle_alpha	90.019197
_cell_angle_beta	89.982961
_cell_angle_gamma	90.003217
loop_
_atom_site_label
_atom_site_type_symbol
_atom_site_fract_x
_atom_site_fract_y
_atom_site_fract_z
Zn1	Zn	-0.269548	-1.034857	-0.382762
Zn2	Zn	0.230452	-0.534857	0.117238
Zn3	Zn	-0.382737	-1.034823	-0.269595
Zn4	Zn	0.117263	-0.534823	0.230405
Zn5	Zn	-0.269559	-0.921672	-0.269588
Zn6	Zn	0.230441	-0.421672	0.230412
Zn7	Zn	-0.382693	-0.921686	-0.382743
Zn8	Zn	0.117307	-0.421686	0.117257
O9	O	-0.326134	-0.978259	-0.326172
O10	O	0.173866	-0.478259	0.173828
O11	O	-0.284577	-1.129569	-0.367762
O12	O	0.215423	-0.629569	0.132238
O13	O	-0.367746	-1.019793	-0.174877
O14	O	0.132254	-0.519793	0.325123
O15	O	-0.174841	-0.936694	-0.284606
O16	O	0.325159	-0.436694	0.215394
O17	O	-0.367736	-1.129544	-0.284618
O18	O	0.132264	-0.629544	0.215382
O19	O	-0.174833	-1.019851	-0.367755
O20	O	0.325167	-0.519851	0.132245
O21	O	-0.284595	-0.936661	-0.174872
O22	O	0.215405	-0.436661	0.325128
O23	O	-0.284553	-0.826957	-0.284587
O24	O	0.215447	-0.326957	0.215413
O25	O	-0.367661	-0.936719	-0.477462
O26	O	0.132339	-0.436719	0.022538
O27	O	-0.367672	-0.826968	-0.367721
O28	O	0.132328	-0.326968	0.132279
O29	O	-0.284534	-1.019865	-0.477476
O30	O	0.215466	-0.519865	0.022524
O31	O	-0.477447	-1.019807	-0.284599
O32	O	0.022553	-0.519807	0.215401
O33	O	-0.477415	-0.936686	-0.367728
O34	O	0.022585	-0.436686	0.132272
C35	C	-0.326110	-0.802403	-0.326151
C36	C	0.173890	-0.302403	0.173849
C37	C	-0.326115	-0.727171	-0.326158
C38	C	0.173885	-0.227171	0.173842
C39	C	-0.282890	-0.691841	-0.369516
C40	C	0.217110	-0.191841	0.130484
C41	C	-0.282892	-0.621152	-0.369517
C42	C	0.217108	-0.121152	0.130483
C43	C	-0.326123	-0.585796	-0.326163
C44	C	0.173877	-0.085796	0.173837
C45	C	-0.369350	-0.621131	-0.282800
C46	C	0.130650	-0.121131	0.217200
C47	C	-0.369344	-0.691818	-0.282797
C48	C	0.130656	-0.191818	0.217203
C49	C	-0.369375	-0.336058	-0.282814
C50	C	0.130625	0.163942	0.217186
C51	C	-0.369379	-0.265366	-0.282823
C52	C	0.130621	0.234634	0.217177
C53	C	-0.282923	-0.265392	-0.369535
C54	C	0.217077	0.234608	0.130465
C55	C	-0.282917	-0.336079	-0.369531
C56	C	0.217083	0.163921	0.130469
C57	C	-0.326141	-0.371408	-0.326166
C58	C	0.173859	0.128592	0.173834
C59	C	-0.326137	-0.448057	-0.326165
C60	C	0.173863	0.051943	0.173835
C61	C	-0.326131	-0.509149	-0.326167
C62	C	0.173869	-0.009149	0.173833
C63	C	-0.501990	-0.978262	-0.326177
C64	C	-0.001990	-0.478262	0.173823
C65	C	-0.577222	-0.978325	-0.326202
C66	C	-0.077222	-0.478325	0.173798
C67	C	-0.149592	-0.978275	-0.326182
C68	C	0.350408	-0.478275	0.173818
C69	C	-0.074360	-0.978281	-0.326186
C70	C	0.425640	-0.478281	0.173814
C71	C	-0.039001	-0.935007	-0.369466
C72	C	0.460999	-0.435007	0.130534
C73	C	0.031688	-0.935015	-0.369471
C74	C	0.531688	-0.435015	0.130529
C75	C	0.067016	-0.978295	-0.326192
C76	C	0.567016	-0.478295	0.173808
C77	C	0.031652	-1.021574	-0.282910
C78	C	0.531652	-0.521574	0.217090
C79	C	-0.039035	-1.021569	-0.282909
C80	C	0.460965	-0.521569	0.217091
C81	C	0.316725	-1.021597	-0.282915
C82	C	0.816725	-0.521597	0.217085
C83	C	0.387417	-1.021597	-0.282918
C84	C	0.887417	-0.521597	0.217082
C85	C	0.387448	-0.935043	-0.369477
C86	C	0.887448	-0.435043	0.130523
C87	C	0.316761	-0.935038	-0.369476
C88	C	0.816761	-0.435038	0.130524
C89	C	0.281403	-0.978319	-0.326196
C90	C	0.781403	-0.478319	0.173804
C91	C	0.204755	-0.978311	-0.326192
C92	C	0.704755	-0.478311	0.173808
C93	C	0.143663	-0.978300	-0.326192
C94	C	0.643663	-0.478300	0.173808
C95	C	-0.326092	-0.978297	-0.502715
C96	C	0.173908	-0.478297	-0.002715
C97	C	-0.326074	-0.978313	-0.577947
C98	C	0.173926	-0.478313	-0.077947
C99	C	-0.326155	-0.154802	-0.326187
C100	C	0.173845	0.345198	0.173813
C101	C	-0.326150	-0.230034	-0.326178
C102	C	0.173850	0.269966	0.173822
C103	C	-0.282787	-1.021609	-0.613300
C104	C	0.217213	-0.521609	-0.113300
C105	C	-0.282768	-1.021616	-0.683988
C106	C	0.217232	-0.521616	-0.183988
C107	C	-0.326038	-0.978330	-0.719322
C108	C	0.173962	-0.478330	-0.219322
C109	C	-0.369327	-0.935030	-0.683965
C110	C	0.130673	-0.435030	-0.183965
C111	C	-0.369342	-0.935020	-0.613277
C112	C	0.130658	-0.435020	-0.113277
C113	C	-0.369263	-0.935068	-0.969038
C114	C	0.130737	-0.435068	-0.469038
C115	C	-0.369246	-0.935083	-1.039730
C116	C	0.130754	-0.435083	-0.539730
C117	C	-0.282689	-1.021664	-1.039749
C118	C	0.217311	-0.521664	-0.539749
C119	C	-0.282704	-1.021654	-0.969062
C120	C	0.217296	-0.521654	-0.469062
C121	C	-0.325990	-0.978352	-0.933710
C122	C	0.174010	-0.478352	-0.433710
C123	C	-0.326010	-0.978344	-0.857061
C124	C	0.173990	-0.478344	-0.357061
C125	C	-0.326022	-0.978341	-0.795970
C126	C	0.173978	-0.478341	-0.295970
C127	C	-0.326128	-0.978260	-0.150316
C128	C	0.173872	-0.478260	0.349684
C129	C	-0.325955	-0.978375	-0.075084
C130	C	0.174045	-0.478375	0.424916
H131	H	-0.404585	-0.236580	-0.247516
H132	H	0.095415	0.263420	0.252484
H133	H	-0.404556	-0.899784	-0.712739
H134	H	0.095444	-0.399784	-0.212739
F135	F	0.069253	-1.067640	-0.236853
F136	F	0.569253	-0.567640	0.263147
H137	H	-0.404584	-0.899758	-0.584494
H138	H	0.095416	-0.399758	-0.084494
H139	H	-0.247688	-0.720623	-0.404822
H140	H	0.252312	-0.220623	0.095178
H141	H	-0.247696	-0.592390	-0.404825
H142	H	0.252304	-0.092390	0.095175
F143	F	-0.236908	-0.373705	-0.415677
F144	F	0.263092	0.126295	0.084323
F145	F	0.279104	-1.067660	-0.236852
F146	F	0.779104	-0.567660	0.263148
F147	F	-0.415366	-0.373649	-0.236650
F148	F	0.084634	0.126351	0.263350
F149	F	-0.236918	-0.227787	-0.415686
F150	F	0.263082	0.272213	0.084314
H151	H	-0.404547	-0.592338	-0.247498
H152	H	0.095453	-0.092338	0.252502
H153	H	-0.404542	-0.720583	-0.247490
H154	H	0.095458	-0.220583	0.252510
H155	H	-0.067760	-0.899764	-0.404710
H156	H	0.432240	-0.399764	0.095290
H157	H	0.288000	-0.899793	-0.404716
H158	H	0.788000	-0.399793	0.095284
F159	F	0.069316	-0.888958	-0.415538
F160	F	0.569316	-0.388958	0.084462
H161	H	0.416244	-0.899803	-0.404719
H162	H	0.916244	-0.399803	0.095281
H163	H	0.416181	-1.056843	-0.247673
H164	H	0.916181	-0.556843	0.252327
H165	H	-0.247441	-1.056920	-1.068541
H166	H	0.252559	-0.556920	-0.568541
F167	F	-0.076666	-1.067629	-0.236846
F168	F	0.423334	-0.567629	0.263154
H169	H	-0.247553	-1.056859	-0.584536
H170	H	0.252447	-0.556859	-0.084536
H171	H	-0.247521	-1.056872	-0.712769
H172	H	0.252479	-0.556872	-0.212769
H173	H	-0.247471	-1.056903	-0.940296
H174	H	0.252529	-0.556903	-0.440296
F175	F	-0.415302	-0.889010	-1.077334
F176	F	0.084698	-0.389010	-0.577334
H177	H	-0.404519	-0.899819	-0.940263
H178	H	0.095481	-0.399819	-0.440263
