data_functionalizedCrystal
_audit_creation_method	'MofGen! by Chris Wilmer'
_symmetry_space_group_name_H-M	'P1'
_symmetry_Int_Tables_number	1
_symmetry_cell_setting	triclinic
loop_
_symmetry_equiv_pos_as_xyz
  x,y,z
_cell_length_a	16.959455
_cell_length_b	16.959454
_cell_length_c	18.215399
_cell_angle_alpha	89.976304
_cell_angle_beta	89.981058
_cell_angle_gamma	90.019503
loop_
_atom_site_label
_atom_site_type_symbol
_atom_site_fract_x
_atom_site_fract_y
_atom_site_fract_z
Zn1	Zn	1.208417	-0.314702	-0.416120
Zn2	Zn	1.541750	0.018632	-0.082787
Zn3	Zn	1.875084	0.351965	0.250547
Zn4	Zn	1.208330	-0.446887	-0.293063
Zn5	Zn	1.541663	-0.113554	0.040270
Zn6	Zn	1.874996	0.219780	0.373604
Zn7	Zn	1.076236	-0.314725	-0.293069
Zn8	Zn	1.409569	0.018608	0.040264
Zn9	Zn	1.742902	0.351941	0.373597
Zn10	Zn	1.076210	-0.446841	-0.416090
Zn11	Zn	1.409543	-0.113507	-0.082756
Zn12	Zn	1.742877	0.219826	0.250577
O13	O	1.142298	-0.380789	-0.354586
O14	O	1.475631	-0.047455	-0.021252
O15	O	1.808965	0.285878	0.312081
O16	O	1.319016	-0.332246	-0.399806
O17	O	1.652349	0.001087	-0.066473
O18	O	1.985683	0.334421	0.266860
O19	O	1.190781	-0.429385	-0.190080
O20	O	1.524115	-0.096051	0.143254
O21	O	1.857448	0.237282	0.476587
O22	O	1.093817	-0.204111	-0.309408
O23	O	1.427150	0.129222	0.023926
O24	O	1.760484	0.462555	0.357259
O25	O	1.318952	-0.429362	-0.309397
O26	O	1.652285	-0.096029	0.023937
O27	O	1.985619	0.237305	0.357270
O28	O	1.190930	-0.204094	-0.399813
O29	O	1.524263	0.129239	-0.066479
O30	O	1.857597	0.462573	0.266854
O31	O	1.093732	-0.332286	-0.190084
O32	O	1.427066	0.001047	0.143249
O33	O	1.760399	0.334381	0.476582
O34	O	0.965621	-0.332241	-0.309378
O35	O	1.298955	0.001092	0.023955
O36	O	1.632288	0.334426	0.357288
O37	O	1.093773	-0.429283	-0.519078
O38	O	1.427107	-0.095950	-0.185745
O39	O	1.760440	0.237384	0.147589
O40	O	0.965602	-0.429306	-0.399761
O41	O	1.298936	-0.095972	-0.066428
O42	O	1.632269	0.237361	0.266906
O43	O	1.190905	-0.332201	-0.519100
O44	O	1.524238	0.001132	-0.185767
O45	O	1.857572	0.334466	0.147566
O46	O	1.190756	-0.557492	-0.309367
O47	O	1.524090	-0.224159	0.023966
O48	O	1.857423	0.109175	0.357299
O49	O	1.093689	-0.557458	-0.399755
O50	O	1.427022	-0.224124	-0.066421
O51	O	1.760355	0.109209	0.266912
C52	C	0.936932	-0.380772	-0.354567
C53	C	1.270265	-0.047438	-0.021234
C54	C	1.603598	0.285895	0.312099
C55	C	0.849075	-0.380783	-0.354577
C56	C	1.182408	-0.047450	-0.021244
C57	C	1.515742	0.285883	0.312090
C58	C	0.807766	-0.431275	-0.307438
C59	C	1.141099	-0.097942	0.025895
C60	C	1.474433	0.235392	0.359229
C61	C	0.807831	-0.330298	-0.401722
C62	C	1.141164	0.003036	-0.068389
C63	C	1.474497	0.336369	0.264945
C64	C	0.725285	-0.330304	-0.401731
C65	C	1.058618	0.003030	-0.068397
C66	C	1.391952	0.336363	0.264936
C67	C	0.683976	-0.380796	-0.354592
C68	C	1.017309	-0.047462	-0.021258
C69	C	1.350642	0.285871	0.312075
C70	C	0.725212	-0.431281	-0.307444
C71	C	1.058546	-0.097948	0.025889
C72	C	1.391879	0.235385	0.359223
C73	C	0.684042	-0.279813	-0.448873
C74	C	1.017375	0.053520	-0.115539
C75	C	1.350709	0.386853	0.217794
C76	C	0.601491	-0.279817	-0.448883
C77	C	0.934825	0.053516	-0.115549
C78	C	1.268158	0.386850	0.217784
C79	C	0.560180	-0.330314	-0.401747
C80	C	0.893514	0.003020	-0.068413
C81	C	1.226847	0.336353	0.264920
C82	C	0.601422	-0.380802	-0.354598
C83	C	0.934756	-0.047468	-0.021264
C84	C	1.268089	0.285865	0.312069
C85	C	0.560113	-0.431294	-0.307458
C86	C	0.893446	-0.097960	0.025875
C87	C	1.226780	0.235373	0.359208
C88	C	0.601353	-0.481786	-0.260312
C89	C	0.934686	-0.148453	0.073021
C90	C	1.268020	0.184880	0.406354
C91	C	0.683902	-0.481778	-0.260308
C92	C	1.017235	-0.148444	0.073025
C93	C	1.350568	0.184889	0.406359
C94	C	0.477632	-0.330322	-0.401751
C95	C	0.810965	0.003011	-0.068418
C96	C	1.144299	0.336344	0.264915
C97	C	0.477559	-0.431300	-0.307464
C98	C	0.810893	-0.097966	0.025869
C99	C	1.144226	0.235367	0.359202
C100	C	1.142232	-0.586155	-0.354573
C101	C	1.475565	-0.252822	-0.021240
C102	C	1.808898	0.080512	0.312094
C103	C	1.142276	-0.674012	-0.354592
C104	C	1.475609	-0.340678	-0.021259
C105	C	1.808942	-0.007345	0.312074
C106	C	1.091828	-1.045499	-0.401645
C107	C	1.425162	-0.712166	-0.068312
C108	C	1.758495	-0.378833	0.265022
C109	C	1.192988	-1.045475	-0.307601
C110	C	1.526321	-0.712142	0.025732
C111	C	1.859655	-0.378808	0.359066
C112	C	1.192960	-0.962929	-0.307594
C113	C	1.526294	-0.629596	0.025739
C114	C	1.859627	-0.296262	0.359073
C115	C	1.142365	-0.921664	-0.354613
C116	C	1.475698	-0.588331	-0.021279
C117	C	1.809032	-0.254998	0.312054
C118	C	1.091797	-0.962946	-0.401638
C119	C	1.425131	-0.629612	-0.068305
C120	C	1.758464	-0.296279	0.265028
C121	C	1.243521	-0.921641	-0.260564
C122	C	1.576855	-0.588308	0.072769
C123	C	1.910188	-0.254975	0.406102
C124	C	1.243495	-0.839091	-0.260555
C125	C	1.576829	-0.505757	0.072778
C126	C	1.910162	-0.172424	0.406112
C127	C	1.192903	-0.797825	-0.307578
C128	C	1.526237	-0.464491	0.025755
C129	C	1.859570	-0.131158	0.359089
C130	C	1.142334	-0.839111	-0.354606
C131	C	1.475668	-0.505778	-0.021273
C132	C	1.809001	-0.172444	0.312061
C133	C	1.091739	-0.797846	-0.401625
C134	C	1.425072	-0.464513	-0.068291
C135	C	1.758406	-0.131180	0.265042
C136	C	1.041173	-0.839131	-0.448657
C137	C	1.374506	-0.505798	-0.115324
C138	C	1.707840	-0.172465	0.218010
C139	C	1.041205	-0.921680	-0.448661
C140	C	1.374539	-0.588346	-0.115328
C141	C	1.707872	-0.255013	0.218005
C142	C	1.192871	-0.715276	-0.307574
C143	C	1.526204	-0.381943	0.025760
C144	C	1.859538	-0.048609	0.359093
C145	C	1.091708	-0.715293	-0.401618
C146	C	1.425041	-0.381960	-0.068284
C147	C	1.758375	-0.048626	0.265049
C148	C	1.348466	-0.380807	-0.354604
C149	C	1.681799	-0.047473	-0.021271
C150	C	2.015133	0.285860	0.312062
C151	C	1.436323	-0.380814	-0.354612
C152	C	1.769656	-0.047481	-0.021279
C153	C	2.102989	0.285853	0.312055
C154	C	1.142346	-0.380734	-0.546539
C155	C	1.475679	-0.047401	-0.213205
C156	C	1.809013	0.285932	0.120128
C157	C	1.142367	-0.380711	-0.628338
C158	C	1.475700	-0.047378	-0.295004
C159	C	1.809033	0.285956	0.038329
C160	C	1.142386	-0.174620	-0.354614
C161	C	1.475719	0.158713	-0.021281
C162	C	1.809053	0.492046	0.312052
C163	C	1.142424	-0.086764	-0.354626
C164	C	1.475757	0.246569	-0.021293
C165	C	1.809090	0.579903	0.312040
C166	C	1.192961	-0.330113	-0.816544
C167	C	1.526295	0.003220	-0.483211
C168	C	1.859628	0.336554	-0.149878
C169	C	1.192971	-0.330090	-0.893403
C170	C	1.526304	0.003243	-0.560070
C171	C	1.859637	0.336577	-0.226736
C172	C	1.091828	-0.431187	-0.893369
C173	C	1.425161	-0.097853	-0.560035
C174	C	1.758494	0.235480	-0.226702
C175	C	1.091815	-0.431205	-0.816511
C176	C	1.425148	-0.097872	-0.483178
C177	C	1.758482	0.235462	-0.149845
C178	C	1.142386	-0.380670	-0.778101
C179	C	1.475720	-0.047336	-0.444768
C180	C	1.809053	0.285997	-0.111434
C181	C	1.142409	-0.380628	-0.931817
C182	C	1.475742	-0.047295	-0.598484
C183	C	1.809075	0.286039	-0.265151
C184	C	1.142418	-0.380603	-1.015151
C185	C	1.475752	-0.047270	-0.681818
C186	C	1.809085	0.286063	-0.348484
C187	C	1.142376	-0.380693	-0.694762
C188	C	1.475709	-0.047360	-0.361429
C189	C	1.809042	0.285974	-0.028095
C190	C	1.142296	-0.380786	-0.163379
C191	C	1.475629	-0.047453	0.169954
C192	C	1.808962	0.285881	0.503287
C193	C	1.142428	-0.380587	-0.081581
C194	C	1.475761	-0.047253	0.251753
C195	C	1.809095	0.286080	0.585086
H196	H	0.717487	-0.522884	-0.221922
H197	H	1.050820	-0.189551	0.111411
H198	H	1.384153	0.143782	0.444744
H199	H	1.050661	-1.079117	-0.439940
H200	H	1.383994	-0.745784	-0.106606
H201	H	1.717328	-0.412451	0.226727
H202	H	1.234176	-1.079077	-0.269316
H203	H	1.567509	-0.745744	0.064017
H204	H	1.900842	-0.412411	0.397351
Cl205	Cl	0.859608	-0.494751	-0.248174
Cl206	Cl	1.192941	-0.161418	0.085159
Cl207	Cl	1.526274	0.171915	0.418492
H208	H	0.567920	-0.238704	-0.487273
H209	H	0.901254	0.094629	-0.153940
H210	H	1.234587	0.427963	0.179394
H211	H	1.050656	-0.472333	-0.924652
H212	H	1.383990	-0.138999	-0.591318
H213	H	1.717323	0.194334	-0.257985
Cl214	Cl	1.256425	-0.663379	-0.248445
Cl215	Cl	1.589759	-0.330045	0.084889
Cl216	Cl	1.923092	0.003288	0.418222
Cl217	Cl	0.735977	-0.216343	-0.508129
Cl218	Cl	1.069310	0.116991	-0.174795
Cl219	Cl	1.402643	0.450324	0.158538
Cl220	Cl	1.028225	-0.494763	-0.768179
Cl221	Cl	1.361558	-0.161429	-0.434846
Cl222	Cl	1.694892	0.171904	-0.101512
H223	H	0.444058	-0.289206	-0.440131
H224	H	0.777391	0.044127	-0.106798
H225	H	1.110725	0.377461	0.226535
Cl226	Cl	0.977642	-0.973585	-0.507780
Cl227	Cl	1.310975	-0.640252	-0.174447
Cl228	Cl	1.644308	-0.306919	0.158887
Cl229	Cl	1.307069	-0.787197	-0.201437
Cl230	Cl	1.640402	-0.453864	0.131897
Cl231	Cl	1.973736	-0.120530	0.465230
Cl232	Cl	0.425634	-0.494783	-0.248204
Cl233	Cl	0.758968	-0.161450	0.085130
Cl234	Cl	1.092301	0.171884	0.418463
Cl235	Cl	1.256533	-0.266580	-0.768260
Cl236	Cl	1.589867	0.066754	-0.434926
Cl237	Cl	1.923200	0.400087	-0.101593
Cl238	Cl	1.307127	-0.973520	-0.201464
Cl239	Cl	1.640461	-0.640186	0.131870
Cl240	Cl	1.973794	-0.306853	0.465203
H241	H	1.234153	-0.288921	-0.924700
H242	H	1.567486	0.044413	-0.591367
H243	H	1.900820	0.377746	-0.258034
H244	H	0.841470	-0.289186	-0.440097
H245	H	1.174803	0.044148	-0.106764
H246	H	1.508136	0.377481	0.226570
H247	H	1.050510	-0.681700	-0.439909
H248	H	1.383843	-0.348367	-0.106576
H249	H	1.717177	-0.015034	0.226758
H250	H	0.999974	-0.805524	-0.486937
H251	H	1.333308	-0.472191	-0.153603
H252	H	1.666641	-0.138858	0.179730
Cl253	Cl	0.549412	-0.545254	-0.201049
Cl254	Cl	0.882745	-0.211920	0.132284
Cl255	Cl	1.216079	0.121413	0.465617
