data_functionalizedCrystal
_audit_creation_method	'MofGen! by Chris Wilmer'
_symmetry_space_group_name_H-M	'P1'
_symmetry_Int_Tables_number	1
_symmetry_cell_setting	triclinic
loop_
_symmetry_equiv_pos_as_xyz
  x,y,z
_cell_length_a	27.731994
_cell_length_b	11.792241
_cell_length_c	10.868271
_cell_angle_alpha	89.998441
_cell_angle_beta	89.998228
_cell_angle_gamma	96.593025
loop_
_atom_site_label
_atom_site_type_symbol
_atom_site_fract_x
_atom_site_fract_y
_atom_site_fract_z
O1	O	0.641726	-0.134741	0.102148
O2	O	1.141726	0.365259	0.602148
O3	O	0.501049	-0.155339	0.102188
O4	O	1.001049	0.344661	0.602188
O5	O	0.574801	0.020241	0.102158
O6	O	1.074801	0.520241	0.602158
O7	O	0.567974	-0.310321	0.102178
O8	O	1.067974	0.189679	0.602178
O9	O	0.574795	0.020235	-0.102486
O10	O	1.074795	0.520235	0.397514
O11	O	0.501042	-0.155344	-0.102456
O12	O	1.001042	0.344656	0.397544
O13	O	0.641720	-0.134747	-0.102497
O14	O	1.141720	0.365253	0.397503
Zn15	Zn	0.571380	-0.145047	-0.134968
Zn16	Zn	1.071380	0.354953	0.365032
Zn17	Zn	0.571389	-0.145039	0.134660
Zn18	Zn	1.071389	0.354961	0.634660
O19	O	0.567967	-0.310327	-0.102467
O20	O	1.067967	0.189673	0.397533
C21	C	0.483035	-0.154919	-0.000129
C22	C	0.983035	0.345081	0.499871
C23	C	0.429372	-0.153645	-0.000113
C24	C	0.929372	0.346355	0.499887
C25	C	0.096603	-0.145629	-0.111713
C26	C	0.596603	0.354371	0.388287
C27	C	-0.105083	-0.140789	-0.111727
C28	C	0.394917	0.359211	0.388273
O29	O	-0.131163	-0.140117	-0.206598
O30	O	0.368837	0.359883	0.293402
N31	N	-0.130298	-0.140184	-0.000176
N32	N	0.369702	0.359816	0.499824
C33	C	-0.105087	-0.140783	0.111388
C34	C	0.394913	0.359217	0.611388
O35	O	-0.131161	-0.140146	0.206269
O36	O	0.368839	0.359854	0.706269
C37	C	0.096598	-0.145615	0.111401
C38	C	0.596598	0.354385	0.611401
C39	C	0.121810	-0.146231	-0.000158
C40	C	0.621810	0.353769	0.499842
C41	C	0.121815	-0.146244	-0.223263
C42	C	0.621815	0.353756	0.276737
C43	C	0.172233	-0.147460	-0.223258
C44	C	0.672233	0.352540	0.276742
C45	C	0.197439	-0.148062	-0.111704
C46	C	0.697439	0.351938	0.388296
C47	C	0.172228	-0.147447	-0.000154
C48	C	0.672228	0.352553	0.499846
C49	C	0.121808	-0.146205	0.222962
C50	C	0.621808	0.353795	0.722962
C51	C	0.172233	-0.147410	0.222956
C52	C	0.672233	0.352590	0.722956
C53	C	0.197444	-0.148026	0.111397
C54	C	0.697444	0.351974	0.611397
C55	C	0.247853	-0.149265	0.111406
C56	C	0.747853	0.350735	0.611406
N57	N	0.273067	-0.149869	-0.000146
N58	N	0.773067	0.350131	0.499854
C59	C	0.247861	-0.149267	-0.111701
C60	C	0.747861	0.350733	0.388299
C61	C	-0.210975	-0.138248	0.111373
C62	C	0.289025	0.361752	0.611373
C63	C	-0.261397	-0.137042	0.111370
C64	C	0.238603	0.362958	0.611370
C65	C	-0.261389	-0.137046	-0.111745
C66	C	0.238611	0.362954	0.388255
C67	C	-0.210967	-0.138260	-0.111741
C68	C	0.289033	0.361740	0.388259
C69	C	-0.185761	-0.138852	-0.000179
C70	C	0.314239	0.361148	0.499821
C71	C	0.353743	-0.151823	-0.111682
C72	C	0.853743	0.348177	0.388318
C73	C	0.404165	-0.153044	-0.111668
C74	C	0.904165	0.346956	0.388332
C75	C	0.404153	-0.153034	0.111447
C76	C	0.904153	0.346966	0.611447
C77	C	0.353735	-0.151819	0.111433
C78	C	0.853735	0.348181	0.611433
C79	C	0.328531	-0.151209	-0.000142
C80	C	0.828531	0.348791	0.499858
O81	O	0.273964	-0.149925	0.206226
O82	O	0.773964	0.350075	0.706226
O83	O	0.273945	-0.149879	-0.206568
O84	O	0.773945	0.350121	0.293432
C85	C	0.046185	-0.144413	-0.111718
C86	C	0.546185	0.355587	0.388282
C87	C	0.020973	-0.143798	-0.000168
C88	C	0.520973	0.356202	0.499832
C89	C	0.046180	-0.144400	0.111387
C90	C	0.546180	0.355600	0.611387
C91	C	-0.029448	-0.142592	-0.000171
C92	C	0.470552	0.357408	0.499829
C93	C	-0.054655	-0.141991	-0.111725
C94	C	0.445345	0.358009	0.388275
C95	C	-0.029440	-0.142595	-0.223277
C96	C	0.470560	0.357405	0.276723
C97	C	0.020978	-0.143811	-0.223272
C98	C	0.520978	0.356189	0.276728
C99	C	0.020965	-0.143796	0.222938
C100	C	0.520965	0.356204	0.722938
C101	C	-0.029453	-0.142581	0.222925
C102	C	0.470547	0.357419	0.722925
C103	C	-0.054660	-0.141979	0.111370
C104	C	0.445340	0.358021	0.611370
C105	C	0.574369	0.062515	-0.000163
C106	C	1.074369	0.562515	0.499837
C107	C	0.573085	0.188487	-0.000162
C108	C	1.073085	0.688487	0.499838
C109	C	0.659733	-0.135167	-0.000177
C110	C	1.159733	0.364833	0.499823
C111	C	0.713397	-0.136440	-0.000185
C112	C	1.213397	0.363560	0.499815
C113	C	0.568399	-0.352601	-0.000142
C114	C	1.068399	0.147399	0.499858
C115	C	0.569683	-0.478573	-0.000136
C116	C	1.069683	0.021427	0.499864
N117	N	0.571377	-0.145051	-0.318982
N118	N	1.071377	0.354949	0.181018
C119	C	0.570725	0.419123	-0.000141
C120	C	1.070725	0.919123	0.499859
C121	C	0.572036	0.290780	-0.000152
C122	C	1.072036	0.790780	0.499848
C123	C	0.571381	-0.145051	-0.430320
C124	C	1.071381	0.354949	0.069680
C125	C	0.571387	-0.145041	-0.569998
C126	C	1.071387	0.354959	-0.069998
N127	N	0.571395	-0.145026	0.318674
N128	N	1.071395	0.354974	0.818674
H129	H	0.101290	-0.145702	0.313806
H130	H	0.601290	0.354298	0.813806
H131	H	0.192753	-0.147893	0.313806
H132	H	0.692753	0.352107	0.813806
C133	C	-0.183239	-0.138926	-0.234463
C134	C	0.316761	0.361074	0.265537
N135	N	-0.162356	-0.139424	-0.326903
N136	N	0.337644	0.360576	0.173097
H137	H	-0.281921	-0.136559	-0.202578
H138	H	0.218079	0.363441	0.297422
H139	H	0.424690	-0.153549	-0.202517
H140	H	0.924690	0.346451	0.297483
H141	H	0.192756	-0.147954	-0.314101
H142	H	0.692756	0.352046	0.185899
C143	C	0.326001	-0.151154	0.234153
C144	C	0.826001	0.348846	0.734153
N145	N	0.305115	-0.150644	0.326588
N146	N	0.805115	0.349356	0.826588
H147	H	0.041501	-0.144312	-0.314115
H148	H	0.541501	0.355688	0.185885
H149	H	0.101297	-0.145751	-0.314109
H150	H	0.601297	0.354249	0.185891
C151	C	-0.289124	-0.136374	0.234094
C152	C	0.210876	0.363626	0.734094
N153	N	-0.310006	-0.135862	0.326533
N154	N	0.189994	0.364138	0.826533
C155	C	-0.183255	-0.138899	0.234109
C156	C	0.316745	0.361101	0.734109
N157	N	-0.162378	-0.139391	0.326555
N158	N	0.337622	0.360609	0.826555
H159	H	0.041484	-0.144282	0.313782
H160	H	0.541484	0.355718	0.813782
H161	H	0.333227	-0.151337	-0.202537
H162	H	0.833227	0.348663	0.297463
C163	C	0.431890	-0.153688	0.234151
C164	C	0.931890	0.346312	0.734151
N165	N	0.452784	-0.154170	0.326572
N166	N	0.952784	0.345830	0.826572
C167	C	-0.057177	-0.141930	-0.345988
C168	C	0.442823	0.358070	0.154012
N169	N	-0.078070	-0.141422	-0.438408
N170	N	0.421930	0.358578	0.061592
H171	H	-0.049976	-0.142089	0.313776
H172	H	0.450024	0.357911	0.813776
