data_functionalizedCrystal
_audit_creation_method	'MofGen! by Chris Wilmer'
_symmetry_space_group_name_H-M	'P1'
_symmetry_Int_Tables_number	1
_symmetry_cell_setting	triclinic
loop_
_symmetry_equiv_pos_as_xyz
  x,y,z
_cell_length_a	25.639239
_cell_length_b	16.959455
_cell_length_c	16.959447
_cell_angle_alpha	90.014322
_cell_angle_beta	89.966924
_cell_angle_gamma	89.964367
loop_
_atom_site_label
_atom_site_type_symbol
_atom_site_fract_x
_atom_site_fract_y
_atom_site_fract_z
Zn1	Zn	-0.208183	-1.208282	-0.446894
Zn2	Zn	-0.295624	-1.208161	-0.314709
Zn3	Zn	-0.208199	-1.076110	-0.314731
Zn4	Zn	-0.295585	-1.076032	-0.446847
O5	O	-0.251898	-1.142146	-0.380795
O6	O	-0.219792	-1.318876	-0.429369
O7	O	-0.284050	-1.190627	-0.204101
O8	O	-0.135032	-1.093726	-0.332291
O9	O	-0.284034	-1.318788	-0.332253
O10	O	-0.135020	-1.190832	-0.429391
O11	O	-0.219820	-1.093609	-0.204117
O12	O	-0.219782	-0.965489	-0.332247
O13	O	-0.283967	-1.093593	-0.557464
O14	O	-0.283983	-0.965431	-0.429312
O15	O	-0.219754	-1.190756	-0.557498
O16	O	-0.368784	-1.190551	-0.332208
O17	O	-0.368755	-1.093476	-0.429290
C18	C	-0.251880	-0.936780	-0.380777
C19	C	-0.251886	-0.848923	-0.380788
C20	C	-0.387740	-1.142013	-0.380759
C21	C	-0.445854	-1.142029	-0.380770
C22	C	-0.251854	-1.142179	-0.586963
C23	C	-0.251836	-1.142193	-0.674820
C24	C	-0.806220	-1.192825	-0.330331
C25	C	-0.860824	-1.192855	-0.330341
O26	O	-0.889063	-1.235906	-0.287417
N27	N	-0.888137	-1.142285	-0.380847
C28	C	-0.860842	-1.091686	-0.431352
O29	O	-0.889088	-1.048675	-0.474313
C30	C	-0.806239	-1.091660	-0.431345
C31	C	-0.778929	-1.142228	-0.380830
C32	C	-0.778910	-1.243389	-0.279820
C33	C	-0.724309	-1.243358	-0.279809
C34	C	-0.697019	-1.192761	-0.330308
C35	C	-0.724329	-1.142196	-0.380818
C36	C	-0.778946	-1.041066	-0.481853
C37	C	-0.724339	-1.041045	-0.481842
C38	C	-0.697029	-1.091613	-0.431326
C39	C	-0.642437	-1.091568	-0.431306
N40	N	-0.615125	-1.142139	-0.380800
C41	C	-0.642415	-1.192735	-0.330301
C42	C	-0.975513	-1.091746	-0.431364
C43	C	-1.030115	-1.091767	-0.431368
C44	C	-1.030093	-1.192938	-0.330358
C45	C	-0.975490	-1.192912	-0.330351
C46	C	-0.948200	-1.142316	-0.380858
C47	C	-0.527750	-1.192664	-0.330280
C48	C	-0.473145	-1.192625	-0.330271
C49	C	-0.473172	-1.091458	-0.431283
C50	C	-0.527772	-1.091493	-0.431290
C51	C	-0.555060	-1.142103	-0.380786
O52	O	-0.614164	-1.048541	-0.474211
O53	O	-0.614163	-1.235746	-0.287355
C54	C	-0.115525	-1.142301	-0.380849
C55	C	-0.057411	-1.142367	-0.380872
C56	C	-0.251915	-1.348314	-0.380814
C57	C	-0.251923	-1.436171	-0.380822
C58	C	-0.218441	-0.477453	-0.330359
C59	C	-0.285398	-0.477442	-0.431277
C60	C	-0.285390	-0.559988	-0.431272
C61	C	-0.251908	-0.601270	-0.380809
C62	C	-0.218433	-0.560007	-0.330351
C63	C	-0.318868	-0.601258	-0.481723
C64	C	-0.318863	-0.683809	-0.481720
C65	C	-0.285377	-0.725092	-0.431260
C66	C	-0.251901	-0.683824	-0.380801
C67	C	-0.218418	-0.725106	-0.330338
C68	C	-0.184939	-0.683839	-0.279882
C69	C	-0.184948	-0.601290	-0.279891
C70	C	-0.285368	-0.807641	-0.431251
C71	C	-0.218411	-0.807660	-0.330330
C72	C	-0.285214	-1.091699	-1.046281
C73	C	-0.218348	-1.192876	-1.046311
C74	C	-0.218359	-1.192855	-0.963765
C75	C	-0.251799	-1.142256	-0.922473
C76	C	-0.285227	-1.091678	-0.963727
C77	C	-0.184935	-1.243438	-0.922505
C78	C	-0.184945	-1.243419	-0.839954
C79	C	-0.218382	-1.192816	-0.798661
C80	C	-0.251812	-1.142235	-0.839920
C81	C	-0.285251	-1.091636	-0.798628
C82	C	-0.318679	-1.041051	-0.839885
C83	C	-0.318665	-1.041074	-0.922433
C84	C	-0.218396	-1.192792	-0.716112
C85	C	-0.285265	-1.091615	-0.716074
C86	C	-0.251903	-1.142159	-0.175429
C87	C	-0.251774	-1.142298	-0.087573
H88	H	-0.450911	-1.233804	-0.289133
H89	H	-0.191181	-0.443850	-0.289281
O90	O	-0.443733	-1.036890	-0.485753
H91	H	-0.401176	-1.045377	-0.477261
O92	O	-0.148893	-1.297977	-0.795460
H93	H	-0.122296	-1.262621	-0.757862
H94	H	-1.052323	-1.234139	-0.289242
O95	O	-0.148859	-1.297980	-0.967056
H96	H	-0.172248	-1.338169	-1.004676
O97	O	-0.182348	-1.247343	-0.671610
H98	H	-0.159093	-1.282530	-0.714191
O99	O	-1.059569	-1.037213	-0.485839
H100	H	-1.084408	-1.072572	-0.526091
O101	O	-0.557225	-1.036940	-0.485767
H102	H	-0.582143	-0.996758	-0.450357
H103	H	-0.549962	-1.233876	-0.289157
O104	O	-0.694856	-1.297911	-0.225337
H105	H	-0.723014	-1.333101	-0.190236
H106	H	-0.702122	-0.999845	-0.522973
H107	H	-0.953296	-1.050538	-0.472491
O108	O	-0.182304	-0.852186	-0.275892
H109	H	-0.159031	-0.809620	-0.240805
H110	H	-0.191126	-1.234076	-1.079936
H111	H	-0.346132	-0.567640	-0.522802
H112	H	-0.801124	-1.284596	-0.238698
H113	H	-0.345907	-0.999857	-0.806254
O114	O	-0.148827	-0.728363	-0.225448
H115	H	-0.122251	-0.766004	-0.260894
H116	H	-0.312661	-0.443825	-0.472356
H117	H	-0.346123	-0.717401	-0.522805
O118	O	-0.946033	-1.247463	-0.275882
H119	H	-0.956549	-1.233962	-0.213832
O120	O	-0.808394	-0.986529	-0.536342
H121	H	-0.780235	-0.951356	-0.571458
O122	O	-0.148858	-0.556784	-0.225445
H123	H	-0.154500	-0.492448	-0.233914
O124	O	-0.321320	-1.037022	-0.671537
H125	H	-0.344558	-1.001851	-0.714096
H126	H	-0.312628	-0.841237	-0.472329
O127	O	-0.354716	-0.986517	-0.966929
H128	H	-0.349091	-0.995039	-1.031267
H129	H	-0.312428	-1.050511	-1.079876
