data_functionalizedCrystal
_audit_creation_method	'MofGen! by Chris Wilmer'
_symmetry_space_group_name_H-M	'P1'
_symmetry_Int_Tables_number	1
_symmetry_cell_setting	triclinic
loop_
_symmetry_equiv_pos_as_xyz
  x,y,z
_cell_length_a	19.121063
_cell_length_b	19.121246
_cell_length_c	19.120904
_cell_angle_alpha	89.874251
_cell_angle_beta	85.258387
_cell_angle_gamma	84.997708
loop_
_atom_site_label
_atom_site_type_symbol
_atom_site_fract_x
_atom_site_fract_y
_atom_site_fract_z
Zn1	Zn	-0.254527	-1.043555	0.452575
Zn2	Zn	0.078806	-0.710222	0.785908
Zn3	Zn	0.412139	-0.376889	1.119241
Zn4	Zn	-0.367178	-1.043468	0.339922
Zn5	Zn	-0.033845	-0.710135	0.673255
Zn6	Zn	0.299489	-0.376802	1.006588
Zn7	Zn	-0.254107	-0.931341	0.330325
Zn8	Zn	0.079226	-0.598007	0.663658
Zn9	Zn	0.412559	-0.264674	0.996991
Zn10	Zn	-0.377162	-0.920834	0.452512
Zn11	Zn	-0.043829	-0.587500	0.785845
Zn12	Zn	0.289504	-0.254167	1.119179
O13	O	-0.313244	-0.984799	0.393833
O14	O	0.020090	-0.651466	0.727167
O15	O	0.353423	-0.318133	1.060500
O16	O	-0.265468	-1.141829	0.441673
O17	O	0.067865	-0.808496	0.775007
O18	O	0.401198	-0.475162	1.108340
O19	O	-0.347825	-1.032955	0.240367
O20	O	-0.014491	-0.699622	0.573701
O21	O	0.318842	-0.366289	0.907034
O22	O	-0.155519	-0.950660	0.342551
O23	O	0.177814	-0.617326	0.675884
O24	O	0.511147	-0.283993	1.009218
O25	O	-0.348232	-1.141765	0.358908
O26	O	-0.014899	-0.808432	0.692241
O27	O	0.318435	-0.475099	1.025575
O28	O	-0.155828	-1.033103	0.432368
O29	O	0.177505	-0.699770	0.765701
O30	O	0.510839	-0.366437	1.099034
O31	O	-0.264752	-0.950575	0.233316
O32	O	0.068581	-0.617242	0.566650
O33	O	0.401915	-0.283909	0.899983
O34	O	-0.274433	-0.831661	0.342490
O35	O	0.058900	-0.498328	0.675824
O36	O	0.392233	-0.164995	1.009157
O37	O	-0.365249	-0.932752	0.550802
O38	O	-0.031916	-0.599419	0.884135
O39	O	0.301418	-0.266085	1.217468
O40	O	-0.364841	-0.823942	0.432261
O41	O	-0.031508	-0.490609	0.765594
O42	O	0.301825	-0.157275	1.098928
O43	O	-0.275150	-1.022915	0.550848
O44	O	0.058184	-0.689582	0.884181
O45	O	0.391517	-0.356248	1.217514
O46	O	-0.467146	-1.022767	0.358847
O47	O	-0.133813	-0.689434	0.692181
O48	O	0.199521	-0.356100	1.025514
O49	O	-0.474482	-0.932668	0.441567
O50	O	-0.141148	-0.599334	0.774900
O51	O	0.192185	-0.266001	1.108234
C52	C	-0.320676	-0.802317	0.386328
C53	C	0.012658	-0.468984	0.719661
C54	C	0.345991	-0.135651	1.052995
C55	C	-0.323873	-0.724249	0.383135
C56	C	0.009460	-0.390916	0.716468
C57	C	0.342794	-0.057583	1.049801
C58	C	-0.282359	-0.687600	0.424797
C59	C	0.050974	-0.354267	0.758131
C60	C	0.384308	-0.020934	1.091464
C61	C	-0.285359	-0.614248	0.421791
C62	C	0.047974	-0.280914	0.755124
C63	C	0.381307	0.052419	1.088457
C64	C	-0.329878	-0.577545	0.377124
C65	C	0.003455	-0.244211	0.710458
C66	C	0.336789	0.089122	1.043791
C67	C	-0.371394	-0.614199	0.335457
C68	C	-0.038060	-0.280865	0.668790
C69	C	0.295273	0.052468	1.002123
C70	C	-0.368389	-0.687551	0.338460
C71	C	-0.035056	-0.354217	0.671794
C72	C	0.298278	-0.020884	1.005127
C73	C	-0.341099	-0.356068	0.365893
C74	C	-0.007765	-0.022735	0.699226
C75	C	0.325568	0.310598	1.032559
C76	C	-0.344102	-0.282711	0.362894
C77	C	-0.010768	0.050622	0.696227
C78	C	0.322565	0.383955	1.029560
C79	C	-0.258066	-0.282765	0.449227
C80	C	0.075267	0.050568	0.782560
C81	C	0.408601	0.383902	1.115894
C82	C	-0.255069	-0.356118	0.452230
C83	C	0.078265	-0.022785	0.785563
C84	C	0.411598	0.310549	1.118896
C85	C	-0.296581	-0.392766	0.410560
C86	C	0.036752	-0.059433	0.743893
C87	C	0.370085	0.273901	1.077226
C88	C	-0.332948	-0.502566	0.374051
C89	C	0.000386	-0.169233	0.707385
C90	C	0.333719	0.164101	1.040718
C91	C	-0.293508	-0.467744	0.413629
C92	C	0.039826	-0.134410	0.746962
C93	C	0.373159	0.198923	1.080296
C94	C	-0.496391	-0.976586	0.401258
C95	C	-0.163058	-0.643253	0.734591
C96	C	0.170276	-0.309919	1.067925
C97	C	-0.574740	-0.973136	0.404460
C98	C	-0.241407	-0.639802	0.737794
C99	C	0.091926	-0.306469	1.071127
C100	C	-0.607707	-1.018458	0.362936
C101	C	-0.274374	-0.685124	0.696269
C102	C	0.058960	-0.351791	1.029602
C103	C	-0.681325	-1.015217	0.365952
C104	C	-0.347992	-0.681883	0.699285
C105	C	-0.014658	-0.348550	1.032619
C106	C	-0.721975	-0.966649	0.410489
C107	C	-0.388642	-0.633316	0.743823
C108	C	-0.055308	-0.299983	1.077156
C109	C	-0.689004	-0.921325	0.452019
C110	C	-0.355670	-0.587992	0.785352
C111	C	-0.022337	-0.254659	1.118685
C112	C	-0.615387	-0.924570	0.449006
C113	C	-0.282054	-0.591237	0.782339
C114	C	0.051280	-0.257904	1.115672
C115	C	-0.944442	-0.954506	0.421743
C116	C	-0.611109	-0.621173	0.755076
C117	C	-0.277775	-0.287839	1.088409
C118	C	-1.018064	-0.951263	0.424751
C119	C	-0.684730	-0.617929	0.758084
C120	C	-0.351397	-0.284596	1.091418
C121	C	-1.010380	-1.045155	0.338685
C122	C	-0.677046	-0.711822	0.672018
C123	C	-0.343713	-0.378489	1.005351
C124	C	-0.936762	-1.048393	0.335673
C125	C	-0.603429	-0.715060	0.669006
C126	C	-0.270095	-0.381727	1.002339
C127	C	-0.903797	-1.003072	0.377205
C128	C	-0.570464	-0.669738	0.710538
C129	C	-0.237130	-0.336405	1.043871
C130	C	-0.797225	-0.963334	0.413572
C131	C	-0.463891	-0.630000	0.746905
C132	C	-0.130558	-0.296667	1.080238
C133	C	-0.828549	-1.006391	0.374125
C134	C	-0.495216	-0.673058	0.707459
C135	C	-0.161882	-0.339725	1.040792
C136	C	-0.129381	-0.993063	0.386396
C137	C	0.203952	-0.659730	0.719729
C138	C	0.537285	-0.326397	1.053062
C139	C	-0.051030	-0.996585	0.383226
C140	C	0.282303	-0.663252	0.716560
C141	C	0.615636	-0.329918	1.049893
C142	C	-0.321360	-0.976671	0.577021
C143	C	0.011973	-0.643338	0.910354
C144	C	0.345307	-0.310005	1.243687
C145	C	-0.324818	-0.973207	0.655084
C146	C	0.008515	-0.639874	0.988417
C147	C	0.341848	-0.306541	1.321751
C148	C	-0.305779	-0.167994	0.401363
C149	C	0.027554	0.165339	0.734696
C150	C	0.360888	0.498672	1.068029
C151	C	-0.302588	-0.246062	0.404557
C152	C	0.030746	0.087271	0.737890
C153	C	0.364079	0.420604	1.071223
C154	C	-0.305107	-0.992939	0.211358
C155	C	0.028227	-0.659605	0.544692
C156	C	0.361560	-0.326272	0.878025
C157	C	-0.301444	-0.996547	0.133293
C158	C	0.031889	-0.663214	0.466626
C159	C	0.365223	-0.329881	0.799959
C160	C	-0.279536	-1.018521	0.691783
C161	C	0.053798	-0.685188	1.025117
C162	C	0.387131	-0.351854	1.358450
C163	C	-0.282783	-1.015258	0.765132
C164	C	0.050550	-0.681925	1.098465
C165	C	0.383884	-0.348591	1.431799
C166	C	-0.331317	-0.966684	0.801780
C167	C	0.002016	-0.633351	1.135113
C168	C	0.335350	-0.300018	1.468447
C169	C	-0.376602	-0.921366	0.765075
C170	C	-0.043269	-0.588033	1.098409
C171	C	0.290065	-0.254699	1.431742
C172	C	-0.373351	-0.924626	0.691728
C173	C	-0.040017	-0.591293	1.025061
C174	C	0.293316	-0.257960	1.358395
C175	C	-0.343478	-0.954489	1.023240
C176	C	-0.010144	-0.621156	1.356574
C177	C	0.323189	-0.287823	1.689907
C178	C	-0.346727	-0.951234	1.096593
C179	C	-0.013394	-0.617901	1.429926
C180	C	0.319940	-0.284567	1.763260
C181	C	-0.252907	-1.045125	1.096645
C182	C	0.080427	-0.711792	1.429978
C183	C	0.413760	-0.378459	1.763311
C184	C	-0.249662	-1.048384	1.023296
C185	C	0.083671	-0.715051	1.356629
C186	C	0.417004	-0.381717	1.689963
C187	C	-0.294945	-1.003063	0.986598
C188	C	0.038389	-0.669730	1.319931
C189	C	0.371722	-0.336397	1.653264
C190	C	-0.334639	-0.963349	0.876754
C191	C	-0.001306	-0.630016	1.210087
C192	C	0.332027	-0.296683	1.543421
C193	C	-0.291619	-1.006395	0.911625
C194	C	0.041715	-0.673062	1.244958
C195	C	0.375048	-0.339729	1.578291
H196	H	-0.224268	-0.252918	0.483151
H197	H	0.109066	0.080415	0.816485
H198	H	0.442399	0.413748	1.149818
Br199	Br	-0.431807	-0.564389	0.274831
Br200	Br	-0.098473	-0.231056	0.608165
Br201	Br	0.234860	0.102278	0.941498
Br202	Br	-0.393364	-0.452749	0.313434
Br203	Br	-0.060030	-0.119416	0.646767
Br204	Br	0.273303	0.213918	0.980100
H205	H	-0.380358	-0.252830	0.326521
H206	H	-0.047024	0.080504	0.659854
H207	H	0.286309	0.413837	0.993187
Br208	Br	-0.552546	-1.084367	0.302482
Br209	Br	-0.219212	-0.751034	0.635816
Br210	Br	0.114121	-0.417701	0.969149
H211	H	-0.917608	-0.917602	0.455558
H212	H	-0.584275	-0.584269	0.788891
H213	H	-0.250941	-0.250935	1.122225
H214	H	-0.374159	-0.923804	0.906601
H215	H	-0.040826	-0.590470	1.239935
H216	H	0.292508	-0.257137	1.573268
Br217	Br	-0.570646	-0.863064	0.505367
Br218	Br	-0.237313	-0.529730	0.838701
Br219	Br	0.096021	-0.196397	1.172034
H220	H	-0.708163	-1.052122	0.332138
H221	H	-0.374829	-0.718789	0.665471
H222	H	-0.041496	-0.385455	0.998804
H223	H	-0.903666	-1.087940	0.299407
H224	H	-0.570333	-0.754607	0.632740
H225	H	-0.236999	-0.421274	0.966073
H226	H	-0.795449	-1.045937	0.337866
H227	H	-0.462116	-0.712604	0.671199
H228	H	-0.128783	-0.379271	1.004532
Br229	Br	-0.191454	-1.106627	1.146453
Br230	Br	0.141879	-0.773294	1.479786
Br231	Br	0.475212	-0.439961	1.813120
H232	H	-1.037228	-1.082054	0.304873
H233	H	-0.703895	-0.748721	0.638206
H234	H	-0.370561	-0.415388	0.971540
H235	H	-0.416117	-0.881814	0.794920
H236	H	-0.082784	-0.548481	1.128253
H237	H	0.250550	-0.215147	1.461586
H238	H	-1.051160	-0.911721	0.461031
H239	H	-0.717826	-0.578388	0.794365
H240	H	-0.384493	-0.245055	1.127698
H241	H	-0.830330	-0.923789	0.449833
H242	H	-0.496997	-0.590456	0.783166
H243	H	-0.163663	-0.257122	1.116500
H244	H	-0.380360	-0.917596	0.993370
H245	H	-0.047026	-0.584262	1.326703
H246	H	0.286307	-0.250929	1.660037
Br247	Br	-0.213670	-1.084451	0.642054
Br248	Br	0.119664	-0.751117	0.975388
Br249	Br	0.452997	-0.417784	1.308721
H250	H	-0.402194	-0.717389	0.304533
H251	H	-0.068860	-0.384056	0.637867
H252	H	0.264473	-0.050723	0.971200
Br253	Br	-0.233088	-0.517556	0.474242
Br254	Br	0.100246	-0.184223	0.807576
Br255	Br	0.433579	0.149111	1.140909
H256	H	-0.410218	-0.887720	0.661848
H257	H	-0.076885	-0.554387	0.995181
H258	H	0.256449	-0.221054	1.328514
Br259	Br	-0.221943	-0.737404	0.485424
Br260	Br	0.111390	-0.404071	0.818757
Br261	Br	0.444724	-0.070737	1.152091
Br262	Br	-0.221356	-1.076789	0.814939
Br263	Br	0.111977	-0.743456	1.148272
Br264	Br	0.445310	-0.410122	1.481605
Br265	Br	-0.744171	-0.855418	0.512469
Br266	Br	-0.410838	-0.522084	0.845803
Br267	Br	-0.077504	-0.188751	1.179136
H268	H	-0.210143	-1.087940	0.993462
H269	H	0.123191	-0.754606	1.326796
H270	H	0.456524	-0.421273	1.660129
H271	H	-0.252100	-1.045941	0.881782
H272	H	0.081234	-0.712608	1.215116
H273	H	0.414567	-0.379274	1.548449
Br274	Br	-0.194655	-0.405924	0.512858
Br275	Br	0.138678	-0.072590	0.846191
Br276	Br	0.472011	0.260743	1.179524
H277	H	-0.251556	-0.584411	0.455718
H278	H	0.081778	-0.251078	0.789052
H279	H	0.415111	0.082256	1.122385
Br280	Br	-0.412597	-0.885306	1.146330
Br281	Br	-0.079263	-0.551973	1.479663
Br282	Br	0.254070	-0.218639	1.812996
H283	H	-0.374902	-0.385898	0.331962
H284	H	-0.041569	-0.052565	0.665296
H285	H	0.291765	0.280768	0.998629
