data_functionalizedCrystal
_audit_creation_method	'MofGen! by Chris Wilmer'
_symmetry_space_group_name_H-M	'P1'
_symmetry_Int_Tables_number	1
_symmetry_cell_setting	triclinic
loop_
_symmetry_equiv_pos_as_xyz
  x,y,z
_cell_length_a	16.793024
_cell_length_b	16.793047
_cell_length_c	33.586455
_cell_angle_alpha	113.253857
_cell_angle_beta	66.219990
_cell_angle_gamma	112.758327
loop_
_atom_site_label
_atom_site_type_symbol
_atom_site_fract_x
_atom_site_fract_y
_atom_site_fract_z
O1	O	0.005016	-0.570216	-0.583573
O2	O	-0.034529	-0.474528	-0.453458
O3	O	0.114723	-0.474535	-0.528082
O4	O	-0.144235	-0.570209	-0.508949
O5	O	0.108729	-0.346329	-0.530229
O6	O	-0.040523	-0.346322	-0.455605
O7	O	-0.000977	-0.442010	-0.585721
Cu8	Cu	-0.021297	-0.382459	-0.520859
Cu9	Cu	-0.014209	-0.534079	-0.518320
O10	O	-0.150229	-0.442003	-0.511097
C11	C	0.005100	-0.790970	-0.238461
C12	C	-0.040584	-0.395375	-0.435637
C13	C	-0.044693	-0.353446	-0.386631
C14	C	-0.039275	-0.401741	-0.363054
C15	C	-0.040566	-0.125547	-0.300731
C16	C	-0.044689	-0.223451	-0.321635
C17	C	-0.039266	-0.270752	-0.297563
C18	C	0.005118	-0.521142	-0.103554
C19	C	-0.046224	-0.263935	-0.366370
C20	C	-0.036476	-0.360146	-0.318399
C21	C	-0.030850	-0.408530	-0.294565
C22	C	-0.028014	-0.367522	-0.249895
C23	C	-0.030804	-0.278128	-0.229058
C24	C	-0.036430	-0.229743	-0.252892
C25	C	-0.027971	-0.237122	-0.184383
C26	C	-0.022345	-0.285507	-0.160550
C27	C	-0.019555	-0.374900	-0.181386
C28	C	-0.022391	-0.415909	-0.226057
C29	C	-0.019601	-0.505302	-0.246894
C30	C	-0.013975	-0.553687	-0.223060
C31	C	-0.011142	-0.512684	-0.178391
C32	C	-0.013932	-0.423291	-0.157554
C33	C	-0.005516	-0.561069	-0.154557
C34	C	-0.002726	-0.650463	-0.175394
C35	C	-0.005562	-0.691471	-0.220064
C36	C	-0.011185	-0.643081	-0.243897
C37	C	-0.022434	-0.546309	-0.291568
C38	C	-0.019644	-0.635702	-0.312405
C39	C	-0.014021	-0.684089	-0.288567
C40	C	-0.022480	-0.676711	-0.357076
C41	C	-0.028106	-0.628326	-0.380910
C42	C	-0.030896	-0.538933	-0.360073
C43	C	-0.028060	-0.497924	-0.315402
C44	C	-0.036522	-0.490548	-0.383907
C45	C	0.815184	-0.521162	-0.508596
C46	C	0.415541	-0.125553	-0.528781
C47	C	0.375032	-0.223457	-0.531493
C48	C	0.423813	-0.270761	-0.529101
C49	C	0.149318	-0.395376	-0.530584
C50	C	0.246774	-0.353455	-0.532364
C51	C	0.294574	-0.401748	-0.529976
C52	C	0.548961	-0.790984	-0.510398
C53	C	0.286104	-0.263940	-0.532530
C54	C	0.383336	-0.360149	-0.528302
C55	C	0.432207	-0.407971	-0.525810
C56	C	0.392316	-0.497392	-0.524993
C57	C	0.303554	-0.538991	-0.526667
C58	C	0.254683	-0.491169	-0.529159
C59	C	0.263666	-0.628421	-0.525851
C60	C	0.312537	-0.676243	-0.523359
C61	C	0.401299	-0.634644	-0.521685
C62	C	0.441190	-0.545223	-0.522502
C63	C	0.529952	-0.503624	-0.520828
C64	C	0.578823	-0.551446	-0.518336
C65	C	0.538939	-0.640864	-0.517520
C66	C	0.450177	-0.682463	-0.519194
C67	C	0.587810	-0.688687	-0.515028
C68	C	0.676572	-0.647088	-0.513354
C69	C	0.716463	-0.557666	-0.514172
C70	C	0.667586	-0.509847	-0.516662
C71	C	0.569840	-0.414195	-0.521644
C72	C	0.658602	-0.372596	-0.519970
C73	C	0.707476	-0.420426	-0.517480
C74	C	0.698493	-0.283174	-0.520788
C75	C	0.649622	-0.235352	-0.523280
C76	C	0.560860	-0.276951	-0.524954
C77	C	0.520969	-0.366372	-0.524136
C78	C	0.511989	-0.229129	-0.527446
C79	C	-0.040530	-0.395407	-0.935652
C80	C	0.005063	-0.791004	-0.738448
C81	C	0.009186	-0.693099	-0.717543
C82	C	0.003779	-0.645796	-0.741620
C83	C	0.005077	-0.521171	-0.603544
C84	C	0.009198	-0.563096	-0.652550
C85	C	0.003786	-0.514804	-0.676131
C86	C	-0.040516	-0.125574	-0.800747
C87	C	0.010719	-0.652613	-0.672809
C88	C	0.000994	-0.556406	-0.720789
C89	C	-0.004621	-0.508585	-0.744908
C90	C	-0.007444	-0.419162	-0.724369
C91	C	-0.004651	-0.377560	-0.679711
C92	C	0.000964	-0.425381	-0.655592
C93	C	-0.007471	-0.288129	-0.659174
C94	C	-0.013086	-0.240308	-0.683293
C95	C	-0.015878	-0.281910	-0.727951
C96	C	-0.013056	-0.371333	-0.748490
C97	C	-0.015848	-0.412935	-0.793148
C98	C	-0.021463	-0.365114	-0.817267
C99	C	-0.024282	-0.275694	-0.796731
C100	C	-0.021490	-0.234092	-0.752073
C101	C	-0.029897	-0.227873	-0.820850
C102	C	-0.032690	-0.269476	-0.865508
C103	C	-0.029867	-0.358899	-0.886047
C104	C	-0.024255	-0.406717	-0.861925
C105	C	-0.013028	-0.502367	-0.813685
C106	C	-0.015821	-0.543969	-0.858343
C107	C	-0.021433	-0.496140	-0.882464
C108	C	-0.012998	-0.633392	-0.878882
C109	C	-0.007383	-0.681213	-0.854763
C110	C	-0.004591	-0.639611	-0.810105
C111	C	-0.007414	-0.550188	-0.789566
C112	C	0.001024	-0.687432	-0.785986
O113	O	-0.000965	0.173549	-0.277957
O114	O	-0.040516	-0.085616	-0.325254
O115	O	0.108737	0.059592	-0.327284
O116	O	-0.150219	0.028341	-0.275927
O117	O	0.114753	0.055151	-0.263265
O118	O	-0.034500	-0.090057	-0.261234
O119	O	0.005051	0.169108	-0.213937
Cu120	Cu	-0.014175	0.039120	-0.231740
Cu121	Cu	-0.021290	0.044372	-0.307451
O122	O	-0.144202	0.023900	-0.211907
O123	O	-0.034458	-0.474571	0.046517
O124	O	0.005076	-0.570190	-0.083599
O125	O	-0.144170	-0.570237	-0.008972
O126	O	0.114787	-0.474523	-0.028110
O127	O	-0.150200	-0.442024	-0.011093
O128	O	-0.000954	-0.441976	-0.085720
O129	O	-0.040488	-0.346357	0.044396
Cu130	Cu	-0.021272	-0.382460	-0.020856
Cu131	Cu	-0.014141	-0.534087	-0.018347
O132	O	0.108757	-0.346309	-0.030231
C133	C	-0.850734	0.086244	-0.289716
C134	C	-0.450996	0.035117	-0.097351
C135	C	-0.410501	0.028587	-0.146852
C136	C	-0.459292	0.034683	-0.169840
C137	C	-0.184802	0.024283	-0.235878
C138	C	-0.282257	0.023363	-0.213592
C139	C	-0.330068	0.029423	-0.237088
C140	C	-0.584541	0.075410	-0.428242
C141	C	-0.321573	0.024104	-0.168302
C142	C	-0.418828	0.035176	-0.215083
C143	C	-0.467711	0.041476	-0.238329
C144	C	-0.427833	0.042022	-0.283580
C145	C	-0.339073	0.036269	-0.305586
C146	C	-0.290190	0.029970	-0.282340
C147	C	-0.299198	0.036812	-0.350842
C148	C	-0.348081	0.043111	-0.374088
C149	C	-0.436841	0.048864	-0.352082
C150	C	-0.476719	0.048318	-0.306830
C151	C	-0.565480	0.054071	-0.284825
C152	C	-0.614362	0.060370	-0.308071
C153	C	-0.574491	0.060913	-0.353321
C154	C	-0.485730	0.055160	-0.375326
C155	C	-0.623374	0.067212	-0.376567
C156	C	-0.712134	0.072965	-0.354561
C157	C	-0.752012	0.072419	-0.309309
C158	C	-0.703123	0.066123	-0.286065
C159	C	-0.605355	0.053528	-0.239569
C160	C	-0.694115	0.059281	-0.217564
C161	C	-0.743001	0.065577	-0.240813
C162	C	-0.733993	0.058735	-0.172312
C163	C	-0.685110	0.052436	-0.149066
C164	C	-0.596350	0.046683	-0.171072
C165	C	-0.556472	0.047229	-0.216323
C166	C	-0.547467	0.040383	-0.147826
O167	O	0.585213	0.169090	-0.504004
O168	O	0.494056	-0.090076	-0.525516
O169	O	0.488081	0.055124	-0.449918
O170	O	0.591189	0.023889	-0.579602
O171	O	0.359978	0.059584	-0.452885
O172	O	0.365953	-0.085616	-0.528483
O173	O	0.457110	0.173550	-0.506971
Cu174	Cu	0.399835	0.044374	-0.517998
Cu175	Cu	0.551332	0.039099	-0.514489
O176	O	0.463086	0.028349	-0.582569
C177	C	0.815354	-0.521094	-0.008709
C178	C	0.415547	-0.125494	-0.028771
C179	C	0.375059	-0.223405	-0.031498
C180	C	0.423859	-0.270708	-0.029121
C181	C	0.149365	-0.395355	-0.030599
C182	C	0.246820	-0.353421	-0.032381
C183	C	0.294640	-0.401713	-0.030008
C184	C	0.549171	-0.790955	-0.010537
C185	C	0.286131	-0.263897	-0.032533
C186	C	0.383402	-0.360104	-0.028335
C187	C	0.432293	-0.407926	-0.025859
C188	C	0.392422	-0.497356	-0.025055
C189	C	0.303660	-0.538965	-0.026727
C190	C	0.254769	-0.491143	-0.029204
C191	C	0.263791	-0.628403	-0.025925
C192	C	0.312683	-0.676224	-0.023448
C193	C	0.401445	-0.634615	-0.021775
C194	C	0.441316	-0.545185	-0.022579
C195	C	0.530078	-0.503576	-0.020906
C196	C	0.578969	-0.551398	-0.018429
C197	C	0.539104	-0.640825	-0.017627
C198	C	0.450342	-0.682434	-0.019300
C199	C	0.587995	-0.688646	-0.015150
C200	C	0.676757	-0.647037	-0.013477
C201	C	0.716628	-0.557607	-0.014281
C202	C	0.667731	-0.509789	-0.016757
C203	C	0.569946	-0.414138	-0.021709
C204	C	0.658708	-0.372530	-0.020036
C205	C	0.707602	-0.420359	-0.017561
C206	C	0.698579	-0.283100	-0.020840
C207	C	0.649688	-0.235278	-0.023317
C208	C	0.560926	-0.276887	-0.024990
C209	C	0.521055	-0.366317	-0.024186
C210	C	0.512035	-0.229066	-0.027467
O211	O	-0.620614	0.089309	0.052274
O212	O	-0.529507	0.043784	-0.078544
O213	O	-0.523494	0.194833	-0.006033
O214	O	-0.626628	-0.061740	-0.020236
O215	O	-0.395386	0.185419	-0.005549
O216	O	-0.401400	0.034370	-0.078059
O217	O	-0.492507	0.079895	0.052758
Cu218	Cu	-0.435256	0.056273	-0.012607
Cu219	Cu	-0.586758	0.067406	-0.013179
O220	O	-0.498521	-0.071154	-0.019752
C221	C	-0.437537	0.048335	0.402491
C222	C	-0.837226	0.099430	0.210091
C223	C	-0.739773	0.100339	0.187806
C224	C	-0.691967	0.094287	0.211308
C225	C	-0.571027	0.088563	0.071568
C226	C	-0.611521	0.095108	0.121070
C227	C	-0.562739	0.089011	0.144061
C228	C	-0.171338	0.037467	0.263967
C229	C	-0.700452	0.099593	0.142516
C230	C	-0.603213	0.088528	0.189308
C231	C	-0.554892	0.082255	0.212848
C232	C	-0.466098	0.076466	0.191141
C233	C	-0.425624	0.076949	0.145894
C234	C	-0.473945	0.083222	0.122354
C235	C	-0.336822	0.071163	0.124188
C236	C	-0.288502	0.064890	0.147728
C237	C	-0.328975	0.064407	0.192975
C238	C	-0.417770	0.070196	0.214682
C239	C	-0.458244	0.069713	0.259929
C240	C	-0.409923	0.063441	0.283469
C241	C	-0.321132	0.057655	0.261765
C242	C	-0.280658	0.058138	0.216518
C243	C	-0.272811	0.051382	0.285305
C244	C	-0.313285	0.050899	0.330552
C245	C	-0.402079	0.056688	0.352259
C246	C	-0.450397	0.062957	0.328716
C247	C	-0.547046	0.075500	0.281635
C248	C	-0.587520	0.075016	0.326882
C249	C	-0.539191	0.068747	0.350423
C250	C	-0.676314	0.080806	0.348589
C251	C	-0.724634	0.087078	0.325049
C252	C	-0.684160	0.087561	0.279802
C253	C	-0.595366	0.081772	0.258095
C254	C	-0.732481	0.093834	0.256262
O255	O	-0.040608	-1.085661	-0.825229
O256	O	-0.001018	-0.826491	-0.777938
O257	O	-0.150287	-0.971682	-0.775894
O258	O	0.108661	-0.940470	-0.827272
O259	O	-0.144253	-0.976123	-0.711878
O260	O	0.005016	-0.830932	-0.713922
O261	O	-0.034575	-1.090102	-0.761213
Cu262	Cu	-0.014228	-0.960923	-0.731722
Cu263	Cu	-0.021364	-0.955670	-0.807428
O264	O	0.114695	-0.944911	-0.763256
C265	C	-0.049547	-0.210620	-0.392935
C266	C	0.026656	-0.136368	-0.395287
C267	C	0.023636	-0.087239	-0.419760
H268	H	-0.102650	-0.190329	-0.378152
H269	H	-0.050169	-0.247954	-0.422731
H270	H	0.027269	-0.099041	-0.365496
H271	H	0.079771	-0.156633	-0.410074
H272	H	0.023014	-0.124573	-0.449556
H273	H	-0.029470	-0.066954	-0.404974
H274	H	0.075342	-0.036858	-0.421362
C275	C	-0.010898	-0.378433	-0.108848
C276	C	-0.014583	-0.289433	-0.095644
C277	C	-0.011802	-0.248093	-0.050779
H278	H	0.043628	-0.378807	-0.106682
H279	H	-0.061053	-0.410385	-0.089536
H280	H	0.035567	-0.257490	-0.114951
H281	H	-0.069105	-0.289034	-0.097799
H282	H	-0.061956	-0.280044	-0.031466
H283	H	0.042725	-0.248473	-0.048617
H284	H	-0.014310	-0.187705	-0.041812
H285	H	0.012418	-0.684570	-0.156900
H286	H	-0.047834	-0.232081	-0.882358
C287	C	-0.016064	-0.678913	-0.927559
C288	C	-0.012391	-0.767831	-0.940435
C289	C	-0.015226	-0.809795	-0.985270
H290	H	0.034061	-0.647255	-0.947004
H291	H	-0.070617	-0.678734	-0.929792
H292	H	0.042156	-0.768004	-0.938206
H293	H	-0.062512	-0.799513	-0.921002
H294	H	-0.069779	-0.809617	-0.987502
H295	H	0.034900	-0.778130	-1.004710
H296	H	-0.012742	-0.870133	-0.994010
C297	C	0.268891	-0.773683	-0.522404
C298	C	0.192316	-0.778439	-0.484518
C299	C	0.152080	-0.868188	-0.483625
H300	H	0.310773	-0.796397	-0.520651
H301	H	0.251644	-0.808624	-0.549251
H302	H	0.209566	-0.743512	-0.457677
H303	H	0.150414	-0.755744	-0.486262
H304	H	0.134833	-0.903128	-0.510473
H305	H	0.193969	-0.890893	-0.481874
H306	H	0.100116	-0.871428	-0.457923
C307	C	-0.720370	0.080132	0.397899
C308	C	-0.721950	-0.000149	0.402160
C309	C	-0.762517	-0.000802	0.447576
H310	H	-0.780441	0.084446	0.407546
H311	H	-0.686731	0.129829	0.416170
H312	H	-0.755589	-0.049833	0.383895
H313	H	-0.661890	-0.004481	0.392522
H314	H	-0.728878	0.048895	0.465847
H315	H	-0.822586	0.003515	0.457219
H316	H	-0.763587	-0.055268	0.450474
H317	H	-0.797237	0.091807	0.342798
C318	C	-0.004489	-0.778762	-0.877097
C319	C	-0.078475	-0.833426	-0.852438
C320	C	-0.075843	-0.923291	-0.873003
H321	H	0.049992	-0.784592	-0.877606
H322	H	-0.007014	-0.796817	-0.907267
H323	H	-0.075942	-0.815377	-0.822276
H324	H	-0.132967	-0.827623	-0.851928
H325	H	-0.078368	-0.941346	-0.903173
H326	H	-0.021359	-0.929112	-0.873510
H327	H	-0.126045	-0.960392	-0.856277
C328	C	-0.292555	0.071637	0.074859
C329	C	-0.204093	0.065182	0.060829
C330	C	-0.163284	0.065610	0.015388
H331	H	-0.291297	0.126043	0.071829
H332	H	-0.326132	0.021885	0.056579
H333	H	-0.170524	0.114930	0.079104
H334	H	-0.205325	0.010779	0.063848
H335	H	-0.196862	0.015858	-0.002892
H336	H	-0.162033	0.120016	0.012362
H337	H	-0.103262	0.061222	0.005862
H338	H	-0.011748	-0.757184	-0.305606
H339	H	-0.023718	-0.530163	-0.918978
C340	C	0.269075	-0.773728	-0.022603
C341	C	0.180522	-0.800048	-0.024618
C342	C	0.140328	-0.889867	-0.023846
H343	H	0.268059	-0.779559	0.004614
H344	H	0.302891	-0.810976	-0.047937
H345	H	0.146715	-0.762812	0.000713
H346	H	0.181511	-0.794239	-0.051833
H347	H	0.174144	-0.927114	-0.049180
H348	H	0.139319	-0.895689	0.003371
H349	H	0.080244	-0.907739	-0.025217
H350	H	-0.580066	0.039960	-0.110823
H351	H	-0.020209	-0.749804	-0.374113
H352	H	0.191224	-0.662427	-0.027294
H353	H	-0.275840	0.035205	0.347100
H354	H	-0.030422	-0.661858	-0.417434
C355	C	-0.728512	0.051693	-0.099751
C356	C	-0.729744	-0.028604	-0.095652
C357	C	-0.769708	-0.029315	-0.050230
H358	H	-0.788642	0.055991	-0.089882
H359	H	-0.694640	0.101380	-0.081587
H360	H	-0.763616	-0.078277	-0.113809
H361	H	-0.669625	-0.032918	-0.105511
H362	H	-0.735836	0.020372	-0.032067
H363	H	-0.829836	-0.025015	-0.040366
H364	H	-0.770541	-0.083791	-0.047443
H365	H	0.003251	-0.391359	-0.619081
C366	C	0.232166	-0.210681	-0.033820
C367	C	0.155818	-0.208081	0.004301
C368	C	0.106087	-0.159059	0.003137
H369	H	0.213685	-0.238798	-0.060558
H370	H	0.268703	-0.151062	-0.033722
H371	H	0.119287	-0.267690	0.004199
H372	H	0.174273	-0.179958	0.031044
H373	H	0.142624	-0.099439	0.003234
H374	H	0.087612	-0.187180	-0.023603
H375	H	0.054283	-0.157281	0.029003
C376	C	-0.202490	0.030405	-0.374909
C377	C	-0.201131	-0.046452	-0.412241
C378	C	-0.112057	-0.052380	-0.434430
H379	H	-0.178893	0.026509	-0.354559
H380	H	-0.166588	0.082415	-0.384996
H381	H	-0.237019	-0.098449	-0.402154
H382	H	-0.224710	-0.042573	-0.432602
H383	H	-0.076155	-0.000370	-0.444517
H384	H	-0.088467	-0.056273	-0.414076
H385	H	-0.111122	-0.104522	-0.459765
C386	C	-0.267667	0.019713	-0.142503
C387	C	-0.240674	-0.059985	-0.163737
C388	C	-0.191002	-0.064052	-0.139988
H389	H	-0.304169	0.020787	-0.112211
H390	H	-0.215767	0.069941	-0.142287
H391	H	-0.292566	-0.110199	-0.163948
H392	H	-0.204160	-0.061077	-0.194027
H393	H	-0.139102	-0.013824	-0.139773
H394	H	-0.227510	-0.062975	-0.109697
H395	H	-0.172674	-0.118122	-0.154395
H396	H	0.780052	-0.386407	-0.516111
H397	H	-0.038719	-0.156659	-0.235851
H398	H	-0.572284	0.068372	0.387422
H399	H	-0.038841	-0.524079	-0.420431
C400	C	0.722190	-0.696783	-0.503493
C401	C	0.747148	-0.645016	-0.463824
C402	C	0.789174	-0.690751	-0.454719
H403	H	0.774516	-0.706693	-0.528120
H404	H	0.681432	-0.753011	-0.499589
H405	H	0.787904	-0.588805	-0.467731
H406	H	0.694838	-0.635104	-0.439189
H407	H	0.748416	-0.746978	-0.450815
H408	H	0.841496	-0.700659	-0.479348
H409	H	0.806106	-0.655638	-0.427801
C410	C	0.692974	-0.137800	-0.524072
C411	C	0.642905	-0.083157	-0.486714
C412	C	0.682811	0.006714	-0.487423
H413	H	0.693911	-0.131968	-0.551272
H414	H	0.753073	-0.119728	-0.522686
H415	H	0.582821	-0.101223	-0.488103
H416	H	0.641964	-0.088961	-0.459508
H417	H	0.742910	0.024785	-0.486037
H418	H	0.683746	0.012536	-0.514625
H419	H	0.648850	0.043800	-0.462074
C420	C	0.157914	-0.536665	-0.530959
C421	C	0.133333	-0.625571	-0.529695
C422	C	0.044190	-0.667505	-0.531344
H423	H	0.153367	-0.536524	-0.558218
H424	H	0.118659	-0.504948	-0.505668
H425	H	0.172577	-0.657280	-0.554984
H426	H	0.137859	-0.625738	-0.502437
H427	H	0.004936	-0.635788	-0.506053
H428	H	0.039652	-0.667358	-0.558604
H429	H	0.027498	-0.727829	-0.530483
H430	H	0.003321	-0.760550	-0.802778
C431	C	-0.304594	0.043890	-0.423394
C432	C	-0.303324	0.124206	-0.427490
C433	C	-0.263262	0.124963	-0.472903
H434	H	-0.338400	-0.005765	-0.441592
H435	H	-0.244462	0.039593	-0.433223
H436	H	-0.363445	0.128493	-0.417667
H437	H	-0.269514	0.173874	-0.409302
H438	H	-0.203130	0.120667	-0.482731
H439	H	-0.297071	0.075305	-0.491096
H440	H	-0.262387	0.179460	-0.475687
H441	H	-0.217624	0.025258	-0.300336
H442	H	-0.746339	0.088530	-0.372795
H443	H	0.771070	-0.249160	-0.519423
H444	H	0.544602	-0.156012	-0.528109
C445	C	-0.016346	-0.142872	-0.660896
C446	C	-0.096805	-0.134716	-0.660206
C447	C	-0.099848	-0.044974	-0.639573
H448	H	0.033726	-0.105558	-0.677548
H449	H	-0.013919	-0.124848	-0.630710
H450	H	-0.099224	-0.152729	-0.690386
H451	H	-0.146891	-0.172010	-0.643552
H452	H	-0.097422	-0.026950	-0.609387
H453	H	-0.049773	-0.007667	-0.656226
H454	H	-0.154443	-0.039430	-0.639098
H455	H	-0.030255	-0.164038	-0.167345
H456	H	-0.806568	0.063430	-0.154318
H457	H	0.245727	-0.224039	-0.533582
H458	H	-0.805083	0.098565	0.274011
H459	H	-0.453130	0.055597	-0.412328
H460	H	0.417746	-0.755558	-0.018645
C461	C	0.158000	-0.536650	-0.031003
C462	C	0.133441	-0.625564	-0.029754
C463	C	0.044298	-0.667508	-0.031402
H464	H	0.153443	-0.536495	-0.058257
H465	H	0.118740	-0.504949	-0.005706
H466	H	0.172689	-0.657257	-0.055049
H467	H	0.137976	-0.625745	-0.002502
H468	H	0.005038	-0.635806	-0.006105
H469	H	0.039750	-0.667346	-0.058657
H470	H	0.027621	-0.727837	-0.030551
H471	H	0.710969	-0.684436	-0.006165
C472	C	0.014030	-0.705833	-0.646193
C473	C	-0.062173	-0.708460	-0.608036
C474	C	-0.059163	-0.757488	-0.583508
H475	H	0.067134	-0.677709	-0.636767
H476	H	0.014644	-0.765446	-0.664866
H477	H	-0.062777	-0.648858	-0.589366
H478	H	-0.115287	-0.736592	-0.617449
H479	H	-0.058550	-0.817101	-0.602181
H480	H	-0.006057	-0.729359	-0.574085
H481	H	-0.110869	-0.759284	-0.557618
H482	H	-0.020027	-0.251971	-0.124027
H483	H	0.780178	-0.386331	-0.016193
C484	C	-0.004483	-0.242632	-0.610486
C485	C	-0.008191	-0.153725	-0.597608
C486	C	-0.005450	-0.111785	-0.552758
H487	H	0.050038	-0.242774	-0.608213
H488	H	-0.054644	-0.274344	-0.591069
H489	H	0.041965	-0.122021	-0.617019
H490	H	-0.062708	-0.153557	-0.599870
H491	H	-0.055611	-0.143497	-0.533340
H492	H	0.049071	-0.111933	-0.550489
H493	H	-0.007974	-0.051460	-0.544012
C494	C	-0.839712	0.071984	-0.216723
C495	C	-0.864255	0.070216	-0.171924
C496	C	-0.953316	0.076172	-0.149713
H497	H	-0.879093	0.022538	-0.231994
H498	H	-0.844092	0.126683	-0.216767
H499	H	-0.859883	0.015523	-0.171882
H500	H	-0.824897	0.119659	-0.156641
H501	H	-0.957695	0.130871	-0.149757
H502	H	-0.992689	0.026725	-0.164987
H503	H	-0.969977	0.074982	-0.119313
H504	H	-0.023809	-0.160979	-0.735279
H505	H	-0.215904	0.060157	0.129977
H506	H	0.771156	-0.249077	-0.019476
C507	C	0.692977	-0.137758	-0.024174
C508	C	0.630901	-0.104641	-0.026701
C509	C	0.670744	-0.014809	-0.027487
H510	H	0.744939	-0.134229	-0.049856
H511	H	0.710138	-0.102809	0.002696
H512	H	0.613753	-0.139581	-0.053568
H513	H	0.578937	-0.108147	-0.001023
H514	H	0.687905	0.020141	-0.000617
H515	H	0.722705	-0.011289	-0.053168
H516	H	0.628629	0.007675	-0.029197
H517	H	0.544632	-0.155941	-0.028119
H518	H	0.191099	-0.662437	-0.527221
C519	C	-0.754136	0.103974	0.116602
C520	C	-0.710665	0.180800	0.101167
C521	C	-0.760086	0.184858	0.077288
H522	H	-0.813208	0.106796	0.136047
H523	H	-0.758062	0.051791	0.091420
H524	H	-0.706749	0.232970	0.126345
H525	H	-0.651597	0.177995	0.081716
H526	H	-0.764013	0.132675	0.052107
H527	H	-0.819156	0.187677	0.096736
H528	H	-0.730594	0.236979	0.066809
H529	H	0.417564	-0.755580	-0.518528
H530	H	-0.440845	0.083623	0.085362
H531	H	-0.208057	0.053400	0.198770
