data_functionalizedCrystal
_audit_creation_method	'MofGen! by Chris Wilmer'
_symmetry_space_group_name_H-M	'P1'
_symmetry_Int_Tables_number	1
_symmetry_cell_setting	triclinic
loop_
_symmetry_equiv_pos_as_xyz
  x,y,z
_cell_length_a	6.817900
_cell_length_b	10.992668
_cell_length_c	10.992743
_cell_angle_alpha	91.825962
_cell_angle_beta	108.770538
_cell_angle_gamma	108.769342
loop_
_atom_site_label
_atom_site_type_symbol
_atom_site_fract_x
_atom_site_fract_y
_atom_site_fract_z
V1	V	-4.114326	-0.177724	-0.400584
O2	O	-4.072420	0.008581	-0.392964
O3	O	-4.091936	-0.352436	-0.397839
O4	O	-4.091938	-0.174973	-0.575294
O5	O	-4.072418	-0.170111	-0.214279
V6	V	-4.591214	-0.155442	-0.378301
O7	O	-4.390141	-0.226602	-0.449463
O8	O	-4.765596	-0.106564	-0.329422
O9	O	-4.390397	0.019270	-0.381046
O10	O	-4.750517	-0.341747	-0.385921
O11	O	-4.750519	-0.163055	-0.564605
O12	O	-4.390395	-0.158193	-0.203590
C13	C	-3.942423	-0.395027	-0.391518
C14	C	-4.005576	-0.537857	-0.390438
C15	C	-4.252058	-0.600164	-0.397767
C16	C	-4.317556	-0.748650	-0.396135
C17	C	-3.920782	-0.718240	-0.261982
C18	C	-3.856516	-0.569672	-0.263075
C19	C	-3.980095	-0.607676	-0.508428
C20	C	-4.050759	-0.756690	-0.509044
C21	C	-3.942424	-0.168654	-0.617879
C22	C	-4.005575	-0.167560	-0.760706
C23	C	-4.318015	-0.174252	-0.971799
C24	C	-4.252231	-0.174896	-0.823167
C25	C	-3.855219	-0.040045	-0.791484
C26	C	-3.922281	-0.038865	-0.940126
C27	C	-4.044669	-0.284162	-0.978390
C28	C	-3.983995	-0.287063	-0.830176
C29	C	-4.203253	0.061855	-0.387363
C30	C	-4.119340	0.204682	-0.388451
C31	C	-4.203251	-0.164517	-0.160999
C32	C	-4.119337	-0.165604	-0.018171
H33	H	-3.801298	-0.566850	-0.504181
Cl34	Cl	-4.157080	-0.432595	-0.802136
H35	H	-3.968489	0.050798	-0.963218
Cl36	Cl	-4.139728	-0.576243	-0.656729
Cl37	Cl	-3.713925	-0.290269	-0.765726
Cl38	Cl	-4.404954	-0.786973	-0.263438
Cl39	Cl	-3.816339	-0.276234	-1.023890
Cl40	Cl	-3.575762	-0.503879	-0.246626
Cl41	Cl	-4.289706	-0.526083	-0.266853
Cl42	Cl	-4.547024	-0.830990	-0.536661
H43	H	-3.965950	-0.743850	-0.172456
Cl44	Cl	-3.879659	-0.498229	-0.125170
H45	H	-3.772067	-0.027303	-0.969407
Cl46	Cl	-4.433651	-0.571063	-0.539089
H47	H	-3.908861	-0.789236	-0.510905
Cl48	Cl	-4.272554	-0.837489	-0.653496
Cl49	Cl	-4.431710	-0.316389	-0.792898
Cl50	Cl	-3.688810	-0.762740	-0.246228
H51	H	-3.673602	-0.030031	-0.749618
H52	H	-4.466828	-0.265410	-1.024433
H53	H	-4.375967	-0.089099	-0.998532
H54	H	-4.277987	-0.089698	-0.776922
Cl55	Cl	-3.875066	0.097015	-0.716165
Cl56	Cl	-4.254732	-0.431789	-1.062667
