data_functionalizedCrystal
_audit_creation_method	'MofGen! by Chris Wilmer'
_symmetry_space_group_name_H-M	'P1'
_symmetry_Int_Tables_number	1
_symmetry_cell_setting	triclinic
loop_
_symmetry_equiv_pos_as_xyz
  x,y,z
_cell_length_a	13.032831
_cell_length_b	12.759400
_cell_length_c	13.032268
_cell_angle_alpha	82.849813
_cell_angle_beta	89.113023
_cell_angle_gamma	82.819639
loop_
_atom_site_label
_atom_site_type_symbol
_atom_site_fract_x
_atom_site_fract_y
_atom_site_fract_z
Zn1	Zn	1.498516	-0.709532	0.780845
Zn2	Zn	1.998516	-0.209532	1.280845
Zn3	Zn	1.520267	-0.866067	0.608867
Zn4	Zn	2.020267	-0.366067	1.108867
Zn5	Zn	1.348373	-0.665643	0.587085
Zn6	Zn	1.848373	-0.165643	1.087085
Zn7	Zn	1.326515	-0.860387	0.758992
Zn8	Zn	1.826515	-0.360387	1.258992
O9	O	1.423418	-0.775407	0.683947
O10	O	1.923418	-0.275407	1.183947
O11	O	1.645323	-0.751042	0.776293
O12	O	2.145323	-0.251042	1.276293
O13	O	1.515715	-0.823490	0.462060
O14	O	2.015715	-0.323490	0.962060
O15	O	1.368334	-0.524453	0.612817
O16	O	1.868334	-0.024453	1.112817
O17	O	1.661303	-0.866048	0.649941
O18	O	2.161303	-0.366048	1.149941
O19	O	1.478644	-0.556699	0.755172
O20	O	1.978644	-0.056699	1.255172
O21	O	1.389425	-0.676239	0.446057
O22	O	1.889425	-0.176239	0.946057
O23	O	1.201551	-0.670731	0.591628
O24	O	1.701551	-0.170731	1.091628
O25	O	1.331081	-0.856366	0.905808
O26	O	1.831081	-0.356366	1.405808
O27	O	1.185493	-0.813808	0.717927
O28	O	1.685493	-0.313808	1.217927
O29	O	1.457450	-0.745534	0.921863
O30	O	1.957450	-0.245534	1.421863
O31	O	1.494520	-1.012325	0.628751
O32	O	1.994520	-0.512325	1.128751
O33	O	1.352172	-1.008152	0.739048
O34	O	1.852172	-0.508152	1.239048
C35	C	1.156205	-0.736891	0.650043
C36	C	1.656205	-0.236891	1.150043
C37	C	1.041887	-0.720442	0.635563
C38	C	1.541887	-0.220442	1.135563
C39	C	0.983014	-0.783992	0.691504
C40	C	1.483014	-0.283992	1.191504
C41	C	0.864860	-0.766993	0.676540
C42	C	1.364860	-0.266993	1.176540
C43	C	1.423359	-1.048363	0.683918
C44	C	1.923359	-0.548363	1.183918
C45	C	1.423424	-1.165153	0.683952
C46	C	1.923424	-0.665153	1.183952
C47	C	1.497609	-1.222171	0.626602
C48	C	1.997609	-0.722171	1.126602
C49	C	1.497668	-1.331908	0.626642
C50	C	1.997668	-0.831908	1.126642
C51	C	1.349348	-1.327596	0.741382
C52	C	1.849348	-0.827596	1.241382
C53	C	1.349295	-1.217863	0.741348
C54	C	1.849295	-0.717863	1.241348
C55	C	1.571738	-1.169461	0.569206
C56	C	2.071738	-0.669461	1.069206
C57	C	1.645929	-1.226480	0.511852
C58	C	2.145929	-0.726480	1.011852
C59	C	1.645988	-1.336216	0.511891
C60	C	2.145988	-0.836216	1.011891
C61	C	1.571857	-1.388934	0.569286
C62	C	2.071857	-0.888934	1.069286
C63	C	1.691674	-0.814074	0.717984
C64	C	2.191674	-0.314074	1.217984
C65	C	1.805989	-0.830552	0.732489
C66	C	2.305989	-0.330552	1.232489
C67	C	1.389401	-0.805212	0.952195
C68	C	1.889401	-0.305212	1.452195
C69	C	1.374905	-0.817913	1.066506
C70	C	1.874905	-0.317913	1.566506
C71	C	1.423501	-0.501392	0.684002
C72	C	1.923501	-0.001392	1.184002
C73	C	1.423537	-0.384623	0.684026
C74	C	1.923537	0.115377	1.184026
C75	C	1.457361	-0.745651	0.416751
C76	C	1.957361	-0.245651	0.916751
C77	C	1.472056	-0.732683	0.302465
C78	C	1.972056	-0.232683	0.802465
C79	C	1.430967	-0.768738	1.125413
C80	C	1.930967	-0.268738	1.625413
C81	C	1.415986	-0.781864	1.243560
C82	C	1.915986	-0.281864	1.743560
H83	H	1.020083	-0.850982	0.750480
H84	H	1.520083	-0.350982	1.250480
H85	H	0.843052	-0.897545	0.791471
H86	H	1.343052	-0.397545	1.291471
H87	H	0.827794	-0.699991	0.617568
H88	H	1.327794	-0.199991	1.117568
F89	F	1.724827	-1.170375	0.450781
F90	F	2.224827	-0.670375	0.950781
H91	H	1.531143	-0.680854	1.265436
H92	H	2.031143	-0.180854	1.765436
F93	F	1.297666	-0.885639	1.114906
F94	F	1.797666	-0.385639	1.614906
H95	H	1.004816	-0.653445	0.576595
H96	H	1.504816	-0.153445	1.076595
F97	F	1.270457	-1.383706	0.802459
F98	F	1.770457	-0.883706	1.302459
F99	F	1.571878	-1.052728	0.569414
F100	F	2.071878	-0.552728	1.069414
H101	H	1.706403	-1.382640	0.465198
H102	H	2.206403	-0.882640	0.965198
F103	F	1.571633	-1.505641	0.568950
F104	F	2.071633	-1.005641	1.068950
F105	F	1.270340	-1.157176	0.802387
F106	F	1.770340	-0.657176	1.302387
H107	H	1.490051	-0.716916	1.088378
H108	H	1.990051	-0.216916	1.588378
H109	H	1.356888	-0.833678	1.280589
H110	H	1.856888	-0.333678	1.780589
