data_functionalizedCrystal
_audit_creation_method	'MofGen! by Chris Wilmer'
_symmetry_space_group_name_H-M	'P1'
_symmetry_Int_Tables_number	1
_symmetry_cell_setting	triclinic
loop_
_symmetry_equiv_pos_as_xyz
  x,y,z
_cell_length_a	9.065218
_cell_length_b	10.540539
_cell_length_c	8.140239
_cell_angle_alpha	89.998610
_cell_angle_beta	89.997198
_cell_angle_gamma	84.770688
loop_
_atom_site_label
_atom_site_type_symbol
_atom_site_fract_x
_atom_site_fract_y
_atom_site_fract_z
O1	O	1.959468	0.186143	-0.136609
O2	O	1.530107	0.201412	-0.136611
O3	O	1.754583	0.009107	-0.136608
O4	O	1.734992	0.378448	-0.136612
O5	O	1.754571	0.009105	0.136619
O6	O	1.530095	0.201409	0.136616
O7	O	1.959456	0.186141	0.136618
Zn8	Zn	1.744773	0.193775	0.179998
Zn9	Zn	1.744790	0.193778	-0.179991
O10	O	1.734980	0.378446	0.136615
C11	C	1.475122	0.199943	0.000003
C12	C	1.311301	0.195556	0.000002
C13	C	1.753108	-0.038202	0.000003
C14	C	1.748712	-0.179167	-0.000006
C15	C	1.580278	-0.363216	-0.000620
C16	C	1.584734	-0.216582	-0.000005
C17	C	1.827619	-0.240534	0.156020
C18	C	1.822022	-0.387099	0.156152
C19	C	1.825372	-0.387602	-0.154558
C20	C	1.826882	-0.240615	-0.156621
C21	C	2.014441	0.187610	0.000001
C22	C	2.178262	0.191997	-0.000009
C23	C	1.736455	0.425755	0.000001
C24	C	1.740851	0.566719	-0.000001
N25	N	1.744773	0.193772	0.425681
N26	N	1.744802	0.193771	-0.425673
H27	H	1.522646	-0.174207	-0.111851
O28	O	1.503159	-0.399660	0.131935
C29	C	1.376574	-0.456282	0.078389
H30	H	1.395136	-0.493410	-0.052204
H31	H	1.276527	-0.382465	0.080748
C32	C	1.325573	-0.522095	0.353519
C33	C	1.348377	-0.567706	0.193126
H34	H	1.308174	-0.590823	0.424297
H35	H	1.410853	-0.483944	0.389596
H36	H	1.242203	-0.460580	0.355461
H37	H	1.431756	-0.629207	0.191182
H38	H	1.263110	-0.605871	0.157051
H39	H	1.515508	-0.392055	-0.112509
O40	O	1.757976	-0.191865	-0.294168
C41	C	1.639542	-0.102635	-0.249077
H42	H	1.660110	-0.064764	-0.120713
H43	H	1.531850	-0.150681	-0.249647
C44	C	1.602601	-0.037931	-0.530112
C45	C	1.627869	0.008590	-0.372457
H46	H	1.595394	0.030675	-0.606221
H47	H	1.682388	-0.098050	-0.560493
H48	H	1.512859	-0.077969	-0.530563
H49	H	1.717618	0.048613	-0.372003
H50	H	1.548096	0.068719	-0.342079
H51	H	1.763696	-0.415515	0.272784
H52	H	1.946435	-0.215951	-0.166043
H53	H	1.772796	-0.198138	0.272130
O54	O	1.971248	-0.213280	0.163253
C55	C	1.994595	-0.145939	0.309220
H56	H	1.907283	-0.166823	0.403815
H57	H	1.985871	-0.039388	0.282230
C58	C	2.257068	-0.162453	0.261163
C59	C	2.149837	-0.188111	0.377351
H60	H	2.352830	-0.188461	0.303187
H61	H	2.241339	-0.207817	0.162819
H62	H	2.249779	-0.073660	0.238682
H63	H	2.157115	-0.276904	0.399815
H64	H	2.165571	-0.142762	0.475701
H65	H	1.943812	-0.434390	-0.155607
H66	H	1.939953	-0.434632	0.163231
O67	O	1.762289	-0.425417	-0.295802
C68	C	1.840585	-0.382940	-0.431815
H69	H	1.957873	-0.365949	-0.392528
H70	H	1.781656	-0.290273	-0.480239
C71	C	1.703226	-0.505537	-0.616298
C72	C	1.847285	-0.484679	-0.568048
H73	H	1.707354	-0.568290	-0.700337
H74	H	1.650472	-0.534151	-0.524665
H75	H	1.654134	-0.428307	-0.656640
H76	H	1.896368	-0.561903	-0.527687
H77	H	1.900048	-0.456079	-0.659678
O78	O	1.510143	-0.166818	0.133532
C79	C	1.513926	-0.033394	0.134639
H80	H	1.533914	0.001326	0.004586
H81	H	1.607219	-0.006982	0.218315
C82	C	1.340485	-0.012870	0.358225
C83	C	1.365022	0.029775	0.198490
H84	H	1.248638	0.026097	0.397619
H85	H	1.337940	-0.102761	0.357485
H86	H	1.418240	0.009143	0.427936
H87	H	1.287279	0.007748	0.128779
H88	H	1.367551	0.119664	0.199220
