data_functionalizedCrystal
_audit_creation_method	'MofGen! by Chris Wilmer'
_symmetry_space_group_name_H-M	'P1'
_symmetry_Int_Tables_number	1
_symmetry_cell_setting	triclinic
loop_
_symmetry_equiv_pos_as_xyz
  x,y,z
_cell_length_a	14.044209
_cell_length_b	13.101039
_cell_length_c	14.044190
_cell_angle_alpha	86.336293
_cell_angle_beta	86.810135
_cell_angle_gamma	86.340786
loop_
_atom_site_label
_atom_site_type_symbol
_atom_site_fract_x
_atom_site_fract_y
_atom_site_fract_z
O1	O	-1.281975	0.085110	0.225339
O2	O	-1.031975	0.335110	0.475339
O3	O	-0.781975	0.585110	0.725339
O4	O	-0.531975	0.835110	0.975339
O5	O	-1.005305	0.085139	0.217034
O6	O	-0.755305	0.335139	0.467034
O7	O	-0.505305	0.585139	0.717034
O8	O	-0.255305	0.835139	0.967034
O9	O	-1.139482	0.085105	0.082851
O10	O	-0.889482	0.335105	0.332851
O11	O	-0.639482	0.585105	0.582851
O12	O	-0.389482	0.835105	0.832851
O13	O	-1.147797	0.085144	0.359521
O14	O	-0.897797	0.335144	0.609521
O15	O	-0.647797	0.585144	0.859521
O16	O	-0.397797	0.835144	1.109521
O17	O	-1.129857	-0.085323	0.092496
O18	O	-0.879857	0.164677	0.342496
O19	O	-0.629857	0.414677	0.592496
O20	O	-0.379857	0.664677	0.842496
O21	O	-0.995679	-0.085289	0.226678
O22	O	-0.745679	0.164711	0.476678
O23	O	-0.495679	0.414711	0.726678
O24	O	-0.245679	0.664711	0.976678
O25	O	-1.272349	-0.085317	0.234983
O26	O	-1.022349	0.164683	0.484983
O27	O	-0.772349	0.414683	0.734983
O28	O	-0.522349	0.664683	0.984983
Zn29	Zn	-1.132486	-0.112362	0.232362
Zn30	Zn	-0.882486	0.137638	0.482362
Zn31	Zn	-0.632486	0.387638	0.732362
Zn32	Zn	-0.382486	0.637638	0.982362
Zn33	Zn	-1.145168	0.112184	0.219655
Zn34	Zn	-0.895168	0.362184	0.469655
Zn35	Zn	-0.645168	0.612184	0.719655
Zn36	Zn	-0.395168	0.862184	0.969655
O37	O	-1.138171	-0.085283	0.369166
O38	O	-0.888171	0.164717	0.619166
O39	O	-0.638171	0.414717	0.869166
O40	O	-0.388171	0.664717	1.119166
C41	C	-0.964870	-0.000071	0.218220
C42	C	-0.714870	0.249929	0.468220
C43	C	-0.464870	0.499929	0.718220
C44	C	-0.214870	0.749929	0.968220
C45	C	-0.858728	-0.000061	0.207376
C46	C	-0.608728	0.249939	0.457376
C47	C	-0.358728	0.499939	0.707376
C48	C	-0.108728	0.749939	0.957376
N49	N	-1.123837	-0.265608	0.241035
N50	N	-0.873837	-0.015608	0.491035
N51	N	-0.623837	0.234392	0.741035
N52	N	-0.373837	0.484392	0.991035
C53	C	-0.664388	-0.000082	0.187553
C54	C	-0.414388	0.249918	0.437553
C55	C	-0.164388	0.499918	0.687553
C56	C	0.085612	0.749918	0.937553
C57	C	-0.613260	-0.000075	0.264467
C58	C	-0.363260	0.249925	0.514467
C59	C	-0.113260	0.499925	0.764467
C60	C	0.136740	0.749925	1.014467
C61	C	-0.505123	-0.000087	0.253437
C62	C	-0.255123	0.249913	0.503437
C63	C	-0.005123	0.499913	0.753437
C64	C	0.244877	0.749913	1.003437
C65	C	-0.772535	-0.000071	0.198581
C66	C	-0.522535	0.249929	0.448581
C67	C	-0.272535	0.499929	0.698581
C68	C	-0.022535	0.749929	0.948581
C69	C	-1.112072	-0.474648	0.252843
C70	C	-0.862072	-0.224648	0.502843
C71	C	-0.612072	0.025352	0.752843
C72	C	-0.362072	0.275352	1.002843
C73	C	-1.165586	-0.525537	0.199170
C74	C	-0.915586	-0.275537	0.449170
C75	C	-0.665586	-0.025537	0.699170
C76	C	-0.415586	0.224463	0.949170
C77	C	-1.159039	-0.641854	0.205740
C78	C	-0.909039	-0.391854	0.455740
C79	C	-0.659039	-0.141854	0.705740
C80	C	-0.409039	0.108146	0.955740
C81	C	-1.118617	-0.358320	0.246274
C82	C	-0.868617	-0.108320	0.496274
C83	C	-0.618617	0.141680	0.746274
C84	C	-0.368617	0.391680	0.996274
C85	C	-0.312784	-0.000101	0.233798
C86	C	-0.062784	0.249899	0.483798
C87	C	0.187216	0.499899	0.733798
C88	C	0.437216	0.749899	0.983798
C89	C	-0.418927	-0.000096	0.244648
C90	C	-0.168927	0.249904	0.494648
C91	C	0.081073	0.499904	0.744648
C92	C	0.331073	0.749904	0.994648
C93	C	-1.131033	-0.000111	0.052052
C94	C	-0.881033	0.249889	0.302052
C95	C	-0.631033	0.499889	0.552052
C96	C	-0.381033	0.749889	0.802052
C97	C	-1.120185	-0.000119	-0.054091
C98	C	-0.870185	0.249881	0.195909
C99	C	-0.620185	0.499881	0.445909
C100	C	-0.370185	0.749881	0.695909
N101	N	-1.153823	0.265430	0.210975
N102	N	-0.903823	0.515430	0.460975
N103	N	-0.653823	0.765430	0.710975
N104	N	-0.403823	1.015430	0.960975
C105	C	-1.177287	-0.000085	-0.299552
C106	C	-0.927287	0.249915	-0.049552
C107	C	-0.677287	0.499915	0.200448
C108	C	-0.427287	0.749915	0.450448
C109	C	-1.100371	-0.000084	-0.248426
C110	C	-0.850371	0.249916	0.001574
C111	C	-0.600371	0.499916	0.251574
C112	C	-0.350371	0.749916	0.501574
C113	C	-1.111398	-0.000104	-0.140288
C114	C	-0.861398	0.249896	0.109712
C115	C	-0.611398	0.499896	0.359712
C116	C	-0.361398	0.749896	0.609712
C117	C	-1.166262	-0.000065	-0.407700
C118	C	-0.916262	0.249935	-0.157700
C119	C	-0.666262	0.499935	0.092300
C120	C	-0.416262	0.749935	0.342300
C121	C	-1.146621	-0.000064	0.399965
C122	C	-0.896621	0.249936	0.649965
C123	C	-0.646621	0.499936	0.899965
C124	C	-0.396621	0.749936	1.149965
C125	C	-1.157469	-0.000050	0.506107
C126	C	-0.907469	0.249950	0.756107
C127	C	-0.657469	0.499950	1.006107
C128	C	-0.407469	0.749950	1.256107
H129	H	-0.650702	-0.000060	0.338600
H130	H	-0.400702	0.249940	0.588600
H131	H	-0.150702	0.499940	0.838600
H132	H	0.099298	0.749940	1.088600
H133	H	-1.026239	-0.000071	-0.285869
H134	H	-0.776239	0.249929	-0.035869
H135	H	-0.526239	0.499929	0.214131
H136	H	-0.276239	0.749929	0.464131
H137	H	-1.216318	-0.481748	0.148286
H138	H	-0.966318	-0.231748	0.398286
H139	H	-0.716318	0.018252	0.648286
H140	H	-0.466318	0.268252	0.898286
H141	H	-1.061344	-0.518432	0.303725
H142	H	-0.811344	-0.268432	0.553725
H143	H	-0.561344	-0.018432	0.803725
H144	H	-0.311344	0.231568	1.053725
H145	H	-0.626948	-0.000098	0.113426
H146	H	-0.376948	0.249902	0.363426
H147	H	-0.126948	0.499902	0.613426
H148	H	0.123052	0.749902	0.863426
H149	H	-1.251413	-0.000103	-0.262110
H150	H	-1.001413	0.249897	-0.012110
H151	H	-0.751413	0.499897	0.237890
H152	H	-0.501413	0.749897	0.487890
