data_functionalizedCrystal
_audit_creation_method	'MofGen! by Chris Wilmer'
_symmetry_space_group_name_H-M	'P1'
_symmetry_Int_Tables_number	1
_symmetry_cell_setting	triclinic
loop_
_symmetry_equiv_pos_as_xyz
  x,y,z
_cell_length_a	17.917603
_cell_length_b	16.704494
_cell_length_c	16.704486
_cell_angle_alpha	54.475908
_cell_angle_beta	54.833991
_cell_angle_gamma	89.733004
loop_
_atom_site_label
_atom_site_type_symbol
_atom_site_fract_x
_atom_site_fract_y
_atom_site_fract_z
Zr1	Zr	0.684326	-0.144145	0.891306
O2	O	0.535999	-0.303337	1.105238
O3	O	0.739365	-0.085074	0.698339
O4	O	0.715098	-0.278571	0.902982
O5	O	0.568524	0.031111	0.884074
O6	O	0.845490	-0.270719	0.888344
O7	O	0.560266	-0.109839	0.900595
O8	O	0.888899	0.075413	0.522275
O9	O	0.525115	-0.315020	1.250143
O10	O	0.848588	-0.066429	0.759020
O11	O	0.757441	0.032901	0.757615
O12	O	0.728870	-0.194918	0.998556
O13	O	0.637723	-0.095588	0.997151
Zr14	Zr	0.905457	0.093178	0.841612
Zr15	Zr	0.892286	-0.131622	0.867961
Zr16	Zr	0.697497	0.080655	0.864958
Zr17	Zr	0.666968	-0.162779	1.122413
Zr18	Zr	0.922816	0.111812	0.610505
O19	O	0.850419	0.034107	1.034579
O20	O	0.831692	-0.285530	1.072044
O21	O	0.554726	0.016300	1.067774
O22	O	1.053784	0.252370	0.627680
O23	O	1.035057	-0.067267	0.665145
O24	O	0.758092	0.234563	0.660875
O25	O	1.021259	-0.082078	0.848844
O26	O	0.874686	0.227604	0.829936
O27	O	0.744294	0.219752	0.844574
O28	O	1.029517	0.058872	0.832323
O29	O	0.690416	-0.305066	1.231587
O30	O	0.899368	0.254099	0.501332
O31	O	1.064668	0.264053	0.482775
O32	O	1.054199	0.085367	0.503719
O33	O	0.535584	-0.136334	1.229200
O34	O	0.700885	-0.126380	1.210643
O35	O	0.860914	0.143951	0.734362
O36	O	0.952061	0.044621	0.735767
O37	O	0.832343	-0.083868	0.975303
O38	O	0.741195	0.015462	0.973898
C39	C	0.534765	-0.041148	0.895661
C40	C	0.446481	-0.046465	0.905571
C41	C	0.816605	-0.002175	0.577379
C42	C	0.823974	0.005735	0.479268
C43	C	0.811366	0.255707	0.833501
C44	C	0.816957	0.351141	0.822316
C45	C	0.284862	-0.056174	0.923674
C46	C	0.304913	0.005204	0.809250
C47	C	0.214984	-0.000198	0.819322
C48	C	0.374798	-0.050773	0.913604
C49	C	1.055018	-0.009819	0.837258
C50	C	1.143303	-0.004502	0.827347
C51	C	0.778417	-0.306674	0.899417
C52	C	0.772826	-0.402108	0.910603
C53	C	0.702452	0.396317	1.051396
C54	C	0.707703	0.485982	1.040892
C55	C	0.832701	0.620136	0.790807
C56	C	0.827451	0.530471	0.801311
C57	C	0.762326	0.418562	0.931609
C58	C	0.757082	0.328897	0.942111
C59	C	0.882075	0.463051	0.692028
C60	C	0.887325	0.552716	0.681524
C61	C	0.673052	-0.156262	0.488922
C62	C	0.679971	-0.148835	0.396744
C63	C	0.844735	0.028009	0.202733
C64	C	0.837816	0.020583	0.294911
C65	C	0.751970	-0.071555	0.438006
C66	C	0.745048	-0.078976	0.530185
C67	C	0.909815	0.097863	0.336174
C68	C	0.916735	0.105290	0.243996
C69	C	0.773178	-0.048792	1.155539
C70	C	0.765809	-0.056702	1.253650
C71	C	1.076731	0.013489	0.548177
C72	C	1.172385	0.026716	0.440156
C73	C	0.833079	0.279015	0.544421
C74	C	0.846040	0.382359	0.435124
C75	C	1.093206	0.294680	0.515220
C76	C	1.194451	0.403341	0.396012
C77	C	0.496578	-0.345647	1.217698
C78	C	0.395333	-0.454308	1.336906
C79	C	0.513052	-0.064456	1.184741
C80	C	0.417398	-0.077683	1.292762
C81	C	0.756704	-0.329982	1.188497
C82	C	0.743744	-0.433326	1.297794
C83	C	1.163293	-0.025049	0.401566
C84	C	1.253160	-0.012643	0.300084
C85	C	1.352118	0.051535	0.237187
C86	C	1.361208	0.103300	0.275785
C87	C	1.271342	0.090888	0.377272
C88	C	0.906139	0.488867	0.371659
C89	C	0.918312	0.585977	0.268975
C90	C	0.870392	0.576578	0.229752
C91	C	0.810286	0.470059	0.293229
C92	C	0.798107	0.372950	0.395918
C93	C	1.289583	0.402520	0.340764
C94	C	1.384720	0.504609	0.228769
C95	C	1.384723	0.607518	0.172018
C96	C	1.289580	0.608335	0.227277
C97	C	1.194445	0.506247	0.339276
C98	C	0.300199	-0.453488	1.392166
C99	C	0.205060	-0.555579	1.504189
C100	C	0.205057	-0.658488	1.560945
C101	C	0.300201	-0.659305	1.505680
C102	C	0.395337	-0.557216	1.393665
C103	C	0.426489	-0.025929	1.331362
C104	C	0.336619	-0.038361	1.432873
C105	C	0.237660	-0.102542	1.495774
C106	C	0.228571	-0.154303	1.457171
C107	C	0.318439	-0.141877	1.355669
C108	C	0.791677	-0.423890	1.336982
C109	C	0.779520	-0.520982	1.439663
C110	C	0.719422	-0.627510	1.503160
C111	C	0.671488	-0.636943	1.463962
C112	C	0.683652	-0.539852	1.361277
H113	H	0.389619	0.061809	0.703723
H114	H	0.300185	-0.743106	1.551905
H115	H	0.840614	-0.337159	1.285296
H116	H	0.749173	0.286231	0.447580
O117	O	0.121832	-0.223518	1.525016
H118	H	0.105277	-0.311812	1.577870
H119	H	0.344041	0.003796	1.464285
H120	H	0.644612	-0.547551	1.329383
H121	H	0.704055	0.237779	1.048206
O122	O	0.172669	-0.131172	1.063456
H123	H	0.118630	-0.123709	1.049523
O124	O	1.467946	0.172531	0.207929
H125	H	1.528901	0.172470	0.130865
O126	O	0.594850	-0.240192	0.451654
H127	H	0.533994	-0.305500	0.566641
O128	O	0.831224	-0.510786	1.481925
H129	H	0.812688	-0.596189	1.563982
H130	H	0.164492	-0.112651	1.578421
H131	H	0.914635	0.103013	0.086217
H132	H	1.425285	0.061634	0.154550
H133	H	0.311023	-0.184020	1.324246
H134	H	0.603138	-0.231268	0.605434
H135	H	0.885717	0.711262	0.684726
H136	H	0.709526	-0.706560	1.586772
H137	H	0.622556	-0.723691	1.515677
O138	O	1.009320	0.204667	0.089660
H139	H	1.000872	0.195606	0.034114
O140	O	0.102451	-0.554685	1.563763
H141	H	0.118447	-0.465970	1.505449
O142	O	0.632218	0.275613	1.191920
H143	H	0.591462	0.275208	1.273454
O144	O	0.946656	0.487054	0.562815
H145	H	0.932062	0.405906	0.592004
H146	H	0.658945	0.467860	1.138435
O147	O	0.983161	0.700861	0.200498
H148	H	1.014453	0.691075	0.245008
H149	H	1.289598	0.692137	0.181054
H150	H	0.127584	-0.741608	1.652155
H151	H	0.940345	0.643841	0.575440
H152	H	0.771273	0.462422	0.261278
H153	H	0.472795	-0.557896	1.348674
H154	H	1.082722	-0.077321	0.452779
O155	O	0.652470	-0.178355	0.684522
H156	H	0.598764	-0.236016	0.704436
H157	H	0.974073	0.166842	0.294720
O158	O	1.243346	-0.068469	0.258453
H159	H	1.159437	-0.115159	0.319226
H160	H	1.278760	0.133049	0.408677
O161	O	0.957823	0.499018	0.413958
H162	H	1.001645	0.589400	0.352574
H163	H	1.116989	0.506931	0.384246
H164	H	1.289601	0.318737	0.386954
O165	O	0.883552	0.681324	0.118971
H166	H	0.933409	0.756962	0.081420
O167	O	1.487342	0.503741	0.169160
H168	H	1.496399	0.464117	0.131289
O169	O	1.487338	0.717627	0.051204
H170	H	1.553485	0.699757	0.022318
O171	O	0.533218	0.043294	1.263532
H172	H	0.568863	-0.011149	1.283195
H173	H	0.300183	-0.369704	1.345963
