data_functionalizedCrystal
_audit_creation_method	'MofGen! by Chris Wilmer'
_symmetry_space_group_name_H-M	'P1'
_symmetry_Int_Tables_number	1
_symmetry_cell_setting	triclinic
loop_
_symmetry_equiv_pos_as_xyz
  x,y,z
_cell_length_a	19.188925
_cell_length_b	19.188930
_cell_length_c	16.053802
_cell_angle_alpha	92.551696
_cell_angle_beta	87.426601
_cell_angle_gamma	83.143665
loop_
_atom_site_label
_atom_site_type_symbol
_atom_site_fract_x
_atom_site_fract_y
_atom_site_fract_z
O1	O	0.929103	0.084200	-0.069456
O2	O	1.262436	0.417533	0.263877
O3	O	1.595770	0.750866	0.597210
O4	O	0.725791	0.095938	-0.069455
O5	O	1.059124	0.429271	0.263878
O6	O	1.392458	0.762605	0.597211
O7	O	0.833313	-0.011586	-0.069439
O8	O	1.166647	0.321747	0.263894
O9	O	1.499980	0.655080	0.597227
O10	O	0.821580	0.191724	-0.069472
O11	O	1.154914	0.525057	0.263861
O12	O	1.488247	0.858390	0.597195
O13	O	0.827395	-0.005692	0.069419
O14	O	1.160728	0.327641	0.402752
O15	O	1.494062	0.660974	0.736085
O16	O	0.719873	0.101832	0.069403
O17	O	1.053206	0.435165	0.402736
O18	O	1.386539	0.768499	0.736069
O19	O	0.923185	0.090094	0.069402
O20	O	1.256518	0.423427	0.402735
O21	O	1.589851	0.756760	0.736068
Zn22	Zn	0.820589	0.096899	0.091449
Zn23	Zn	1.153922	0.430232	0.424782
Zn24	Zn	1.487256	0.763565	0.758116
Zn25	Zn	0.828387	0.089133	-0.091502
Zn26	Zn	1.161720	0.422466	0.241831
Zn27	Zn	1.495053	0.755800	0.575164
O28	O	0.815662	0.197618	0.069386
O29	O	1.148996	0.530951	0.402719
O30	O	1.482329	0.864285	0.736053
C31	C	0.696821	0.098505	-0.000026
C32	C	1.030154	0.431839	0.333307
C33	C	1.363487	0.765172	0.666641
C34	C	0.619316	0.097366	-0.000025
C35	C	0.952649	0.430700	0.333309
C36	C	1.285983	0.764033	0.666642
C37	C	0.057546	0.152830	-0.000036
C38	C	0.390880	0.486163	0.333298
C39	C	0.724213	0.819497	0.666631
C40	C	0.130370	0.153906	-0.000040
C41	C	0.463703	0.487239	0.333293
C42	C	0.797036	0.820573	0.666626
C43	C	0.175304	0.090815	-0.000029
C44	C	0.508637	0.424148	0.333305
C45	C	0.841970	0.757481	0.666638
C46	C	0.147410	0.026641	-0.000034
C47	C	0.480743	0.359974	0.333300
C48	C	0.814076	0.693308	0.666633
C49	C	0.074588	0.025566	-0.000038
C50	C	0.407921	0.358899	0.333296
C51	C	0.741255	0.692233	0.666629
N52	N	0.293966	0.047145	0.047247
N53	N	0.627299	0.380478	0.380580
N54	N	0.960633	0.713812	0.713914
N55	N	0.363143	0.048170	0.047252
N56	N	0.696476	0.381504	0.380586
N57	N	1.029810	0.714837	0.713919
C58	C	0.394712	0.094049	-0.000019
C59	C	0.728046	0.427382	0.333314
C60	C	1.061379	0.760716	0.666647
N61	N	0.354490	0.138874	-0.047286
N62	N	0.687823	0.472208	0.286047
N63	N	1.021156	0.805541	0.619381
N64	N	0.285306	0.137851	-0.047287
N65	N	0.618639	0.471184	0.286046
N66	N	0.951972	0.804518	0.619379
C67	C	0.254268	0.091973	-0.000025
C68	C	0.587601	0.425306	0.333308
C69	C	0.920934	0.758640	0.666641
C70	C	0.501562	0.159385	-0.000025
C71	C	0.834895	0.492719	0.333308
C72	C	1.168228	0.826052	0.666642
C73	C	0.574387	0.160459	-0.000035
C74	C	0.907720	0.493792	0.333298
C75	C	1.241054	0.827125	0.666632
C76	C	0.591426	0.033192	-0.000020
C77	C	0.924759	0.366525	0.333313
C78	C	1.258092	0.699859	0.666647
C79	C	0.518602	0.032120	-0.000019
C80	C	0.851935	0.365453	0.333315
C81	C	1.185268	0.698787	0.666648
C82	C	0.473674	0.095219	-0.000017
C83	C	0.807007	0.428552	0.333316
C84	C	1.140340	0.761886	0.666649
C85	C	0.829974	-0.034650	-0.000008
C86	C	1.163307	0.298683	0.333325
C87	C	1.496641	0.632016	0.666659
C88	C	0.828833	-0.112154	-0.000001
C89	C	1.162166	0.221179	0.333332
C90	C	1.495500	0.554512	0.666666
C91	C	0.891924	-0.157079	0.000003
C92	C	1.225257	0.176254	0.333336
C93	C	1.558591	0.509587	0.666669
C94	C	0.890853	-0.229904	-0.000011
C95	C	1.224186	0.103430	0.333323
C96	C	1.557520	0.436763	0.666656
C97	C	0.826687	-0.257799	-0.000011
C98	C	1.160020	0.075534	0.333322
C99	C	1.493353	0.408868	0.666656
C100	C	0.763588	-0.212864	-0.000019
C101	C	1.096921	0.120469	0.333314
C102	C	1.430254	0.453802	0.666647
C103	C	0.764661	-0.140042	-0.000014
C104	C	1.097994	0.193291	0.333319
C105	C	1.431328	0.526625	0.666652
N106	N	0.775625	-0.363797	0.047245
N107	N	1.108958	-0.030464	0.380579
N108	N	1.442292	0.302869	0.713912
N109	N	0.774610	-0.432976	0.047242
N110	N	1.107943	-0.099643	0.380576
N111	N	1.441276	0.233691	0.713909
C112	C	0.823449	-0.477208	-0.000028
C113	C	1.156783	-0.143875	0.333306
C114	C	1.490116	0.189458	0.666639
N115	N	0.873353	-0.449650	-0.047284
N116	N	1.206686	-0.116316	0.286049
N117	N	1.540019	0.217017	0.619382
N118	N	0.874370	-0.380465	-0.047278
N119	N	1.207703	-0.047131	0.286056
N120	N	1.541036	0.286202	0.619389
C121	C	0.825516	-0.336762	-0.000017
C122	C	1.158849	-0.003428	0.333317
C123	C	1.492182	0.329905	0.666650
C124	C	0.885383	-0.601098	-0.000040
C125	C	1.218716	-0.267765	0.333294
C126	C	1.552050	0.065568	0.666627
C127	C	0.884310	-0.673924	-0.000058
C128	C	1.217643	-0.340591	0.333275
C129	C	1.550976	-0.007257	0.666608
C130	C	0.757042	-0.656883	-0.000059
C131	C	1.090376	-0.323549	0.333275
C132	C	1.423709	0.009784	0.666608
C133	C	0.758118	-0.584059	-0.000048
C134	C	1.091451	-0.250726	0.333285
C135	C	1.424785	0.082608	0.666618
C136	C	0.822290	-0.556171	-0.000035
C137	C	1.155623	-0.222838	0.333298
C138	C	1.488957	0.110495	0.666632
C139	C	0.952155	0.087526	-0.000029
C140	C	1.285488	0.420859	0.333304
C141	C	1.618822	0.754193	0.666637
C142	C	1.029660	0.088665	-0.000036
C143	C	1.362993	0.421998	0.333297
C144	C	1.696327	0.755332	0.666631
C145	C	0.819002	0.220682	-0.000047
C146	C	1.152335	0.554015	0.333286
C147	C	1.485668	0.887348	0.666619
C148	C	0.820143	0.298186	-0.000060
C149	C	1.153476	0.631519	0.333273
C150	C	1.486809	0.964852	0.666607
N151	N	0.815273	0.102198	0.216309
N152	N	1.148606	0.435531	0.549642
N153	N	1.481939	0.768865	0.882975
N154	N	0.833709	0.083828	-0.216362
N155	N	1.167042	0.417161	0.116971
N156	N	1.500375	0.750495	0.450305
C157	C	0.861040	0.056463	0.260009
C158	C	1.194373	0.389796	0.593342
C159	C	1.527707	0.723129	0.926676
C160	C	0.857328	0.060176	0.347415
C161	C	1.190661	0.393510	0.680749
C162	C	1.523994	0.726843	1.014082
C163	C	0.807850	0.109629	0.391119
C164	C	1.141184	0.442963	0.724453
C165	C	1.474517	0.776296	1.057786
C166	C	0.762078	0.155367	0.347413
C167	C	1.095411	0.488700	0.680746
C168	C	1.428745	0.822034	1.014079
C169	C	0.765788	0.151649	0.260008
C170	C	1.099121	0.484983	0.593341
C171	C	1.432454	0.818316	0.926675
C172	C	0.791646	0.125848	0.652527
C173	C	1.124979	0.459181	0.985860
C174	C	1.458313	0.792515	1.319193
C175	C	0.787941	0.129563	0.739937
C176	C	1.121274	0.462897	1.073271
C177	C	1.454608	0.796230	1.406604
C178	C	0.883190	0.034371	0.739934
C179	C	1.216524	0.367705	1.073267
C180	C	1.549857	0.701038	1.406601
C181	C	0.886898	0.030661	0.652528
C182	C	1.220232	0.363995	0.985861
C183	C	1.553565	0.697328	1.319194
C184	C	0.841124	0.076396	0.608829
C185	C	1.174457	0.409730	0.942162
C186	C	1.507790	0.743063	1.275495
N187	N	0.804056	0.113428	0.480463
N188	N	1.137389	0.446761	0.813796
N189	N	1.470723	0.780095	1.147129
N190	N	0.844915	0.072594	0.519487
N191	N	1.178249	0.405927	0.852820
N192	N	1.511582	0.739260	1.186154
H193	H	0.495897	-0.020130	-0.000014
H194	H	0.829230	0.313203	0.333319
H195	H	1.162564	0.646537	0.666653
Br196	Br	0.945309	-0.027696	0.799243
Br197	Br	1.278642	0.305638	1.132576
Br198	Br	1.611976	0.638971	1.465910
Br199	Br	0.652400	-0.052435	-0.000022
Br200	Br	0.985734	0.280898	0.333311
Br201	Br	1.319067	0.614232	0.666645
Br202	Br	0.676505	-0.250721	-0.000030
Br203	Br	1.009838	0.082613	0.333303
Br204	Br	1.343171	0.415946	0.666636
H205	H	0.721789	0.195630	0.383001
H206	H	1.055122	0.528964	0.716335
H207	H	1.388456	0.862297	1.049668
Br208	Br	0.703667	0.213717	0.200700
Br209	Br	1.037000	0.547051	0.534033
Br210	Br	1.370334	0.880384	0.867366
H211	H	0.153079	0.206159	-0.000032
H212	H	0.486412	0.539492	0.333301
H213	H	0.819746	0.872826	0.666635
H214	H	0.927187	-0.009607	0.616946
H215	H	1.260520	0.323726	0.950279
H216	H	1.593853	0.657059	1.283612
Br217	Br	0.928196	-0.010651	0.200706
Br218	Br	1.261530	0.322683	0.534039
Br219	Br	1.594863	0.656016	0.867372
H220	H	0.051884	-0.026686	-0.000038
H221	H	0.385218	0.306647	0.333295
H222	H	0.718551	0.639980	0.666629
H223	H	0.935688	-0.710502	-0.000060
H224	H	1.269021	-0.377169	0.333273
H225	H	1.602355	-0.043836	0.666607
Br226	Br	0.979015	-0.119236	-0.000002
Br227	Br	1.312348	0.214098	0.333331
Br228	Br	1.645682	0.547431	0.666664
H229	H	0.020970	0.204210	-0.000038
H230	H	0.354303	0.537543	0.333295
H231	H	0.687637	0.870877	0.666628
Br232	Br	0.672490	-0.523085	-0.000053
Br233	Br	1.005823	-0.189752	0.333281
Br234	Br	1.339156	0.143582	0.666614
Br235	Br	0.972471	-0.563246	-0.000013
Br236	Br	1.305804	-0.229913	0.333320
Br237	Br	1.639138	0.103421	0.666654
H238	H	0.464979	0.210764	-0.000026
H239	H	0.798313	0.544097	0.333308
H240	H	1.131646	0.877431	0.666641
Br241	Br	0.208390	-0.058985	-0.000025
Br242	Br	0.541723	0.274349	0.333308
Br243	Br	0.875056	0.607682	0.666641
Br244	Br	0.669958	-0.694733	-0.000067
Br245	Br	1.003291	-0.361399	0.333266
Br246	Br	1.336625	-0.028066	0.666599
H247	H	0.894595	0.022934	0.382996
H248	H	1.227928	0.356268	0.716329
H249	H	1.561261	0.689601	1.049663
Br250	Br	0.720790	0.196687	0.799245
Br251	Br	1.054124	0.530021	1.132578
Br252	Br	1.387457	0.863354	1.465911
Br253	Br	0.729526	0.187916	0.593225
Br254	Br	1.062860	0.521250	0.926559
Br255	Br	1.396193	0.854583	1.259892
Br256	Br	0.976482	-0.290886	-0.000009
Br257	Br	1.309816	0.042448	0.333324
Br258	Br	1.643149	0.375781	0.666657
Br259	Br	0.612234	0.247547	-0.000047
Br260	Br	0.945567	0.580880	0.333286
Br261	Br	1.278901	0.914214	0.666620
H262	H	0.713283	-0.103463	-0.000017
H263	H	1.046616	0.229870	0.333316
H264	H	1.379950	0.563203	0.666650
