data_functionalizedCrystal
_audit_creation_method	'MofGen! by Chris Wilmer'
_symmetry_space_group_name_H-M	'P1'
_symmetry_Int_Tables_number	1
_symmetry_cell_setting	triclinic
loop_
_symmetry_equiv_pos_as_xyz
  x,y,z
_cell_length_a	19.121102
_cell_length_b	18.050589
_cell_length_c	18.050582
_cell_angle_alpha	89.981795
_cell_angle_beta	87.546607
_cell_angle_gamma	87.582701
loop_
_atom_site_label
_atom_site_type_symbol
_atom_site_fract_x
_atom_site_fract_y
_atom_site_fract_z
Zn1	Zn	1.073672	-0.344221	-0.468310
Zn2	Zn	1.323672	-0.094221	-0.218310
Zn3	Zn	1.573672	0.155779	0.031690
Zn4	Zn	1.823672	0.405779	0.281690
Zn5	Zn	1.073587	-0.468400	-0.344126
Zn6	Zn	1.323587	-0.218400	-0.094126
Zn7	Zn	1.573587	0.031600	0.155874
Zn8	Zn	1.823587	0.281600	0.405874
Zn9	Zn	0.956231	-0.338926	-0.338843
Zn10	Zn	1.206231	-0.088926	-0.088843
Zn11	Zn	1.456231	0.161074	0.161157
Zn12	Zn	1.706231	0.411074	0.411157
Zn13	Zn	0.956182	-0.463065	-0.462984
Zn14	Zn	1.206182	-0.213065	-0.212984
Zn15	Zn	1.456182	0.036935	0.037016
Zn16	Zn	1.706182	0.286935	0.287016
O17	O	1.014918	-0.403653	-0.403566
O18	O	1.264918	-0.153653	-0.153566
O19	O	1.514918	0.096347	0.096434
O20	O	1.764918	0.346347	0.346434
O21	O	1.171944	-0.365142	-0.456277
O22	O	1.421944	-0.115142	-0.206277
O23	O	1.671944	0.134858	0.043723
O24	O	1.921944	0.384858	0.293723
O25	O	1.058005	-0.451242	-0.239500
O26	O	1.308005	-0.201242	0.010500
O27	O	1.558005	0.048758	0.260500
O28	O	1.808005	0.298758	0.510500
O29	O	0.971866	-0.235706	-0.356035
O30	O	1.221866	0.014294	-0.106035
O31	O	1.471866	0.264294	0.143965
O32	O	1.721866	0.514294	0.393965
O33	O	1.171882	-0.456376	-0.365039
O34	O	1.421882	-0.206376	-0.115039
O35	O	1.671882	0.043624	0.134961
O36	O	1.921882	0.293624	0.384961
O37	O	1.058149	-0.239596	-0.451154
O38	O	1.308149	0.010404	-0.201154
O39	O	1.558149	0.260404	0.048846
O40	O	1.808149	0.510404	0.298846
O41	O	0.971784	-0.356118	-0.235618
O42	O	1.221784	-0.106118	0.014382
O43	O	1.471784	0.143882	0.264382
O44	O	1.721784	0.393882	0.514382
O45	O	0.857941	-0.350944	-0.350871
O46	O	1.107941	-0.100944	-0.100871
O47	O	1.357941	0.149056	0.149129
O48	O	1.607941	0.399056	0.399129
O49	O	0.971782	-0.447283	-0.567616
O50	O	1.221782	-0.197283	-0.317616
O51	O	1.471782	0.052717	-0.067616
O52	O	1.721782	0.302717	0.182384
O53	O	0.857905	-0.442148	-0.442077
O54	O	1.107905	-0.192148	-0.192077
O55	O	1.357905	0.057852	0.057923
O56	O	1.607905	0.307852	0.307923
O57	O	1.058101	-0.359969	-0.571529
O58	O	1.308101	-0.109969	-0.321529
O59	O	1.558101	0.140031	-0.071529
O60	O	1.808101	0.390031	0.178471
O61	O	1.057957	-0.571614	-0.359875
O62	O	1.307957	-0.321614	-0.109875
O63	O	1.557957	-0.071614	0.140125
O64	O	1.807957	0.178386	0.390125
O65	O	0.971700	-0.567694	-0.447200
O66	O	1.221700	-0.317694	-0.197200
O67	O	1.471700	-0.067694	0.052800
O68	O	1.721700	0.182306	0.302800
C69	C	1.014833	-0.596601	-0.403550
C70	C	1.264833	-0.346601	-0.153550
C71	C	1.514833	-0.096601	0.096450
C72	C	1.764833	0.153399	0.346450
C73	C	1.014861	-0.679148	-0.403570
C74	C	1.264861	-0.429148	-0.153570
C75	C	1.514861	-0.179148	0.096430
C76	C	1.764861	0.070852	0.346430
C77	C	0.832439	-0.395393	-0.395323
C78	C	1.082439	-0.145393	-0.145323
C79	C	1.332439	0.104607	0.104677
C80	C	1.582439	0.354607	0.354677
C81	C	0.754374	-0.391878	-0.391815
C82	C	1.004374	-0.141878	-0.141815
C83	C	1.254374	0.108122	0.108185
C84	C	1.504374	0.358122	0.358185
C85	C	0.968001	-0.876496	-0.451043
C86	C	1.218001	-0.626496	-0.201043
C87	C	1.468001	-0.376496	0.048957
C88	C	1.718001	-0.126496	0.298957
C89	C	0.950885	-0.925157	-0.382504
C90	C	1.200885	-0.675157	-0.132504
C91	C	1.450885	-0.425157	0.117496
C92	C	1.700885	-0.175157	0.367496
C93	C	1.014930	-0.830282	-0.403583
C94	C	1.264930	-0.580282	-0.153583
C95	C	1.514930	-0.330282	0.096417
C96	C	1.764930	-0.080282	0.346417
C97	C	1.032080	-0.928704	-0.472131
C98	C	1.282080	-0.678704	-0.222131
C99	C	1.532080	-0.428704	0.027869
C100	C	1.782080	-0.178704	0.277869
C101	C	1.014996	-0.976270	-0.403602
C102	C	1.264996	-0.726270	-0.153602
C103	C	1.514996	-0.476270	0.096398
C104	C	1.764996	-0.226270	0.346398
C105	C	0.997781	-0.877853	-0.335007
C106	C	1.247781	-0.627853	-0.085007
C107	C	1.497781	-0.377853	0.164993
C108	C	1.747781	-0.127853	0.414993
C109	C	1.079006	-0.881398	-0.424681
C110	C	1.329006	-0.631398	-0.174681
C111	C	1.579006	-0.381398	0.075319
C112	C	1.829006	-0.131398	0.325319
C113	C	1.061915	-0.930037	-0.356097
C114	C	1.311915	-0.680037	-0.106097
C115	C	1.561915	-0.430037	0.143903
C116	C	1.811915	-0.180037	0.393903
C117	C	1.014891	-0.746182	-0.403574
C118	C	1.264891	-0.496182	-0.153574
C119	C	1.514891	-0.246182	0.096426
C120	C	1.764891	0.003818	0.346426
C121	C	1.015035	-1.060368	-0.403604
C122	C	1.265035	-0.810368	-0.153604
C123	C	1.515035	-0.560368	0.096396
C124	C	1.765035	-0.310368	0.346396
C125	C	0.717698	-0.437783	-0.437578
C126	C	0.967698	-0.187783	-0.187578
C127	C	1.217698	0.062217	0.062422
C128	C	1.467698	0.312217	0.312422
C129	C	0.644347	-0.434470	-0.434285
C130	C	0.894347	-0.184470	-0.184285
C131	C	1.144347	0.065530	0.065715
C132	C	1.394347	0.315530	0.315715
C133	C	0.607673	-0.385255	-0.385224
C134	C	0.857673	-0.135255	-0.135224
C135	C	1.107673	0.114745	0.114776
C136	C	1.357673	0.364745	0.364776
C137	C	0.644354	-0.339345	-0.339459
C138	C	0.894354	-0.089345	-0.089459
C139	C	1.144354	0.160655	0.160541
C140	C	1.394354	0.410655	0.410541
C141	C	0.717704	-0.342654	-0.342756
C142	C	0.967704	-0.092654	-0.092756
C143	C	1.217704	0.157346	0.157244
C144	C	1.467704	0.407346	0.407244
C145	C	0.386206	-0.372879	-0.372900
C146	C	0.636206	-0.122879	-0.122900
C147	C	0.886206	0.127121	0.127100
C148	C	1.136206	0.377121	0.377100
C149	C	0.312851	-0.369574	-0.369604
C150	C	0.562851	-0.119574	-0.119604
C151	C	0.812851	0.130426	0.130396
C152	C	1.062851	0.380426	0.380396
C153	C	0.312849	-0.464698	-0.464431
C154	C	0.562849	-0.214698	-0.214431
C155	C	0.812849	0.035302	0.035569
C156	C	1.062849	0.285302	0.285569
C157	C	0.386200	-0.468007	-0.467721
C158	C	0.636200	-0.218007	-0.217721
C159	C	0.886200	0.031993	0.032279
C160	C	1.136200	0.281993	0.282279
C161	C	0.422874	-0.422094	-0.421959
C162	C	0.672874	-0.172094	-0.171959
C163	C	0.922874	0.077906	0.078041
C164	C	1.172874	0.327906	0.328041
C165	C	0.532697	-0.381869	-0.381855
C166	C	0.782697	-0.131869	-0.131855
C167	C	1.032697	0.118131	0.118145
C168	C	1.282697	0.368131	0.368145
C169	C	0.497849	-0.425477	-0.425332
C170	C	0.747849	-0.175477	-0.175332
C171	C	0.997849	0.074523	0.074668
C172	C	1.247849	0.324523	0.324668
C173	C	1.198110	-0.411945	-0.411841
C174	C	1.448110	-0.161945	-0.161841
C175	C	1.698110	0.088055	0.088159
C176	C	1.948110	0.338055	0.338159
C177	C	1.276175	-0.415479	-0.415367
C178	C	1.526175	-0.165479	-0.165367
C179	C	1.776175	0.084521	0.084633
C180	C	2.026175	0.334521	0.334633
C181	C	1.014946	-0.403621	-0.597273
C182	C	1.264946	-0.153621	-0.347273
C183	C	1.514946	0.096379	-0.097273
C184	C	1.764946	0.346379	0.152727
C185	C	1.014957	-0.403608	-0.679819
C186	C	1.264957	-0.153608	-0.429819
C187	C	1.514957	0.096392	-0.179819
C188	C	1.764957	0.346392	0.070181
C189	C	1.015022	-0.209952	-0.403599
C190	C	1.265022	0.040048	-0.153599
C191	C	1.515022	0.290048	0.096401
C192	C	1.765022	0.540048	0.346401
C193	C	1.015067	-0.127408	-0.403613
C194	C	1.265067	0.122592	-0.153613
C195	C	1.515067	0.372592	0.096387
C196	C	1.765067	0.622592	0.346387
C197	C	0.968053	-0.451023	-0.877144
C198	C	1.218053	-0.201023	-0.627144
C199	C	1.468053	0.048977	-0.377144
C200	C	1.718053	0.298977	-0.127144
C201	C	1.032131	-0.472072	-0.929423
C202	C	1.282131	-0.222072	-0.679423
C203	C	1.532131	0.027928	-0.429423
C204	C	1.782131	0.277928	-0.179423
C205	C	1.014992	-0.403553	-0.830951
C206	C	1.264992	-0.153553	-0.580951
C207	C	1.514992	0.096447	-0.330951
C208	C	1.764992	0.346447	-0.080951
C209	C	0.950950	-0.382485	-0.925755
C210	C	1.200950	-0.132485	-0.675755
C211	C	1.450950	0.117515	-0.425755
C212	C	1.700950	0.367515	-0.175755
C213	C	1.015020	-0.403500	-0.976938
C214	C	1.265020	-0.153500	-0.726938
C215	C	1.515020	0.096500	-0.476938
C216	C	1.765020	0.346500	-0.226938
C217	C	1.079103	-0.424638	-0.882145
C218	C	1.329103	-0.174638	-0.632145
C219	C	1.579103	0.075362	-0.382145
C220	C	1.829103	0.325362	-0.132145
C221	C	0.997879	-0.335018	-0.878470
C222	C	1.247879	-0.085018	-0.628470
C223	C	1.497879	0.164982	-0.378470
C224	C	1.747879	0.414982	-0.128470
C225	C	1.062001	-0.356043	-0.930729
C226	C	1.312001	-0.106043	-0.680729
C227	C	1.562001	0.143957	-0.430729
C228	C	1.812001	0.393957	-0.180729
C229	C	1.014975	-0.403584	-0.746852
C230	C	1.264975	-0.153584	-0.496852
C231	C	1.514975	0.096416	-0.246852
C232	C	1.764975	0.346416	0.003148
C233	C	1.015044	-0.403469	-1.061035
C234	C	1.265044	-0.153469	-0.811035
C235	C	1.515044	0.096531	-0.561035
C236	C	1.765044	0.346531	-0.311035
C237	C	1.014931	-0.403633	-0.210614
C238	C	1.264931	-0.153633	0.039386
C239	C	1.514931	0.096367	0.289386
C240	C	1.764931	0.346367	0.539386
C241	C	1.015056	-0.403443	-0.128075
C242	C	1.265056	-0.153443	0.121925
C243	C	1.515056	0.096557	0.371925
C244	C	1.765056	0.346557	0.621925
H245	H	0.928256	-0.853053	-0.491115
H246	H	1.178256	-0.603053	-0.241115
H247	H	1.428256	-0.353053	0.008885
H248	H	1.678256	-0.103053	0.258885
Cl249	Cl	0.763795	-0.499660	-0.499254
Cl250	Cl	1.013795	-0.249660	-0.249254
Cl251	Cl	1.263795	0.000340	0.000746
Cl252	Cl	1.513795	0.250340	0.250746
H253	H	0.928395	-0.491224	-0.853688
H254	H	1.178395	-0.241224	-0.603688
H255	H	1.428395	0.008776	-0.353688
H256	H	1.678395	0.258776	-0.103688
H257	H	1.101754	-0.315879	-0.954054
H258	H	1.351754	-0.065879	-0.704054
H259	H	1.601754	0.184121	-0.454054
H260	H	1.851754	0.434121	-0.204054
H261	H	1.046560	-0.951014	-0.530094
H262	H	1.296560	-0.701014	-0.280094
H263	H	1.546560	-0.451014	-0.030094
H264	H	1.796560	-0.201014	0.219906
H265	H	0.282981	-0.502077	-0.501689
H266	H	0.532981	-0.252077	-0.251689
H267	H	0.782981	-0.002077	-0.001689
H268	H	1.032981	0.247923	0.248311
Cl269	Cl	1.054505	-0.561520	-0.963942
Cl270	Cl	1.304505	-0.311520	-0.713942
Cl271	Cl	1.554505	-0.061520	-0.463942
Cl272	Cl	1.804505	0.188480	-0.213942
H273	H	1.133291	-0.442501	-0.862985
H274	H	1.383291	-0.192501	-0.612985
H275	H	1.633291	0.057499	-0.362985
H276	H	1.883291	0.307499	-0.112985
H277	H	0.983369	-0.277097	-0.856096
H278	H	1.233369	-0.027097	-0.606096
H279	H	1.483369	0.222903	-0.356096
H280	H	1.733369	0.472903	-0.106096
H281	H	0.896778	-0.364687	-0.945007
H282	H	1.146778	-0.114687	-0.695007
H283	H	1.396778	0.135313	-0.445007
H284	H	1.646778	0.385313	-0.195007
H285	H	0.896729	-0.944490	-0.364675
H286	H	1.146729	-0.694490	-0.114675
H287	H	1.396729	-0.444490	0.135325
H288	H	1.646729	-0.194490	0.385325
H289	H	0.614489	-0.471851	-0.471549
H290	H	0.864489	-0.221851	-0.221549
H291	H	1.114489	0.028149	0.028451
H292	H	1.364489	0.278149	0.278451
Cl293	Cl	0.486587	-0.320000	-0.320181
Cl294	Cl	0.736587	-0.070000	-0.070181
Cl295	Cl	0.986587	0.180000	0.179819
Cl296	Cl	1.236587	0.430000	0.429819
H297	H	0.983239	-0.855630	-0.277026
H298	H	1.233239	-0.605630	-0.027026
H299	H	1.483239	-0.355630	0.222974
H300	H	1.733239	-0.105630	0.472974
Cl301	Cl	1.123233	-0.966020	-0.294073
Cl302	Cl	1.373233	-0.716020	-0.044073
Cl303	Cl	1.623233	-0.466020	0.205927
Cl304	Cl	1.873233	-0.216020	0.455927
H305	H	0.416054	-0.508085	-0.507670
H306	H	0.666054	-0.258085	-0.257670
H307	H	0.916054	-0.008085	-0.007670
H308	H	1.166054	0.241915	0.242330
Cl309	Cl	1.162601	-0.851547	-0.452258
Cl310	Cl	1.412601	-0.601547	-0.202258
Cl311	Cl	1.662601	-0.351547	0.047742
Cl312	Cl	1.912601	-0.101547	0.297742
H313	H	0.282993	-0.329488	-0.329658
H314	H	0.532993	-0.079488	-0.079658
H315	H	0.782993	0.170512	0.170342
H316	H	1.032993	0.420512	0.420342
H317	H	0.416057	-0.335499	-0.335631
H318	H	0.666057	-0.085499	-0.085631
H319	H	0.916057	0.164501	0.164369
H320	H	1.166057	0.414501	0.414369
H321	H	0.614489	-0.299269	-0.299516
H322	H	0.864489	-0.049269	-0.049516
H323	H	1.114489	0.200731	0.200484
H324	H	1.364489	0.450731	0.450484
H325	H	0.747564	-0.305270	-0.305495
H326	H	0.997564	-0.055270	-0.055495
H327	H	1.247564	0.194730	0.194505
H328	H	1.497564	0.444730	0.444505
Cl329	Cl	0.543954	-0.487345	-0.487006
Cl330	Cl	0.793954	-0.237345	-0.237006
Cl331	Cl	1.043954	0.012655	0.012994
Cl332	Cl	1.293954	0.262655	0.262994
