data_functionalizedCrystal
_audit_creation_method	'MofGen! by Chris Wilmer'
_symmetry_space_group_name_H-M	'P1'
_symmetry_Int_Tables_number	1
_symmetry_cell_setting	triclinic
loop_
_symmetry_equiv_pos_as_xyz
  x,y,z
_cell_length_a	17.038272
_cell_length_b	17.038272
_cell_length_c	15.500227
_cell_angle_alpha	86.966746
_cell_angle_beta	86.952609
_cell_angle_gamma	88.888444
loop_
_atom_site_label
_atom_site_type_symbol
_atom_site_fract_x
_atom_site_fract_y
_atom_site_fract_z
O1	O	1.052164	-0.167136	-0.071911
O2	O	0.824352	-0.164427	-0.071920
O3	O	0.936904	-0.051876	-0.071909
O4	O	0.939612	-0.279687	-0.071922
O5	O	0.930072	-0.058677	0.071979
O6	O	0.817521	-0.171228	0.071968
O7	O	1.045332	-0.173937	0.071977
Cu8	Cu	0.930802	-0.173204	0.085111
Cu9	Cu	0.938882	-0.165160	-0.085054
O10	O	0.932780	-0.286488	0.071966
C11	C	0.791644	-0.165365	0.000023
C12	C	0.704360	-0.158017	0.000019
C13	C	0.931025	-0.025984	0.000035
C14	C	0.923677	0.061300	0.000034
C15	C	1.078040	-0.172999	0.000032
C16	C	1.165324	-0.180347	0.000030
C17	C	1.210933	-0.112883	0.000031
C18	C	1.292945	-0.119792	0.000034
C19	C	1.329346	-0.194165	0.000029
C20	C	1.283731	-0.261634	0.000031
C21	C	1.201720	-0.254725	0.000034
C22	C	1.576735	-0.218576	0.000024
C23	C	1.658751	-0.225480	0.000018
C24	C	1.667960	-0.083638	0.000023
C25	C	1.585947	-0.076734	0.000021
C26	C	1.540339	-0.144203	0.000027
C27	C	1.413176	-0.201229	0.000029
C28	C	1.456511	-0.137139	0.000033
C29	C	0.938659	-0.312380	0.000020
C30	C	0.946008	-0.399663	0.000015
N31	N	0.925125	-0.178861	0.204795
C32	C	0.991140	0.106909	0.000038
C33	C	0.984232	0.188921	0.000030
C34	C	0.909859	0.225323	0.000024
C35	C	0.842390	0.179708	0.000017
C36	C	0.849300	0.097697	0.000020
C37	C	0.885449	0.472711	0.000011
C38	C	0.878544	0.554728	0.000011
C39	C	1.020386	0.563936	0.000022
C40	C	1.027289	0.481923	0.000029
C41	C	0.959821	0.436315	0.000018
C42	C	0.902795	0.309152	0.000018
C43	C	0.966886	0.352488	0.000018
N44	N	0.944565	-0.159498	-0.204738
C45	C	0.972836	-0.131189	0.250076
C46	C	0.968551	-0.135475	0.340649
C47	C	0.916558	-0.187437	0.385938
C48	C	0.868842	-0.235111	0.340650
C49	C	0.873124	-0.230820	0.250080
C50	C	0.901131	-0.202881	0.659403
C51	C	0.896854	-0.207169	0.749980
C52	C	0.996562	-0.107532	0.749973
C53	C	1.000843	-0.103249	0.659400
C54	C	0.953124	-0.150920	0.614120
C55	C	0.912178	-0.191821	0.478518
C56	C	0.957501	-0.146531	0.521542
H57	H	1.181302	-0.052321	0.000029
H58	H	1.556315	-0.016172	0.000025
H59	H	0.826503	-0.277417	0.377530
H60	H	0.999831	-0.104220	0.484665
Br61	Br	1.708153	-0.326422	0.000010
H62	H	1.007400	-0.096656	0.377517
H63	H	1.164586	-0.309661	0.000036
Br64	Br	1.071409	-0.032731	0.597935
H65	H	1.539610	-0.273514	0.000025
H66	H	1.035412	-0.068719	0.786848
H67	H	1.027441	0.322847	0.000004
Br68	Br	0.793884	0.410826	-0.000009
H69	H	1.313375	-0.322191	0.000032
H70	H	0.842240	0.338799	0.000015
Br71	Br	0.836373	-0.267576	0.597957
Br72	Br	1.407108	-0.036208	0.000047
H73	H	1.330077	-0.064856	0.000038
H74	H	0.781834	0.209352	0.000007
Br75	Br	1.462585	-0.302162	0.000015
H76	H	0.854513	-0.249487	0.786851
H77	H	0.834271	-0.269639	0.213212
H78	H	1.015178	-0.088879	0.213208
Br79	Br	1.729860	0.007922	0.000020
Br80	Br	1.092080	0.057515	0.000059
Br81	Br	0.777602	0.604129	0.000012
H82	H	1.039168	0.226053	0.000034
Br83	Br	1.128229	0.432528	0.000009
H84	H	0.869845	-0.234132	0.515400
H85	H	1.075315	0.601078	0.000029
H86	H	0.794364	0.060563	0.000017
