data_functionalizedCrystal
_audit_creation_method	'MofGen! by Chris Wilmer'
_symmetry_space_group_name_H-M	'P1'
_symmetry_Int_Tables_number	1
_symmetry_cell_setting	triclinic
loop_
_symmetry_equiv_pos_as_xyz
  x,y,z
_cell_length_a	17.699077
_cell_length_b	10.489716
_cell_length_c	16.776229
_cell_angle_alpha	89.989852
_cell_angle_beta	90.003019
_cell_angle_gamma	83.904856
loop_
_atom_site_label
_atom_site_type_symbol
_atom_site_fract_x
_atom_site_fract_y
_atom_site_fract_z
O1	O	1.005125	0.161238	0.066271
O2	O	0.784883	0.182231	0.066274
O3	O	0.900025	-0.013959	0.066275
O4	O	0.889983	0.357428	0.066269
O5	O	0.900015	-0.013924	-0.066302
O6	O	0.784872	0.182265	-0.066303
O7	O	1.005115	0.161272	-0.066306
Zn8	Zn	0.894992	0.171774	-0.087354
Zn9	Zn	0.895006	0.171729	0.087321
O10	O	0.889972	0.357462	-0.066307
C11	C	0.756675	0.181497	-0.000014
C12	C	0.672642	0.179245	-0.000013
C13	C	0.633162	0.178202	-0.072281
C14	C	0.554206	0.176065	-0.072282
C15	C	0.514730	0.174980	-0.000013
C16	C	0.554216	0.176019	0.072260
C17	C	0.633172	0.178147	0.072260
C18	C	0.235797	0.167435	0.072262
C19	C	0.156836	0.165311	0.072256
C20	C	0.156831	0.165353	-0.072280
C21	C	0.235787	0.167481	-0.072280
C22	C	0.275266	0.168513	-0.000007
C23	C	0.360880	0.170828	-0.000007
C24	C	0.429118	0.172674	-0.000013
C25	C	0.899265	-0.061460	-0.000011
C26	C	0.897008	-0.203049	-0.000004
C27	C	0.967617	-0.302037	-0.000012
C28	C	0.930311	-0.378720	0.065354
C29	C	0.930284	-0.378650	-0.065356
C30	C	0.859731	-0.277867	0.065416
C31	C	0.859715	-0.277791	-0.065353
C32	C	0.822357	-0.354424	0.000029
C33	C	1.033322	0.162006	-0.000016
C34	C	1.117355	0.164259	-0.000013
C35	C	0.890732	0.404963	-0.000020
C36	C	0.892989	0.546552	-0.000022
N37	N	0.894988	0.171804	-0.206565
C38	C	0.848696	0.094439	-0.751735
C39	C	0.848695	0.094450	-0.668283
C40	C	0.895009	0.171718	-0.626564
C41	C	0.941333	0.248972	-0.668303
C42	C	0.941338	0.248953	-0.751753
C43	C	0.941314	0.249047	-0.331755
C44	C	0.941304	0.249062	-0.248299
C45	C	0.848670	0.094543	-0.248285
C46	C	0.848675	0.094525	-0.331736
C47	C	0.895003	0.171772	-0.373466
C48	C	0.895005	0.171758	-0.463955
C49	C	0.895003	0.171741	-0.536078
N50	N	0.895016	0.171689	0.206533
H51	H	0.522066	0.175194	-0.131130
C52	C	0.457511	0.283215	0.156110
C53	C	0.510826	0.174831	0.151700
H54	H	0.430729	0.282486	0.205157
H55	H	0.422702	0.282279	0.113075
H56	H	0.482951	0.358384	0.153104
H57	H	0.485386	0.099661	0.154700
H58	H	0.545640	0.175755	0.194748
C59	C	1.032890	0.401786	-0.256690
C60	C	0.992222	0.333992	-0.202440
H61	H	1.064326	0.454208	-0.228377
H62	H	0.998350	0.454126	-0.289252
H63	H	1.063587	0.342995	-0.289225
H64	H	0.961521	0.392783	-0.169909
H65	H	1.026767	0.281648	-0.169864
C66	C	0.227851	0.167293	-0.215154
C67	C	0.279178	0.168668	-0.151720
H68	H	0.254641	0.168014	-0.264197
H69	H	0.191686	0.240810	-0.212153
H70	H	0.202426	0.092108	-0.212139
H71	H	0.304599	0.243857	-0.154731
H72	H	0.315357	0.095143	-0.154722
H73	H	0.810959	0.031610	-0.365699
C74	C	0.729873	0.071018	-0.156129
C75	C	0.676553	0.179393	-0.151720
H76	H	0.756662	0.071757	-0.205172
H77	H	0.704444	-0.004149	-0.153127
H78	H	0.764684	0.071961	-0.113085
H79	H	0.641739	0.178445	-0.194762
H80	H	0.701984	0.254580	-0.154731
H81	H	0.665315	0.178998	0.131109
H82	H	0.124678	0.164507	-0.131129
H83	H	0.810979	0.031541	-0.634308
C84	C	0.821484	-0.085186	-0.138751
C85	C	0.819504	-0.218262	-0.139954
H86	H	0.796659	-0.048437	-0.184810
H87	H	0.872801	-0.066347	-0.138289
H88	H	0.796323	-0.050522	-0.092344
H89	H	0.844669	-0.252928	-0.186358
H90	H	0.768177	-0.237111	-0.140424
H91	H	0.124697	0.164426	0.131110
H92	H	0.267932	0.168272	0.131111
H93	H	0.810951	0.031641	-0.214298
H94	H	0.960101	-0.422663	-0.120617
H95	H	0.979036	0.311947	-0.365723
H96	H	1.029035	-0.278504	0.000054
C97	C	1.046561	-0.412388	0.139836
C98	C	0.970552	-0.438220	0.139953
H99	H	1.071407	-0.449127	0.185886
H100	H	1.048706	-0.322298	0.140135
H101	H	1.071122	-0.448243	0.093413
H102	H	0.945989	-0.402356	0.186374
H103	H	0.968403	-0.528328	0.139662
C104	C	0.982454	0.317621	-0.540387
C105	C	0.992243	0.333909	-0.622447
H106	H	1.013880	0.370068	-0.512081
H107	H	0.996048	0.230333	-0.526695
H108	H	0.930795	0.341437	-0.526731
H109	H	1.043900	0.310083	-0.636105
H110	H	0.978653	0.421217	-0.636145
H111	H	0.810978	0.031525	-0.785696
H112	H	0.829945	-0.234022	0.120739
C113	C	0.702600	-0.334502	0.068574
C114	C	0.739386	-0.385876	0.000074
H115	H	0.651380	-0.353929	0.068605
H116	H	0.703609	-0.244154	0.069010
H117	H	0.727858	-0.370603	0.114562
H118	H	0.714131	-0.349768	-0.045915
H119	H	0.738372	-0.476242	-0.000370
H120	H	0.979057	0.311858	-0.785731
