data_functionalizedCrystal
_audit_creation_method	'MofGen! by Chris Wilmer'
_symmetry_space_group_name_H-M	'P1'
_symmetry_Int_Tables_number	1
_symmetry_cell_setting	triclinic
loop_
_symmetry_equiv_pos_as_xyz
  x,y,z
_cell_length_a	11.295483
_cell_length_b	8.559649
_cell_length_c	8.597304
_cell_angle_alpha	102.375305
_cell_angle_beta	78.158315
_cell_angle_gamma	86.468066
loop_
_atom_site_label
_atom_site_type_symbol
_atom_site_fract_x
_atom_site_fract_y
_atom_site_fract_z
O1	O	-0.094716	-2.109152	-0.041825
O2	O	-0.103124	-1.644312	0.040080
O3	O	-0.075072	-1.888416	-0.233290
O4	O	-0.122767	-1.865048	0.231545
O5	O	0.125438	-1.909872	-0.257254
O6	O	0.097386	-1.665768	0.016116
O7	O	0.105794	-2.130608	-0.065789
Cu8	Cu	0.119898	-1.900147	-0.027025
Cu9	Cu	-0.117228	-1.874773	0.001316
O10	O	0.077742	-1.886504	0.207581
C11	C	-0.003506	-1.595538	0.034305
C12	C	-0.005404	-1.418239	0.052781
N13	N	-0.284008	-1.856927	0.021237
C14	C	0.031230	-1.897830	-0.304230
C15	C	0.049248	-1.893896	-0.479903
C16	C	-0.511583	-2.046557	-0.190378
C17	C	-0.637790	-2.033060	-0.175333
C18	C	-0.662634	-1.816444	0.066378
C19	C	-0.536426	-1.829942	0.051333
C20	C	-0.460905	-1.945000	-0.077051
C21	C	-0.334694	-1.958488	-0.092101
C22	C	-0.359540	-1.741882	0.149615
C23	C	-0.485748	-1.728385	0.164660
N24	N	0.286680	-1.918006	-0.046960
C25	C	0.006174	-2.179382	-0.060014
C26	C	0.008064	-2.356680	-0.078489
C27	C	-0.028562	-1.877090	0.278521
C28	C	-0.046588	-1.881023	0.454195
H29	H	-0.450091	-2.140231	-0.294922
H30	H	0.145095	-1.901891	-0.557882
C31	C	-0.176069	-1.870209	-0.440480
C32	C	-0.260367	-1.998557	-0.487151
C33	C	-0.389850	-1.987743	-0.381815
C34	C	-0.435034	-1.848580	-0.229807
C35	C	-0.350734	-1.720222	-0.183128
C36	C	-0.221251	-1.731036	-0.288464
H37	H	-0.226920	-2.101583	-0.599683
H38	H	-0.452254	-2.082764	-0.416370
H39	H	-0.530885	-1.840575	-0.151830
H40	H	-0.384181	-1.617196	-0.070595
H41	H	-0.158847	-1.636015	-0.253908
C42	C	-0.693538	-2.144769	-0.299998
C43	C	-0.610462	-2.271323	-0.441209
C44	C	-0.666209	-2.383039	-0.565879
C45	C	-0.805031	-2.368201	-0.549338
C46	C	-0.888115	-2.241642	-0.408121
C47	C	-0.832368	-2.129926	-0.283451
H48	H	-0.507690	-2.282311	-0.453460
H49	H	-0.604704	-2.476727	-0.670417
H50	H	-0.846299	-2.450900	-0.641626
H51	H	-0.990888	-2.230654	-0.395870
H52	H	-0.893873	-2.036238	-0.178913
H53	H	-0.273205	-2.052170	-0.196641
H54	H	-0.724140	-1.722777	0.170915
C55	C	-0.303794	-1.630159	0.274286
C56	C	-0.164971	-1.644992	0.257741
C57	C	-0.109223	-1.533266	0.382403
C58	C	-0.192299	-1.406708	0.523610
C59	C	-0.331130	-1.391869	0.540161
C60	C	-0.386877	-1.503595	0.415499
H61	H	-0.103466	-1.738682	0.153206
H62	H	-0.006451	-1.544251	0.370150
H63	H	-0.151031	-1.324002	0.615892
H64	H	-0.392635	-1.298179	0.644697
H65	H	-0.489650	-1.492610	0.427752
H66	H	-0.547252	-1.634710	0.269192
H67	H	0.021040	-1.439613	-0.205009
H68	H	-0.018393	-1.335295	0.179311
