data_functionalizedCrystal
_audit_creation_method	'MofGen! by Chris Wilmer'
_symmetry_space_group_name_H-M	'P1'
_symmetry_Int_Tables_number	1
_symmetry_cell_setting	triclinic
loop_
_symmetry_equiv_pos_as_xyz
  x,y,z
_cell_length_a	16.625548
_cell_length_b	21.295417
_cell_length_c	21.295396
_cell_angle_alpha	89.893877
_cell_angle_beta	89.929970
_cell_angle_gamma	90.031575
loop_
_atom_site_label
_atom_site_type_symbol
_atom_site_fract_x
_atom_site_fract_y
_atom_site_fract_z
Zn1	Zn	1.233029	-0.250138	-0.355912
Zn2	Zn	1.733029	0.249862	0.144088
Zn3	Zn	1.232797	-0.355545	-0.250637
Zn4	Zn	1.732797	0.144455	0.249363
Zn5	Zn	1.098075	-0.250296	-0.250657
Zn6	Zn	1.598075	0.249704	0.249343
Zn7	Zn	1.098143	-0.355375	-0.355869
Zn8	Zn	1.598143	0.144625	0.144131
O9	O	1.165511	-0.302839	-0.303269
O10	O	1.665511	0.197161	0.196731
O11	O	1.345831	-0.264126	-0.341957
O12	O	1.845831	0.235874	0.158043
O13	O	1.214800	-0.341721	-0.162550
O14	O	1.714800	0.158279	0.337450
O15	O	1.116045	-0.162185	-0.264645
O16	O	1.616045	0.337815	0.235355
O17	O	1.345660	-0.341568	-0.264612
O18	O	1.845660	0.158432	0.235388
O19	O	1.215196	-0.162070	-0.341976
O20	O	1.715196	0.337930	0.158024
O21	O	1.115820	-0.264394	-0.162564
O22	O	1.615820	0.235606	0.337436
O23	O	0.985251	-0.264230	-0.264604
O24	O	1.485251	0.235770	0.235396
O25	O	1.116161	-0.341278	-0.443964
O26	O	1.616161	0.158722	0.056036
O27	O	0.985301	-0.341431	-0.341903
O28	O	1.485301	0.158569	0.158097
O29	O	1.215262	-0.263961	-0.443996
O30	O	1.715262	0.236039	0.056004
O31	O	1.214866	-0.443612	-0.264570
O32	O	1.714866	0.056388	0.235430
O33	O	1.115936	-0.443487	-0.341884
O34	O	1.615936	0.056513	0.158116
C35	C	0.956020	-0.302830	-0.303251
C36	C	1.456020	0.197170	0.196749
C37	C	0.866399	-0.302841	-0.303258
C38	C	1.366399	0.197159	0.196742
C39	C	1.165405	-0.466390	-0.303234
C40	C	1.665405	0.033610	0.196766
C41	C	1.165434	-0.536358	-0.303240
C42	C	1.665434	-0.036358	0.196760
C43	C	0.538223	-0.302845	-0.303285
C44	C	1.038223	0.197155	0.196715
C45	C	0.629532	-0.302842	-0.303276
C46	C	1.129532	0.197158	0.196724
C47	C	0.702308	-0.302843	-0.303271
C48	C	1.202308	0.197157	0.196729
C49	C	0.793622	-0.302840	-0.303263
C50	C	1.293622	0.197160	0.196737
C51	C	1.216992	-0.569269	-0.263024
C52	C	1.716992	-0.069269	0.236976
C53	C	1.217030	-0.635011	-0.263038
C54	C	1.717030	-0.135011	0.236962
C55	C	1.165495	-0.667841	-0.303262
C56	C	1.665495	-0.167841	0.196738
C57	C	1.113933	-0.634922	-0.343485
C58	C	1.613933	-0.134922	0.156515
C59	C	1.113902	-0.569181	-0.343474
C60	C	1.613902	-0.069181	0.156526
N61	N	1.094965	-0.771101	-0.308055
N62	N	1.594965	-0.271101	0.191945
N63	N	1.094997	-0.833553	-0.308061
N64	N	1.594997	-0.333553	0.191939
C65	C	1.165585	-0.865915	-0.303298
C66	C	1.665585	-0.365915	0.196702
N67	N	1.236143	-0.833467	-0.298515
N68	N	1.736143	-0.333467	0.201485
N69	N	1.236111	-0.771010	-0.298505
N70	N	1.736111	-0.271010	0.201495
C71	C	1.165523	-0.739126	-0.303278
C72	C	1.665523	-0.239126	0.196722
C73	C	1.217189	-0.970112	-0.263095
C74	C	1.717189	-0.470112	0.236905
C75	C	1.217229	-1.035855	-0.263114
C76	C	1.717229	-0.535855	0.236886
C77	C	1.114124	-1.035765	-0.343557
C78	C	1.614124	-0.535765	0.156443
C79	C	1.114092	-0.970022	-0.343542
C80	C	1.614092	-0.470022	0.156458
C81	C	1.165623	-0.937200	-0.303308
C82	C	1.665623	-0.437200	0.196692
C83	C	1.375820	-0.302848	-0.303287
C84	C	1.875820	0.197152	0.196713
C85	C	1.465441	-0.302852	-0.303294
C86	C	1.965441	0.197148	0.196706
C87	C	1.165745	-0.302583	-0.467459
C88	C	1.665745	0.197417	0.032541
C89	C	1.165845	-0.302474	-0.537428
C90	C	1.665845	0.197526	-0.037428
C91	C	1.165639	-0.138648	-0.303317
C92	C	1.665639	0.361352	0.196683
C93	C	1.165694	-0.068680	-0.303338
C94	C	1.665694	0.431320	0.196662
C95	C	1.165324	-0.303048	-0.139717
C96	C	1.665324	0.196952	0.360283
C97	C	1.165381	-0.302979	-0.069749
C98	C	1.665381	0.197021	0.430251
C99	C	1.113918	-0.262536	0.429671
C100	C	1.613918	0.237464	0.929671
C101	C	1.113855	-0.262600	0.363929
C102	C	1.613855	0.237400	0.863929
C103	C	1.165733	-0.302596	0.331090
C104	C	1.665733	0.197404	0.831090
C105	C	1.217663	-0.342543	0.363999
C106	C	1.717663	0.157457	0.863999
C107	C	1.217719	-0.342482	0.429740
C108	C	1.717719	0.157518	0.929740
N109	N	1.236264	-0.307124	0.227779
N110	N	1.736264	0.192876	0.727779
N111	N	1.236209	-0.307179	0.165327
N112	N	1.736209	0.192821	0.665327
C113	C	1.165567	-0.302784	0.133016
C114	C	1.665567	0.197216	0.633016
N115	N	1.094980	-0.298320	0.165515
N116	N	1.594980	0.201680	0.665515
N117	N	1.095037	-0.298262	0.227972
N118	N	1.595037	0.201738	0.727972
C119	C	1.165678	-0.302667	0.259805
C120	C	1.665678	0.197333	0.759805
C121	C	1.113568	-0.262913	0.028829
C122	C	1.613568	0.237087	0.528829
C123	C	1.113503	-0.262982	-0.036914
C124	C	1.613503	0.237018	0.463086
C125	C	1.217318	-0.342921	-0.036843
C126	C	1.717318	0.157079	0.463157
C127	C	1.217375	-0.342856	0.028899
C128	C	1.717375	0.157144	0.528899
C129	C	1.165501	-0.302848	0.061732
C130	C	1.665501	0.197152	0.561732
H131	H	1.258955	-0.542547	-0.230264
H132	H	1.758955	-0.042547	0.269736
H133	H	1.071572	-0.230074	0.337136
H134	H	1.571572	0.269926	0.837136
O135	O	1.058337	-0.670325	-0.386864
O136	O	1.558337	-0.170325	0.113136
H137	H	1.067011	-0.721569	-0.380109
H138	H	1.567011	-0.221569	0.119891
O139	O	1.057497	-0.219901	-0.072406
O140	O	1.557497	0.280099	0.427594
H141	H	1.021445	-0.192068	-0.038528
H142	H	1.521445	0.307932	0.461472
H143	H	1.259662	-0.375376	0.055688
H144	H	1.759662	0.124624	0.555688
O145	O	1.058533	-1.071166	-0.386939
O146	O	1.558533	-0.571166	0.113061
H147	H	1.094646	-1.101031	-0.418994
H148	H	1.594646	-0.601031	0.081006
H149	H	1.259018	-0.661813	-0.230290
H150	H	1.759018	-0.161813	0.269710
H151	H	1.260007	-0.375004	0.456528
H152	H	1.760007	0.124996	0.956528
O153	O	1.057615	-0.219766	0.064244
O154	O	1.557615	0.280234	0.564244
H155	H	1.066387	-0.226425	0.115486
H156	H	1.566387	0.273575	0.615486
H157	H	1.259560	-0.375486	-0.063580
H158	H	1.759560	0.124514	0.436420
H159	H	1.071916	-0.542385	-0.376224
H160	H	1.571916	-0.042385	0.123776
H161	H	1.259152	-0.943386	-0.230335
H162	H	1.759152	-0.443386	0.269665
H163	H	1.259219	-1.062650	-0.230366
H164	H	1.759219	-0.562650	0.269634
H165	H	1.072104	-0.943225	-0.376287
H166	H	1.572104	-0.443225	0.123713
H167	H	1.259902	-0.375108	0.337257
H168	H	1.759902	0.124892	0.837257
H169	H	1.071675	-0.229961	0.456399
H170	H	1.571675	0.270039	0.956399
