data_functionalizedCrystal
_audit_creation_method	'MofGen! by Chris Wilmer'
_symmetry_space_group_name_H-M	'P1'
_symmetry_Int_Tables_number	1
_symmetry_cell_setting	triclinic
loop_
_symmetry_equiv_pos_as_xyz
  x,y,z
_cell_length_a	14.908520
_cell_length_b	17.077404
_cell_length_c	17.077396
_cell_angle_alpha	90.019501
_cell_angle_beta	93.268321
_cell_angle_gamma	86.679062
loop_
_atom_site_label
_atom_site_type_symbol
_atom_site_fract_x
_atom_site_fract_y
_atom_site_fract_z
Zn1	Zn	-0.359154	-1.182024	-0.461868
Zn2	Zn	-0.025821	-0.848690	-0.128534
Zn3	Zn	0.307513	-0.515357	0.204799
Zn4	Zn	-0.510026	-1.174357	-0.338173
Zn5	Zn	-0.176692	-0.841023	-0.004840
Zn6	Zn	0.156641	-0.507690	0.328493
Zn7	Zn	-0.359186	-1.050754	-0.330617
Zn8	Zn	-0.025852	-0.717421	0.002716
Zn9	Zn	0.307481	-0.384087	0.336050
Zn10	Zn	-0.509972	-1.043152	-0.469394
Zn11	Zn	-0.176639	-0.709819	-0.136061
Zn12	Zn	0.156695	-0.376485	0.197273
O13	O	-0.434584	-1.112572	-0.400013
O14	O	-0.101251	-0.779238	-0.066680
O15	O	0.232082	-0.445905	0.266654
O16	O	-0.379177	-1.290853	-0.445472
O17	O	-0.045843	-0.957520	-0.112138
O18	O	0.287490	-0.624186	0.221195
O19	O	-0.490052	-1.157933	-0.227326
O20	O	-0.156719	-0.824600	0.106008
O21	O	0.176615	-0.491266	0.439341
O22	O	-0.232937	-1.074557	-0.341715
O23	O	0.100397	-0.741224	-0.008382
O24	O	0.433730	-0.407891	0.324951
O25	O	-0.490021	-1.285220	-0.354594
O26	O	-0.156688	-0.951887	-0.021261
O27	O	0.176645	-0.618553	0.312073
O28	O	-0.232913	-1.171001	-0.438145
O29	O	0.100420	-0.837667	-0.104811
O30	O	0.433753	-0.504334	0.228522
O31	O	-0.379231	-1.067123	-0.221774
O32	O	-0.045897	-0.733790	0.111559
O33	O	0.287436	-0.400456	0.444892
O34	O	-0.379179	-0.939899	-0.349014
O35	O	-0.045845	-0.606566	-0.015680
O36	O	0.287488	-0.273232	0.317653
O37	O	-0.489930	-1.061601	-0.578241
O38	O	-0.156597	-0.728268	-0.244908
O39	O	0.176737	-0.394934	0.088426
O40	O	-0.489961	-0.934314	-0.450973
O41	O	-0.156627	-0.600981	-0.117639
O42	O	0.176706	-0.267647	0.215694
O43	O	-0.379125	-1.163629	-0.572711
O44	O	-0.045791	-0.830296	-0.239378
O45	O	0.287542	-0.496963	0.093956
O46	O	-0.636263	-1.150562	-0.361892
O47	O	-0.302930	-0.817228	-0.028559
O48	O	0.030403	-0.483895	0.304774
O49	O	-0.636224	-1.054166	-0.458300
O50	O	-0.302891	-0.720833	-0.124966
O51	O	0.030443	-0.387500	0.208367
C52	C	-0.434568	-0.908625	-0.399990
C53	C	-0.101235	-0.575291	-0.066657
C54	C	0.232099	-0.241958	0.266676
C55	C	-0.434583	-0.821374	-0.400001
C56	C	-0.101249	-0.488041	-0.066667
C57	C	0.232084	-0.154707	0.266666
C58	C	-0.668978	-1.100728	-0.411750
C59	C	-0.335644	-0.767395	-0.078416
C60	C	-0.002311	-0.434062	0.254917
C61	C	-0.769252	-1.095734	-0.416797
C62	C	-0.435919	-0.762400	-0.083464
C63	C	-0.102585	-0.429067	0.249870
C64	C	-0.434518	-1.112622	-0.604754
C65	C	-0.101185	-0.779289	-0.271421
C66	C	0.232149	-0.445956	0.061913
C67	C	-0.434490	-1.112644	-0.692002
C68	C	-0.101156	-0.779311	-0.358669
C69	C	0.232177	-0.445977	-0.025336
C70	C	-0.957658	-1.186828	-0.325973
C71	C	-0.624325	-0.853495	0.007360
C72	C	-0.290992	-0.520161	0.340693
C73	C	-1.051875	-1.182137	-0.330713
C74	C	-0.718542	-0.848804	0.002620
C75	C	-0.385208	-0.515471	0.335954
C76	C	-1.051904	-1.081667	-0.431020
C77	C	-0.718571	-0.748334	-0.097687
C78	C	-0.385237	-0.415000	0.235647
C79	C	-0.957687	-1.086357	-0.426280
C80	C	-0.624354	-0.753024	-0.092947
C81	C	-0.291021	-0.419691	0.240387
C82	C	-0.910568	-1.138939	-0.373754
C83	C	-0.577234	-0.805605	-0.040421
C84	C	-0.243901	-0.472272	0.292912
C85	C	-0.816349	-1.143625	-0.369011
C86	C	-0.483016	-0.810291	-0.035678
C87	C	-0.149683	-0.476958	0.297656
C88	C	-0.816380	-1.043159	-0.469321
C89	C	-0.483047	-0.709825	-0.135988
C90	C	-0.149713	-0.376492	0.197345
C91	C	-0.910597	-1.038468	-0.474061
C92	C	-0.577263	-0.705135	-0.140728
C93	C	-0.243930	-0.371802	0.192606
C94	C	-0.199276	-1.124482	-0.388248
C95	C	0.134058	-0.791149	-0.054914
C96	C	0.467391	-0.457816	0.278419
C97	C	-0.099001	-1.129558	-0.383234
C98	C	0.234332	-0.796225	-0.049901
C99	C	0.567665	-0.462891	0.283433
C100	C	-0.434601	-1.317315	-0.400036
C101	C	-0.101268	-0.983982	-0.066703
C102	C	0.232065	-0.650648	0.266631
C103	C	-0.434609	-1.404564	-0.400046
C104	C	-0.101275	-1.071231	-0.066713
C105	C	0.232058	-0.737898	0.266621
C106	C	-0.492354	-0.777492	-0.453014
C107	C	-0.159021	-0.444158	-0.119681
C108	C	0.174313	-0.110825	0.213652
C109	C	-0.492356	-0.695511	-0.453027
C110	C	-0.159023	-0.362178	-0.119694
C111	C	0.174311	-0.028845	0.213640
C112	C	-0.434591	-0.657414	-0.400022
C113	C	-0.101257	-0.324081	-0.066688
C114	C	0.232076	0.009252	0.266645
C115	C	-0.376813	-0.701302	-0.347005
C116	C	-0.043480	-0.367969	-0.013672
C117	C	0.289854	-0.034636	0.319662
C118	C	-0.376807	-0.783282	-0.346997
C119	C	-0.043474	-0.449948	-0.013664
C120	C	0.289860	-0.116615	0.319670
C121	C	-0.376831	-0.530432	-0.347025
C122	C	-0.043497	-0.197098	-0.013692
C123	C	0.289836	0.136235	0.319642
C124	C	-0.376837	-0.448447	-0.347032
C125	C	-0.043504	-0.115113	-0.013699
C126	C	0.289829	0.218220	0.319635
C127	C	-0.492380	-0.442661	-0.453055
C128	C	-0.159046	-0.109328	-0.119722
C129	C	0.174287	0.224006	0.213611
C130	C	-0.492374	-0.524640	-0.453047
C131	C	-0.159040	-0.191307	-0.119714
C132	C	0.174293	0.142026	0.213620
C133	C	-0.434597	-0.568523	-0.400029
C134	C	-0.101264	-0.235190	-0.066696
C135	C	0.232070	0.098144	0.266637
C136	C	-0.376788	-1.165772	-0.730114
C137	C	-0.043455	-0.832439	-0.396781
C138	C	0.289878	-0.499106	-0.063448
C139	C	-0.376758	-1.165783	-0.812093
C140	C	-0.043425	-0.832450	-0.478760
C141	C	0.289908	-0.499117	-0.145427
C142	C	-0.434435	-1.112669	-0.855959
C143	C	-0.101101	-0.779336	-0.522626
C144	C	0.232232	-0.446002	-0.189293
C145	C	-0.492138	-1.059535	-0.817842
C146	C	-0.158805	-0.726202	-0.484508
C147	C	0.174528	-0.392868	-0.151175
C148	C	-0.492163	-1.059521	-0.735864
C149	C	-0.158830	-0.726188	-0.402531
C150	C	0.174503	-0.392854	-0.069197
C151	C	-0.492084	-1.059569	-0.988709
C152	C	-0.158751	-0.726236	-0.655376
C153	C	0.174582	-0.392903	-0.322043
C154	C	-0.492061	-1.059584	-1.070693
C155	C	-0.158727	-0.726251	-0.737359
C156	C	0.174606	-0.392918	-0.404026
C157	C	-0.376679	-1.165832	-1.064938
C158	C	-0.043346	-0.832498	-0.731605
C159	C	0.289987	-0.499165	-0.398272
C160	C	-0.376704	-1.165818	-0.982961
C161	C	-0.043371	-0.832484	-0.649627
C162	C	0.289963	-0.499151	-0.316294
C163	C	-0.434409	-1.112684	-0.944849
C164	C	-0.101076	-0.779351	-0.611516
C165	C	0.232257	-0.446018	-0.278182
C166	C	-0.434585	-1.112569	-0.196065
C167	C	-0.101252	-0.779236	0.137268
C168	C	0.232081	-0.445903	0.470601
C169	C	-0.434360	-1.112713	-0.108804
C170	C	-0.101026	-0.779379	0.224529
C171	C	0.232307	-0.446046	0.557862
H172	H	-0.777985	-1.186437	-0.326240
H173	H	-0.444652	-0.853103	0.007094
H174	H	-0.111319	-0.519770	0.340427
H175	H	-0.329775	-0.670278	-0.303850
H176	H	0.003558	-0.336944	0.029483
H177	H	0.336891	-0.003611	0.362816
H178	H	-0.539060	-1.016291	-0.957681
H179	H	-0.205726	-0.682958	-0.624347
H180	H	0.127607	-0.349624	-0.291014
F181	F	-0.315376	-1.222355	-0.852652
F182	F	0.017958	-0.889022	-0.519319
F183	F	0.351291	-0.555689	-0.185986
F184	F	-0.553519	-1.003004	-0.864529
F185	F	-0.220185	-0.669670	-0.531196
F186	F	0.113148	-0.336337	-0.197863
F187	F	-0.553574	-1.002973	-0.695303
F188	F	-0.220241	-0.669639	-0.361970
F189	F	0.113092	-0.336306	-0.028636
F190	F	-0.553439	-1.003048	-1.117376
F191	F	-0.220105	-0.669715	-0.784043
F192	F	0.113228	-0.336381	-0.450710
F193	F	-0.315265	-1.222381	-1.105500
F194	F	0.018068	-0.889048	-0.772167
F195	F	0.351401	-0.555714	-0.438834
H196	H	-0.919293	-1.229636	-0.283199
H197	H	-0.585960	-0.896303	0.050134
H198	H	-0.252626	-0.562970	0.383468
H199	H	-0.329824	-1.209027	-0.694404
H200	H	0.003509	-0.875693	-0.361071
H201	H	0.336842	-0.542360	-0.027738
H202	H	-0.948974	-0.995660	-0.516828
H203	H	-0.615641	-0.662327	-0.183495
H204	H	-0.282308	-0.328994	0.149839
F205	F	-1.101989	-1.233109	-0.279860
F206	F	-0.768656	-0.899776	0.053474
F207	F	-0.435323	-0.566443	0.386807
F208	F	-1.102067	-1.025720	-0.486926
F209	F	-0.768734	-0.692387	-0.153592
F210	F	-0.435400	-0.359053	0.179741
F211	F	-0.315317	-0.829984	-0.290574
F212	F	0.018016	-0.496651	0.042760
F213	F	0.351350	-0.163318	0.376093
H214	H	-0.539421	-0.406928	-0.496226
H215	H	-0.206087	-0.073595	-0.162893
H216	H	0.127246	0.259739	0.170440
H217	H	-0.329744	-1.209072	-0.947247
H218	H	0.003589	-0.875739	-0.613914
H219	H	0.336923	-0.542405	-0.280581
H220	H	-0.329789	-0.417431	-0.303879
H221	H	0.003544	-0.084098	0.029454
H222	H	0.336878	0.249236	0.362788
H223	H	-0.329775	-0.566159	-0.303859
H224	H	0.003559	-0.232826	0.029474
H225	H	0.336892	0.100508	0.362808
H226	H	-0.539396	-0.808504	-0.496175
H227	H	-0.206063	-0.475171	-0.162842
H228	H	0.127270	-0.141837	0.170491
F229	F	-0.553844	-0.648812	-0.509452
F230	F	-0.220511	-0.315479	-0.176119
F231	F	0.112823	0.017855	0.157215
F232	F	-0.553860	-0.565184	-0.509456
F233	F	-0.220527	-0.231851	-0.176123
F234	F	0.112807	0.101483	0.157210
F235	F	-0.766256	-0.992180	-0.520168
F236	F	-0.432923	-0.658847	-0.186835
F237	F	-0.099590	-0.325513	0.146499
