data_functionalizedCrystal
_audit_creation_method	'MofGen! by Chris Wilmer'
_symmetry_space_group_name_H-M	'P1'
_symmetry_Int_Tables_number	1
_symmetry_cell_setting	triclinic
loop_
_symmetry_equiv_pos_as_xyz
  x,y,z
_cell_length_a	10.540539
_cell_length_b	8.965430
_cell_length_c	10.540539
_cell_angle_alpha	90.001398
_cell_angle_beta	95.474508
_cell_angle_gamma	89.995055
loop_
_atom_site_label
_atom_site_type_symbol
_atom_site_fract_x
_atom_site_fract_y
_atom_site_fract_z
O1	O	1.685874	0.123961	-0.178894
O2	O	1.316461	0.123979	-0.195750
O3	O	1.509596	0.123968	-0.002616
O4	O	1.492740	0.123972	-0.372029
O5	O	1.509605	-0.124111	-0.002622
O6	O	1.316470	-0.124100	-0.195756
O7	O	1.685883	-0.124118	-0.178900
Cu8	Cu	1.501178	-0.146760	-0.187329
Cu9	Cu	1.501167	0.146622	-0.187322
O10	O	1.492749	-0.124106	-0.372035
C11	C	1.269163	-0.000058	-0.194489
C12	C	1.128215	-0.000051	-0.190707
N13	N	1.501195	-0.353109	-0.187333
C14	C	0.944788	-0.000632	-0.045790
C15	C	1.091406	-0.000057	-0.049624
C16	C	1.066537	0.141609	-0.258599
C17	C	0.919992	0.141713	-0.253784
C18	C	0.919514	-0.140399	-0.256661
C19	C	1.066496	-0.142256	-0.257961
C20	C	1.590542	-0.450380	-0.098021
C21	C	1.475605	-0.549780	-0.072324
C22	C	1.616086	-0.549838	-0.212948
C23	C	1.386199	-0.450320	-0.161579
C24	C	1.526757	-0.450369	-0.302253
C25	C	1.411737	-0.549723	-0.276604
C26	C	1.733182	-0.000077	-0.180161
C27	C	1.874130	-0.000074	-0.183943
C28	C	1.508336	-0.000069	0.044684
C29	C	1.504554	-0.000061	0.185632
N30	N	1.501160	0.352971	-0.187307
C31	C	1.494008	-0.000066	-0.419335
C32	C	1.497790	-0.000065	-0.560283
C33	C	1.359637	0.000503	0.369059
C34	C	1.363471	-0.000055	0.222441
C35	C	1.572455	-0.141729	0.247286
C36	C	1.567640	-0.141848	0.393831
C37	C	1.570499	0.140264	0.394356
C38	C	1.571799	0.142137	0.247374
H39	H	0.916206	-0.102225	0.009943
H40	H	1.133148	0.101665	0.004178
H41	H	1.524834	0.247639	0.425912
O42	O	1.705480	0.141516	0.456915
H43	H	1.773080	0.137861	0.382426
H44	H	1.522116	0.246939	0.206518
O45	O	1.292225	-0.134793	0.167108
H46	H	1.357823	-0.205611	0.116823
O47	O	0.904767	0.133169	0.027751
H48	H	0.834775	0.200070	-0.033669
O49	O	1.446932	-0.607629	0.056419
H50	H	1.358609	-0.675687	0.045401
H51	H	1.666027	-0.406760	-0.022453
H52	H	1.336081	-0.593067	-0.352125
H53	H	1.548437	-0.406669	-0.399419
H54	H	1.713263	-0.593551	-0.234624
H55	H	1.134024	-0.101606	0.003796
O56	O	1.708055	0.153461	0.215306
H57	H	1.720997	0.259128	0.163207
O58	O	1.285802	0.135073	0.406945
H59	H	1.188731	0.132960	0.355872
O60	O	0.882605	0.281956	-0.187287
H61	H	0.969158	0.349061	-0.158861
H62	H	0.872287	-0.141355	-0.358565
O63	O	1.292677	0.134440	0.165992
H64	H	1.255385	0.200466	0.243411
O65	O	1.286112	-0.133316	0.409040
H66	H	1.347539	-0.200231	0.479015
H67	H	1.517466	-0.247743	0.422028
O68	O	1.702033	-0.150404	0.457387
H69	H	1.770172	-0.154450	0.383413
O70	O	0.856428	0.150248	-0.388174
H71	H	0.886271	0.254288	-0.434055
O72	O	1.096147	0.148621	-0.395838
H73	H	1.155284	0.050982	-0.417161
O74	O	1.709693	-0.148744	0.217670
H75	H	1.731009	-0.051100	0.158548
O76	O	1.257460	-0.392659	-0.132680
H77	H	1.215832	-0.323660	-0.213641
O78	O	1.122919	0.281270	-0.196120
H79	H	1.194852	0.250146	-0.116727
H80	H	1.525295	-0.247149	0.204684
H81	H	0.887972	-0.247777	-0.211006
H82	H	1.090723	-0.150808	-0.360820
O83	O	1.120752	-0.281089	-0.192277
H84	H	1.191386	-0.248962	-0.112067
