data_functionalizedCrystal
_audit_creation_method	'MofGen! by Chris Wilmer'
_symmetry_space_group_name_H-M	'P1'
_symmetry_Int_Tables_number	1
_symmetry_cell_setting	triclinic
loop_
_symmetry_equiv_pos_as_xyz
  x,y,z
_cell_length_a	15.995350
_cell_length_b	10.654541
_cell_length_c	9.130307
_cell_angle_alpha	90.003083
_cell_angle_beta	89.997872
_cell_angle_gamma	83.988152
loop_
_atom_site_label
_atom_site_type_symbol
_atom_site_fract_x
_atom_site_fract_y
_atom_site_fract_z
O1	O	-1.111921	-0.161871	-0.121675
O2	O	-0.868262	-0.181860	-0.121705
O3	O	-0.995695	0.010947	-0.121680
O4	O	-0.984488	-0.354679	-0.121699
O5	O	-0.995691	0.010949	0.121919
O6	O	-0.868258	-0.181859	0.121894
O7	O	-1.111917	-0.161869	0.121924
Cu8	Cu	-0.990087	-0.171864	0.144152
Cu9	Cu	-0.990092	-0.171866	-0.143932
O10	O	-0.984484	-0.354677	0.121900
C11	C	-0.837060	-0.181033	0.000091
C12	C	-0.744095	-0.178556	0.000080
C13	C	-0.994870	0.057735	0.000119
C14	C	-0.992410	0.197146	0.000116
C15	C	-1.143119	-0.162697	0.000125
C16	C	-1.236083	-0.165174	0.000127
C17	C	-0.406296	-0.169658	0.000111
C18	C	-0.452934	-0.032344	0.000661
C19	C	-0.549638	-0.034822	0.000102
C20	C	-0.573882	-0.174072	0.000096
C21	C	-0.533191	-0.241800	-0.139008
C22	C	-0.436535	-0.238351	-0.139115
C23	C	-0.436208	-0.241186	0.137903
C24	C	-0.533153	-0.241153	0.139731
C25	C	-0.668594	-0.176573	0.000083
C26	C	-0.311584	-0.167161	0.000114
C27	C	-0.985309	-0.401465	0.000098
C28	C	-0.987769	-0.540876	0.000091
N29	N	-0.990090	-0.171862	0.346775
C30	C	-1.144790	0.227108	0.000153
C31	C	-1.219821	0.307582	0.000175
C32	C	-1.217504	0.438570	0.000170
C33	C	-1.140148	0.489085	0.000139
C34	C	-1.065117	0.408610	0.000118
C35	C	-1.067442	0.277621	0.000127
C36	C	-0.912738	0.378649	0.000070
C37	C	-0.915053	0.247661	0.000085
C38	C	-0.835382	0.429164	0.000039
C39	C	-0.760349	0.348689	0.000028
C40	C	-0.762670	0.217694	0.000034
C41	C	-0.840023	0.167187	0.000064
N42	N	-0.990096	-0.171858	-0.346555
C43	C	-1.102978	-0.001180	0.346787
C44	C	-1.159428	0.084158	0.423459
C45	C	-1.159436	0.084158	0.576793
C46	C	-1.102987	-0.001185	0.653457
C47	C	-1.046537	-0.086522	0.576784
C48	C	-1.046537	-0.086516	0.423447
C49	C	-0.933646	-0.257196	0.576772
C50	C	-0.933640	-0.257205	0.423439
C51	C	-0.877197	-0.342539	0.653437
C52	C	-0.820750	-0.427884	0.576764
C53	C	-0.820745	-0.427883	0.423421
C54	C	-0.877191	-0.342542	0.346766
H55	H	-0.577757	0.018416	0.099819
C56	C	-0.427470	0.041810	0.135426
N57	N	-0.408284	0.097665	0.236934
C58	C	-1.300041	0.527095	0.000195
N59	N	-1.362208	0.593771	0.000216
C60	C	-0.758656	-0.521741	0.661104
N61	N	-0.711886	-0.592435	0.724635
H62	H	-0.547909	-0.344103	-0.144185
H63	H	-0.560181	-0.191712	0.242640
H64	H	-0.877203	-0.342529	0.778289
H65	H	-0.433025	0.022290	-0.098541
H66	H	-1.102984	-0.001182	0.221934
C67	C	-1.137604	0.633176	0.000128
N68	N	-1.135686	0.741707	0.000125
C69	C	-0.758658	-0.521783	0.339094
N70	N	-0.711898	-0.592520	0.275583
H71	H	-0.561294	-0.194760	-0.242529
C72	C	-1.102984	-0.001156	0.822128
N73	N	-1.102978	-0.001130	0.949173
H74	H	-0.833501	0.535822	0.000026
H75	H	-0.697372	0.389830	-0.000007
C76	C	-0.680128	0.129181	0.000007
N77	N	-0.617955	0.062517	-0.000011
H78	H	-0.577187	0.018774	-0.099782
H79	H	-0.417942	-0.188962	-0.243095
C80	C	-0.393757	-0.374542	-0.147680
N81	N	-0.361540	-0.477119	-0.154146
C82	C	-0.877189	-0.342530	0.178095
N83	N	-0.877188	-0.342514	0.051050
H84	H	-0.841919	0.060531	0.000078
C85	C	-1.221506	0.178050	0.339118
N86	N	-1.268257	0.248778	0.275595
H87	H	-0.415410	-0.196294	0.243341
H88	H	-0.405033	-0.342426	0.138839
H89	H	-0.549107	-0.342698	0.148129
H90	H	-1.282803	0.266439	0.000213
H91	H	-1.146685	0.120452	0.000177
C92	C	-1.221533	0.178034	0.661135
N93	N	-1.268305	0.248739	0.724661
