data_functionalizedCrystal
_audit_creation_method	'MofGen! by Chris Wilmer'
_symmetry_space_group_name_H-M	'P1'
_symmetry_Int_Tables_number	1
_symmetry_cell_setting	triclinic
loop_
_symmetry_equiv_pos_as_xyz
  x,y,z
_cell_length_a	14.519709
_cell_length_b	13.101018
_cell_length_c	14.519709
_cell_angle_alpha	93.364108
_cell_angle_beta	83.680145
_cell_angle_gamma	86.637576
loop_
_atom_site_label
_atom_site_type_symbol
_atom_site_fract_x
_atom_site_fract_y
_atom_site_fract_z
O1	O	-1.228930	0.085070	-0.115822
O2	O	-0.978930	0.335070	0.134178
O3	O	-0.728930	0.585070	0.384178
O4	O	-0.478930	0.835070	0.634178
O5	O	-0.960455	0.085105	-0.130057
O6	O	-0.710455	0.335105	0.119943
O7	O	-0.460455	0.585105	0.369943
O8	O	-0.210455	0.835105	0.619943
O9	O	-1.101810	0.085078	0.011299
O10	O	-0.851810	0.335078	0.261299
O11	O	-0.601810	0.585078	0.511299
O12	O	-0.351810	0.835078	0.761299
O13	O	-1.087575	0.085098	-0.257177
O14	O	-0.837575	0.335098	-0.007177
O15	O	-0.587575	0.585098	0.242823
O16	O	-0.337575	0.835098	0.492823
O17	O	-1.091656	-0.085351	0.001148
O18	O	-0.841656	0.164649	0.251148
O19	O	-0.591656	0.414649	0.501148
O20	O	-0.341656	0.664649	0.751148
O21	O	-0.950301	-0.085324	-0.140208
O22	O	-0.700301	0.164676	0.109792
O23	O	-0.450301	0.414676	0.359792
O24	O	-0.200301	0.664676	0.609792
O25	O	-1.218776	-0.085358	-0.125973
O26	O	-0.968776	0.164642	0.124027
O27	O	-0.718776	0.414642	0.374027
O28	O	-0.468776	0.664642	0.624027
Zn29	Zn	-1.082926	-0.112400	-0.134702
Zn30	Zn	-0.832926	0.137600	0.115298
Zn31	Zn	-0.582926	0.387600	0.365298
Zn32	Zn	-0.332926	0.637600	0.615298
Zn33	Zn	-1.096304	0.112147	-0.121328
Zn34	Zn	-0.846304	0.362147	0.128672
Zn35	Zn	-0.596304	0.612147	0.378672
Zn36	Zn	-0.346304	0.862147	0.628672
O37	O	-1.077421	-0.085331	-0.267328
O38	O	-0.827421	0.164669	-0.017328
O39	O	-0.577421	0.414669	0.232672
O40	O	-0.327421	0.664669	0.482672
C41	C	-0.921018	-0.000105	-0.134468
C42	C	-0.671018	0.249895	0.115532
C43	C	-0.421018	0.499895	0.365532
C44	C	-0.171018	0.749895	0.615532
C45	C	-0.818638	-0.000092	-0.132479
C46	C	-0.568638	0.249908	0.117521
C47	C	-0.318638	0.499908	0.367521
C48	C	-0.068638	0.749908	0.617521
C49	C	-0.443740	-0.000136	-0.125162
C50	C	-0.193740	0.249864	0.124838
C51	C	0.056260	0.499864	0.374838
C52	C	0.306260	0.749864	0.624838
C53	C	-0.548048	-0.000123	-0.127194
C54	C	-0.298048	0.249877	0.122806
C55	C	-0.048048	0.499877	0.372806
C56	C	0.201952	0.749877	0.622806
C57	C	-0.631186	-0.000113	-0.128821
C58	C	-0.381186	0.249887	0.121179
C59	C	-0.131186	0.499887	0.371179
C60	C	0.118814	0.749887	0.621179
C61	C	-0.735501	-0.000103	-0.130853
C62	C	-0.485501	0.249897	0.119147
C63	C	-0.235501	0.499897	0.369147
C64	C	0.014499	0.749897	0.619147
N65	N	-1.073803	-0.265647	-0.143829
N66	N	-0.823803	-0.015647	0.106171
N67	N	-0.573803	0.234353	0.356171
N68	N	-0.323803	0.484353	0.606171
C69	C	-1.117843	-0.525565	-0.099772
C70	C	-0.867843	-0.275565	0.150228
C71	C	-0.617843	-0.025565	0.400228
C72	C	-0.367843	0.224435	0.650228
C73	C	-1.061398	-0.474681	-0.156247
C74	C	-0.811398	-0.224681	0.093753
C75	C	-0.561398	0.025319	0.343753
C76	C	-0.311398	0.275319	0.593753
C77	C	-1.068302	-0.358364	-0.149336
C78	C	-0.818302	-0.108364	0.100664
C79	C	-0.568302	0.141636	0.350664
C80	C	-0.318302	0.391636	0.600664
C81	C	-1.110940	-0.641893	-0.106682
C82	C	-0.860940	-0.391893	0.143318
C83	C	-0.610940	-0.141893	0.393318
C84	C	-0.360940	0.108107	0.643318
C85	C	-0.258213	-0.000143	-0.121561
C86	C	-0.008213	0.249857	0.128439
C87	C	0.241787	0.499857	0.378439
C88	C	0.491787	0.749857	0.628439
C89	C	-0.360594	-0.000142	-0.123549
C90	C	-0.110594	0.249858	0.126451
C91	C	0.139406	0.499858	0.376451
C92	C	0.389406	0.749858	0.626451
C93	C	-1.096070	-0.000137	0.040583
C94	C	-0.846070	0.249863	0.290583
C95	C	-0.596070	0.499863	0.540583
C96	C	-0.346070	0.749863	0.790583
C97	C	-1.094081	-0.000137	0.142964
C98	C	-0.844081	0.249863	0.392964
C99	C	-0.594081	0.499863	0.642964
C100	C	-0.344081	0.749863	0.892964
N101	N	-1.105435	0.265394	-0.112193
N102	N	-0.855435	0.515394	0.137807
N103	N	-0.605435	0.765394	0.387807
N104	N	-0.355435	1.015394	0.637807
C105	C	-1.083161	-0.000114	-0.296612
C106	C	-0.833161	0.249886	-0.046612
C107	C	-0.583161	0.499886	0.203388
C108	C	-0.333161	0.749886	0.453388
C109	C	-1.085150	-0.000107	-0.398993
C110	C	-0.835150	0.249893	-0.148993
C111	C	-0.585150	0.499893	0.101007
C112	C	-0.335150	0.749893	0.351007
C113	C	-1.086764	-0.000110	0.517861
C114	C	-0.836764	0.249890	0.767861
C115	C	-0.586764	0.499890	1.017861
C116	C	-0.336764	0.749890	1.267861
C117	C	-1.088796	-0.000118	0.413553
C118	C	-0.838796	0.249882	0.663553
C119	C	-0.588796	0.499882	0.913553
C120	C	-0.338796	0.749882	1.163553
C121	C	-1.090422	-0.000124	0.330416
C122	C	-0.840422	0.249876	0.580416
C123	C	-0.590422	0.499876	0.830416
C124	C	-0.340422	0.749876	1.080416
C125	C	-1.092455	-0.000130	0.226101
C126	C	-0.842455	0.249870	0.476101
C127	C	-0.592455	0.499870	0.726101
C128	C	-0.342455	0.749870	0.976101
H129	H	-1.007890	-0.518476	-0.209788
H130	H	-0.757890	-0.268476	0.040212
H131	H	-0.507890	-0.018476	0.290212
H132	H	-0.257890	0.231524	0.540212
C133	C	-1.190131	-0.466415	-0.027452
C134	C	-0.940131	-0.216415	0.222548
C135	C	-0.690131	0.033585	0.472548
C136	C	-0.440131	0.283585	0.722548
H137	H	-1.224639	-0.513634	0.007079
H138	H	-0.974639	-0.263634	0.257079
H139	H	-0.724639	-0.013634	0.507079
H140	H	-0.474639	0.236366	0.757079
H141	H	-1.231034	-0.424559	-0.058246
H142	H	-0.981034	-0.174559	0.191754
H143	H	-0.731034	0.075441	0.441754
H144	H	-0.481034	0.325441	0.691754
H145	H	-1.159311	-0.424562	0.013440
H146	H	-0.909311	-0.174562	0.263440
H147	H	-0.659311	0.075438	0.513440
H148	H	-0.409311	0.325438	0.763440
