data_functionalizedCrystal
_audit_creation_method	'MofGen! by Chris Wilmer'
_symmetry_space_group_name_H-M	'P1'
_symmetry_Int_Tables_number	1
_symmetry_cell_setting	triclinic
loop_
_symmetry_equiv_pos_as_xyz
  x,y,z
_cell_length_a	10.654562
_cell_length_b	27.731996
_cell_length_c	9.130313
_cell_angle_alpha	89.992822
_cell_angle_beta	89.996930
_cell_angle_gamma	83.555745
loop_
_atom_site_label
_atom_site_type_symbol
_atom_site_fract_x
_atom_site_fract_y
_atom_site_fract_z
O1	O	1.664937	0.067914	-0.121917
O2	O	1.299186	0.074376	-0.121901
O3	O	1.493455	0.000818	-0.121878
O4	O	1.470668	0.141473	-0.121940
O5	O	1.493452	0.000820	0.121721
O6	O	1.299183	0.074378	0.121698
O7	O	1.664934	0.067916	0.121682
Cu8	Cu	1.482059	0.071147	0.143932
Cu9	Cu	1.482061	0.071145	-0.144151
O10	O	1.470665	0.141475	0.121659
C11	C	1.252407	0.073901	-0.000099
C12	C	1.113025	0.072478	-0.000091
C13	C	1.047521	0.071815	0.132683
C14	C	0.916556	0.070482	0.132659
C15	C	0.916609	0.070476	-0.132925
C16	C	1.047573	0.071806	-0.132900
C17	C	1.112973	0.072487	0.265492
C18	C	1.047469	0.071825	0.398277
C19	C	0.916504	0.070491	0.398254
C20	C	0.851042	0.069820	0.265444
C21	C	1.492985	-0.017192	-0.000073
C22	C	1.491576	-0.070857	-0.000058
C23	C	1.482706	-0.403629	-0.132915
C24	C	1.477352	-0.605321	-0.132941
O25	O	1.476607	-0.631397	-0.245871
N26	N	1.476686	-0.630541	-0.000156
C27	C	1.477350	-0.605335	0.132644
O28	O	1.476647	-0.631414	0.245585
C29	C	1.482695	-0.403644	0.132668
C30	C	1.483374	-0.378427	-0.000125
C31	C	1.483384	-0.378412	-0.265698
C32	C	1.484729	-0.327993	-0.265690
C33	C	1.485397	-0.302790	-0.132900
C34	C	1.484719	-0.328007	-0.000117
C35	C	1.483350	-0.378438	0.265467
C36	C	1.484683	-0.328012	0.265461
C37	C	1.485362	-0.302795	0.132668
C38	C	1.486732	-0.252385	0.132680
N39	N	1.487398	-0.227165	-0.000104
C40	C	1.486731	-0.252368	-0.132894
C41	C	1.474546	-0.711226	0.132622
C42	C	1.473212	-0.761649	0.132617
C43	C	1.473212	-0.761631	-0.132969
C44	C	1.474555	-0.711208	-0.132962
C45	C	1.475212	-0.686006	-0.000162
C46	C	1.489557	-0.146483	-0.132868
C47	C	1.490908	-0.096059	-0.132848
C48	C	1.490901	-0.096081	0.132736
C49	C	1.489557	-0.146500	0.132718
C50	C	1.488881	-0.171700	-0.000096
O51	O	1.487464	-0.226277	0.245551
O52	O	1.487406	-0.226279	-0.245818
C53	C	1.481361	-0.454049	-0.132923
C54	C	1.480683	-0.479266	-0.000141
C55	C	1.481351	-0.454064	0.132650
C56	C	1.479349	-0.529689	-0.000146
C57	C	1.478682	-0.554891	-0.132936
C58	C	1.479348	-0.529671	-0.265721
C59	C	1.480693	-0.479251	-0.265713
C60	C	1.480685	-0.479284	0.265434
C61	C	1.479341	-0.529703	0.265416
C62	C	1.478673	-0.554906	0.132625
C63	C	1.711713	0.068391	-0.000123
C64	C	1.851095	0.069814	-0.000141
C65	C	1.471135	0.159484	-0.000149
C66	C	1.472545	0.213149	-0.000174
N67	N	1.482066	0.071149	0.346555
N68	N	1.482064	0.071140	-0.346774
C69	C	1.568110	0.038588	0.423217
C70	C	1.568106	0.038583	0.576554
C71	C	1.396011	0.103702	0.576553
C72	C	1.396010	0.103705	0.423219
C73	C	1.654166	0.006032	0.346553
C74	C	1.740217	-0.026530	0.423216
C75	C	1.740214	-0.026536	0.576552
C76	C	1.654159	0.006021	0.653227
H77	H	0.863299	0.069931	-0.241052
H78	H	1.481245	-0.458724	-0.373847
H79	H	1.810274	-0.053040	0.360779
H80	H	1.325944	0.130218	0.360800
N81	N	1.833032	-0.061651	0.659238
H82	H	1.819282	-0.096010	0.632558
H83	H	1.921987	-0.055711	0.632500
H84	H	1.100907	0.072348	-0.241017
N85	N	1.491646	-0.068861	-0.276080
H86	H	1.491015	-0.092481	-0.360200
H87	H	1.414331	-0.044280	-0.281865
H88	H	1.654156	0.006010	0.778084
H89	H	1.100778	0.072368	0.506406
H90	H	1.325950	0.130209	0.638991
N91	N	0.709788	0.068377	0.265422
H92	H	0.667477	0.097963	0.213265
H93	H	0.689137	0.038126	0.213323
N94	N	1.478621	-0.556900	0.408652
H95	H	1.479246	-0.533278	0.492767
H96	H	1.400186	-0.574158	0.414438
N97	N	1.481410	-0.452105	0.408665
H98	H	1.480786	-0.475737	0.492771
H99	H	1.559846	-0.434848	0.414448
N100	N	1.472494	-0.788818	-0.276196
H101	H	1.471546	-0.824586	-0.256037
H102	H	1.394849	-0.776345	-0.334172
H103	H	0.863175	0.069948	0.506374
H104	H	1.489000	-0.166994	-0.241018
N105	N	1.485396	-0.300827	0.408692
H106	H	1.407289	-0.305946	0.466744
H107	H	1.563083	-0.313279	0.466628
H108	H	1.482835	-0.398927	-0.373837
H109	H	1.219611	0.073574	0.265526
N110	N	1.485476	-0.300796	-0.408913
H111	H	1.408170	-0.276213	-0.414846
H112	H	1.563963	-0.283569	-0.414727
H113	H	1.475106	-0.690679	-0.241094
H114	H	1.472678	-0.782177	0.240750
N115	N	1.475270	-0.684046	0.275862
H116	H	1.397171	-0.689169	0.333923
H117	H	1.552966	-0.696500	0.333780
N118	N	1.482620	-0.405628	0.408696
H119	H	1.483238	-0.382004	0.492804
H120	H	1.404188	-0.422889	0.414483
N121	N	1.488857	-0.173704	0.275938
H122	H	1.410432	-0.190966	0.281869
H123	H	1.566227	-0.198259	0.281744
N124	N	1.491633	-0.068894	0.275955
H125	H	1.492584	-0.033126	0.255797
H126	H	1.413522	-0.074048	0.333943
H127	H	1.654179	0.006035	0.221699
H128	H	1.478810	-0.550200	-0.373843
