data_functionalizedCrystal
_audit_creation_method	'MofGen! by Chris Wilmer'
_symmetry_space_group_name_H-M	'P1'
_symmetry_Int_Tables_number	1
_symmetry_cell_setting	triclinic
loop_
_symmetry_equiv_pos_as_xyz
  x,y,z
_cell_length_a	16.120490
_cell_length_b	16.120444
_cell_length_c	19.805399
_cell_angle_alpha	87.128215
_cell_angle_beta	92.914130
_cell_angle_gamma	90.165174
loop_
_atom_site_label
_atom_site_type_symbol
_atom_site_fract_x
_atom_site_fract_y
_atom_site_fract_z
Zn1	Zn	1.254456	-0.395696	0.450542
Zn2	Zn	1.247299	-0.534752	0.342783
Zn3	Zn	1.115398	-0.388651	0.331364
Zn4	Zn	1.108305	-0.527642	0.449926
O5	O	1.181365	-0.461685	0.393654
O6	O	1.369872	-0.420067	0.441284
O7	O	1.229776	-0.515398	0.246551
O8	O	1.139808	-0.273222	0.342652
O9	O	1.364614	-0.522230	0.362114
O10	O	1.241973	-0.278398	0.430211
O11	O	1.132869	-0.408058	0.238162
O12	O	0.998092	-0.401164	0.342055
O13	O	1.127719	-0.510112	0.544725
O14	O	0.992881	-0.503280	0.429162
O15	O	1.235095	-0.413173	0.545177
O16	O	1.222898	-0.650172	0.361517
O17	O	1.120780	-0.644948	0.440235
C18	C	0.965314	-0.450687	0.384303
C19	C	0.872886	-0.446002	0.380320
C20	C	1.170315	-0.677733	0.402064
C21	C	1.165664	-0.770163	0.405688
C22	C	0.659914	-0.485981	0.414317
C23	C	0.703663	-0.437455	0.373046
C24	C	0.797827	-0.442212	0.377095
C25	C	0.565741	-0.481226	0.410270
C26	C	1.205695	-0.983137	0.375009
C27	C	1.157188	-0.939390	0.412312
C28	C	1.161906	-0.845223	0.408625
C29	C	1.200979	-1.077312	0.378695
C30	C	1.398259	-0.472727	0.403041
C31	C	1.490686	-0.477433	0.407042
C32	C	1.181414	-0.461635	0.570196
C33	C	1.181435	-0.461614	0.645428
C34	C	1.192480	-0.244795	0.385226
C35	C	1.197217	-0.152369	0.381635
C36	C	1.181366	-0.461677	0.217797
C37	C	1.181518	-0.461473	0.142564
C38	C	1.237347	-0.411135	0.681009
C39	C	1.237357	-0.411111	0.751697
C40	C	1.181458	-0.461572	0.786803
C41	C	1.125540	-0.512053	0.751218
C42	C	1.125527	-0.512071	0.680531
C43	C	1.125591	-0.511978	1.036290
C44	C	1.125610	-0.511957	1.106982
C45	C	1.237421	-0.411017	1.107456
C46	C	1.237408	-0.411036	1.036769
C47	C	1.181487	-0.461514	1.001190
C48	C	1.181476	-0.461537	0.924542
C49	C	1.181472	-0.461553	0.863450
H50	H	0.693178	-0.531095	0.452686
H51	H	1.282951	-0.369913	1.136434
H52	H	1.112116	-0.972657	0.447017
H53	H	1.080086	-0.553049	1.135564
H54	H	1.079989	-0.553168	0.651561
C55	C	1.266579	-0.938202	0.328124
C56	C	1.271263	-0.842669	0.324458
C57	C	1.332144	-0.797722	0.277572
C58	C	1.388339	-0.848308	0.234353
C59	C	1.383656	-0.943847	0.238018
C60	C	1.322776	-0.988794	0.284903
H61	H	1.229662	-0.805217	0.356452
H62	H	1.335610	-0.726997	0.274859
H63	H	1.433407	-0.815036	0.199646
H64	H	1.425257	-0.981299	0.206023
H65	H	1.319310	-1.059519	0.287616
H66	H	0.670397	-0.392339	0.334673
C67	C	1.064056	-0.567573	0.789827
C68	C	0.969867	-0.555991	0.775751
C69	C	0.908386	-0.611522	0.814357
C70	C	0.941094	-0.678635	0.867039
C71	C	1.035287	-0.690220	0.881118
C72	C	1.096768	-0.634689	0.842512
H73	H	0.945651	-0.506308	0.736750
H74	H	0.838658	-0.602946	0.803935
H75	H	0.895582	-0.719742	0.895618
H76	H	1.059504	-0.739903	0.920119
H77	H	1.166496	-0.643265	0.852935
C78	C	1.298838	-0.355626	0.642395
C79	C	1.296895	-0.260748	0.648148
C80	C	1.358385	-0.205235	0.609535
C81	C	1.421818	-0.244602	0.565171
C82	C	1.423763	-0.339485	0.559416
C83	C	1.362273	-0.394998	0.598028
H84	H	1.249936	-0.231602	0.680991
H85	H	1.356945	-0.134996	0.613796
H86	H	1.467337	-0.203508	0.536587
H87	H	1.470722	-0.368631	0.526573
H88	H	1.363713	-0.465237	0.593768
H89	H	1.080068	-0.553092	1.007330
C90	C	1.298896	-0.355526	0.998154
C91	C	1.266194	-0.288422	0.945461
C92	C	1.327681	-0.232907	0.906847
C93	C	1.421868	-0.244496	0.920925
C94	C	1.454574	-0.311603	0.973620
C95	C	1.393088	-0.367118	1.012235
H96	H	1.196467	-0.279841	0.935037
H97	H	1.303469	-0.183231	0.867838
H98	H	1.467384	-0.203401	0.892341
H99	H	1.524301	-0.320184	0.984044
H100	H	1.417299	-0.416794	1.051243
H101	H	1.282888	-0.370008	0.780664
