data_functionalizedCrystal
_audit_creation_method	'MofGen! by Chris Wilmer'
_symmetry_space_group_name_H-M	'P1'
_symmetry_Int_Tables_number	1
_symmetry_cell_setting	triclinic
loop_
_symmetry_equiv_pos_as_xyz
  x,y,z
_cell_length_a	23.532361
_cell_length_b	23.532407
_cell_length_c	16.776229
_cell_angle_alpha	89.988688
_cell_angle_beta	89.997131
_cell_angle_gamma	82.839173
loop_
_atom_site_label
_atom_site_type_symbol
_atom_site_fract_x
_atom_site_fract_y
_atom_site_fract_z
O1	O	0.755279	0.069010	-0.066216
O2	O	0.589412	0.079041	-0.066237
O3	O	0.677347	-0.008907	-0.066211
O4	O	0.667343	0.156958	-0.066242
O5	O	0.677335	-0.008913	0.066365
O6	O	0.589400	0.079035	0.066340
O7	O	0.755267	0.069005	0.066360
Zn8	Zn	0.672332	0.074019	0.087399
Zn9	Zn	0.672347	0.074026	-0.087276
O10	O	0.667332	0.156953	0.066335
C11	C	0.568189	0.078787	0.000049
C12	C	0.504971	0.078032	0.000042
C13	C	0.231733	0.074731	-0.072220
C14	C	0.291133	0.075446	-0.072222
O15	O	0.321864	0.075799	-0.133681
N16	N	0.320832	0.075804	0.000046
C17	C	0.291130	0.075442	0.072320
O18	O	0.321846	0.075812	0.133789
C19	C	0.231732	0.074723	0.072322
C20	C	0.202035	0.074370	0.000049
C21	C	0.202036	0.074378	-0.144486
C22	C	0.142641	0.073664	-0.144484
C23	C	0.112942	0.073303	-0.072215
C24	C	0.142639	0.073657	0.000051
C25	C	0.202031	0.074356	0.144595
C26	C	0.142629	0.073637	0.144590
C27	C	0.112931	0.073284	0.072318
C28	C	0.053544	0.072582	0.072323
N29	N	0.023845	0.072224	0.000055
C30	C	0.053544	0.072584	-0.072214
C31	C	0.415870	0.076951	0.072312
C32	C	0.475266	0.077674	0.072312
C33	C	0.475266	0.077677	-0.072231
C34	C	0.415868	0.076958	-0.072230
C35	C	0.386171	0.076593	0.000044
C36	C	-0.071192	0.071086	-0.072203
C37	C	-0.130593	0.070374	-0.072195
C38	C	-0.130587	0.070368	0.072347
C39	C	-0.071191	0.071083	0.072339
C40	C	-0.041495	0.071440	0.000057
O41	O	0.022776	0.072227	0.133751
O42	O	0.022821	0.072207	-0.133673
C43	C	0.677086	-0.030126	0.000079
C44	C	0.676320	-0.093343	0.000085
C45	C	0.723555	-0.492454	0.000047
C46	C	0.722844	-0.551854	0.000041
O47	O	0.766630	-0.588606	0.000017
N48	N	0.670566	-0.574471	0.000035
C49	C	0.618997	-0.537685	0.000027
O50	O	0.574465	-0.562377	0.000021
C51	C	0.619709	-0.478286	0.000028
C52	C	0.671990	-0.455672	0.000042
C53	C	0.775832	-0.469839	0.000060
C54	C	0.776543	-0.410443	0.000068
C55	C	0.724977	-0.373662	0.000062
C56	C	0.672701	-0.396276	0.000049
C57	C	0.568140	-0.441501	0.000014
C58	C	0.568857	-0.382099	0.000014
C59	C	0.621137	-0.359485	0.000028
C60	C	0.621847	-0.300099	0.000052
N61	N	0.674124	-0.277481	0.000057
C62	C	0.725690	-0.314263	0.000063
C63	C	0.617505	-0.662427	0.000025
C64	C	0.616793	-0.721825	0.000030
C65	C	0.720640	-0.735990	0.000042
C66	C	0.721352	-0.676591	0.000043
C67	C	0.669783	-0.639810	0.000031
C68	C	0.727179	-0.189526	0.000080
C69	C	0.727886	-0.130124	0.000090
C70	C	0.624039	-0.115965	0.000074
C71	C	0.623332	-0.175361	0.000067
C72	C	0.674907	-0.212141	0.000067
O73	O	0.578083	-0.263312	0.000072
O74	O	0.770214	-0.289562	0.000059
C75	C	0.776489	0.069258	0.000073
C76	C	0.839708	0.070014	0.000074
C77	C	0.667592	0.178171	0.000043
C78	C	0.668358	0.241388	0.000032
N79	N	0.672325	0.074014	0.206611
N80	N	0.672358	0.074027	-0.206487
C81	C	0.711275	0.035086	0.248339
C82	C	0.711278	0.035086	0.331791
C83	C	0.672334	0.074016	0.373514
C84	C	0.633380	0.112946	0.331779
C85	C	0.633375	0.112943	0.248329
C86	C	0.633401	0.112957	0.668327
C87	C	0.633411	0.112957	0.751783
C88	C	0.711304	0.035100	0.751789
C89	C	0.711299	0.035097	0.668338
C90	C	0.672343	0.074024	0.626612
C91	C	0.672340	0.074024	0.536123
C92	C	0.672340	0.074020	0.464000
H93	H	0.118467	0.073375	-0.203336
C94	C	0.556384	0.189910	0.256700
C95	C	0.590563	0.155736	0.202458
H96	H	0.529954	0.216330	0.228380
H97	H	0.536037	0.166311	0.289259
H98	H	0.579981	0.210272	0.289238
H99	H	0.566966	0.135371	0.169923
H100	H	0.610911	0.179338	0.169885
H101	H	0.391692	0.076671	-0.131080
C102	C	0.555732	-0.780409	0.068173
C103	C	0.559324	-0.746678	0.000024
H104	H	0.520250	-0.795747	0.068166
H105	H	0.586333	-0.810817	0.068168
H106	H	0.558167	-0.757535	0.114403
H107	H	0.556893	-0.769553	-0.046206
H108	H	0.528714	-0.716265	0.000022
C109	C	-0.124618	0.070447	-0.215072
C110	C	-0.163235	0.069984	-0.151642
H111	H	-0.144769	0.070202	-0.264117
H112	H	-0.105985	0.103939	-0.212073
H113	H	-0.096916	0.037508	-0.212050
H114	H	-0.190935	0.102925	-0.154660
H115	H	-0.181877	0.036488	-0.154643
C116	C	0.355766	0.027177	0.156201
C117	C	0.383231	0.076555	0.151765
H118	H	0.335622	0.026931	0.205254
H119	H	0.329574	0.026865	0.113174
H120	H	0.383479	-0.005754	0.153196
H121	H	0.355517	0.109486	0.154763
H122	H	0.409425	0.076872	0.194804
H123	H	0.601695	0.144660	0.785752
C124	C	0.835301	-0.544840	-0.068085
C125	C	0.832520	-0.510262	0.000066
H126	H	0.870303	-0.569789	-0.068078
H127	H	0.804075	-0.566817	-0.068085
H128	H	0.833420	-0.521362	-0.114313
H129	H	0.834397	-0.533741	0.046295
H130	H	0.863754	-0.488283	0.000074
C131	C	0.555815	0.125711	0.425647
C132	C	0.590573	0.155738	0.377643
H133	H	0.529390	0.152131	0.453964
H134	H	0.535462	0.102116	0.393105
H135	H	0.579020	0.102529	0.462438
H136	H	0.567367	0.178917	0.340847
H137	H	0.610926	0.179342	0.410187
H138	H	-0.047020	0.071377	-0.131062
C139	C	0.788302	-0.041866	0.743411
C140	C	0.754120	-0.007698	0.797657
H141	H	0.814735	-0.068284	0.771728
H142	H	0.764710	-0.062225	0.710873
H143	H	0.808649	-0.018259	0.710852
H144	H	0.733769	-0.031305	0.830212
H145	H	0.777714	0.012663	0.830208
H146	H	0.226211	0.074670	-0.203340
H147	H	0.526862	-0.352154	0.000003
H148	H	0.763923	-0.658183	0.000054
H149	H	0.762627	-0.765949	0.000044
C150	C	0.724037	-0.042513	0.154560
C151	C	0.754070	-0.007734	0.202501
H152	H	0.750454	-0.068956	0.126267
H153	H	0.700440	-0.062845	0.187143
H154	H	0.700857	-0.019324	0.117749
H155	H	0.777247	-0.030923	0.239317
H156	H	0.777677	0.012599	0.169916
H157	H	0.499457	0.077970	-0.131076
C158	C	0.196042	0.074263	0.287463
C159	C	0.234664	0.074738	0.224041
H160	H	0.216189	0.074494	0.336512
H161	H	0.168344	0.107199	0.284451
H162	H	0.177406	0.040767	0.284444
H163	H	0.253296	0.108236	0.227057
H164	H	0.262372	0.041799	0.227054
C165	C	0.598806	0.147535	0.540408
C166	C	0.590591	0.155754	0.622466
H167	H	0.572375	0.173958	0.512095
H168	H	0.636775	0.153516	0.526727
H169	H	0.592829	0.109558	0.526749
H170	H	0.596573	0.193730	0.636126
H171	H	0.552613	0.149777	0.636152
C172	C	0.002291	0.022920	0.156197
C173	C	-0.038542	0.071476	0.151778
H174	H	0.022447	0.023162	0.205238
H175	H	-0.016352	-0.010566	0.153205
H176	H	0.028477	0.023241	0.113151
H177	H	-0.064730	0.071153	0.194821
H178	H	-0.019898	0.104970	0.154778
C179	C	0.788854	0.022334	0.425635
C180	C	0.754093	-0.007700	0.377666
H181	H	0.815284	-0.004082	0.453961
H182	H	0.809200	0.045929	0.393068
H183	H	0.765651	0.045517	0.462418
H184	H	0.777296	-0.030880	0.340879
H185	H	0.733746	-0.031304	0.410237
H186	H	0.118452	0.073344	0.203446
C187	C	0.723964	-0.042566	0.574684
C188	C	0.754055	-0.007796	0.622555
H189	H	0.750345	-0.069075	0.546441
H190	H	0.700325	-0.062822	0.607307
H191	H	0.700820	-0.019381	0.537829
H192	H	0.777195	-0.030981	0.659415
H193	H	0.777703	0.012461	0.589929
H194	H	-0.154779	0.070077	0.131187
C195	C	0.469286	0.077597	0.215183
C196	C	0.507905	0.078066	0.151756
H197	H	0.489436	0.077833	0.264229
H198	H	0.441588	0.110533	0.212168
H199	H	0.450650	0.044101	0.212173
H200	H	0.526538	0.111564	0.154762
H201	H	0.535613	0.045127	0.154772
H202	H	0.575509	-0.632483	0.000022
H203	H	0.525567	-0.459902	-0.000002
H204	H	0.582056	-0.086007	0.000073
C205	C	0.830465	-0.150101	0.000096
C206	C	0.785357	-0.105269	0.000099
H207	H	0.865944	-0.134757	0.000094
H208	H	0.828024	-0.172981	0.046323
H209	H	0.828024	-0.172966	-0.046142
H210	H	0.787796	-0.082406	0.046340
H211	H	0.787799	-0.082379	-0.046133
C212	C	0.562296	-0.233931	-0.068100
C213	C	0.565867	-0.200226	0.000059
H214	H	0.526820	-0.249282	-0.068106
H215	H	0.564733	-0.211041	-0.114318
H216	H	0.592908	-0.264336	-0.068093
H217	H	0.535257	-0.169819	0.000049
H218	H	0.563425	-0.223118	0.046289
C219	C	0.786649	-0.264522	-0.068073
C220	C	0.783871	-0.229948	0.000083
H221	H	0.821650	-0.289473	-0.068068
H222	H	0.755422	-0.286496	-0.068076
H223	H	0.784770	-0.241041	-0.114298
H224	H	0.785746	-0.253429	0.046308
H225	H	0.815107	-0.207972	0.000093
H226	H	0.819115	-0.392037	0.000076
