data_functionalizedCrystal
_audit_creation_method	'MofGen! by Chris Wilmer'
_symmetry_space_group_name_H-M	'P1'
_symmetry_Int_Tables_number	1
_symmetry_cell_setting	triclinic
loop_
_symmetry_equiv_pos_as_xyz
  x,y,z
_cell_length_a	16.109301
_cell_length_b	19.188930
_cell_length_c	14.586319
_cell_angle_alpha	89.991095
_cell_angle_beta	89.999213
_cell_angle_gamma	83.303131
loop_
_atom_site_label
_atom_site_type_symbol
_atom_site_fract_x
_atom_site_fract_y
_atom_site_fract_z
O1	O	1.102833	0.089744	-0.076193
O2	O	0.860734	0.100912	-0.076209
O3	O	0.988770	-0.006311	-0.076182
O4	O	0.974797	0.196968	-0.076219
O5	O	0.988762	-0.006313	0.076298
O6	O	0.860726	0.100911	0.076272
O7	O	1.102825	0.089742	0.076288
Cu8	Cu	0.981774	0.095326	0.090203
Cu9	Cu	0.981785	0.095328	-0.090124
O10	O	0.974789	0.196966	0.076262
C11	C	0.829757	0.100459	0.000030
C12	C	0.737466	0.099103	0.000025
C13	C	0.988313	-0.032324	0.000061
C14	C	0.986955	-0.109832	0.000068
C15	C	0.514993	0.159573	0.000024
C16	C	0.428277	0.158294	0.000030
C17	C	0.448573	0.031076	0.000050
C18	C	0.535287	0.032357	0.000050
C19	C	0.568495	0.096608	0.000033
C20	C	0.395064	0.094047	0.000038
C21	C	0.301043	0.092659	0.000045
C22	C	0.662522	0.097996	0.000028
C23	C	1.062082	-0.154580	0.000078
C24	C	1.060806	-0.227407	0.000063
C25	C	0.984399	-0.255482	0.000057
C26	C	0.909261	-0.210724	0.000043
C27	C	0.910540	-0.137899	0.000048
N28	N	0.925991	-0.363624	0.051945
N29	N	0.924782	-0.432805	0.051942
C30	C	0.980543	-0.474900	0.000038
N31	N	1.037571	-0.445200	-0.051850
N32	N	1.038783	-0.376013	-0.051843
C33	C	0.983004	-0.334448	0.000051
C34	C	1.054292	-0.598616	0.000030
C35	C	1.053012	-0.671443	0.000010
C36	C	0.901465	-0.654759	-0.000001
C37	C	0.902747	-0.581933	0.000010
C38	C	0.979162	-0.553866	0.000030
C39	C	1.133802	0.090196	0.000047
C40	C	1.226093	0.091552	0.000046
C41	C	0.975246	0.222979	0.000017
C42	C	0.976604	0.300486	0.000003
N43	N	0.981773	0.095325	0.217034
N44	N	0.981793	0.095325	-0.216955
C45	C	1.038486	0.047862	0.452052
C46	C	1.038488	0.047860	0.548034
C47	C	0.925074	0.142790	0.548020
C48	C	0.925068	0.142787	0.452040
C49	C	0.981779	0.095324	0.404059
C50	C	0.981787	0.095325	0.596020
C51	C	0.981789	0.095323	0.700087
C52	C	0.981776	0.095325	0.299985
H53	H	0.542027	0.211890	0.000017
H54	H	1.116514	-0.575763	0.000042
H55	H	0.849360	-0.101464	0.000041
H56	H	0.878886	0.181437	0.412962
C57	C	0.593342	-0.036033	-0.000132
C58	C	0.578391	-0.074709	-0.078586
C59	C	0.631861	-0.137705	-0.078787
H60	H	0.583349	-0.062464	0.052983
H61	H	0.649754	-0.026096	-0.000180
H62	H	0.521992	-0.084647	-0.078529
H63	H	0.588389	-0.048300	-0.131713
H64	H	0.688273	-0.127769	-0.078836
H65	H	0.621864	-0.164130	-0.025669
H66	H	0.621730	-0.163952	-0.132021
C67	C	0.370327	0.226733	-0.000029
C68	C	0.417973	0.283271	-0.000066
C69	C	0.364619	0.346331	-0.000132
H70	H	0.336060	0.228978	0.053131
H71	H	0.336089	0.228917	-0.053223
H72	H	0.452197	0.281088	0.053122
H73	H	0.452239	0.281049	-0.053222
H74	H	0.330381	0.348514	-0.053326
H75	H	0.330354	0.348569	0.053029
H76	H	0.396939	0.384699	-0.000166
H77	H	0.421524	-0.021234	0.000069
H78	H	1.124306	-0.131733	0.000091
C79	C	1.142288	-0.276119	0.000035
C80	C	1.124810	-0.345903	0.000007
C81	C	1.199849	-0.390793	-0.000028
H82	H	1.173681	-0.267709	0.053202
H83	H	1.173648	-0.267649	-0.053152
H84	H	1.093463	-0.354369	0.053189
H85	H	1.093429	-0.354335	-0.053156
H86	H	1.231210	-0.382323	-0.053215
H87	H	1.231237	-0.382377	0.053139
H88	H	1.188001	-0.438146	-0.000056
H89	H	0.847050	-0.233587	0.000036
H90	H	1.114193	-0.707878	0.000012
C91	C	0.818565	-0.685326	-0.000154
C92	C	0.813419	-0.726647	-0.078596
C93	C	0.737067	-0.754826	-0.078767
H94	H	0.773933	-0.648313	-0.000203
H95	H	0.814903	-0.713437	0.052988
H96	H	0.817074	-0.698536	-0.131724
H97	H	0.858034	-0.763670	-0.078564
H98	H	0.733404	-0.782938	-0.025626
H99	H	0.692440	-0.717809	-0.078814
H100	H	0.733568	-0.782870	-0.131985
C101	C	0.821088	-0.533460	0.000060
C102	C	0.753898	-0.573631	0.000076
C103	C	0.678658	-0.529002	0.000131
H104	H	0.818320	-0.504679	-0.053096
H105	H	0.818390	-0.504724	0.053258
H106	H	0.756595	-0.602355	-0.053117
H107	H	0.756639	-0.602410	0.053228
H108	H	0.675960	-0.500266	0.053329
H109	H	0.675899	-0.500223	-0.053025
H110	H	0.633061	-0.556251	0.000151
C111	C	1.100087	-0.003751	0.400123
C112	C	1.149733	-0.045329	0.462702
C113	C	1.206481	-0.092892	0.414902
H114	H	1.134682	0.021289	0.362669
H115	H	1.070304	-0.032861	0.362712
H116	H	1.179513	-0.016223	0.500098
H117	H	1.115161	-0.070384	0.500159
H118	H	1.176698	-0.122002	0.377491
H119	H	1.241070	-0.067846	0.377449
H120	H	1.240167	-0.121113	0.457354
C121	C	1.099926	-0.003750	0.600189
C122	C	1.055802	-0.046516	0.655284
C123	C	1.112371	-0.094076	0.703332
H124	H	1.134464	0.021293	0.637699
H125	H	1.133685	-0.032056	0.557893
H126	H	1.022057	-0.018213	0.697575
H127	H	1.021266	-0.071574	0.617797
H128	H	1.146130	-0.122382	0.661036
H129	H	1.146907	-0.069028	0.740837
H130	H	1.082441	-0.123103	0.740713
H131	H	0.878902	0.181434	0.587096
