data_functionalizedCrystal
_audit_creation_method	'MofGen! by Chris Wilmer'
_symmetry_space_group_name_H-M	'P1'
_symmetry_Int_Tables_number	1
_symmetry_cell_setting	triclinic
loop_
_symmetry_equiv_pos_as_xyz
  x,y,z
_cell_length_a	18.215407
_cell_length_b	18.215406
_cell_length_c	18.215399
_cell_angle_alpha	89.984834
_cell_angle_beta	90.020595
_cell_angle_gamma	89.999279
loop_
_atom_site_label
_atom_site_type_symbol
_atom_site_fract_x
_atom_site_fract_y
_atom_site_fract_z
Zn1	Zn	-1.125195	-0.292993	-0.416196
Zn2	Zn	-0.625195	0.207007	0.083804
Zn3	Zn	-1.125155	-0.416065	-0.293157
Zn4	Zn	-0.625155	0.083935	0.206843
Zn5	Zn	-1.002128	-0.293016	-0.293142
Zn6	Zn	-0.502128	0.206984	0.206858
Zn7	Zn	-1.002145	-0.416022	-0.416181
Zn8	Zn	-0.502145	0.083978	0.083819
O9	O	-1.063656	-0.354524	-0.354669
O10	O	-0.563656	0.145476	0.145331
O11	O	-1.228174	-0.309327	-0.399888
O12	O	-0.728174	0.190673	0.100112
O13	O	-1.108811	-0.399769	-0.190171
O14	O	-0.608811	0.100231	0.309829
O15	O	-1.018462	-0.190029	-0.309465
O16	O	-0.518462	0.309971	0.190535
O17	O	-1.228145	-0.399747	-0.309492
O18	O	-0.728145	0.100253	0.190508
O19	O	-1.108879	-0.190012	-0.399873
O20	O	-0.608879	0.309988	0.100127
O21	O	-1.018424	-0.309366	-0.190160
O22	O	-0.518424	0.190634	0.309840
O23	O	-0.899146	-0.309325	-0.309450
O24	O	-0.399146	0.190675	0.190550
O25	O	-1.018492	-0.399675	-0.519167
O26	O	-0.518492	0.100325	-0.019167
O27	O	-0.899159	-0.399697	-0.399846
O28	O	-0.399159	0.100303	0.100154
O29	O	-1.108896	-0.309286	-0.519178
O30	O	-0.608896	0.190714	-0.019178
O31	O	-1.108828	-0.519043	-0.309477
O32	O	-0.608828	-0.019043	0.190523
O33	O	-1.018454	-0.519012	-0.399861
O34	O	-0.518454	-0.019012	0.100139
C35	C	-0.872450	-0.354510	-0.354645
C36	C	-0.372450	0.145490	0.145355
C37	C	-0.790651	-0.354521	-0.354653
C38	C	-0.290651	0.145479	0.145347
C39	C	-0.602483	-0.401650	-0.401660
C40	C	-0.102483	0.098350	0.098340
C41	C	-0.525624	-0.401652	-0.401669
C42	C	-0.025624	0.098348	0.098331
C43	C	-0.525581	-0.307402	-0.307681
C44	C	-0.025581	0.192598	0.192319
C45	C	-0.602438	-0.307397	-0.307677
C46	C	-0.102438	0.192603	0.192323
C47	C	-0.640887	-0.354526	-0.354665
C48	C	-0.140887	0.145474	0.145335
C49	C	-0.487171	-0.354532	-0.354678
C50	C	0.012829	0.145468	0.145322
C51	C	-0.403837	-0.354533	-0.354686
C52	C	0.096163	0.145467	0.145314
C53	C	-0.724226	-0.354523	-0.354658
C54	C	-0.224226	0.145477	0.145342
C55	C	-1.063659	-0.545730	-0.354685
C56	C	-0.563659	-0.045730	0.145315
C57	C	-1.063727	-0.627529	-0.354717
C58	C	-0.563727	-0.127529	0.145283
C59	C	-0.255609	-0.354537	-0.354690
C60	C	0.244391	0.145463	0.145310
C61	C	-0.337408	-0.354536	-0.354690
C62	C	0.162592	0.145464	0.145310
C63	C	-1.063701	-0.354473	-0.546622
C64	C	-0.563701	0.145527	-0.046622
C65	C	-1.063720	-0.354452	-0.628421
C66	C	-0.563720	0.145548	-0.128421
C67	C	-1.063673	-0.162571	-0.354669
C68	C	-0.563673	0.337429	0.145331
C69	C	-1.063681	-0.080772	-0.354669
C70	C	-0.563681	0.419228	0.145331
C71	C	-1.016624	0.107414	-0.307621
C72	C	-0.516624	0.607414	0.192379
C73	C	-1.016630	0.184273	-0.307629
C74	C	-0.516630	0.684273	0.192371
C75	C	-1.110786	0.184279	-0.401770
C76	C	-0.610786	0.684279	0.098230
C77	C	-1.110776	0.107422	-0.401765
C78	C	-0.610776	0.607422	0.098235
C79	C	-1.063696	0.068991	-0.354685
C80	C	-0.563696	0.568991	0.145315
C81	C	-1.063712	0.222707	-0.354700
C82	C	-0.563712	0.722707	0.145300
C83	C	-1.063719	0.306041	-0.354710
C84	C	-0.563719	0.806041	0.145290
C85	C	-1.063687	-0.014348	-0.354676
C86	C	-0.563687	0.485652	0.145324
C87	C	-1.110810	-0.307342	-0.816622
C88	C	-0.610810	0.192658	-0.316622
C89	C	-1.110819	-0.307321	-0.893481
C90	C	-0.610819	0.192679	-0.393481
C91	C	-1.016681	-0.401447	-0.893458
C92	C	-0.516681	0.098553	-0.393458
C93	C	-1.016669	-0.401465	-0.816600
C94	C	-0.516669	0.098535	-0.316600
C95	C	-1.063738	-0.354413	-0.778185
C96	C	-0.563738	0.145587	-0.278185
C97	C	-1.063759	-0.354374	-0.931901
C98	C	-0.563759	0.145626	-0.431901
C99	C	-1.063768	-0.354352	-1.015234
C100	C	-0.563768	0.145648	-0.515234
C101	C	-1.063728	-0.354435	-0.694846
C102	C	-0.563728	0.145565	-0.194846
C103	C	-1.063654	-0.354522	-0.163463
C104	C	-0.563654	0.145478	0.336537
C105	C	-1.063777	-0.354336	-0.081664
C106	C	-0.563777	0.145664	0.418336
H107	H	-0.494266	-0.269033	-0.269423
H108	H	0.005734	0.230967	0.230577
O109	O	-0.970804	0.221515	-0.261945
O110	O	-0.470804	0.721515	0.238055
C111	C	-0.897457	0.202756	-0.278029
C112	C	-0.397457	0.702756	0.221971
H113	H	-0.895934	0.146958	-0.306315
H114	H	-0.395934	0.646958	0.193685
H115	H	-0.864446	0.200119	-0.224912
H116	H	-0.364446	0.700119	0.275088
H117	H	-0.872682	0.246021	-0.315866
H118	H	-0.372682	0.746021	0.184134
H119	H	-0.633786	-0.440023	-0.439924
H120	H	-0.133786	0.059977	0.060076
O121	O	-0.488237	-0.447467	-0.447216
O122	O	0.011763	0.052533	0.052784
C123	C	-0.443776	-0.494960	-0.405247
C124	C	0.056224	0.005040	0.094753
H125	H	-0.432235	-0.468933	-0.349517
H126	H	0.067765	0.031067	0.150483
H127	H	-0.389744	-0.504863	-0.435214
H128	H	0.110256	-0.004863	0.064786
H129	H	-0.473394	-0.549485	-0.397074
H130	H	0.026606	-0.049485	0.102926
H131	H	-0.978286	0.076126	-0.269287
H132	H	-0.478286	0.576126	0.230713
O133	O	-1.156499	-0.261700	-0.779191
O134	O	-0.656499	0.238300	-0.279191
C135	C	-1.146383	-0.271792	-0.703111
C136	C	-0.646383	0.228208	-0.203111
H137	H	-1.122283	-0.328590	-0.692604
H138	H	-0.622283	0.171410	-0.192604
H139	H	-1.201502	-0.266801	-0.673912
H140	H	-0.701502	0.233199	-0.173912
H141	H	-1.107186	-0.228147	-0.681297
H142	H	-0.607186	0.271853	-0.181297
O143	O	-1.156616	-0.261574	-0.930705
O144	O	-0.656616	0.238426	-0.430705
C145	C	-1.198140	-0.220038	-0.880314
C146	C	-0.698140	0.279962	-0.380314
H147	H	-1.200678	-0.250197	-0.825528
H148	H	-0.700678	0.249803	-0.325528
H149	H	-1.256127	-0.212186	-0.902533
H150	H	-0.756127	0.287814	-0.402533
H151	H	-1.171194	-0.164146	-0.872134
H152	H	-0.671194	0.335854	-0.372134
H153	H	-0.633708	-0.269018	-0.269408
H154	H	-0.133708	0.230982	0.230592
O155	O	-1.156498	0.221726	-0.447426
O156	O	-0.656498	0.721726	0.052574
C157	C	-1.146404	0.297802	-0.437352
C158	C	-0.646404	0.797802	0.062648
H159	H	-1.122286	0.308291	-0.380557
H160	H	-0.622286	0.808291	0.119443
H161	H	-1.201534	0.327004	-0.442349
H162	H	-0.701534	0.827004	0.057651
H163	H	-1.107230	0.319627	-0.481003
H164	H	-0.607230	0.819627	0.018997
O165	O	-1.156573	0.070207	-0.447510
O166	O	-0.656573	0.570207	0.052490
C167	C	-1.198121	0.120605	-0.489074
C168	C	-0.698121	0.620605	0.010926
H169	H	-1.200673	0.175386	-0.458936
H170	H	-0.700673	0.675386	0.041064
H171	H	-1.256101	0.098389	-0.496929
H172	H	-0.756101	0.598389	0.003071
H173	H	-1.171185	0.128794	-0.544963
H174	H	-0.671185	0.628794	-0.044963
O175	O	-0.971034	-0.447131	-0.930890
O176	O	-0.471034	0.052869	-0.430890
C177	C	-0.981125	-0.437011	-1.006969
C178	C	-0.481125	0.062989	-0.506969
H179	H	-1.037923	-0.412910	-1.017479
H180	H	-0.537923	0.087090	-0.517479
H181	H	-0.976135	-0.492129	-1.036175
H182	H	-0.476135	0.007871	-0.536175
H183	H	-0.937479	-0.397814	-1.028773
H184	H	-0.437479	0.102186	-0.528773
H185	H	-0.978332	-0.439795	-0.785304
H186	H	-0.478332	0.060205	-0.285304
