data_functionalizedCrystal
_audit_creation_method	'MofGen! by Chris Wilmer'
_symmetry_space_group_name_H-M	'P1'
_symmetry_Int_Tables_number	1
_symmetry_cell_setting	triclinic
loop_
_symmetry_equiv_pos_as_xyz
  x,y,z
_cell_length_a	34.571875
_cell_length_b	34.571051
_cell_length_c	34.567439
_cell_angle_alpha	60.004367
_cell_angle_beta	60.008842
_cell_angle_gamma	59.994195
loop_
_atom_site_label
_atom_site_type_symbol
_atom_site_fract_x
_atom_site_fract_y
_atom_site_fract_z
O1	O	0.053721	-0.565181	0.472559
O2	O	0.020283	-0.440038	0.380761
O3	O	0.099534	-0.519209	0.380676
O4	O	-0.025530	-0.486010	0.472643
O5	O	0.125831	-0.492917	0.406885
O6	O	0.046580	-0.413746	0.406969
O7	O	0.080018	-0.538889	0.498767
Zn8	Zn	0.067475	-0.472143	0.457030
Zn9	Zn	0.032827	-0.506784	0.422498
O10	O	0.000767	-0.459718	0.498852
N11	N	0.091122	-0.448505	0.480598
N12	N	0.009184	-0.530426	0.398930
C13	C	0.124402	-0.415465	0.717633
C14	C	0.328327	-0.415388	0.513477
C15	C	0.124221	-0.415437	0.513630
C16	C	0.124201	-0.211364	0.513624
C17	C	0.157075	-0.309853	0.546423
C18	C	0.157084	-0.382601	0.546423
C19	C	0.175289	-0.364414	0.564591
C20	C	0.254624	-0.350722	0.522790
C21	C	0.304220	-0.367243	0.506229
C22	C	0.304249	-0.447494	0.536832
C23	C	0.254655	-0.430972	0.553394
C24	C	0.169014	-0.285043	0.497667
C25	C	0.152454	-0.235444	0.481153
C26	C	0.112020	-0.235469	0.562154
C27	C	0.128580	-0.285068	0.578668
C28	C	0.108321	-0.370634	0.558439
C29	C	0.091776	-0.387168	0.541918
C30	C	0.172754	-0.427637	0.501375
C31	C	0.189301	-0.411103	0.517891
C32	C	0.108399	-0.370649	0.643978
C33	C	0.091911	-0.387197	0.693575
C34	C	0.172928	-0.427676	0.693511
C35	C	0.189415	-0.411128	0.643912
C36	C	0.157149	-0.382613	0.619147
C37	C	0.229844	-0.382585	0.546371
C38	C	0.105624	-0.433333	0.772186
C39	C	0.382878	-0.432925	0.495007
C40	C	0.105380	-0.433313	0.495792
C41	C	0.105683	-0.156808	0.496094
C42	C	-0.023527	-0.563458	0.161535
C43	C	-0.023851	-0.767445	0.365663
C44	C	-0.023821	-0.563448	0.365756
C45	C	-0.227785	-0.563229	0.365355
C46	C	-0.129302	-0.596153	0.332678
C47	C	-0.056593	-0.596234	0.332823
C48	C	-0.074746	-0.614396	0.314578
C49	C	-0.088477	-0.693710	0.356299
C50	C	-0.071982	-0.743310	0.372851
C51	C	0.008266	-0.743392	0.342376
C52	C	-0.008230	-0.693794	0.325823
C53	C	-0.154162	-0.608103	0.381422
C54	C	-0.203757	-0.591517	0.397874
C55	C	-0.203630	-0.551037	0.316836
C56	C	-0.154034	-0.567623	0.300384
C57	C	-0.068543	-0.547475	0.320829
C58	C	-0.052041	-0.530969	0.337421
C59	C	-0.011639	-0.611977	0.377990
C60	C	-0.028141	-0.628485	0.361404
C61	C	-0.068417	-0.547482	0.235199
C62	C	-0.051814	-0.530977	0.185602
C63	C	-0.011349	-0.611990	0.185649
C64	C	-0.027951	-0.628493	0.235248
C65	C	-0.056486	-0.596238	0.260022
C66	C	-0.056602	-0.668955	0.332787
C67	C	-0.005599	-0.544662	0.106983
C68	C	-0.006342	-0.821999	0.384121
C69	C	-0.005979	-0.544649	0.383673
C70	C	-0.282336	-0.544682	0.382817
N71	N	0.427518	-0.448428	0.480350
O72	O	0.589573	-0.456297	0.363634
O73	O	0.589761	-0.548399	0.488643
O74	O	0.589681	-0.548188	0.409364
O75	O	0.589654	-0.456508	0.442913
O76	O	0.510890	-0.521988	0.435708
O77	O	0.510970	-0.522199	0.514987
O78	O	0.510782	-0.430098	0.389978
Zn79	Zn	0.498366	-0.471989	0.456665
Zn80	Zn	0.602177	-0.506508	0.421956
O81	O	0.510862	-0.430308	0.469257
N82	N	0.673025	-0.530068	0.398267
N83	N	0.091092	-0.112167	0.480590
O84	O	-0.025539	0.049976	0.472612
O85	O	0.099472	0.050011	0.380491
O86	O	0.020155	0.049979	0.380751
O87	O	0.053778	0.050009	0.472352
O88	O	0.046458	-0.028818	0.407008
O89	O	0.125775	-0.028785	0.406748
O90	O	0.000764	-0.028821	0.498869
Zn91	Zn	0.067445	-0.041314	0.456977
Zn92	Zn	0.032791	0.062504	0.422382
O93	O	0.080081	-0.028788	0.498609
N94	N	0.009138	0.133358	0.398771
N95	N	0.091421	-0.448552	0.816827
O96	O	0.083469	-0.565164	0.978960
O97	O	-0.008614	-0.440110	0.979002
O98	O	-0.008399	-0.519410	0.978978
O99	O	0.083253	-0.485863	0.978984
O100	O	0.017837	-0.493128	0.900185
O101	O	0.017621	-0.413827	0.900208
O102	O	0.109704	-0.538881	0.900167
Zn103	Zn	0.067828	-0.472181	0.887677
Zn104	Zn	0.033262	-0.506810	0.991491
O105	O	0.109489	-0.459581	0.900191
N106	N	0.009668	-0.530444	1.062341
C107	C	0.030297	-0.411123	0.381218
C108	C	0.128439	-0.509167	0.381113
C109	C	0.070004	-0.567805	0.498310
C110	C	-0.028138	-0.469761	0.498415
C111	C	0.550388	-0.547982	0.517564
C112	C	0.550290	-0.547721	0.419387
C113	C	0.550153	-0.430514	0.361058
C114	C	0.550253	-0.430775	0.459234
C115	C	0.128339	0.010714	0.380902
C116	C	0.030148	0.010577	0.381256
C117	C	-0.028136	0.010574	0.498426
C118	C	0.070089	0.010613	0.498104
C119	C	-0.008178	-0.411214	0.939610
C120	C	-0.007906	-0.509413	0.939566
C121	C	0.109268	-0.567777	0.939558
C122	C	0.109002	-0.469572	0.939586
H123	H	0.082121	-0.347425	0.623816
O124	O	-0.070949	-0.461362	0.532928
C125	C	-0.113273	-0.457084	0.611883
C126	C	-0.064759	-0.466618	0.572842
H127	H	-0.108286	-0.461320	0.644159
H128	H	-0.130320	-0.483374	0.622289
H129	H	-0.137136	-0.419461	0.598087
H130	H	-0.040860	-0.504227	0.586605
H131	H	-0.047750	-0.440299	0.562441
O132	O	0.550147	-0.395999	0.318227
C133	C	0.590876	-0.344160	0.248668
C134	C	0.590937	-0.383238	0.297169
H135	H	0.623856	-0.333837	0.231624
H136	H	0.557904	-0.311843	0.253658
H137	H	0.590837	-0.357895	0.224800
H138	H	0.590993	-0.369547	0.321062
H139	H	0.623906	-0.415547	0.292142
H140	H	-0.018232	-0.668197	0.255455
H141	H	0.138179	-0.603691	0.939539
H142	H	0.077150	-0.603753	0.527142
O143	O	0.021811	-0.368278	0.346760
C144	C	0.017391	-0.325860	0.267855
C145	C	0.027024	-0.374413	0.306833
H146	H	0.021592	-0.330803	0.235569
H147	H	0.043650	-0.308773	0.257439
H148	H	-0.020239	-0.302054	0.281718
H149	H	0.064641	-0.398256	0.293004
H150	H	0.000735	-0.391462	0.317244
O151	O	0.550221	-0.396460	0.467879
C152	C	0.550297	-0.374797	0.524140
C153	C	0.550323	-0.413697	0.514417
H154	H	0.550390	-0.388722	0.561762
H155	H	0.517286	-0.342477	0.519973
H156	H	0.583234	-0.364403	0.497867
H157	H	0.517408	-0.424131	0.540682
H158	H	0.583356	-0.445992	0.518568
H159	H	0.164358	-0.516243	0.352233
O160	O	0.143343	-0.461062	0.939664
C161	C	0.195069	-0.483869	0.980452
C162	C	0.156172	-0.493552	0.980429
H163	H	0.205460	-0.510138	1.013403
H164	H	0.181191	-0.446236	0.980493
H165	H	0.227379	-0.488086	0.947454
H166	H	0.123849	-0.489362	1.013421
H167	H	0.170088	-0.531181	0.980364
O168	O	0.171098	0.011011	0.346356
C169	C	0.249024	0.011399	0.324171
C170	C	0.200618	0.011074	0.363331
H171	H	0.272907	0.011440	0.337884
H172	H	0.243862	0.044456	0.291967
H173	H	0.266148	-0.021496	0.313679
H174	H	0.183467	0.043947	0.373863
H175	H	0.205810	-0.022004	0.395510
O176	O	-0.096204	-0.516161	0.259281
C177	C	-0.171735	-0.487751	0.315199
C178	C	-0.140323	-0.523238	0.287950
H179	H	-0.207408	-0.493467	0.338392
H180	H	-0.177449	-0.450059	0.288954
H181	H	-0.153586	-0.493475	0.338448
H182	H	-0.158445	-0.517557	0.264701
H183	H	-0.134608	-0.560917	0.314221
O184	O	0.078629	0.010701	0.532425
C185	C	0.055864	0.051508	0.584118
C186	C	0.046146	0.051473	0.545244
H187	H	0.029601	0.084463	0.594501
H188	H	0.093495	0.051550	0.570220
H189	H	0.051671	0.018512	0.616439
H190	H	0.050313	0.084463	0.512910
H191	H	0.008519	0.051406	0.559180
H192	H	0.550436	-0.576894	0.553469
H193	H	0.550303	-0.576522	0.412207
H194	H	0.022945	0.010574	0.352477
O195	O	-0.042655	-0.368348	0.939540
C196	C	-0.094498	-0.298825	0.898752
C197	C	-0.055447	-0.347356	0.898768
H198	H	-0.104859	-0.281843	0.865796
H199	H	-0.080786	-0.274903	0.898727
H200	H	-0.126786	-0.303816	0.931745
H201	H	-0.023146	-0.342409	0.865781
H202	H	-0.069198	-0.371261	0.898817
O203	O	-0.042227	-0.518035	0.939586
C204	C	-0.092050	-0.566084	0.980353
C205	C	-0.053172	-0.556377	0.980382
H206	H	-0.100918	-0.597077	1.013338
H207	H	-0.078913	-0.575129	0.947383
H208	H	-0.125127	-0.533205	0.980329
H209	H	-0.020082	-0.589240	0.980423
H210	H	-0.066348	-0.547313	1.013349
O211	O	0.044536	-0.375505	0.717618
C212	C	-0.034079	-0.333622	0.712442
C213	C	0.019558	-0.346819	0.685154
H214	H	-0.054290	-0.310436	0.686207
H215	H	-0.043849	-0.313406	0.735649
H216	H	-0.043806	-0.367290	0.735678
H217	H	0.029324	-0.313176	0.661892
H218	H	0.029299	-0.367054	0.661977
H219	H	-0.064037	0.010563	0.527345
H220	H	0.199204	-0.450885	0.713670
H221	H	0.229113	-0.420876	0.623698
H222	H	0.052069	-0.377412	0.551692
O223	O	0.077005	-0.342878	0.586082
C224	C	0.012802	-0.269904	0.592474
C225	C	0.048249	-0.301284	0.561114
H226	H	-0.010463	-0.236273	0.572304
H227	H	0.032978	-0.260102	0.602210
H228	H	-0.010372	-0.290126	0.626144
H229	H	0.071433	-0.281091	0.527425
H230	H	0.028045	-0.311088	0.551416
O231	O	0.204076	-0.455251	0.473592
C232	C	0.268223	-0.461556	0.400579
C233	C	0.232765	-0.430233	0.431996
H234	H	0.291434	-0.441345	0.366946
H235	H	0.248058	-0.471314	0.390787
H236	H	0.291451	-0.495216	0.420768
H237	H	0.209528	-0.396553	0.411836
H238	H	0.252959	-0.420513	0.441790
O239	O	0.230655	-0.461987	0.576272
C240	C	0.235920	-0.543333	0.604899
C241	C	0.263158	-0.508259	0.578972
H242	H	0.262187	-0.580753	0.607099
H243	H	0.212689	-0.533415	0.584642
H244	H	0.212715	-0.541798	0.642184
H245	H	0.286389	-0.509776	0.541687
H246	H	0.286360	-0.518189	0.599265
H247	H	0.324452	-0.486894	0.542541
O248	O	0.328270	-0.336260	0.483250
C249	C	0.343366	-0.267483	0.416415
C250	C	0.316107	-0.302545	0.442386
H251	H	0.333534	-0.240210	0.383378
H252	H	0.383081	-0.287574	0.405746
H253	H	0.333637	-0.248689	0.440920
H254	H	0.325797	-0.321349	0.417909
H255	H	0.276399	-0.282429	0.453063
O256	O	0.196669	-0.309047	0.466282
C257	C	0.235039	-0.303786	0.384196
C258	C	0.203709	-0.276543	0.419689
H259	H	0.240749	-0.277519	0.346517
H260	H	0.216875	-0.327000	0.389891
H261	H	0.270720	-0.327011	0.389908
H262	H	0.168023	-0.253292	0.413998
H263	H	0.221910	-0.253358	0.413984
O264	O	0.163968	-0.211318	0.433793
C265	C	0.135400	-0.155287	0.368167
C266	C	0.122294	-0.182588	0.421805
H267	H	0.101715	-0.132045	0.358460
H268	H	0.158588	-0.181499	0.347932
H269	H	0.155605	-0.132080	0.358406
H270	H	0.102073	-0.205796	0.431610
H271	H	0.099129	-0.156350	0.442010
O272	O	0.084332	-0.211463	0.593539
C273	C	0.046012	-0.216721	0.675624
C274	C	0.077363	-0.243965	0.640133
H275	H	0.040376	-0.242987	0.713304
H276	H	0.010299	-0.193524	0.669979
H277	H	0.064182	-0.193477	0.669861
H278	H	0.059235	-0.267234	0.645875
H279	H	0.113074	-0.267132	0.645788
O280	O	-0.063473	-0.483597	0.161568
C281	C	-0.105347	-0.404987	0.166760
C282	C	-0.092189	-0.458631	0.194039
H283	H	-0.128557	-0.384786	0.193002
H284	H	-0.125524	-0.395182	0.143500
H285	H	-0.071668	-0.395278	0.143579
H286	H	-0.125843	-0.468378	0.217247
H287	H	-0.071994	-0.468406	0.217270
O288	O	0.016374	-0.643388	0.161660
C289	C	0.054723	-0.725486	0.166949
C290	C	0.023331	-0.689978	0.194174
H291	H	0.060349	-0.763161	0.193224
H292	H	0.090438	-0.719854	0.143796
H293	H	0.036592	-0.719725	0.143664
H294	H	0.041419	-0.695718	0.217485
H295	H	-0.012382	-0.695619	0.217297
O296	O	0.230473	-0.303738	0.516053
C297	C	0.174517	-0.243730	0.552612
C298	C	0.201831	-0.296954	0.560310
H299	H	0.151361	-0.238227	0.588389
H300	H	0.151240	-0.229752	0.530852
H301	H	0.200760	-0.223804	0.532892
H302	H	0.175622	-0.316919	0.580043
H303	H	0.225115	-0.310895	0.582051
H304	H	-0.091707	-0.521211	0.297556
H305	H	-0.061773	-0.491265	0.327657
O306	O	0.015980	-0.643371	0.405762
C307	C	0.054337	-0.725467	0.444223
C308	C	0.023047	-0.689963	0.412776
H309	H	0.060069	-0.763144	0.449895
H310	H	0.036127	-0.719770	0.479914
H311	H	0.090010	-0.719765	0.426111
H312	H	-0.012631	-0.695644	0.430846
H313	H	0.041294	-0.695668	0.377086
O314	O	0.022796	-0.669818	0.303011
C315	C	0.104137	-0.675136	0.274506
C316	C	0.069050	-0.702346	0.300360
H317	H	0.141542	-0.701423	0.272346
H318	H	0.094197	-0.651923	0.294792
H319	H	0.102648	-0.651911	0.237207
H320	H	0.070521	-0.725597	0.337660
H321	H	0.079002	-0.725529	0.280038
H322	H	0.229008	-0.420842	0.508101
H323	H	0.118851	-0.305270	0.618371
H324	H	0.047655	-0.763617	0.336709
O325	O	-0.103020	-0.767285	0.395756
C326	C	-0.184371	-0.761971	0.424343
C327	C	-0.149268	-0.734759	0.398369
H328	H	-0.221770	-0.735685	0.426455
H329	H	-0.182904	-0.785139	0.461658
H330	H	-0.174417	-0.785241	0.404112
H331	H	-0.159198	-0.711463	0.418560
H332	H	-0.150741	-0.711621	0.361051
H333	H	-0.018411	-0.668189	0.371171
H334	H	-0.134026	-0.631339	0.407719
O335	O	-0.135445	-0.669525	0.362972
C336	C	-0.195362	-0.613501	0.326302
C337	C	-0.142157	-0.640857	0.318682
H338	H	-0.200807	-0.590323	0.290500
H339	H	-0.209362	-0.590237	0.348082
H340	H	-0.215309	-0.639719	0.345970
H341	H	-0.122171	-0.614673	0.299002
H342	H	-0.128194	-0.664128	0.296921
H343	H	-0.223999	-0.601245	0.437568
H344	H	-0.133793	-0.557888	0.260690
O345	O	-0.227585	-0.523315	0.285403
C346	C	-0.222227	-0.484953	0.203287
C347	C	-0.195040	-0.516342	0.238833
H348	H	-0.195926	-0.479314	0.165627
H349	H	-0.245422	-0.449241	0.208935
H350	H	-0.245463	-0.503095	0.208989
H351	H	-0.171778	-0.498242	0.233153
H352	H	-0.171875	-0.552053	0.233175
