data_functionalizedCrystal
_audit_creation_method	'MofGen! by Chris Wilmer'
_symmetry_space_group_name_H-M	'P1'
_symmetry_Int_Tables_number	1
_symmetry_cell_setting	triclinic
loop_
_symmetry_equiv_pos_as_xyz
  x,y,z
_cell_length_a	10.686220
_cell_length_b	13.032721
_cell_length_c	10.685880
_cell_angle_alpha	102.020524
_cell_angle_beta	89.641569
_cell_angle_gamma	100.973619
loop_
_atom_site_label
_atom_site_type_symbol
_atom_site_fract_x
_atom_site_fract_y
_atom_site_fract_z
Zn1	Zn	1.925388	-0.332655	-0.616943
Zn2	Zn	1.885824	-0.498367	-0.434375
Zn3	Zn	1.699211	-0.334827	-0.423622
Zn4	Zn	1.688425	-0.525454	-0.664590
O5	O	1.799712	-0.422826	-0.534883
O6	O	2.097407	-0.342392	-0.577285
O7	O	1.849025	-0.466246	-0.255697
O8	O	1.750286	-0.185410	-0.424826
O9	O	2.068340	-0.464140	-0.443153
O10	O	1.916457	-0.183815	-0.566858
O11	O	1.711922	-0.346094	-0.247797
O12	O	1.520513	-0.372359	-0.471027
O13	O	1.731902	-0.510306	-0.835522
O14	O	1.512588	-0.512411	-0.648066
O15	O	1.905998	-0.368657	-0.800515
O16	O	1.838566	-0.651089	-0.489354
O17	O	1.693538	-0.670989	-0.658492
C18	C	1.470587	-0.445561	-0.563551
C19	C	1.329784	-0.455315	-0.575850
C20	C	1.760624	-0.699705	-0.580285
C21	C	1.744021	-0.818150	-0.599741
C22	C	1.808448	-0.861074	-0.524780
C23	C	1.791290	-0.983493	-0.544886
C24	C	2.130122	-0.400002	-0.506103
C25	C	2.270923	-0.390277	-0.493839
C26	C	1.822160	-0.442261	-0.865263
C27	C	1.831726	-0.450543	-1.006051
C28	C	1.838988	-0.144864	-0.489328
C29	C	1.855726	-0.026413	-0.469915
C30	C	1.777435	-0.403384	-0.205769
C31	C	1.768157	-0.394785	-0.064911
H32	H	1.876315	-0.807196	-0.445721
C33	C	1.907841	-0.975084	-0.244469
C34	C	1.947348	-0.953696	-0.363172
H35	H	1.964410	-0.930195	-0.178575
H36	H	1.824014	-0.961744	-0.230326
H37	H	1.908327	-1.047815	-0.243998
H38	H	1.946852	-0.880967	-0.363647
H39	H	2.031197	-0.967027	-0.377318
H40	H	1.328249	-0.327134	-0.414217
H41	H	1.676166	-0.872031	-0.678807
C42	C	2.010056	-0.462234	-1.142532
C43	C	1.915102	-0.523542	-1.083414
H44	H	2.061532	-0.507300	-1.190283
H45	H	1.971455	-0.428380	-1.198322
H46	H	2.061590	-0.409454	-1.079076
H47	H	1.863562	-0.576318	-1.146870
H48	H	1.953705	-0.557413	-1.027619
C49	C	1.589846	-0.383093	-0.928418
C50	C	1.684794	-0.321787	-0.987544
H51	H	1.538387	-0.338023	-0.880644
H52	H	1.538303	-0.435859	-0.991860
H53	H	1.628458	-0.416960	-0.872636
H54	H	1.646181	-0.287926	-1.043334
H55	H	1.736343	-0.269001	-0.924094
H56	H	1.272450	-0.518468	-0.655470
C57	C	1.700404	-1.163413	-0.650884
C58	C	1.699670	-1.056217	-0.651626
H59	H	1.643837	-1.208308	-0.716775
H60	H	1.784237	-1.176734	-0.665036
H61	H	1.673614	-1.177897	-0.570339
H62	H	1.726469	-1.041730	-0.732168
H63	H	1.615819	-1.042890	-0.637483
