data_functionalizedCrystal
_audit_creation_method	'MofGen! by Chris Wilmer'
_symmetry_space_group_name_H-M	'P1'
_symmetry_Int_Tables_number	1
_symmetry_cell_setting	triclinic
loop_
_symmetry_equiv_pos_as_xyz
  x,y,z
_cell_length_a	18.050590
_cell_length_b	29.839131
_cell_length_c	18.050583
_cell_angle_alpha	89.964638
_cell_angle_beta	89.997453
_cell_angle_gamma	90.030587
loop_
_atom_site_label
_atom_site_type_symbol
_atom_site_fract_x
_atom_site_fract_y
_atom_site_fract_z
Zn1	Zn	1.135249	-0.178968	-0.419587
Zn2	Zn	1.135123	-0.254103	-0.295390
Zn3	Zn	1.011061	-0.178974	-0.295445
Zn4	Zn	1.010987	-0.254057	-0.419573
O5	O	1.073105	-0.216526	-0.357499
O6	O	1.239157	-0.188952	-0.403095
O7	O	1.118645	-0.244159	-0.191473
O8	O	1.027617	-0.116106	-0.311941
O9	O	1.239065	-0.244153	-0.311848
O10	O	1.118858	-0.116102	-0.403147
O11	O	1.027496	-0.188961	-0.191513
O12	O	0.907126	-0.188917	-0.311928
O13	O	1.027492	-0.244075	-0.523499
O14	O	0.907072	-0.244081	-0.403124
O15	O	1.118787	-0.188907	-0.523509
O16	O	1.118573	-0.316964	-0.311835
O17	O	1.027371	-0.316931	-0.403071
C18	C	0.880153	-0.216495	-0.357531
C19	C	0.797607	-0.216493	-0.357562
C20	C	0.598149	-0.246577	-0.407037
C21	C	0.548772	-0.205612	-0.425315
C22	C	0.646477	-0.216518	-0.357526
C23	C	0.548771	-0.257506	-0.339246
C24	C	0.500492	-0.216546	-0.357492
C25	C	0.598187	-0.175531	-0.375840
C26	C	0.598191	-0.227453	-0.289739
C27	C	0.548837	-0.186460	-0.307992
C28	C	0.730575	-0.216502	-0.357547
C29	C	0.416395	-0.216556	-0.357471
C30	C	1.072971	-0.333248	-0.357462
C31	C	1.072981	-0.383183	-0.357471
C32	C	1.120680	-0.692831	-0.310061
C33	C	1.120772	-0.880504	-0.310090
O34	O	1.161221	-0.904773	-0.269752
N35	N	1.073259	-0.903968	-0.357555
C36	C	1.025723	-0.880510	-0.405019
O37	O	0.985318	-0.904774	-0.445396
C38	C	1.025636	-0.692838	-0.404993
C39	C	1.073146	-0.669377	-0.357520
C40	C	1.168188	-0.669369	-0.262593
C41	C	1.168162	-0.622454	-0.262583
C42	C	1.120628	-0.599000	-0.310042
C43	C	1.073120	-0.622461	-0.357511
C44	C	0.978104	-0.669382	-0.452461
C45	C	0.978088	-0.622461	-0.452451
C46	C	1.025599	-0.598999	-0.404978
C47	C	1.025560	-0.552092	-0.404960
N48	N	1.073073	-0.528628	-0.357495
C49	C	1.120607	-0.552082	-0.310036
C50	C	1.025771	-0.979041	-0.405028
C51	C	1.025792	-1.025959	-0.405033
C52	C	1.120842	-1.025949	-0.310105
C53	C	1.120817	-0.979030	-0.310097
C54	C	1.073284	-0.955577	-0.357563
C55	C	1.120548	-0.453556	-0.310019
C56	C	1.120515	-0.406637	-0.310012
C57	C	1.025468	-0.406650	-0.404942
C58	C	1.025498	-0.453566	-0.404947
C59	C	1.073044	-0.477018	-0.357484
O60	O	0.985138	-0.527794	-0.445282
O61	O	1.161018	-0.527810	-0.269677
C62	C	1.120707	-0.739746	-0.310071
C63	C	1.073199	-0.763208	-0.357539
C64	C	1.025665	-0.739754	-0.404998
C65	C	1.073220	-0.810126	-0.357545
C66	C	1.120754	-0.833580	-0.310086
C67	C	1.168267	-0.810116	-0.262621
C68	C	1.168240	-0.763200	-0.262612
C69	C	0.978152	-0.763217	-0.452463
C70	C	0.978182	-0.810133	-0.452468
C71	C	1.025715	-0.833587	-0.405009
C72	C	1.266810	-0.216557	-0.357467
C73	C	1.349356	-0.216570	-0.357453
C74	C	1.073145	-0.216485	-0.551204
C75	C	1.073162	-0.216468	-0.633750
C76	C	1.073260	-0.099347	-0.357552
C77	C	1.073326	-0.049413	-0.357574
C78	C	1.122855	-0.186438	-0.882581
C79	C	1.140961	-0.227432	-0.833159
C80	C	1.073210	-0.216440	-0.930871
C81	C	1.055115	-0.175462	-0.833211
C82	C	1.073189	-0.216452	-0.784885
C83	C	1.091352	-0.257456	-0.882535
C84	C	1.005475	-0.205458	-0.882592
C85	C	1.023555	-0.246481	-0.833192
C86	C	1.073225	-0.216432	-1.014969
C87	C	1.073174	-0.216464	-0.700789
C88	C	1.073108	-0.216533	-0.164547
C89	C	1.073234	-0.216424	-0.082001
H90	H	0.527065	-0.196372	-0.482627
O91	O	0.931950	-0.599727	-0.498665
C92	C	0.948162	-0.611144	-0.572694
H93	H	0.976728	-0.645194	-0.574253
H94	H	0.894548	-0.612763	-0.605965
H95	H	0.986317	-0.584708	-0.597725
H96	H	1.206968	-0.829220	-0.223977
O97	O	1.173085	-0.156252	-0.908424
C98	C	1.244413	-0.168002	-0.883218
H99	H	1.245764	-0.205267	-0.869334
H100	H	1.286795	-0.160512	-0.928391
H101	H	1.258357	-0.147728	-0.831550
H102	H	1.206928	-0.744101	-0.223955
O103	O	1.214356	-0.599616	-0.216577
C104	C	1.262298	-0.572445	-0.258887
H105	H	1.236065	-0.565401	-0.315147
H106	H	1.272262	-0.539463	-0.228635
H107	H	1.317333	-0.590500	-0.267092
H108	H	0.939486	-0.829231	-0.491126
O109	O	0.973544	-0.276849	-0.807512
C110	C	0.992875	-0.319984	-0.832795
H111	H	1.054491	-0.320846	-0.846578
H112	H	0.980372	-0.345668	-0.787709
H113	H	0.959395	-0.328319	-0.884541
H114	H	1.039821	-0.140803	-0.811542
H115	H	0.948219	-0.196149	-0.904323
O116	O	0.979321	-0.476290	-0.451129
C117	C	0.937346	-0.445525	-0.492999
H118	H	0.967741	-0.412062	-0.495575
H119	H	0.929401	-0.459055	-0.551513
H120	H	0.880954	-0.440581	-0.465769
O121	O	0.931901	-0.740507	-0.498587
C122	C	0.889989	-0.771283	-0.540489
H123	H	0.887467	-0.804742	-0.510072
H124	H	0.831459	-0.757760	-0.548365
H125	H	0.917148	-0.776233	-0.596914
H126	H	0.619803	-0.271952	-0.448954
O127	O	0.522833	-0.298855	-0.320942
C128	C	0.478746	-0.315534	-0.379221
H129	H	0.494828	-0.298177	-0.433157
H130	H	0.487891	-0.353174	-0.384903
H131	H	0.417870	-0.308737	-0.366728
O132	O	0.979406	-0.383841	-0.451123
C133	C	1.021660	-0.356652	-0.499088
H134	H	1.080151	-0.370766	-0.503710
H135	H	0.994774	-0.356101	-0.556227
H136	H	1.024221	-0.321104	-0.476115
O137	O	1.209338	-0.238510	-0.807376
C138	C	1.257470	-0.245898	-0.867659
H139	H	1.235634	-0.227519	-0.918549
H140	H	1.315064	-0.232813	-0.853357
H141	H	1.260632	-0.283335	-0.879818
H142	H	0.527321	-0.161023	-0.266108
O143	O	0.624092	-0.134212	-0.394371
C144	C	0.702197	-0.134698	-0.394177
H145	H	0.722627	-0.170500	-0.402333
H146	H	0.723764	-0.112676	-0.441096
H147	H	0.723358	-0.121310	-0.338948
H148	H	0.619915	-0.236705	-0.232444
H149	H	1.106730	-0.292122	-0.904112
H150	H	1.206900	-0.688461	-0.223946
H151	H	1.159266	-0.472645	-0.271372
O152	O	1.166635	-0.383896	-0.263793
C153	C	1.150444	-0.395396	-0.189767
H154	H	1.121912	-0.429477	-0.188218
H155	H	1.204063	-0.396991	-0.156502
H156	H	1.112265	-0.369021	-0.164720
O157	O	1.167041	-0.956311	-0.263961
C158	C	1.208980	-0.987079	-0.222061
H159	H	1.211544	-1.020509	-0.252489
H160	H	1.267494	-0.973502	-0.214171
H161	H	1.181818	-0.992106	-0.165642
H162	H	1.159546	-1.045053	-0.271463
H163	H	0.987097	-1.045057	-0.443684
O164	O	0.979519	-0.956331	-0.451158
C165	C	0.937604	-0.987107	-0.493057
H166	H	0.935078	-1.020564	-0.462635
H167	H	0.879075	-0.973583	-0.500935
H168	H	0.964762	-0.992061	-0.549481
H169	H	0.939412	-0.688476	-0.491115
