data_functionalizedCrystal
_audit_creation_method	'MofGen! by Chris Wilmer'
_symmetry_space_group_name_H-M	'P1'
_symmetry_Int_Tables_number	1
_symmetry_cell_setting	triclinic
loop_
_symmetry_equiv_pos_as_xyz
  x,y,z
_cell_length_a	19.077105
_cell_length_b	19.121063
_cell_length_c	19.076919
_cell_angle_alpha	94.606347
_cell_angle_beta	90.076224
_cell_angle_gamma	90.263052
loop_
_atom_site_label
_atom_site_type_symbol
_atom_site_fract_x
_atom_site_fract_y
_atom_site_fract_z
Zn1	Zn	1.043169	-0.339734	-0.454309
Zn2	Zn	1.042790	-0.452646	-0.341419
Zn3	Zn	0.930805	-0.330327	-0.331718
Zn4	Zn	0.920631	-0.452222	-0.454155
O5	O	0.984349	-0.393732	-0.395400
O6	O	1.141268	-0.358826	-0.443459
O7	O	1.032035	-0.432660	-0.241647
O8	O	0.950127	-0.233307	-0.343985
O9	O	1.140989	-0.441782	-0.360519
O10	O	1.032681	-0.240219	-0.434052
O11	O	0.949760	-0.342793	-0.234520
O12	O	0.831307	-0.342382	-0.343835
O13	O	0.932786	-0.441060	-0.552660
O14	O	0.823831	-0.431938	-0.433788
O15	O	1.022815	-0.358416	-0.552774
O16	O	1.022169	-0.550857	-0.360369
O17	O	0.932419	-0.550546	-0.443195
C18	C	0.802120	-0.386094	-0.387742
C19	C	0.724160	-0.382844	-0.384484
C20	C	0.683661	-0.428009	-0.429719
C21	C	0.610410	-0.424946	-0.426660
C22	C	0.577659	-0.376721	-0.378362
C23	C	0.618164	-0.331551	-0.333125
C24	C	0.691414	-0.334611	-0.336188
C25	C	0.359002	-0.362559	-0.364190
C26	C	0.285746	-0.359503	-0.361130
C27	C	0.277998	-0.452898	-0.454666
C28	C	0.351249	-0.455957	-0.457722
C29	C	0.391747	-0.410784	-0.412487
N30	N	0.502785	-0.373590	-0.375233
N31	N	0.466620	-0.413912	-0.415620
C32	C	0.976167	-0.576182	-0.402834
C33	C	0.972730	-0.654239	-0.406041
C34	C	1.017877	-0.691052	-0.364463
C35	C	1.014648	-0.764395	-0.367483
C36	C	0.966269	-0.800923	-0.412078
C37	C	0.921120	-0.764105	-0.453660
C38	C	0.924353	-0.690764	-0.450644
C39	C	0.954173	-1.022359	-0.423346
C40	C	0.950942	-1.095705	-0.426358
C41	C	1.044471	-1.095990	-0.340181
C42	C	1.047697	-1.022647	-0.337165
C43	C	1.002551	-0.985836	-0.378750
C44	C	0.962966	-0.875891	-0.415164
C45	C	1.005857	-0.910869	-0.375667
C46	C	1.167289	-0.401401	-0.403088
C47	C	1.245247	-0.404669	-0.406365
C48	C	0.976708	-0.400740	-0.578967
C49	C	0.973452	-0.403726	-0.657192
C50	C	0.992581	-0.210571	-0.387953
C51	C	0.996089	-0.132518	-0.384780
C52	C	1.018793	-0.362103	-0.694003
C53	C	1.015725	-0.364906	-0.767503
C54	C	0.967319	-0.409336	-0.804192
C55	C	0.921973	-0.450962	-0.767376
C56	C	0.925038	-0.448154	-0.693877
C57	C	0.953123	-0.422342	-1.024005
C58	C	0.950063	-0.425148	-1.097510
C59	C	1.043814	-0.339090	-1.097632
C60	C	1.046877	-0.336290	-1.024131
C61	C	1.001529	-0.377913	-0.987321
N62	N	0.964183	-0.412204	-0.879321
N63	N	1.004662	-0.375041	-0.912193
C64	C	0.992003	-0.386702	-0.212547
C65	C	0.995403	-0.383524	-0.134320
H66	H	0.377909	-0.495228	-0.497049
H67	H	0.916207	-0.456245	-0.994044
H68	H	0.881732	-0.793853	-0.489974
H69	H	0.591493	-0.292282	-0.293803
H70	H	0.911554	-1.125446	-0.462685
H71	H	1.081228	-1.125969	-0.306326
H72	H	0.882558	-0.487135	-0.797254
O73	O	0.402684	-0.313848	-0.315402
H74	H	0.436140	-0.345254	-0.282227
O75	O	1.099087	-0.288365	-0.984565
H76	H	1.093605	-0.293412	-0.927272
O77	O	0.566796	-0.473792	-0.475383
H78	H	0.579088	-0.464637	-0.530768
O79	O	0.735095	-0.285903	-0.287389
H80	H	0.722997	-0.230684	-0.296709
O81	O	1.064631	-0.320012	-0.807205
H82	H	1.097499	-0.354219	-0.843476
H83	H	0.923575	-0.905641	-0.451472
H84	H	1.080733	-0.305203	-1.127610
O85	O	1.070060	-0.651654	-0.316367
H86	H	1.100916	-0.689578	-0.287969
O87	O	0.876127	-0.493038	-0.654167
H88	H	0.841952	-0.524406	-0.692026
O89	O	0.875652	-0.651062	-0.495487
H90	H	0.906996	-0.620292	-0.531267
O91	O	0.234341	-0.501634	-0.503458
H92	H	0.200888	-0.470257	-0.536664
O93	O	0.897847	-0.473066	-1.137085
H94	H	0.866823	-0.501532	-1.099141
O95	O	0.250418	-0.307482	-0.309040
H96	H	0.290884	-0.276579	-0.278104
H97	H	0.710321	-0.467281	-0.469046
H98	H	1.051411	-0.794364	-0.333625
H99	H	1.087091	-0.992907	-0.300852
H100	H	0.917412	-0.992393	-0.457205
O101	O	1.058045	-0.871472	-0.327581
H102	H	1.029646	-0.835417	-0.289058
O103	O	1.071002	-0.314181	-0.654432
H104	H	1.102010	-0.285704	-0.692380
