data_functionalizedCrystal
_audit_creation_method	'MofGen! by Chris Wilmer'
_symmetry_space_group_name_H-M	'P1'
_symmetry_Int_Tables_number	1
_symmetry_cell_setting	triclinic
loop_
_symmetry_equiv_pos_as_xyz
  x,y,z
_cell_length_a	12.837943
_cell_length_b	15.944551
_cell_length_c	11.892095
_cell_angle_alpha	93.888509
_cell_angle_beta	85.689438
_cell_angle_gamma	89.163839
loop_
_atom_site_label
_atom_site_type_symbol
_atom_site_fract_x
_atom_site_fract_y
_atom_site_fract_z
O1	O	1.382096	0.213524	-0.093988
O2	O	1.080290	0.202737	-0.093995
O3	O	1.239434	0.086515	-0.093981
O4	O	1.222952	0.329745	-0.094002
O5	O	1.226164	0.096189	0.094025
O6	O	1.067021	0.212411	0.094012
O7	O	1.368826	0.223198	0.094018
Zn8	Zn	1.215817	0.219340	0.123865
Zn9	Zn	1.233299	0.206594	-0.123842
O10	O	1.209683	0.339419	0.094005
C11	C	1.035034	0.203930	0.000008
C12	C	0.919957	0.193062	0.000006
C13	C	0.679007	0.323714	0.000011
C14	C	0.570881	0.313507	0.000010
C15	C	0.595575	0.162440	0.000010
C16	C	0.703701	0.172648	0.000012
C17	C	0.745413	0.253287	0.000010
C18	C	0.853542	0.263494	0.000003
C19	C	0.878234	0.112428	0.000012
C20	C	0.770107	0.102221	0.000011
C21	C	1.232115	0.060004	0.000022
C22	C	1.230063	-0.033407	0.000023
C23	C	1.126515	-0.256548	0.000005
C24	C	1.168058	-0.308949	0.092705
C25	C	1.226352	-0.204430	0.000014
C26	C	1.181163	-0.318468	-0.092655
C27	C	1.222761	-0.369631	0.000001
C28	C	1.267917	-0.255596	0.092790
C29	C	1.281014	-0.265115	-0.092653
C30	C	1.322628	-0.317491	0.000069
C31	C	1.228418	-0.109262	0.000023
C32	C	1.220702	-0.464796	0.000000
C33	C	1.414082	0.222005	0.000013
C34	C	1.529160	0.232872	0.000008
C35	C	1.217002	0.365931	-0.000001
C36	C	1.219054	0.459340	-0.000009
N37	N	1.203893	0.228039	0.292918
N38	N	1.245231	0.197890	-0.292895
C39	C	1.328203	0.137313	0.529576
C40	C	1.319876	0.143400	0.647918
C41	C	1.178907	0.246295	0.647944
C42	C	1.187234	0.240208	0.529603
C43	C	1.261886	0.185716	0.470423
C44	C	1.270217	0.179634	0.352080
C45	C	1.129244	0.282524	0.352108
C46	C	1.120917	0.288611	0.470449
H47	H	0.932315	0.055081	0.000004
C48	C	1.038797	0.348542	0.535560
N49	N	0.976942	0.393684	0.584600
H50	H	1.043639	-0.229864	0.000096
H51	H	1.075247	0.321940	0.303932
C52	C	1.345485	-0.238804	-0.198531
N53	N	1.394037	-0.218985	-0.278289
C54	C	1.131567	-0.355616	-0.198527
N55	N	1.094203	-0.383591	-0.278266
H56	H	1.120299	-0.328402	0.171073
C57	C	1.392827	0.090149	0.712982
N58	N	1.447776	0.050037	0.761989
C59	C	1.434670	-0.353328	0.000145
N60	N	1.519057	-0.380324	0.000209
C61	C	0.899423	0.352198	0.000007
N62	N	0.933977	0.419013	0.000015
H63	H	1.388994	0.092949	0.481392
C64	C	1.096772	0.306209	0.713062
N65	N	1.034901	0.351331	0.762110
H66	H	1.331005	0.135266	0.303897
C67	C	0.724893	0.412417	0.000002
N68	N	0.759453	0.479230	-0.000004
H69	H	0.516815	0.370856	0.000013
H70	H	0.736129	0.036567	0.000025
C71	C	0.549671	0.073744	0.000024
N72	N	0.515094	0.006937	0.000036
C73	C	1.317431	-0.218579	0.198785
N74	N	1.354720	-0.190696	0.278621
