data_functionalizedCrystal
_audit_creation_method	'MofGen! by Chris Wilmer'
_symmetry_space_group_name_H-M	'P1'
_symmetry_Int_Tables_number	1
_symmetry_cell_setting	triclinic
loop_
_symmetry_equiv_pos_as_xyz
  x,y,z
_cell_length_a	16.974800
_cell_length_b	16.992695
_cell_length_c	15.455313
_cell_angle_alpha	92.847427
_cell_angle_beta	90.973911
_cell_angle_gamma	87.021674
loop_
_atom_site_label
_atom_site_type_symbol
_atom_site_fract_x
_atom_site_fract_y
_atom_site_fract_z
O1	O	1.055370	0.099968	0.001980
O2	O	1.388704	0.433301	0.335313
O3	O	1.722037	0.766634	0.668647
O4	O	0.826692	0.111944	-0.014081
O5	O	1.160025	0.445277	0.319253
O6	O	1.493358	0.778610	0.652586
O7	O	0.940114	-0.008189	-0.006108
O8	O	1.273447	0.325145	0.327225
O9	O	1.606781	0.658478	0.660559
O10	O	0.941948	0.220100	-0.005993
O11	O	1.275281	0.553433	0.327341
O12	O	1.608615	0.886767	0.660674
O13	O	0.933626	-0.001347	0.137698
O14	O	1.266959	0.331986	0.471032
O15	O	1.600293	0.665319	0.804365
O16	O	0.820204	0.118785	0.129725
O17	O	1.153537	0.452118	0.463059
O18	O	1.486871	0.785452	0.796392
O19	O	1.048882	0.106809	0.145786
O20	O	1.382216	0.440142	0.479119
O21	O	1.715549	0.773476	0.812453
Cu22	Cu	0.933951	0.113422	0.150886
Cu23	Cu	1.267284	0.446755	0.484220
Cu24	Cu	1.600617	0.780088	0.817553
Cu25	Cu	0.941623	0.105331	-0.019181
Cu26	Cu	1.274957	0.438664	0.314152
Cu27	Cu	1.608290	0.771998	0.647486
O28	O	0.935460	0.226941	0.137813
O29	O	1.268794	0.560275	0.471147
O30	O	1.602127	0.893608	0.804480
C31	C	0.794052	0.114783	0.055758
C32	C	1.127385	0.448117	0.389091
C33	C	1.460719	0.781450	0.722425
C34	C	0.706461	0.113043	0.049607
C35	C	1.039794	0.446377	0.382940
C36	C	1.373127	0.779710	0.716273
C37	C	0.661778	0.115953	0.125107
C38	C	0.995112	0.449286	0.458441
C39	C	1.328445	0.782620	0.791774
C40	C	0.579478	0.114306	0.119330
C41	C	0.912811	0.447639	0.452663
C42	C	1.246144	0.780972	0.785996
C43	C	0.541861	0.109754	0.038051
C44	C	0.875194	0.443087	0.371384
C45	C	1.208528	0.776421	0.704717
C46	C	0.586550	0.106842	-0.037456
C47	C	0.919883	0.440175	0.295878
C48	C	1.253216	0.773508	0.629211
C49	C	0.668849	0.108483	-0.031677
C50	C	1.002182	0.441817	0.301656
C51	C	1.335516	0.775150	0.634989
C52	C	0.296102	0.104438	0.012363
C53	C	0.629435	0.437772	0.345697
C54	C	0.962768	0.771105	0.679030
C55	C	0.213796	0.102799	0.006591
C56	C	0.547130	0.436132	0.339924
C57	C	0.880463	0.769466	0.673257
C58	C	0.206730	0.110262	0.163377
C59	C	0.540064	0.443595	0.496710
C60	C	0.873397	0.776928	0.830043
C61	C	0.289031	0.111908	0.169148
C62	C	0.622365	0.445241	0.502481
C63	C	0.955698	0.778575	0.835814
C64	C	0.333713	0.108991	0.093642
C65	C	0.667046	0.442325	0.426975
C66	C	1.000380	0.775658	0.760308
N67	N	0.457736	0.108072	0.032143
N68	N	0.791070	0.441406	0.365477
N69	N	1.124403	0.774739	0.698810
N70	N	0.417836	0.110667	0.099550
N71	N	0.751169	0.444001	0.432883
N72	N	1.084503	0.777334	0.766217
C73	C	0.934511	-0.033986	0.065629
C74	C	1.267845	0.299347	0.398963
C75	C	1.601178	0.632681	0.732296
C76	C	0.927474	-0.121046	0.065135
C77	C	1.260807	0.212288	0.398468
C78	C	1.594141	0.545621	0.731802
C79	C	0.995375	-0.171136	0.069905
C80	C	1.328708	0.162197	0.403238
C81	C	1.662041	0.495530	0.736571
C82	C	0.988758	-0.252938	0.069432
C83	C	1.322091	0.080396	0.402765
C84	C	1.655425	0.413729	0.736098
C85	C	0.914240	-0.284647	0.064195
C86	C	1.247573	0.048686	0.397529
C87	C	1.580907	0.382020	0.730862
C88	C	0.846334	-0.234550	0.059423
C89	C	1.179668	0.098783	0.392756
C90	C	1.513001	0.432117	0.726089
C91	C	0.852952	-0.152750	0.059889
C92	C	1.186285	0.180583	0.393223
C93	C	1.519619	0.513916	0.726556
C94	C	0.886813	-0.528306	0.062257
C95	C	1.220146	-0.194972	0.395590
C96	C	1.553479	0.138361	0.728924
C97	C	0.880200	-0.610112	0.061793
C98	C	1.213533	-0.276778	0.395127
C99	C	1.546866	0.056555	0.728460
C100	C	1.022624	-0.628494	0.071801
C101	C	1.355958	-0.295161	0.405134
C102	C	1.689291	0.038173	0.738467
C103	C	1.029235	-0.546692	0.072272
C104	C	1.362569	-0.213358	0.405606
C105	C	1.695902	0.119975	0.738939
C106	C	0.961330	-0.496602	0.067495
C107	C	1.294663	-0.163269	0.400828
C108	C	1.627997	0.170065	0.734162
N109	N	0.907475	-0.368261	0.063714
N110	N	1.240808	-0.034928	0.397048
N111	N	1.574141	0.298406	0.730381
N112	N	0.968096	-0.412990	0.067970
N113	N	1.301429	-0.079657	0.401303
N114	N	1.634763	0.253677	0.734636
C115	C	1.081522	0.103969	0.075945
C116	C	1.414856	0.437302	0.409279
C117	C	1.748189	0.770636	0.742612
C118	C	1.169114	0.105709	0.082091
C119	C	1.502447	0.439042	0.415425
C120	C	1.835780	0.772375	0.748758
C121	C	0.941063	0.252738	0.066074
C122	C	1.274396	0.586072	0.399407
C123	C	1.607729	0.919405	0.732741
C124	C	0.948100	0.339798	0.066563
C125	C	1.281434	0.673131	0.399896
C126	C	1.614767	1.006464	0.733230
N127	N	0.928560	0.119112	0.270503
N128	N	1.261893	0.452445	0.603836
N129	N	1.595227	0.785778	0.937170
N130	N	0.947020	0.099635	-0.138797
N131	N	1.280353	0.432968	0.194536
N132	N	1.613687	0.766301	0.527869
C133	C	0.976765	0.068094	0.319285
C134	C	1.310098	0.401427	0.652619
C135	C	1.643432	0.734761	0.985952
C136	C	0.972696	0.072404	0.409807
C137	C	1.306029	0.405738	0.743141
C138	C	1.639362	0.739071	1.076474
C139	C	0.920425	0.127737	0.451545
C140	C	1.253759	0.461070	0.784879
C141	C	1.587092	0.794403	1.118212
C142	C	0.872215	0.178757	0.402756
C143	C	1.205549	0.512090	0.736089
C144	C	1.538882	0.845423	1.069423
C145	C	0.876281	0.174442	0.312236
C146	C	1.209614	0.507775	0.645569
C147	C	1.542948	0.841109	0.978902
C148	C	0.902875	0.146340	0.721893
C149	C	1.236209	0.479673	1.055226
C150	C	1.569542	0.813006	1.388560
C151	C	0.898815	0.150652	0.812420
C152	C	1.232149	0.483986	1.145754
C153	C	1.565482	0.817319	1.479087
C154	C	0.999295	0.044298	0.819465
C155	C	1.332628	0.377632	1.152799
C156	C	1.665962	0.710965	1.486132
C157	C	1.003359	0.039992	0.728943
C158	C	1.336693	0.373325	1.062276
C159	C	1.670026	0.706658	1.395610
C160	C	0.955146	0.091009	0.680161
C161	C	1.288480	0.424342	1.013495
C162	C	1.621813	0.757676	1.346828
N163	N	0.916267	0.132146	0.544073
N164	N	1.249600	0.465479	0.877407
N165	N	1.582933	0.798812	1.210740
N166	N	0.959302	0.086596	0.587635
N167	N	1.292635	0.419929	0.920968
N168	N	1.625968	0.753262	1.254302
H169	H	0.332472	0.102061	-0.049119
H170	H	0.665805	0.435394	0.284214
H171	H	0.999139	0.768727	0.617547
H172	H	0.863620	0.187881	0.682182
H173	H	1.196953	0.521215	1.015516
H174	H	1.530287	0.854548	1.348849
Cl175	Cl	0.801445	-0.465347	0.056249
Cl176	Cl	1.134778	-0.132014	0.389582
Cl177	Cl	1.468111	0.201320	0.722916
H178	H	1.077909	-0.669285	0.075688
H179	H	1.411242	-0.335952	0.409022
H180	H	1.744576	-0.002619	0.742355
H181	H	0.829652	0.223807	0.436744
H182	H	1.162985	0.557140	0.770077
H183	H	1.496318	0.890474	1.103411
H184	H	0.819515	-0.635925	0.057543
H185	H	1.152848	-0.302592	0.390876
H186	H	1.486181	0.030742	0.724209
H187	H	0.785660	-0.260374	0.055154
H188	H	1.118993	0.072959	0.388487
H189	H	1.452327	0.406292	0.721820
H190	H	0.837026	0.215985	0.272517
H191	H	1.170360	0.549318	0.605851
H192	H	1.503693	0.882652	0.939184
H193	H	0.797660	-0.111967	0.056005
H194	H	1.130993	0.221367	0.389339
H195	H	1.464327	0.554700	0.722672
H196	H	0.543102	0.116662	0.180811
H197	H	0.876435	0.449995	0.514144
H198	H	1.209768	0.783329	0.847477
H199	H	1.045922	-0.005064	0.694962
H200	H	1.379255	0.328269	1.028295
H201	H	1.712589	0.661603	1.361629
H202	H	0.692399	0.119666	0.191293
H203	H	1.025733	0.452999	0.524627
H204	H	1.359066	0.786333	0.857960
H205	H	0.555916	0.103130	-0.103635
H206	H	0.889249	0.436463	0.229698
H207	H	1.222582	0.769797	0.563032
Cl208	Cl	1.074123	-0.315906	0.075431
Cl209	Cl	1.407457	0.017427	0.408764
Cl210	Cl	1.740790	0.350761	0.742097
Cl211	Cl	0.150555	0.113924	0.258292
Cl212	Cl	0.483888	0.447257	0.591626
Cl213	Cl	0.817222	0.780591	0.924959
Cl214	Cl	0.336314	0.117636	0.271331
Cl215	Cl	0.669648	0.450969	0.604665
Cl216	Cl	1.002981	0.784302	0.937998
Cl217	Cl	0.166507	0.097079	-0.095597
Cl218	Cl	0.499841	0.430412	0.237737
Cl219	Cl	0.833174	0.763745	0.571070
Cl220	Cl	0.725022	0.104821	-0.126597
Cl221	Cl	1.058355	0.438155	0.206737
Cl222	Cl	1.391688	0.771488	0.540070
Cl223	Cl	1.059899	-0.019836	0.880794
Cl224	Cl	1.393232	0.313497	1.214127
Cl225	Cl	1.726566	0.646830	1.547461
H226	H	1.019332	0.023040	0.285309
H227	H	1.352666	0.356373	0.618642
H228	H	1.685999	0.689707	0.951976
Cl229	Cl	1.033296	0.008266	0.471136
Cl230	Cl	1.366630	0.341600	0.804469
Cl231	Cl	1.699963	0.674933	1.137802
H232	H	0.856248	0.195714	0.846399
H233	H	1.189582	0.529047	1.179732
H234	H	1.522915	0.862380	1.513065
H235	H	1.056055	-0.145325	0.074174
H236	H	1.389388	0.188008	0.407507
H237	H	1.722722	0.521341	0.740841
H238	H	1.089916	-0.520881	0.076536
H239	H	1.423249	-0.187547	0.409870
H240	H	1.756582	0.145786	0.743203
