data_functionalizedCrystal
_audit_creation_method	'MofGen! by Chris Wilmer'
_symmetry_space_group_name_H-M	'P1'
_symmetry_Int_Tables_number	1
_symmetry_cell_setting	triclinic
loop_
_symmetry_equiv_pos_as_xyz
  x,y,z
_cell_length_a	29.839134
_cell_length_b	29.839131
_cell_length_c	29.839125
_cell_angle_alpha	89.982291
_cell_angle_beta	90.012189
_cell_angle_gamma	89.978008
loop_
_atom_site_label
_atom_site_type_symbol
_atom_site_fract_x
_atom_site_fract_y
_atom_site_fract_z
Zn1	Zn	0.686719	0.179149	0.254008
Zn2	Zn	1.020053	0.512483	0.587341
Zn3	Zn	1.353386	0.845816	0.920674
Zn4	Zn	0.686652	0.254261	0.178878
Zn5	Zn	1.019985	0.587595	0.512211
Zn6	Zn	1.353318	0.920928	0.845544
Zn7	Zn	0.611602	0.179121	0.178890
Zn8	Zn	0.944936	0.512454	0.512223
Zn9	Zn	1.278269	0.845787	0.845557
Zn10	Zn	0.611550	0.254227	0.253979
Zn11	Zn	0.944883	0.587561	0.587312
Zn12	Zn	1.278217	0.920894	0.920645
O13	O	0.649131	0.216690	0.216439
O14	O	0.982464	0.550023	0.549772
O15	O	1.315798	0.883356	0.883105
O16	O	0.749578	0.189139	0.244048
O17	O	1.082911	0.522472	0.577382
O18	O	1.416244	0.855806	0.910715
O19	O	0.676690	0.244296	0.116012
O20	O	1.010023	0.577629	0.449345
O21	O	1.343356	0.910962	0.782679
O22	O	0.621617	0.116257	0.188872
O23	O	0.954950	0.449591	0.522205
O24	O	1.288284	0.782924	0.855538
O25	O	0.749528	0.244324	0.188851
O26	O	1.082861	0.577657	0.522184
O27	O	1.416194	0.910990	0.855517
O28	O	0.676805	0.116278	0.244060
O29	O	1.010139	0.449612	0.577394
O30	O	1.343472	0.782945	0.910727
O31	O	0.621551	0.189090	0.116021
O32	O	0.954885	0.522424	0.449355
O33	O	1.288218	0.855757	0.782688
O34	O	0.548728	0.189058	0.188844
O35	O	0.882062	0.522391	0.522177
O36	O	1.215395	0.855724	0.855511
O37	O	0.621528	0.244266	0.316850
O38	O	0.954861	0.577599	0.650183
O39	O	1.288195	0.910933	0.983516
O40	O	0.548690	0.244238	0.244011
O41	O	0.882023	0.577572	0.577345
O42	O	1.215357	0.910905	0.910678
O43	O	0.676755	0.189106	0.316871
O44	O	1.010088	0.522440	0.650204
O45	O	1.343421	0.855773	0.983538
O46	O	0.676639	0.317124	0.188823
O47	O	1.009972	0.650457	0.522156
O48	O	1.343306	0.983791	0.855489
O49	O	0.621462	0.317099	0.243999
O50	O	0.954795	0.650432	0.577333
O51	O	1.288129	0.983766	0.910666
C52	C	0.532408	0.216641	0.216426
C53	C	0.865742	0.549975	0.549759
C54	C	1.199075	0.883308	0.883093
C55	C	0.482474	0.216632	0.216431
C56	C	0.815807	0.549965	0.549765
C57	C	1.149141	0.883298	0.883098
C58	C	0.125909	0.188015	0.245237
C59	C	0.459242	0.521348	0.578570
C60	C	0.792575	0.854682	0.911903
C61	C	0.313582	0.187979	0.245226
C62	C	0.646915	0.521312	0.578559
C63	C	0.980248	0.854645	0.911893
O64	O	0.337865	0.163591	0.269715
O65	O	0.671198	0.496924	0.603049
O66	O	1.004531	0.830257	0.936382
N67	N	0.337029	0.216661	0.216442
N68	N	0.670362	0.549994	0.549775
N69	N	1.003695	0.883328	0.883109
C70	C	0.313555	0.245357	0.187660
C71	C	0.646888	0.578690	0.520994
C72	C	0.980221	0.912023	0.854327
O73	O	0.337804	0.269755	0.163181
O74	O	0.671138	0.603088	0.496514
O75	O	1.004471	0.936422	0.829847
C76	C	0.125883	0.245395	0.187673
C77	C	0.459216	0.578728	0.521007
C78	C	0.792549	0.912061	0.854340
C79	C	0.102438	0.216707	0.216456
C80	C	0.435771	0.550041	0.549790
C81	C	0.769104	0.883374	0.883123
C82	C	0.102464	0.159330	0.274017
C83	C	0.435797	0.492664	0.607351
C84	C	0.769130	0.825997	0.940684
C85	C	0.055548	0.159338	0.274018
C86	C	0.388882	0.492671	0.607351
C87	C	0.722215	0.826005	0.940685
C88	C	0.032078	0.188030	0.245238
C89	C	0.365411	0.521363	0.578571
C90	C	0.698744	0.854697	0.911904
C91	C	0.055522	0.216715	0.216457
C92	C	0.388856	0.550048	0.549790
C93	C	0.722189	0.883381	0.883123
C94	C	0.102409	0.274092	0.158894
C95	C	0.435743	0.607425	0.492228
C96	C	0.769076	0.940759	0.825561
C97	C	0.055488	0.274100	0.158901
C98	C	0.388822	0.607433	0.492234
C99	C	0.722155	0.940766	0.825568
C100	C	0.032044	0.245412	0.187684
C101	C	0.365377	0.578746	0.521017
C102	C	0.698710	0.912079	0.854350
C103	C	-0.014864	0.245415	0.187677
C104	C	0.318470	0.578748	0.521010
C105	C	0.651803	0.912081	0.854344
N106	N	-0.038311	0.216732	0.216461
N107	N	0.295022	0.550066	0.549795
N108	N	0.628356	0.883399	0.883128
C109	C	-0.014840	0.188040	0.245242
C110	C	0.318493	0.521373	0.578575
C111	C	0.651826	0.854707	0.911908
C112	C	0.412085	0.245334	0.187655
C113	C	0.745419	0.578667	0.520988
C114	C	1.078752	0.912001	0.854322
C115	C	0.459003	0.245324	0.187651
C116	C	0.792337	0.578657	0.520984
C117	C	1.125670	0.911991	0.854318
C118	C	0.459027	0.187947	0.245218
C119	C	0.792360	0.521280	0.578551
C120	C	1.125693	0.854613	0.911884
C121	C	0.412108	0.187955	0.245219
C122	C	0.745441	0.521288	0.578552
C123	C	1.078775	0.854621	0.911886
C124	C	0.388638	0.216652	0.216439
C125	C	0.721972	0.549985	0.549772
C126	C	1.055305	0.883318	0.883106
C127	C	-0.113366	0.188058	0.245240
C128	C	0.219967	0.521391	0.578574
C129	C	0.553301	0.854725	0.911907
C130	C	-0.160286	0.188067	0.245237
C131	C	0.173048	0.521400	0.578570
C132	C	0.506381	0.854733	0.911904
C133	C	-0.160305	0.245445	0.187672
C134	C	0.173028	0.578779	0.521006
C135	C	0.506361	0.912112	0.854339
C136	C	-0.113390	0.245435	0.187674
C137	C	0.219944	0.578769	0.521007
C138	C	0.553277	0.912102	0.854340
C139	C	-0.089921	0.216740	0.216461
C140	C	0.243412	0.550073	0.549795
C141	C	0.576745	0.883407	0.883128
O142	O	-0.039176	0.269794	0.163204
O143	O	0.294157	0.603127	0.496538
O144	O	0.627491	0.936460	0.829871
O145	O	-0.039098	0.163652	0.269725
O146	O	0.294236	0.496986	0.603058
O147	O	0.627569	0.830319	0.936391
C148	C	0.172824	0.188007	0.245236
C149	C	0.506157	0.521341	0.578569
C150	C	0.839491	0.854674	0.911903
C151	C	0.196269	0.216692	0.216455
C152	C	0.529602	0.550025	0.549788
C153	C	0.862935	0.883359	0.883122
C154	C	0.172798	0.245384	0.187675
C155	C	0.506131	0.578718	0.521008
C156	C	0.839465	0.912051	0.854341
C157	C	0.243187	0.216682	0.216451
C158	C	0.576520	0.550015	0.549784
C159	C	0.909853	0.883349	0.883118
C160	C	0.266657	0.187990	0.245231
C161	C	0.599991	0.521323	0.578565
C162	C	0.933324	0.854656	0.911898
C163	C	0.243210	0.159308	0.274016
C164	C	0.576543	0.492641	0.607349
C165	C	0.909877	0.825974	0.940682
C166	C	0.196295	0.159315	0.274016
C167	C	0.529628	0.492648	0.607350
C168	C	0.862961	0.825982	0.940683
C169	C	0.196245	0.274067	0.158891
C170	C	0.529578	0.607400	0.492224
C171	C	0.862912	0.940733	0.825557
C172	C	0.243161	0.274056	0.158892
C173	C	0.576494	0.607390	0.492225
C174	C	0.909827	0.940723	0.825559
C175	C	0.266631	0.245364	0.187672
C176	C	0.599965	0.578697	0.521006
C177	C	0.933298	0.912031	0.854339
C178	C	0.649050	0.333412	0.216416
C179	C	0.982383	0.666745	0.549750
C180	C	1.315716	1.000079	0.883083
C181	C	0.649056	0.383347	0.216422
C182	C	0.982389	0.716680	0.549755
C183	C	1.315723	1.050013	0.883088
C184	C	0.649143	0.216686	0.333617
C185	C	0.982476	0.550019	0.666950
C186	C	1.315810	0.883352	1.000284
C187	C	0.649148	0.216684	0.383551
C188	C	0.982482	0.550017	0.716885
C189	C	1.315815	0.883351	1.050218
C190	C	0.766309	0.216738	0.216451
C191	C	1.099642	0.550072	0.549785
C192	C	1.432976	0.883405	0.883118
C193	C	0.816244	0.216759	0.216457
C194	C	1.149577	0.550092	0.549790
C195	C	1.482910	0.883426	0.883123
C196	C	0.649225	0.099511	0.216471
C197	C	0.982558	0.432845	0.549804
C198	C	1.315891	0.766178	0.883137
C199	C	0.649264	0.049577	0.216484
C200	C	0.982598	0.382910	0.549818
C201	C	1.315931	0.716243	0.883151
C202	C	0.677914	0.692990	0.187750
C203	C	1.011247	1.026324	0.521083
C204	C	1.344580	1.359657	0.854417
C205	C	0.677969	0.880663	0.187767
C206	C	1.011302	1.213997	0.521101
C207	C	1.344636	1.547330	0.854434
O208	O	0.702440	0.904928	0.163373
O209	O	1.035774	1.238262	0.496706
O210	O	1.369107	1.571595	0.830039
N211	N	0.649224	0.904132	0.216472
N212	N	0.982557	1.237465	0.549806
N213	N	1.315891	1.570798	0.883139
C214	C	0.620465	0.880679	0.245177
C215	C	0.953798	1.214012	0.578510
C216	C	1.287132	1.547346	0.911844
O217	O	0.596020	0.904946	0.269596
O218	O	0.929353	1.238280	0.602929
O219	O	1.262687	1.571613	0.936263
C220	C	0.620412	0.693007	0.245162
C221	C	0.953746	1.026340	0.578495
C222	C	1.287079	1.359673	0.911828
C223	C	0.649156	0.669541	0.216452
C224	C	0.982489	1.002874	0.549785
C225	C	1.315823	1.336207	0.883118
C226	C	0.706655	0.669524	0.159043
C227	C	1.039989	1.002858	0.492376
C228	C	1.373322	1.336191	0.825709
C229	C	0.706640	0.622609	0.159037
C230	C	1.039973	0.955942	0.492370
C231	C	1.373306	1.289276	0.825704
C232	C	0.677882	0.599159	0.187738
C233	C	1.011215	0.932493	0.521072
C234	C	1.344549	1.265826	0.854405
C235	C	0.649140	0.622625	0.216446
C236	C	0.982473	0.955959	0.549779
C237	C	1.315807	1.289292	0.883112
C238	C	0.591656	0.669555	0.273868
C239	C	0.924989	1.002888	0.607201
C240	C	1.258323	1.336221	0.940535
C241	C	0.591646	0.622634	0.273863
C242	C	0.924979	0.955967	0.607196
C243	C	1.258313	1.289300	0.940529
C244	C	0.620390	0.599168	0.245153
C245	C	0.953723	0.932501	0.578486
C246	C	1.287056	1.265834	0.911819
C247	C	0.620367	0.552260	0.245141
C248	C	0.953700	0.885594	0.578475
C249	C	1.287033	1.218927	0.911808
N250	N	0.649112	0.528792	0.216437
N251	N	0.982445	0.862125	0.549770
N252	N	1.315778	1.195459	0.883103
C253	C	0.677869	0.552242	0.187735
C254	C	1.011203	0.885575	0.521068
C255	C	1.344536	1.218908	0.854402
C256	C	0.620494	0.979209	0.245183
C257	C	0.953828	1.312543	0.578516
C258	C	1.287161	1.645876	0.911849
C259	C	0.620507	1.026127	0.245186
C260	C	0.953840	1.359461	0.578519
C261	C	1.287173	1.692794	0.911853
C262	C	0.678012	1.026109	0.187777
C263	C	1.011345	1.359442	0.521110
C264	C	1.344678	1.692775	0.854443
C265	C	0.677996	0.979190	0.187772
C266	C	1.011330	1.312523	0.521105
C267	C	1.344663	1.645857	0.854438
C268	C	0.649239	0.955741	0.216478
C269	C	0.982573	1.289074	0.549811
C270	C	1.315906	1.622408	0.883144
C271	C	0.677834	0.453716	0.187725
C272	C	1.011167	0.787049	0.521058
C273	C	1.344500	1.120382	0.854391
C274	C	0.677814	0.406796	0.187720
C275	C	1.011147	0.740129	0.521054
C276	C	1.344480	1.073463	0.854387
C277	C	0.620311	0.406819	0.245131
C278	C	0.953644	0.740152	0.578464
C279	C	1.286978	1.073486	0.911797
C280	C	0.620329	0.453734	0.245134
C281	C	0.953662	0.787068	0.578467
C282	C	1.286995	1.120401	0.911801
C283	C	0.649094	0.477182	0.216429
C284	C	0.982427	0.810515	0.549763
C285	C	1.315760	1.143848	0.883096
O286	O	0.595912	0.527966	0.269527
O287	O	0.929245	0.861300	0.602860
O288	O	1.262578	1.194633	0.936194
O289	O	0.702318	0.527966	0.163327
O290	O	1.035651	0.861299	0.496660
O291	O	1.368984	1.194633	0.829993
C292	C	0.677930	0.739906	0.187756
C293	C	1.011263	1.073239	0.521089
C294	C	1.344596	1.406572	0.854423
C295	C	0.649188	0.763372	0.216463
C296	C	0.982521	1.096705	0.549796
C297	C	1.315854	1.430038	0.883130
C298	C	0.620430	0.739922	0.245165
C299	C	0.953763	1.073255	0.578498
C300	C	1.287097	1.406589	0.911831
C301	C	0.649200	0.810289	0.216467
C302	C	0.982534	1.143623	0.549800
C303	C	1.315867	1.476956	0.883133
C304	C	0.677958	0.833739	0.187765
C305	C	1.011291	1.167072	0.521098
C306	C	1.344625	1.500406	0.854432
C307	C	0.706703	0.810271	0.159060
C308	C	1.040036	1.143604	0.492393
C309	C	1.373370	1.476937	0.825727
C310	C	0.706687	0.763355	0.159054
C311	C	1.040021	1.096689	0.492388
C312	C	1.373354	1.430022	0.825721
C313	C	0.591685	0.763390	0.273870
C314	C	0.925018	1.096724	0.607203
C315	C	1.258352	1.430057	0.940536
C316	C	0.591703	0.810306	0.273873
C317	C	0.925036	1.143639	0.607206
C318	C	1.258370	1.476973	0.940539
C319	C	0.620461	0.833755	0.245171
C320	C	0.953794	1.167089	0.578504
C321	C	1.287127	1.500422	0.911838
C322	C	0.649145	0.216661	0.099716
C323	C	0.982478	0.549995	0.433049
C324	C	1.315811	0.883328	0.766383
C325	C	0.649227	0.216536	0.049782
C326	C	0.982560	0.549870	0.383115
C327	C	1.315893	0.883203	0.716449
C328	C	0.677935	0.187887	0.693209
C329	C	1.011268	0.521220	1.026542
C330	C	1.344602	0.854554	1.359876
C331	C	0.677957	0.187849	0.880882
C332	C	1.011291	0.521182	1.214215
C333	C	1.344624	0.854515	1.547549
O334	O	0.702399	0.163407	0.905159
O335	O	1.035733	0.496740	1.238492
O336	O	1.369066	0.830074	1.571825
N337	N	0.649208	0.216564	0.904337
N338	N	0.982541	0.549897	1.237670
N339	N	1.315874	0.883230	1.571003
C340	C	0.620449	0.245288	0.880870
C341	C	0.953782	0.578621	1.214203
C342	C	1.287115	0.911955	1.547537
O343	O	0.595993	0.269708	0.905126
O344	O	0.929326	0.603041	1.238459
O345	O	1.262659	0.936374	1.571793
C346	C	0.620424	0.245324	0.693198
C347	C	0.953758	0.578657	1.026531
C348	C	1.287091	0.911990	1.359864
C349	C	0.649179	0.216610	0.669746
C350	C	0.982512	0.549943	1.003079
C351	C	1.315846	0.883277	1.336412
C352	C	0.706687	0.159175	0.669757
C353	C	1.040020	0.492509	1.003090
C354	C	1.373354	0.825842	1.336423
C355	C	0.706683	0.159187	0.622841
C356	C	1.040016	0.492520	0.956174
C357	C	1.373349	0.825854	1.289508
C358	C	0.677927	0.187910	0.599378
C359	C	1.011260	0.521244	0.932711
C360	C	1.344593	0.854577	1.266045
C361	C	0.649175	0.216622	0.622830
C362	C	0.982508	0.549955	0.956163
C363	C	1.315841	0.883288	1.289497
C364	C	0.591663	0.274045	0.669732
C365	C	0.924997	0.607379	1.003065
C366	C	1.258330	0.940712	1.336399
C367	C	0.591659	0.274051	0.622811
C368	C	0.924992	0.607384	0.956144
C369	C	1.258326	0.940718	1.289478
C370	C	0.620414	0.245337	0.599359
C371	C	0.953747	0.578671	0.932692
C372	C	1.287080	0.912004	1.266026
C373	C	0.620415	0.245356	0.552451
C374	C	0.953748	0.578690	0.885785
C375	C	1.287081	0.912023	1.219118
N376	N	0.649164	0.216642	0.528997
N377	N	0.982497	0.549975	0.862330
N378	N	1.315831	0.883308	1.195663
C379	C	0.677920	0.187918	0.552460
C380	C	1.011253	0.521252	0.885793
C381	C	1.344587	0.854585	1.219127
C382	C	0.620464	0.245268	0.979401
C383	C	0.953797	0.578601	1.312734
C384	C	1.287131	0.911934	1.646067
C385	C	0.620471	0.245260	1.026319
C386	C	0.953804	0.578593	1.359652
C387	C	1.287137	0.911926	1.692985
C388	C	0.677979	0.187820	1.026327
C389	C	1.011312	0.521153	1.359661
C390	C	1.344645	0.854486	1.692994
C391	C	0.677974	0.187830	0.979409
C392	C	1.011307	0.521164	1.312742
C393	C	1.344641	0.854497	1.646075
C394	C	0.649213	0.216553	0.955946
C395	C	0.982547	0.549886	1.289279
C396	C	1.315880	0.883220	1.622613
C397	C	0.677910	0.187945	0.453934
C398	C	1.011243	0.521279	0.787268
C399	C	1.344576	0.854612	1.120601
C400	C	0.677904	0.187961	0.407015
C401	C	1.011238	0.521294	0.740348
C402	C	1.344571	0.854627	1.073681
C403	C	0.620395	0.245399	0.407010
C404	C	0.953728	0.578732	0.740343
C405	C	1.287061	0.912065	1.073677
C406	C	0.620401	0.245385	0.453926
C407	C	0.953735	0.578719	0.787259
C408	C	1.287068	0.912052	1.120592
C409	C	0.649160	0.216655	0.477386
C410	C	0.982494	0.549988	0.810720
C411	C	1.315827	0.883321	1.144053
O412	O	0.595982	0.269782	0.528146
O413	O	0.929315	0.603115	0.861479
O414	O	1.262648	0.936448	1.194812
O415	O	0.702365	0.163495	0.528196
O416	O	1.035699	0.496829	0.861529
O417	O	1.369032	0.830162	1.194863
C418	C	0.677939	0.187875	0.740124
C419	C	1.011272	0.521209	1.073458
C420	C	1.344606	0.854542	1.406791
C421	C	0.649187	0.216587	0.763577
C422	C	0.982521	0.549920	1.096910
C423	C	1.315854	0.883254	1.430243
C424	C	0.620431	0.245310	0.740113
C425	C	0.953765	0.578643	1.073447
C426	C	1.287098	0.911977	1.406780
C427	C	0.649194	0.216579	0.810494
C428	C	0.982527	0.549912	1.143828
C429	C	1.315860	0.883245	1.477161
C430	C	0.677950	0.187856	0.833958
C431	C	1.011283	0.521189	1.167291
C432	C	1.344616	0.854522	1.500624
C433	C	0.706699	0.159141	0.810503
C434	C	1.040033	0.492474	1.143836
C435	C	1.373366	0.825807	1.477170
C436	C	0.706695	0.159152	0.763588
C437	C	1.040028	0.492486	1.096921
C438	C	1.373362	0.825819	1.430254
C439	C	0.591682	0.274025	0.763568
C440	C	0.925015	0.607358	1.096901
C441	C	1.258348	0.940692	1.430235
C442	C	0.591689	0.274011	0.810483
C443	C	0.925022	0.607345	1.143817
C444	C	1.258355	0.940678	1.477150
C445	C	0.620445	0.245288	0.833947
C446	C	0.953778	0.578622	1.167280
C447	C	1.287111	0.911955	1.500613
H448	H	-0.179424	0.268804	0.164238
H449	H	0.153910	0.602138	0.497572
H450	H	0.487243	0.935471	0.830905
H451	H	0.730097	0.135805	0.603751
H452	H	1.063430	0.469138	0.937084
H453	H	1.396763	0.802471	1.270417
H454	H	0.596984	0.268786	0.387898
H455	H	0.930317	0.602119	0.721231
H456	H	1.263650	0.935452	1.054564
H457	H	0.121490	0.297452	0.135456
H458	H	0.454823	0.630786	0.468789
H459	H	0.788157	0.964119	0.802123
C460	C	0.709618	0.953381	0.156195
C461	C	1.042951	1.286715	0.489528
C462	C	1.376284	1.620048	0.822861
H463	H	0.726747	0.974071	0.139105
H464	H	1.060080	1.307404	0.472438
H465	H	1.393413	1.640738	0.805771
H466	H	0.692445	0.935096	0.136602
H467	H	1.025778	1.268429	0.469935
H468	H	1.359111	1.601762	0.803269
H469	H	0.729179	0.935062	0.173399
H470	H	1.062512	1.268396	0.506733
H471	H	1.395845	1.601729	0.840066
C472	C	0.738335	0.836071	0.127489
C473	C	1.071668	1.169405	0.460822
C474	C	1.405002	1.502738	0.794155
H475	H	0.734226	0.867374	0.131609
H476	H	1.067560	1.200707	0.464942
H477	H	1.400893	1.534040	0.798276
H478	H	0.731782	0.828402	0.097296
H479	H	1.065115	1.161735	0.430629
H480	H	1.398448	1.495069	0.763963
H481	H	0.768515	0.828361	0.134094
H482	H	1.101849	1.161694	0.467427
H483	H	1.435182	1.495028	0.800760
H484	H	0.596895	0.387719	0.268498
H485	H	0.930229	0.721052	0.601831
H486	H	1.263562	1.054386	0.935165
H487	H	0.701321	0.164578	0.387922
H488	H	1.034655	0.497912	0.721255
H489	H	1.367988	0.831245	1.054589
C490	C	0.560060	0.305601	0.836278
C491	C	0.893393	0.638934	1.169611
C492	C	1.226727	0.972267	1.502945
H493	H	0.564180	0.301486	0.867582
H494	H	0.897514	0.634819	1.200915
H495	H	1.230847	0.968152	1.534248
H496	H	0.529881	0.299015	0.828583
H497	H	0.863214	0.632348	1.161917
H498	H	1.196547	0.965682	1.495250
H499	H	0.566614	0.335791	0.828586
H500	H	0.899947	0.669124	1.161919
H501	H	1.233281	1.002458	1.495252
H502	H	0.597076	0.960121	0.268559
H503	H	0.930409	1.293454	0.601892
H504	H	1.263742	1.626787	0.935226
H505	H	0.701393	0.164432	1.045439
H506	H	1.034727	0.497766	1.378772
H507	H	1.368060	0.831099	1.712106
H508	H	0.597061	0.268646	1.045409
H509	H	0.930394	0.601979	1.378743
H510	H	1.263727	0.935313	1.712076
C511	C	0.738322	0.127563	0.737796
C512	C	1.071655	0.460897	1.071129
C513	C	1.404988	0.794230	1.404463
H514	H	0.755443	0.110455	0.758495
H515	H	1.088776	0.443788	1.091828
H516	H	1.422110	0.777121	1.425162
H517	H	0.757883	0.144756	0.719492
H518	H	1.091216	0.478089	1.052826
H519	H	1.424550	0.811423	1.386159
H520	H	0.721148	0.107982	0.719496
H521	H	1.054481	0.441315	1.052829
H522	H	1.387814	0.774649	1.386163
C523	C	0.029765	0.127786	0.305684
C524	C	0.363098	0.461119	0.639017
C525	C	0.696432	0.794453	0.972351
H526	H	0.050468	0.110703	0.322825
H527	H	0.383802	0.444036	0.656158
H528	H	0.717135	0.777369	0.989492
H529	H	0.011460	0.108187	0.288540
H530	H	0.344793	0.441520	0.621873
H531	H	0.678127	0.774853	0.955207
H532	H	0.011467	0.145007	0.325232
H533	H	0.344800	0.478340	0.658565
H534	H	0.678133	0.811674	0.991899
C535	C	0.268945	0.305616	0.127230
C536	C	0.602278	0.638949	0.460563
C537	C	0.935611	0.972282	0.793896
H538	H	0.248243	0.322707	0.110094
H539	H	0.581576	0.656040	0.443428
H540	H	0.914909	0.989373	0.776761
H541	H	0.287249	0.288405	0.107683
H542	H	0.620583	0.621738	0.441016
H543	H	0.953916	0.955072	0.774349
H544	H	0.287244	0.325215	0.144385
H545	H	0.620577	0.658548	0.477718
H546	H	0.953910	0.991881	0.811052
C547	C	-0.186072	0.156512	0.276902
C548	C	0.147261	0.489845	0.610235
C549	C	0.480594	0.823179	0.943569
H550	H	-0.165372	0.139427	0.294045
H551	H	0.167962	0.472761	0.627379
H552	H	0.501295	0.806094	0.960712
H553	H	-0.204376	0.136914	0.259755
H554	H	0.128958	0.470247	0.593088
H555	H	0.462291	0.803580	0.926422
H556	H	-0.204373	0.173733	0.296448
H557	H	0.128961	0.507066	0.629781
H558	H	0.462294	0.840399	0.963115
H559	H	0.568265	0.297416	0.744469
H560	H	0.901599	0.630749	1.077802
H561	H	1.234932	0.964082	1.411136
C562	C	0.269032	0.127747	0.305675
C563	C	0.602365	0.461080	0.639008
C564	C	0.935699	0.794413	0.972341
H565	H	0.248353	0.110661	0.322818
H566	H	0.581686	0.443994	0.656151
H567	H	0.915019	0.777327	0.989484
H568	H	0.287336	0.144961	0.325215
H569	H	0.620669	0.478294	0.658548
H570	H	0.954003	0.811628	0.991881
H571	H	0.287334	0.108143	0.288520
H572	H	0.620668	0.441477	0.621854
H573	H	0.954001	0.774810	0.955187
C574	C	0.709435	0.380986	0.156140
C575	C	1.042769	0.714319	0.489473
C576	C	1.376102	1.047653	0.822807
H577	H	0.726567	0.401674	0.139052
H578	H	1.059901	0.735008	0.472385
H579	H	1.393234	1.068341	0.805718
H580	H	0.692260	0.362703	0.136546
H581	H	1.025594	0.696037	0.469880
H582	H	1.358927	1.029370	0.803213
H583	H	0.728994	0.362663	0.173344
H584	H	1.062327	0.695997	0.506678
H585	H	1.395660	1.029330	0.840011
H586	H	0.597044	0.268660	0.960302
H587	H	0.930377	0.601993	1.293635
H588	H	1.263711	0.935327	1.626969
H589	H	0.596925	0.472841	0.268513
H590	H	0.930258	0.806175	0.601847
H591	H	1.263591	1.139508	0.935180
H592	H	0.701258	0.472801	0.164352
H593	H	1.034591	0.806134	0.497685
H594	H	1.367924	1.139468	0.831019
C595	C	0.738263	0.596802	0.127461
C596	C	1.071597	0.930136	0.460795
C597	C	1.404930	1.263469	0.794128
H598	H	0.755394	0.617493	0.110374
H599	H	1.088727	0.950826	0.443708
H600	H	1.422060	1.284160	0.777041
H601	H	0.721093	0.578517	0.107866
H602	H	1.054426	0.911850	0.441199
H603	H	1.387760	1.245184	0.774532
H604	H	0.757823	0.578482	0.144667
H605	H	1.091156	0.911816	0.478000
H606	H	1.424490	1.245149	0.811334
H607	H	0.478145	0.164583	0.268651
H608	H	0.811478	0.497917	0.601984
H609	H	1.144811	0.831250	0.935317
H610	H	0.177210	0.135955	0.297454
H611	H	0.510543	0.469288	0.630788
H612	H	0.843877	0.802621	0.964121
C613	C	0.029674	0.305666	0.127241
C614	C	0.363007	0.638999	0.460574
C615	C	0.696341	0.972332	0.793908
H616	H	0.050359	0.322745	0.110098
H617	H	0.383693	0.656078	0.443432
H618	H	0.717026	0.989412	0.776765
H619	H	0.011371	0.325269	0.144391
H620	H	0.344704	0.658602	0.477724
H621	H	0.678037	0.991935	0.811057
H622	H	0.011372	0.288453	0.107694
H623	H	0.344705	0.621787	0.441027
H624	H	0.678038	0.955120	0.774361
C625	C	0.738289	0.695312	0.127466
C626	C	1.071622	1.028645	0.460799
C627	C	1.404956	1.361978	0.794132
H628	H	0.755399	0.674610	0.110369
H629	H	1.088733	1.007944	0.443702
H630	H	1.422066	1.341277	0.777035
H631	H	0.757860	0.713597	0.144663
H632	H	1.091194	1.046930	0.477997
H633	H	1.424527	1.380264	0.811330
H634	H	0.721119	0.713630	0.107873
H635	H	1.054452	1.046963	0.441206
H636	H	1.387786	1.380297	0.774540
H637	H	0.568248	0.297427	0.688819
H638	H	0.901581	0.630760	1.022152
H639	H	1.234915	0.964094	1.355486
C640	C	0.128274	0.127763	0.305676
C641	C	0.461608	0.461097	0.639009
C642	C	0.794941	0.794430	0.972343
H643	H	0.107586	0.110682	0.322812
H644	H	0.440919	0.444015	0.656145
H645	H	0.774252	0.777349	0.989479
H646	H	0.146582	0.144967	0.325222
H647	H	0.479915	0.478300	0.658556
H648	H	0.813249	0.811633	0.991889
H649	H	0.146572	0.108156	0.288521
H650	H	0.479906	0.441489	0.621854
H651	H	0.813239	0.774823	0.955187
C652	C	0.560083	0.836113	0.305457
C653	C	0.893417	1.169447	0.638790
C654	C	1.226750	1.502780	0.972123
H655	H	0.542959	0.815424	0.322551
H656	H	0.876292	1.148757	0.655885
H657	H	1.209626	1.482091	0.989218
H658	H	0.540524	0.854440	0.288262
H659	H	0.873858	1.187773	0.621595
H660	H	1.207191	1.521107	0.954929
H661	H	0.577266	0.854392	0.325052
H662	H	0.910599	1.187725	0.658385
H663	H	1.243933	1.521059	0.991718
H664	H	0.568233	0.297436	0.603710
H665	H	0.901567	0.630769	0.937044
H666	H	1.234900	0.964103	1.270377
C667	C	0.738330	0.127547	0.836319
C668	C	1.071664	0.460880	1.169652
C669	C	1.404997	0.794213	1.502985
H670	H	0.734210	0.131654	0.867619
H671	H	1.067543	0.464987	1.200953
H672	H	1.400876	0.798320	1.534286
H673	H	0.768510	0.134133	0.828635
H674	H	1.101844	0.467467	1.161969
H675	H	1.435177	0.800800	1.495302
H676	H	0.731776	0.097358	0.828634
H677	H	1.065109	0.430691	1.161968
H678	H	1.398443	0.764025	1.495301
C679	C	0.170434	0.305627	0.127227
C680	C	0.503767	0.638960	0.460560
C681	C	0.837100	0.972293	0.793894
H682	H	0.191121	0.322703	0.110084
H683	H	0.524454	0.656036	0.443417
H684	H	0.857788	0.989369	0.776751
H685	H	0.152129	0.325233	0.144372
H686	H	0.485462	0.658566	0.477705
H687	H	0.818795	0.991899	0.811038
H688	H	0.152133	0.288411	0.107681
H689	H	0.485466	0.621744	0.441014
H690	H	0.818800	0.955078	0.774348
C691	C	0.588775	0.276972	0.479724
C692	C	0.922109	0.610305	0.813057
C693	C	1.255442	0.943639	1.146391
H694	H	0.571648	0.294079	0.459028
H695	H	0.904981	0.627412	0.792362
H696	H	1.238315	0.960745	1.125695
H697	H	0.605944	0.296548	0.498030
H698	H	0.939278	0.629882	0.831364
H699	H	1.272611	0.963215	1.164697
H700	H	0.569213	0.259770	0.498022
H701	H	0.902546	0.593103	0.831355
H702	H	1.235880	0.926437	1.164689
C703	C	0.560046	0.737602	0.305439
C704	C	0.893379	1.070936	0.638773
C705	C	1.226713	1.404269	0.972106
H706	H	0.542928	0.758302	0.322531
H707	H	0.876262	1.091636	0.655864
H708	H	1.209595	1.424969	0.989197
H709	H	0.577205	0.719277	0.325031
H710	H	0.910538	1.052610	0.658364
H711	H	1.243872	1.385943	0.991697
H712	H	0.540475	0.719324	0.288229
H713	H	0.873809	1.052657	0.621562
H714	H	1.207142	1.385991	0.954896
C715	C	0.560013	0.596843	0.305440
C716	C	0.893346	0.930176	0.638774
C717	C	1.226679	1.263509	0.972107
H718	H	0.542896	0.617541	0.322536
H719	H	0.876230	0.950874	0.655869
H720	H	1.209563	1.284207	0.989202
H721	H	0.577179	0.578520	0.325028
H722	H	0.910512	0.911853	0.658361
H723	H	1.243845	1.245187	0.991695
H724	H	0.540440	0.578562	0.288235
H725	H	0.873774	0.911895	0.621568
H726	H	1.207107	1.245228	0.954902
C727	C	0.709643	1.051909	0.156205
C728	C	1.042976	1.385242	0.489538
C729	C	1.376310	1.718575	0.822871
H730	H	0.705533	1.083211	0.160323
H731	H	1.038866	1.416545	0.493656
H732	H	1.372199	1.749878	0.826989
H733	H	0.703090	1.044237	0.126012
H734	H	1.036424	1.377571	0.459345
H735	H	1.369757	1.710904	0.792679
H736	H	0.739824	1.044201	0.162810
H737	H	1.073157	1.377534	0.496144
H738	H	1.406490	1.710867	0.829477
C739	C	-0.087557	0.156492	0.276903
C740	C	0.245776	0.489825	0.610237
C741	C	0.579109	0.823158	0.943570
H742	H	-0.108245	0.139409	0.294039
H743	H	0.225088	0.472742	0.627373
H744	H	0.558421	0.806075	0.960706
H745	H	-0.069253	0.173698	0.296450
H746	H	0.264081	0.507031	0.629783
H747	H	0.597414	0.840364	0.963116
H748	H	-0.069257	0.136886	0.259750
H749	H	0.264077	0.470219	0.593083
H750	H	0.597410	0.803552	0.926417
C751	C	-0.087600	0.276992	0.156016
C752	C	0.245734	0.610326	0.489349
C753	C	0.579067	0.943659	0.822683
H754	H	-0.108299	0.294084	0.138878
H755	H	0.225034	0.627417	0.472212
H756	H	0.558367	0.960750	0.805545
H757	H	-0.069292	0.259782	0.136471
H758	H	0.264041	0.593116	0.469804
H759	H	0.597375	0.926449	0.803138
H760	H	-0.069303	0.296591	0.173175
H761	H	0.264030	0.629924	0.506508
H762	H	0.597363	0.963258	0.839841
H763	H	0.701326	0.164549	0.473031
H764	H	1.034660	0.497882	0.806364
H765	H	1.367993	0.831215	1.139697
C766	C	0.386323	0.156404	0.276884
C767	C	0.719656	0.489737	0.610218
C768	C	1.052990	0.823070	0.943551
H769	H	0.407025	0.139318	0.294025
H770	H	0.740358	0.472651	0.627358
H771	H	1.073692	0.805984	0.960691
H772	H	0.368016	0.136806	0.259740
H773	H	0.701350	0.470140	0.593073
H774	H	1.034683	0.803473	0.926406
H775	H	0.368026	0.173626	0.296433
H776	H	0.701360	0.506959	0.629766
H777	H	1.034693	0.840292	0.963099
H778	H	0.568247	0.688653	0.297245
H779	H	0.901581	1.021986	0.630578
H780	H	1.234914	1.355319	0.963911
H781	H	0.478088	0.268679	0.164208
H782	H	0.811421	0.602012	0.497542
H783	H	1.144755	0.935346	0.830875
C784	C	0.386274	0.276898	0.155991
C785	C	0.719607	0.610232	0.489324
C786	C	1.052941	0.943565	0.822658
H787	H	0.406962	0.293973	0.138847
H788	H	0.740295	0.627306	0.472180
H789	H	1.073628	0.960640	0.805513
H790	H	0.367972	0.296505	0.173137
H791	H	0.701305	0.629839	0.506470
H792	H	1.034638	0.963172	0.839804
H793	H	0.367971	0.259685	0.136446
H794	H	0.701304	0.593018	0.469779
H795	H	1.034638	0.926351	0.803113
H796	H	0.597097	1.045229	0.268560
H797	H	0.930430	1.378563	0.601894
H798	H	1.263763	1.711896	0.935227
H799	H	0.730093	0.744253	0.135676
H800	H	1.063426	1.077586	0.469009
H801	H	1.396760	1.410919	0.802343
C802	C	0.709599	0.156241	0.953615
C803	C	1.042932	0.489574	1.286949
C804	C	1.376265	0.822908	1.620282
H805	H	0.726722	0.139133	0.974313
H806	H	1.060055	0.472466	1.307646
H807	H	1.393389	0.805800	1.640980
H808	H	0.729158	0.173433	0.935309
H809	H	1.062492	0.506767	1.268643
H810	H	1.395825	0.840100	1.601976
H811	H	0.692423	0.136659	0.935317
H812	H	1.025756	0.469993	1.268651
H813	H	1.359089	0.803326	1.601984
H814	H	0.730104	0.135783	0.688855
H815	H	1.063437	0.469116	1.022189
H816	H	1.396770	0.802450	1.355522
