data_functionalizedCrystal
_audit_creation_method	'MofGen! by Chris Wilmer'
_symmetry_space_group_name_H-M	'P1'
_symmetry_Int_Tables_number	1
_symmetry_cell_setting	triclinic
loop_
_symmetry_equiv_pos_as_xyz
  x,y,z
_cell_length_a	21.295420
_cell_length_b	25.639240
_cell_length_c	21.295411
_cell_angle_alpha	90.021594
_cell_angle_beta	89.975307
_cell_angle_gamma	89.958587
loop_
_atom_site_label
_atom_site_type_symbol
_atom_site_fract_x
_atom_site_fract_y
_atom_site_fract_z
Zn1	Zn	0.962300	0.208235	-0.355914
Zn2	Zn	1.295633	0.541568	-0.022580
Zn3	Zn	1.628967	0.874901	0.310753
Zn4	Zn	0.962179	0.295655	-0.250639
Zn5	Zn	1.295512	0.628988	0.082694
Zn6	Zn	1.628846	0.962321	0.416027
Zn7	Zn	0.857023	0.208232	-0.250659
Zn8	Zn	1.190356	0.541566	0.082675
Zn9	Zn	1.523690	0.874899	0.416008
Zn10	Zn	0.856969	0.295638	-0.355871
Zn11	Zn	1.190303	0.628972	-0.022537
Zn12	Zn	1.523636	0.962305	0.310796
O13	O	0.909618	0.251940	-0.303271
O14	O	1.242951	0.585273	0.030063
O15	O	1.576285	0.918607	0.363396
O16	O	1.050373	0.219839	-0.341959
O17	O	1.383707	0.553172	-0.008626
O18	O	1.717040	0.886506	0.324708
O19	O	0.948202	0.284064	-0.162552
O20	O	1.281535	0.617397	0.170781
O21	O	1.614869	0.950731	0.504114
O22	O	0.871061	0.135068	-0.264647
O23	O	1.204395	0.468401	0.068686
O24	O	1.537728	0.801734	0.402020
O25	O	1.050284	0.284066	-0.264614
O26	O	1.383618	0.617399	0.068719
O27	O	1.716951	0.950733	0.402053
O28	O	0.948408	0.135069	-0.341978
O29	O	1.281741	0.468403	-0.008644
O30	O	1.615075	0.801736	0.324689
O31	O	0.870944	0.219835	-0.162567
O32	O	1.204278	0.553169	0.170767
O33	O	1.537611	0.886502	0.504100
O34	O	0.768927	0.219819	-0.264605
O35	O	1.102260	0.553153	0.068728
O36	O	1.435593	0.886486	0.402061
O37	O	0.870970	0.284038	-0.443966
O38	O	1.204303	0.617371	-0.110633
O39	O	1.537636	0.950705	0.222701
O40	O	0.768887	0.284036	-0.341904
O41	O	1.102220	0.617369	-0.008571
O42	O	1.435554	0.950703	0.324762
O43	O	0.948356	0.219823	-0.443998
O44	O	1.281689	0.553156	-0.110664
O45	O	1.615022	0.886490	0.222669
O46	O	0.948150	0.368818	-0.264572
O47	O	1.281483	0.702151	0.068761
O48	O	1.614816	1.035484	0.402094
O49	O	0.870853	0.368806	-0.341885
O50	O	1.204186	0.702139	-0.008552
O51	O	1.537519	1.035472	0.324781
C52	C	0.746066	0.251926	-0.303253
C53	C	1.079400	0.585259	0.030081
C54	C	1.412733	0.918593	0.363414
C55	C	0.676098	0.251932	-0.303260
C56	C	1.009432	0.585266	0.030074
C57	C	1.342765	0.918599	0.363407
C58	C	0.176636	0.285439	-0.343481
C59	C	0.509969	0.618773	-0.010148
C60	C	0.843303	0.952106	0.323186
C61	C	0.242379	0.285439	-0.343474
C62	C	0.575712	0.618773	-0.010141
C63	C	0.909045	0.952106	0.323192
C64	C	0.275259	0.251952	-0.303290
C65	C	0.608592	0.585285	0.030043
C66	C	0.941925	0.918619	0.363376
C67	C	0.242391	0.218471	-0.263098
C68	C	0.575724	0.551805	0.070235
C69	C	0.909058	0.885138	0.403568
C70	C	0.176650	0.218476	-0.263102
C71	C	0.509983	0.551809	0.070232
C72	C	0.843316	0.885142	0.403565
N73	N	0.378512	0.206173	-0.298558
N74	N	0.711845	0.539506	0.034776
N75	N	1.045178	0.872839	0.368109
N76	N	0.440963	0.206170	-0.298558
N77	N	0.774296	0.539503	0.034775
N78	N	1.107630	0.872836	0.368108
C79	C	0.473333	0.251937	-0.303277
C80	C	0.806667	0.585271	0.030056
C81	C	1.140000	0.918604	0.363390
N82	N	0.440893	0.297709	-0.308008
N83	N	0.774226	0.631042	0.025326
N84	N	1.107560	0.964375	0.358659
N85	N	0.378436	0.297711	-0.308010
N86	N	0.711769	0.631044	0.025323
N87	N	1.045103	0.964377	0.358656
C88	C	0.346544	0.251944	-0.303282
C89	C	0.679877	0.585277	0.030051
C90	C	1.013211	0.918610	0.363385
C91	C	0.577479	0.285419	-0.343456
C92	C	0.910812	0.618752	-0.010123
C93	C	1.244146	0.952085	0.323211
C94	C	0.643223	0.285420	-0.343445
C95	C	0.976556	0.618753	-0.010112
C96	C	1.309889	0.952086	0.323222
C97	C	0.643234	0.218447	-0.263072
C98	C	0.976567	0.551780	0.070261
C99	C	1.309900	0.885113	0.403594
C100	C	0.577491	0.218450	-0.263080
C101	C	0.910825	0.551784	0.070253
C102	C	1.244158	0.885117	0.403587
C103	C	0.544618	0.251936	-0.303275
C104	C	0.877951	0.585269	0.030058
C105	C	1.211284	0.918602	0.363391
C106	C	0.909499	0.387783	-0.303236
C107	C	1.242833	0.721116	0.030097
C108	C	1.576166	1.054449	0.363431
C109	C	0.909506	0.445897	-0.303242
C110	C	1.242839	0.779230	0.030091
C111	C	1.576173	1.112563	0.363425
C112	C	0.949919	0.806253	-0.263058
C113	C	1.283253	1.139587	0.070275
C114	C	1.616586	1.472920	0.403608
C115	C	0.949939	0.860858	-0.263064
C116	C	1.283272	1.194191	0.070269
C117	C	1.616605	1.527524	0.403602
O118	O	0.984216	0.889089	-0.228879
O119	O	1.317549	1.222423	0.104454
O120	O	1.650883	1.555756	0.437788
N121	N	0.909669	0.888179	-0.303285
N122	N	1.243002	1.221512	0.030049
N123	N	1.576335	1.554846	0.363382
C124	C	0.869381	0.860893	-0.343506
C125	C	1.202715	1.194227	-0.010173
C126	C	1.536048	1.527560	0.323160
O127	O	0.835131	0.889146	-0.377718
O128	O	1.168464	1.222480	-0.044384
O129	O	1.501797	1.555813	0.288949
C130	C	0.869366	0.806290	-0.343503
C131	C	1.202699	1.139623	-0.010170
C132	C	1.536032	1.472957	0.323164
C133	C	0.909634	0.778972	-0.303275
C134	C	1.242967	1.112305	0.030058
C135	C	1.576300	1.445638	0.363391
C136	C	0.990185	0.778935	-0.222834
C137	C	1.323518	1.112268	0.110499
C138	C	1.656851	1.445602	0.443832
C139	C	0.990165	0.724334	-0.222828
C140	C	1.323498	1.057668	0.110506
C141	C	1.656831	1.391001	0.443839
C142	C	0.949879	0.697052	-0.263045
C143	C	1.283212	1.030386	0.070289
C144	C	1.616546	1.363719	0.403622
C145	C	0.909614	0.724371	-0.303269
C146	C	1.242947	1.057704	0.030065
C147	C	1.576280	1.391038	0.363398
C148	C	0.829082	0.779005	-0.383727
C149	C	1.162415	1.112339	-0.050394
C150	C	1.495749	1.445672	0.282940
C151	C	0.829070	0.724398	-0.383721
C152	C	1.162403	1.057732	-0.050387
C153	C	1.495737	1.391065	0.282946
C154	C	0.869338	0.697080	-0.343493
C155	C	1.202672	1.030413	-0.010160
C156	C	1.536005	1.363746	0.323174
C157	C	0.869308	0.642489	-0.343479
C158	C	1.202641	0.975822	-0.010146
C159	C	1.535974	1.309155	0.323188
N160	N	0.909578	0.615167	-0.303259
N161	N	1.242911	0.948500	0.030075
N162	N	1.576244	1.281834	0.363408
C163	C	0.949863	0.642449	-0.263041
C164	C	1.283197	0.975782	0.070292
C165	C	1.616530	1.309116	0.403625
C166	C	0.869418	0.975564	-0.343511
C167	C	1.202751	1.308897	-0.010178
C168	C	1.536085	1.642231	0.323156
C169	C	0.869430	1.030166	-0.343512
C170	C	1.202763	1.363500	-0.010178
C171	C	1.536097	1.696833	0.323155
C172	C	0.949988	1.030127	-0.263070
C173	C	1.283322	1.363460	0.070263
C174	C	1.616655	1.696794	0.403596
C175	C	0.949973	0.975524	-0.263067
C176	C	1.283306	1.308857	0.070266
C177	C	1.616639	1.642190	0.403600
C178	C	0.909688	0.948243	-0.303290
C179	C	1.243021	1.281576	0.030043
C180	C	1.576355	1.614909	0.363376
C181	C	0.949817	0.527784	-0.263030
C182	C	1.283151	0.861117	0.070303
C183	C	1.616484	1.194451	0.403637
C184	C	0.949792	0.473179	-0.263025
C185	C	1.283125	0.806512	0.070308
C186	C	1.616458	1.139845	0.403642
C187	C	0.869236	0.473223	-0.343468
C188	C	1.202569	0.806556	-0.010135
C189	C	1.535903	1.139889	0.323198
C190	C	0.869259	0.527823	-0.343471
C191	C	1.202592	0.861157	-0.010138
C192	C	1.535926	1.194490	0.323195
C193	C	0.909555	0.555103	-0.303250
C194	C	1.242888	0.888436	0.030083
C195	C	1.576221	1.221769	0.363417
O196	O	0.835050	0.614222	-0.377649
O197	O	1.168383	0.947556	-0.044315
O198	O	1.501716	1.280889	0.289018
O199	O	0.984114	0.614189	-0.228841
O200	O	1.317447	0.947523	0.104492
O201	O	1.650781	1.280856	0.437825
C202	C	1.073808	0.251955	-0.303289
C203	C	1.407141	0.585288	0.030044
C204	C	1.740475	0.918621	0.363378
C205	C	1.143776	0.251961	-0.303297
C206	C	1.477110	0.585294	0.030036
C207	C	1.810443	0.918628	0.363370
C208	C	0.909670	0.251929	-0.467461
C209	C	1.243003	0.585262	-0.134128
C210	C	1.576337	0.918596	0.199206
C211	C	0.909692	0.251924	-0.537429
C212	C	1.243026	0.585258	-0.204096
C213	C	1.576359	0.918591	0.129238
C214	C	0.909731	1.115567	-0.303308
C215	C	1.243064	1.448900	0.030025
C216	C	1.576397	1.782234	0.363358
C217	C	0.909718	1.057453	-0.303297
C218	C	1.243051	1.390786	0.030037
C219	C	1.576385	1.724120	0.363370
C220	C	0.949986	0.218486	-0.570313
C221	C	1.283319	0.551819	-0.236980
C222	C	1.616652	0.885153	0.096353
C223	C	0.949985	0.218463	-0.636056
C224	C	1.283318	0.551797	-0.302722
C225	C	1.616651	0.885130	0.030611
C226	C	0.909697	0.251888	-0.668912
C227	C	1.243031	0.585222	-0.335578
C228	C	1.576364	0.918555	-0.002245
C229	C	0.869396	0.285329	-0.636020
C230	C	1.202730	0.618662	-0.302686
C231	C	1.536063	0.951996	0.030647
C232	C	0.869394	0.285347	-0.570278
C233	C	1.202727	0.618680	-0.236945
C234	C	1.536061	0.952014	0.096388
N235	N	0.904828	0.297626	-0.772127
N236	N	1.238162	0.630960	-0.438794
N237	N	1.571495	0.964293	-0.105460
N238	N	0.904834	0.297608	-0.834579
N239	N	1.238168	0.630941	-0.501245
N240	N	1.571501	0.964274	-0.167912
C241	C	0.909701	0.251835	-0.866986
C242	C	1.243035	0.585169	-0.533653
C243	C	1.576368	0.918502	-0.200320
N244	N	0.914574	0.206081	-0.834584
N245	N	1.247908	0.539415	-0.501250
N246	N	1.581241	0.872748	-0.167917
N247	N	0.914571	0.206100	-0.772126
N248	N	1.247905	0.539434	-0.438793
N249	N	1.581238	0.872767	-0.105460
C250	C	0.909695	0.251872	-0.740197
C251	C	1.243029	0.585206	-0.406864
C252	C	1.576362	0.918539	-0.073530
C253	C	0.949996	0.218370	-0.971156
C254	C	1.283329	0.551703	-0.637823
C255	C	1.616662	0.885036	-0.304490
C256	C	0.949990	0.218346	-1.036900
C257	C	1.283324	0.551679	-0.703567
C258	C	1.616657	0.885013	-0.370233
C259	C	0.869405	0.285216	-1.036863
C260	C	1.202739	0.618550	-0.703529
C261	C	1.536072	0.951883	-0.370196
C262	C	0.869407	0.285235	-0.971120
C263	C	1.202741	0.618569	-0.637787
C264	C	1.536074	0.951902	-0.304453
C265	C	0.909706	0.251813	-0.938271
C266	C	1.243039	0.585146	-0.604937
C267	C	1.576372	0.918479	-0.271604
C268	C	0.909602	0.251913	-0.139719
C269	C	1.242935	0.585247	0.193614
C270	C	1.576269	0.918580	0.526948
C271	C	0.909702	0.251771	-0.069751
C272	C	1.243035	0.585104	0.263582
C273	C	1.576369	0.918437	0.596915
H274	H	0.149896	0.191212	-0.230379
H275	H	0.483229	0.524545	0.102955
H276	H	0.816562	0.857879	0.436288
H277	H	0.836434	0.451001	-0.376211
H278	H	1.169767	0.784335	-0.042878
H279	H	1.503100	1.117668	0.290456
H280	H	1.022956	0.702095	-0.190073
H281	H	1.356289	1.035428	0.143260
H282	H	1.689623	1.368761	0.476594
H283	H	0.836600	0.312467	-0.944345
H284	H	1.169933	0.645801	-0.611012
H285	H	1.503267	0.979134	-0.277679
O286	O	0.830121	0.554283	-0.382605
O287	O	1.163455	0.887616	-0.049271
O288	O	1.496788	1.220950	0.284062
C289	C	0.794547	0.518491	-0.418086
C290	C	1.127881	0.851825	-0.084753
C291	C	1.461214	1.185158	0.248581
H292	H	0.820313	0.479544	-0.420277
H293	H	1.153646	0.812877	-0.086944
H294	H	1.486980	1.146210	0.246389
H295	H	0.787818	0.534250	-0.467681
H296	H	1.121151	0.867583	-0.134348
H297	H	1.454485	1.200916	0.198985
H298	H	0.746746	0.512739	-0.394991
H299	H	1.080079	0.846072	-0.061658
H300	H	1.413412	1.179405	0.271675
O301	O	0.989123	0.948931	-0.224081
O302	O	1.322456	1.282265	0.109253
O303	O	1.655789	1.615598	0.442586
C304	C	1.029769	0.917313	-0.259953
C305	C	1.363102	1.250647	0.073381
C306	C	1.696436	1.583980	0.406714
H307	H	1.007543	0.909129	-0.307636
H308	H	1.340877	1.242462	0.025697
H309	H	1.674210	1.575796	0.359030
H310	H	1.038212	0.878921	-0.234314
H311	H	1.371545	1.212254	0.099019
H312	H	1.704878	1.545587	0.432352
H313	H	1.076418	0.938322	-0.266915
H314	H	1.409752	1.271655	0.066419
H315	H	1.743085	1.604988	0.399752
H316	H	0.836592	0.312542	-0.662775
H317	H	1.169925	0.645875	-0.329442
H318	H	1.503259	0.979209	0.003892
O319	O	0.989192	0.185845	-1.068748
O320	O	1.322526	0.519179	-0.735415
O321	O	1.655859	0.852512	-0.402082
C322	C	1.024747	0.156343	-1.025654
C323	C	1.358080	0.489676	-0.692321
C324	C	1.691413	0.823010	-0.358987
H325	H	1.026903	0.177773	-0.978792
H326	H	1.360236	0.511107	-0.645459
H327	H	1.693569	0.844440	-0.312125
H328	H	1.074350	0.150768	-1.044670
H329	H	1.407683	0.484102	-0.711337
H330	H	1.741017	0.817435	-0.378004
H331	H	1.001739	0.116632	-1.018653
H332	H	1.335073	0.449966	-0.685319
H333	H	1.668406	0.783299	-0.351986
H334	H	0.982793	1.052350	-0.230325
H335	H	1.316127	1.385683	0.103008
H336	H	1.649460	1.719016	0.436341
H337	H	0.269166	0.191206	-0.230379
H338	H	0.602499	0.524540	0.102954
H339	H	0.935833	0.857873	0.436287
H340	H	0.149875	0.312707	-0.376209
H341	H	0.483208	0.646041	-0.042876
H342	H	0.816541	0.979374	0.290458
O343	O	0.989117	0.185953	-0.939145
O344	O	1.322450	0.519286	-0.605811
O345	O	1.655784	0.852619	-0.272478
C346	C	0.980470	0.193133	-0.874067
C347	C	1.313803	0.526467	-0.540734
C348	C	1.647136	0.859800	-0.207401
H349	H	0.959810	0.233483	-0.865080
H350	H	1.293144	0.566816	-0.531747
H351	H	1.626477	0.900150	-0.198414
H352	H	1.027626	0.189602	-0.849104
H353	H	1.360959	0.522936	-0.515771
H354	H	1.694293	0.856269	-0.182438
H355	H	0.946981	0.162122	-0.855394
H356	H	1.280315	0.495456	-0.522061
H357	H	1.613648	0.828789	-0.188728
H358	H	0.669976	0.312685	-0.376166
H359	H	1.003309	0.646019	-0.042833
H360	H	1.336643	0.979352	0.290501
O361	O	0.830376	1.056677	-0.382674
O362	O	1.163709	1.390010	-0.049341
O363	O	1.497042	1.723343	0.283992
C364	C	0.844088	1.043283	-0.445422
C365	C	1.177422	1.376616	-0.112089
C366	C	1.510755	1.709950	0.221244
H367	H	0.894372	1.028232	-0.448644
H368	H	1.227705	1.361566	-0.115310
H369	H	1.561038	1.694899	0.218023
H370	H	0.838659	1.079181	-0.476526
H371	H	1.171993	1.412515	-0.143193
H372	H	1.505326	1.745848	0.190141
H373	H	0.810323	1.011606	-0.461838
H374	H	1.143656	1.344940	-0.128505
H375	H	1.476990	1.678273	0.204829
O376	O	0.989162	0.186055	-0.668077
O377	O	1.322495	0.519389	-0.334743
O378	O	1.655829	0.852722	-0.001410
C379	C	1.029796	0.215824	-0.706103
C380	C	1.363130	0.549157	-0.372770
C381	C	1.696463	0.882491	-0.039437
H382	H	1.007548	0.255440	-0.715938
H383	H	1.340881	0.588773	-0.382605
H384	H	1.674215	0.922106	-0.049271
H385	H	1.038260	0.194520	-0.752339
H386	H	1.371594	0.527853	-0.419006
H387	H	1.704927	0.861186	-0.085673
H388	H	1.076438	0.221584	-0.680784
H389	H	1.409771	0.554918	-0.347451
H390	H	1.743104	0.888251	-0.014117
O391	O	0.790057	0.805590	-0.422842
O392	O	1.123390	1.138923	-0.089508
O393	O	1.456723	1.472256	0.243825
C394	C	0.825890	0.837115	-0.463548
C395	C	1.159223	1.170449	-0.130214
C396	C	1.492557	1.503782	0.203119
H397	H	0.873603	0.845274	-0.441384
H398	H	1.206936	1.178608	-0.108050
H399	H	1.540269	1.511941	0.225283
H400	H	0.800253	0.875526	-0.471980
H401	H	1.133587	1.208859	-0.138647
H402	H	1.466920	1.542193	0.194686
H403	H	0.832789	0.816040	-0.510194
H404	H	1.166122	1.149373	-0.176861
H405	H	1.499456	1.482706	0.156472
H406	H	0.836608	0.953354	-0.376264
H407	H	1.169941	1.286688	-0.042931
H408	H	1.503275	1.620021	0.290403
O409	O	0.274378	0.317887	-0.382544
O410	O	0.607711	0.651220	-0.049211
O411	O	0.941045	0.984553	0.284122
C412	C	0.312434	0.288157	-0.423269
C413	C	0.645767	0.621490	-0.089936
C414	C	0.979100	0.954823	0.243398
H415	H	0.322297	0.248509	-0.401146
H416	H	0.655630	0.581842	-0.067813
H417	H	0.988964	0.915175	0.265520
H418	H	0.358654	0.309455	-0.431658
H419	H	0.691987	0.642789	-0.098325
H420	H	1.025320	0.976122	0.235008
H421	H	0.287125	0.282466	-0.469932
H422	H	0.620459	0.615799	-0.136599
H423	H	0.953792	0.949133	0.196734
H424	H	0.550712	0.312685	-0.376185
H425	H	0.884045	0.646018	-0.042851
H426	H	1.217379	0.979352	0.290482
H427	H	0.670004	0.191182	-0.230351
H428	H	1.003337	0.524516	0.102982
H429	H	1.336671	0.857849	0.436315
O430	O	0.545665	0.185875	-0.224030
O431	O	0.878998	0.519209	0.109303
O432	O	1.212332	0.852542	0.442636
C433	C	0.588780	0.156327	-0.188549
C434	C	0.922114	0.489660	0.144785
C435	C	1.255447	0.822993	0.478118
H436	H	0.635657	0.154544	-0.214333
H437	H	0.968991	0.487878	0.119000
H438	H	1.302324	0.821211	0.452334
H439	H	0.569814	0.115125	-0.181925
H440	H	0.903148	0.448459	0.151408
H441	H	1.236481	0.781792	0.484741
H442	H	0.595733	0.175415	-0.140698
H443	H	0.929067	0.508749	0.192636
H444	H	1.262400	0.842082	0.525969
H445	H	0.796266	0.702189	-0.416478
H446	H	1.129599	1.035522	-0.083144
H447	H	1.462933	1.368855	0.250189
H448	H	1.022994	0.801142	-0.190085
H449	H	1.356327	1.134475	0.143249
H450	H	1.689660	1.467809	0.476582
H451	H	0.982799	0.191270	-0.543571
H452	H	1.316132	0.524603	-0.210238
H453	H	1.649466	0.857937	0.123095
H454	H	0.836579	0.312576	-0.543504
H455	H	1.169913	0.645909	-0.210171
H456	H	1.503246	0.979242	0.123162
H457	H	0.836596	0.312426	-1.063613
H458	H	1.169929	0.645760	-0.730280
H459	H	1.503263	0.979093	-0.396946
H460	H	0.982583	0.450938	-0.230265
H461	H	1.315916	0.784271	0.103069
H462	H	1.649249	1.117604	0.436402
O463	O	0.988978	0.554197	-0.223898
O464	O	1.322311	0.887531	0.109435
O465	O	1.655644	1.220864	0.442769
C466	C	1.024518	0.518367	-0.188409
C467	C	1.357852	0.851701	0.144924
C468	C	1.691185	1.185034	0.478257
H469	H	0.998717	0.479469	-0.186210
H470	H	1.332050	0.812802	0.147123
H471	H	1.665384	1.146135	0.480457
H472	H	1.031262	0.534151	-0.138817
H473	H	1.364595	0.867484	0.194517
H474	H	1.697929	1.200818	0.527850
H475	H	1.072315	0.512509	-0.211502
H476	H	1.405648	0.845843	0.121831
H477	H	1.738981	1.179176	0.455164
