data_functionalizedCrystal
_audit_creation_method	'MofGen! by Chris Wilmer'
_symmetry_space_group_name_H-M	'P1'
_symmetry_Int_Tables_number	1
_symmetry_cell_setting	triclinic
loop_
_symmetry_equiv_pos_as_xyz
  x,y,z
_cell_length_a	16.625547
_cell_length_b	17.640112
_cell_length_c	17.637815
_cell_angle_alpha	70.395660
_cell_angle_beta	101.191618
_cell_angle_gamma	78.775758
loop_
_atom_site_label
_atom_site_type_symbol
_atom_site_fract_x
_atom_site_fract_y
_atom_site_fract_z
Zn1	Zn	0.124028	1.165553	0.211674
Zn2	Zn	0.224719	1.193368	0.073912
Zn3	Zn	0.124072	1.055628	0.101707
Zn4	Zn	0.292995	1.027787	0.239470
O5	O	0.191454	1.110584	0.156691
O6	O	0.108792	1.284544	0.170135
O7	O	0.182813	1.198389	-0.037709
O8	O	0.011231	1.070220	0.116293
O9	O	0.182770	1.304979	0.068922
O10	O	0.011199	1.150982	0.197086
O11	O	0.108868	1.097191	-0.017289
O12	O	0.175072	0.936634	0.143246
O13	O	0.299136	1.022770	0.351091
O14	O	0.299179	0.916179	0.244460
O15	O	0.174996	1.123986	0.330670
O16	O	0.346611	1.171393	0.095875
O17	O	0.396773	1.049741	0.217509
C18	C	0.244540	0.896510	0.199886
C19	C	0.267275	0.804925	0.218384
C20	C	-0.018860	1.110604	0.156690
C21	C	-0.108483	1.110613	0.156689
C22	C	0.018726	0.556763	0.016166
C23	C	0.040108	0.470702	0.033560
C24	C	0.169437	0.449494	0.138772
C25	C	0.148064	0.535554	0.121391
C26	C	0.072708	0.589182	0.060086
C27	C	0.202046	0.567973	0.165311
C28	C	0.180676	0.654027	0.147927
C29	C	0.105325	0.707661	0.086624
C30	C	0.051338	0.675236	0.042703
C31	C	0.277405	0.514345	0.226611
C32	C	0.331387	0.546764	0.270530
C33	C	0.310015	0.632818	0.253151
C34	C	0.234663	0.686452	0.191848
C35	C	0.364001	0.665243	0.297072
C36	C	0.342632	0.751296	0.279689
C37	C	0.213293	0.772505	0.174464
C38	C	-0.436658	1.110647	0.156724
C39	C	-0.345350	1.110639	0.156716
C40	C	-0.272574	1.110630	0.156706
C41	C	-0.181259	1.110622	0.156699
C42	C	0.400948	1.110583	0.156705
C43	C	0.490558	1.110652	0.156724
C44	C	0.244677	1.067170	0.371614
C45	C	0.267358	1.048669	0.463202
C46	C	0.138160	1.325493	0.113328
C47	C	0.115450	1.417075	0.094849
C48	C	0.138367	1.153877	-0.057406
C49	C	0.115420	1.172537	-0.149026
C50	C	0.018809	1.251310	0.711261
C51	C	0.040142	1.233916	0.797324
C52	C	0.169397	1.128529	0.818576
C53	C	0.148078	1.145916	0.732513
C54	C	0.072782	1.207307	0.678862
C55	C	0.202051	1.101913	0.700114
C56	C	0.180730	1.119296	0.614060
C57	C	0.105437	1.180683	0.560404
C58	C	0.051462	1.224690	0.592807
C59	C	0.277343	1.040519	0.753768
C60	C	0.331316	0.996516	0.721369
C61	C	0.309999	1.013903	0.635312
C62	C	0.234705	1.075289	0.581656
C63	C	0.363974	0.969895	0.602908
C64	C	0.342654	0.987278	0.516853
C65	C	0.213385	1.092672	0.495601
H66	H	0.151922	0.816171	0.124556
H67	H	0.152075	1.142666	0.451914
C68	C	0.252326	0.390493	0.206207
N69	N	0.314757	0.346054	0.257002
H70	H	-0.010033	0.718901	-0.007205
H71	H	0.294802	0.444275	0.240762
C72	C	0.414276	0.487764	0.337965
N73	N	0.476707	0.443325	0.388760
C74	C	0.081985	1.199805	0.465740
N75	N	0.064322	1.214210	0.394439
H76	H	0.425360	0.621568	0.346980
C77	C	-0.019284	0.435045	-0.014760
N78	N	-0.064016	0.408188	-0.051154
C79	C	0.402012	0.786959	0.328006
N80	N	0.446739	0.813820	0.364400
C81	C	0.252216	1.060995	0.877603
N82	N	0.314596	1.010127	0.922061
C83	C	0.081816	0.802322	0.067503
N84	N	0.064109	0.873621	0.053104
H85	H	-0.042646	0.600428	-0.033741
C86	C	-0.031364	1.292228	0.533785
N87	N	-0.093747	1.343095	0.489330
C88	C	-0.064017	1.318848	0.652239
N89	N	-0.126399	1.369715	0.607783
C90	C	0.414135	0.928982	0.780395
N91	N	0.476515	0.878114	0.824853
H92	H	-0.003819	1.269749	0.823699
H93	H	0.294694	1.026360	0.823840
H94	H	0.425275	0.919906	0.646604
C95	C	0.402030	0.938877	0.481211
N96	N	0.446753	0.902419	0.454366
