data_functionalizedCrystal
_audit_creation_method	'MofGen! by Chris Wilmer'
_symmetry_space_group_name_H-M	'P1'
_symmetry_Int_Tables_number	1
_symmetry_cell_setting	triclinic
loop_
_symmetry_equiv_pos_as_xyz
  x,y,z
_cell_length_a	25.427154
_cell_length_b	25.426324
_cell_length_c	25.422586
_cell_angle_alpha	60.006367
_cell_angle_beta	60.012446
_cell_angle_gamma	59.992398
loop_
_atom_site_label
_atom_site_type_symbol
_atom_site_fract_x
_atom_site_fract_y
_atom_site_fract_z
O1	O	0.072968	-0.768436	0.642532
O2	O	0.572968	-0.268436	1.142532
O3	O	0.027520	-0.598284	0.517710
O4	O	0.527520	-0.098284	1.017710
O5	O	0.135268	-0.705940	0.517611
O6	O	0.635268	-0.205940	1.017611
O7	O	-0.034780	-0.660780	0.642632
O8	O	0.465220	-0.160780	1.142632
O9	O	0.171018	-0.670200	0.553260
O10	O	0.671018	-0.170200	1.053260
O11	O	0.063270	-0.562544	0.553360
O12	O	0.563270	-0.062544	1.053360
O13	O	0.108718	-0.732696	0.678182
O14	O	0.608718	-0.232696	1.178182
Zn15	Zn	0.091670	-0.641945	0.621431
Zn16	Zn	0.591670	-0.141945	1.121431
Zn17	Zn	0.044568	-0.689034	0.574461
Zn18	Zn	0.544568	-0.189034	1.074461
O19	O	0.000970	-0.625039	0.678281
O20	O	0.500970	-0.125039	1.178281
N21	N	0.123818	-0.609812	0.653490
N22	N	0.623818	-0.109812	1.153490
N23	N	0.012426	-0.721173	0.542402
N24	N	0.512426	-0.221173	1.042402
C25	C	0.168482	-0.466269	0.698103
C26	C	0.668482	0.033731	1.198103
C27	C	0.168494	-0.565177	0.698095
C28	C	0.668494	-0.065177	1.198095
C29	C	0.193243	-0.540453	0.722807
C30	C	0.693243	-0.040453	1.222807
C31	C	0.301113	-0.521853	0.665993
C32	C	0.801113	-0.021853	1.165993
C33	C	0.368545	-0.544324	0.643486
C34	C	0.868545	-0.044324	1.143486
C35	C	0.368579	-0.653434	0.685090
C36	C	0.868579	-0.153434	1.185090
C37	C	0.301149	-0.630961	0.707599
C38	C	0.801149	-0.130961	1.207599
C39	C	0.184722	-0.432539	0.631812
C40	C	0.684722	0.067461	1.131812
C41	C	0.162210	-0.365100	0.609357
C42	C	0.662210	0.134900	1.109357
C43	C	0.107225	-0.365129	0.719489
C44	C	0.607225	0.134871	1.219489
C45	C	0.129737	-0.432567	0.741943
C46	C	0.629737	0.067433	1.241943
C47	C	0.102194	-0.548896	0.714421
C48	C	0.602194	-0.048896	1.214421
C49	C	0.079702	-0.571372	0.691949
C50	C	0.579702	-0.071372	1.191949
C51	C	0.189805	-0.626409	0.636839
C52	C	0.689805	-0.126409	1.136839
C53	C	0.212300	-0.603934	0.659303
C54	C	0.712300	-0.103934	1.159303
C55	C	0.102289	-0.548918	0.830735
C56	C	0.602289	-0.048918	1.330735
C57	C	0.079866	-0.571415	0.898171
C58	C	0.579866	-0.071415	1.398171
C59	C	0.190015	-0.626466	0.898104
C60	C	0.690015	-0.126466	1.398104
C61	C	0.212437	-0.603971	0.830666
C62	C	0.712437	-0.103971	1.330666
C63	C	0.168573	-0.565195	0.796984
C64	C	0.668573	-0.065195	1.296984
C65	C	0.267418	-0.565170	0.698047
C66	C	0.767418	-0.065170	1.198047
C67	C	-0.130981	-0.765617	0.497386
C68	C	0.369019	-0.265617	0.997386
C69	C	-0.032127	-0.765741	0.497606
C70	C	0.467873	-0.265741	0.997606
C71	C	-0.056804	-0.790430	0.472789
C72	C	0.443196	-0.290430	0.972789
C73	C	-0.075480	-0.898263	0.529507
C74	C	0.424520	-0.398263	1.029507
C75	C	-0.053057	-0.965702	0.552014
C76	C	0.446943	-0.465702	1.052014
C77	C	0.056052	-0.965829	0.510599
C78	C	0.556052	-0.465829	1.010599
C79	C	0.033627	-0.898392	0.488091
C80	C	0.533627	-0.398392	0.988091
C81	C	-0.164787	-0.781859	0.563659
C82	C	0.335213	-0.281859	1.063659
C83	C	-0.232219	-0.759299	0.586018
C84	C	0.267781	-0.259299	1.086018
C85	C	-0.232034	-0.704261	0.475827
C86	C	0.267966	-0.204261	0.975827
C87	C	-0.164602	-0.726821	0.453469
C88	C	0.335398	-0.226821	0.953469
C89	C	-0.048372	-0.699446	0.481299
C90	C	0.451628	-0.199446	0.981299
C91	C	-0.025938	-0.677008	0.503867
C92	C	0.474062	-0.177008	1.003867
C93	C	0.028987	-0.787155	0.559036
C94	C	0.528987	-0.287155	1.059036
C95	C	0.006552	-0.809596	0.536475
C96	C	0.506552	-0.309596	1.036475
C97	C	-0.048188	-0.699454	0.364860
C98	C	0.451812	-0.199454	0.864860
C99	C	-0.025608	-0.677017	0.297425
C100	C	0.474392	-0.177017	0.797425
C101	C	0.029406	-0.787170	0.297492
C102	C	0.529406	-0.287170	0.797492
C103	C	0.006827	-0.809605	0.364929
C104	C	0.506827	-0.309605	0.864929
C105	C	-0.031972	-0.765745	0.398611
C106	C	0.468028	-0.265745	0.898611
C107	C	-0.032140	-0.864611	0.497548
C108	C	0.467860	-0.364611	0.997548
N109	N	0.401319	-0.609788	0.653344
N110	N	0.901319	-0.109788	1.153344
O111	O	0.621664	-0.620517	0.494685
O112	O	1.121664	-0.120517	0.994685
O113	O	0.621901	-0.745740	0.664659
O114	O	1.121901	-0.245740	1.164659
O115	O	0.621803	-0.745452	0.556857
O116	O	1.121803	-0.245452	1.056857
O117	O	0.621762	-0.620805	0.602487
O118	O	1.121762	-0.120805	1.102487
O119	O	0.514676	-0.709815	0.592658
O120	O	1.014676	-0.209815	1.092658
O121	O	0.514774	-0.710104	0.700460
O122	O	1.014774	-0.210104	1.200460
O123	O	0.514537	-0.584881	0.530485
O124	O	1.014537	-0.084881	1.030485
Zn125	Zn	0.497647	-0.641834	0.621157
Zn126	Zn	0.997647	-0.141834	1.121157
Zn127	Zn	0.638791	-0.688787	0.573988
Zn128	Zn	1.138791	-0.188787	1.073988
O129	O	0.514635	-0.585169	0.638287
O130	O	1.014635	-0.085169	1.138287
N131	N	0.735119	-0.720834	0.541794
N132	N	1.235119	-0.220834	1.041794
N133	N	0.123794	-0.332357	0.653504
N134	N	0.623794	0.167643	1.153504
O135	O	-0.034774	-0.111885	0.642639
O136	O	0.465226	0.388115	1.142639
O137	O	0.135202	-0.111860	0.517412
O138	O	0.635202	0.388140	1.017412
O139	O	0.027364	-0.111888	0.517742
O140	O	0.527364	0.388112	1.017742
O141	O	0.073064	-0.111857	0.642310
O142	O	0.573064	0.388143	1.142310
O143	O	0.063120	-0.219026	0.553444
O144	O	0.563120	0.280974	1.053444
O145	O	0.170958	-0.218998	0.553115
O146	O	0.670958	0.281002	1.053115
O147	O	0.000983	-0.219022	0.678342
O148	O	0.500983	0.280978	1.178342
Zn149	Zn	0.091647	-0.236020	0.621397
Zn150	Zn	0.591647	0.263980	1.121397
Zn151	Zn	0.044537	-0.094862	0.574357
Zn152	Zn	0.544537	0.405138	1.074357
O153	O	0.108821	-0.218994	0.678013
O154	O	0.608821	0.281006	1.178013
N155	N	0.012383	0.001474	0.542251
N156	N	0.512383	0.501474	1.042251
N157	N	0.124036	-0.609854	0.930891
N158	N	0.624036	-0.109854	1.430891
O159	O	0.113202	-0.768401	1.151342
O160	O	0.613202	-0.268401	1.651342
O161	O	-0.011992	-0.598359	1.151385
O162	O	0.488008	-0.098359	1.651385
O163	O	-0.011700	-0.706176	1.151343
O164	O	0.488300	-0.206176	1.651343
O165	O	0.112910	-0.660584	1.151384
O166	O	0.612910	-0.160584	1.651384
O167	O	0.023980	-0.670446	1.044212
O168	O	0.523980	-0.170446	1.544212
O169	O	0.023689	-0.562630	1.044253
O170	O	0.523689	-0.062630	1.544253
O171	O	0.148882	-0.732671	1.044211
O172	O	0.648882	-0.232671	1.544211
Zn173	Zn	0.091951	-0.641977	1.027223
Zn174	Zn	0.591951	-0.141977	1.527223
Zn175	Zn	0.044940	-0.689053	1.168373
Zn176	Zn	0.544940	-0.189053	1.668373
O177	O	0.148590	-0.624854	1.044252
O178	O	0.648590	-0.124854	1.544252
N179	N	0.012853	-0.721183	1.264704
N180	N	0.512853	-0.221183	1.764704
C181	C	0.041135	-0.558973	0.518338
C182	C	0.541135	-0.058973	1.018338
C183	C	0.174567	-0.692292	0.518215
C184	C	0.674567	-0.192292	1.018215
C185	C	0.095103	-0.772007	0.677553
C186	C	0.595103	-0.272007	1.177553
C187	C	-0.038330	-0.638687	0.677677
C188	C	0.461670	-0.138687	1.177677
C189	C	0.568366	-0.745166	0.703974
C190	C	1.068366	-0.245166	1.203974
C191	C	0.568246	-0.744810	0.570474
C192	C	1.068246	-0.244810	1.070474
C193	C	0.568069	-0.585454	0.491172
C194	C	1.068069	-0.085454	0.991172
C195	C	0.568192	-0.585812	0.624671
C196	C	1.068192	-0.085812	1.124671
C197	C	0.174449	-0.165294	0.517975
C198	C	0.674449	0.334706	1.017975
C199	C	0.040949	-0.165460	0.518427
C200	C	0.540949	0.334540	1.018427
C201	C	-0.038309	-0.165456	0.677735
C202	C	0.461691	0.334544	1.177735
C203	C	0.095236	-0.165423	0.677328
C204	C	0.595236	0.334577	1.177328
C205	C	-0.011393	-0.559072	1.097824
C206	C	0.488607	-0.059072	1.597824
C207	C	-0.011024	-0.692583	1.097752
C208	C	0.488976	-0.192583	1.597752
C209	C	0.148283	-0.771958	1.097772
C210	C	0.648283	-0.271958	1.597772
C211	C	0.147922	-0.638440	1.097820
C212	C	0.647922	-0.138440	1.597820
H213	H	0.025889	-0.558152	0.925643
H214	H	0.525889	-0.058152	1.425643
O215	O	-0.058225	-0.500787	1.097866
O216	O	0.441775	-0.000787	1.597866
C217	C	-0.035034	-0.460699	1.097868
C218	C	0.464966	0.039301	1.597868
H219	H	0.006323	-0.491678	1.118149
H220	H	0.506323	0.008322	1.618149
H221	H	-0.075511	-0.429838	1.128981
H222	H	0.424489	0.070162	1.628981
H223	H	-0.017162	-0.428164	1.046477
H224	H	0.482838	0.071836	1.546477
O225	O	0.568262	-0.539176	0.636363
O226	O	1.068262	-0.039176	1.136363
C227	C	0.623788	-0.561331	0.651459
C228	C	1.123788	-0.061331	1.151459
H229	H	0.642338	-0.616243	0.669930
H230	H	1.142338	-0.116243	1.169930
H231	H	0.611335	-0.542725	0.690222
H232	H	1.111335	-0.042725	1.190222
H233	H	0.662588	-0.542941	0.606432
H234	H	1.162588	-0.042941	1.106432
H235	H	0.031160	-0.165463	0.479291
H236	H	0.531160	0.334537	0.979291
O237	O	0.232782	-0.703778	0.471317
O238	O	0.732782	-0.203778	0.971317
C239	C	0.224303	-0.696543	0.417045
C240	C	0.724303	-0.196543	0.917045
H241	H	0.177115	-0.703624	0.432563
H242	H	0.677115	-0.203624	0.932563
H243	H	0.266066	-0.733970	0.394060
H244	H	0.766066	-0.233970	0.894060
H245	H	0.222870	-0.646187	0.380629
H246	H	0.722870	-0.146187	0.880629
H247	H	0.187590	-0.820792	1.097751
H248	H	0.687590	-0.320792	1.597751
O249	O	0.106778	-0.830362	0.724245
O250	O	0.606778	-0.330362	1.224245
C251	C	0.170087	-0.870311	0.700874
C252	C	0.670087	-0.370311	1.200874
H253	H	0.187070	-0.852755	0.646007
H254	H	0.687070	-0.352755	1.146007
H255	H	0.170966	-0.921946	0.720549
H256	H	0.670966	-0.421946	1.220549
H257	H	0.203416	-0.868537	0.717169
H258	H	0.703416	-0.368537	1.217169
O259	O	-0.096623	-0.627278	0.724497
O260	O	0.403377	-0.127278	1.224497
C261	C	-0.125174	-0.671525	0.741852
C262	C	0.374826	-0.171525	1.241852
H263	H	-0.103872	-0.690319	0.700529
H264	H	0.396128	-0.190319	1.200529
H265	H	-0.179370	-0.646524	0.752442
H266	H	0.320630	-0.146524	1.252442
H267	H	-0.115370	-0.713510	0.786618
H268	H	0.384630	-0.213510	1.286618
H269	H	0.223163	-0.164989	0.478564
H270	H	0.723163	0.335011	0.978564
H271	H	0.187070	-0.628684	1.097824
H272	H	0.687070	-0.128684	1.597824
O273	O	-0.096592	-0.165423	0.724555
O274	O	0.403408	0.334577	1.224555
C275	C	-0.136696	-0.165449	0.701392
C276	C	0.363304	0.334551	1.201392
H277	H	-0.119275	-0.145178	0.646523
H278	H	0.380725	0.354822	1.146523
H279	H	-0.188292	-0.134338	0.721143
H280	H	0.311708	0.365662	1.221143
H281	H	-0.134953	-0.216849	0.717782
H282	H	0.365047	0.283151	1.217782
H283	H	0.568264	-0.783967	0.560707
H284	H	1.068264	-0.283967	1.060707
O285	O	0.107026	-0.165453	0.723961
O286	O	0.607026	0.334547	1.223961
C287	C	0.170339	-0.165429	0.700475
C288	C	0.670339	0.334571	1.200475
H289	H	0.200792	-0.185703	0.659118
H290	H	0.700792	0.314297	1.159118
H291	H	0.192043	-0.196538	0.740805
H292	H	0.692043	0.303462	1.240805
H293	H	0.169378	-0.114029	0.682513
H294	H	0.669378	0.385971	1.182513
H295	H	0.567992	-0.546139	0.442358
H296	H	1.067992	-0.046139	0.942358
O297	O	0.268278	-0.457970	0.656829
O298	O	0.768278	0.042030	1.156829
C299	C	0.229322	-0.448805	0.717028
C300	C	0.729322	0.051195	1.217028
H301	H	0.219245	-0.495171	0.754606
H302	H	0.719245	0.004829	1.254606
H303	H	0.181889	-0.408313	0.713158
H304	H	0.681889	0.091687	1.213158
H305	H	0.255329	-0.435519	0.731996
H306	H	0.755329	0.064481	1.231996
H307	H	0.225736	-0.658027	0.925521
H308	H	0.725736	-0.158027	1.425521
O309	O	0.059589	-0.511281	0.798116
O310	O	0.559589	-0.011281	1.298116
C311	C	-0.003724	-0.501722	0.842366
C312	C	0.496276	-0.001722	1.342366
H313	H	-0.003562	-0.542386	0.890425
H314	H	0.496438	-0.042386	1.390425
H315	H	-0.035763	-0.501368	0.822905
H316	H	0.464237	-0.001368	1.322905
H317	H	-0.023044	-0.453685	0.849550
H318	H	0.476956	0.046315	1.349550
O319	O	0.276850	-0.619822	0.797982
O320	O	0.776850	-0.119822	1.297982
C321	C	0.310753	-0.658880	0.842174
C322	C	0.810753	-0.158880	1.342174
H323	H	0.278622	-0.650283	0.890254
H324	H	0.778622	-0.150283	1.390254
H325	H	0.355749	-0.646236	0.822669
H326	H	0.855749	-0.146236	1.322669
H327	H	0.325305	-0.711701	0.849333
H328	H	0.825305	-0.211701	1.349333
H329	H	0.568427	-0.784476	0.752793
H330	H	1.068427	-0.284476	1.252793
H331	H	-0.050155	-0.702322	1.097697
H332	H	0.449845	-0.202322	1.597697
O333	O	0.059615	-0.511155	0.752002
O334	O	0.559615	-0.011155	1.252002
C335	C	0.020580	-0.454600	0.717986
C336	C	0.520580	0.045400	1.217986
H337	H	0.046583	-0.445210	0.664031
H338	H	0.546583	0.054790	1.164031
H339	H	0.010386	-0.412126	0.730059
H340	H	0.510386	0.087874	1.230059
H341	H	-0.026794	-0.460732	0.732362
H342	H	0.473206	0.039268	1.232362
O343	O	0.015293	-0.555642	0.707916
O344	O	0.515293	-0.055642	1.207916
C345	C	-0.012660	-0.578714	0.775463
C346	C	0.487340	-0.078714	1.275463
H347	H	0.025768	-0.620303	0.797169
H348	H	0.525768	-0.120303	1.297169
H349	H	-0.052404	-0.596232	0.788387
H350	H	0.447596	-0.096232	1.288387
H351	H	-0.033947	-0.538266	0.795451
H352	H	0.466053	-0.038266	1.295451
H353	H	0.266286	-0.617183	0.646003
H354	H	0.766286	-0.117183	1.146003
O355	O	0.232446	-0.664030	0.599146
O356	O	0.732446	-0.164030	1.099146
C357	C	0.295785	-0.673593	0.589576
C358	C	0.795785	-0.173593	1.089576
H359	H	0.295665	-0.632939	0.597115
H360	H	0.795665	-0.132939	1.097115
H361	H	0.327770	-0.673935	0.538424
H362	H	0.827770	-0.173935	1.038424
H363	H	0.315140	-0.721638	0.625450
H364	H	0.815140	-0.221638	1.125450
H365	H	0.273715	-0.666239	0.733700
H366	H	0.773715	-0.166239	1.233700
H367	H	0.395978	-0.509050	0.617384
H368	H	0.895978	-0.009050	1.117384
O369	O	0.401282	-0.717348	0.694323
O370	O	0.901282	-0.217348	1.194323
C371	C	0.384792	-0.737936	0.664036
C372	C	0.884792	-0.237936	1.164036
H373	H	0.335813	-0.703742	0.658323
H374	H	0.835813	-0.203742	1.158323
H375	H	0.382516	-0.788675	0.694722
H376	H	0.882516	-0.288675	1.194722
H377	H	0.422713	-0.738040	0.614574
H378	H	0.922713	-0.238040	1.114574
O379	O	0.222260	-0.465251	0.589205
O380	O	0.722260	0.034749	1.089205
C381	C	0.188174	-0.448759	0.550236
C382	C	0.688174	0.051241	1.050236
H383	H	0.134232	-0.430232	0.576302
H384	H	0.634232	0.069768	1.076302
H385	H	0.200235	-0.493106	0.540038
H386	H	0.700235	0.006894	1.040038
H387	H	0.202492	-0.409605	0.502858
H388	H	0.702492	0.090395	1.002858
O389	O	0.177871	-0.332300	0.544964
O390	O	0.677871	0.167700	1.044964
C391	C	0.121184	-0.293282	0.528705
C392	C	0.621184	0.206718	1.028705
H393	H	0.080698	-0.313618	0.566735
H394	H	0.580698	0.186382	1.066735
H395	H	0.130034	-0.292502	0.479753
H396	H	0.630034	0.207498	0.979753
H397	H	0.106983	-0.242176	0.526479
H398	H	0.606983	0.257824	1.026479
H399	H	0.116505	-0.460032	0.795926
H400	H	0.616505	0.039968	1.295926
O401	O	0.069666	-0.332452	0.762131
O402	O	0.569666	0.167548	1.262131
C403	C	0.103762	-0.348910	0.801076
C404	C	0.603762	0.151090	1.301076
H405	H	0.143029	-0.397869	0.801720
H406	H	0.643029	0.102131	1.301720
H407	H	0.069194	-0.351225	0.852225
H408	H	0.569194	0.148775	1.352225
H409	H	0.126631	-0.310945	0.780776
H410	H	0.626631	0.189055	1.280776
O411	O	-0.041485	-0.612610	0.264676
O412	O	0.458515	-0.112610	0.764676
C413	C	-0.109017	-0.584541	0.281051
C414	C	0.390983	-0.084541	0.781051
H415	H	-0.130768	-0.622902	0.299537
H416	H	0.369232	-0.122902	0.799537
H417	H	-0.121851	-0.544785	0.236659
H418	H	0.378149	-0.044785	0.736659
H419	H	-0.129039	-0.563238	0.320199
H420	H	0.370961	-0.063238	0.820199
O421	O	0.067101	-0.829863	0.264878
O422	O	0.567101	-0.329863	0.764878
C423	C	0.076553	-0.893184	0.309131
C424	C	0.576553	-0.393184	0.809131
H425	H	0.068948	-0.893050	0.357226
H426	H	0.568948	-0.393050	0.857226
H427	H	0.127694	-0.925258	0.289730
H428	H	0.627694	-0.425258	0.789730
H429	H	0.040661	-0.912448	0.316222
H430	H	0.540661	-0.412448	0.816222
O431	O	0.022468	-0.873989	0.397785
O432	O	0.522468	-0.373989	0.897785
C433	C	-0.034225	-0.890209	0.436681
C434	C	0.465775	-0.390209	0.936681
H435	H	-0.076584	-0.845733	0.446721
H436	H	0.423416	-0.345733	0.946721
H437	H	-0.028277	-0.929309	0.484138
H438	H	0.471723	-0.429309	0.984138
H439	H	-0.043657	-0.908702	0.410639
H440	H	0.456343	-0.408702	0.910639
O441	O	-0.085776	-0.656826	0.397556
O442	O	0.414224	-0.156826	0.897556
C443	C	-0.051713	-0.617887	0.381144
C444	C	0.448287	-0.117887	0.881144
H445	H	0.002234	-0.643982	0.362686
H446	H	0.502234	-0.143982	0.862686
H447	H	-0.063827	-0.607688	0.425512
H448	H	0.436173	-0.107688	0.925512
H449	H	-0.066003	-0.570504	0.341966
H450	H	0.433997	-0.070504	0.841966
O451	O	-0.086027	-0.656904	0.443619
O452	O	0.413973	-0.156904	0.943619
C453	C	-0.146003	-0.666526	0.474173
C454	C	0.353997	-0.166526	0.974173
H455	H	-0.140633	-0.717689	0.509819
H456	H	0.359367	-0.217689	1.009819
H457	H	-0.163211	-0.659002	0.436458
H458	H	0.336789	-0.159002	0.936458
H459	H	-0.182663	-0.630666	0.500948
H460	H	0.317337	-0.130666	1.000948
O461	O	-0.041593	-0.612626	0.488003
O462	O	0.458407	-0.112626	0.988003
C463	C	0.015101	-0.596423	0.454154
C464	C	0.515101	-0.096423	0.954154
H465	H	0.057418	-0.640907	0.466405
H466	H	0.557418	-0.140907	0.966405
H467	H	0.009067	-0.557328	0.468525
H468	H	0.509067	-0.057328	0.968525
H469	H	0.024664	-0.577930	0.400163
H470	H	0.524664	-0.077930	0.900163
O471	O	0.066532	-0.829845	0.596804
O472	O	0.566532	-0.329845	1.096804
C473	C	0.076072	-0.893168	0.606337
C474	C	0.576072	-0.393168	1.106337
H475	H	0.035450	-0.892996	0.598703
H476	H	0.535450	-0.392996	1.098703
H477	H	0.076340	-0.925174	0.657510
H478	H	0.576340	-0.425174	1.157510
H479	H	0.124140	-0.912540	0.570507
H480	H	0.624140	-0.412540	1.070507
H481	H	0.019779	-0.863579	0.549754
H482	H	0.519779	-0.363579	1.049754
H483	H	0.109606	-0.993335	0.502902
H484	H	0.609606	-0.493335	1.002902
O485	O	0.075814	-0.865801	0.457083
O486	O	0.575814	-0.365801	0.957083
C487	C	0.138671	-0.910080	0.453554
C488	C	0.638671	-0.410080	0.953554
H489	H	0.136043	-0.958129	0.493386
H490	H	0.636043	-0.458129	0.993386
H491	H	0.166328	-0.890634	0.459734
H492	H	0.666328	-0.390634	0.959734
H493	H	0.164470	-0.917283	0.404691
H494	H	0.664470	-0.417283	0.904691
H495	H	-0.088349	-0.993100	0.578027
H496	H	0.411651	-0.493100	1.078027
O497	O	0.029671	-0.500691	0.471503
O498	O	0.529671	-0.000691	0.971503
C499	C	0.085003	-0.500543	0.415946
C500	C	0.585003	-0.000543	0.915946
H501	H	0.129262	-0.538639	0.430073
H502	H	0.629262	-0.038639	0.930073
H503	H	0.090693	-0.451111	0.391896
H504	H	0.590693	0.048889	0.891896
H505	H	0.079799	-0.511758	0.380945
H506	H	0.579799	-0.011758	0.880945
H507	H	-0.137414	-0.813456	0.599420
H508	H	0.362586	-0.313456	1.099420
O509	O	-0.139380	-0.865551	0.538702
O510	O	0.360620	-0.365551	1.038702
C511	C	-0.172823	-0.909720	0.571742
C512	C	0.327177	-0.409720	1.071742
H513	H	-0.138214	-0.957819	0.564017
H514	H	0.361786	-0.457819	1.064017
H515	H	-0.213420	-0.890205	0.552532
H516	H	0.286580	-0.390205	1.052532
H517	H	-0.193877	-0.916850	0.625391
H518	H	0.306123	-0.416850	1.125391
H519	H	-0.259745	-0.772522	0.639985
H520	H	0.240255	-0.272522	1.139985
H521	H	-0.259410	-0.672678	0.440065
H522	H	0.240590	-0.172678	0.940065
H523	H	-0.137077	-0.713589	0.399501
H524	H	0.362923	-0.213589	0.899501
