data_functionalizedCrystal
_audit_creation_method	'MofGen! by Chris Wilmer'
_symmetry_space_group_name_H-M	'P1'
_symmetry_Int_Tables_number	1
_symmetry_cell_setting	triclinic
loop_
_symmetry_equiv_pos_as_xyz
  x,y,z
_cell_length_a	18.101398
_cell_length_b	19.121063
_cell_length_c	18.101389
_cell_angle_alpha	92.419391
_cell_angle_beta	89.975673
_cell_angle_gamma	92.464489
loop_
_atom_site_label
_atom_site_type_symbol
_atom_site_fract_x
_atom_site_fract_y
_atom_site_fract_z
Zn1	Zn	1.119554	-0.279777	-0.431404
Zn2	Zn	1.114175	-0.397213	-0.312837
Zn3	Zn	0.995713	-0.279770	-0.307565
Zn4	Zn	0.990390	-0.397183	-0.436624
O5	O	1.054958	-0.338486	-0.372107
O6	O	1.222473	-0.295371	-0.415698
O7	O	1.098437	-0.381644	-0.208505
O8	O	1.016620	-0.181486	-0.319601
O9	O	1.218521	-0.381651	-0.328587
O10	O	1.107605	-0.181491	-0.410586
O11	O	1.011404	-0.295359	-0.204632
O12	O	0.891375	-0.295330	-0.324663
O13	O	1.007547	-0.381599	-0.539564
O14	O	0.887464	-0.381592	-0.419482
O15	O	1.102443	-0.295342	-0.535729
O16	O	1.093276	-0.495494	-0.333648
O17	O	1.002331	-0.495472	-0.424594
C18	C	0.862549	-0.338457	-0.372067
C19	C	0.780234	-0.338462	-0.372069
C20	C	0.481141	-0.338506	-0.372133
C21	C	0.514915	-0.283961	-0.312742
C22	C	0.600526	-0.284107	-0.312506
C23	C	0.629525	-0.338484	-0.372101
C24	C	0.595084	-0.412466	-0.354099
C25	C	0.509452	-0.412163	-0.353690
C26	C	0.513600	-0.319712	-0.449688
C27	C	0.599325	-0.318065	-0.449186
C28	C	0.713385	-0.338476	-0.372084
C29	C	0.397281	-0.338519	-0.372148
C30	C	1.046662	-0.520967	-0.380276
C31	C	1.043181	-0.599034	-0.383795
C32	C	1.088932	-0.635698	-0.338137
C33	C	1.085662	-0.709049	-0.341451
C34	C	1.036637	-0.745735	-0.390420
C35	C	0.990884	-0.709066	-0.436083
C36	C	0.994158	-0.635716	-0.432772
C37	C	1.024385	-0.967206	-0.402788
C38	C	1.021113	-1.040562	-0.406094
C39	C	1.115892	-1.040539	-0.311462
C40	C	1.119159	-0.967188	-0.308152
C41	C	1.073408	-0.930525	-0.353818
C42	C	1.033292	-0.820713	-0.393807
C43	C	1.076758	-0.855549	-0.350434
C44	C	1.248119	-0.338515	-0.372148
C45	C	1.330432	-0.338528	-0.372165
C46	C	1.055002	-0.338468	-0.565269
C47	C	1.055020	-0.338461	-0.647582
C48	C	1.063306	-0.155292	-0.363923
C49	C	1.066864	-0.077226	-0.360436
C50	C	1.055069	-0.338329	-0.946668
C51	C	0.995174	-0.392427	-0.917747
C52	C	0.995318	-0.392678	-0.832140
C53	C	1.055044	-0.338394	-0.798288
C54	C	1.132167	-0.358491	-0.830296
C55	C	1.131831	-0.358846	-0.915957
C56	C	1.038526	-0.264013	-0.911754
C57	C	1.036771	-0.264443	-0.826122
C58	C	1.055035	-0.338430	-0.714430
C59	C	1.055084	-0.338295	-1.030526
C60	C	1.054959	-0.338453	-0.179695
C61	C	1.055093	-0.338263	-0.097373
H62	H	0.494409	-0.266704	-0.466696
H63	H	0.622115	-0.263622	-0.462821
N64	N	0.975033	-0.927669	-0.452030
H65	H	1.006464	-0.897199	-0.485010
H66	H	0.943486	-0.962087	-0.483501
H67	H	0.619076	-0.354899	-0.495539
N68	N	0.484410	-0.372335	-0.508254
H69	H	0.450328	-0.408177	-0.484706
H70	H	0.456287	-0.347388	-0.546692
H71	H	0.956904	-0.605865	-0.469953
H72	H	1.159079	-0.937319	-0.268278
H73	H	1.153140	-1.070398	-0.274285
H74	H	0.981200	-1.070430	-0.445983
H75	H	0.488724	-0.428103	-0.297092
H76	H	1.177791	-0.321154	-0.935005
N77	N	1.141807	-0.596131	-0.285317
H78	H	1.170295	-0.630491	-0.256898
H79	H	1.177420	-0.565659	-0.314123
N80	N	1.135008	-0.748595	-0.292206
H81	H	1.166558	-0.714224	-0.260678
H82	H	1.103521	-0.779068	-0.259282
H83	H	0.993375	-0.850591	-0.433677
N84	N	0.938009	-0.748631	-0.488904
H85	H	0.942874	-0.800662	-0.484072
H86	H	0.885696	-0.735850	-0.476746
N87	N	0.631666	-0.211436	-0.326937
H88	H	0.687464	-0.211392	-0.326808
H89	H	0.613830	-0.196898	-0.376639
N90	N	1.129631	-0.815979	-0.297620
H91	H	1.117587	-0.828775	-0.245272
H92	H	1.181951	-0.828714	-0.309809
N93	N	0.919437	-0.375989	-0.803523
H94	H	0.885591	-0.368406	-0.846534
H95	H	0.898856	-0.416297	-0.774407
N96	N	0.919036	-0.375932	-0.944253
H97	H	0.922627	-0.333234	-0.975268
H98	H	0.897428	-0.417157	-0.974962
N99	N	1.009140	-0.464955	-0.949489
H100	H	1.054094	-0.462921	-0.982525
H101	H	1.017915	-0.497182	-0.907878
H102	H	1.005969	-0.447763	-0.814132
N103	N	1.150923	-0.430804	-0.945667
H104	H	1.159477	-0.461995	-0.903105
H105	H	1.108795	-0.451530	-0.977217
N106	N	0.479496	-0.467814	-0.408727
H107	H	0.521924	-0.492436	-0.433144
H108	H	0.446957	-0.502929	-0.382270
H109	H	0.620422	-0.296530	-0.254971
N110	N	1.151681	-0.429690	-0.805101
H111	H	1.201396	-0.442155	-0.825985
H112	H	1.153862	-0.428662	-0.749313
N113	N	0.961617	-0.244361	-0.798285
H114	H	0.966822	-0.199577	-0.766737
H115	H	0.928224	-0.237092	-0.841730
N116	N	0.619545	-0.467741	-0.409811
H117	H	0.653274	-0.445304	-0.447343
H118	H	0.646908	-0.504382	-0.383566
H119	H	1.177847	-0.320327	-0.808236
H120	H	0.983441	-0.245705	-0.932518
H121	H	0.615770	-0.428682	-0.298133
N122	N	1.090690	-0.208212	-0.795277
H123	H	1.127895	-0.229977	-0.762679
H124	H	1.117240	-0.184838	-0.837326
H125	H	1.082192	-0.223708	-0.930220
H126	H	0.496816	-0.228932	-0.323490
N127	N	0.485382	-0.300031	-0.237015
H128	H	0.450251	-0.342512	-0.241007
H129	H	0.527792	-0.309688	-0.203209
