data_functionalizedCrystal
_audit_creation_method	'MofGen! by Chris Wilmer'
_symmetry_space_group_name_H-M	'P1'
_symmetry_Int_Tables_number	1
_symmetry_cell_setting	triclinic
loop_
_symmetry_equiv_pos_as_xyz
  x,y,z
_cell_length_a	14.908571
_cell_length_b	15.297327
_cell_length_c	14.908308
_cell_angle_alpha	77.691786
_cell_angle_beta	89.824947
_cell_angle_gamma	96.991395
loop_
_atom_site_label
_atom_site_type_symbol
_atom_site_fract_x
_atom_site_fract_y
_atom_site_fract_z
Zn1	Zn	1.259455	-0.470251	0.663960
Zn2	Zn	1.759455	0.029749	1.163960
Zn3	Zn	1.242018	-0.612780	0.536750
Zn4	Zn	1.742018	-0.112780	1.036750
Zn5	Zn	1.120930	-0.452943	0.502147
Zn6	Zn	1.620930	0.047057	1.002147
Zn7	Zn	1.083241	-0.611710	0.678228
Zn8	Zn	1.583241	-0.111710	1.178228
O9	O	1.176411	-0.536921	0.595271
O10	O	1.676411	-0.036921	1.095271
O11	O	1.381564	-0.496849	0.655596
O12	O	1.881564	0.003151	1.155596
O13	O	1.234431	-0.584782	0.405232
O14	O	1.734431	-0.084782	0.905232
O15	O	1.162376	-0.329146	0.503159
O16	O	1.662376	0.170854	1.003159
O17	O	1.368753	-0.601565	0.562136
O18	O	1.868753	-0.101565	1.062136
O19	O	1.264150	-0.341862	0.622043
O20	O	1.764150	0.158138	1.122043
O21	O	1.145468	-0.467350	0.379809
O22	O	1.645468	0.032650	0.879809
O23	O	0.991508	-0.466312	0.516994
O24	O	1.491508	0.033688	1.016994
O25	O	1.098141	-0.599740	0.803264
O26	O	1.598141	-0.099740	1.303264
O27	O	0.963819	-0.582958	0.646360
O28	O	1.463819	-0.082958	1.146360
O29	O	1.227605	-0.495811	0.792781
O30	O	1.727605	0.004189	1.292781
O31	O	1.197885	-0.738732	0.575970
O32	O	1.697885	-0.238732	1.075970
O33	O	1.081233	-0.737945	0.679913
O34	O	1.581233	-0.237945	1.179913
C35	C	0.945402	-0.522641	0.579471
C36	C	1.445402	-0.022641	1.079471
C37	C	0.846570	-0.516555	0.572737
C38	C	1.346570	-0.016555	1.072737
C39	C	0.632047	-0.626752	0.694664
C40	C	1.132047	-0.126752	1.194664
C41	C	0.539185	-0.621037	0.688340
C42	C	1.039185	-0.121037	1.188340
C43	C	0.567982	-0.499405	0.553769
C44	C	1.067982	0.000595	1.053769
C45	C	0.660844	-0.505121	0.560093
C46	C	1.160844	-0.005121	1.060093
C47	C	0.692873	-0.568797	0.630542
C48	C	1.192873	-0.068797	1.130542
C49	C	0.785736	-0.574516	0.636861
C50	C	1.285736	-0.074516	1.136861
C51	C	0.814532	-0.452881	0.502295
C52	C	1.314532	0.047119	1.002295
C53	C	0.721670	-0.447166	0.495971
C54	C	1.221670	0.052834	0.995971
C55	C	1.133600	-0.771036	0.633267
C56	C	1.633600	-0.271036	1.133267
C57	C	1.115365	-0.871198	0.649557
C58	C	1.615365	-0.371198	1.149557
C59	C	1.307088	-1.155071	0.479176
C60	C	1.807088	-0.655071	0.979176
C61	C	1.324221	-1.060963	0.463866
C62	C	1.824221	-0.560963	0.963866
C63	C	1.272009	-1.013517	0.510288
C64	C	1.772009	-0.513517	1.010288
C65	C	1.202660	-1.060188	0.572022
C66	C	1.702660	-0.560188	1.072022
C67	C	1.185521	-1.154304	0.587328
C68	C	1.685521	-0.654304	1.087328
C69	C	1.150441	-1.012750	0.618439
C70	C	1.650441	-0.512750	1.118439
C71	C	1.081092	-1.059421	0.680173
C72	C	1.581092	-0.559421	1.180173
C73	C	1.063957	-1.153528	0.695477
C74	C	1.563957	-0.653528	1.195477
C75	C	1.116169	-1.200974	0.649056
C76	C	1.616169	-0.700974	1.149056
C77	C	1.167580	-0.918634	0.603133
C78	C	1.667580	-0.418634	1.103133
C79	C	1.046013	-0.917868	0.711285
C80	C	1.546013	-0.417868	1.211285
C81	C	1.028880	-1.011975	0.726595
C82	C	1.528880	-0.511975	1.226595
C83	C	1.408322	-0.551257	0.611134
C84	C	1.908322	-0.051257	1.111134
C85	C	1.507148	-0.557366	0.617894
C86	C	2.007148	-0.057366	1.117894
C87	C	1.160614	-0.549587	0.831854
C88	C	1.660614	-0.049587	1.331854
C89	C	1.153882	-0.554984	0.932671
C90	C	1.653882	-0.054984	1.432671
C91	C	1.219412	-0.301895	0.557150
C92	C	1.719412	0.198105	1.057150
C93	C	1.237736	-0.201741	0.540904
C94	C	1.737736	0.298259	1.040904
C95	C	1.192210	-0.524243	0.359602
C96	C	1.692210	-0.024243	0.859602
C97	C	1.199160	-0.518602	0.258756
C98	C	1.699160	-0.018602	0.758756
C99	C	1.276044	-0.456884	1.111201
C100	C	1.776044	0.043116	1.611201
C101	C	1.269722	-0.461953	1.205927
C102	C	1.769722	0.038047	1.705927
C103	C	1.134914	-0.570184	1.216852
C104	C	1.634914	-0.070184	1.716852
C105	C	1.141235	-0.565116	1.122125
C106	C	1.641235	-0.065116	1.622125
C107	C	1.211804	-0.508465	1.069303
C108	C	1.711804	-0.008465	1.569303
C109	C	1.218128	-0.503402	0.974576
C110	C	1.718128	-0.003402	1.474576
C111	C	1.083317	-0.611628	0.985501
C112	C	1.583317	-0.111628	1.485501
C113	C	1.076995	-0.616697	1.080227
C114	C	1.576995	-0.116697	1.580227
H115	H	0.864067	-0.405692	0.450081
H116	H	1.364067	0.094308	0.950081
H117	H	1.003496	-0.879237	0.749083
H118	H	1.503496	-0.379237	1.249083
H119	H	1.275590	-0.457275	0.931569
H120	H	1.775590	0.042725	1.431569
O121	O	1.352153	-0.395790	1.054219
O122	O	1.852153	0.104210	1.554219
H123	H	1.395762	-0.360771	1.099268
H124	H	1.895762	0.139229	1.599268
O125	O	1.058793	-0.631267	1.273826
O126	O	1.558793	-0.131267	1.773826
H127	H	1.065191	-0.626120	1.346733
H128	H	1.565191	-0.126120	1.846733
H129	H	1.322031	-0.419948	1.240036
H130	H	1.822031	0.080052	1.740036
H131	H	1.224045	-0.880644	0.552868
H132	H	1.724045	-0.380644	1.052868
O133	O	0.666597	-0.695413	0.770659
O134	O	1.166597	-0.195413	1.270659
H135	H	0.741389	-0.689647	0.764286
H136	H	1.241389	-0.189647	1.264286
H137	H	0.695579	-0.395320	0.438616
H138	H	1.195579	0.104680	0.938616
H139	H	1.285962	-0.936891	0.497817
H140	H	1.785962	-0.436891	0.997817
H141	H	1.349587	-1.193709	0.441381
H142	H	1.849587	-0.693709	0.941381
O143	O	0.820295	-0.643179	0.712849
O144	O	1.320295	-0.143179	1.212849
H145	H	0.790597	-0.711947	0.707459
H146	H	1.290597	-0.211947	1.207459
O147	O	0.473566	-0.683619	0.757431
O148	O	0.973566	-0.183619	1.257431
H149	H	0.511439	-0.728885	0.807450
H150	H	1.011439	-0.228885	1.307450
O151	O	0.533427	-0.430758	0.477764
O152	O	1.033427	0.069242	0.977764
H153	H	0.458633	-0.436537	0.484131
H154	H	0.958633	0.063463	0.984131
O155	O	1.000883	-0.677790	1.137205
O156	O	1.500883	-0.177790	1.637205
H157	H	1.004406	-0.748479	1.131539
H158	H	1.504406	-0.248479	1.631539
H159	H	1.031010	-0.653632	0.951379
H160	H	1.531010	-0.153632	1.451379
H161	H	1.380683	-1.022967	0.413602
H162	H	1.880683	-0.522967	0.913602
H163	H	1.102225	-1.277604	0.661521
H164	H	1.602225	-0.777604	1.161521
H165	H	1.007479	-1.191523	0.745734
H166	H	1.507479	-0.691523	1.245734
O167	O	0.954071	-1.062312	0.793164
O168	O	1.454071	-0.562312	1.293164
H169	H	0.950922	-1.135722	0.795996
H170	H	1.450922	-0.635722	1.295996
