data_functionalizedCrystal
_audit_creation_method	'MofGen! by Chris Wilmer'
_symmetry_space_group_name_H-M	'P1'
_symmetry_Int_Tables_number	1
_symmetry_cell_setting	triclinic
loop_
_symmetry_equiv_pos_as_xyz
  x,y,z
_cell_length_a	10.654541
_cell_length_b	10.654547
_cell_length_c	14.586319
_cell_angle_alpha	89.995773
_cell_angle_beta	89.996435
_cell_angle_gamma	84.484992
loop_
_atom_site_label
_atom_site_type_symbol
_atom_site_fract_x
_atom_site_fract_y
_atom_site_fract_z
O1	O	0.176414	1.667837	-0.076256
O2	O	0.193217	1.302359	-0.076254
O3	O	0.002076	1.493502	-0.076249
O4	O	0.367555	1.476693	-0.076260
O5	O	0.002073	1.493489	0.076231
O6	O	0.193214	1.302345	0.076227
O7	O	0.176411	1.667824	0.076225
Cu8	Cu	0.184812	1.485083	0.090149
Cu9	Cu	0.184816	1.485099	-0.090178
O10	O	0.367552	1.476680	0.076220
C11	C	0.191981	1.255554	-0.000013
C12	C	0.188287	1.116111	-0.000013
C13	C	-0.044724	1.492262	-0.000009
C14	C	-0.184167	1.488571	-0.000011
C15	C	0.181329	0.854106	-0.166264
C16	C	0.183067	0.919631	-0.249381
C17	C	0.186547	1.050648	-0.249379
C18	C	0.188285	1.116144	-0.166250
C19	C	0.186546	1.050619	-0.083132
C20	C	0.183070	0.919598	-0.083144
C21	C	0.186549	1.050585	0.083105
C22	C	0.183078	0.919567	0.083104
C23	C	0.188286	1.116081	0.166234
C24	C	0.186557	1.050554	0.249353
C25	C	0.183078	0.919529	0.249347
C26	C	0.181340	0.854041	0.166222
C27	C	-0.212136	1.717136	-0.000000
C28	C	-0.291629	1.829679	0.000007
C29	C	-0.422647	1.826203	0.000004
C30	C	-0.474173	1.710172	-0.000009
C31	C	-0.394680	1.597629	-0.000016
C32	C	-0.263661	1.601117	-0.000010
C33	C	-0.366712	1.369068	-0.000033
C34	C	-0.235693	1.372540	-0.000024
C35	C	-0.418238	1.253037	-0.000046
C36	C	-0.338745	1.140491	-0.000047
C37	C	-0.207719	1.143971	-0.000043
C38	C	-0.156200	1.259997	-0.000031
C39	C	0.414351	1.477920	-0.000022
C40	C	0.553795	1.481611	-0.000026
C41	C	0.177647	1.714628	-0.000018
C42	C	0.181340	1.854071	-0.000024
N43	N	0.184809	1.485081	0.216980
N44	N	0.184809	1.485111	-0.217009
C45	C	0.100201	1.569748	0.451989
C46	C	0.100198	1.569752	0.547970
C47	C	0.269421	1.400435	0.547975
C48	C	0.269417	1.400426	0.451996
C49	C	0.184809	1.485090	0.404005
C50	C	0.184810	1.485102	0.595966
C51	C	0.184807	1.485105	0.700033
C52	C	0.184809	1.485085	0.299931
H53	H	0.178512	0.747422	-0.166274
O54	O	0.188437	1.121188	0.339007
H55	H	0.191151	1.223300	0.325044
O56	O	0.008918	1.661023	0.400220
H57	H	0.062327	1.722531	0.356476
H58	H	0.181668	0.866185	0.317032
H59	H	0.031301	1.638686	0.587036
H60	H	0.338315	1.331481	0.412925
H61	H	-0.487371	1.917846	0.000002
O62	O	-0.559551	1.249293	-0.000044
H63	H	-0.588063	1.199068	-0.062201
O64	O	0.177544	0.712735	0.166199
H65	H	0.262056	0.667721	0.130300
H66	H	0.338310	1.331505	0.587059
O67	O	0.192022	1.257458	-0.166240
H68	H	0.278385	1.281545	-0.130356
H69	H	0.187961	1.103999	-0.317060
O70	O	-0.236054	1.954822	0.000014
H71	H	-0.267921	2.008947	0.062161
H72	H	0.191111	1.222763	0.166230
O73	O	0.181191	0.849000	-0.339043
H74	H	0.265061	0.778863	-0.343034
O75	O	-0.070823	1.720880	0.000009
H76	H	-0.048348	1.820465	0.000014
O77	O	-0.615485	1.706416	-0.000012
H78	H	-0.662105	1.804166	-0.000001
O79	O	-0.394314	1.015353	-0.000052
H80	H	-0.498773	1.031844	-0.000051
H81	H	-0.143002	1.052324	-0.000052
H82	H	-0.049520	1.262842	-0.000022
