data_functionalizedCrystal
_audit_creation_method	'MofGen! by Chris Wilmer'
_symmetry_space_group_name_H-M	'P1'
_symmetry_Int_Tables_number	1
_symmetry_cell_setting	triclinic
loop_
_symmetry_equiv_pos_as_xyz
  x,y,z
_cell_length_a	18.050589
_cell_length_b	13.033409
_cell_length_c	13.032268
_cell_angle_alpha	105.162573
_cell_angle_beta	97.149417
_cell_angle_gamma	82.858570
loop_
_atom_site_label
_atom_site_type_symbol
_atom_site_fract_x
_atom_site_fract_y
_atom_site_fract_z
Zn1	Zn	-0.470694	1.547316	-0.393965
Zn2	Zn	0.029306	2.047316	0.106035
Zn3	Zn	-0.580893	1.569740	-0.216379
Zn4	Zn	-0.080893	2.069740	0.283621
Zn5	Zn	-0.442760	1.392276	-0.238970
Zn6	Zn	0.057240	1.892276	0.261030
Zn7	Zn	-0.580865	1.369657	-0.416530
Zn8	Zn	-0.080865	1.869657	0.083470
O9	O	-0.518803	1.469748	-0.316461
O10	O	-0.018803	1.969748	0.183539
O11	O	-0.497014	1.698911	-0.351510
O12	O	0.002986	2.198911	0.148490
O13	O	-0.550891	1.565050	-0.070746
O14	O	-0.050891	2.065050	0.429254
O15	O	-0.342549	1.412925	-0.259542
O16	O	0.157451	1.912925	0.240458
O17	O	-0.577976	1.715386	-0.221038
O18	O	-0.077976	2.215386	0.278962
O19	O	-0.363072	1.526832	-0.373416
O20	O	0.136928	2.026832	0.126584
O21	O	-0.449405	1.434668	-0.087344
O22	O	0.050595	1.934668	0.412656
O23	O	-0.449378	1.240656	-0.281422
O24	O	0.050622	1.740656	0.218578
O25	O	-0.577929	1.374374	-0.562167
O26	O	-0.077929	1.874374	-0.062167
O27	O	-0.550843	1.224038	-0.411874
O28	O	-0.050843	1.724038	0.088126
O29	O	-0.496987	1.504899	-0.545588
O30	O	0.003013	2.004899	-0.045588
O31	O	-0.684805	1.543117	-0.242918
O32	O	-0.184805	2.043117	0.257082
O33	O	-0.684785	1.396117	-0.389968
O34	O	-0.184785	1.896117	0.110032
C35	C	-0.497077	1.193811	-0.351549
C36	C	0.002923	1.693811	0.148451
C37	C	-0.487803	1.075761	-0.366585
C38	C	0.012197	1.575761	0.133415
C39	C	-0.514064	0.909281	-0.324175
C40	C	-0.014064	1.409281	0.175825
C41	C	-0.523652	1.031292	-0.308629
C42	C	-0.023652	1.531292	0.191371
C43	C	-0.711744	1.469622	-0.316460
C44	C	-0.211744	1.969622	0.183540
C45	C	-0.794295	1.469660	-0.316482
C46	C	-0.294295	1.969660	0.183518
C47	C	-0.993765	1.389795	-0.396415
C48	C	-0.493765	1.889795	0.103585
C49	C	-1.033537	1.376220	-0.302788
C50	C	-0.533537	1.876220	0.197212
C51	C	-0.945435	1.469763	-0.316483
C52	C	-0.445435	1.969763	0.183517
C53	C	-1.052749	1.483389	-0.410114
C54	C	-0.552749	1.983389	0.089886
C55	C	-1.091429	1.469859	-0.316492
C56	C	-0.591429	1.969859	0.183508
C57	C	-0.984111	1.456144	-0.222811
C58	C	-0.484111	1.956144	0.277189
C59	C	-1.003328	1.563349	-0.330197
C60	C	-0.503328	2.063349	0.169803
C61	C	-1.043075	1.549820	-0.236499
C62	C	-0.543075	2.049820	0.263501
C63	C	-0.861331	1.469705	-0.316479
C64	C	-0.361331	1.969705	0.183521
C65	C	-1.175530	1.469919	-0.316485
C66	C	-0.675530	1.969919	0.183515
C67	C	-0.325113	1.469900	-0.316482
C68	C	0.174887	1.969900	0.183518
C69	C	-0.242574	1.469965	-0.316491
C70	C	0.257426	1.969965	0.183509
C71	C	-0.540571	1.434612	-0.593493
C72	C	-0.040571	1.934612	-0.093493
C73	C	-0.549847	1.419639	-0.711548
C74	C	-0.049847	1.919639	-0.211548
C75	C	-0.540614	1.746761	-0.281237
C76	C	-0.040614	2.246761	0.218763
C77	C	-0.549909	1.864808	-0.266227
C78	C	-0.049909	2.364808	0.233773
C79	C	-0.513934	1.477545	-0.755978
C80	C	-0.013934	1.977545	-0.255978
C81	C	-0.523520	1.462072	-0.877993
C82	C	-0.023520	1.962072	-0.377993
C83	C	-0.497071	1.504808	-0.040499
C84	C	0.002929	2.004808	0.459501
C85	C	-0.487602	1.519986	0.077581
C86	C	0.012398	2.019986	0.577581
H87	H	-0.561445	1.083542	-0.247510
H88	H	-0.061445	1.583542	0.252490
Cl89	Cl	-0.960314	1.285271	-0.500664
Cl90	Cl	-0.460314	1.785271	-0.000664
H91	H	-0.587699	0.917061	-0.205113
H92	H	-0.087699	1.417061	0.294887
Cl93	Cl	-1.054514	1.254095	-0.284869
Cl94	Cl	-0.554514	1.754095	0.215131
H95	H	-0.449751	1.581016	-0.870131
H96	H	0.050249	2.081016	-0.370131
Cl97	Cl	-0.429461	0.995100	-0.460961
Cl98	Cl	0.070539	1.495100	0.039039
Cl99	Cl	-0.938189	1.438267	-0.100547
Cl100	Cl	-0.438189	1.938267	0.399453
H101	H	-0.587685	1.358602	-0.763842
H102	H	-0.087685	1.858602	-0.263842
H103	H	-0.476282	0.857027	-0.385299
H104	H	0.023718	1.357027	0.114701
Cl105	Cl	-1.076291	1.654309	-0.132041
Cl106	Cl	-0.576291	2.154309	0.367959
Cl107	Cl	-0.982324	1.685435	-0.348163
Cl108	Cl	-0.482324	2.185435	0.151837
Cl109	Cl	-1.098804	1.501125	-0.532358
Cl110	Cl	-0.598804	2.001125	-0.032358
H111	H	-0.561361	1.401030	-0.930284
H112	H	-0.061361	1.901030	-0.430284
Cl113	Cl	-0.455483	1.571750	-0.675252
Cl114	Cl	0.044517	2.071750	-0.175252
