data_functionalizedCrystal
_audit_creation_method	'MofGen! by Chris Wilmer'
_symmetry_space_group_name_H-M	'P1'
_symmetry_Int_Tables_number	1
_symmetry_cell_setting	triclinic
loop_
_symmetry_equiv_pos_as_xyz
  x,y,z
_cell_length_a	11.792241
_cell_length_b	9.616153
_cell_length_c	11.792241
_cell_angle_alpha	90.002388
_cell_angle_beta	84.193416
_cell_angle_gamma	90.002674
loop_
_atom_site_label
_atom_site_type_symbol
_atom_site_fract_x
_atom_site_fract_y
_atom_site_fract_z
O1	O	1.506913	0.115511	0.155563
O2	O	1.176572	0.115544	0.171596
O3	O	1.349759	0.115517	-0.001591
O4	O	1.333726	0.115538	0.328750
O5	O	1.349735	-0.115775	-0.001587
O6	O	1.176548	-0.115748	0.171600
O7	O	1.506889	-0.115780	0.155567
Zn8	Zn	1.341715	-0.152487	0.163584
Zn9	Zn	1.341746	0.152250	0.163579
O10	O	1.333702	-0.115753	0.328754
C11	C	1.134269	-0.000098	0.170591
C12	C	1.008255	-0.000086	0.167576
C13	C	0.777543	-0.000126	0.162034
C14	C	0.905928	-0.000104	0.165113
N15	N	1.341702	-0.360461	0.163587
C16	C	1.248777	-0.580817	0.255921
C17	C	1.248980	-0.419649	0.256265
C18	C	1.460293	-0.418920	0.190184
C19	C	1.459787	-0.580138	0.190837
C20	C	1.317218	-0.580377	0.044350
C21	C	1.314492	-0.419150	0.045131
C22	C	1.549192	-0.000136	0.156572
C23	C	1.675206	-0.000139	0.159587
C24	C	1.348740	-0.000128	-0.043880
C25	C	1.345726	-0.000127	-0.169894
N26	N	1.341768	0.360224	0.163568
C27	C	1.340183	-0.000103	-0.400606
C28	C	1.343262	-0.000116	-0.272221
C29	C	1.334721	-0.000105	0.371043
C30	C	1.337736	-0.000098	0.497057
H31	H	1.160853	-0.380127	0.240311
H32	H	1.160373	-0.619620	0.240216
H33	H	1.264317	-0.621311	0.343877
Cl34	Cl	1.494281	-0.356561	0.322934
H35	H	1.481309	-0.617723	0.277804
Cl36	Cl	1.273246	-0.360069	0.392848
H37	H	1.531183	-0.619137	0.126263
H38	H	1.531167	-0.380578	0.124740
Cl39	Cl	1.186530	-0.643212	0.005161
Cl40	Cl	1.179799	-0.360163	0.013988
H41	H	1.377760	-0.378866	-0.026869
H42	H	1.385023	-0.618504	-0.024385
