data_functionalizedCrystal
_audit_creation_method	'MofGen! by Chris Wilmer'
_symmetry_space_group_name_H-M	'P1'
_symmetry_Int_Tables_number	1
_symmetry_cell_setting	triclinic
loop_
_symmetry_equiv_pos_as_xyz
  x,y,z
_cell_length_a	19.188925
_cell_length_b	19.188930
_cell_length_c	17.666332
_cell_angle_alpha	90.010342
_cell_angle_beta	90.010202
_cell_angle_gamma	83.143665
loop_
_atom_site_label
_atom_site_type_symbol
_atom_site_fract_x
_atom_site_fract_y
_atom_site_fract_z
O1	O	0.926152	0.087149	0.062973
O2	O	1.426152	0.587149	0.562973
O3	O	0.722840	0.098888	0.062972
O4	O	1.222840	0.598888	0.562972
O5	O	0.830363	-0.008637	0.062958
O6	O	1.330363	0.491363	0.562958
O7	O	0.818629	0.194674	0.062987
O8	O	1.318629	0.694674	0.562987
O9	O	0.830344	-0.008640	-0.062939
O10	O	1.330344	0.491360	0.437061
O11	O	0.722821	0.098884	-0.062925
O12	O	1.222821	0.598884	0.437075
O13	O	0.926133	0.087146	-0.062924
O14	O	1.426133	0.587146	0.437076
Cu15	Cu	0.824475	0.093015	-0.074419
Cu16	Cu	1.324475	0.593015	0.425581
Cu17	Cu	0.824498	0.093019	0.074468
Cu18	Cu	1.324498	0.593019	0.574468
O19	O	0.818610	0.194671	-0.062909
O20	O	1.318610	0.694671	0.437091
C21	C	0.696820	0.098507	0.000023
C22	C	1.196820	0.598507	0.500023
C23	C	0.619315	0.097367	0.000022
C24	C	1.119315	0.597367	0.500022
C25	C	0.057545	0.152831	0.000032
C26	C	0.557545	0.652831	0.500032
C27	C	0.130368	0.153908	0.000037
C28	C	0.630368	0.653908	0.500037
C29	C	0.175302	0.090816	0.000026
C30	C	0.675302	0.590816	0.500026
C31	C	0.147408	0.026642	0.000031
C32	C	0.647408	0.526642	0.500031
C33	C	0.074586	0.025568	0.000034
C34	C	0.574586	0.525568	0.500034
N35	N	0.295973	0.045139	-0.042837
N36	N	0.795973	0.545139	0.457163
N37	N	0.365150	0.046164	-0.042842
N38	N	0.865150	0.546164	0.457158
C39	C	0.394712	0.094050	0.000018
C40	C	0.894712	0.594050	0.500018
N41	N	0.352481	0.140883	0.042872
N42	N	0.852481	0.640883	0.542872
N43	N	0.283297	0.139859	0.042874
N44	N	0.783297	0.639859	0.542874
C45	C	0.254267	0.091974	0.000023
C46	C	0.754267	0.591974	0.500023
C47	C	0.501561	0.159386	0.000023
C48	C	1.001561	0.659386	0.500023
C49	C	0.574385	0.160460	0.000032
C50	C	1.074385	0.660460	0.500032
C51	C	0.591425	0.033193	0.000018
C52	C	1.091425	0.533193	0.500018
C53	C	0.518601	0.032121	0.000017
C54	C	1.018601	0.532121	0.500017
C55	C	0.473673	0.095220	0.000016
C56	C	0.973673	0.595220	0.500016
C57	C	0.829974	-0.034650	0.000007
C58	C	1.329974	0.465350	0.500007
C59	C	0.828833	-0.112154	0.000001
C60	C	1.328833	0.387846	0.500001
C61	C	0.891924	-0.157079	-0.000003
C62	C	1.391924	0.342921	0.499997
C63	C	0.890852	-0.229903	0.000010
C64	C	1.390852	0.270097	0.500010
C65	C	0.826686	-0.257799	0.000010
C66	C	1.326686	0.242201	0.500010
C67	C	0.763587	-0.212864	0.000017
C68	C	1.263587	0.287136	0.500017
C69	C	0.764660	-0.140041	0.000013
C70	C	1.264660	0.359959	0.500013
N71	N	0.777632	-0.365804	-0.042835
N72	N	1.277632	0.134196	0.457165
N73	N	0.776617	-0.434982	-0.042833
N74	N	1.276617	0.065018	0.457167
C75	C	0.823448	-0.477207	0.000025
C76	C	1.323448	0.022793	0.500025
N77	N	0.871344	-0.447642	0.042871
N78	N	1.371344	0.052358	0.542871
N79	N	0.872361	-0.378457	0.042865
N80	N	1.372361	0.121543	0.542865
C81	C	0.825515	-0.336761	0.000015
C82	C	1.325515	0.163239	0.500015
C83	C	0.885381	-0.601097	0.000036
C84	C	1.385381	-0.101097	0.500036
C85	C	0.884307	-0.673922	0.000053
C86	C	1.384307	-0.173922	0.500053
C87	C	0.757040	-0.656880	0.000053
C88	C	1.257040	-0.156880	0.500053
C89	C	0.758116	-0.584057	0.000044
C90	C	1.258116	-0.084057	0.500044
C91	C	0.822289	-0.556170	0.000032
C92	C	1.322289	-0.056170	0.500032
C93	C	0.952154	0.087527	0.000027
C94	C	1.452154	0.587527	0.500027
C95	C	1.029658	0.088666	0.000033
C96	C	1.529658	0.588666	0.500033
C97	C	0.819000	0.220684	0.000043
C98	C	1.319000	0.720684	0.500043
C99	C	0.820140	0.298188	0.000054
C100	C	1.320140	0.798188	0.500054
N101	N	0.824465	0.093012	-0.179139
N102	N	1.324465	0.593012	0.320861
C103	C	0.866674	0.135257	-0.218736
C104	C	1.366674	0.635257	0.281264
C105	C	0.866685	0.135255	-0.297983
C106	C	1.366685	0.635255	0.202017
C107	C	0.824474	0.093016	-0.337631
C108	C	1.324474	0.593016	0.162369
C109	C	0.782263	0.050763	-0.298025
C110	C	1.282263	0.550763	0.201975
C111	C	0.782258	0.050761	-0.218779
C112	C	1.282258	0.550761	0.281221
N113	N	0.763326	0.091297	-0.462072
N114	N	1.263326	0.591297	0.037928
N115	N	0.763332	0.091303	-0.537352
N116	N	1.263332	0.591303	-0.037352
C117	C	0.824487	0.093019	-0.576395
C118	C	1.324487	0.593019	-0.076395
N119	N	0.885636	0.094741	-0.537314
N120	N	1.385636	0.594741	-0.037314
N121	N	0.885629	0.094739	-0.462026
N122	N	1.385629	0.594739	0.037974
C123	C	0.824475	0.093013	-0.423560
C124	C	1.324475	0.593013	0.076440
C125	C	0.866712	0.135263	-0.701921
C126	C	1.366712	0.635263	-0.201921
C127	C	0.866724	0.135256	-0.781170
C128	C	1.366724	0.635256	-0.281170
C129	C	0.782295	0.050768	-0.781210
C130	C	1.282295	0.550768	-0.281210
C131	C	0.782289	0.050771	-0.701963
C132	C	1.282289	0.550771	-0.201963
C133	C	0.824496	0.093023	-0.662323
C134	C	1.324496	0.593023	-0.162323
N135	N	0.824514	0.093016	0.179187
N136	N	1.324514	0.593016	0.679187
H137	H	0.183999	-0.024728	0.000024
H138	H	0.683999	0.475272	0.500024
H139	H	0.937635	-0.578390	0.000030
H140	H	1.437635	-0.078390	0.500030
O141	O	0.741230	0.009846	-0.663416
O142	O	1.241230	0.509846	-0.163416
C143	C	0.693444	0.052549	-0.617603
C144	C	1.193444	0.552549	-0.117603
H145	H	0.715019	0.104295	-0.605709
H146	H	1.215019	0.604295	-0.105709
H147	H	0.685736	0.024502	-0.561887
H148	H	1.185736	0.524502	-0.061887
H149	H	0.640938	0.063379	-0.648166
H150	H	1.140938	0.563379	-0.148166
H151	H	0.051883	-0.026685	0.000035
H152	H	0.551883	0.473315	0.500035
O153	O	0.945662	-0.717465	0.000017
O154	O	1.445662	-0.217465	0.500017
C155	C	1.002528	-0.677231	0.000023
C156	C	1.502528	-0.177231	0.500023
H157	H	0.984633	-0.622829	-0.023816
H158	H	1.484633	-0.122829	0.476184
H159	H	1.046712	-0.704239	-0.036531
H160	H	1.546712	-0.204239	0.463469
H161	H	1.022222	-0.672092	0.060419
H162	H	1.522222	-0.172092	0.560419
O163	O	0.696893	-0.540313	0.000073
O164	O	1.196893	-0.040313	0.500073
C165	C	0.711599	-0.470058	0.000049
C166	C	1.211599	0.029942	0.500049
H167	H	0.766435	-0.467429	0.023882
H168	H	1.266435	0.032571	0.523882
H169	H	0.671375	-0.436933	0.036600
H170	H	1.171375	0.063067	0.536600
H171	H	0.708877	-0.449000	-0.060351
H172	H	1.208877	0.051000	0.439649
O173	O	0.694751	-0.684050	0.000157
O174	O	1.194751	-0.184050	0.500157
C175	C	0.690325	-0.725633	0.065374
C176	C	1.190325	-0.225633	0.565374
H177	H	0.745415	-0.743936	0.087111
H178	H	1.245415	-0.243936	0.587111
H179	H	0.662635	-0.773239	0.050717
H180	H	1.162635	-0.273239	0.550717
H181	H	0.659347	-0.693352	0.111030
H182	H	1.159347	-0.193352	0.611030
H183	H	0.711342	-0.235581	0.000019
H184	H	1.211342	0.264419	0.500019
H185	H	0.495896	-0.020129	0.000013
H186	H	0.995896	0.479871	0.500013
H187	H	0.713282	-0.103462	0.000015
H188	H	1.213282	0.396538	0.500015
O189	O	0.013873	0.214104	-0.000091
O190	O	0.513873	0.714104	0.499909
C191	C	-0.028790	0.217281	-0.065279
C192	C	0.471210	0.717281	0.434721
H193	H	-0.002022	0.181496	-0.110861
H194	H	0.497978	0.681496	0.389139
H195	H	-0.037160	0.273547	-0.087155
H196	H	0.462840	0.773547	0.412845
H197	H	-0.081687	0.199370	-0.050533
H198	H	0.418313	0.699370	0.449467
O199	O	0.952123	-0.273584	0.000135
O200	O	1.452123	0.226416	0.500135
C201	C	0.955317	-0.316220	0.065328
C202	C	1.455317	0.183780	0.565328
H203	H	0.919547	-0.289431	0.110907
H204	H	1.419547	0.210569	0.610907
H205	H	1.011590	-0.324584	0.087204
H206	H	1.511590	0.175416	0.587204
H207	H	0.937398	-0.369121	0.050589
H208	H	1.437398	0.130879	0.550589
O209	O	0.907706	0.176359	-0.336341
O210	O	1.407706	0.676359	0.163659
C211	C	0.944972	0.213634	-0.284361
C212	C	1.444972	0.713634	0.215639
H213	H	0.916058	0.217778	-0.227876
H214	H	1.416058	0.717778	0.272124
H215	H	0.949127	0.268529	-0.307246
H216	H	1.449127	0.768529	0.192754
H217	H	0.999866	0.184740	-0.275928
H218	H	1.499866	0.684740	0.224072
H219	H	0.464978	0.210765	0.000023
H220	H	0.964978	0.710765	0.500023
H221	H	0.747895	0.016371	-0.330311
H222	H	1.247895	0.516371	0.169689
H223	H	0.747885	0.016359	-0.186540
H224	H	1.247885	0.516359	0.313460
O225	O	0.907779	0.176317	-0.663527
O226	O	1.407779	0.676317	-0.163527
C227	C	0.945030	0.213612	-0.715474
C228	C	1.445030	0.713612	-0.215474
H229	H	0.949200	0.184697	-0.771968
H230	H	1.449200	0.684697	-0.271968
H231	H	0.999914	0.217807	-0.692559
H232	H	1.499914	0.717807	-0.192559
H233	H	0.916099	0.268490	-0.723901
H234	H	1.416099	0.768490	-0.223901
O235	O	0.157385	0.216283	0.000131
O236	O	0.657385	0.716283	0.500131
C237	C	0.134440	0.254739	0.065343
C238	C	0.634440	0.754739	0.565343
H239	H	0.083992	0.235876	0.087089
H240	H	0.583992	0.735876	0.587089
H241	H	0.124157	0.312911	0.050675
H242	H	0.624157	0.812911	0.550675
H243	H	0.176617	0.246528	0.110997
H244	H	0.676617	0.746528	0.610997
H245	H	0.901101	0.169655	-0.813409
H246	H	1.401101	0.669655	-0.313409
H247	H	0.901045	0.169658	-0.186466
H248	H	1.401045	0.669658	0.313534
H249	H	0.597088	0.212713	0.000038
H250	H	1.097088	0.712713	0.500038
H251	H	0.747927	0.016376	-0.813491
H252	H	1.247927	0.516376	-0.313491
H253	H	0.944179	-0.134379	-0.000010
H254	H	1.444179	0.365621	0.499990
H255	H	0.628010	-0.018178	0.000016
H256	H	1.128010	0.481822	0.500016
