data_functionalizedCrystal
_audit_creation_method	'MofGen! by Chris Wilmer'
_symmetry_space_group_name_H-M	'P1'
_symmetry_Int_Tables_number	1
_symmetry_cell_setting	triclinic
loop_
_symmetry_equiv_pos_as_xyz
  x,y,z
_cell_length_a	10.540539
_cell_length_b	14.519709
_cell_length_c	13.596369
_cell_angle_alpha	89.999684
_cell_angle_beta	89.998232
_cell_angle_gamma	95.897182
loop_
_atom_site_label
_atom_site_type_symbol
_atom_site_fract_x
_atom_site_fract_y
_atom_site_fract_z
O1	O	0.166389	-1.224767	0.081658
O2	O	0.666389	-0.724767	0.581658
O3	O	0.185985	-0.956395	0.081688
O4	O	0.685985	-0.456395	0.581688
O5	O	-0.008582	-1.096704	0.081671
O6	O	0.491418	-0.596704	0.581671
O7	O	0.360956	-1.084458	0.081675
O8	O	0.860956	-0.584458	0.581675
O9	O	-0.008571	-1.096686	-0.081912
O10	O	0.491429	-0.596686	0.418088
O11	O	0.185995	-0.956378	-0.081895
O12	O	0.685995	-0.456378	0.418105
O13	O	0.166400	-1.224749	-0.081924
O14	O	0.666400	-0.724749	0.418076
Zn15	Zn	0.176199	-1.090561	-0.107882
Zn16	Zn	0.676199	-0.590561	0.392118
Zn17	Zn	0.176185	-1.090584	0.107646
Zn18	Zn	0.676185	-0.590584	0.607646
O19	O	0.360967	-1.084441	-0.081908
O20	O	0.860967	-0.584441	0.418092
C21	C	0.185077	-0.922022	-0.000100
C22	C	0.685077	-0.422022	0.499900
C23	C	0.182340	-0.819626	-0.000088
C24	C	0.682340	-0.319626	0.499912
C25	C	-0.055870	-1.095777	-0.000118
C26	C	0.444130	-0.595777	0.499882
C27	C	-0.196790	-1.093029	-0.000113
C28	C	0.303210	-0.593029	0.499887
C29	C	0.167308	-1.259123	-0.000135
C30	C	0.667308	-0.759123	0.499865
C31	C	0.170044	-1.361519	-0.000140
C32	C	0.670044	-0.861519	0.499860
C33	C	-0.379142	-0.987750	0.000266
C34	C	0.120858	-0.487750	0.500266
C35	C	-0.232553	-0.990535	-0.000102
C36	C	0.267447	-0.490535	0.499898
C37	C	-0.258945	-1.142344	-0.093532
C38	C	0.241055	-0.642344	0.406468
C39	C	-0.405454	-1.138846	-0.093610
C40	C	0.094546	-0.638846	0.406390
C41	C	-0.406006	-1.140950	0.092414
C42	C	0.093994	-0.640950	0.592414
C43	C	-0.259034	-1.141895	0.093649
C44	C	0.240966	-0.641895	0.593649
C45	C	0.408255	-1.085368	-0.000116
C46	C	0.908255	-0.585368	0.499884
C47	C	0.549175	-1.088115	-0.000115
C48	C	1.049175	-0.588115	0.499885
N49	N	0.176208	-1.090552	-0.254974
N50	N	0.676208	-0.590552	0.245026
C51	C	0.172266	-0.444676	-0.000133
C52	C	0.672266	0.055324	0.499867
C53	C	0.175063	-0.548999	-0.000120
C54	C	0.675063	-0.048999	0.499880
C55	C	0.177303	-0.632148	-0.000110
C56	C	0.677303	-0.132148	0.499890
C57	C	0.180101	-0.736477	-0.000099
C58	C	0.680101	-0.236477	0.499901
C59	C	0.176211	-1.090557	-0.343972
C60	C	0.676211	-0.590557	0.156028
C61	C	0.176202	-1.090566	-0.455623
C62	C	0.676202	-0.590566	0.044377
C63	C	0.176188	-1.090577	-0.544614
C64	C	0.676188	-0.590577	-0.044614
C65	C	0.176181	-1.090588	-0.656272
C66	C	0.676181	-0.590588	-0.156272
N67	N	0.176166	-1.090600	0.254737
N68	N	0.676166	-0.590600	0.754737
H69	H	-0.407334	-0.947269	0.067259
H70	H	0.092666	-0.447269	0.567259
H71	H	-0.235576	-1.216621	0.099282
H72	H	0.264424	-0.716621	0.599282
C73	C	-0.419386	-0.933256	-0.089707
C74	C	0.080614	-0.433256	0.410293
H75	H	-0.375646	-0.872696	-0.088906
H76	H	0.124354	-0.372696	0.411094
H77	H	-0.398611	-0.964166	-0.148215
H78	H	0.101389	-0.464166	0.351785
H79	H	-0.508740	-0.929274	-0.087493
H80	H	-0.008740	-0.429274	0.412507
H81	H	-0.237359	-1.217613	-0.097013
H82	H	0.262641	-0.717613	0.402987
H83	H	-0.433277	-1.102385	-0.163435
H84	H	0.066723	-0.602385	0.336565
C85	C	-0.200941	-1.096041	-0.187439
C86	C	0.299059	-0.596041	0.312561
H87	H	-0.138862	-1.046664	-0.169914
H88	H	0.361138	-0.546664	0.330086
H89	H	-0.161818	-1.140337	-0.225241
H90	H	0.338182	-0.640337	0.274759
H91	H	-0.266370	-1.072536	-0.225087
H92	H	0.233630	-0.572536	0.274913
C93	C	-0.470833	-1.240955	0.093262
C94	C	0.029167	-0.740955	0.593262
H95	H	-0.524957	-1.250500	0.037534
H96	H	-0.024957	-0.750500	0.537534
H97	H	-0.407577	-1.283036	0.091209
H98	H	0.092423	-0.783036	0.591209
H99	H	-0.519988	-1.251015	0.151561
H100	H	-0.019988	-0.751015	0.651561
H101	H	-0.190393	-0.951444	-0.067172
H102	H	0.309607	-0.451444	0.432828
C103	C	-0.471278	-1.238418	-0.099365
C104	C	0.028722	-0.738418	0.400635
H105	H	-0.408443	-1.280826	-0.101653
H106	H	0.091557	-0.780826	0.398347
H107	H	-0.523584	-1.250804	-0.043041
H108	H	-0.023584	-0.750804	0.456959
H109	H	-0.522398	-1.245057	-0.156974
H110	H	-0.022398	-0.745057	0.343026
C111	C	-0.203240	-1.093223	0.187014
C112	C	0.296760	-0.593223	0.687014
H113	H	-0.142261	-1.043333	0.168941
H114	H	0.357739	-0.543333	0.668941
H115	H	-0.269848	-1.070137	0.223696
H116	H	0.230152	-0.570137	0.723696
H117	H	-0.163159	-1.136174	0.225999
H118	H	0.336841	-0.636174	0.725999
H119	H	-0.437225	-1.107786	0.163219
H120	H	0.062775	-0.607786	0.663219
H121	H	-0.189558	-0.951731	0.066865
H122	H	0.310442	-0.451731	0.566865
