data_functionalizedCrystal
_audit_creation_method	'MofGen! by Chris Wilmer'
_symmetry_space_group_name_H-M	'P1'
_symmetry_Int_Tables_number	1
_symmetry_cell_setting	triclinic
loop_
_symmetry_equiv_pos_as_xyz
  x,y,z
_cell_length_a	12.759401
_cell_length_b	13.032721
_cell_length_c	13.033429
_cell_angle_alpha	90.931748
_cell_angle_beta	82.836520
_cell_angle_gamma	97.204582
loop_
_atom_site_label
_atom_site_type_symbol
_atom_site_fract_x
_atom_site_fract_y
_atom_site_fract_z
Zn1	Zn	1.482513	-0.335501	0.633407
Zn2	Zn	1.476802	-0.529355	0.483269
Zn3	Zn	1.325969	-0.357399	0.461461
Zn4	Zn	1.282050	-0.507436	0.655192
O5	O	1.391834	-0.432423	0.558332
O6	O	1.628774	-0.361225	0.613500
O7	O	1.472785	-0.524882	0.336465
O8	O	1.367505	-0.210574	0.466026
O9	O	1.624579	-0.503649	0.503194
O10	O	1.482517	-0.194486	0.592354
O11	O	1.361968	-0.398547	0.320443
O12	O	1.173124	-0.377293	0.487150
O13	O	1.292651	-0.466291	0.796212
O14	O	1.140857	-0.487524	0.629484
O15	O	1.439930	-0.339971	0.780207
O16	O	1.430198	-0.670367	0.524319
O17	O	1.287114	-0.654263	0.650630
C18	C	1.118870	-0.432407	0.558315
C19	C	1.002089	-0.432422	0.558336
C20	C	0.949384	-0.358368	0.615888
C21	C	0.839658	-0.358377	0.615896
C22	C	0.835351	-0.506504	0.500797
C23	C	0.945076	-0.506489	0.500784
C24	C	1.353297	-0.699629	0.592227
C25	C	1.336903	-0.813937	0.606762
C26	C	1.400440	-0.872826	0.550792
C27	C	1.383498	-0.990969	0.565813
C28	C	1.665862	-0.432439	0.558349
C29	C	1.782637	-0.432446	0.558357
C30	C	1.362029	-0.398243	0.826567
C31	C	1.349328	-0.383678	0.940873
C32	C	1.430547	-0.164170	0.524327
C33	C	1.447044	-0.049857	0.509836
C34	C	1.421593	-0.466395	0.291131
C35	C	1.434540	-0.480670	0.176789
C36	C	1.385373	-0.424654	1.117901
C37	C	1.398501	-0.439702	0.999759
H38	H	0.987990	-0.566795	0.453912
H39	H	1.297517	-0.324570	0.977915
H40	H	1.269967	-0.850984	0.665804
H41	H	0.796751	-0.298074	0.662760
H42	H	1.316557	-1.028012	0.624860
H43	H	1.486357	-0.539765	1.139740
O44	O	1.316765	-0.346349	1.166969
H45	H	1.251266	-0.386171	1.221748
O46	O	1.010886	-0.278473	0.677942
H47	H	0.955800	-0.226973	0.717952
O48	O	1.489120	-0.823771	0.472590
H49	H	1.566672	-0.842001	0.492899
O50	O	1.467138	-0.517996	0.950706
H51	H	1.466673	-0.517536	0.865612
H52	H	0.788917	-0.566808	0.453942
O53	O	1.535727	-1.000806	0.431627
H54	H	1.535118	-0.915710	0.432097
