data_functionalizedCrystal
_audit_creation_method	'MofGen! by Chris Wilmer'
_symmetry_space_group_name_H-M	'P1'
_symmetry_Int_Tables_number	1
_symmetry_cell_setting	triclinic
loop_
_symmetry_equiv_pos_as_xyz
  x,y,z
_cell_length_a	16.625548
_cell_length_b	16.625545
_cell_length_c	16.625539
_cell_angle_alpha	90.028107
_cell_angle_beta	90.020568
_cell_angle_gamma	90.026626
loop_
_atom_site_label
_atom_site_type_symbol
_atom_site_fract_x
_atom_site_fract_y
_atom_site_fract_z
Zn1	Zn	1.232663	-0.320977	0.455910
Zn2	Zn	1.482663	-0.070977	0.705910
Zn3	Zn	1.732663	0.179023	0.955910
Zn4	Zn	1.982663	0.429023	1.205910
Zn5	Zn	1.232559	-0.455820	0.321078
Zn6	Zn	1.482559	-0.205820	0.571078
Zn7	Zn	1.732559	0.044180	0.821078
Zn8	Zn	1.982559	0.294180	1.071078
Zn9	Zn	1.097825	-0.321008	0.321091
Zn10	Zn	1.347825	-0.071008	0.571091
Zn11	Zn	1.597825	0.178992	0.821091
Zn12	Zn	1.847825	0.428992	1.071091
Zn13	Zn	1.097788	-0.455774	0.455868
Zn14	Zn	1.347788	-0.205774	0.705868
Zn15	Zn	1.597788	0.044226	0.955868
Zn16	Zn	1.847788	0.294226	1.205868
O17	O	1.165209	-0.388395	0.388487
O18	O	1.415209	-0.138395	0.638487
O19	O	1.665209	0.111605	0.888487
O20	O	1.915209	0.361605	1.138487
O21	O	1.345482	-0.338871	0.438037
O22	O	1.595482	-0.088871	0.688037
O23	O	1.845482	0.161129	0.938037
O24	O	2.095482	0.411129	1.188037
O25	O	1.214658	-0.437969	0.208247
O26	O	1.464658	-0.187969	0.458247
O27	O	1.714658	0.062031	0.708247
O28	O	1.964658	0.312031	0.958247
O29	O	1.115771	-0.208171	0.338998
O30	O	1.365771	0.041829	0.588998
O31	O	1.615771	0.291829	0.838998
O32	O	1.865771	0.541829	1.088998
O33	O	1.345405	-0.437940	0.338976
O34	O	1.595405	-0.187940	0.588976
O35	O	1.845405	0.062060	0.838976
O36	O	2.095405	0.312060	1.088976
O37	O	1.214836	-0.208149	0.438050
O38	O	1.464836	0.041851	0.688050
O39	O	1.714836	0.291851	0.938050
O40	O	1.964836	0.541851	1.188050
O41	O	1.115670	-0.338923	0.208257
O42	O	1.365670	-0.088923	0.458257
O43	O	1.615670	0.161077	0.708257
O44	O	1.865670	0.411077	0.958257
O45	O	0.984988	-0.338878	0.338957
O46	O	1.234988	-0.088878	0.588957
O47	O	1.484988	0.161122	0.838957
O48	O	1.734988	0.411122	1.088957
O49	O	1.115708	-0.437861	0.568706
O50	O	1.365708	-0.187861	0.818706
O51	O	1.615708	0.062139	1.068706
O52	O	1.865708	0.312139	1.318706
O53	O	0.984961	-0.437891	0.437977
O54	O	1.234961	-0.187891	0.687977
O55	O	1.484961	0.062109	0.937977
O56	O	1.734961	0.312109	1.187977
O57	O	1.214800	-0.338826	0.568737
O58	O	1.464800	-0.088826	0.818737
O59	O	1.714800	0.161174	1.068737
O60	O	1.964800	0.411174	1.318737
O61	O	1.214622	-0.568647	0.338935
O62	O	1.464622	-0.318647	0.588935
O63	O	1.714622	-0.068647	0.838935
O64	O	1.964622	0.181353	1.088935
O65	O	1.115607	-0.568613	0.437965
O66	O	1.365607	-0.318613	0.687965
O67	O	1.615607	-0.068613	0.937965
O68	O	1.865607	0.181387	1.187965
C69	C	0.955718	-0.388383	0.388464
C70	C	1.205718	-0.138383	0.638464
C71	C	1.455718	0.111617	0.888464
C72	C	1.705718	0.361617	1.138464
C73	C	0.866097	-0.388398	0.388474
C74	C	1.116097	-0.138398	0.638474
C75	C	1.366097	0.111602	0.888474
C76	C	1.616097	0.361602	1.138474
C77	C	0.537921	-0.388403	0.388508
C78	C	0.787921	-0.138403	0.638508
C79	C	1.037921	0.111597	0.888508
C80	C	1.287921	0.361597	1.138508
C81	C	0.629230	-0.388399	0.388496
C82	C	0.879230	-0.138399	0.638496
C83	C	1.129230	0.111601	0.888496
C84	C	1.379230	0.361601	1.138496
C85	C	0.702006	-0.388401	0.388490
C86	C	0.952006	-0.138401	0.638490
C87	C	1.202006	0.111599	0.888490
C88	C	1.452006	0.361599	1.138490
C89	C	0.793320	-0.388396	0.388480
C90	C	1.043320	-0.138396	0.638480
C91	C	1.293320	0.111604	0.888480
C92	C	1.543320	0.361604	1.138480
C93	C	1.165121	-0.597886	0.388462
C94	C	1.415121	-0.347886	0.638462
C95	C	1.665121	-0.097886	0.888462
C96	C	1.915121	0.152114	1.138462
C97	C	1.165158	-0.687507	0.388478
C98	C	1.415158	-0.437507	0.638478
C99	C	1.665158	-0.187507	0.888478
C100	C	1.915158	0.062493	1.138478
C101	C	1.165189	-0.760289	0.388494
C102	C	1.415189	-0.510289	0.638494
C103	C	1.665189	-0.260289	0.888494
C104	C	1.915189	-0.010289	1.138494
C105	C	1.165236	-0.851598	0.388511
C106	C	1.415236	-0.601598	0.638511
C107	C	1.665236	-0.351598	0.888511
C108	C	1.915236	-0.101598	1.138511
C109	C	1.165278	-0.924374	0.388522
C110	C	1.415278	-0.674374	0.638522
C111	C	1.665278	-0.424374	0.888522
C112	C	1.915278	-0.174374	1.138522
C113	C	1.165324	-1.015688	0.388538
C114	C	1.415324	-0.765688	0.638538
C115	C	1.665324	-0.515688	0.888538
C116	C	1.915324	-0.265688	1.138538
C117	C	1.375518	-0.388407	0.388510
C118	C	1.625518	-0.138407	0.638510
C119	C	1.875518	0.111593	0.888510
C120	C	2.125518	0.361593	1.138510
C121	C	1.465139	-0.388412	0.388520
C122	C	1.715139	-0.138412	0.638520
C123	C	1.965139	0.111588	0.888520
C124	C	2.215139	0.361588	1.138520
C125	C	1.165261	-0.388335	0.598796
C126	C	1.415261	-0.138335	0.848796
C127	C	1.665261	0.111665	1.098796
C128	C	1.915261	0.361665	1.348796
C129	C	1.165284	-0.388309	0.688417
C130	C	1.415284	-0.138309	0.938417
C131	C	1.665284	0.111691	1.188417
C132	C	1.915284	0.361691	1.438417
C133	C	1.165319	-0.178086	0.388530
C134	C	1.415319	0.071914	0.638530
C135	C	1.665319	0.321914	0.888530
C136	C	1.915319	0.571914	1.138530
C137	C	1.165366	-0.088465	0.388548
C138	C	1.415366	0.161535	0.638548
C139	C	1.665366	0.411535	0.888548
C140	C	1.915366	0.661535	1.138548
C141	C	1.165203	-0.388397	0.178996
C142	C	1.415203	-0.138397	0.428996
C143	C	1.665203	0.111603	0.678996
C144	C	1.915203	0.361603	0.928996
C145	C	1.165337	-0.388195	0.089375
C146	C	1.415337	-0.138195	0.339375
C147	C	1.665337	0.111805	0.589375
C148	C	1.915337	0.361805	0.839375
C149	C	1.165321	-0.388219	1.016593
C150	C	1.415321	-0.138219	1.266593
C151	C	1.665321	0.111781	1.516593
C152	C	1.915321	0.361781	1.766593
C153	C	1.165308	-0.388247	0.925284
C154	C	1.415308	-0.138247	1.175284
C155	C	1.665308	0.111753	1.425284
C156	C	1.915308	0.361753	1.675284
C157	C	1.165303	-0.388265	0.852508
C158	C	1.415303	-0.138265	1.102508
C159	C	1.665303	0.111735	1.352508
C160	C	1.915303	0.361735	1.602508
C161	C	1.165289	-0.388291	0.761194
C162	C	1.415289	-0.138291	1.011194
C163	C	1.665289	0.111709	1.261194
C164	C	1.915289	0.361709	1.511194
