data_functionalizedCrystal
_audit_creation_method	'MofGen! by Chris Wilmer'
_symmetry_space_group_name_H-M	'P1'
_symmetry_Int_Tables_number	1
_symmetry_cell_setting	triclinic
loop_
_symmetry_equiv_pos_as_xyz
  x,y,z
_cell_length_a	19.188929
_cell_length_b	19.188925
_cell_length_c	8.140239
_cell_angle_alpha	89.996333
_cell_angle_beta	90.025294
_cell_angle_gamma	96.856335
loop_
_atom_site_label
_atom_site_type_symbol
_atom_site_fract_x
_atom_site_fract_y
_atom_site_fract_z
O1	O	-0.087148	0.926146	-0.136727
O2	O	-0.098887	0.722834	-0.136733
O3	O	0.008638	0.830357	-0.136628
O4	O	-0.194673	0.818622	-0.136832
O5	O	0.008639	0.830351	0.136599
O6	O	-0.098885	0.722828	0.136494
O7	O	-0.087147	0.926140	0.136500
Zn8	Zn	-0.093016	0.824483	0.179878
Zn9	Zn	-0.093018	0.824491	-0.180111
O10	O	-0.194672	0.818617	0.136395
C11	C	-0.098507	0.696820	-0.000118
C12	C	-0.097367	0.619315	-0.000115
C13	C	-0.152831	0.057545	-0.000175
C14	C	-0.153908	0.130368	-0.000185
C15	C	-0.090816	0.175302	-0.000119
C16	C	-0.026642	0.147408	-0.000085
C17	C	-0.025568	0.074586	-0.000091
N18	N	-0.045139	0.295978	0.092935
N19	N	-0.046164	0.365155	0.092945
C20	C	-0.094050	0.394712	-0.000103
N21	N	-0.140882	0.352476	-0.093140
N22	N	-0.139859	0.283292	-0.093142
C23	C	-0.091974	0.254267	-0.000113
C24	C	-0.159386	0.501561	-0.000159
C25	C	-0.160460	0.574385	-0.000179
C26	C	-0.033193	0.591425	-0.000062
C27	C	-0.032121	0.518601	-0.000059
C28	C	-0.095220	0.473673	-0.000099
C29	C	-0.220684	0.819000	-0.000244
C30	C	-0.298188	0.820140	-0.000322
C31	C	-0.343113	0.757049	-0.000291
C32	C	-0.415937	0.758121	-0.000254
C33	C	-0.443833	0.822287	-0.000215
C34	C	-0.398897	0.885386	-0.000256
C35	C	-0.326075	0.884313	-0.000309
N36	N	-0.551800	0.871332	0.092875
N37	N	-0.620978	0.872347	0.092930
C38	C	-0.663241	0.825525	-0.000057
N39	N	-0.633713	0.777639	-0.093080
N40	N	-0.564529	0.776621	-0.093127
C41	C	-0.522795	0.823458	-0.000158
C42	C	-0.787131	0.763592	0.000012
C43	C	-0.859955	0.764666	0.000039
C44	C	-0.842914	0.891934	0.000054
C45	C	-0.770091	0.890857	0.000010
C46	C	-0.742204	0.826685	-0.000003
C47	C	0.034650	0.829974	0.000008
C48	C	0.112154	0.828833	0.000075
C49	C	-0.087527	0.952154	-0.000118
C50	C	-0.088666	1.029658	-0.000132
N51	N	-0.093015	0.824483	0.425560
N52	N	-0.093014	0.824496	-0.425793
H53	H	0.024728	0.183999	-0.000036
H54	H	0.018178	0.628010	-0.000021
C55	C	-0.224492	0.161051	-0.000225
H56	H	-0.261916	0.123864	-0.000242
H57	H	-0.227562	0.189111	-0.095501
H58	H	-0.227547	0.189099	0.095072
C59	C	-0.429576	0.955969	-0.000209
H60	H	-0.392387	0.993392	-0.000247
H61	H	-0.457599	0.959032	0.095094
H62	H	-0.457660	0.959034	-0.095479
H63	H	-0.320413	0.704795	-0.000316
H64	H	0.020129	0.495896	-0.000014
C65	C	0.045017	0.043910	-0.000028
H66	H	0.082440	0.081099	0.000017
H67	H	0.048080	0.015856	-0.095302
H68	H	0.048081	0.015856	0.095271
H69	H	-0.865626	0.944179	-0.000034
H70	H	-0.204212	0.020968	-0.000216
H71	H	-0.210765	0.464978	-0.000195
C72	C	-0.231045	0.605060	-0.000222
H73	H	-0.268468	0.567871	-0.000231
H74	H	-0.234118	0.633117	-0.095503
H75	H	-0.234101	0.633111	0.095070
H76	H	-0.452522	0.706743	-0.000225
H77	H	-0.289496	0.935691	-0.000336
H78	H	-0.764424	0.711339	0.000011
H79	H	-0.896534	0.713288	0.000053
H80	H	-0.733512	0.942233	-0.000004
