data_functionalizedCrystal
_audit_creation_method	'MofGen! by Chris Wilmer'
_symmetry_space_group_name_H-M	'P1'
_symmetry_Int_Tables_number	1
_symmetry_cell_setting	triclinic
loop_
_symmetry_equiv_pos_as_xyz
  x,y,z
_cell_length_a	14.971486
_cell_length_b	15.021413
_cell_length_c	14.971486
_cell_angle_alpha	90.003812
_cell_angle_beta	96.385871
_cell_angle_gamma	90.002368
loop_
_atom_site_label
_atom_site_type_symbol
_atom_site_fract_x
_atom_site_fract_y
_atom_site_fract_z
O1	O	1.186950	0.073930	-0.116551
O2	O	0.926550	0.073954	-0.130510
O3	O	1.063729	0.073935	0.006670
O4	O	1.049770	0.073949	-0.253730
O5	O	1.063707	-0.074129	0.006650
O6	O	0.926528	-0.074110	-0.130529
O7	O	1.186928	-0.074134	-0.116570
Zn8	Zn	1.056724	-0.097630	-0.123553
Zn9	Zn	1.056753	0.097451	-0.123527
O10	O	1.049748	-0.074115	-0.253750
C11	C	0.893214	-0.000075	-0.129895
C12	C	0.793917	-0.000066	-0.128024
N13	N	1.056711	-0.230768	-0.123570
C14	C	0.736691	-0.000062	-0.208614
C15	C	0.643392	-0.000076	-0.206850
C16	C	0.607320	-0.000086	-0.124497
C17	C	0.664552	-0.000092	-0.043902
C18	C	0.757850	-0.000085	-0.045666
C19	C	0.470090	-0.000104	-0.040231
C20	C	0.376786	-0.000109	-0.038466
C21	C	0.355632	-0.000095	-0.201415
C22	C	0.448930	-0.000088	-0.203179
C23	C	0.506156	-0.000092	-0.122584
C24	C	0.993270	-0.470442	-0.186972
C25	C	1.074112	-0.529783	-0.204419
C26	C	1.056734	-0.412375	-0.123548
C27	C	0.975914	-0.529776	-0.106121
C28	C	1.056749	-0.587799	-0.123528
C29	C	1.137617	-0.470409	-0.141035
C30	C	1.039366	-0.470396	-0.042702
C31	C	1.120266	-0.529711	-0.060114
C32	C	1.056724	-0.311318	-0.123561
C33	C	1.056768	-0.688854	-0.123514
C34	C	1.220263	-0.000103	-0.117185
C35	C	1.319561	-0.000106	-0.119056
C36	C	1.063094	-0.000097	0.039985
C37	C	1.061223	-0.000096	0.139282
N38	N	1.056773	0.230588	-0.123503
C39	C	1.050384	-0.000081	-0.287065
C40	C	1.052254	-0.000076	-0.386362
C41	C	1.141812	-0.000104	0.196507
C42	C	1.140049	-0.000095	0.289807
C43	C	1.057696	-0.000084	0.325879
C44	C	0.977101	-0.000073	0.268646
C45	C	0.978865	-0.000076	0.175349
C46	C	0.973430	-0.000069	0.463109
C47	C	0.971665	-0.000068	0.556413
C48	C	1.134614	-0.000088	0.577567
C49	C	1.136378	-0.000091	0.484269
C50	C	1.055782	-0.000082	0.427043
H51	H	0.596802	-0.000072	-0.272475
N52	N	0.528561	-0.000115	0.042085
N53	N	0.582986	-0.062524	0.059269
H54	H	0.624284	-0.062529	0.117402
N55	N	1.092565	-0.562534	-0.290163
N56	N	1.160121	-0.610124	-0.296183
H57	H	1.173149	-0.633254	-0.356741
N58	N	0.925999	-0.437802	-0.254302
N59	N	0.878447	-0.491228	-0.302772
H60	H	0.830938	-0.468176	-0.350325
N61	N	1.187685	-0.562160	0.007171
N62	N	1.249517	-0.610693	-0.014648
H63	H	1.297135	-0.633613	0.032867
H64	H	1.205673	-0.000103	0.336396
H65	H	1.200238	-0.000093	0.624165
H66	H	0.347419	-0.000119	0.028593
H67	H	0.635175	-0.000113	0.023152
N68	N	0.890164	-0.562473	-0.087624
N69	N	0.860202	-0.542370	-0.015608
H70	H	0.799638	-0.565459	-0.002551
N71	N	1.223384	-0.437827	-0.159610
N72	N	1.237210	-0.355875	-0.162645
H73	H	1.297782	-0.332861	-0.175765
N74	N	0.485796	-0.000070	-0.287290
N75	N	0.535501	0.062347	-0.306437
H76	H	0.561540	0.062359	-0.365840
N77	N	0.816295	-0.000098	0.036662
N78	N	0.784079	-0.000111	0.110187
H79	H	0.825354	-0.000126	0.168335
H80	H	0.913240	-0.000069	0.128756
H81	H	1.203437	-0.000106	0.454903
N82	N	1.020883	-0.437654	0.043031
N83	N	0.948282	-0.456640	0.072400
H84	H	0.935219	-0.433516	0.132949
N85	N	0.297187	-0.000119	-0.283747
N86	N	0.300538	-0.062530	-0.338501
H87	H	0.259260	-0.062547	-0.396647
H88	H	1.208874	-0.000118	0.167145
H89	H	0.904606	-0.000074	0.585780
H90	H	0.907800	-0.000059	0.416517
N91	N	0.892980	-0.000085	0.305494
N92	N	0.838622	-0.062499	0.287986
H93	H	0.779210	-0.062513	0.314009
N94	N	0.773519	-0.000044	-0.292745
N95	N	0.722410	-0.000043	-0.364693
H96	H	0.748416	-0.000032	-0.424114
