data_functionalizedCrystal
_audit_creation_method	'MofGen! by Chris Wilmer'
_symmetry_space_group_name_H-M	'P1'
_symmetry_Int_Tables_number	1
_symmetry_cell_setting	triclinic
loop_
_symmetry_equiv_pos_as_xyz
  x,y,z
_cell_length_a	14.044202
_cell_length_b	14.519709
_cell_length_c	12.996460
_cell_angle_alpha	90.007122
_cell_angle_beta	90.001683
_cell_angle_gamma	91.563577
loop_
_atom_site_label
_atom_site_type_symbol
_atom_site_fract_x
_atom_site_fract_y
_atom_site_fract_z
O1	O	-1.258079	0.222411	0.085519
O2	O	-0.924746	0.555744	0.418852
O3	O	-0.591412	0.889078	0.752186
O4	O	-0.982096	0.214378	0.085532
O5	O	-0.648763	0.547711	0.418866
O6	O	-0.315429	0.881044	0.752199
O7	O	-1.127405	0.084746	0.085516
O8	O	-0.794072	0.418080	0.418849
O9	O	-0.460738	0.751413	0.752183
O10	O	-1.112770	0.352042	0.085535
O11	O	-0.779437	0.685376	0.418869
O12	O	-0.446104	1.018709	0.752202
O13	O	-1.127402	0.084737	-0.085618
O14	O	-0.794069	0.418070	0.247716
O15	O	-0.460736	0.751404	0.581049
O16	O	-0.982094	0.214368	-0.085602
O17	O	-0.648760	0.547702	0.247732
O18	O	-0.315427	0.881035	0.581065
O19	O	-1.258077	0.222401	-0.085615
O20	O	-0.924743	0.555735	0.247718
O21	O	-0.591410	0.889068	0.581052
Cu22	Cu	-1.120085	0.218384	-0.101234
Cu23	Cu	-0.786752	0.551717	0.232099
Cu24	Cu	-0.453418	0.885051	0.565433
Cu25	Cu	-1.120088	0.218395	0.101151
Cu26	Cu	-0.786754	0.551729	0.434485
Cu27	Cu	-0.453421	0.885062	0.767818
O28	O	-1.112768	0.352033	-0.085599
O29	O	-0.779434	0.685366	0.247735
O30	O	-0.446101	1.018700	0.581068
C31	C	-0.946774	0.210859	-0.000033
C32	C	-0.613441	0.544193	0.333300
C33	C	-0.280108	0.877526	0.666634
C34	C	-0.841531	0.200379	-0.000028
C35	C	-0.508198	0.533712	0.333305
C36	C	-0.174864	0.867046	0.666638
C37	C	-1.126722	0.050327	-0.000051
C38	C	-0.793388	0.383660	0.333282
C39	C	-0.460055	0.716993	0.666616
C40	C	-1.124678	-0.052219	-0.000052
C41	C	-0.791344	0.281114	0.333282
C42	C	-0.458011	0.614447	0.666615
C43	C	-0.591338	0.255542	-0.000034
C44	C	-0.258005	0.588876	0.333299
C45	C	0.075328	0.922209	0.666633
C46	C	-0.648841	0.181233	-0.000038
C47	C	-0.315508	0.514566	0.333296
C48	C	0.017826	0.847900	0.666629
C49	C	-0.756063	0.191888	-0.000032
C50	C	-0.422730	0.525222	0.333301
C51	C	-0.089397	0.858555	0.666634
C52	C	-0.484106	0.244889	-0.000039
C53	C	-0.150773	0.578222	0.333294
C54	C	0.182561	0.911555	0.666627
C55	C	-1.117154	-0.427722	-0.000024
C56	C	-0.783820	-0.094389	0.333309
C57	C	-0.450487	0.238944	0.666642
C58	C	-1.119243	-0.323246	-0.000032
C59	C	-0.785910	0.010088	0.333301
C60	C	-0.452576	0.343421	0.666634
C61	C	-1.120916	-0.239974	-0.000039
C62	C	-0.787582	0.093359	0.333294
C63	C	-0.454249	0.426693	0.666628
C64	C	-1.123005	-0.135491	-0.000045
C65	C	-0.789672	0.197842	0.333288
C66	C	-0.456339	0.531176	0.666622
C67	C	-0.293398	0.225918	-0.000047
C68	C	0.039935	0.559251	0.333286
C69	C	0.373268	0.892585	0.666620
C70	C	-0.398643	0.236393	-0.000044
C71	C	-0.065310	0.569726	0.333290
C72	C	0.268024	0.903059	0.666623
C73	C	-1.113451	0.386452	-0.000029
C74	C	-0.780118	0.719786	0.333304
C75	C	-0.446784	1.053119	0.666637
C76	C	-1.115495	0.488999	-0.000022
C77	C	-0.782162	0.822332	0.333311
C78	C	-0.448828	1.155665	0.666645
N79	N	-1.120090	0.218396	0.243499
N80	N	-0.786757	0.551730	0.576832
N81	N	-0.453424	0.885063	0.910165
N82	N	-1.120090	0.218376	-0.243581
N83	N	-0.786756	0.551709	0.089752
N84	N	-0.453423	0.885043	0.423085
C85	C	-1.120086	0.218387	0.663313
C86	C	-0.786752	0.551720	0.996646
C87	C	-0.453419	0.885054	1.329980
C88	C	-1.120084	0.218392	0.546508
C89	C	-0.786750	0.551725	0.879841
C90	C	-0.453417	0.885059	1.213174
C91	C	-1.120087	0.218391	0.453409
C92	C	-0.786754	0.551725	0.786743
C93	C	-0.453421	0.885058	1.120076
C94	C	-1.120087	0.218397	0.336597
C95	C	-0.786754	0.551731	0.669930
C96	C	-0.453420	0.885064	1.003264
H97	H	-0.617544	0.109613	0.000030
H98	H	-0.284211	0.442946	0.333363
H99	H	0.049122	0.776279	0.666696
O100	O	-0.628823	0.340914	0.000027
O101	O	-0.295490	0.674247	0.333360
O102	O	0.037843	1.007581	0.666693
C103	C	-0.729087	0.332679	0.000006
C104	C	-0.395754	0.666012	0.333339
C105	C	-0.062421	0.999346	0.666672
H106	H	-0.752056	0.262574	0.032392
H107	H	-0.418723	0.595907	0.365726
H108	H	-0.085390	0.929240	0.699059
H109	H	-0.759641	0.389435	0.049703
H110	H	-0.426308	0.722769	0.383037
H111	H	-0.092975	1.056102	0.716370
H112	H	-0.756640	0.339370	-0.082093
H113	H	-0.423306	0.672703	0.251240
H114	H	-0.089973	1.006037	0.584574
