data_functionalizedCrystal
_audit_creation_method	'MofGen! by Chris Wilmer'
_symmetry_space_group_name_H-M	'P1'
_symmetry_Int_Tables_number	1
_symmetry_cell_setting	triclinic
loop_
_symmetry_equiv_pos_as_xyz
  x,y,z
_cell_length_a	21.606444
_cell_length_b	14.628931
_cell_length_c	21.606444
_cell_angle_alpha	90.001559
_cell_angle_beta	59.999490
_cell_angle_gamma	60.010776
loop_
_atom_site_label
_atom_site_type_symbol
_atom_site_fract_x
_atom_site_fract_y
_atom_site_fract_z
Zr1	Zr	0.677348	0.880857	-0.081169
O2	O	0.806451	0.734936	-0.179986
O3	O	0.548248	0.925557	-0.050884
O4	O	0.677352	0.925595	-0.179996
O5	O	0.677342	0.734906	0.050981
O6	O	0.677352	1.076026	-0.179996
O7	O	0.677347	0.734899	-0.050873
O8	O	0.446408	1.075960	0.050962
O9	O	0.908286	0.734973	-0.179977
O10	O	0.601348	1.056926	-0.037959
O11	O	0.601344	0.944667	0.038053
O12	O	0.753348	0.944710	-0.113959
O13	O	0.753345	0.832450	-0.037947
Zr14	Zr	0.677341	1.120791	0.081276
Zr15	Zr	0.677348	1.120779	-0.081170
Zr16	Zr	0.677341	0.880869	0.081276
Zr17	Zr	0.839764	0.880916	-0.081156
Zr18	Zr	0.514925	1.120732	0.081263
O19	O	0.806441	1.076091	0.050991
O20	O	0.806451	1.076073	-0.179986
O21	O	0.806441	0.734953	0.050991
O22	O	0.548238	1.266712	0.180092
O23	O	0.548248	1.266695	-0.050885
O24	O	0.548238	0.925575	0.180093
O25	O	0.677347	1.266742	-0.050874
O26	O	0.677337	1.076053	0.180103
O27	O	0.677337	0.925622	0.180103
O28	O	0.677342	1.266749	0.050980
O29	O	0.908286	0.925678	-0.179978
O30	O	0.446403	1.075970	0.180084
O31	O	0.446403	1.266675	0.180084
O32	O	0.446408	1.266666	0.050961
O33	O	0.908281	0.734982	-0.050855
O34	O	0.908281	0.925688	-0.050855
O35	O	0.601341	1.056938	0.114066
O36	O	0.601344	1.169198	0.038053
O37	O	0.753345	1.056982	-0.037947
O38	O	0.753341	0.944722	0.038066
C39	C	0.474187	1.000750	0.000037
C40	C	0.405238	1.000725	0.000031
C41	C	-0.074233	1.083767	0.056182
C42	C	-0.009425	1.083743	0.056175
C43	C	0.079067	1.000869	0.000062
C44	C	0.102751	0.918021	-0.056051
C45	C	0.037943	0.918050	-0.056045
C46	C	0.364114	0.917901	-0.056074
C47	C	0.428921	0.917876	-0.056073
C48	C	0.316746	1.083593	0.056146
C49	C	0.251938	1.083623	0.056151
C50	C	0.275627	1.000778	0.000037
C51	C	0.205354	1.000807	0.000045
C52	C	0.149339	1.000835	0.000056
C53	C	0.677345	0.700719	0.000054
C54	C	0.677345	0.598866	0.000054
C55	C	0.677353	1.000809	-0.203141
C56	C	0.677356	1.000804	-0.272104
C57	C	0.880502	1.000898	0.000070
C58	C	0.949451	1.000923	0.000075
C59	C	0.677347	0.553453	-0.053272
C60	C	0.677347	0.448182	-0.053274
C61	C	0.677345	1.300929	0.000053
C62	C	0.677345	1.402782	0.000053
C63	C	0.756698	0.942227	-0.344174
C64	C	0.756696	0.942237	-0.408969
C65	C	0.677350	1.000817	-0.401692
C66	C	0.598002	1.059401	-0.329614
C67	C	0.598006	1.059397	-0.264821
C68	C	0.597987	1.059418	-0.590917
C69	C	0.597990	1.059415	-0.655718
C70	C	0.756677	0.942259	-0.735065
C71	C	0.756681	0.942255	-0.670272
C72	C	0.677333	1.000843	-0.598200
C73	C	0.677337	1.000833	-0.527942
C74	C	0.677346	1.000821	-0.471948
C75	C	0.677336	1.000839	0.203248
C76	C	0.677333	1.000844	0.272210
C77	C	0.474187	1.300856	0.000036
C78	C	0.405238	1.402684	0.000031
C79	C	0.474179	1.000766	0.203231
C80	C	0.405226	1.000746	0.272188
C81	C	0.474179	1.300871	0.203231
C82	C	0.405226	1.402704	0.272188
C83	C	0.880510	0.700777	-0.203125
C84	C	0.949463	0.598944	-0.272081
C85	C	0.880502	0.700792	0.000070
C86	C	0.949451	0.598964	0.000076
C87	C	0.880510	1.000882	-0.203125
C88	C	0.949463	1.000902	-0.272082
C89	C	0.372860	1.391899	-0.039656
C90	C	0.308083	1.487568	-0.039677
C91	C	0.275681	1.594021	-0.000005
C92	C	0.308066	1.604803	0.039683
C93	C	0.372845	1.509135	0.039699
C94	C	0.372844	1.059341	0.344256
C95	C	0.308064	1.059318	0.409054
C96	C	0.275664	1.000706	0.401784
C97	C	0.308053	0.942104	0.329709
C98	C	0.372836	0.942121	0.264912
C99	C	0.372847	1.509135	0.264893
C100	C	0.308068	1.604827	0.329679
C101	C	0.275664	1.594086	0.401759
C102	C	0.308050	1.487644	0.409052
C103	C	0.372832	1.391954	0.344267
C104	C	0.981850	0.492514	-0.264786
C105	C	1.046650	0.396821	-0.329572
C106	C	1.079056	0.407562	-0.401652
C107	C	1.046667	0.514004	-0.408946
C108	C	0.981873	0.609694	-0.344161
C109	C	0.981836	0.609749	0.039756
C110	C	1.046630	0.514080	0.039759
C111	C	1.079035	0.407627	0.000085
C112	C	1.046647	0.396845	-0.039600
C113	C	0.981859	0.492513	-0.039607
C114	C	0.981842	1.059526	-0.264787
C115	C	1.046622	1.059566	-0.329573
C116	C	1.079026	1.000976	-0.401653
C117	C	1.046640	0.942351	-0.408947
C118	C	0.981857	0.942317	-0.344161
H119	H	0.174807	0.850548	-0.101741
H120	H	0.281724	1.478766	-0.071996
H121	H	1.131790	0.329738	0.000097
H122	H	0.677347	0.441826	0.045708
H123	H	0.955504	0.696352	-0.350110
O124	O	1.148910	1.000999	-0.471527
H125	H	1.165985	1.051599	-0.454338
H126	H	0.399199	1.517932	0.072021
H127	H	0.677338	0.559815	0.045710
H128	H	1.073010	0.310161	-0.323619
H129	H	0.533377	1.107125	-0.532242
O130	O	0.407797	1.520740	0.187155
H131	H	0.353417	1.567208	0.180559
O132	O	0.946905	0.724561	0.082537
H133	H	0.980329	0.715970	0.110115
O134	O	0.205781	1.697305	0.471629
H135	H	0.188684	1.671965	0.522981
H136	H	0.821311	0.894517	-0.350108
O137	O	1.148951	0.304350	-0.471526
H138	H	1.166021	0.228541	-0.454336
O139	O	0.273080	0.878924	0.321871
H140	H	0.222579	0.888787	0.379040
O141	O	0.407676	0.878945	0.187209
H142	H	0.479141	0.814143	0.155737
H143	H	0.281706	1.691487	0.323726
O144	O	0.273086	1.476065	0.486798
H145	H	0.222589	1.560491	0.530615
O146	O	0.407736	1.277161	0.352139
H147	H	0.374305	1.285780	0.413147
O148	O	0.205809	1.697205	-0.000021
H149	H	0.146780	1.697113	0.024804
O150	O	0.842271	0.879055	-0.486703
H151	H	0.897445	0.838308	-0.480878
O152	O	0.946923	0.480875	-0.082399
H153	H	0.980339	0.390777	-0.109976
O154	O	1.081538	0.525730	0.082579
H155	H	1.153002	0.484986	0.042537
H156	H	0.955468	0.483747	-0.206101
O157	O	0.156493	1.173018	0.116664
H158	H	0.150911	1.230633	0.155672
O159	O	1.081616	0.525583	-0.486691
H160	H	1.132103	0.441157	-0.530508
O161	O	0.407778	1.122567	0.352110
H162	H	0.479247	1.063429	0.324483
H163	H	-0.146285	1.151248	0.101879
H164	H	1.073041	0.310158	-0.071902
H165	H	0.281674	1.691490	0.071982
H166	H	0.222914	1.000701	0.454552
O167	O	0.946890	1.122738	-0.187047
H168	H	0.980287	1.163518	-0.192871
H169	H	0.533398	1.107104	-0.323694
H170	H	1.072984	1.107304	-0.323620
H171	H	0.533397	1.107095	-0.206138
O172	O	1.081601	0.879145	-0.486692
H173	H	1.132097	0.889012	-0.530509
H174	H	0.955501	0.894574	-0.350111
O175	O	0.842263	0.879070	-0.678124
H176	H	0.846062	0.814293	-0.650509
H177	H	0.821286	0.894556	-0.793755
H178	H	0.281701	1.107043	0.467734
H179	H	-0.028717	1.151205	0.101861
H180	H	0.399241	1.305228	-0.071971
O181	O	0.291190	1.172970	0.116662
H182	H	0.351118	1.159044	0.107228
O183	O	0.512407	1.122637	-0.647872
H184	H	0.457231	1.163397	-0.586871
H185	H	0.383412	0.850441	-0.101764
O186	O	0.524370	0.828497	-0.116608
H187	H	0.538822	0.744945	-0.113862
O188	O	0.063482	0.828694	-0.116558
H189	H	0.135903	0.771055	-0.155573
H190	H	0.677344	0.592509	-0.098925
H191	H	0.677354	0.409125	-0.098931
