data_functionalizedCrystal
_audit_creation_method	'MofGen! by Chris Wilmer'
_symmetry_space_group_name_H-M	'P1'
_symmetry_Int_Tables_number	1
_symmetry_cell_setting	triclinic
loop_
_symmetry_equiv_pos_as_xyz
  x,y,z
_cell_length_a	15.995350
_cell_length_b	14.519709
_cell_length_c	12.996460
_cell_angle_alpha	90.007090
_cell_angle_beta	90.000784
_cell_angle_gamma	96.413740
loop_
_atom_site_label
_atom_site_type_symbol
_atom_site_fract_x
_atom_site_fract_y
_atom_site_fract_z
O1	O	1.111165	-0.118875	-0.085417
O2	O	1.444498	0.214458	0.247916
O3	O	1.777831	0.547792	0.581250
O4	O	0.867411	-0.133554	-0.085453
O5	O	1.200745	0.199779	0.247881
O6	O	1.534078	0.533113	0.581214
O7	O	0.995751	0.008036	-0.085425
O8	O	1.329084	0.341369	0.247909
O9	O	1.662417	0.674702	0.581242
O10	O	0.982825	-0.260465	-0.085445
O11	O	1.316159	0.072869	0.247888
O12	O	1.649492	0.406202	0.581222
O13	O	0.995737	0.008044	0.085709
O14	O	1.329071	0.341377	0.419043
O15	O	1.662404	0.674710	0.752376
O16	O	0.867398	-0.133546	0.085681
O17	O	1.200731	0.199787	0.419015
O18	O	1.534065	0.533120	0.752348
O19	O	1.111151	-0.118867	0.085717
O20	O	1.444485	0.214466	0.419050
O21	O	1.777818	0.547800	0.752384
Cu22	Cu	0.989273	-0.126206	0.101325
Cu23	Cu	1.322607	0.207127	0.434658
Cu24	Cu	1.655940	0.540461	0.767992
Cu25	Cu	0.989289	-0.126215	-0.101061
Cu26	Cu	1.322623	0.207118	0.232273
Cu27	Cu	1.655956	0.540451	0.565606
O28	O	0.982812	-0.260457	0.085689
O29	O	1.316145	0.072876	0.419022
O30	O	1.649479	0.406210	0.752355
C31	C	0.836209	-0.132943	0.000110
C32	C	1.169542	0.200390	0.333443
C33	C	1.502876	0.533723	0.666776
C34	C	0.743256	-0.131124	0.000096
C35	C	1.076589	0.202209	0.333430
C36	C	1.409923	0.535543	0.666763
C37	C	0.995142	0.042398	0.000142
C38	C	1.328475	0.375732	0.333476
C39	C	1.661808	0.709065	0.666809
C40	C	0.993337	0.144776	0.000143
C41	C	1.326670	0.478110	0.333476
C42	C	1.660003	0.811443	0.666809
C43	C	1.142354	-0.119478	0.000152
C44	C	1.475687	0.213856	0.333486
C45	C	1.809020	0.547189	0.666819
C46	C	1.235307	-0.121297	0.000159
C47	C	1.568640	0.212036	0.333492
C48	C	1.901973	0.545370	0.666825
C49	C	1.573064	-0.127831	0.000117
C50	C	1.906397	0.205502	0.333450
C51	C	2.239731	0.538836	0.666784
C52	C	1.525781	-0.228669	0.000496
C53	C	1.859114	0.104665	0.333829
C54	C	2.192448	0.437998	0.667163
C55	C	1.429088	-0.226849	0.000121
C56	C	1.762421	0.106484	0.333455
C57	C	2.095755	0.439818	0.666788
C58	C	1.405499	-0.124590	0.000138
C59	C	1.738832	0.208743	0.333472
C60	C	2.072165	0.542077	0.666805
C61	C	1.446492	-0.074858	-0.097585
C62	C	1.779826	0.258476	0.235748
C63	C	2.113159	0.591809	0.569081
C64	C	1.543132	-0.077391	-0.097678
C65	C	1.876465	0.255943	0.235655
C66	C	2.209799	0.589276	0.568988
C67	C	1.543505	-0.075299	0.096933
C68	C	1.876839	0.258034	0.430266
C69	C	2.210172	0.591367	0.763600
C70	C	1.446560	-0.075323	0.098235
C71	C	1.779893	0.258010	0.431569
C72	C	2.113227	0.591343	0.764902
C73	C	1.310798	-0.122753	0.000147
C74	C	1.644132	0.210580	0.333480
C75	C	1.977465	0.543914	0.666814
C76	C	1.667765	-0.129665	0.000101
C77	C	2.001098	0.203668	0.333435
C78	C	2.334431	0.537002	0.666768
C79	C	0.983421	-0.294819	0.000120
C80	C	1.316754	0.038514	0.333453
C81	C	1.650088	0.371847	0.666786
C82	C	0.985226	-0.397197	0.000113
C83	C	1.318559	-0.063864	0.333446
C84	C	1.651893	0.269469	0.666779
N85	N	0.989268	-0.126199	0.243672
N86	N	1.322602	0.207134	0.577005
N87	N	1.655935	0.540468	0.910339
C88	C	0.986691	0.519660	0.000115
C89	C	1.320024	0.852993	0.333448
C90	C	1.653358	1.186327	0.666782
C91	C	0.988537	0.415355	0.000123
C92	C	1.321870	0.748689	0.333456
C93	C	1.655203	1.082022	0.666790
C94	C	0.990014	0.332221	0.000130
C95	C	1.323347	0.665555	0.333463
C96	C	1.656680	0.998888	0.666797
C97	C	0.991859	0.227910	0.000136
C98	C	1.325193	0.561244	0.333469
C99	C	1.658526	0.894577	0.666803
N100	N	0.989301	-0.126215	-0.243408
N101	N	1.322634	0.207118	0.089926
N102	N	1.655968	0.540452	0.423259
C103	C	0.989288	-0.126216	0.663486
C104	C	1.322621	0.207117	0.996820
C105	C	1.655955	0.540451	1.330153
C106	C	0.989280	-0.126214	0.546681
C107	C	1.322613	0.207119	0.880015
C108	C	1.655947	0.540452	1.213348
C109	C	0.989279	-0.126208	0.453583
C110	C	1.322612	0.207125	0.786916
C111	C	1.655945	0.540458	1.120250
C112	C	0.989270	-0.126205	0.336770
C113	C	1.322603	0.207128	0.670104
C114	C	1.655937	0.540462	1.003437
H115	H	1.400731	-0.265947	0.070170
H116	H	1.734064	0.067387	0.403503
H117	H	2.067397	0.400720	0.736836
H118	H	1.432254	0.000269	-0.101207
H119	H	1.765587	0.333603	0.232126
H120	H	2.098921	0.666936	0.565459
Cl121	Cl	1.556108	-0.290626	-0.107110
Cl122	Cl	1.889442	0.042707	0.226223
Cl123	Cl	2.222775	0.376041	0.559556
H124	H	1.418132	-0.109382	-0.170311
H125	H	1.751466	0.223951	0.163022
H126	H	2.084799	0.557284	0.496355
H127	H	1.544381	-0.268970	0.070568
H128	H	1.877714	0.064363	0.403902
H129	H	2.211048	0.397696	0.737235
H130	H	1.401276	-0.266208	-0.070053
H131	H	1.734609	0.067125	0.263280
H132	H	2.067943	0.400458	0.596613
H133	H	1.561480	-0.113665	-0.170735
H134	H	1.894814	0.219668	0.162598
H135	H	2.228147	0.553002	0.495932
Cl136	Cl	1.592381	0.039481	0.097970
Cl137	Cl	1.925714	0.372814	0.431303
Cl138	Cl	2.259048	0.706148	0.764637
Cl139	Cl	1.592752	0.036907	-0.104534
Cl140	Cl	1.926086	0.370240	0.228800
Cl141	Cl	2.259419	0.703573	0.562133
Cl142	Cl	1.575305	-0.126194	0.211282
Cl143	Cl	1.908638	0.207140	0.544616
Cl144	Cl	2.241972	0.540473	0.877949
Cl145	Cl	1.404507	-0.131385	0.209857
Cl146	Cl	1.737840	0.201948	0.543190
Cl147	Cl	2.071173	0.535282	0.876524
H148	H	1.431089	-0.000751	0.104147
H149	H	1.764422	0.332583	0.437480
H150	H	2.097756	0.665916	0.770813
