data_functionalizedCrystal
_audit_creation_method	'MofGen! by Chris Wilmer'
_symmetry_space_group_name_H-M	'P1'
_symmetry_Int_Tables_number	1
_symmetry_cell_setting	triclinic
loop_
_symmetry_equiv_pos_as_xyz
  x,y,z
_cell_length_a	16.992694
_cell_length_b	12.996460
_cell_length_c	16.992695
_cell_angle_alpha	90.006330
_cell_angle_beta	90.668223
_cell_angle_gamma	89.999814
loop_
_atom_site_label
_atom_site_type_symbol
_atom_site_fract_x
_atom_site_fract_y
_atom_site_fract_z
O1	O	1.050852	0.085439	0.166918
O2	O	0.822452	0.085469	0.165087
O3	O	0.935736	0.085446	0.051802
O4	O	0.937567	0.085462	0.280203
O5	O	0.935723	-0.085688	0.051795
O6	O	0.822439	-0.085665	0.165079
O7	O	1.050839	-0.085695	0.166911
Cu8	Cu	0.936638	-0.101306	0.165994
Cu9	Cu	0.936653	0.101080	0.166003
O10	O	0.937554	-0.085672	0.280195
C11	C	0.793085	-0.000094	0.162727
C12	C	0.705600	-0.000083	0.155699
N13	N	0.936632	-0.243653	0.165988
C14	C	0.659610	-0.000079	0.223517
C15	C	0.577409	-0.000093	0.216908
C16	C	0.541201	-0.000105	0.142480
C17	C	0.587198	-0.000112	0.074657
C18	C	0.669397	-0.000104	0.081267
C19	C	0.295886	-0.000134	0.115086
C20	C	0.213681	-0.000138	0.108481
C21	C	0.203898	-0.000122	0.250732
C22	C	0.286099	-0.000108	0.257335
C23	C	0.332089	-0.000121	0.189512
N24	N	0.457178	-0.000116	0.135723
N25	N	0.416110	-0.000116	0.196270
C26	C	0.936652	-0.663467	0.166004
C27	C	0.936644	-0.546662	0.166002
C28	C	0.936643	-0.453564	0.165997
C29	C	0.936634	-0.336751	0.165993
C30	C	1.080205	-0.000130	0.169270
C31	C	1.167690	-0.000134	0.176299
C32	C	0.933374	-0.000121	0.022439
C33	C	0.926345	-0.000119	-0.065046
N34	N	0.936664	0.243427	0.166004
C35	C	0.994163	-0.000129	-0.111037
C36	C	0.987554	-0.000119	-0.193238
C37	C	0.913127	-0.000105	-0.229446
C38	C	0.845303	-0.000092	-0.183449
C39	C	0.851913	-0.000096	-0.101250
C40	C	0.885732	-0.000088	-0.474760
C41	C	0.879127	-0.000087	-0.556966
C42	C	1.021379	-0.000112	-0.566749
C43	C	1.027982	-0.000121	-0.484547
C44	C	0.960159	-0.000103	-0.438558
N45	N	0.906369	-0.000098	-0.313468
N46	N	0.966917	-0.000103	-0.354537
C47	C	0.939917	-0.000103	0.309559
C48	C	0.946945	-0.000097	0.397044
H49	H	0.689084	-0.000069	0.284124
H50	H	0.315574	-0.000087	0.317942
C51	C	0.500437	0.087851	-0.015297
C52	C	0.547400	-0.000121	-0.007156
H53	H	0.475873	0.087849	-0.065809
H54	H	0.461284	0.087845	0.024141
H55	H	0.532307	0.147523	-0.009759
H56	H	0.515528	-0.059794	-0.012689
H57	H	0.586557	-0.000125	-0.046607
C58	C	0.073549	-0.000135	0.303766
C59	C	0.153344	-0.000122	0.325280
H60	H	0.042341	-0.000144	0.349792
H61	H	0.062087	0.059538	0.273470
H62	H	0.062100	-0.059819	0.273455
H63	H	0.164794	0.059567	0.355586
H64	H	0.164810	-0.059801	0.355589
H65	H	1.042779	-0.000129	-0.230680
H66	H	0.706842	-0.000107	0.026042
C67	C	0.231603	-0.000165	-0.031472
C68	C	0.173879	-0.000153	0.026664
H69	H	0.207029	-0.000177	-0.081978
H70	H	0.263460	0.059509	-0.025938
H71	H	0.263461	-0.059848	-0.025933
H72	H	0.142025	0.059534	0.021128
H73	H	0.142009	-0.059833	0.021127
C74	C	0.810634	0.087905	-0.376655
C75	C	0.811178	-0.000072	-0.424220
H76	H	0.764602	0.087915	-0.345456
H77	H	0.855895	0.087891	-0.343324
H78	H	0.811023	0.147574	-0.408930
H79	H	0.810795	-0.059742	-0.391944
H80	H	0.765905	-0.000068	-0.457554
H81	H	0.784703	-0.000075	-0.212936
C82	C	0.710641	-0.000079	-0.099831
C83	C	0.777366	-0.000087	-0.050693
H84	H	0.664619	-0.000076	-0.068618
H85	H	0.711028	0.059595	-0.132089
H86	H	0.711021	-0.059762	-0.132101
H87	H	0.776989	0.059600	-0.018426
H88	H	0.776978	-0.059767	-0.018422
C89	C	1.162649	-0.000134	-0.568161
C90	C	1.095927	-0.000122	-0.617301
H91	H	1.208673	-0.000142	-0.599371
H92	H	1.162270	0.059539	-0.535892
H93	H	1.162259	-0.059818	-0.535901
H94	H	1.096315	0.059567	-0.649557
H95	H	1.096306	-0.059801	-0.649584
C96	C	1.117446	0.087834	-0.094059
C97	C	1.075976	-0.000138	-0.071238
H98	H	1.167953	0.087833	-0.069486
H99	H	1.123215	0.087826	-0.149589
H100	H	1.089299	0.147506	-0.078567
H101	H	1.104120	-0.059811	-0.086736
H102	H	1.070211	-0.000140	-0.015696
C103	C	0.575995	-0.000062	0.358178
C104	C	0.526856	-0.000084	0.291456
H105	H	0.544784	-0.000052	0.404202
H106	H	0.608262	-0.059732	0.357798
H107	H	0.608257	0.059624	0.357790
H108	H	0.494598	-0.059775	0.291841
H109	H	0.494575	0.059592	0.291836
H110	H	0.333322	-0.000145	0.059859
C111	C	1.117948	0.087839	-0.397777
C112	C	1.109796	-0.000129	-0.444752
H113	H	1.168456	0.087827	-0.373208
H114	H	1.112420	0.147508	-0.429635
H115	H	1.078501	0.087832	-0.358622
H116	H	1.149240	-0.000118	-0.483911
H117	H	1.115333	-0.059813	-0.412892
H118	H	0.818516	-0.000093	-0.586443
