data_functionalizedCrystal
_audit_creation_method	'MofGen! by Chris Wilmer'
_symmetry_space_group_name_H-M	'P1'
_symmetry_Int_Tables_number	1
_symmetry_cell_setting	triclinic
loop_
_symmetry_equiv_pos_as_xyz
  x,y,z
_cell_length_a	8.559649
_cell_length_b	8.559649
_cell_length_c	7.681481
_cell_angle_alpha	85.069100
_cell_angle_beta	94.912730
_cell_angle_gamma	69.778664
loop_
_atom_site_label
_atom_site_type_symbol
_atom_site_fract_x
_atom_site_fract_y
_atom_site_fract_z
O1	O	2.109659	-0.037794	-0.146423
O2	O	2.609659	0.462206	0.353577
O3	O	1.634173	0.045987	-0.146425
O4	O	2.134173	0.545987	0.353575
O5	O	1.913807	-0.233646	-0.146422
O6	O	2.413807	0.266354	0.353578
O7	O	1.830025	0.241839	-0.146426
O8	O	2.330025	0.741839	0.353574
O9	O	1.948234	-0.268134	0.146436
O10	O	2.448234	0.231866	0.646436
O11	O	1.668600	0.011499	0.146433
O12	O	2.168600	0.511499	0.646433
O13	O	2.144085	-0.072282	0.146435
O14	O	2.644085	0.427718	0.646435
Zn15	Zn	1.911809	-0.035867	0.192932
Zn16	Zn	2.411809	0.464133	0.692932
Zn17	Zn	1.866450	0.009572	-0.192921
Zn18	Zn	2.366450	0.509572	0.307079
O19	O	1.864452	0.207351	0.146432
O20	O	2.364452	0.707351	0.646432
C21	C	1.591078	0.035092	0.000004
C22	C	2.091078	0.535092	0.500004
C23	C	1.411378	0.053992	0.000003
C24	C	1.911378	0.553992	0.500003
C25	C	1.937369	-0.311199	0.000004
C26	C	2.437369	0.188801	0.500004
C27	C	1.956267	-0.490897	-0.000006
C28	C	2.456267	0.009103	0.499994
C29	C	2.187180	-0.061387	0.000003
C30	C	2.687180	0.438613	0.500003
C31	C	2.366879	-0.080285	-0.000008
C32	C	2.866879	0.419715	0.499992
C33	C	1.840889	0.284904	0.000003
C34	C	2.340889	0.784904	0.500003
C35	C	1.821990	0.464604	0.000001
C36	C	2.321990	0.964604	0.500001
N37	N	1.942777	-0.066880	0.456266
N38	N	2.442777	0.433120	0.956266
N39	N	1.835496	0.040571	-0.456256
N40	N	2.335496	0.540571	0.043744
H41	H	1.466267	-0.209713	-0.000008
H42	H	1.966267	0.290287	0.499992
Cl43	Cl	1.666415	0.209907	0.427647
Cl44	Cl	2.166415	0.709907	0.927647
H45	H	1.692571	-0.436019	0.000006
H46	H	2.192571	0.063981	0.500006
Cl47	Cl	2.156101	-0.644338	0.000018
Cl48	Cl	2.656101	-0.144338	0.500018
Cl49	Cl	2.111881	-0.236210	0.572370
Cl50	Cl	2.611881	0.263790	1.072370
H51	H	1.311998	0.183413	-0.000016
H52	H	1.811998	0.683413	0.499984
