data_functionalizedCrystal
_audit_creation_method	'MofGen! by Chris Wilmer'
_symmetry_space_group_name_H-M	'P1'
_symmetry_Int_Tables_number	1
_symmetry_cell_setting	triclinic
loop_
_symmetry_equiv_pos_as_xyz
  x,y,z
_cell_length_a	17.000371
_cell_length_b	17.038272
_cell_length_c	15.500258
_cell_angle_alpha	92.989088
_cell_angle_beta	86.638253
_cell_angle_gamma	96.644598
loop_
_atom_site_label
_atom_site_type_symbol
_atom_site_fract_x
_atom_site_fract_y
_atom_site_fract_z
O1	O	0.168542	-1.022581	0.071838
O2	O	0.668542	-0.522581	0.571838
O3	O	0.165809	-0.795136	0.071863
O4	O	0.665809	-0.295136	0.571863
O5	O	0.052266	-0.922982	0.071843
O6	O	0.552266	-0.422982	0.571843
O7	O	0.282085	-0.894736	0.071858
O8	O	0.782085	-0.394736	0.571858
O9	O	0.059269	-0.928986	-0.072045
O10	O	0.559269	-0.428986	0.427955
O11	O	0.172812	-0.801140	-0.072025
O12	O	0.672812	-0.301140	0.427975
O13	O	0.175545	-1.028585	-0.072050
O14	O	0.675545	-0.528585	0.427950
Cu15	Cu	0.174818	-0.915411	-0.085176
Cu16	Cu	0.674818	-0.415411	0.414824
Cu17	Cu	0.166536	-0.908311	0.084989
Cu18	Cu	0.666536	-0.408311	0.584989
O19	O	0.289088	-0.900740	-0.072030
O20	O	0.789088	-0.400740	0.427970
C21	C	0.166826	-0.769180	-0.000077
C22	C	0.666826	-0.269180	0.499923
C23	C	0.159412	-0.682895	-0.000068
C24	C	0.659412	-0.182895	0.499932
C25	C	0.026216	-0.927501	-0.000101
C26	C	0.526216	-0.427501	0.499899
C27	C	-0.061837	-0.932012	-0.000101
C28	C	0.438163	-0.432012	0.499899
C29	C	0.174528	-1.054541	-0.000107
C30	C	0.674528	-0.554541	0.499893
C31	C	0.181941	-1.140827	-0.000111
C32	C	0.681941	-0.640827	0.499889
C33	C	-0.098564	-0.862590	-0.000089
C34	C	0.401436	-0.362590	0.499911
C35	C	-0.181299	-0.866833	-0.000092
C36	C	0.318701	-0.366833	0.499908
C37	C	-0.227307	-0.940499	-0.000100
C38	C	0.272693	-0.440499	0.499900
C39	C	-0.190574	-1.009927	-0.000114
C40	C	0.309426	-0.509927	0.499886
C41	C	-0.107840	-1.005683	-0.000118
C42	C	0.392160	-0.505683	0.499882
C43	C	-0.477343	-0.956893	-0.000096
C44	C	0.022657	-0.456893	0.499904
C45	C	-0.560083	-0.961132	-0.000090
C46	C	-0.060083	-0.461132	0.499910
C47	C	-0.550802	-0.818037	-0.000069
C48	C	-0.050802	-0.318037	0.499931
C49	C	-0.468067	-0.813800	-0.000067
C50	C	0.031933	-0.313800	0.499933
C51	C	-0.431341	-0.883227	-0.000086
C52	C	0.068659	-0.383227	0.499914
C53	C	-0.311876	-0.944839	-0.000100
C54	C	0.188124	-0.444839	0.499900
C55	C	-0.346773	-0.878888	-0.000092
C56	C	0.153227	-0.378888	0.499908
C57	C	0.315137	-0.896221	-0.000084
C58	C	0.815137	-0.396221	0.499916
C59	C	0.403190	-0.891709	-0.000078
C60	C	0.903190	-0.391709	0.499922
N61	N	0.180643	-0.920411	-0.204860
N62	N	0.680643	-0.420411	0.295140
C63	C	0.227471	-0.628119	-0.000064
C64	C	0.727471	-0.128119	0.499936
C65	C	0.220501	-0.547046	-0.000077
C66	C	0.720501	-0.047046	0.499923
C67	C	0.145473	-0.520751	-0.000087
C68	C	0.645473	-0.020751	0.499913
C69	C	0.077410	-0.575533	-0.000093
C70	C	0.577410	-0.075533	0.499907
C71	C	0.084380	-0.656605	-0.000087
C72	C	0.584380	-0.156605	0.499913
C73	C	0.120848	-0.276680	-0.000111
C74	C	0.620848	0.223320	0.499889
C75	C	0.113883	-0.195602	-0.000115
C76	C	0.613883	0.304398	0.499885
C77	C	0.256975	-0.167121	-0.000100
C78	C	0.756975	0.332879	0.499900
C79	C	0.263939	-0.248195	-0.000089
C80	C	0.763939	0.251805	0.499911
C81	C	0.195876	-0.302970	-0.000100
C82	C	0.695876	0.197030	0.499900
C83	C	0.138347	-0.437882	-0.000097
C84	C	0.638347	0.062118	0.499903
C85	C	0.203002	-0.385838	-0.000096
C86	C	0.703002	0.114162	0.499904
C87	C	0.209775	-0.945318	-0.750046
C88	C	0.709775	-0.445318	-0.250046
C89	C	0.205364	-0.941541	-0.659473
C90	C	0.705364	-0.441541	-0.159473
C91	C	0.151879	-0.895768	-0.614184
C92	C	0.651879	-0.395768	-0.114184
C93	C	0.102807	-0.853763	-0.659471
C94	C	0.602807	-0.353763	-0.159471
C95	C	0.107223	-0.857535	-0.750042
C96	C	0.607223	-0.357535	-0.250042
C97	C	0.135986	-0.882178	-0.340718
C98	C	0.635986	-0.382178	0.159282
C99	C	0.131573	-0.878411	-0.250141
C100	C	0.631573	-0.378411	0.249859
C101	C	0.234131	-0.966188	-0.250150
C102	C	0.734131	-0.466188	0.249850
C103	C	0.238538	-0.969960	-0.340722
C104	C	0.738538	-0.469960	0.159278
C105	C	0.189470	-0.927952	-0.386002
C106	C	0.689470	-0.427952	0.113998
C107	C	0.147368	-0.891909	-0.521604
C108	C	0.647368	-0.391909	-0.021604
C109	C	0.193986	-0.931807	-0.478580
C110	C	0.693986	-0.431807	0.021420
N111	N	0.160705	-0.903317	0.204673
N112	N	0.660705	-0.403317	0.704673
H113	H	-0.061110	-0.802602	-0.000078
H114	H	0.438890	-0.302602	0.499922
F115	F	-0.239541	-1.088329	-0.000132
F116	F	0.260459	-0.588329	0.499868
F117	F	0.034024	-0.167620	-0.000141
F118	F	0.534024	0.332380	0.499859
F119	F	-0.419108	-0.735394	-0.000051
F120	F	0.080892	-0.235394	0.499949
F121	F	-0.220383	-0.792944	-0.000078
F122	F	0.279617	-0.292944	0.499922
F123	F	0.058498	-0.409888	-0.000104
F124	F	0.558498	0.090112	0.499896
F125	F	0.011943	-0.714902	-0.000094
F126	F	0.511943	-0.214902	0.499906
F127	F	-0.438269	-1.030784	-0.000093
F128	F	0.061731	-0.530784	0.499907
F129	F	0.054998	-0.812831	-0.798232
F130	F	0.554998	-0.312831	-0.298232
F131	F	0.282851	-0.413826	-0.000089
F132	F	0.782851	0.086174	0.499911
F133	F	0.307326	-0.656096	-0.000048
F134	F	0.807326	-0.156096	0.499952
F135	F	0.266697	-0.994041	-0.798239
F136	F	0.766697	-0.494041	-0.298239
H137	H	-0.580713	-0.761513	-0.000056
H138	H	-0.080713	-0.261513	0.499944
H139	H	0.088019	-0.841132	-0.213268
H140	H	0.588019	-0.341132	0.286732
H141	H	-0.077938	-1.062214	-0.000129
H142	H	0.422062	-0.562214	0.499871
F143	F	-0.609046	-1.039541	-0.000094
F144	F	-0.109046	-0.539541	0.499906
H145	H	-0.309310	-0.818909	-0.000091
H146	H	0.190690	-0.318909	0.499909
H147	H	0.016320	-0.554118	-0.000114
H148	H	0.516320	-0.054118	0.499886
F149	F	0.257611	-0.986221	-0.611286
F150	F	0.757611	-0.486221	-0.111286
H151	H	0.275922	-0.502450	-0.000072
H152	H	0.775922	-0.002450	0.499928
H153	H	0.282090	-1.007235	-0.377591
H154	H	0.782090	-0.507235	0.122409
H155	H	0.274081	-1.000388	-0.213274
H156	H	0.774081	-0.500388	0.286726
F157	F	-0.360847	-1.023238	-0.000112
F158	F	0.139153	-0.523238	0.499888
F159	F	0.250910	-0.980516	-0.526782
F160	F	0.750910	-0.480516	-0.026782
F161	F	0.083762	-0.837468	-0.388896
F162	F	0.583762	-0.337468	0.111104
F163	F	0.343794	-0.276174	-0.000073
F164	F	0.843794	0.223826	0.499927
H165	H	0.312388	-0.122515	-0.000093
H166	H	0.812388	0.377485	0.499907
H167	H	0.059262	-0.816490	-0.622589
H168	H	0.559262	-0.316490	-0.122589
F169	F	0.090445	-0.843196	-0.473395
F170	F	0.590445	-0.343196	0.026605
F171	F	0.048408	-0.334967	-0.000123
F172	F	0.548408	0.165033	0.499877
