data_functionalizedCrystal
_audit_creation_method	'MofGen! by Chris Wilmer'
_symmetry_space_group_name_H-M	'P1'
_symmetry_Int_Tables_number	1
_symmetry_cell_setting	triclinic
loop_
_symmetry_equiv_pos_as_xyz
  x,y,z
_cell_length_a	14.044220
_cell_length_b	14.044190
_cell_length_c	16.176319
_cell_angle_alpha	89.988653
_cell_angle_beta	89.997715
_cell_angle_gamma	93.190328
loop_
_atom_site_label
_atom_site_type_symbol
_atom_site_fract_x
_atom_site_fract_y
_atom_site_fract_z
O1	O	1.277178	0.230171	-0.068675
O2	O	1.000506	0.221865	-0.068696
O3	O	1.134686	0.087682	-0.068670
O4	O	1.142998	0.364354	-0.068702
O5	O	1.134665	0.087671	0.068824
O6	O	1.000485	0.221854	0.068797
O7	O	1.277157	0.230160	0.068818
Cu8	Cu	1.138819	0.226006	0.081362
Cu9	Cu	1.138844	0.226019	-0.081240
O10	O	1.142977	0.364343	0.068792
C11	C	0.964874	0.218224	0.000049
C12	C	0.858731	0.207380	0.000041
C13	C	0.664392	0.187553	0.000060
C14	C	0.613264	0.264468	0.000055
C15	C	0.505128	0.253436	0.000065
C16	C	0.772539	0.198583	0.000050
C17	C	1.131039	0.052054	0.000079
C18	C	1.120191	-0.054089	0.000086
C19	C	1.177292	-0.299547	0.000057
C20	C	1.100375	-0.248422	0.000057
C21	C	1.111404	-0.140285	0.000073
C22	C	1.166265	-0.407694	0.000042
C23	C	1.312789	0.233801	0.000072
C24	C	1.418932	0.244646	0.000073
C25	C	1.146624	0.399971	0.000041
C26	C	1.157472	0.506114	0.000029
N27	N	1.138809	0.225997	0.195727
N28	N	1.138861	0.226021	-0.195605
C29	C	1.198245	0.166609	0.239003
C30	C	1.198250	0.166608	0.325550
C31	C	1.138822	0.226001	0.368820
C32	C	1.079379	0.285392	0.325538
C33	C	1.079370	0.285387	0.238992
C34	C	1.079413	0.285413	0.674566
C35	C	1.079429	0.285415	0.761118
C36	C	1.198293	0.166634	0.761124
C37	C	1.198284	0.166629	0.674578
C38	C	1.138838	0.226015	0.631304
C39	C	1.138832	0.226014	0.537460
C40	C	1.138832	0.226008	0.462662
H41	H	0.626954	0.113425	0.000073
C42	C	0.663833	0.364619	0.000032
H43	H	0.617532	0.411426	0.000033
H44	H	0.702576	0.372108	-0.047920
H45	H	0.702581	0.372110	0.047980
H46	H	1.026243	-0.285865	0.000047
H47	H	1.030970	0.333746	0.203758
H48	H	1.251418	-0.262106	0.000071
C49	C	1.263673	0.101298	0.808727
H50	H	1.255163	0.109796	0.866468
H51	H	1.328265	0.117091	0.794535
H52	H	1.247912	0.036694	0.794555
H53	H	1.031033	0.333782	0.796347
C54	C	1.263615	0.101274	0.191414
H55	H	1.299006	0.065898	0.229586
H56	H	1.306257	0.138995	0.157638
H57	H	1.225901	0.058602	0.157668
C58	C	1.263640	0.101291	0.373150
H59	H	1.299042	0.065929	0.334985
H60	H	1.225951	0.058620	0.406926
H61	H	1.306287	0.139034	0.406896
H62	H	1.246679	0.118269	0.639351
H63	H	1.031012	0.333769	0.639339
H64	H	1.030987	0.333748	0.360773
