data_functionalizedCrystal
_audit_creation_method	'MofGen! by Chris Wilmer'
_symmetry_space_group_name_H-M	'P1'
_symmetry_Int_Tables_number	1
_symmetry_cell_setting	triclinic
loop_
_symmetry_equiv_pos_as_xyz
  x,y,z
_cell_length_a	14.044191
_cell_length_b	12.503572
_cell_length_c	14.519731
_cell_angle_alpha	86.470900
_cell_angle_beta	88.440315
_cell_angle_gamma	93.837835
loop_
_atom_site_label
_atom_site_type_symbol
_atom_site_fract_x
_atom_site_fract_y
_atom_site_fract_z
O1	O	1.263557	0.089273	0.217515
O2	O	1.763557	0.589273	0.717515
O3	O	0.987574	0.089286	0.209483
O4	O	1.487574	0.589286	0.709483
O5	O	1.132872	0.089269	0.079852
O6	O	1.632872	0.589269	0.579852
O7	O	1.118260	0.089289	0.347146
O8	O	1.618260	0.589289	0.847146
O9	O	1.121945	-0.089371	0.089619
O10	O	1.621945	0.410629	0.589619
O11	O	0.976647	-0.089355	0.219250
O12	O	1.476647	0.410645	0.719250
O13	O	1.252630	-0.089368	0.227282
O14	O	1.752630	0.410632	0.727282
Cu15	Cu	1.113641	-0.105673	0.224157
Cu16	Cu	1.613641	0.394327	0.724157
Cu17	Cu	1.126564	0.105591	0.212607
Cu18	Cu	1.626564	0.605591	0.712607
O19	O	1.107332	-0.089351	0.356913
O20	O	1.607332	0.410649	0.856913
C21	C	0.946790	-0.000033	0.210853
C22	C	1.446790	0.499967	0.710853
C23	C	0.841546	-0.000028	0.200373
C24	C	1.341546	0.499972	0.700373
N25	N	1.104559	-0.254264	0.232281
N26	N	1.604559	0.245736	0.732281
C27	C	0.591357	-0.000034	0.255539
C28	C	1.091357	0.499966	0.755539
C29	C	0.648854	-0.000038	0.181230
C30	C	1.148854	0.499962	0.681230
C31	C	0.756077	-0.000032	0.191884
C32	C	1.256077	0.499968	0.691884
C33	C	0.484123	-0.000040	0.244886
C34	C	0.984123	0.499960	0.744886
C35	C	1.091198	-0.473378	0.244239
C36	C	1.591198	0.026622	0.744239
C37	C	1.149010	-0.526711	0.192521
C38	C	1.649010	-0.026711	0.692521
C39	C	1.141577	-0.648634	0.199175
C40	C	1.641577	-0.148634	0.699175
C41	C	1.098631	-0.351444	0.237587
C42	C	1.598631	0.148556	0.737587
C43	C	1.293414	-0.000047	0.225911
C44	C	1.793414	0.499953	0.725911
C45	C	1.398659	-0.000045	0.236391
C46	C	1.898659	0.499955	0.736391
C47	C	1.126724	-0.000051	0.050321
C48	C	1.626724	0.499949	0.550321
C49	C	1.124672	-0.000052	-0.052225
C50	C	1.624672	0.499948	0.447775
N51	N	1.135653	0.254182	0.204477
N52	N	1.635653	0.754182	0.704477
C53	C	1.123005	-0.000049	-0.135504
C54	C	1.623005	0.499951	0.364496
C55	C	1.120922	-0.000041	-0.239981
C56	C	1.620922	0.499959	0.260019
C57	C	1.119269	-0.000034	-0.323254
C58	C	1.619269	0.499966	0.176746
C59	C	1.117186	-0.000028	-0.427738
C60	C	1.617186	0.499972	0.072262
C61	C	1.113481	-0.000028	0.386444
C62	C	1.613481	0.499972	0.886444
C63	C	1.115533	-0.000021	0.488989
C64	C	1.615533	0.499979	0.988989
H65	H	0.617556	0.000032	0.109606
H66	H	1.117556	0.500032	0.609606
H67	H	0.622658	-0.000026	0.327153
H68	H	1.122658	0.499974	0.827153
H69	H	1.204089	-0.480805	0.143248
H70	H	1.704089	0.019195	0.643248
H71	H	1.036125	-0.519279	0.293511
H72	H	1.536125	-0.019279	0.793511
