data_functionalizedCrystal
_audit_creation_method	'MofGen! by Chris Wilmer'
_symmetry_space_group_name_H-M	'P1'
_symmetry_Int_Tables_number	1
_symmetry_cell_setting	triclinic
loop_
_symmetry_equiv_pos_as_xyz
  x,y,z
_cell_length_a	12.837943
_cell_length_b	10.489741
_cell_length_c	11.892095
_cell_angle_alpha	93.929268
_cell_angle_beta	85.689438
_cell_angle_gamma	89.684057
loop_
_atom_site_label
_atom_site_type_symbol
_atom_site_fract_x
_atom_site_fract_y
_atom_site_fract_z
O1	O	1.384503	0.324530	-0.093982
O2	O	1.082575	0.308135	-0.093989
O3	O	1.240409	0.131493	-0.093979
O4	O	1.226669	0.501172	-0.093992
O5	O	1.227249	0.146196	0.094028
O6	O	1.069415	0.322838	0.094018
O7	O	1.371343	0.339233	0.094024
Zn8	Zn	1.218290	0.333370	0.123871
Zn9	Zn	1.235629	0.313998	-0.123836
O10	O	1.213509	0.515875	0.094014
C11	C	1.037334	0.309948	0.000014
C12	C	0.922133	0.293430	0.000011
C13	C	1.232791	0.091198	0.000024
C14	C	1.229687	-0.050774	0.000022
C15	C	0.682657	0.492006	0.000020
C16	C	0.574415	0.476492	0.000019
C17	C	0.597406	0.246889	0.000015
C18	C	0.705648	0.262403	0.000016
C19	C	0.748269	0.384966	0.000017
C20	C	0.856513	0.400478	0.000011
C21	C	0.879501	0.170877	0.000015
C22	C	0.771260	0.155363	0.000014
C23	C	1.129262	-0.129987	0.000011
C24	C	1.170213	-0.209630	0.092709
C25	C	1.183212	-0.224098	-0.092650
C26	C	1.270674	-0.128541	0.092796
C27	C	1.283664	-0.143007	-0.092647
C28	C	1.324687	-0.222613	0.000074
C29	C	1.416585	0.337420	0.000019
C30	C	1.531786	0.353937	0.000014
C31	C	1.221127	0.556170	0.000009
C32	C	1.224233	0.698141	0.000004
N33	N	1.206464	0.346591	0.292925
N34	N	1.247463	0.300768	-0.292889
C35	C	1.329751	0.208698	0.529580
C36	C	1.321493	0.217950	0.647922
C37	C	1.181684	0.374338	0.647951
C38	C	1.189943	0.365086	0.529609
C39	C	1.263980	0.282265	0.470428
C40	C	1.272243	0.273021	0.352085
C41	C	1.132429	0.429402	0.352116
C42	C	1.124171	0.438653	0.470457
H43	H	0.891213	0.500275	0.000013
C44	C	1.017717	-0.075189	0.000132
H45	H	0.977589	-0.097764	0.066078
H46	H	0.986242	-0.109222	-0.065052
H47	H	1.020508	0.015240	-0.000531
H48	H	1.375049	0.158043	0.696080
C49	C	1.105404	-0.249582	0.198574
H50	H	1.035980	-0.217783	0.198462
H51	H	1.135807	-0.215455	0.264401
H52	H	1.104424	-0.340163	0.198152
H53	H	1.121398	0.441759	0.696151
H54	H	1.078877	0.489309	0.303941
C55	C	1.320607	-0.072294	0.198788
H56	H	1.339504	-0.139646	0.242995
H57	H	1.271948	-0.016689	0.242119
H58	H	1.381188	-0.025860	0.176634
C59	C	0.729545	0.626814	0.000011
H60	H	0.674965	0.688344	0.000014
H61	H	0.775882	0.632507	-0.065551
H62	H	0.766701	0.642767	0.065581
C63	C	0.502246	0.594235	0.000012
H64	H	0.543137	0.669445	0.000003
H65	H	0.454950	0.598084	0.065570
H66	H	0.464137	0.587828	-0.065562
H67	H	1.332530	0.205588	0.303901
H68	H	1.407327	-0.262921	0.000127
C69	C	1.348426	-0.103010	-0.198516
H70	H	1.317253	-0.135801	-0.264321
H71	H	1.417505	-0.136125	-0.199183
H72	H	1.350450	-0.012416	-0.197374
C73	C	1.133204	-0.280553	-0.198522
H74	H	1.063772	-0.248710	-0.198401
H75	H	1.132162	-0.371064	-0.198137
H76	H	1.172818	-0.256684	-0.264346
C77	C	1.411189	0.117611	0.464473
H78	H	1.406692	0.122645	0.385521
H79	H	1.397941	0.032544	0.483869
H80	H	1.479186	0.141469	0.483850
C81	C	0.550509	0.112087	0.000026
H82	H	0.476647	0.118183	0.000024
H83	H	0.568386	0.072586	0.065588
H84	H	0.577550	0.062330	-0.065544
C85	C	1.042741	0.529754	0.535562
H86	H	1.047246	0.524735	0.614515
H87	H	0.974745	0.505924	0.516184
H88	H	1.056013	0.614822	0.516164
H89	H	0.736541	0.055577	0.000026
H90	H	0.932936	0.083716	0.000005
