data_functionalizedCrystal
_audit_creation_method	'MofGen! by Chris Wilmer'
_symmetry_space_group_name_H-M	'P1'
_symmetry_Int_Tables_number	1
_symmetry_cell_setting	triclinic
loop_
_symmetry_equiv_pos_as_xyz
  x,y,z
_cell_length_a	19.188940
_cell_length_b	10.723024
_cell_length_c	18.266242
_cell_angle_alpha	90.008634
_cell_angle_beta	89.994424
_cell_angle_gamma	96.191708
loop_
_atom_site_label
_atom_site_type_symbol
_atom_site_fract_x
_atom_site_fract_y
_atom_site_fract_z
O1	O	0.097923	-1.655170	-0.060877
O2	O	0.107296	-1.291824	-0.060880
O3	O	0.001022	-1.483976	-0.060873
O4	O	0.204197	-1.463018	-0.060884
O5	O	0.001019	-1.483943	0.060889
O6	O	0.107293	-1.291791	0.060882
O7	O	0.097920	-1.655137	0.060885
Zn8	Zn	0.102606	-1.473459	0.080216
Zn9	Zn	0.102610	-1.473502	-0.080211
O10	O	0.204193	-1.462985	0.060878
C11	C	0.106612	-1.245322	0.000001
C12	C	0.104572	-1.106810	0.000000
C13	C	-0.024994	-1.483279	0.000008
C14	C	-0.102512	-1.481235	0.000008
C15	C	0.098604	-1.701639	0.000003
C16	C	0.100644	-1.840151	-0.000001
C17	C	-0.655867	-1.466680	0.066363
C18	C	-0.583031	-1.468586	0.066367
C19	C	-0.546603	-1.469563	-0.000005
C20	C	-0.583016	-1.468601	-0.066385
C21	C	-0.655851	-1.466682	-0.066387
N22	N	-0.437097	-1.543593	-0.049406
N23	N	-0.367907	-1.545419	-0.049399
C24	C	-0.327156	-1.475342	-0.000002
N25	N	-0.358210	-1.403387	0.049400
N26	N	-0.427406	-1.401567	0.049395
C27	C	-0.467626	-1.471643	-0.000010
C28	C	-0.211773	-1.478362	0.066379
C29	C	-0.138935	-1.480261	0.066380
C30	C	-0.138922	-1.480288	-0.066374
C31	C	-0.211759	-1.478377	-0.066373
C32	C	-0.248180	-1.477420	0.000005
C33	C	0.230210	-1.463682	-0.000004
C34	C	0.307728	-1.465725	-0.000009
N35	N	0.102603	-1.473439	0.189703
C36	C	0.164037	-1.030596	-0.000004
C37	C	0.161929	-0.887437	-0.000004
N38	N	0.102608	-1.473532	-0.189698
C39	C	0.145338	-1.548875	0.228004
C40	C	0.145336	-1.548896	0.304649
C41	C	0.102607	-1.473457	0.342990
C42	C	0.059863	-1.398016	0.304680
C43	C	0.059861	-1.398006	0.228036
N44	N	0.100177	-1.364177	0.463342
N45	N	0.100183	-1.364188	0.536150
C46	C	0.102610	-1.473482	0.573912
N47	N	0.105044	-1.582763	0.536116
N48	N	0.105041	-1.582750	0.463301
C49	C	0.102604	-1.473459	0.426097
C50	C	0.145345	-1.548947	0.695320
C51	C	0.145339	-1.548970	0.771967
C52	C	0.059869	-1.398078	0.771996
C53	C	0.059872	-1.398067	0.695351
C54	C	0.102614	-1.473499	0.657018
H55	H	-0.685517	-1.465899	0.120414
C56	C	-0.767494	-1.463753	-0.125333
C57	C	-0.695873	-1.465639	-0.139348
H58	H	-0.792201	-1.463103	-0.170377
H59	H	-0.784401	-1.536179	-0.098068
H60	H	-0.774452	-1.390683	-0.098058
H61	H	-0.688914	-1.538715	-0.166619
H62	H	-0.678960	-1.393207	-0.166624
C63	C	-0.025155	-0.857431	0.000000
C64	C	0.031914	-0.928536	-0.000000
H65	H	-0.067585	-0.912006	-0.000004
H66	H	-0.023299	-0.806035	0.042460
H67	H	-0.023288	-0.806044	-0.042463
H68	H	0.030050	-0.979917	0.042466
H69	H	0.030057	-0.979954	-0.042464
C70	C	0.229818	-1.698029	0.235679
C71	C	0.192311	-1.631805	0.185869
H72	H	0.258812	-1.749234	0.209664
H73	H	0.258135	-1.640453	0.265572
H74	H	0.197942	-1.749330	0.265575
H75	H	0.224187	-1.580497	0.155977
H76	H	0.163992	-1.689389	0.155964
C77	C	0.289456	-0.987730	-0.000008
C78	C	0.234875	-1.085573	-0.000006
H79	H	0.333190	-1.021671	-0.000005
H80	H	0.286104	-0.937604	-0.042468
H81	H	0.286096	-0.937573	0.042455
H82	H	0.238232	-1.135726	-0.042472
H83	H	0.238229	-1.135720	0.042458
C84	C	0.215265	-0.674333	-0.000007
C85	C	0.230656	-0.799042	-0.000008
H86	H	0.257697	-0.619763	-0.000006
H87	H	0.188839	-0.659339	-0.042465
H88	H	0.188830	-0.659320	0.042457
H89	H	0.257086	-0.814059	-0.042476
H90	H	0.257093	-0.814043	0.042454
C91	C	0.229822	-1.698106	0.702986
C92	C	0.192318	-1.631873	0.653178
H93	H	0.258818	-1.749306	0.676969
H94	H	0.258138	-1.640536	0.732884
H95	H	0.197944	-1.749413	0.732877
H96	H	0.224197	-1.580559	0.623291
H97	H	0.164001	-1.689450	0.623268
H98	H	-0.553382	-1.469340	0.120417
C99	C	-0.323434	-1.475444	0.125322
C100	C	-0.251814	-1.477309	0.139339
H101	H	-0.348151	-1.474804	0.170365
H102	H	-0.330393	-1.402390	0.098059
H103	H	-0.340330	-1.547886	0.098044
H104	H	-0.234917	-1.404861	0.166612
H105	H	-0.244851	-1.550370	0.166613
H106	H	-0.553352	-1.469392	-0.120425
C107	C	0.150571	-1.716690	0.390826
C108	C	0.192317	-1.631816	0.346761
H109	H	0.179577	-1.767882	0.416819
H110	H	0.125125	-1.671764	0.424621
H111	H	0.118708	-1.767998	0.360918
H112	H	0.224177	-1.580501	0.376670
H113	H	0.217775	-1.676745	0.312963
C114	C	0.021962	-1.330944	0.422182
C115	C	0.012896	-1.315085	0.346820
H116	H	-0.007034	-1.279740	0.448195
H117	H	0.009450	-1.416370	0.434759
H118	H	0.069620	-1.307454	0.434702
H119	H	-0.034762	-1.338584	0.334299
H120	H	0.025404	-1.229640	0.334237
H121	H	0.052101	-1.066073	-0.000016
C122	C	-0.024620	-1.248857	0.235766
C123	C	0.012888	-1.315070	0.185931
H124	H	-0.053615	-1.197649	0.209769
H125	H	-0.052936	-1.306440	0.265651
H126	H	0.007256	-1.197561	0.265667
H127	H	-0.018988	-1.366374	0.156034
H128	H	0.041206	-1.257480	0.156034
H129	H	-0.109295	-1.481035	0.120430
H130	H	-0.109263	-1.481069	-0.120415
H131	H	-0.241401	-1.477608	-0.120421
C132	C	0.150565	-1.716789	0.858123
C133	C	0.192315	-1.631906	0.814067
H134	H	0.179567	-1.767995	0.884110
H135	H	0.125120	-1.671869	0.891923
H136	H	0.118699	-1.768082	0.828209
H137	H	0.224177	-1.580606	0.843982
H138	H	0.217771	-1.676829	0.780263
H139	H	0.025077	-1.336656	0.803213
H140	H	0.025075	-1.336633	0.664166
