data_functionalizedCrystal
_audit_creation_method	'MofGen! by Chris Wilmer'
_symmetry_space_group_name_H-M	'P1'
_symmetry_Int_Tables_number	1
_symmetry_cell_setting	triclinic
loop_
_symmetry_equiv_pos_as_xyz
  x,y,z
_cell_length_a	10.654541
_cell_length_b	15.072220
_cell_length_c	10.654545
_cell_angle_alpha	90.001296
_cell_angle_beta	95.515322
_cell_angle_gamma	90.011185
loop_
_atom_site_label
_atom_site_type_symbol
_atom_site_fract_x
_atom_site_fract_y
_atom_site_fract_z
O1	O	1.667860	0.073750	-0.176376
O2	O	1.302381	0.073758	-0.193185
O3	O	1.493523	0.073753	-0.002042
O4	O	1.476718	0.073755	-0.367520
O5	O	1.493475	-0.073812	-0.002052
O6	O	1.302334	-0.073808	-0.193196
O7	O	1.667813	-0.073815	-0.176387
Zn8	Zn	1.485065	-0.097240	-0.184793
Zn9	Zn	1.485128	0.097183	-0.184779
O10	O	1.476671	-0.073810	-0.367530
C11	C	1.255559	-0.000024	-0.191957
C12	C	1.116116	-0.000021	-0.188266
N13	N	1.485032	-0.229929	-0.184801
C14	C	1.088146	-0.000009	-0.416831
C15	C	1.008652	0.000001	-0.529374
C16	C	0.877634	0.000001	-0.525898
C17	C	0.826108	-0.000010	-0.409867
C18	C	0.905602	-0.000020	-0.297324
C19	C	1.036622	-0.000018	-0.300812
C20	C	0.933572	-0.000038	-0.068763
C21	C	1.064590	-0.000033	-0.072235
C22	C	0.882046	-0.000049	0.047269
C23	C	0.961540	-0.000053	0.159814
C24	C	1.092565	-0.000053	0.156334
C25	C	1.144084	-0.000042	0.040308
C26	C	1.485126	-0.589131	-0.184774
C27	C	1.382500	-0.551521	-0.286703
C28	C	1.382741	-0.448696	-0.287080
C29	C	1.485078	-0.410927	-0.184788
C30	C	1.616371	-0.448220	-0.214550
C31	C	1.615797	-0.551078	-0.215275
C32	C	1.457624	-0.551231	-0.052789
C33	C	1.454625	-0.448367	-0.053642
C34	C	1.485059	-0.310213	-0.184793
C35	C	1.485153	-0.689844	-0.184772
C36	C	1.714634	-0.000031	-0.177615
C37	C	1.854078	-0.000028	-0.181306
C38	C	1.492265	-0.000028	0.044751
C39	C	1.488572	-0.000022	0.184195
N40	N	1.485172	0.229872	-0.184761
C41	C	1.477929	-0.000028	-0.414323
C42	C	1.481621	-0.000027	-0.553766
C43	C	1.488639	0.160858	0.184214
C44	C	1.486943	0.241297	0.249734
C45	C	1.483474	0.241298	0.380753
C46	C	1.481697	0.160851	0.446254
C47	C	1.483394	0.080411	0.380735
C48	C	1.486867	0.080419	0.249713
C49	C	1.483318	-0.080467	0.380714
C50	C	1.486796	-0.080470	0.249696
C51	C	1.481542	-0.160914	0.446215
C52	C	1.483247	-0.241355	0.380697
C53	C	1.486718	-0.241353	0.249670
C54	C	1.488493	-0.160909	0.184176
H55	H	1.194826	0.000010	-0.419672
H56	H	1.285185	-0.423483	-0.269180
O57	O	1.492433	0.160894	0.042907
H58	H	1.407902	0.126187	-0.002154
H59	H	1.478857	0.160859	0.552935
O60	O	1.488860	0.328061	0.179082
H61	H	1.402757	0.366636	0.193776
H62	H	1.157283	-0.000064	0.247981
O63	O	1.720073	-0.584042	-0.120771
H64	H	1.770693	-0.526515	-0.074761
H65	H	1.478710	-0.160907	0.552897
O66	O	1.481627	0.328054	0.451431
H67	H	1.483445	0.383994	0.383880
H68	H	1.400421	-0.424082	-0.385000
O69	O	1.648965	-0.414093	-0.340656
H70	H	1.741994	-0.440918	-0.360645
O71	O	1.481351	-0.328117	0.451340
H72	H	1.478660	-0.314602	0.553453
H73	H	0.775363	-0.000054	0.050090
O74	O	1.647666	-0.582857	-0.342818
H75	H	1.663335	-0.524759	-0.403400
H76	H	1.363903	-0.577219	-0.024454
O77	O	1.488555	-0.328119	0.179014
H78	H	1.404683	-0.331966	0.108875
O79	O	1.492386	-0.160851	0.042882
H80	H	1.407920	-0.126099	-0.002188
H81	H	1.694610	-0.423753	-0.142333
O82	O	0.905966	-0.000075	0.284949
H83	H	0.937830	0.060063	0.339104
H84	H	1.358038	-0.423993	-0.031082
H85	H	1.284632	-0.576281	-0.269080
O86	O	1.064221	0.000015	-0.654520
H87	H	1.168681	0.000021	-0.638037
O88	O	1.405607	-0.585740	-0.415680
H89	H	1.322155	-0.623996	-0.455727
O90	O	0.791879	0.000007	-0.647276
H91	H	0.810323	0.060159	-0.702733
H92	H	1.524429	-0.422661	0.025850
H93	H	1.532451	-0.575551	0.023076
O94	O	0.684797	-0.000020	-0.406111
H95	H	0.638176	-0.000012	-0.503861
O96	O	1.285396	-0.000049	0.036558
H97	H	1.307865	-0.000048	-0.063029
