data_functionalizedCrystal
_audit_creation_method	'MofGen! by Chris Wilmer'
_symmetry_space_group_name_H-M	'P1'
_symmetry_Int_Tables_number	1
_symmetry_cell_setting	triclinic
loop_
_symmetry_equiv_pos_as_xyz
  x,y,z
_cell_length_a	14.044220
_cell_length_b	14.044220
_cell_length_c	12.503572
_cell_angle_alpha	86.156832
_cell_angle_beta	93.835250
_cell_angle_gamma	93.188878
loop_
_atom_site_label
_atom_site_type_symbol
_atom_site_fract_x
_atom_site_fract_y
_atom_site_fract_z
O1	O	1.282200	0.225116	0.089210
O2	O	1.782200	0.725116	0.589210
O3	O	1.005530	0.216809	0.089237
O4	O	1.505530	0.716809	0.589237
O5	O	1.139712	0.082627	0.089213
O6	O	1.639712	0.582627	0.589213
O7	O	1.148019	0.359298	0.089234
O8	O	1.648019	0.859298	0.589234
O9	O	1.129622	0.092737	-0.089427
O10	O	1.629622	0.592737	0.410573
O11	O	0.995440	0.226918	-0.089403
O12	O	1.495440	0.726918	0.410597
O13	O	1.272110	0.235226	-0.089430
O14	O	1.772110	0.735226	0.410570
Cu15	Cu	1.132854	0.231995	-0.105728
Cu16	Cu	1.632854	0.731995	0.394272
Cu17	Cu	1.144786	0.220040	0.105535
Cu18	Cu	1.644786	0.720040	0.605535
O19	O	1.137929	0.369407	-0.089406
O20	O	1.637929	0.869407	0.410594
C21	C	1.131031	0.052060	-0.000107
C22	C	1.631031	0.552060	0.499893
C23	C	1.120187	-0.054082	-0.000107
C24	C	1.620187	0.445918	0.499893
C25	C	0.964864	0.218228	-0.000080
C26	C	1.464864	0.718228	0.499920
C27	C	0.858721	0.207383	-0.000070
C28	C	1.358721	0.707383	0.499930
C29	C	1.100361	-0.248421	-0.000090
C30	C	1.600361	0.251579	0.499910
C31	C	1.177275	-0.299551	-0.000094
C32	C	1.677275	0.200449	0.499906
C33	C	1.166244	-0.407687	-0.000084
C34	C	1.666244	0.092313	0.499916
C35	C	1.111391	-0.140274	-0.000099
C36	C	1.611391	0.359726	0.499901
C37	C	0.664382	0.187558	-0.000092
C38	C	1.164382	0.687558	0.499908
C39	C	0.613253	0.264472	-0.000091
C40	C	1.113253	0.764472	0.499909
C41	C	0.505116	0.253441	-0.000104
C42	C	1.005116	0.753441	0.499896
C43	C	0.772529	0.198587	-0.000080
C44	C	1.272529	0.698587	0.499920
C45	C	1.312777	0.233807	-0.000111
C46	C	1.812777	0.733807	0.499889
C47	C	1.418920	0.244651	-0.000114
C48	C	1.918920	0.744651	0.499886
C49	C	1.146609	0.399974	-0.000084
C50	C	1.646609	0.899974	0.499916
C51	C	1.157454	0.506117	-0.000077
C52	C	1.657454	1.006117	0.499923
N53	N	1.124469	0.240404	-0.254319
N54	N	1.624469	0.740404	0.245681
C55	C	1.112134	0.252782	-0.473432
C56	C	1.612134	0.752782	0.026568
C57	C	1.165511	0.199249	-0.526768
C58	C	1.665511	0.699249	-0.026768
C59	C	1.158648	0.206136	-0.648690
C60	C	1.658648	0.706136	-0.148690
C61	C	1.118996	0.245896	-0.351499
C62	C	1.618996	0.745896	0.148501
N63	N	1.153179	0.211624	0.254126
N64	N	1.653179	0.711624	0.754126
H65	H	1.251413	-0.262115	-0.000029
H66	H	1.751413	0.237885	0.499971
O67	O	1.051555	0.313614	-0.528350
O68	O	1.551555	0.813614	-0.028350
C69	C	0.989338	0.375960	-0.701719
C70	C	1.489338	0.875960	-0.201719
C71	C	1.057993	0.307043	-0.639642
C72	C	1.557993	0.807043	-0.139642
H73	H	0.994505	0.370656	-0.791709
H74	H	1.494505	0.870656	-0.291709
H75	H	1.009598	0.452260	-0.679762
H76	H	1.509598	0.952260	-0.179762
H77	H	0.913027	0.355933	-0.679631
H78	H	1.413027	0.855933	-0.179631
H79	H	1.134326	0.326982	-0.661696
H80	H	1.634326	0.826982	-0.161696
H81	H	1.037651	0.230760	-0.661604
H82	H	1.537651	0.730760	-0.161604
O83	O	0.657863	0.352942	-0.000255
O84	O	1.157863	0.852942	0.499745
C85	C	0.676500	0.508333	-0.092720
C86	C	1.176500	1.008333	0.407280
C87	C	0.625918	0.408179	-0.092690
C88	C	1.125918	0.908179	0.407310
H89	H	0.650678	0.553027	-0.167435
H90	H	1.150678	1.053027	0.332565
H91	H	0.757024	0.501642	-0.092776
H92	H	1.257024	1.001642	0.407224
H93	H	0.659197	0.544498	-0.017917
H94	H	1.159197	1.044498	0.482083
H95	H	0.643145	0.371957	-0.167481
H96	H	1.143145	0.871957	0.332519
H97	H	0.545408	0.414935	-0.092579
H98	H	1.045408	0.914935	0.407421
H99	H	1.216364	0.148245	-0.480864
H100	H	1.716364	0.648245	0.019136
H101	H	0.626945	0.113431	-0.000104
H102	H	1.126945	0.613431	0.499896
H103	H	1.026234	-0.285859	-0.000080
H104	H	1.526234	0.214141	0.499920
