data_functionalizedCrystal
_audit_creation_method	'MofGen! by Chris Wilmer'
_symmetry_space_group_name_H-M	'P1'
_symmetry_Int_Tables_number	1
_symmetry_cell_setting	triclinic
loop_
_symmetry_equiv_pos_as_xyz
  x,y,z
_cell_length_a	12.759401
_cell_length_b	15.298853
_cell_length_c	12.759387
_cell_angle_alpha	80.261305
_cell_angle_beta	89.961141
_cell_angle_gamma	80.334325
loop_
_atom_site_label
_atom_site_type_symbol
_atom_site_fract_x
_atom_site_fract_y
_atom_site_fract_z
Zn1	Zn	1.678768	-0.358849	-0.521703
Zn2	Zn	1.709020	-0.509825	-0.315611
Zn3	Zn	1.503034	-0.358977	-0.346016
Zn4	Zn	1.533449	-0.509677	-0.491283
O5	O	1.606068	-0.434332	-0.418653
O6	O	1.829804	-0.378885	-0.494371
O7	O	1.681627	-0.489930	-0.172600
O8	O	1.500956	-0.232707	-0.394776
O9	O	1.852030	-0.489807	-0.342956
O10	O	1.630068	-0.232613	-0.523852
O11	O	1.530290	-0.379102	-0.194938
O12	O	1.360046	-0.378959	-0.365279
O13	O	1.552794	-0.489554	-0.642362
O14	O	1.382391	-0.489678	-0.472006
O15	O	1.659560	-0.378741	-0.664712
O16	O	1.711119	-0.636058	-0.313459
O17	O	1.582128	-0.635949	-0.442524
C18	C	1.333097	-0.434317	-0.418641
C19	C	1.216324	-0.434332	-0.418657
C20	C	1.149910	-0.376679	-0.497581
C21	C	1.040188	-0.376688	-0.497586
C22	C	1.063304	-0.492010	-0.339739
C23	C	1.173023	-0.491996	-0.339730
C24	C	1.653235	-0.668740	-0.371415
C25	C	1.673510	-0.769020	-0.351241
C26	C	1.750243	-0.816155	-0.274624
C27	C	1.769301	-0.910373	-0.255674
C28	C	1.711622	-0.957467	-0.313333
C29	C	1.634882	-0.910332	-0.389946
C30	C	1.615828	-0.816104	-0.408904
C31	C	1.577207	-0.957416	-0.447613
C32	C	1.500467	-0.910282	-0.524226
C33	C	1.481416	-0.816063	-0.543179
C34	C	1.539095	-0.768970	-0.485521
C35	C	1.596261	-1.051644	-0.428655
C36	C	1.461846	-1.051594	-0.562935
C37	C	1.442788	-0.957375	-0.581885
C38	C	1.880104	-0.434348	-0.418665
C39	C	1.996882	-0.434355	-0.418671
C40	C	1.606195	-0.434117	-0.692730
C41	C	1.606249	-0.434025	-0.809525
C42	C	1.558745	-0.199009	-0.466099
C43	C	1.538579	-0.098728	-0.486318
C44	C	1.605989	-0.434481	-0.145655
C45	C	1.606087	-0.434319	-0.028912
C46	C	1.661222	-0.375988	0.123636
C47	C	1.661138	-0.376132	0.013941
C48	C	1.551107	-0.492358	0.037935
C49	C	1.551185	-0.492209	0.147627
H50	H	1.658744	-1.090012	-0.366277
H51	H	1.706055	-0.328609	0.158518
O52	O	1.714635	-0.319727	-0.050829
C53	C	1.823730	-0.204397	-0.063052
C54	C	1.763209	-0.268247	0.010424
H55	H	1.863000	-0.162745	-0.013561
H56	H	1.887298	-0.245503	-0.106080
H57	H	1.765625	-0.157626	-0.123931
H58	H	1.821233	-0.315031	0.071363
H59	H	1.699626	-0.227085	0.053375
O60	O	1.191868	-0.320707	-0.574379
C61	C	1.216833	-0.277043	-0.761975
C62	C	1.169246	-0.340476	-0.675111
H63	H	1.198580	-0.293016	-0.843434
H64	H	1.180573	-0.204271	-0.758418
H65	H	1.306653	-0.286921	-0.748364
H66	H	1.079429	-0.330679	-0.688664
H67	H	1.205588	-0.413225	-0.678690
H68	H	1.506412	-0.539469	0.202049
H69	H	1.506279	-0.539732	0.003035
O70	O	1.405644	-1.097232	-0.618917
C71	C	1.232778	-1.126189	-0.663903
C72	C	1.296283	-1.074425	-0.600472
H73	H	1.144350	-1.107783	-0.648995
H74	H	1.247358	-1.107540	-0.752404
H75	H	1.259629	-1.201623	-0.637209
H76	H	1.269471	-0.998979	-0.627074
H77	H	1.281699	-1.093148	-0.511983
O78	O	0.975586	-0.320813	-0.574283
C79	C	0.849445	-0.308778	-0.718636
C80	C	0.922542	-0.372161	-0.631802
H81	H	0.806557	-0.350268	-0.765178
H82	H	0.788469	-0.261591	-0.680068
H83	H	0.899262	-0.267545	-0.774996
H84	H	0.872813	-0.413452	-0.575414
H85	H	0.983523	-0.419288	-0.670442
H86	H	1.028035	-0.538959	-0.275480
H87	H	1.727143	-1.034184	-0.297899
O88	O	1.806141	-0.770270	-0.218687
C89	C	1.836405	-0.625130	-0.188444
C90	C	1.772999	-0.676982	-0.251855
H91	H	1.809650	-0.549698	-0.215252
H92	H	1.821725	-0.643689	-0.099952
H93	H	1.924846	-0.643626	-0.203235
H94	H	1.684539	-0.658514	-0.237153
H95	H	1.787768	-0.658419	-0.340326
O96	O	1.237399	-0.548089	-0.263008
C97	C	1.248750	-0.662436	-0.106408
C98	C	1.175727	-0.598979	-0.193243
H99	H	1.198915	-0.703583	-0.049968
H100	H	1.309645	-0.709690	-0.144974
H101	H	1.291752	-0.620958	-0.059954
H102	H	1.132654	-0.640384	-0.239727
H103	H	1.114898	-0.551722	-0.154613
O104	O	1.843841	-0.956017	-0.181184
C105	C	1.975195	-0.946118	-0.050043
C106	C	1.890788	-0.894314	-0.134360
H107	H	2.013191	-0.896253	-0.012178
H108	H	1.935955	-0.990305	0.013893
H109	H	2.038983	-0.990159	-0.089482
H110	H	1.826975	-0.850224	-0.095016
H111	H	1.930105	-0.850184	-0.198288
H112	H	1.523582	-0.692249	-0.500946
O113	O	1.406803	-0.770415	-0.617607
C114	C	1.275530	-0.780311	-0.748830
C115	C	1.359981	-0.832118	-0.664558
H116	H	1.237666	-0.830175	-0.786829
H117	H	1.211639	-0.736320	-0.709444
H118	H	1.314824	-0.736075	-0.812662
H119	H	1.320781	-0.876403	-0.600701
H120	H	1.423863	-0.876052	-0.704020
H121	H	1.380305	-0.918987	-0.644265
