data_functionalizedCrystal
_audit_creation_method	'MofGen! by Chris Wilmer'
_symmetry_space_group_name_H-M	'P1'
_symmetry_Int_Tables_number	1
_symmetry_cell_setting	triclinic
loop_
_symmetry_equiv_pos_as_xyz
  x,y,z
_cell_length_a	15.995350
_cell_length_b	9.482900
_cell_length_c	10.967931
_cell_angle_alpha	68.660030
_cell_angle_beta	95.886770
_cell_angle_gamma	80.713991
loop_
_atom_site_label
_atom_site_type_symbol
_atom_site_fract_x
_atom_site_fract_y
_atom_site_fract_z
O1	O	1.120882	-0.083870	-0.147285
O2	O	0.876668	-0.078715	-0.167980
O3	O	1.009474	-0.128711	0.031675
O4	O	0.988076	-0.033873	-0.346940
O5	O	0.982495	0.123278	-0.009042
O6	O	0.849689	0.173274	-0.208697
O7	O	1.093902	0.168119	-0.188002
Cu8	Cu	0.969332	0.193705	-0.202067
Cu9	Cu	1.001238	-0.104301	-0.153915
O10	O	0.961096	0.218115	-0.387657
C11	C	0.832003	0.047061	-0.187482
C12	C	0.739108	0.046407	-0.184914
N13	N	0.946897	0.403306	-0.235935
N14	N	1.023680	-0.313904	-0.120037
C15	C	0.401554	0.044131	-0.175706
C16	C	0.451959	0.009076	-0.033604
C17	C	0.548656	0.009140	-0.036077
C18	C	0.569018	0.045260	-0.180274
C19	C	0.541842	-0.081064	-0.227157
C20	C	0.445294	-0.082068	-0.223567
C21	C	0.414212	0.205226	-0.272808
C22	C	0.510956	0.207108	-0.273080
C23	C	0.663662	0.045896	-0.182862
C24	C	0.306911	0.043486	-0.173120
C25	C	1.138568	0.042340	-0.168500
C26	C	1.231464	0.042984	-0.171065
C27	C	0.996467	-0.014856	0.059767
C28	C	0.997894	-0.051028	0.204133
C29	C	0.994615	0.457466	-0.163897
C30	C	0.975955	0.631942	-0.192085
C31	C	0.986022	0.026019	0.396611
C32	C	0.984551	0.063399	0.247402
C33	C	0.974105	0.104260	0.584251
C34	C	0.972681	0.140430	0.439886
H35	H	0.567217	0.098479	0.002385
O36	O	0.957772	0.290388	0.352500
C37	C	0.945626	0.389511	0.421701
H38	H	0.977487	0.323812	0.530302
H39	H	0.873822	0.431559	0.415617
C40	C	0.947185	0.610425	0.225426
C41	C	0.986323	0.529737	0.358809
H42	H	0.972285	0.696928	0.186629
H43	H	0.955364	0.543646	0.178801
H44	H	0.887350	0.645451	0.220373
H45	H	1.046154	0.494696	0.363859
H46	H	0.978154	0.596514	0.405434
H47	H	0.554281	-0.059877	-0.332230
O48	O	1.088942	0.587359	-0.021609
C49	C	1.167419	0.630919	-0.048494
H50	H	1.154214	0.758683	-0.117030
H51	H	1.201509	0.557866	-0.098801
C52	C	1.241152	0.447677	0.166852
C53	C	1.224933	0.604602	0.082684
H54	H	1.276632	0.431438	0.247768
H55	H	1.188281	0.418325	0.184964
H56	H	1.269557	0.386818	0.124913
H57	H	1.196520	0.665457	0.124616
H58	H	1.277801	0.633964	0.064582
H59	H	0.423600	0.098029	0.006560
H60	H	0.892226	0.486105	-0.318473
O61	O	0.443070	-0.130310	0.053498
C62	C	0.391446	-0.196261	-0.013412
H63	H	0.393760	-0.145034	-0.124212
H64	H	0.322210	-0.169969	0.002310
C65	C	0.422612	-0.435935	0.178023
C66	C	0.425461	-0.373027	0.041937
H67	H	0.443591	-0.544973	0.212167
H68	H	0.457390	-0.391502	0.223104
H69	H	0.364914	-0.414010	0.191106
H70	H	0.483160	-0.394935	0.028857
H71	H	0.390694	-0.417468	-0.003145
O72	O	0.910779	0.730582	-0.290715
C73	C	0.926001	0.724194	-0.413156
H74	H	0.970552	0.608931	-0.394368
H75	H	0.957410	0.823449	-0.467559
C76	C	0.785302	0.880409	-0.521871
C77	C	0.840014	0.738834	-0.498795
H78	H	0.732262	0.889447	-0.574701
H79	H	0.775047	0.884718	-0.439382
H80	H	0.811486	0.963106	-0.567201
H81	H	0.813835	0.656140	-0.453452
H82	H	0.850263	0.734511	-0.581280
H83	H	0.588760	-0.108090	0.036121
O84	O	1.001079	-0.123894	0.484139
C85	C	1.082469	-0.202962	0.479308
H86	H	1.124399	-0.115890	0.439292
H87	H	1.074409	-0.268154	0.411161
C88	C	1.074126	-0.425831	0.669286
C89	C	1.125627	-0.318889	0.620149
H90	H	1.100747	-0.497345	0.756161
H91	H	1.019290	-0.372565	0.672539
H92	H	1.067412	-0.480142	0.612485
H93	H	1.132331	-0.264567	0.676940
H94	H	1.180466	-0.372149	0.616909
O95	O	0.438432	-0.225720	-0.142008
C96	C	0.389337	-0.289247	-0.214645
H97	H	0.391849	-0.230986	-0.324878
H98	H	0.319744	-0.269100	-0.198974
C99	C	0.423240	-0.536112	-0.030864
C100	C	0.426331	-0.464564	-0.166252
H101	H	0.446055	-0.644257	-0.001010
H102	H	0.456314	-0.493312	0.018076
H103	H	0.365243	-0.519307	-0.017822
H104	H	0.484327	-0.481353	-0.179289
H105	H	0.393267	-0.507371	-0.215193
O106	O	0.405063	-0.058952	-0.346807
C107	C	0.442905	-0.178354	-0.384384
H108	H	0.475863	-0.284496	-0.291622
H109	H	0.492467	-0.137178	-0.449193
C110	C	0.332293	-0.090659	-0.577122
C111	C	0.372766	-0.221029	-0.463189
H112	H	0.289030	-0.116980	-0.625738
H113	H	0.306799	-0.010212	-0.551809
H114	H	0.373603	-0.056358	-0.631115
H115	H	0.331458	-0.255316	-0.409191
H116	H	0.398251	-0.301483	-0.488495
O117	O	0.590736	-0.223270	-0.148419
C118	C	0.678152	-0.223186	-0.156345
H119	H	0.688130	-0.099319	-0.188956
H120	H	0.697622	-0.273358	-0.231793
C121	C	0.721607	-0.474779	0.021019
C122	C	0.733864	-0.322645	-0.019023
H123	H	0.755974	-0.536135	0.105723
H124	H	0.662713	-0.474839	0.026357
H125	H	0.737831	-0.516568	-0.041865
H126	H	0.717630	-0.280852	0.043852
H127	H	0.792757	-0.322580	-0.024347
H128	H	0.382990	0.302648	-0.243946
O129	O	0.969764	0.213301	0.159919
C130	C	1.033903	0.284976	0.194210
H131	H	1.093747	0.192731	0.254852
H132	H	1.009038	0.351866	0.255670
C133	C	0.983215	0.510817	-0.007751
C134	C	1.056719	0.397521	0.066720
H135	H	0.997286	0.580245	-0.086391
H136	H	0.940000	0.462531	-0.030852
H137	H	0.962501	0.566541	0.043480
H138	H	1.077424	0.341786	0.015495
H139	H	1.099937	0.445800	0.089810
H140	H	1.010409	-0.176662	0.277543
H141	H	0.523149	0.242140	-0.379637
O142	O	0.373474	0.237499	-0.397986
C143	C	0.333743	0.115131	-0.397926
H144	H	0.321994	0.049204	-0.293468
H145	H	0.377390	0.033043	-0.430534
C146	C	0.261687	0.262379	-0.623217
C147	C	0.247249	0.181414	-0.494922
H148	H	0.208335	0.303263	-0.683053
H149	H	0.288456	0.344819	-0.623261
H150	H	0.298061	0.193960	-0.650372
H151	H	0.210885	0.249838	-0.467764
H152	H	0.220472	0.098987	-0.494877
O153	O	0.531374	0.318631	-0.232387
C154	C	0.597829	0.250681	-0.120448
H155	H	0.634933	0.136737	-0.119098
H156	H	0.568916	0.227560	-0.026047
C157	C	0.613782	0.501555	-0.129176
C158	C	0.659359	0.361614	-0.127523
H159	H	0.651736	0.569984	-0.133535
H160	H	0.569008	0.547335	-0.204588
H161	H	0.589691	0.482266	-0.050506
H162	H	0.683441	0.380901	-0.206199
H163	H	0.704139	0.315839	-0.052124
H164	H	1.049281	0.374667	-0.081349
