data_functionalizedCrystal
_audit_creation_method	'MofGen! by Chris Wilmer'
_symmetry_space_group_name_H-M	'P1'
_symmetry_Int_Tables_number	1
_symmetry_cell_setting	triclinic
loop_
_symmetry_equiv_pos_as_xyz
  x,y,z
_cell_length_a	19.077236
_cell_length_b	29.839131
_cell_length_c	19.076919
_cell_angle_alpha	92.267459
_cell_angle_beta	89.887323
_cell_angle_gamma	92.334053
loop_
_atom_site_label
_atom_site_type_symbol
_atom_site_fract_x
_atom_site_fract_y
_atom_site_fract_z
Zn1	Zn	1.058216	-0.163081	-0.440523
Zn2	Zn	1.062823	-0.235077	-0.323009
Zn3	Zn	0.945432	-0.162845	-0.318303
Zn4	Zn	0.940640	-0.241071	-0.435746
O5	O	1.001778	-0.200519	-0.379395
O6	O	1.157162	-0.170222	-0.428903
O7	O	1.051185	-0.222889	-0.224054
O8	O	0.960471	-0.100008	-0.334546
O9	O	1.160547	-0.223117	-0.342566
O10	O	1.043333	-0.100181	-0.424341
O11	O	0.964938	-0.169820	-0.220597
O12	O	0.846462	-0.175632	-0.329914
O13	O	0.952303	-0.233332	-0.534710
O14	O	0.842941	-0.233104	-0.416199
O15	O	1.038686	-0.176033	-0.538220
O16	O	1.046538	-0.298741	-0.337933
O17	O	0.956770	-0.303144	-0.420761
C18	C	0.819204	-0.204993	-0.372028
C19	C	0.741097	-0.206918	-0.368893
C20	C	0.702638	-0.180331	-0.412440
C21	C	0.629249	-0.182137	-0.409488
C22	C	0.594320	-0.210535	-0.362992
C23	C	0.632785	-0.237124	-0.319440
C24	C	0.706173	-0.235314	-0.322389
C25	C	0.375023	-0.218892	-0.349341
C26	C	0.301630	-0.220701	-0.346397
C27	C	0.298099	-0.165714	-0.436444
C28	C	0.371489	-0.163909	-0.439392
C29	C	0.409947	-0.190496	-0.395838
N30	N	0.519305	-0.212383	-0.359975
N31	N	0.484961	-0.188645	-0.398852
C32	C	1.001652	-0.317243	-0.379355
C33	C	1.001662	-0.367178	-0.379364
C34	C	1.048599	-0.674513	-0.336336
C35	C	1.048685	-0.862185	-0.336367
O36	O	1.088493	-0.884489	-0.299751
N37	N	1.001922	-0.887958	-0.379454
C38	C	0.955137	-0.866811	-0.422541
O39	O	0.915369	-0.893040	-0.459195
C40	C	0.955055	-0.679141	-0.422513
C41	C	1.001816	-0.653369	-0.379417
C42	C	1.095357	-0.648742	-0.293244
C43	C	1.095333	-0.601827	-0.293234
C44	C	1.048550	-0.580683	-0.336316
C45	C	1.001792	-0.606454	-0.379407
C46	C	0.908274	-0.657995	-0.465603
C47	C	0.908259	-0.611074	-0.465593
C48	C	0.955021	-0.585302	-0.422497
C49	C	0.954985	-0.538395	-0.422479
N50	N	1.001748	-0.512622	-0.379391
C51	C	1.048531	-0.533766	-0.336310
C52	C	0.955182	-0.965341	-0.422551
C53	C	0.955201	-1.012259	-0.422557
C54	C	1.048750	-1.007629	-0.336384
C55	C	1.048727	-0.960710	-0.336375
C56	C	1.001945	-0.939568	-0.379463
C57	C	1.048475	-0.435241	-0.336291
C58	C	1.048445	-0.388322	-0.336283
C59	C	0.954899	-0.392956	-0.422458
C60	C	0.954926	-0.439871	-0.422464
C61	C	1.001721	-0.461012	-0.379379
O62	O	0.915203	-0.516061	-0.459081
O63	O	1.088303	-0.507529	-0.299672
C64	C	1.048624	-0.721428	-0.336346
C65	C	1.001865	-0.747199	-0.379438
C66	C	0.955083	-0.726056	-0.422519
C67	C	1.001885	-0.794117	-0.379444
C68	C	1.048667	-0.815261	-0.336362
C69	C	1.095431	-0.789487	-0.293275
C70	C	1.095406	-0.742572	-0.293265
C71	C	0.908320	-0.751829	-0.465607
C72	C	0.908347	-0.798744	-0.465612
C73	C	0.955130	-0.819888	-0.422531
C74	C	1.185065	-0.196027	-0.386792
C75	C	1.263171	-0.194113	-0.389944
C76	C	0.994446	-0.205378	-0.562674
C77	C	0.991322	-0.207448	-0.640777
C78	C	1.001922	-0.083338	-0.379452
C79	C	1.001984	-0.033403	-0.379476
C80	C	1.034827	-0.178590	-0.679298
C81	C	1.031882	-0.180534	-0.752683
C82	C	0.985436	-0.211339	-0.787546
C83	C	0.941927	-0.240198	-0.749019
C84	C	0.944868	-0.238252	-0.675635
C85	C	0.971814	-0.220357	-1.006824
C86	C	0.968877	-0.222303	-1.080214
C87	C	1.058833	-0.162638	-1.083872
C88	C	1.061773	-0.160696	-1.010487
C89	C	1.018260	-0.189553	-0.971966
N90	N	0.982427	-0.213328	-0.862557
N91	N	1.021266	-0.187562	-0.896956
C92	C	1.009122	-0.195645	-0.196831
C93	C	1.012382	-0.193445	-0.118735
H94	H	0.731072	-0.157208	-0.450304
Br95	Br	1.097869	-0.136785	-0.631991
Br96	Br	0.885819	-0.277416	-0.623355
H97	H	0.273193	-0.243828	-0.308534
Br98	Br	0.585382	-0.275659	-0.256332
Br99	Br	0.912760	-0.259521	-0.954556
Br100	Br	1.124811	-0.118889	-0.963178
Br101	Br	1.117880	-0.123475	-1.136153
Br102	Br	0.891727	-1.047228	-0.481035
H103	H	0.597939	-0.160488	-0.444950
H104	H	0.266779	-0.144068	-0.471903
H105	H	0.399923	-0.140787	-0.477257
H106	H	0.904107	-0.265279	-0.777410
Br107	Br	0.844824	-0.723142	-0.524082
Br108	Br	0.427208	-0.254963	-0.290213
H109	H	0.737485	-0.256964	-0.286928
H110	H	1.133412	-0.580846	-0.258144
H111	H	0.870164	-0.593862	-0.500683
H112	H	0.931053	-0.247389	-1.108597
H113	H	0.917085	-0.948130	-0.457640
H114	H	1.086523	-0.367340	-0.301187
Br115	Br	1.111982	-0.463925	-0.277818
Br116	Br	1.158858	-0.677428	-0.234770
H117	H	1.086843	-1.024852	-0.301306
Br118	Br	0.891448	-0.474847	-0.480934
Br119	Br	0.891414	-0.364251	-0.480926
Br120	Br	1.112190	-0.925740	-0.277885
Br121	Br	0.844877	-0.833714	-0.524103
Br122	Br	1.158918	-0.818192	-0.234804
Br123	Br	1.090960	-0.141387	-0.804961
H124	H	1.133484	-0.721592	-0.258172
H125	H	0.870193	-0.678970	-0.500692
