data_functionalizedCrystal
_audit_creation_method	'MofGen! by Chris Wilmer'
_symmetry_space_group_name_H-M	'P1'
_symmetry_Int_Tables_number	1
_symmetry_cell_setting	triclinic
loop_
_symmetry_equiv_pos_as_xyz
  x,y,z
_cell_length_a	10.654545
_cell_length_b	14.971494
_cell_length_c	9.730223
_cell_angle_alpha	89.997316
_cell_angle_beta	89.997167
_cell_angle_gamma	84.050318
loop_
_atom_site_label
_atom_site_type_symbol
_atom_site_fract_x
_atom_site_fract_y
_atom_site_fract_z
O1	O	1.666500	0.125611	-0.114270
O2	O	1.300893	0.137585	-0.114276
O3	O	1.493490	0.001452	-0.114270
O4	O	1.473903	0.261744	-0.114276
O5	O	1.493478	0.001448	0.114310
O6	O	1.300881	0.137581	0.114304
O7	O	1.666488	0.125607	0.114309
Zn8	Zn	1.483682	0.131594	0.150599
Zn9	Zn	1.483699	0.131599	-0.150565
O10	O	1.473890	0.261741	0.114304
C11	C	1.254098	0.136705	0.000014
C12	C	1.114683	0.134077	0.000011
C13	C	1.049185	0.132838	0.124611
C14	C	0.918192	0.130354	0.124611
C15	C	0.918206	0.130352	-0.124599
C16	C	1.049197	0.132829	-0.124598
C17	C	1.492606	-0.031880	0.000018
C18	C	1.489976	-0.131191	0.000012
C19	C	1.488749	-0.177840	-0.124589
C20	C	1.486269	-0.271153	-0.124591
C21	C	1.485025	-0.317815	0.000010
C22	C	1.486247	-0.271158	0.124620
C23	C	1.488718	-0.177847	0.124620
C24	C	1.481100	-0.465650	0.124610
C25	C	1.478632	-0.558968	0.124611
C26	C	1.478651	-0.558955	-0.124600
C27	C	1.481122	-0.465644	-0.124600
C28	C	1.482347	-0.418994	0.000011
C29	C	1.713283	0.126488	0.000017
C30	C	1.852698	0.129115	0.000010
C31	C	1.474774	0.295072	0.000013
C32	C	1.477405	0.394383	0.000010
N33	N	1.483680	0.131590	0.356135
N34	N	1.483710	0.131595	-0.356101
C35	C	1.568991	0.071336	0.428064
C36	C	1.569004	0.071336	0.571947
C37	C	1.398390	0.191852	0.571960
C38	C	1.398373	0.191847	0.428080
H39	H	1.102528	0.133836	-0.226068
O40	O	1.484927	-0.321492	0.259008
H41	H	1.398285	-0.356577	0.264970
H42	H	0.864872	0.129337	-0.226051
H43	H	1.328937	0.240914	0.630551
H44	H	1.489769	-0.139855	-0.226053
O45	O	1.484884	-0.321465	-0.258980
H46	H	1.486157	-0.273341	-0.345621
O47	O	1.660961	0.006325	0.350455
H48	H	1.722055	0.044364	0.284877
O49	O	1.661032	0.006360	0.649532
H50	H	1.720355	-0.035532	0.575328
H51	H	0.864869	0.129345	0.226073
O52	O	1.119815	0.134187	0.259007
H53	H	1.105788	0.072853	0.318761
H54	H	1.328896	0.240913	0.369511
O55	O	1.482452	-0.415308	-0.258985
H56	H	1.481168	-0.463419	-0.345635
H57	H	1.477651	-0.596942	-0.226063
H58	H	1.477607	-0.596957	0.226071
H59	H	1.482070	-0.427668	0.226082
H60	H	1.489699	-0.139865	0.226083
