data_functionalizedCrystal
_audit_creation_method	'MofGen! by Chris Wilmer'
_symmetry_space_group_name_H-M	'P1'
_symmetry_Int_Tables_number	1
_symmetry_cell_setting	triclinic
loop_
_symmetry_equiv_pos_as_xyz
  x,y,z
_cell_length_a	14.519709
_cell_length_b	8.559649
_cell_length_c	7.088929
_cell_angle_alpha	95.344185
_cell_angle_beta	83.779193
_cell_angle_gamma	76.729405
loop_
_atom_site_label
_atom_site_type_symbol
_atom_site_fract_x
_atom_site_fract_y
_atom_site_fract_z
O1	O	-1.198225	-0.225782	-0.158735
O2	O	-0.698225	0.274218	0.341265
O3	O	-0.927974	-0.250449	-0.158792
O4	O	-0.427974	0.249551	0.341208
O5	O	-1.086909	-0.005581	-0.158756
O6	O	-0.586909	0.494419	0.341244
O7	O	-1.039290	-0.470650	-0.158770
O8	O	-0.539290	0.029350	0.341230
O9	O	-1.108154	0.027217	0.159224
O10	O	-0.608154	0.527217	0.659224
O11	O	-0.949219	-0.217651	0.159188
O12	O	-0.449219	0.282349	0.659188
O13	O	-1.219470	-0.192984	0.159245
O14	O	-0.719470	0.307016	0.659245
Cu15	Cu	-1.086285	-0.202323	0.188251
Cu16	Cu	-0.586285	0.297677	0.688251
Cu17	Cu	-1.061160	-0.241111	-0.187797
Cu18	Cu	-0.561160	0.258889	0.312203
O19	O	-1.060535	-0.437852	0.159210
O20	O	-0.560535	0.062148	0.659210
C21	C	-1.101140	0.070337	0.000231
C22	C	-0.601140	0.570337	0.500231
C23	C	-1.111881	0.247686	0.000223
C24	C	-0.611881	0.747686	0.500223
C25	C	-0.904319	-0.232902	0.000190
C26	C	-0.404319	0.267098	0.500190
C27	C	-0.802183	-0.229460	0.000168
C28	C	-0.302183	0.270540	0.500168
C29	C	-1.243125	-0.210532	0.000259
C30	C	-0.743125	0.289468	0.500259
C31	C	-1.345260	-0.213975	0.000268
C32	C	-0.845260	0.286025	0.500268
C33	C	-0.428203	-0.216772	0.000256
C34	C	0.071797	0.283228	0.500256
C35	C	-0.532257	-0.220295	0.000231
C36	C	-0.032257	0.279705	0.500231
C37	C	-0.615190	-0.223116	0.000210
C38	C	-0.115190	0.276884	0.500210
C39	C	-0.719250	-0.226640	0.000189
C40	C	-0.219250	0.273360	0.500189
C41	C	-1.046304	-0.513771	0.000218
C42	C	-0.546304	-0.013771	0.500218
C43	C	-1.035562	-0.691121	0.000214
C44	C	-0.535562	-0.191121	0.500214
N45	N	-1.103963	-0.175040	0.452743
N46	N	-0.603963	0.324960	0.952743
N47	N	-1.043489	-0.268380	-0.452289
N48	N	-0.543489	0.231620	0.047711
H49	H	-1.185445	0.330985	0.000254
H50	H	-0.685445	0.830985	0.500254
N51	N	-0.943277	0.204398	0.000141
N52	N	-0.443277	0.704398	0.500141
N53	N	-0.878287	0.196473	-0.133917
N54	N	-0.378287	0.696473	0.366083
H55	H	-0.813109	0.122673	-0.133974
H56	H	-0.313109	0.622673	0.366026
H57	H	-0.980816	-0.365107	0.466050
H58	H	-0.480816	0.134893	0.966050
H59	H	-1.166646	-0.078319	0.534413
H60	H	-0.666646	0.421681	1.034413
