data_functionalizedCrystal
_audit_creation_method	'MofGen! by Chris Wilmer'
_symmetry_space_group_name_H-M	'P1'
_symmetry_Int_Tables_number	1
_symmetry_cell_setting	triclinic
loop_
_symmetry_equiv_pos_as_xyz
  x,y,z
_cell_length_a	6.817900
_cell_length_b	10.943632
_cell_length_c	16.255661
_cell_angle_alpha	93.782539
_cell_angle_beta	103.488922
_cell_angle_gamma	108.838880
loop_
_atom_site_label
_atom_site_type_symbol
_atom_site_fract_x
_atom_site_fract_y
_atom_site_fract_z
V1	V	-4.054164	-0.179673	-0.263851
O2	O	-4.013035	0.007561	-0.258849
O3	O	-4.032538	-0.355229	-0.262026
O4	O	-4.005375	-0.177380	-0.378934
O5	O	-4.040386	-0.171519	-0.141131
V6	V	-4.534372	-0.157222	-0.249175
O7	O	-4.322692	-0.228921	-0.296043
O8	O	-4.716042	-0.107974	-0.216982
O9	O	-4.332791	0.018334	-0.251000
O10	O	-4.692898	-0.344455	-0.254177
O11	O	-4.665547	-0.165375	-0.371894
O12	O	-4.359954	-0.159515	-0.134091
C13	C	-3.884065	-0.398011	-0.257858
C14	C	-3.947667	-0.541533	-0.257134
C15	C	-3.793634	-0.618667	-0.252314
C16	C	-3.888351	-0.691043	-0.183995
C17	C	-3.966305	-0.724890	-0.324171
C18	C	-4.041514	-0.612005	-0.188766
C19	C	-4.119473	-0.645859	-0.329004
C20	C	-4.214302	-0.718197	-0.260671
C21	C	-3.849415	-0.171145	-0.406985
C22	C	-3.890986	-0.170432	-0.501067
C23	C	-3.800241	-0.161915	-0.723886
C24	C	-3.973452	-0.271842	-0.793350
C25	C	-3.967166	-0.169095	-0.673315
C26	C	-3.868053	-0.057910	-0.771489
C27	C	-4.040736	-0.167798	-0.839699
C28	C	-4.139874	-0.279121	-0.741549
C29	C	-4.034398	-0.065091	-0.719673
C30	C	-4.207750	-0.175050	-0.789117
C31	C	-3.924779	-0.169844	-0.577466
C32	C	-4.083141	-0.167060	-0.935548
C33	C	-4.144608	0.061109	-0.255165
C34	C	-4.060243	0.204630	-0.255895
C35	C	-4.179257	-0.165753	-0.106036
C36	C	-4.116924	-0.166460	-0.011954
H37	H	-4.392743	-0.761436	-0.264181
H38	H	-4.254390	-0.372710	-0.728072
H39	H	-3.791297	-0.711559	-0.122677
O40	O	-4.247912	-0.618615	-0.410221
H41	H	-4.215702	-0.664116	-0.466321
H42	H	-4.380476	-0.180632	-0.817463
O43	O	-4.067830	0.050691	-0.677141
H44	H	-3.954346	0.142362	-0.688713
O45	O	-3.924993	-0.789965	-0.399964
H46	H	-3.750926	-0.749845	-0.396320
H47	H	-3.753538	0.035554	-0.785110
H48	H	-4.072664	-0.563011	-0.131484
O49	O	-3.571641	-0.154739	-0.686147
H50	H	-3.546524	-0.240728	-0.715935
O51	O	-3.939911	-0.387612	-0.835855
H52	H	-3.890561	-0.445311	-0.786570
O53	O	-3.557237	-0.561065	-0.247547
H54	H	-3.461165	-0.578574	-0.187280
