data_functionalizedCrystal
_audit_creation_method	'MofGen! by Chris Wilmer'
_symmetry_space_group_name_H-M	'P1'
_symmetry_Int_Tables_number	1
_symmetry_cell_setting	triclinic
loop_
_symmetry_equiv_pos_as_xyz
  x,y,z
_cell_length_a	16.992694
_cell_length_b	19.188930
_cell_length_c	18.266242
_cell_angle_alpha	90.011475
_cell_angle_beta	90.003271
_cell_angle_gamma	86.906503
loop_
_atom_site_label
_atom_site_type_symbol
_atom_site_fract_x
_atom_site_fract_y
_atom_site_fract_z
O1	O	1.039889	0.148019	0.060803
O2	O	0.811609	0.146396	0.060825
O3	O	0.932336	0.045937	0.060799
O4	O	0.919161	0.248478	0.060829
O5	O	0.932316	0.045931	-0.060963
O6	O	0.811589	0.146389	-0.060937
O7	O	1.039868	0.148013	-0.060959
Zn8	Zn	0.925725	0.147200	-0.080280
Zn9	Zn	0.925752	0.147209	0.080146
O10	O	0.919141	0.248471	-0.060933
C11	C	0.782393	0.144303	-0.000054
C12	C	0.695371	0.138070	-0.000046
C13	C	0.931900	0.019898	-0.000084
C14	C	0.930619	-0.057681	-0.000090
C15	C	0.644924	0.198210	-0.000038
C16	C	0.563157	0.192349	-0.000049
C17	C	0.531839	0.126348	-0.000063
C18	C	0.582292	0.066204	-0.000073
C19	C	0.664057	0.072066	-0.000068
C20	C	0.288325	0.102055	-0.000086
C21	C	0.206553	0.096199	-0.000090
C22	C	0.187424	0.222344	-0.000066
C23	C	0.269191	0.228200	-0.000056
C24	C	0.319637	0.168056	-0.000071
N25	N	0.448261	0.120356	-0.000072
N26	N	0.403214	0.174048	-0.000067
C27	C	1.001458	-0.098460	-0.000100
C28	C	1.000255	-0.171354	-0.000088
C29	C	0.928208	-0.203467	-0.000081
C30	C	0.857360	-0.162679	-0.000067
C31	C	0.858565	-0.089786	-0.000071
N32	N	0.873131	-0.314697	-0.041514
N33	N	0.871990	-0.383942	-0.041511
C34	C	0.924572	-0.423088	-0.000066
N35	N	0.978350	-0.390374	0.041367
N36	N	0.979492	-0.321122	0.041361
C37	C	0.926893	-0.282506	-0.000076
C38	C	0.994112	-0.542907	-0.000062
C39	C	0.992905	-0.615803	-0.000046
C40	C	0.850009	-0.607126	-0.000032
C41	C	0.851217	-0.534232	-0.000041
C42	C	0.923271	-0.502127	-0.000059
C43	C	1.069084	0.150105	-0.000079
C44	C	1.156107	0.156338	-0.000081
C45	C	0.919578	0.274510	-0.000048
C46	C	0.920858	0.352090	-0.000037
N47	N	0.925713	0.147194	-0.189767
C48	C	0.979188	0.102735	-0.228087
C49	C	0.979193	0.102732	-0.304732
C50	C	0.925730	0.147200	-0.343054
C51	C	0.872244	0.191662	-0.304725
C52	C	0.872236	0.191659	-0.228081
N53	N	0.915540	0.208411	-0.463377
N54	N	0.915553	0.208413	-0.536185
C55	C	0.925752	0.147212	-0.573977
N56	N	0.935953	0.086008	-0.536210
N57	N	0.935944	0.086008	-0.463395
C58	C	0.925733	0.147208	-0.426161
C59	C	0.979236	0.102746	-0.695404
C60	C	0.979235	0.102742	-0.772050
C61	C	0.872290	0.191678	-0.772041
C62	C	0.872287	0.191676	-0.695396
C63	C	0.925764	0.147211	-0.657082
N64	N	0.925771	0.147210	0.189633
H65	H	0.670416	0.251955	-0.000026
H66	H	0.329389	0.053082	-0.000098
O67	O	1.031204	0.059484	-0.658294
C68	C	1.137306	-0.028700	-0.666390
C69	C	1.078484	0.020248	-0.708505
H70	H	1.175558	-0.060424	-0.706968
H71	H	1.103620	-0.065524	-0.630540
H72	H	1.176325	0.003655	-0.630476
H73	H	1.039450	-0.012051	-0.744459
H74	H	1.112219	0.057074	-0.744309
O75	O	0.820247	0.234800	-0.809224
C76	C	0.683800	0.268056	-0.832648
C77	C	0.742657	0.219167	-0.790502
H78	H	0.621056	0.255445	-0.817515
H79	H	0.692920	0.260419	-0.894019
H80	H	0.693859	0.324539	-0.817571
H81	H	0.732633	0.162666	-0.805518
H82	H	0.733523	0.226865	-0.729141
O83	O	0.551742	0.002144	-0.000056
C84	C	0.434260	-0.062793	-0.000116
C85	C	0.468750	0.009799	-0.000121
H86	H	0.367157	-0.056628	-0.000184
H87	H	0.454998	-0.092755	0.050849
H88	H	0.455100	-0.092740	-0.051066
H89	H	0.447925	0.039805	0.050795
H90	H	0.448015	0.039709	-0.051119
O91	O	0.514077	0.250720	0.000064
C92	C	0.410698	0.317335	0.063184
C93	C	0.466222	0.251190	0.063137
H94	H	0.372005	0.317744	0.114181
H95	H	0.371885	0.317760	0.012260
H96	H	0.447148	0.365501	0.063166
H97	H	0.429834	0.202989	0.063181
H98	H	0.505038	0.250827	0.114057
H99	H	0.146343	0.271310	-0.000056
H100	H	0.798699	-0.188829	-0.000059
H101	H	0.800878	-0.056584	-0.000063
H102	H	0.294684	0.281944	-0.000036
O103	O	0.782455	-0.494541	-0.000136
C104	C	0.700857	-0.407252	-0.063235
C105	C	0.778769	-0.452149	-0.063214
H106	H	0.697844	-0.372977	-0.114236
H107	H	0.697848	-0.372849	-0.012314
H108	H	0.649167	-0.442735	-0.063192
H109	H	0.830503	-0.416719	-0.063283
H110	H	0.781709	-0.486558	-0.114130
H111	H	0.791347	-0.633271	-0.000022
O112	O	0.712952	0.013575	-0.000039
C113	C	0.723302	-0.112162	-0.000103
C114	C	0.667840	-0.045977	-0.000115
H115	H	0.686851	-0.160326	-0.000180
H116	H	0.762046	-0.112618	0.050868
H117	H	0.762076	-0.112533	-0.051046
H118	H	0.629016	-0.045562	0.050794
H119	H	0.629150	-0.045546	-0.051120
H120	H	1.052782	-0.516766	-0.000074
H121	H	1.050593	-0.649004	-0.000050
H122	H	1.022730	0.066527	-0.196894
O123	O	1.031214	0.059518	-0.341854
C124	C	1.137252	-0.028726	-0.333780
C125	C	1.078398	0.020193	-0.291652
H126	H	1.175405	-0.060543	-0.293211
H127	H	1.176365	0.003586	-0.369631
H128	H	1.103514	-0.065471	-0.369695
H129	H	1.112072	0.056948	-0.255698
H130	H	1.039287	-0.012163	-0.255848
H131	H	0.828688	0.227863	-0.196880
H132	H	1.022779	0.066534	-0.803251
H133	H	0.828713	0.227867	-0.335930
H134	H	0.181058	0.042450	-0.000100
O135	O	0.820424	0.234972	-0.658202
C136	C	0.774035	0.353765	-0.634767
C137	C	0.832831	0.304812	-0.676920
H138	H	0.784035	0.410240	-0.649896
H139	H	0.783209	0.346188	-0.573397
H140	H	0.711289	0.341098	-0.649841
H141	H	0.895600	0.317448	-0.661907
H142	H	0.823588	0.312398	-0.738280
H143	H	1.060129	-0.072325	-0.000113
H144	H	1.057942	-0.204563	-0.000094
