data_functionalizedCrystal
_audit_creation_method	'MofGen! by Chris Wilmer'
_symmetry_space_group_name_H-M	'P1'
_symmetry_Int_Tables_number	1
_symmetry_cell_setting	triclinic
loop_
_symmetry_equiv_pos_as_xyz
  x,y,z
_cell_length_a	19.077399
_cell_length_b	12.594516
_cell_length_c	19.076919
_cell_angle_alpha	92.272705
_cell_angle_beta	94.479523
_cell_angle_gamma	92.312995
loop_
_atom_site_label
_atom_site_type_symbol
_atom_site_fract_x
_atom_site_fract_y
_atom_site_fract_z
Zn1	Zn	1.061724	-0.380860	-0.355396
Zn2	Zn	1.066401	-0.551408	-0.237516
Zn3	Zn	0.948579	-0.380889	-0.242250
Zn4	Zn	0.943831	-0.566243	-0.360085
O5	O	1.005134	-0.469850	-0.298812
O6	O	1.160992	-0.397262	-0.335815
O7	O	1.054716	-0.522591	-0.139497
O8	O	0.963618	-0.231938	-0.257278
O9	O	1.164428	-0.522563	-0.249209
O10	O	1.046745	-0.231917	-0.340405
O11	O	0.968153	-0.397312	-0.142975
O12	O	0.849302	-0.411697	-0.261824
O13	O	0.955526	-0.547848	-0.458110
O14	O	0.845813	-0.547876	-0.348397
O15	O	1.042141	-0.411648	-0.454665
O16	O	1.050112	-0.702322	-0.253756
O17	O	0.960060	-0.713222	-0.343807
C18	C	0.821979	-0.481401	-0.306134
C19	C	0.743625	-0.486369	-0.309283
C20	C	0.708606	-0.417704	-0.265763
C21	C	0.634983	-0.422381	-0.268722
C22	C	0.596380	-0.495719	-0.315205
C23	C	0.631404	-0.564392	-0.358727
C24	C	0.705026	-0.559719	-0.355764
C25	C	0.376003	-0.517313	-0.328888
C26	C	0.302376	-0.521979	-0.331849
C27	C	0.305960	-0.379969	-0.241843
C28	C	0.379583	-0.375298	-0.238887
C29	C	0.414601	-0.443974	-0.282406
N30	N	0.521126	-0.500500	-0.318232
N31	N	0.489854	-0.439198	-0.279375
C32	C	1.005097	-0.746392	-0.298791
C33	C	1.005144	-0.864695	-0.298804
C34	C	1.054206	-0.998744	-0.249904
C35	C	0.990573	-0.931027	-0.235158
C36	C	1.068770	-0.930839	-0.313518
C37	C	0.941549	-1.007763	-0.284084
C38	C	1.019788	-1.007580	-0.362473
C39	C	0.956110	-0.939899	-0.347753
C40	C	1.189003	-0.458255	-0.291461
C41	C	1.267358	-0.453313	-0.288329
C42	C	0.997782	-0.481400	-0.482681
C43	C	0.994649	-0.486322	-0.561035
C44	C	1.005190	-0.192228	-0.298846
C45	C	1.005214	-0.073922	-0.298861
C46	C	1.038271	-0.417725	-0.596053
C47	C	1.035319	-0.422346	-0.669675
C48	C	0.988748	-0.495570	-0.708278
C49	C	0.945121	-0.564170	-0.673254
C50	C	0.948070	-0.559543	-0.599633
C51	C	0.975089	-0.517008	-0.928653
C52	C	0.972145	-0.521632	-1.002279
C53	C	1.062342	-0.379806	-0.998695
C54	C	1.065290	-0.375190	-0.925072
C55	C	1.021661	-0.443786	-0.890056
N56	N	0.985731	-0.500298	-0.783531
N57	N	1.024675	-0.439052	-0.814803
C58	C	1.012497	-0.458265	-0.115656
C59	C	1.015767	-0.453035	-0.037297
H60	H	0.606474	-0.366472	-0.233279
H61	H	1.070843	-0.366490	-0.698184
C62	C	1.141416	-0.885328	-0.330305
H63	H	1.136515	-0.846603	-0.372015
H64	H	1.171965	-0.941967	-0.336923
H65	H	1.160579	-0.839317	-0.292331
C66	C	0.751066	-0.337031	-0.214633
H67	H	0.799928	-0.344073	-0.219105
H68	H	0.740882	-0.350285	-0.167737
H69	H	0.738588	-0.266957	-0.225524
C70	C	0.973874	-0.885720	-0.162457
H71	H	1.008751	-0.905710	-0.127743
H72	H	0.929037	-0.913137	-0.151686
H73	H	0.973549	-0.810355	-0.163088
C74	C	0.259911	-0.602555	-0.383051
H75	H	0.291310	-0.642762	-0.408563
H76	H	0.230011	-0.565560	-0.414944
H77	H	0.232222	-0.649034	-0.357249
C78	C	0.743546	-0.635247	-0.403638
H79	H	0.710012	-0.679587	-0.431751
H80	H	0.773338	-0.678039	-0.375463
H81	H	0.771045	-0.594706	-0.433247
C82	C	0.868882	-1.053085	-0.267217
H83	H	0.869358	-1.128491	-0.267317
H84	H	0.834040	-1.032510	-0.301766
H85	H	0.858426	-1.026227	-0.222151
H86	H	0.907199	-0.623786	-0.704690
C87	C	0.900104	-0.635024	-0.561112
H88	H	0.871954	-0.679310	-0.594645
H89	H	0.870543	-0.594462	-0.533616
H90	H	0.928229	-0.677891	-0.531319
H91	H	0.934219	-0.581262	-1.033707
C92	C	0.900042	-0.904988	-0.403649
H93	H	0.854914	-0.931528	-0.393100
H94	H	0.910035	-0.932360	-0.448735
H95	H	0.900577	-0.829526	-0.403584
H96	H	1.095619	-1.024777	-0.208498
H97	H	0.939573	-0.572878	-0.900151
C98	C	1.036515	-1.052919	-0.435151
H99	H	1.081740	-1.026539	-0.445516
H100	H	1.002151	-1.031848	-0.470010
H101	H	1.035993	-1.128350	-0.434759
H102	H	1.076197	-0.358101	-0.564628
H103	H	0.277441	-0.324058	-0.206411
C104	C	0.422045	-0.294628	-0.187757
H105	H	0.470906	-0.301672	-0.192231
H106	H	0.411863	-0.307877	-0.140859
H107	H	0.409567	-0.224554	-0.198650
C108	C	0.414517	-0.592881	-0.376736
H109	H	0.463893	-0.579618	-0.368304
H110	H	0.400583	-0.581191	-0.424611
H111	H	0.402847	-0.664473	-0.366794
C112	C	0.588943	-0.645060	-0.409858
H113	H	0.540080	-0.638002	-0.405396
H114	H	0.601417	-0.715133	-0.398975
H115	H	0.599129	-0.631795	-0.456756
H116	H	1.103215	-0.315566	-0.893647
H117	H	1.097862	-0.323958	-1.027213
