data_functionalizedCrystal
_audit_creation_method	'MofGen! by Chris Wilmer'
_symmetry_space_group_name_H-M	'P1'
_symmetry_Int_Tables_number	1
_symmetry_cell_setting	triclinic
loop_
_symmetry_equiv_pos_as_xyz
  x,y,z
_cell_length_a	13.033409
_cell_length_b	12.645330
_cell_length_c	13.032268
_cell_angle_alpha	82.850170
_cell_angle_beta	74.837427
_cell_angle_gamma	82.843316
loop_
_atom_site_label
_atom_site_type_symbol
_atom_site_fract_x
_atom_site_fract_y
_atom_site_fract_z
Zn1	Zn	1.547502	-0.671910	0.393924
Zn2	Zn	1.569969	-0.829219	0.216328
Zn3	Zn	1.392451	-0.632036	0.238931
Zn4	Zn	1.369886	-0.829179	0.416479
O5	O	1.469952	-0.740586	0.316415
O6	O	1.699107	-0.709482	0.351466
O7	O	1.565266	-0.786391	0.070697
O8	O	1.413060	-0.488986	0.259512
O9	O	1.715613	-0.825056	0.220987
O10	O	1.526975	-0.518282	0.373384
O11	O	1.434845	-0.641521	0.087304
O12	O	1.240833	-0.641483	0.281382
O13	O	1.374601	-0.824988	0.562116
O14	O	1.224255	-0.786323	0.411826
O15	O	1.505095	-0.709443	0.545545
O16	O	1.543386	-0.977553	0.242858
O17	O	1.396387	-0.977524	0.389908
C18	C	1.194007	-0.709573	0.351505
C19	C	1.075953	-0.696334	0.366542
C20	C	0.909483	-0.733822	0.324129
C21	C	1.031498	-0.747508	0.308583
C22	C	1.469902	-1.016007	0.316397
C23	C	1.469973	-1.133848	0.316412
C24	C	1.562340	-1.301353	0.223753
C25	C	1.562581	-1.178845	0.223921
C26	C	1.486103	-1.194227	0.424510
C27	C	1.486808	-1.316849	0.423991
C28	C	1.361304	-1.285345	0.302082
C29	C	1.362161	-1.162519	0.299502
C30	C	1.746974	-0.771721	0.281189
C31	C	1.865024	-0.784989	0.266178
C32	C	1.434825	-0.771659	0.593445
C33	C	1.419856	-0.784901	0.711499
C34	C	1.470028	-0.464095	0.316453
C35	C	1.470061	-0.346272	0.316470
C36	C	1.505003	-0.709564	0.040455
C37	C	1.520178	-0.696047	-0.077624
C38	C	1.477748	-0.733635	0.755932
C39	C	1.462278	-0.747320	0.877947
H40	H	0.917292	-0.838934	0.205061
H41	H	1.538760	-0.679610	0.703643
Cl42	Cl	1.368060	-0.830725	0.958667
Cl43	Cl	1.614405	-0.612651	0.841657
H44	H	1.358833	-0.838915	0.763790
H45	H	1.083763	-0.801457	0.247461
Cl46	Cl	0.995269	-0.613052	0.460923
Cl47	Cl	1.549474	-1.114809	0.099505
Cl48	Cl	0.828792	-0.650551	0.418511
Cl49	Cl	1.334421	-1.314509	0.183653
Cl50	Cl	1.549728	-1.329282	0.098886
H51	H	1.349742	-1.121689	0.220021
H52	H	1.642761	-1.343492	0.231981
H53	H	1.643422	-1.160920	0.232304
H54	H	1.421763	-1.347248	0.494678
Cl55	Cl	1.608890	-1.379339	0.445368
H56	H	1.420321	-1.165671	0.494828
Cl57	Cl	1.606673	-1.165072	0.446702
H58	H	1.290851	-1.130934	0.363229
H59	H	1.292723	-1.314246	0.369785
