data_functionalizedCrystal
_audit_creation_method	'MofGen! by Chris Wilmer'
_symmetry_space_group_name_H-M	'P1'
_symmetry_Int_Tables_number	1
_symmetry_cell_setting	triclinic
loop_
_symmetry_equiv_pos_as_xyz
  x,y,z
_cell_length_a	19.188905
_cell_length_b	23.532407
_cell_length_c	18.266242
_cell_angle_alpha	89.988983
_cell_angle_beta	89.983837
_cell_angle_gamma	82.991616
loop_
_atom_site_label
_atom_site_type_symbol
_atom_site_fract_x
_atom_site_fract_y
_atom_site_fract_z
O1	O	0.925934	0.071034	-0.061009
O2	O	0.722589	0.080620	-0.060985
O3	O	0.830393	-0.007092	-0.060984
O4	O	0.818130	0.158746	-0.061010
O5	O	0.830375	-0.007096	0.060778
O6	O	0.722571	0.080616	0.060777
O7	O	0.925916	0.071030	0.060753
Zn8	Zn	0.824240	0.075822	0.080097
Zn9	Zn	0.824264	0.075828	-0.080329
O10	O	0.818112	0.158742	0.060752
C11	C	0.696570	0.080310	-0.000101
C12	C	0.619067	0.079385	-0.000091
C13	C	0.830072	-0.028311	-0.000101
C14	C	0.829133	-0.091530	-0.000096
C15	C	0.582687	0.078944	-0.066465
C16	C	0.509866	0.078068	-0.066474
C17	C	0.473430	0.077623	-0.000105
C18	C	0.509819	0.078068	0.066278
C19	C	0.582638	0.078949	0.066285
N20	N	0.364511	0.043829	0.049292
N21	N	0.295336	0.042991	0.049281
C22	C	0.254032	0.074970	-0.000122
N23	N	0.284517	0.107812	-0.049525
N24	N	0.353698	0.108648	-0.049516
C25	C	0.394471	0.076668	-0.000105
C26	C	0.138691	0.073580	-0.066511
C27	C	0.065868	0.072709	-0.066517
C28	C	0.065824	0.072703	0.066237
C29	C	0.138644	0.073580	0.066241
C30	C	0.175074	0.074016	-0.000135
C31	C	0.887040	-0.490514	-0.000143
C32	C	0.886168	-0.549916	-0.000148
O33	O	0.939848	-0.586551	-0.000181
N34	N	0.822078	-0.572674	-0.000140
C35	C	0.758857	-0.536026	-0.000134
O36	O	0.704264	-0.560837	-0.000128
C37	C	0.759730	-0.476625	-0.000134
C38	C	0.823824	-0.453871	-0.000134
C39	C	0.951129	-0.467759	-0.000144
C40	C	0.952000	-0.408362	-0.000137
C41	C	0.888784	-0.371718	-0.000129
C42	C	0.824696	-0.394473	-0.000127
C43	C	0.696509	-0.439978	-0.000133
C44	C	0.697388	-0.380574	-0.000133
C45	C	0.761482	-0.357820	-0.000134
C46	C	0.762351	-0.298432	-0.000112
N47	N	0.826440	-0.275674	-0.000120
C48	C	0.889657	-0.312317	-0.000129
C49	C	0.757029	-0.660772	-0.000136
C50	C	0.756155	-0.720172	-0.000131
C51	C	0.883466	-0.734058	-0.000146
C52	C	0.884339	-0.674657	-0.000146
C53	C	0.821118	-0.638014	-0.000144
C54	C	0.891483	-0.187577	-0.000114
C55	C	0.892350	-0.128173	-0.000104
C56	C	0.765039	-0.114292	-0.000092
C57	C	0.764172	-0.173691	-0.000098
C58	C	0.827400	-0.210332	-0.000111
O59	O	0.708699	-0.261762	-0.000082
O60	O	0.944241	-0.287498	-0.000144
C61	C	0.951935	0.071340	-0.000133
C62	C	1.029437	0.072265	-0.000147
C63	C	0.818433	0.179961	-0.000132
C64	C	0.819372	0.243180	-0.000143
N65	N	0.824229	0.075818	0.189584
N66	N	0.824281	0.075828	-0.189816
C67	C	0.871980	0.036998	0.227893
C68	C	0.871985	0.036995	0.304538
C69	C	0.824245	0.075822	0.342871
C70	C	0.776485	0.114645	0.304553
C71	C	0.776477	0.114643	0.227909
N72	N	0.815008	0.126238	0.463197
N73	N	0.815020	0.126238	0.536005
C74	C	0.824264	0.075830	0.573794
N75	N	0.833511	0.025420	0.536024
N76	N	0.833503	0.025421	0.463209
C77	C	0.824248	0.075829	0.425978
C78	C	0.872023	0.037004	0.695210
C79	C	0.872022	0.037001	0.771856
C80	C	0.776526	0.114656	0.771869
C81	C	0.776523	0.114654	0.695224
C82	C	0.824275	0.075829	0.656899
H83	H	0.612344	0.079299	-0.120514
C84	C	0.964392	-0.262413	-0.062722
C85	C	0.960984	-0.227847	-0.000125
H86	H	1.007301	-0.287271	-0.062726
H87	H	0.926109	-0.284472	-0.062717
H88	H	0.962090	-0.238938	-0.105176
H89	H	0.963281	-0.251323	0.042329
H90	H	0.999278	-0.205787	-0.000124
H91	H	1.004192	-0.389841	-0.000141
C92	C	0.966877	0.024199	0.141382
C93	C	0.924238	-0.005776	0.185635
H94	H	0.999073	-0.002237	0.115257
H95	H	0.938424	0.047409	0.107703
H96	H	0.992059	0.047747	0.171177
H97	H	0.899052	-0.029321	0.155839
H98	H	0.952695	-0.028997	0.219318
C99	C	0.228801	0.025625	-0.143521
C100	C	0.178736	0.074067	-0.139471
H101	H	0.253517	0.025926	-0.188566
H102	H	0.260892	0.026013	-0.103995
H103	H	0.205945	-0.007917	-0.140759
H104	H	0.201593	0.107610	-0.142227
H105	H	0.146640	0.073684	-0.179007
C106	C	0.689347	-0.232425	-0.062690
C107	C	0.693723	-0.198709	-0.000091
H108	H	0.645856	-0.247870	-0.062686
H109	H	0.692336	-0.209528	-0.105138
H110	H	0.726876	-0.262748	-0.062691
H111	H	0.656197	-0.168384	-0.000092
H112	H	0.690727	-0.221607	0.042368
H113	H	0.737591	0.146255	0.196717
H114	H	0.737642	0.146268	0.664031
H115	H	0.480239	0.077709	-0.120526
H116	H	0.910904	0.005389	0.664004
H117	H	0.737652	0.146268	0.803079
C118	C	1.006342	-0.564981	-0.000155
C119	C	1.020624	-0.508033	-0.000154
H120	H	1.049249	-0.589840	-0.000162
H121	H	0.980044	-0.571869	0.042306
H122	H	0.980054	-0.571856	-0.042617
H123	H	1.046907	-0.501156	0.042311
H124	H	1.046933	-0.501141	-0.042619
H125	H	0.936530	-0.656135	-0.000147
C126	C	0.938648	-0.831286	-0.000176
C127	C	0.952957	-0.774345	-0.000168
H128	H	0.981547	-0.856157	-0.000195
H129	H	0.912354	-0.838172	0.042288
H130	H	0.912349	-0.838148	-0.042635
H131	H	0.979252	-0.767482	0.042294
H132	H	0.979262	-0.767456	-0.042636
C133	C	0.630404	-0.700464	-0.000117
C134	C	0.685701	-0.745179	-0.000124
H135	H	0.586908	-0.715902	-0.000120
H136	H	0.633388	-0.677596	0.042345
H137	H	0.633408	-0.677576	-0.042578
H138	H	0.682700	-0.768065	0.042340
H139	H	0.682716	-0.768057	-0.042589
H140	H	0.644318	-0.458493	-0.000137
H141	H	0.645904	-0.350741	-0.000132
H142	H	0.910905	0.005386	0.803048
C143	C	0.684142	-0.585910	-0.062716
C144	C	0.687529	-0.620497	-0.000123
H145	H	0.641233	-0.561051	-0.062710
H146	H	0.722426	-0.563852	-0.062715
H147	H	0.686457	-0.609371	-0.105173
H148	H	0.685218	-0.597036	0.042334
H149	H	0.649234	-0.642556	-0.000117
H150	H	0.910871	0.005382	0.335735
C151	C	0.734103	0.149134	0.422049
C152	C	0.724010	0.157327	0.346685
H153	H	0.701707	0.175486	0.448057
H154	H	0.726787	0.111145	0.434622
H155	H	0.780660	0.155224	0.434578
H156	H	0.677455	0.151232	0.334155
H157	H	0.731320	0.195324	0.334107
H158	H	0.713570	-0.084446	-0.000083
H159	H	0.480148	0.077708	0.120316
H160	H	0.612258	0.079310	0.120337
H161	H	0.036158	0.072344	0.120276
C162	C	0.073234	0.072786	-0.197736
C163	C	0.025876	0.072221	-0.139482
H164	H	0.048543	0.072480	-0.242781
H165	H	0.096072	0.106330	-0.194984
H166	H	0.107198	0.039923	-0.194956
H167	H	-0.008085	0.105086	-0.142259
H168	H	0.003026	0.038673	-0.142236
H169	H	0.168266	0.073936	0.120291
C170	C	1.018107	-0.147875	-0.000126
C171	C	0.962806	-0.103163	-0.000111
H172	H	1.061601	-0.132435	-0.000136
H173	H	1.015112	-0.170761	0.042331
H174	H	1.015115	-0.170747	-0.042591
H175	H	0.965794	-0.080294	0.042358
H176	H	0.965802	-0.080268	-0.042572
