data_functionalizedCrystal
_audit_creation_method	'MofGen! by Chris Wilmer'
_symmetry_space_group_name_H-M	'P1'
_symmetry_Int_Tables_number	1
_symmetry_cell_setting	triclinic
loop_
_symmetry_equiv_pos_as_xyz
  x,y,z
_cell_length_a	10.685661
_cell_length_b	12.594516
_cell_length_c	12.594510
_cell_angle_alpha	90.032254
_cell_angle_beta	85.613555
_cell_angle_gamma	94.351729
loop_
_atom_site_label
_atom_site_type_symbol
_atom_site_fract_x
_atom_site_fract_y
_atom_site_fract_z
Zn1	Zn	1.929104	0.548532	-0.726337
Zn2	Zn	1.928930	0.726549	-0.548352
Zn3	Zn	1.718078	0.534935	-0.534751
Zn4	Zn	1.718023	0.712805	-0.712675
O5	O	1.823534	0.630705	-0.630529
O6	O	2.105661	0.583589	-0.714137
O7	O	1.900910	0.701193	-0.397599
O8	O	1.746167	0.387799	-0.560190
O9	O	2.105533	0.714377	-0.583372
O10	O	1.901207	0.397789	-0.700948
O11	O	1.745999	0.560415	-0.387606
O12	O	1.541491	0.547088	-0.546943
O13	O	1.746074	0.690952	-0.863436
O14	O	1.541451	0.677767	-0.677663
O15	O	1.901154	0.570262	-0.873474
O16	O	1.900857	0.873665	-0.570125
O17	O	1.745905	0.863567	-0.690852
C18	C	1.495685	0.609461	-0.609345
C19	C	1.355430	0.600399	-0.600307
C20	C	1.823390	0.907237	-0.630507
C21	C	1.823444	1.025546	-0.630541
C22	C	1.739142	1.089344	-0.696153
C23	C	1.708379	1.158227	-0.597044
C24	C	1.854276	1.167466	-0.729669
C25	C	1.792620	1.092867	-0.531377
C26	C	1.938571	1.102103	-0.664071
C27	C	1.907851	1.170957	-0.564899
C28	C	2.152663	0.652033	-0.651796
C29	C	2.292918	0.661121	-0.660859
C30	C	1.823657	1.353092	-0.630571
C31	C	1.823568	1.234781	-0.630575
C32	C	1.823627	0.630590	-0.908156
C33	C	1.823667	0.630541	-1.026464
C34	C	1.908045	0.564879	-1.171942
C35	C	1.938832	0.663993	-1.103110
C36	C	1.792935	0.531442	-1.093727
C37	C	1.854567	0.729681	-1.168425
C38	C	1.708616	0.597062	-1.159045
C39	C	1.739360	0.696240	-1.090243
C40	C	1.823514	0.630748	-0.353986
C41	C	1.823719	0.630512	-0.235695
H42	H	1.346698	0.720035	-0.719620
H43	H	1.611077	1.183150	-0.568711
H44	H	1.979196	1.206420	-0.509359
H45	H	1.880304	1.200166	-0.813487
O46	O	1.592590	0.563076	-1.188643
C47	C	1.560509	0.458534	-1.150583
H48	H	1.649952	0.418412	-1.136504
H49	H	1.506368	0.411359	-1.211893
H50	H	1.499268	0.461295	-1.072578
O51	O	1.291081	0.530201	-0.530215
C52	C	1.160670	0.536468	-0.536491
H53	H	1.142786	0.617500	-0.570089
H54	H	1.110459	0.525973	-0.453573
H55	H	1.123313	0.471002	-0.590883
H56	H	1.667743	1.053681	-0.751544
O57	O	1.761394	1.053829	-0.431419
C58	C	1.761684	0.941905	-0.432611
H59	H	1.747580	0.911644	-0.516505
H60	H	1.682099	0.905942	-0.375165
H61	H	1.855604	0.917624	-0.407126
O62	O	1.761957	0.431535	-1.054489
C63	C	1.761210	0.433112	-0.942505
H64	H	1.823087	0.504914	-0.917000
H65	H	1.799155	0.356963	-0.913510
H66	H	1.660786	0.438733	-0.906452
O67	O	2.054682	1.072545	-0.697991
C68	C	2.135945	1.164113	-0.722694
H69	H	2.078016	1.233321	-0.740935
H70	H	2.202179	1.147764	-0.795170
H71	H	2.193351	1.185298	-0.651956
O72	O	1.993375	0.498873	-1.214501
C73	C	2.114574	0.534538	-1.186228
H74	H	2.116893	0.622979	-1.166486
H75	H	2.186586	0.521442	-1.255631
H76	H	2.138247	0.488036	-1.113706
H77	H	2.036150	0.692302	-1.078292
H78	H	1.880722	0.813502	-1.201048
H79	H	1.668026	0.751826	-1.054744
