data_functionalizedCrystal
_audit_creation_method	'MofGen! by Chris Wilmer'
_symmetry_space_group_name_H-M	'P1'
_symmetry_Int_Tables_number	1
_symmetry_cell_setting	triclinic
loop_
_symmetry_equiv_pos_as_xyz
  x,y,z
_cell_length_a	16.109301
_cell_length_b	8.559649
_cell_length_c	14.586319
_cell_angle_alpha	89.997976
_cell_angle_beta	89.999213
_cell_angle_gamma	76.620073
loop_
_atom_site_label
_atom_site_type_symbol
_atom_site_fract_x
_atom_site_fract_y
_atom_site_fract_z
O1	O	1.090046	0.205389	-0.076179
O2	O	0.846355	0.230950	-0.076193
O3	O	0.989670	-0.014444	-0.076183
O4	O	0.946731	0.450783	-0.076188
O5	O	0.989661	-0.014447	0.076297
O6	O	0.846347	0.230946	0.076288
O7	O	1.090037	0.205386	0.076302
Cu8	Cu	0.968191	0.218165	0.090218
Cu9	Cu	0.968201	0.218170	-0.090108
O10	O	0.946722	0.450779	0.076293
C11	C	0.815442	0.229912	0.000046
C12	C	0.723344	0.226808	0.000040
C13	C	0.492255	0.365202	0.000050
C14	C	0.405721	0.362273	0.000056
C15	C	0.444145	0.071122	0.000054
C16	C	0.530677	0.074053	0.000055
C17	C	0.554729	0.221098	0.000048
C18	C	0.381663	0.215238	0.000053
C19	C	0.287840	0.212061	0.000060
C20	C	0.648558	0.224275	0.000043
C21	C	0.992919	-0.073977	0.000055
C22	C	1.002605	-0.251362	0.000051
C23	C	1.120950	0.206423	0.000062
C24	C	1.213048	0.209527	0.000061
C25	C	0.943473	0.510312	0.000052
C26	C	0.933787	0.687697	0.000051
N27	N	0.968190	0.218161	0.217050
N28	N	0.968210	0.218161	-0.216940
C29	C	1.031666	0.109538	0.452060
C30	C	1.031669	0.109534	0.548041
C31	C	0.904727	0.326790	0.548043
C32	C	0.904722	0.326785	0.452063
C33	C	0.968196	0.218161	0.404074
C34	C	0.968204	0.218162	0.596035
C35	C	0.968206	0.218158	0.700102
C36	C	0.968193	0.218162	0.300001
H37	H	0.581547	-0.043302	0.000056
H38	H	0.867458	-0.228771	0.000050
H39	H	0.853033	0.415240	0.412990
O40	O	1.100115	-0.007632	0.400296
H41	H	1.144244	-0.083177	0.449793
O42	O	0.518203	0.523791	0.000061
H43	H	0.460219	0.623502	0.000075
O44	O	1.090476	-0.362000	0.000062
H45	H	1.084554	-0.488639	0.000063
O46	O	1.100138	-0.007609	0.599793
H47	H	1.097512	-0.132186	0.581369
O48	O	0.338335	0.517698	0.000055
H49	H	0.369602	0.620432	0.000044
O50	O	0.418204	-0.087473	0.000055
H51	H	0.347537	-0.065305	0.000047
O52	O	0.836276	0.443965	0.599800
H53	H	0.846947	0.425736	0.674603
