data_functionalizedCrystal
_audit_creation_method	'MofGen! by Chris Wilmer'
_symmetry_space_group_name_H-M	'P1'
_symmetry_Int_Tables_number	1
_symmetry_cell_setting	triclinic
loop_
_symmetry_equiv_pos_as_xyz
  x,y,z
_cell_length_a	16.120530
_cell_length_b	16.120484
_cell_length_c	16.120379
_cell_angle_alpha	90.213218
_cell_angle_beta	89.817857
_cell_angle_gamma	89.832673
loop_
_atom_site_label
_atom_site_type_symbol
_atom_site_fract_x
_atom_site_fract_y
_atom_site_fract_z
Zn1	Zn	1.228148	0.365922	-0.552154
Zn2	Zn	1.478148	0.615922	-0.302154
Zn3	Zn	1.728148	0.865922	-0.052154
Zn4	Zn	1.978148	1.115922	0.197846
Zn5	Zn	1.227287	0.512081	-0.420095
Zn6	Zn	1.477287	0.762081	-0.170095
Zn7	Zn	1.727287	1.012081	0.079905
Zn8	Zn	1.977287	1.262081	0.329905
Zn9	Zn	1.096051	0.366741	-0.406100
Zn10	Zn	1.346051	0.616741	-0.156100
Zn11	Zn	1.596051	0.866741	0.093900
Zn12	Zn	1.846051	1.116741	0.343900
Zn13	Zn	1.082036	0.497916	-0.551395
Zn14	Zn	1.332036	0.747916	-0.301395
Zn15	Zn	1.582036	0.997916	-0.051395
Zn16	Zn	1.832036	1.247916	0.198605
O17	O	1.158381	0.435665	-0.482436
O18	O	1.408381	0.685665	-0.232436
O19	O	1.658381	0.935665	0.017564
O20	O	1.908381	1.185665	0.267564
O21	O	1.344105	0.390896	-0.540810
O22	O	1.594105	0.640896	-0.290810
O23	O	1.844105	0.890896	-0.040810
O24	O	2.094105	1.140896	0.209190
O25	O	1.215384	0.499073	-0.302165
O26	O	1.465384	0.749073	-0.052165
O27	O	1.715384	0.999073	0.197835
O28	O	1.965384	1.249073	0.447835
O29	O	1.119799	0.250567	-0.419935
O30	O	1.369799	0.500567	-0.169935
O31	O	1.619799	0.750567	0.080065
O32	O	1.869799	1.000567	0.330065
O33	O	1.343473	0.498278	-0.443787
O34	O	1.593473	0.748278	-0.193787
O35	O	1.843473	0.998278	0.056213
O36	O	2.093473	1.248278	0.306213
O37	O	1.216850	0.249965	-0.527240
O38	O	1.466850	0.499965	-0.277240
O39	O	1.716850	0.749965	-0.027240
O40	O	1.966850	0.999965	0.222760
O41	O	1.118965	0.392292	-0.291883
O42	O	1.368965	0.642292	-0.041883
O43	O	1.618965	0.892292	0.208117
O44	O	1.868965	1.142292	0.458117
O45	O	0.978121	0.378556	-0.419199
O46	O	1.228121	0.628556	-0.169199
O47	O	1.478121	0.878556	0.080801
O48	O	1.728121	1.128556	0.330801
O49	O	1.095913	0.474135	-0.667569
O50	O	1.345913	0.724135	-0.417569
O51	O	1.595913	0.974135	-0.167569
O52	O	1.845913	1.224135	0.082431
O53	O	0.967824	0.474929	-0.525947
O54	O	1.217824	0.724929	-0.275947
O55	O	1.467824	0.974929	-0.025947
O56	O	1.717824	1.224929	0.224053
O57	O	1.203261	0.377160	-0.668127
O58	O	1.453261	0.627160	-0.418127
O59	O	1.703261	0.877160	-0.168127
O60	O	1.953261	1.127160	0.081873
O61	O	1.201794	0.626267	-0.443051
O62	O	1.451794	0.876267	-0.193051
O63	O	1.701794	1.126267	0.056949
O64	O	1.951794	1.376267	0.306949
O65	O	1.095079	0.615860	-0.539517
O66	O	1.345079	0.865860	-0.289517
O67	O	1.595079	1.115860	-0.039517
O68	O	1.845079	1.365860	0.210483
C69	C	0.942876	0.425295	-0.470972
C70	C	1.192876	0.675295	-0.220972
C71	C	1.442876	0.925295	0.029028
C72	C	1.692876	1.175295	0.279028
C73	C	0.850681	0.420878	-0.466089
C74	C	1.100681	0.670878	-0.216089
C75	C	1.350681	0.920878	0.033911
C76	C	1.600681	1.170878	0.283911
C77	C	1.146844	0.651158	-0.492740
C78	C	1.396844	0.901158	-0.242740
C79	C	1.646844	1.151158	0.007260
C80	C	1.896844	1.401158	0.257260
C81	C	1.141983	0.743349	-0.497179
C82	C	1.391983	0.993349	-0.247179
C83	C	1.641983	1.243349	0.002821
C84	C	1.891983	1.493349	0.252821
C85	C	1.148119	0.423976	-0.698786
C86	C	1.398119	0.673976	-0.448786
C87	C	1.648119	0.923976	-0.198786
C88	C	1.898119	1.173976	0.051214
C89	C	1.143747	0.418995	-0.790982
C90	C	1.393747	0.668995	-0.540982
C91	C	1.643747	0.918995	-0.290982
C92	C	1.893747	1.168995	-0.040982
C93	C	0.681878	0.412793	-0.457179
C94	C	0.931878	0.662793	-0.207179
C95	C	1.181878	0.912793	0.042821
C96	C	1.431878	1.162793	0.292821
C97	C	0.635717	0.458594	-0.507756
C98	C	0.885717	0.708594	-0.257756
C99	C	1.135717	0.958594	-0.007756
C100	C	1.385717	1.208594	0.242244
C101	C	0.541790	0.454096	-0.502799
C102	C	0.791790	0.704096	-0.252799
C103	C	1.041790	0.954096	-0.002799
C104	C	1.291790	1.204096	0.247201
C105	C	0.775815	0.417290	-0.462135
C106	C	1.025815	0.667290	-0.212135
C107	C	1.275815	0.917290	0.037865
C108	C	1.525815	1.167290	0.287865
C109	C	1.374726	0.446076	-0.493945
C110	C	1.624726	0.696076	-0.243945
C111	C	1.874726	0.946076	0.006055
C112	C	2.124726	1.196076	0.256055
C113	C	1.466920	0.450512	-0.498849
C114	C	1.716920	0.700512	-0.248849
C115	C	1.966920	0.950512	0.001151
C116	C	2.216920	1.200512	0.251151
C117	C	1.169984	0.219330	-0.472111
C118	C	1.419984	0.469330	-0.222111
C119	C	1.669984	0.719330	0.027889
C120	C	1.919984	0.969330	0.277889
C121	C	1.174929	0.127141	-0.467711
C122	C	1.424929	0.377141	-0.217711
C123	C	1.674929	0.627141	0.032289
C124	C	1.924929	0.877141	0.282289
C125	C	1.133112	0.912144	-0.505303
C126	C	1.383112	1.162144	-0.255303
C127	C	1.633112	1.412144	-0.005303
C128	C	1.883112	1.662144	0.244697
C129	C	1.183797	0.958352	-0.459591
C130	C	1.433797	1.208352	-0.209591
C131	C	1.683797	1.458352	0.040409
C132	C	1.933797	1.708352	0.290409
C133	C	1.178861	1.052275	-0.464110
C134	C	1.428861	1.302275	-0.214110
C135	C	1.678861	1.552275	0.035890
C136	C	1.928861	1.802275	0.285890
C137	C	1.138047	0.818212	-0.500784
C138	C	1.388047	1.068212	-0.250784
C139	C	1.638047	1.318212	-0.000784
C140	C	1.888047	1.568212	0.249216
C141	C	1.168653	0.447251	-0.266927
C142	C	1.418653	0.697251	-0.016927
C143	C	1.668653	0.947251	0.233073
C144	C	1.918653	1.197251	0.483073
C145	C	1.173198	0.452006	-0.174729
C146	C	1.423198	0.702006	0.075271
C147	C	1.673198	0.952006	0.325271
C148	C	1.923198	1.202006	0.575271
C149	C	1.181510	0.460689	-0.005923
C150	C	1.431510	0.710689	0.244077
C151	C	1.681510	0.960689	0.494077
C152	C	1.931510	1.210689	0.744077
C153	C	1.135438	0.410315	0.040217
C154	C	1.385438	0.660315	0.290217
C155	C	1.635438	0.910315	0.540217
C156	C	1.885438	1.160315	0.790217
C157	C	1.140062	0.415146	0.134147
C158	C	1.390062	0.665146	0.384147
C159	C	1.640062	0.915146	0.634147
C160	C	1.890062	1.165146	0.884147
C161	C	1.176886	0.455859	-0.099861
C162	C	1.426886	0.705859	0.150139
C163	C	1.676886	0.955859	0.400139
C164	C	1.926886	1.205859	0.650139
H165	H	0.666739	0.501183	-0.554780
H166	H	0.916739	0.751183	-0.304780
H167	H	1.166739	1.001183	-0.054780
H168	H	1.416739	1.251183	0.195220
H169	H	1.230895	0.927373	-0.417060
H170	H	1.480895	1.177373	-0.167060
H171	H	1.730895	1.427373	0.082940
H172	H	1.980895	1.677373	0.332940
F173	F	0.641334	0.357129	-0.395719
F174	F	0.891334	0.607129	-0.145719
F175	F	1.141334	0.857129	0.104281
F176	F	1.391334	1.107129	0.354281
F177	F	1.071553	0.952632	-0.560888
F178	F	1.321553	1.202632	-0.310888
F179	F	1.571553	1.452632	-0.060888
F180	F	1.821553	1.702632	0.189112
F181	F	1.237601	0.521797	0.034648
F182	F	1.487601	0.771797	0.284648
F183	F	1.737601	1.021797	0.534648
F184	F	1.987601	1.271797	0.784648
F185	F	1.079342	0.349203	-0.000354
F186	F	1.329342	0.599203	0.249646
F187	F	1.579342	0.849203	0.499646
F188	F	1.829342	1.099203	0.749646
