data_functionalizedCrystal
_audit_creation_method	'MofGen! by Chris Wilmer'
_symmetry_space_group_name_H-M	'P1'
_symmetry_Int_Tables_number	1
_symmetry_cell_setting	triclinic
loop_
_symmetry_equiv_pos_as_xyz
  x,y,z
_cell_length_a	10.654545
_cell_length_b	15.537862
_cell_length_c	9.730223
_cell_angle_alpha	89.994091
_cell_angle_beta	89.997167
_cell_angle_gamma	65.873756
loop_
_atom_site_label
_atom_site_type_symbol
_atom_site_fract_x
_atom_site_fract_y
_atom_site_fract_z
O1	O	1.606170	0.131903	-0.114280
O2	O	1.234812	0.144476	-0.114286
O3	O	1.492793	0.001524	-0.114270
O4	O	1.348189	0.274854	-0.114296
O5	O	1.492783	0.001520	0.114310
O6	O	1.234801	0.144472	0.114294
O7	O	1.606159	0.131899	0.114300
Zn8	Zn	1.420479	0.138185	0.150589
Zn9	Zn	1.420493	0.138190	-0.150575
O10	O	1.348178	0.274850	0.114284
C11	C	1.188440	0.143552	0.000003
C12	C	1.050286	0.140792	0.000001
C13	C	0.985383	0.139491	0.124601
C14	C	0.855584	0.136883	0.124602
C15	C	0.855599	0.136881	-0.124609
C16	C	0.985400	0.139482	-0.124608
C17	C	1.507918	-0.033476	0.000020
C18	C	1.552986	-0.137762	0.000021
C19	C	1.735664	-0.295199	0.000024
C20	C	1.693302	-0.197206	0.000023
C21	C	1.454975	-0.176294	0.000012
C22	C	1.497317	-0.274288	0.000006
C23	C	1.637663	-0.333733	0.000013
C24	C	1.399316	-0.312821	-0.000004
C25	C	1.441655	-0.410806	-0.000003
C26	C	1.581995	-0.470257	0.000008
C27	C	1.680002	-0.431717	0.000014
C28	C	1.258970	-0.253374	-0.000002
C29	C	1.160969	-0.291908	-0.000012
C30	C	1.203307	-0.389894	-0.000021
C31	C	1.343648	-0.449345	-0.000010
C32	C	1.105300	-0.428434	-0.000027
C33	C	1.147639	-0.526419	-0.000027
C34	C	1.385987	-0.547330	-0.000009
C35	C	1.652531	0.132823	0.000008
C36	C	1.790685	0.135582	0.000001
C37	C	1.333053	0.309851	-0.000009
C38	C	1.287986	0.414136	-0.000019
N39	N	1.420479	0.138181	0.356125
N40	N	1.420506	0.138187	-0.356111
C41	C	1.534729	0.074909	0.428058
C42	C	1.534742	0.074909	0.571941
C43	C	1.306245	0.201462	0.571946
C44	C	1.306230	0.201456	0.428065
H45	H	1.038247	0.140539	-0.226078
H46	H	1.500271	-0.595734	-0.000024
H47	H	0.802752	0.135815	-0.226061
H48	H	0.991030	-0.380020	-0.000020
O49	O	1.024659	-0.234120	-0.000266
C50	C	0.838565	-0.111308	-0.118663
C51	C	0.992952	-0.176711	-0.118556
H52	H	0.812888	-0.064862	-0.214275
H53	H	0.775722	-0.155634	-0.118763
H54	H	0.812809	-0.064960	-0.022959
H55	H	1.018837	-0.223072	-0.214244
H56	H	1.055712	-0.132328	-0.118384
O57	O	1.623065	-0.565435	-0.000239
C58	C	1.618388	-0.700299	-0.118630
C59	C	1.571807	-0.592507	-0.118535
H60	H	1.576942	-0.722218	-0.214247
H61	H	1.735526	-0.736214	-0.118713
H62	H	1.577099	-0.722259	-0.022931
H63	H	1.612999	-0.570461	-0.214218
H64	H	1.454666	-0.556653	-0.118380
H65	H	1.340705	-0.127881	0.000011
O66	O	1.788462	-0.159734	0.000269
C67	C	1.878940	-0.061210	0.118653
C68	C	1.771123	-0.103600	0.118558
H69	H	1.864940	-0.015801	0.214264
H70	H	1.986548	-0.120497	0.118747
H71	H	1.865088	-0.015896	0.022948
H72	H	1.784847	-0.148905	0.214246
H73	H	1.663555	-0.044268	0.118392
O74	O	1.217999	-0.158206	0.000178
C75	C	1.222540	-0.023322	0.118630
C76	C	1.269063	-0.131109	0.118584
H77	H	1.263781	-0.001380	0.214366
H78	H	1.263901	-0.001300	0.023032
H79	H	1.105399	0.012520	0.118565
H80	H	1.386193	-0.167027	0.118698
H81	H	1.227601	-0.153061	0.214174
O82	O	1.052396	-0.563814	-0.000289
C83	C	0.861608	-0.575884	-0.118693
C84	C	0.969418	-0.533488	-0.118588
H85	H	0.794473	-0.551366	-0.214312
H86	H	0.915911	-0.656131	-0.118777
H87	H	0.794564	-0.551487	-0.022996
H88	H	1.036494	-0.557812	-0.214268
H89	H	0.915028	-0.453246	-0.118431
H90	H	0.802745	0.135824	0.226063
O91	O	1.195152	0.263014	0.358393
C92	C	0.968481	0.388498	0.373569
C93	C	1.094192	0.318858	0.452643
H94	H	0.886811	0.433653	0.449735
H95	H	1.001027	0.435859	0.306220
H96	H	0.924504	0.347484	0.306195
H97	H	1.138228	0.359796	0.520092
H98	H	1.061568	0.271498	0.519905
H99	H	1.038210	0.140558	0.226066
O100	O	1.645863	0.013414	0.641603
C101	C	1.872468	-0.112145	0.626406
C102	C	1.746723	-0.042533	0.547344
H103	H	1.954033	-0.157410	0.550231
H104	H	1.916622	-0.071202	0.693711
H105	H	1.839788	-0.159404	0.693822
H106	H	1.779292	0.004743	0.479853
H107	H	1.702596	-0.083535	0.480126
O108	O	1.816298	-0.489564	0.000197
C109	C	2.002437	-0.612297	0.118663
C110	C	1.848065	-0.546857	0.118609
H111	H	2.028174	-0.658621	0.214403
H112	H	2.028263	-0.658754	0.023070
H113	H	2.065182	-0.567905	0.118596
H114	H	1.785215	-0.591175	0.118725
H115	H	1.822347	-0.500396	0.214194
H116	H	1.849948	-0.343603	0.000009
H117	H	1.627756	0.023385	0.369488
H118	H	1.213227	0.252980	0.630533
