data_functionalizedCrystal
_audit_creation_method	'MofGen! by Chris Wilmer'
_symmetry_space_group_name_H-M	'P1'
_symmetry_Int_Tables_number	1
_symmetry_cell_setting	triclinic
loop_
_symmetry_equiv_pos_as_xyz
  x,y,z
_cell_length_a	6.817900
_cell_length_b	11.102210
_cell_length_c	11.102193
_cell_angle_alpha	91.948659
_cell_angle_beta	108.604059
_cell_angle_gamma	108.604261
loop_
_atom_site_label
_atom_site_type_symbol
_atom_site_fract_x
_atom_site_fract_y
_atom_site_fract_z
V1	V	-4.111505	-0.175848	-0.396255
O2	O	-4.070548	0.008441	-0.388714
O3	O	-4.088273	-0.348667	-0.393542
O4	O	-4.088280	-0.173147	-0.569076
O5	O	-4.070542	-0.168295	-0.211965
V6	V	-4.588610	-0.153804	-0.374212
O7	O	-4.386843	-0.224202	-0.444606
O8	O	-4.763470	-0.105450	-0.325861
O9	O	-4.388635	0.019015	-0.376925
O10	O	-4.746964	-0.338092	-0.381753
O11	O	-4.746971	-0.161357	-0.558502
O12	O	-4.388629	-0.156505	-0.201391
C13	C	-3.938582	-0.390797	-0.387290
C14	C	-4.001042	-0.532079	-0.386224
C15	C	-3.938589	-0.166901	-0.611200
C16	C	-4.001049	-0.165837	-0.752483
C17	C	-4.028941	-0.713070	-0.268355
C18	C	-3.970229	-0.580318	-0.269342
C19	C	-4.090553	-0.616600	-0.502126
C20	C	-4.149248	-0.749349	-0.501137
C21	C	-3.699464	-0.372944	-0.126788
C22	C	-3.609986	-0.288429	-0.010890
C23	C	-3.694208	-0.319657	0.088116
C24	C	-3.867955	-0.435398	0.071226
C25	C	-3.957450	-0.519907	-0.044674
C26	C	-3.873179	-0.488679	-0.143674
C27	C	-4.420027	-0.956724	-0.643683
C28	C	-4.509538	-1.041236	-0.759585
C29	C	-4.425334	-1.010014	-0.858602
C30	C	-4.251622	-0.894272	-0.841727
C31	C	-4.162111	-0.809760	-0.725824
C32	C	-4.246315	-0.840991	-0.626807
C33	C	-4.121366	-0.398614	-0.788806
C34	C	-4.210859	-0.514497	-0.873340
C35	C	-4.269546	-0.513490	-1.006086
C36	C	-4.238739	-0.396587	-1.054299
C37	C	-4.149246	-0.280703	-0.969765
C38	C	-4.090559	-0.281723	-0.837018
C39	C	-4.028945	-0.047929	-0.933443
C40	C	-3.970243	-0.048934	-0.800696
C41	C	-3.998139	0.068974	-0.981656
C42	C	-3.908629	0.184860	-0.897120
C43	C	-3.849940	0.183848	-0.764367
C44	C	-3.880750	0.066950	-0.716162
C45	C	-4.201669	0.061138	-0.383174
C46	C	-4.118449	0.202419	-0.384248
C47	C	-4.201662	-0.162754	-0.159260
C48	C	-4.118439	-0.163813	-0.017977
H49	H	-4.003851	-0.752335	-0.173176
H50	H	-4.045945	0.069785	-1.089746
H51	H	-4.286556	-0.395777	-1.162390
O52	O	-4.160834	-0.860575	-0.948537
H53	H	-4.025031	-0.765884	-0.917338
O54	O	-3.875395	0.310939	-0.949116
H55	H	-3.931236	0.292171	-1.055623
H56	H	-3.777080	0.278214	-0.695545
H57	H	-3.936542	-0.460805	0.151846
O58	O	-3.597792	-0.228500	0.213112
H59	H	-3.531206	-0.277706	0.293384
H60	H	-3.832955	0.066115	-0.608075
H61	H	-3.630851	-0.347514	-0.207394
O62	O	-4.144797	-0.644749	-0.062893
H63	H	-4.290449	-0.647001	-0.145696
O64	O	-3.422575	-0.163605	0.007340
H65	H	-3.379001	-0.156097	-0.080966
O66	O	-4.124185	-0.564596	-0.628210
H67	H	-4.068499	-0.458094	-0.609436
O68	O	-4.521874	-1.101162	-0.983618
H69	H	-4.656817	-1.186893	-0.978726
H70	H	-4.020656	-0.715518	-0.712088
O71	O	-4.696899	-1.166079	-0.777796
H72	H	-4.740397	-1.173607	-0.689465
H73	H	-4.488590	-0.982164	-0.563054
O74	O	-4.244088	-0.640583	-0.821341
H75	H	-4.146613	-0.691448	-0.850702
H76	H	-4.073555	-0.399445	-0.680718
H77	H	-4.342421	-0.607852	-1.074915
