data_functionalizedCrystal
_audit_creation_method	'MofGen! by Chris Wilmer'
_symmetry_space_group_name_H-M	'P1'
_symmetry_Int_Tables_number	1
_symmetry_cell_setting	triclinic
loop_
_symmetry_equiv_pos_as_xyz
  x,y,z
_cell_length_a	14.519709
_cell_length_b	15.538191
_cell_length_c	14.750779
_cell_angle_alpha	97.573912
_cell_angle_beta	77.332886
_cell_angle_gamma	65.476119
loop_
_atom_site_label
_atom_site_type_symbol
_atom_site_fract_x
_atom_site_fract_y
_atom_site_fract_z
O1	O	-0.272533	1.229014	-0.079788
O2	O	-0.166103	0.954932	-0.079799
O3	O	-0.356004	1.099242	-0.079784
O4	O	-0.082632	1.084704	-0.079802
O5	O	-0.409682	1.140037	0.079870
O6	O	-0.219781	0.995726	0.079855
O7	O	-0.326211	1.269809	0.079867
Zn8	Zn	-0.281519	1.139245	0.105210
Zn9	Zn	-0.210795	1.085496	-0.105142
O10	O	-0.136310	1.125499	0.079852
C11	C	-0.416975	1.118962	0.000043
C12	C	-0.518673	1.116932	0.000043
C13	C	-0.310506	1.284488	0.000039
C14	C	-0.343673	1.389005	0.000036
C15	C	-0.181807	0.940252	0.000027
C16	C	-0.148638	0.835733	0.000023
C17	C	-0.891047	1.109454	0.000018
C18	C	-0.787440	1.111531	0.000025
C19	C	-0.704864	1.113193	0.000032
C20	C	-0.601249	1.115270	0.000037
C21	C	-0.075339	1.105778	0.000023
C22	C	0.026362	1.107806	0.000016
N23	N	-0.329788	1.175934	0.248769
C24	C	-0.014157	1.677345	0.000012
C25	C	-0.045347	1.775559	0.000017
C26	C	-0.220782	1.797710	0.000029
C27	C	-0.189607	1.699496	0.000029
C28	C	-0.086293	1.639321	0.000019
C29	C	-0.261744	1.661472	0.000036
C30	C	-0.230570	1.563266	0.000030
C31	C	-0.127260	1.503084	0.000018
C32	C	-0.055119	1.541115	0.000014
C33	C	-0.365055	1.721648	0.000038
C34	C	-0.437192	1.683624	0.000045
C35	C	-0.406021	1.585418	0.000047
C36	C	-0.302710	1.525235	0.000035
C37	C	-0.478161	1.547387	0.000051
C38	C	-0.446987	1.449181	0.000046
C39	C	-0.271536	1.427029	0.000029
N40	N	-0.162535	1.048814	-0.248701
C41	C	-0.027766	0.946347	0.600564
C42	C	-0.061586	0.972063	0.701066
C43	C	-0.229706	1.099876	0.701041
C44	C	-0.195902	1.074168	0.600538
C45	C	-0.094930	0.997403	0.550307
C46	C	-0.263066	1.125224	0.550280
C47	C	-0.229261	1.099520	0.449785
C48	C	-0.128293	1.022760	0.399548
C49	C	-0.061126	0.971699	0.449812
C50	C	-0.364034	1.201993	0.600513
C51	C	-0.431198	1.253049	0.550256
C52	C	-0.397397	1.227341	0.449759
C53	C	-0.296429	1.150581	0.399521
C54	C	-0.464564	1.278402	0.399495
C55	C	-0.430760	1.252698	0.299000
C56	C	-0.262624	1.124878	0.299026
H57	H	-0.187412	1.378034	0.000035
H58	H	0.029005	1.492119	0.000019
N59	N	0.097278	1.612432	-0.000002
H60	H	0.094226	1.586312	0.059178
H61	H	0.138184	1.651481	-0.000039
N62	N	0.032463	1.816572	0.000007
H63	H	0.102640	1.763546	0.000000
H64	H	0.003454	1.871957	0.059195
H65	H	0.054451	0.883831	0.559664
N66	N	-0.524784	1.408159	0.000048
H67	H	-0.594964	1.461182	0.000057
H68	H	-0.535566	1.383014	0.059230
H69	H	-0.513409	1.315554	0.591165
N70	N	-0.093638	1.397166	0.000031
H71	H	-0.017246	1.364818	0.000028
H72	H	-0.100738	1.362805	-0.059149
H73	H	0.021091	0.909183	0.408912
N74	N	-0.548624	1.748529	0.000066
H75	H	-0.561660	1.721161	-0.059112
H76	H	-0.557356	1.816496	0.000105
H77	H	-0.546772	1.340911	0.440406
N78	N	-0.589584	1.612291	0.000050
H79	H	-0.598385	1.680273	0.000048
H80	H	-0.642344	1.615090	0.059240
N81	N	-0.332209	1.862614	0.000038
H82	H	-0.341013	1.930598	0.000040
H83	H	-0.384960	1.865407	0.059230
H84	H	-0.391551	1.222920	0.682342
N85	N	-0.503196	1.307730	0.244770
H86	H	-0.467881	1.338803	0.203056
H87	H	-0.572283	1.360208	0.291887
N88	N	-0.398684	1.827574	0.000056
H89	H	-0.475076	1.859924	0.000059
H90	H	-0.351784	1.831685	-0.059126
H91	H	-0.311917	1.162381	0.741951
H92	H	-0.100769	1.001837	0.317718
N93	N	-0.153723	1.042072	0.244842
H94	H	-0.097803	1.057486	0.262324
H95	H	-0.142602	1.033578	0.173571
H96	H	-0.006883	0.930481	0.741980
