data_functionalizedCrystal
_audit_creation_method	'MofGen! by Chris Wilmer'
_symmetry_space_group_name_H-M	'P1'
_symmetry_Int_Tables_number	1
_symmetry_cell_setting	triclinic
loop_
_symmetry_equiv_pos_as_xyz
  x,y,z
_cell_length_a	17.077404
_cell_length_b	29.839131
_cell_length_c	29.839126
_cell_angle_alpha	89.968194
_cell_angle_beta	89.981324
_cell_angle_gamma	90.033199
loop_
_atom_site_label
_atom_site_type_symbol
_atom_site_fract_x
_atom_site_fract_y
_atom_site_fract_z
Zn1	Zn	1.199990	-0.178912	-0.253970
Zn2	Zn	1.699990	0.321088	0.246030
Zn3	Zn	1.199868	-0.254033	-0.178830
Zn4	Zn	1.699868	0.245967	0.321170
Zn5	Zn	1.068721	-0.178915	-0.178854
Zn6	Zn	1.568721	0.321085	0.321146
Zn7	Zn	1.068661	-0.254013	-0.253932
Zn8	Zn	1.568661	0.245987	0.246068
O9	O	1.134310	-0.216468	-0.216396
O10	O	1.634310	0.283532	0.283604
O11	O	1.309820	-0.188884	-0.244008
O12	O	1.809820	0.311116	0.255992
O13	O	1.182445	-0.244077	-0.115966
O14	O	1.682445	0.255923	0.384034
O15	O	1.086210	-0.116047	-0.188844
O16	O	1.586210	0.383953	0.311156
O17	O	1.309731	-0.244075	-0.188803
O18	O	1.809731	0.255925	0.311197
O19	O	1.182653	-0.116045	-0.244031
O20	O	1.682653	0.383955	0.255969
O21	O	1.086092	-0.188888	-0.115983
O22	O	1.586092	0.311112	0.384017
O23	O	0.958866	-0.188870	-0.188807
O24	O	1.458866	0.311130	0.311193
O25	O	1.086108	-0.244042	-0.316805
O26	O	1.586108	0.255958	0.183195
O27	O	0.958822	-0.244044	-0.243968
O28	O	1.458822	0.255956	0.256032
O29	O	1.182595	-0.188865	-0.316832
O30	O	1.682595	0.311135	0.183168
O31	O	1.182387	-0.316897	-0.188767
O32	O	1.682387	0.183103	0.311233
O33	O	1.085990	-0.316883	-0.243944
O34	O	1.585990	0.183117	0.256056
C35	C	0.930362	-0.216455	-0.216386
C36	C	1.430362	0.283545	0.283614
C37	C	0.843112	-0.216461	-0.216393
C38	C	1.343112	0.283539	0.283607
C39	C	0.802169	-0.187774	-0.245182
C40	C	1.302169	0.312226	0.254818
C41	C	0.720189	-0.187777	-0.245184
C42	C	1.220189	0.312223	0.254816
C43	C	0.679153	-0.216469	-0.216399
C44	C	1.179153	0.283531	0.283601
C45	C	0.720101	-0.245157	-0.187606
C46	C	1.220101	0.254843	0.312394
C47	C	0.802080	-0.245152	-0.187602
C48	C	1.302080	0.254848	0.312398
C49	C	0.549231	-0.245167	-0.187618
C50	C	1.049231	0.254833	0.312382
C51	C	0.467247	-0.245174	-0.187622
C52	C	0.967247	0.254826	0.312378
C53	C	0.467340	-0.187793	-0.245199
C54	C	0.967340	0.312207	0.254801
C55	C	0.549319	-0.187787	-0.245195
C56	C	1.049319	0.312213	0.254805
C57	C	0.590262	-0.216476	-0.216403
C58	C	1.090262	0.283524	0.283597
C59	C	1.134190	-0.333191	-0.216359
C60	C	1.634190	0.166809	0.283641
C61	C	1.134211	-0.383125	-0.216357
C62	C	1.634211	0.116875	0.283643
C63	C	1.184517	-0.692733	-0.245173
C64	C	1.684517	-0.192733	0.254827
C65	C	1.184602	-0.880406	-0.245200
C66	C	1.684602	-0.380406	0.254800
O67	O	1.227256	-0.904640	-0.269673
O68	O	1.727256	-0.404640	0.230327
N69	N	1.134443	-0.903910	-0.216446
N70	N	1.634443	-0.403910	0.283554
C71	C	1.084256	-0.880494	-0.187685
C72	C	1.584256	-0.380494	0.312315
O73	O	1.041589	-0.904792	-0.163232
O74	O	1.541589	-0.404792	0.336768
C75	C	1.084167	-0.692821	-0.187661
C76	C	1.584167	-0.192821	0.312339
C77	C	1.134335	-0.669319	-0.216414
C78	C	1.634335	-0.169319	0.283586
C79	C	1.234679	-0.669230	-0.273924
C80	C	1.734679	-0.169230	0.226076
C81	C	1.234661	-0.622315	-0.273916
C82	C	1.734661	-0.122315	0.226084
C83	C	1.184479	-0.598902	-0.245156
C84	C	1.684479	-0.098902	0.254844
C85	C	1.134316	-0.622404	-0.216405
C86	C	1.634316	-0.122404	0.283595
C87	C	1.033977	-0.669406	-0.158903
C88	C	1.533977	-0.169406	0.341097
C89	C	1.033958	-0.622485	-0.158900
C90	C	1.533958	-0.122485	0.341100
C91	C	1.084125	-0.598983	-0.187653
C92	C	1.584125	-0.098983	0.312347
C93	C	1.084116	-0.552075	-0.187637
C94	C	1.584116	-0.052075	0.312363
N95	N	1.134274	-0.528571	-0.216391
N96	N	1.634274	-0.028571	0.283609
C97	C	1.184456	-0.551984	-0.245150
C98	C	1.684456	-0.051984	0.254850
C99	C	1.084307	-0.979024	-0.187700
C100	C	1.584307	-0.479024	0.312300
C101	C	1.084330	-1.025942	-0.187705
C102	C	1.584330	-0.525942	0.312295
C103	C	1.184675	-1.025851	-0.245221
C104	C	1.684675	-0.525851	0.254779
C105	C	1.184655	-0.978932	-0.245213
C106	C	1.684655	-0.478932	0.254787
C107	C	1.134466	-0.955520	-0.216454
C108	C	1.634466	-0.455520	0.283546
C109	C	1.184413	-0.453458	-0.245130
C110	C	1.684413	0.046542	0.254870
C111	C	1.184392	-0.406538	-0.245117
C112	C	1.684392	0.093462	0.254883
C113	C	1.084045	-0.406634	-0.187603
C114	C	1.584045	0.093366	0.312397
C115	C	1.084068	-0.453549	-0.187614
C116	C	1.584068	0.046451	0.312386
C117	C	1.134255	-0.476960	-0.216381
C118	C	1.634255	0.023040	0.283619
O119	O	1.041477	-0.527812	-0.163181
O120	O	1.541477	-0.027812	0.336819
O121	O	1.227104	-0.527677	-0.269607
O122	O	1.727104	-0.027677	0.230393
C123	C	1.184535	-0.739648	-0.245182
C124	C	1.684535	-0.239648	0.254818
C125	C	1.134373	-0.763150	-0.216431
C126	C	1.634373	-0.263150	0.283569
C127	C	1.084191	-0.739737	-0.187672
C128	C	1.584191	-0.239737	0.312328
C129	C	1.134396	-0.810068	-0.216437
C130	C	1.634396	-0.310068	0.283563
C131	C	1.184577	-0.833481	-0.245196
C132	C	1.684577	-0.333481	0.254804
C133	C	1.234736	-0.809977	-0.273951
C134	C	1.734736	-0.309977	0.226049
C135	C	1.234717	-0.763061	-0.273942
C136	C	1.734717	-0.263061	0.226058
C137	C	1.034032	-0.763241	-0.158917
C138	C	1.534032	-0.263241	0.341083
C139	C	1.034056	-0.810157	-0.158928
C140	C	1.534056	-0.310157	0.341072
C141	C	1.084237	-0.833570	-0.187688
C142	C	1.584237	-0.333570	0.312312
C143	C	1.339054	-0.216481	-0.216407
C144	C	1.839054	0.283519	0.283593
C145	C	1.426304	-0.216487	-0.216411
C146	C	1.926304	0.283513	0.283589
C147	C	1.134358	-0.216451	-0.333575
C148	C	1.634358	0.283549	0.166425
C149	C	1.134379	-0.216444	-0.383509
C150	C	1.634379	0.283556	0.116491
C151	C	1.134451	-0.099290	-0.216444
C152	C	1.634451	0.400710	0.283556
C153	C	1.134512	-0.049355	-0.216465
C154	C	1.634512	0.450645	0.283535
C155	C	1.084224	-0.187662	-0.693165
C156	C	1.584224	0.312338	-0.193165
C157	C	1.084246	-0.187631	-0.880838
C158	C	1.584246	0.312369	-0.380838
O159	O	1.041563	-0.163204	-0.905113
O160	O	1.541563	0.336796	-0.405113
N161	N	1.134416	-0.216359	-0.904295
N162	N	1.634416	0.283641	-0.404295
C163	C	1.184581	-0.245100	-0.880830
C164	C	1.684581	0.254900	-0.380830
O165	O	1.227249	-0.269538	-0.905087
O166	O	1.727249	0.230462	-0.405087
C167	C	1.184554	-0.245133	-0.693158
C168	C	1.684554	0.254867	-0.193158
C169	C	1.134386	-0.216399	-0.669704
C170	C	1.634386	0.283601	-0.169704
C171	C	1.034059	-0.158931	-0.669711
C172	C	1.534059	0.341069	-0.169711
C173	C	1.034057	-0.158937	-0.622795
C174	C	1.534057	0.341063	-0.122795
C175	C	1.084220	-0.187675	-0.599334
C176	C	1.584220	0.312325	-0.099334
C177	C	1.134384	-0.216406	-0.622788
C178	C	1.634384	0.283594	-0.122788
C179	C	1.234715	-0.273875	-0.669694
C180	C	1.734715	0.226125	-0.169694
C181	C	1.234702	-0.273882	-0.622773
C182	C	1.734702	0.226118	-0.122773
C183	C	1.184534	-0.245148	-0.599319
C184	C	1.684534	0.254852	-0.099319
C185	C	1.184545	-0.245149	-0.552411
C186	C	1.684545	0.254851	-0.052411
N187	N	1.134374	-0.216421	-0.528955
N188	N	1.634374	0.283579	-0.028955
C189	C	1.084212	-0.187683	-0.552416
C190	C	1.584212	0.312317	-0.052416
C191	C	1.184593	-0.245080	-0.979361
C192	C	1.684593	0.254920	-0.479361
C193	C	1.184601	-0.245071	-1.026278
C194	C	1.684601	0.254929	-0.526278
C195	C	1.084264	-0.187602	-1.026283
C196	C	1.584264	0.312398	-0.526283
C197	C	1.084261	-0.187609	-0.979364
C198	C	1.584261	0.312391	-0.479364
C199	C	1.134422	-0.216351	-0.955904
C200	C	1.634422	0.283649	-0.455904
C201	C	1.084212	-0.187699	-0.453890
C202	C	1.584212	0.312301	0.046110
C203	C	1.084217	-0.187706	-0.406970
C204	C	1.584217	0.312294	0.093030
C205	C	1.184550	-0.245176	-0.406970
C206	C	1.684550	0.254824	0.093030
C207	C	1.184548	-0.245167	-0.453885
C208	C	1.684548	0.254833	0.046115
C209	C	1.134373	-0.216427	-0.477344
C210	C	1.634373	0.283573	0.022656
O211	O	1.227199	-0.269567	-0.528107
O212	O	1.727199	0.230433	-0.028107
O213	O	1.041538	-0.163256	-0.528150
O214	O	1.541538	0.336744	-0.028150
C215	C	1.084226	-0.187655	-0.740080
C216	C	1.584226	0.312345	-0.240080
C217	C	1.134390	-0.216387	-0.763534
C218	C	1.634390	0.283613	-0.263534
C219	C	1.184553	-0.245124	-0.740073
C220	C	1.684553	0.254876	-0.240073
C221	C	1.134398	-0.216378	-0.810452
C222	C	1.634398	0.283622	-0.310452
C223	C	1.084236	-0.187640	-0.833914
C224	C	1.584236	0.312360	-0.333914
C225	C	1.034065	-0.158912	-0.810457
C226	C	1.534065	0.341088	-0.310457
C227	C	1.034063	-0.158918	-0.763542
C228	C	1.534063	0.341082	-0.263542
C229	C	1.234723	-0.273853	-0.763530
C230	C	1.734723	0.226147	-0.263530
C231	C	1.234722	-0.273843	-0.810445
C232	C	1.734722	0.226157	-0.310445
C233	C	1.184559	-0.245106	-0.833907
C234	C	1.684559	0.254894	-0.333907
C235	C	1.134307	-0.216453	-0.099674
C236	C	1.634307	0.283547	0.400326
C237	C	1.134438	-0.216334	-0.049740
C238	C	1.634438	0.283666	0.450260
H239	H	0.582728	-0.164426	-0.268637
H240	H	1.082728	0.335574	0.231363
H241	H	1.043355	-0.164295	-0.472985
H242	H	1.543355	0.335705	0.027015
H243	H	1.225536	-1.044922	-0.268638
H244	H	1.725536	-0.544922	0.231362
C245	C	0.846578	-0.156574	-0.276454
C246	C	1.346578	0.343426	0.223546
C247	C	0.793171	-0.131444	-0.301658
C248	C	1.293171	0.368556	0.198342
C249	C	0.834048	-0.102692	-0.330466
C250	C	1.334048	0.397308	0.169534
H251	H	0.878560	-0.173735	-0.296033
H252	H	1.378560	0.326265	0.203967
H253	H	0.878545	-0.136948	-0.259316
H254	H	1.378545	0.363052	0.240684
H255	H	0.761217	-0.151067	-0.318794
H256	H	1.261217	0.348933	0.181206
H257	H	0.761187	-0.114274	-0.282090
H258	H	1.261187	0.385726	0.217910
H259	H	0.866016	-0.083067	-0.313328
H260	H	1.366016	0.416933	0.186672
H261	H	0.866029	-0.119856	-0.350042
H262	H	1.366029	0.380144	0.149958
H263	H	0.797818	-0.085635	-0.347567
H264	H	1.297818	0.414365	0.152433
H265	H	0.434000	-0.164432	-0.268642
H266	H	0.934000	0.335568	0.231358
H267	H	1.225461	-0.268464	-1.045371
H268	H	1.725461	0.231536	-0.545371
H269	H	0.433837	-0.268538	-0.164183
H270	H	0.933837	0.231462	0.335817
C271	C	0.979591	-0.597010	-0.127647
C272	C	1.479591	-0.097010	0.372353
C273	C	1.024048	-0.570065	-0.098875
C274	C	1.524048	-0.070065	0.401125
C275	C	0.973994	-0.546589	-0.070083
C276	C	1.473994	-0.046589	0.429917
H277	H	0.949703	-0.617678	-0.110484
H278	H	1.449703	-0.117678	0.389516
H279	H	0.945376	-0.578685	-0.144800
H280	H	1.445376	-0.078685	0.355200
H281	H	1.058249	-0.588389	-0.081724
H282	H	1.558249	-0.088389	0.418276
H283	H	1.053935	-0.549389	-0.116026
H284	H	1.553935	-0.049389	0.383974
H285	H	0.939778	-0.528264	-0.087236
H286	H	1.439778	-0.028264	0.412764
H287	H	0.944108	-0.567260	-0.052923
H288	H	1.444108	-0.067260	0.447077
H289	H	1.004149	-0.528301	-0.050561
H290	H	1.504149	-0.028301	0.449439
H291	H	1.225275	-0.472514	-0.268557
H292	H	1.725275	0.027486	0.231443
H293	H	0.993224	-0.135511	-0.829567
H294	H	1.493224	0.364489	-0.329567
C295	C	1.239136	-0.276325	-0.381517
C296	C	1.739136	0.223675	0.118483
C297	C	1.316822	-0.266547	-0.392932
C298	C	1.816822	0.233453	0.107068
C299	C	1.367122	-0.295232	-0.369489
C300	C	1.867122	0.204768	0.130511
H301	H	1.227706	-0.306523	-0.389174
H302	H	1.727706	0.193477	0.110826
H303	H	1.231996	-0.272211	-0.350212
H304	H	1.731996	0.227789	0.149788
H305	H	1.323958	-0.270665	-0.424230
H306	H	1.823958	0.229335	0.075770
H307	H	1.328275	-0.236355	-0.385274
H308	H	1.828275	0.263645	0.114726
H309	H	1.359983	-0.291118	-0.338184
H310	H	1.859983	0.208882	0.161816
H311	H	1.355686	-0.325428	-0.377148
H312	H	1.855686	0.174572	0.122852
H313	H	1.419838	-0.288599	-0.377227
H314	H	1.919838	0.211401	0.122773
C315	C	1.029782	-1.051375	-0.156466
C316	C	1.529782	-0.551375	0.343534
C317	C	0.985819	-1.020822	-0.131290
C318	C	1.485819	-0.520822	0.368710
C319	C	0.935549	-1.044232	-0.102514
C320	C	1.435549	-0.544232	0.397486
H321	H	1.059747	-1.069678	-0.136868
H322	H	1.559747	-0.569678	0.363132
H323	H	0.995527	-1.069672	-0.173626
H324	H	1.495527	-0.569672	0.326374
H325	H	1.020070	-1.002533	-0.114132
H326	H	1.520070	-0.502533	0.385868
H327	H	0.955838	-1.002518	-0.150876
H328	H	1.455838	-0.502518	0.349124
H329	H	0.901293	-1.062529	-0.119673
H330	H	1.401293	-0.562529	0.380327
H331	H	0.965519	-1.062535	-0.082919
H332	H	1.465519	-0.562535	0.417081
H333	H	0.905708	-1.023506	-0.085431
H334	H	1.405708	-0.523506	0.414569
H335	H	0.993207	-0.135529	-0.688808
H336	H	1.493207	0.364471	-0.188808
C337	C	0.593544	-0.276367	-0.156343
C338	C	1.093544	0.223633	0.343657
C339	C	0.540062	-0.301506	-0.131145
C340	C	1.040062	0.198494	0.368855
C341	C	0.580854	-0.330257	-0.102339
C342	C	1.080854	0.169743	0.397661
H343	H	0.625529	-0.259205	-0.136760
H344	H	1.125529	0.240795	0.363240
H345	H	0.625501	-0.295986	-0.173482
H346	H	1.125501	0.204014	0.326518
H347	H	0.508118	-0.281889	-0.114008
H348	H	1.008118	0.218111	0.385992
H349	H	0.508075	-0.318677	-0.150717
H350	H	1.008075	0.181323	0.349283
H351	H	0.612811	-0.349877	-0.119478
H352	H	1.112811	0.150123	0.380522
H353	H	0.612838	-0.313092	-0.082759
H354	H	1.112838	0.186908	0.417241
H355	H	0.544573	-0.347321	-0.085242
H356	H	1.044573	0.152679	0.414758
C357	C	0.979496	-0.127726	-0.597416
C358	C	1.479496	0.372274	-0.097416
C359	C	0.935557	-0.102570	-0.628012
C360	C	1.435557	0.397430	-0.128012
C361	C	0.885275	-0.073818	-0.604652
C362	C	1.385275	0.426182	-0.104652
H363	H	1.009451	-0.108114	-0.579123
H364	H	1.509451	0.391886	-0.079123
H365	H	0.945226	-0.144902	-0.579112
H366	H	1.445226	0.355098	-0.079112
H367	H	0.969823	-0.085396	-0.646308
H368	H	1.469823	0.414604	-0.146308
H369	H	0.905586	-0.122171	-0.646306
H370	H	1.405586	0.377829	-0.146306
H371	H	0.851005	-0.090993	-0.586349
H372	H	1.351005	0.409007	-0.086349
H373	H	0.915236	-0.054208	-0.586360
H374	H	1.415236	0.445792	-0.086360
H375	H	0.855452	-0.056749	-0.625408
H376	H	1.355452	0.443251	-0.125408
C377	C	1.029718	-0.953586	-0.156544
C378	C	1.529718	-0.453586	0.343456
C379	C	0.979343	-0.926667	-0.181946
C380	C	1.479343	-0.426667	0.318054
C381	C	0.929041	-0.903234	-0.153260
C382	C	1.429041	-0.403234	0.346740
H383	H	1.059663	-0.935246	-0.136973
H384	H	1.559663	-0.435246	0.363027
H385	H	0.999809	-0.974294	-0.139430
H386	H	1.499809	-0.474294	0.360570
H387	H	1.009249	-0.905961	-0.199053
H388	H	1.509249	-0.405961	0.300947
H389	H	0.949381	-0.944996	-0.201517
H390	H	1.449381	-0.444996	0.298483
H391	H	0.899133	-0.923942	-0.136146
H392	H	1.399133	-0.423942	0.363854
H393	H	0.958993	-0.884896	-0.133690
H394	H	1.458993	-0.384896	0.366310
H395	H	0.894852	-0.884970	-0.170492
H396	H	1.394852	-0.384970	0.329508
H397	H	1.043422	-0.164202	-1.045393
H398	H	1.543422	0.335798	-0.545393
C399	C	1.289225	-0.305092	-0.835826
C400	C	1.789225	0.194908	-0.335826
C401	C	1.333134	-0.330267	-0.805231
C402	C	1.833134	0.169733	-0.305231
C403	C	1.383335	-0.359064	-0.828593
C404	C	1.883335	0.140936	-0.328593
H405	H	1.323523	-0.287961	-0.854145
H406	H	1.823523	0.212039	-0.354145
H407	H	1.259189	-0.324687	-0.854103
H408	H	1.759189	0.175313	-0.354103
H409	H	1.363168	-0.310675	-0.786961
H410	H	1.863168	0.189325	-0.286961
H411	H	1.298857	-0.347407	-0.786911
H412	H	1.798857	0.152593	-0.286911
H413	H	1.353299	-0.378659	-0.846871
H414	H	1.853299	0.121341	-0.346871
H415	H	1.417628	-0.341930	-0.846911
H416	H	1.917628	0.158070	-0.346911
H417	H	1.413129	-0.376151	-0.807839
H418	H	1.913129	0.123849	-0.307839
H419	H	0.993125	-0.688533	-0.135489
H420	H	1.493125	-0.188533	0.364511
H421	H	0.686683	-0.268517	-0.164167
H422	H	1.186683	0.231483	0.335833
H423	H	1.275598	-0.829048	-0.297366
H424	H	1.775598	-0.329048	0.202634
H425	H	1.043410	-0.164211	-0.960271
H426	H	1.543410	0.335789	-0.460271
H427	H	1.275568	-0.743929	-0.297355
H428	H	1.775568	-0.243929	0.202645
H429	H	1.275509	-0.603182	-0.297330
H430	H	1.775509	-0.103182	0.202670
C431	C	1.289063	-0.305109	-0.738039
C432	C	1.789063	0.194891	-0.238039
C433	C	1.244591	-0.333918	-0.711091
C434	C	1.744591	0.166082	-0.211091
C435	C	1.294629	-0.362721	-0.687610
C436	C	1.794629	0.137279	-0.187610
H437	H	1.323303	-0.287981	-0.719714
H438	H	1.823303	0.212019	-0.219714
H439	H	1.318924	-0.322242	-0.758718
H440	H	1.818924	0.177758	-0.258718
H441	H	1.214743	-0.316787	-0.690414
H442	H	1.714743	0.183213	-0.190414
H443	H	1.210353	-0.351056	-0.729405
H444	H	1.710353	0.148944	-0.229405
H445	H	1.324490	-0.379854	-0.708290
H446	H	1.824490	0.120146	-0.208290
H447	H	1.328866	-0.345590	-0.669287
H448	H	1.828866	0.154410	-0.169287
H449	H	1.264462	-0.382274	-0.669327
H450	H	1.764462	0.117726	-0.169327
C451	C	1.029519	-0.478988	-0.156378
C452	C	1.529519	0.021012	0.343622
C453	C	0.985558	-0.448439	-0.131196
C454	C	1.485558	0.051561	0.368804
C455	C	0.935285	-0.471852	-0.102425
C456	C	1.435285	0.028148	0.397575
H457	H	1.059482	-0.497295	-0.136783
H458	H	1.559482	0.002705	0.363217
H459	H	0.995263	-0.497281	-0.173541
H460	H	1.495263	0.002719	0.326459
H461	H	1.019810	-0.430153	-0.114035
H462	H	1.519810	0.069847	0.385965
H463	H	0.955579	-0.430130	-0.150780
H464	H	1.455579	0.069870	0.349220
H465	H	0.901028	-0.490145	-0.119588
H466	H	1.401028	0.009855	0.380412
H467	H	0.965254	-0.490159	-0.082832
H468	H	1.465254	0.009841	0.417168
H469	H	0.905446	-0.451128	-0.085339
H470	H	1.405446	0.048872	0.414661
C471	C	1.239151	-0.276301	-0.953974
C472	C	1.739151	0.223699	-0.453974
C473	C	1.283100	-0.301445	-0.984564
C474	C	1.783100	0.198555	-0.484564
C475	C	1.333379	-0.330204	-0.961197
C476	C	1.833379	0.169796	-0.461197
H477	H	1.209193	-0.295920	-0.935657
H478	H	1.709193	0.204080	-0.435657
H479	H	1.273415	-0.259130	-0.935693
H480	H	1.773415	0.240870	-0.435693
H481	H	1.248841	-0.318614	-1.002837
H482	H	1.748841	0.181386	-0.502837
H483	H	1.313074	-0.281837	-1.002881
H484	H	1.813074	0.218163	-0.502881
H485	H	1.367643	-0.313033	-0.942916
H486	H	1.867643	0.186967	-0.442916
H487	H	1.303415	-0.349820	-0.942881
H488	H	1.803415	0.150180	-0.442881
H489	H	1.363209	-0.347265	-0.981948
H490	H	1.863209	0.152735	-0.481948
H491	H	1.275566	-0.297274	-0.688782
H492	H	1.775566	0.202726	-0.188782
C493	C	1.029591	-0.381127	-0.156430
C494	C	1.529591	0.118873	0.343570
C495	C	1.040301	-0.335009	-0.162590
C496	C	1.540301	0.164991	0.337410
C497	C	0.990140	-0.311497	-0.133888
C498	C	1.490140	0.188503	0.366112
H499	H	1.041056	-0.388774	-0.126232
H500	H	1.541056	0.111226	0.373768
H501	H	0.976830	-0.388809	-0.162986
H502	H	1.476830	0.111191	0.337014
H503	H	1.093051	-0.327330	-0.156031
H504	H	1.593051	0.172670	0.343969
H505	H	1.028831	-0.327348	-0.192782
H506	H	1.528831	0.172652	0.307218
H507	H	0.937378	-0.319179	-0.140444
H508	H	1.437378	0.180821	0.359556
H509	H	1.001609	-0.319148	-0.103691
H510	H	1.501609	0.180852	0.396309
H511	H	0.997395	-0.280204	-0.138066
H512	H	1.497395	0.219796	0.361934
H513	H	1.225248	-0.387404	-0.268531
H514	H	1.725248	0.112596	0.231469
H515	H	1.275556	-0.297285	-0.603674
H516	H	1.775556	0.202715	-0.103674
C517	C	0.979498	-0.835589	-0.127691
C518	C	1.479498	-0.335589	0.372309
C519	C	0.935535	-0.805037	-0.102514
C520	C	1.435535	-0.305037	0.397486
C521	C	0.885257	-0.828447	-0.073742
C522	C	1.385257	-0.328447	0.426258
H523	H	1.009456	-0.853896	-0.108093
H524	H	1.509456	-0.353896	0.391907
H525	H	0.945242	-0.853883	-0.144854
H526	H	1.445242	-0.353883	0.355146
H527	H	0.969786	-0.786751	-0.085353
H528	H	1.469786	-0.286751	0.414647
H529	H	0.905560	-0.786729	-0.122100
H530	H	1.405560	-0.286729	0.377900
H531	H	0.851001	-0.846741	-0.090905
H532	H	1.351001	-0.346741	0.409095
H533	H	0.915222	-0.846753	-0.054147
H534	H	1.415222	-0.346753	0.445853
H535	H	0.855417	-0.807721	-0.056659
H536	H	1.355417	-0.307721	0.443341
C537	C	1.289216	-0.694703	-0.305078
C538	C	1.789216	-0.194703	0.194922
C539	C	1.339559	-0.721637	-0.279671
C540	C	1.839559	-0.221637	0.220329
C541	C	1.389811	-0.745109	-0.308354
C542	C	1.889811	-0.245109	0.191646
H543	H	1.319158	-0.674032	-0.322208
H544	H	1.819158	-0.174032	0.177792
H545	H	1.259208	-0.713034	-0.324636
H546	H	1.759208	-0.213034	0.175364
H547	H	1.369564	-0.703308	-0.260121
H548	H	1.869564	-0.203308	0.239879
H549	H	1.309639	-0.742317	-0.262542
H550	H	1.809639	-0.242317	0.237458
H551	H	1.359803	-0.763441	-0.327912
H552	H	1.859803	-0.263441	0.172088
H553	H	1.419747	-0.724435	-0.325482
H554	H	1.919747	-0.224435	0.174518
H555	H	1.423969	-0.763390	-0.291120
H556	H	1.923969	-0.263390	0.208880
C557	C	1.239146	-0.953499	-0.276484
C558	C	1.739146	-0.453499	0.223516
C559	C	1.283080	-0.984051	-0.301677
C560	C	1.783080	-0.484051	0.198323
C561	C	1.333277	-0.960641	-0.330495
C562	C	1.833277	-0.460641	0.169505
H563	H	1.273428	-0.935187	-0.259368
H564	H	1.773428	-0.435187	0.240632
H565	H	1.209105	-0.935210	-0.296066
H566	H	1.709105	-0.435210	0.203934
H567	H	1.313119	-1.002333	-0.282096
H568	H	1.813119	-0.502333	0.217904
H569	H	1.248819	-1.002364	-0.318802
H570	H	1.748819	-0.502364	0.181198
H571	H	1.303236	-0.942352	-0.350077
H572	H	1.803236	-0.442352	0.149923
H573	H	1.367554	-0.942330	-0.313375
H574	H	1.867554	-0.442330	0.186625
H575	H	1.363087	-0.981367	-0.347594
H576	H	1.863087	-0.481367	0.152406
C577	C	0.979503	-0.127706	-0.738162
C578	C	1.479503	0.372294	-0.238162
C579	C	0.935565	-0.102550	-0.768758
C580	C	1.435565	0.397450	-0.268758
C581	C	0.885285	-0.073797	-0.745399
C582	C	1.385285	0.426203	-0.245399
H583	H	1.009459	-0.108094	-0.719869
H584	H	1.509459	0.391906	-0.219869
H585	H	0.945232	-0.144881	-0.719858
H586	H	1.445232	0.355119	-0.219858
H587	H	0.969831	-0.085376	-0.787055
H588	H	1.469831	0.414624	-0.287055
H589	H	0.905593	-0.122150	-0.787052
H590	H	1.405593	0.377850	-0.287052
H591	H	0.851014	-0.090972	-0.727095
H592	H	1.351014	0.409028	-0.227095
H593	H	0.915247	-0.054188	-0.727107
H594	H	1.415247	0.445812	-0.227107
H595	H	0.855461	-0.056728	-0.766155
H596	H	1.355461	0.443272	-0.266155
C597	C	0.979451	-0.737803	-0.127763
C598	C	1.479451	-0.237803	0.372237
C599	C	0.929080	-0.710879	-0.153163
C600	C	1.429080	-0.210879	0.346837
C601	C	0.878782	-0.687446	-0.124475
C602	C	1.378782	-0.187446	0.375525
H603	H	1.009399	-0.719465	-0.108190
H604	H	1.509399	-0.219465	0.391810
H605	H	0.949540	-0.758511	-0.110650
H606	H	1.449540	-0.258511	0.389350
H607	H	0.958988	-0.690174	-0.170269
H608	H	1.458988	-0.190174	0.329731
H609	H	0.899114	-0.729206	-0.172735
H610	H	1.399114	-0.229206	0.327265
H611	H	0.848870	-0.708154	-0.107362
H612	H	1.348870	-0.208154	0.392638
H613	H	0.908736	-0.669111	-0.104904
H614	H	1.408736	-0.169111	0.395096
H615	H	0.844594	-0.669179	-0.141705
H616	H	1.344594	-0.169179	0.358295
H617	H	1.225408	-0.268560	-0.472983
H618	H	1.725408	0.231440	0.027017
H619	H	0.686857	-0.164418	-0.268628
H620	H	1.186857	0.335582	0.231372
C621	C	1.029828	-0.156527	-0.381426
C622	C	1.529828	0.343473	0.118574
C623	C	1.040571	-0.162672	-0.335315
C624	C	1.540571	0.337328	0.164685
C625	C	0.990490	-0.133955	-0.311771
C626	C	1.490490	0.366045	0.188229
H627	H	0.977047	-0.163070	-0.389050
H628	H	1.477047	0.336930	0.110950
H629	H	1.041360	-0.126332	-0.389104
H630	H	1.541360	0.373668	0.110896
H631	H	1.029034	-0.192860	-0.327639
H632	H	1.529034	0.307140	0.172361
H633	H	1.093341	-0.156126	-0.327676
H634	H	1.593341	0.343874	0.172324
H635	H	1.002022	-0.103760	-0.319449
H636	H	1.502022	0.396240	0.180551
H637	H	0.937713	-0.140501	-0.319399
H638	H	1.437713	0.359499	0.180601
H639	H	0.997777	-0.138118	-0.280482
H640	H	1.497777	0.361882	0.219518
C641	C	0.846394	-0.276349	-0.156330
C642	C	1.346394	0.223651	0.343670
C643	C	0.792912	-0.301487	-0.131131
C644	C	1.292912	0.198513	0.368869
C645	C	0.833704	-0.330234	-0.102321
C646	C	1.333704	0.169766	0.397679
H647	H	0.878377	-0.259184	-0.136748
H648	H	1.378377	0.240816	0.363252
H649	H	0.878354	-0.295969	-0.173466
H650	H	1.378354	0.204031	0.326534
H651	H	0.760966	-0.281869	-0.113996
H652	H	1.260966	0.218131	0.386004
H653	H	0.760928	-0.318661	-0.150701
H654	H	1.260928	0.181339	0.349299
H655	H	0.865664	-0.349855	-0.119457
H656	H	1.365664	0.150145	0.380543
H657	H	0.865686	-0.313066	-0.082741
H658	H	1.365686	0.186934	0.417259
H659	H	0.797423	-0.347297	-0.085223
H660	H	1.297423	0.152703	0.414777
