data_functionalizedCrystal
_audit_creation_method	'MofGen! by Chris Wilmer'
_symmetry_space_group_name_H-M	'P1'
_symmetry_Int_Tables_number	1
_symmetry_cell_setting	triclinic
loop_
_symmetry_equiv_pos_as_xyz
  x,y,z
_cell_length_a	23.532355
_cell_length_b	23.532357
_cell_length_c	9.616153
_cell_angle_alpha	89.992198
_cell_angle_beta	89.998972
_cell_angle_gamma	82.827896
loop_
_atom_site_label
_atom_site_type_symbol
_atom_site_fract_x
_atom_site_fract_y
_atom_site_fract_z
O1	O	0.755269	0.068993	-0.115473
O2	O	0.589399	0.079028	-0.115520
O3	O	0.677350	-0.008924	-0.115466
O4	O	0.667317	0.156945	-0.115526
O5	O	0.677338	-0.008922	0.115825
O6	O	0.589387	0.079030	0.115772
O7	O	0.755257	0.068995	0.115818
Zn8	Zn	0.672320	0.074013	0.152518
Zn9	Zn	0.672336	0.074010	-0.152219
O10	O	0.667305	0.156947	0.115765
C11	C	0.568177	0.078778	0.000120
C12	C	0.504958	0.078024	0.000104
C13	C	0.112939	0.073287	0.126241
C14	C	0.053539	0.072569	0.126247
O15	O	0.022815	0.072180	0.233469
N16	N	0.023837	0.072212	0.000170
C17	C	0.053539	0.072567	-0.125920
O18	O	0.022821	0.072197	-0.233157
C19	C	0.112937	0.073281	-0.125924
C20	C	0.142636	0.073643	0.000160
C21	C	0.142637	0.073649	0.252315
C22	C	0.202032	0.074367	0.252309
C23	C	0.231729	0.074724	0.126229
C24	C	0.202031	0.074362	0.000154
C25	C	0.142638	0.073631	-0.252013
C26	C	0.202041	0.074344	-0.252006
C27	C	0.231739	0.074707	-0.125922
C28	C	0.291122	0.075437	-0.125933
N29	N	0.320824	0.075794	0.000144
C30	C	0.291127	0.075437	0.126224
C31	C	-0.071203	0.071068	-0.125902
C32	C	-0.130601	0.070359	-0.125899
C33	C	-0.130596	0.070360	0.126268
C34	C	-0.071197	0.071073	0.126264
C35	C	-0.041501	0.071425	0.000175
C36	C	0.415861	0.076946	0.126202
C37	C	0.475261	0.077667	0.126185
C38	C	0.475252	0.077663	-0.125982
C39	C	0.415856	0.076946	-0.125965
C40	C	0.386163	0.076585	0.000138
O41	O	0.321885	0.075824	-0.233100
O42	O	0.321854	0.075800	0.233444
C43	C	0.677094	-0.030140	0.000184
C44	C	0.676339	-0.093358	0.000196
C45	C	0.671609	-0.485369	-0.125957
C46	C	0.670891	-0.544769	-0.125965
O47	O	0.670507	-0.575486	-0.233189
N48	N	0.670529	-0.574479	0.000110
C49	C	0.670878	-0.544786	0.126202
O50	O	0.670504	-0.575511	0.233438
C51	C	0.671592	-0.485387	0.126208
C52	C	0.671960	-0.455681	0.000125
C53	C	0.671976	-0.455663	-0.252030
C54	C	0.672694	-0.396268	-0.252021
C55	C	0.673045	-0.366579	-0.125940
C56	C	0.672678	-0.396286	0.000134
C57	C	0.671937	-0.455694	0.252298
C58	C	0.672650	-0.396291	0.252294
C59	C	0.673018	-0.366585	0.126211
C60	C	0.673747	-0.307202	0.126224
N61	N	0.674109	-0.277492	0.000149
C62	C	0.673758	-0.307181	-0.125933
C63	C	0.669380	-0.669527	0.126178
C64	C	0.668671	-0.728925	0.126173
C65	C	0.668683	-0.728904	-0.125994
C66	C	0.669396	-0.669505	-0.125988
C67	C	0.669742	-0.639817	0.000103
C68	C	0.675267	-0.182447	-0.125905
C69	C	0.675988	-0.123047	-0.125885
C70	C	0.675973	-0.123073	0.126281
C71	C	0.675255	-0.182468	0.126262
C72	C	0.674901	-0.212153	0.000158
O73	O	0.674130	-0.276447	0.233393
O74	O	0.674125	-0.276447	-0.233151
C75	C	0.776479	0.069245	0.000175
C76	C	0.839698	0.069999	0.000182
C77	C	0.667562	0.178163	0.000112
C78	C	0.668317	0.241381	0.000090
N79	N	0.672313	0.074014	0.360492
N80	N	0.672347	0.074004	-0.360193
C81	C	0.625126	0.120909	0.580834
C82	C	0.625226	0.121081	0.419666
C83	C	0.731665	0.086647	0.418953
C84	C	0.731407	0.086978	0.580170
C85	C	0.660744	0.014326	0.580421
C86	C	0.659371	0.014734	0.419194
H87	H	-0.047028	0.071360	-0.228585
C88	C	0.723429	-0.255915	-0.272238
C89	C	0.674878	-0.215067	-0.264525
H90	H	0.723187	-0.276053	-0.357814
H91	H	0.756920	-0.237285	-0.266972
H92	H	0.723102	-0.282115	-0.197167
H93	H	0.675207	-0.188864	-0.339591
H94	H	0.641379	-0.233698	-0.269805
H95	H	0.632595	0.165376	0.381073
C96	C	0.643647	0.216155	0.523145
C97	C	0.634933	0.180372	0.635470
H98	H	0.649699	0.252865	0.556878
H99	H	0.676250	0.200112	0.471849
H100	H	0.610898	0.219762	0.464541
H101	H	0.667684	0.176762	0.694069
H102	H	0.602327	0.196419	0.686788
C103	C	0.355773	0.027174	0.272564
C104	C	0.383229	0.076553	0.264816
H105	H	0.335630	0.026933	0.358142
H106	H	0.329580	0.026860	0.197501
H107	H	0.383491	-0.005759	0.267326
H108	H	0.355510	0.109486	0.270044
H109	H	0.409424	0.076872	0.339900
C110	C	0.668730	-0.722965	0.375425
C111	C	0.668271	-0.761575	0.264768
H112	H	0.668477	-0.743120	0.460989
H113	H	0.702225	-0.704341	0.370189
H114	H	0.635792	-0.695254	0.370154
H115	H	0.701212	-0.789284	0.270033
H116	H	0.634773	-0.780208	0.270007
C117	C	0.689761	-0.086534	0.419540
C118	C	0.702813	-0.034560	0.364829
H119	H	0.716582	-0.116965	0.385969
H120	H	0.691591	-0.085331	0.518151
H121	H	0.652261	-0.092558	0.391583
H122	H	0.740313	-0.028534	0.392795
H123	H	0.700989	-0.035763	0.266197
C124	C	0.753737	0.180283	0.516080
C125	C	0.745275	0.145720	0.630907
H126	H	0.762294	0.216549	0.547401
H127	H	0.784706	0.162470	0.461885
H128	H	0.719946	0.185277	0.461091
H129	H	0.779067	0.140722	0.685891
H130	H	0.714304	0.163537	0.685125
H131	H	0.695184	-0.020575	0.618558
H132	H	0.581097	0.113605	0.380142
C133	C	0.553223	0.057033	0.589613
C134	C	0.565364	0.110993	0.633228
H135	H	0.516330	0.050909	0.621977
H136	H	0.553987	0.055306	0.490939
H137	H	0.581116	0.028288	0.626368
H138	H	0.537474	0.139738	0.596465
H139	H	0.564596	0.112725	0.731923
H140	H	0.767624	0.054144	0.619179
C141	C	0.262135	0.124131	0.398614
C142	C	0.234673	0.074756	0.390905
H143	H	0.282281	0.124369	0.484186
H144	H	0.288325	0.124444	0.323543
H145	H	0.234419	0.157067	0.393364
H146	H	0.262390	0.041821	0.396145
H147	H	0.208480	0.074438	0.465997
H148	H	0.674961	-0.206657	0.228929
H149	H	-0.154786	0.070069	0.228930
H150	H	0.499438	0.077965	0.228862
H151	H	0.767625	0.053380	0.380621
C152	C	-0.124624	0.070430	-0.375151
C153	C	-0.163241	0.069966	-0.264495
H154	H	-0.144774	0.070181	-0.460716
H155	H	-0.106001	0.103925	-0.369915
H156	H	-0.096914	0.037491	-0.369878
H157	H	-0.190950	0.102907	-0.269763
H158	H	-0.181875	0.036468	-0.269734
C159	C	0.600356	-0.000100	0.222081
C160	C	0.600434	0.001779	0.367620
H161	H	0.563971	-0.008100	0.190239
H162	H	0.607941	0.035807	0.186248
H163	H	0.629099	-0.029291	0.191055
H164	H	0.571694	0.030972	0.398645
H165	H	0.592843	-0.034133	0.403467
C166	C	0.622715	-0.467262	0.467184
C167	C	0.671520	-0.488327	0.390908
H168	H	0.622454	-0.487407	0.552761
H169	H	0.623199	-0.427640	0.485186
H170	H	0.589393	-0.472462	0.415340
H171	H	0.704842	-0.483123	0.442748
H172	H	0.671041	-0.527958	0.372910
H173	H	0.672992	-0.372086	-0.354692
H174	H	0.668395	-0.753087	-0.228657
C175	C	0.669335	-0.675464	-0.375239
C176	C	0.669793	-0.636854	-0.264581
H177	H	0.669576	-0.655307	-0.460802
H178	H	0.702272	-0.703168	-0.369982
H179	H	0.635839	-0.694096	-0.369988
H180	H	0.703292	-0.618226	-0.269826
H181	H	0.636852	-0.609141	-0.269840
H182	H	0.618427	0.002091	0.621151
H183	H	0.118464	0.073357	0.354991
H184	H	-0.047021	0.071369	0.228933
H185	H	0.742193	0.129663	0.378550
C186	C	0.624474	-0.322812	0.398578
C187	C	0.673029	-0.363656	0.390897
H188	H	0.624708	-0.302667	0.484147
H189	H	0.624801	-0.296621	0.323503
H190	H	0.590982	-0.341450	0.393314
H191	H	0.706521	-0.345018	0.396150
H192	H	0.672707	-0.389850	0.465992
C193	C	0.293092	0.075437	-0.364005
C194	C	0.234683	0.074732	-0.390611
H195	H	0.313242	0.075673	-0.449574
H196	H	0.298283	0.108770	-0.312231
H197	H	0.307364	0.042337	-0.312185
H198	H	0.220410	0.107834	-0.442423
H199	H	0.229488	0.041395	-0.442407
C200	C	0.621212	-0.596054	0.272497
C201	C	0.669768	-0.636897	0.264789
H202	H	0.621451	-0.575915	0.358073
H203	H	0.621534	-0.569859	0.197431
H204	H	0.587721	-0.614692	0.267238
H205	H	0.703260	-0.618258	0.270038
H206	H	0.669451	-0.663096	0.339876
H207	H	0.391674	0.076660	-0.228634
C208	C	0.117679	0.122357	-0.466996
C209	C	0.110009	0.073226	-0.390616
H210	H	0.097539	0.122102	-0.552573
H211	H	0.103393	0.155454	-0.415228
H212	H	0.157309	0.122830	-0.485005
H213	H	0.070379	0.072755	-0.372597
H214	H	0.124292	0.040120	-0.442395
H215	H	0.676261	-0.098890	0.228933
H216	H	0.499441	0.077956	-0.228633
H217	H	0.676289	-0.098863	-0.228562
H218	H	0.671688	-0.479829	-0.354707
