data_functionalizedCrystal
_audit_creation_method	'MofGen! by Chris Wilmer'
_symmetry_space_group_name_H-M	'P1'
_symmetry_Int_Tables_number	1
_symmetry_cell_setting	triclinic
loop_
_symmetry_equiv_pos_as_xyz
  x,y,z
_cell_length_a	15.698487
_cell_length_b	21.606444
_cell_length_c	21.606444
_cell_angle_alpha	60.000398
_cell_angle_beta	89.998774
_cell_angle_gamma	59.999624
loop_
_atom_site_label
_atom_site_type_symbol
_atom_site_fract_x
_atom_site_fract_y
_atom_site_fract_z
Zr1	Zr	0.820601	0.677464	-0.081209
O2	O	0.684585	0.806582	-0.180029
O3	O	0.862299	0.548345	-0.050918
O4	O	0.862298	0.677467	-0.180036
O5	O	0.684585	0.677458	0.050941
O6	O	1.002479	0.677469	-0.180037
O7	O	0.684586	0.677461	-0.050912
O8	O	1.002480	0.446495	0.050930
O9	O	0.684584	0.908433	-0.180026
O10	O	0.984696	0.601456	-0.037997
O11	O	0.880080	0.601452	0.038016
O12	O	0.880079	0.753476	-0.114003
O13	O	0.775463	0.753472	-0.037990
Zr14	Zr	1.044173	0.677464	0.081232
Zr15	Zr	1.044174	0.677468	-0.081212
Zr16	Zr	0.820600	0.677460	0.081235
Zr17	Zr	0.820599	0.839904	-0.081204
Zr18	Zr	1.044175	0.515024	0.081227
O19	O	1.002475	0.806582	0.050942
O20	O	1.002477	0.806588	-0.180033
O21	O	0.684584	0.806577	0.050945
O22	O	1.180188	0.548345	0.180052
O23	O	1.180190	0.548351	-0.050922
O24	O	0.862297	0.548340	0.180056
O25	O	1.180188	0.677469	-0.050918
O26	O	1.002476	0.677461	0.180059
O27	O	0.862295	0.677458	0.180060
O28	O	1.180187	0.677467	0.050935
O29	O	0.862294	0.908436	-0.180028
O30	O	1.002479	0.446492	0.180051
O31	O	1.180190	0.446495	0.180049
O32	O	1.180191	0.446498	0.050928
O33	O	0.684583	0.908430	-0.050905
O34	O	0.862293	0.908433	-0.050907
O35	O	0.984695	0.601452	0.114026
O36	O	1.089311	0.601456	0.038013
O37	O	0.984694	0.753476	-0.037992
O38	O	0.880078	0.753472	0.038021
C39	C	0.932390	0.474276	0.000005
C40	C	0.932391	0.405316	0.000003
C41	C	0.986997	0.372920	-0.039676
C42	C	0.987001	0.308120	-0.039671
C43	C	0.932391	0.275721	0.000009
C44	C	0.877784	0.308120	0.039693
C45	C	0.877787	0.372914	0.039692
C46	C	0.877771	0.046810	0.039699
C47	C	0.877770	-0.017987	0.039696
C48	C	0.986985	-0.017984	-0.039664
C49	C	0.986989	0.046811	-0.039665
C50	C	0.932386	0.079200	0.000022
C51	C	0.932384	0.149462	0.000017
C52	C	0.932387	0.205465	0.000010
C53	C	0.652732	0.677459	0.000015
C54	C	0.557819	0.677457	0.000016
C55	C	0.384034	0.677473	0.000009
C56	C	0.480738	0.677468	0.000011
C57	C	1.212042	0.677469	0.000008
C58	C	1.306955	0.677470	0.000007
C59	C	0.932389	0.677469	-0.203181
C60	C	0.932389	0.677470	-0.272143
C61	C	0.932384	0.880652	0.000018
C62	C	0.932383	0.949612	0.000020
C63	C	1.009616	0.677473	-0.304542
C64	C	1.009619	0.677467	-0.369335
C65	C	0.932390	0.677464	-0.401731
C66	C	0.855160	0.677459	-0.369326
C67	C	0.855162	0.677459	-0.304531
C68	C	0.855151	0.677458	-0.630636
C69	C	0.855153	0.677461	-0.695437
C70	C	1.009608	0.677466	-0.695440
C71	C	1.009610	0.677466	-0.630645
C72	C	0.932383	0.677456	-0.598244
C73	C	0.932382	0.677461	-0.527987
C74	C	0.932387	0.677465	-0.471990
C75	C	0.932385	0.677459	0.203204
C76	C	0.932385	0.677457	0.272166
C77	C	1.212045	0.474281	0.000002
C78	C	1.306959	0.405322	-0.000001
C79	C	0.932388	0.474271	0.203198
C80	C	0.932389	0.405309	0.272157
C81	C	1.212043	0.474276	0.203195
C82	C	1.306956	0.405316	0.272153
C83	C	0.652730	0.880652	-0.203171
C84	C	0.557817	0.949612	-0.272130
C85	C	0.652729	0.880647	0.000021
C86	C	0.557815	0.949605	0.000025
C87	C	0.932386	0.880657	-0.203175
C88	C	0.932385	0.949618	-0.272134
C89	C	1.296923	0.372939	-0.039687
C90	C	1.386096	0.308154	-0.039705
C91	C	1.485303	0.275749	-0.000033
C92	C	1.495337	0.308139	0.039653
C93	C	1.406165	0.372927	0.039667
C94	C	0.986997	0.372924	0.344225
C95	C	0.986993	0.308136	0.409026
C96	C	0.932387	0.275730	0.401757
C97	C	0.877772	0.308122	0.329682
C98	C	0.877770	0.372913	0.264883
C99	C	1.406146	0.372933	0.264859
C100	C	1.495336	0.308147	0.329646
C101	C	1.485333	0.275740	0.401727
C102	C	1.386132	0.308129	0.409020
C103	C	1.296945	0.372918	0.344233
C104	C	0.458627	0.982002	-0.264835
C105	C	0.369438	1.046809	-0.329623
C106	C	0.379441	1.079219	-0.401704
C107	C	0.478642	1.046826	-0.408997
C108	C	0.567829	0.982025	-0.344210
C109	C	0.567851	0.981996	0.039703
C110	C	0.478678	1.046799	0.039703
C111	C	0.379471	1.079205	0.000029
C112	C	0.369437	1.046812	-0.039654
C113	C	0.458609	0.982015	-0.039658
C114	C	0.987002	0.982004	-0.264841
C115	C	0.987022	1.046792	-0.329630
C116	C	0.932418	1.079198	-0.401710
C117	C	0.877800	1.046807	-0.409002
C118	C	0.877787	0.982015	-0.344214
H119	H	1.031466	0.281743	-0.071980
H120	H	0.486868	1.073162	0.072021
O121	O	1.092917	0.677470	-0.404277
H122	H	1.079953	0.677457	-0.454769
H123	H	0.833318	0.399292	0.072001
H124	H	1.031450	-0.044365	-0.071976
H125	H	0.450423	0.955645	-0.071967
H126	H	1.377906	0.281790	-0.072022
H127	H	0.833299	-0.044365	0.072010
O128	O	1.602319	0.273250	0.321765
H129	H	1.662665	0.222772	0.378921
O130	O	0.771835	0.677475	-0.730384
H131	H	0.775629	0.618140	-0.688291
O132	O	0.674843	0.947067	0.082486
H133	H	0.683916	0.917561	0.143467
O134	O	0.283294	1.149069	0.000061
H135	H	0.306950	1.166129	0.034334
H136	H	0.288651	1.073208	-0.071955
O137	O	1.092908	0.677470	-0.730389
H138	H	1.089093	0.736813	-0.747629
H139	H	0.792268	0.677452	-0.604261
H140	H	0.648591	0.955654	-0.350159
O141	O	0.818869	0.273187	0.082483
H142	H	0.850427	0.243660	0.143466
H143	H	1.414311	0.399310	0.206172
H144	H	1.072501	0.677481	-0.278172
O145	O	0.818884	0.273159	0.321854
H146	H	0.780900	0.306562	0.260855
H147	H	1.414351	0.399286	0.071987
H148	H	1.576123	0.281746	0.071952
O149	O	1.045935	1.081721	-0.321756
H150	H	1.014359	1.111248	-0.290300
O151	O	1.045913	0.947048	-0.187101
H152	H	1.083903	0.980452	-0.192927
O153	O	0.771855	0.677461	-0.404265
H154	H	0.784818	0.677473	-0.454770
H155	H	0.833343	1.073202	-0.467698
O156	O	0.818868	0.081751	0.082493
H157	H	0.780885	0.048344	0.110075
O158	O	0.932423	1.149093	-0.471585
H159	H	1.013745	1.124226	-0.471535
O160	O	1.045896	0.407868	0.352081
H161	H	1.106268	0.395423	0.324470
H162	H	1.031471	0.281771	0.467706
H163	H	0.833307	0.955654	-0.350162
O164	O	0.932412	0.205833	0.471651
H165	H	0.979576	0.188753	0.522983
O166	O	1.581531	0.205849	0.471603
H167	H	1.652181	0.188773	0.454414
H168	H	0.833305	0.399272	0.206204
O169	O	0.771864	0.677462	-0.269584
H170	H	0.718154	0.677469	-0.303000
H171	H	0.486774	1.073223	-0.467693
H172	H	1.216152	0.399322	-0.072001
H173	H	1.072494	0.677473	-0.604273
H174	H	0.288674	1.073172	-0.323670
H175	H	1.378003	0.281733	0.467717
H176	H	1.216183	0.399276	0.350183
H177	H	1.557904	0.222994	-0.000050
H178	H	0.450463	0.955617	-0.206149
H179	H	0.306811	1.131984	-0.454452
O180	O	1.045883	0.081760	-0.082466
H181	H	1.129817	0.027371	-0.059535
O182	O	1.045898	0.407864	-0.082474
H183	H	1.083878	0.374441	-0.110058
