data_functionalizedCrystal
_audit_creation_method	'MofGen! by Chris Wilmer'
_symmetry_space_group_name_H-M	'P1'
_symmetry_Int_Tables_number	1
_symmetry_cell_setting	triclinic
loop_
_symmetry_equiv_pos_as_xyz
  x,y,z
_cell_length_a	10.489716
_cell_length_b	23.532357
_cell_length_c	9.565339
_cell_angle_alpha	90.004545
_cell_angle_beta	90.003468
_cell_angle_gamma	83.678714
loop_
_atom_site_label
_atom_site_type_symbol
_atom_site_fract_x
_atom_site_fract_y
_atom_site_fract_z
O1	O	1.691371	0.080275	0.116268
O2	O	1.319917	0.087831	0.116275
O3	O	1.516878	0.001193	0.116242
O4	O	1.494409	0.166913	0.116300
O5	O	1.516861	0.001200	-0.116278
O6	O	1.319900	0.087838	-0.116245
O7	O	1.691354	0.080281	-0.116252
Zn8	Zn	1.505624	0.084061	-0.153166
Zn9	Zn	1.505646	0.084052	0.153189
O10	O	1.494393	0.166919	-0.116220
C11	C	1.272395	0.087267	0.000015
C12	C	1.130822	0.085568	0.000017
C13	C	1.031360	0.138697	0.000039
C14	C	0.954950	0.110626	-0.114622
C15	C	0.954974	0.110607	0.114624
C16	C	1.056277	0.057519	-0.114739
C17	C	1.056305	0.057508	0.114611
C18	C	0.979946	0.029397	-0.000078
C19	C	1.516308	-0.020024	-0.000022
C20	C	1.514618	-0.083254	-0.000035
C21	C	1.504019	-0.475338	0.126787
C22	C	1.502413	-0.534748	0.126795
O23	O	1.501547	-0.565474	0.234588
N24	N	1.501607	-0.564461	0.000050
C25	C	1.502395	-0.534760	-0.126711
O26	O	1.501561	-0.565488	-0.234517
C27	C	1.503992	-0.475351	-0.126717
C28	C	1.504811	-0.445642	0.000036
C29	C	1.504836	-0.445629	0.253530
C30	C	1.506445	-0.386223	0.253522
C31	C	1.507236	-0.356527	0.126770
C32	C	1.506419	-0.386236	0.000027
C33	C	1.504771	-0.445650	-0.253477
C34	C	1.506367	-0.386237	-0.253473
C35	C	1.507185	-0.356528	-0.126720
C36	C	1.508819	-0.297133	-0.126733
N37	N	1.509625	-0.267421	0.000012
C38	C	1.508833	-0.297117	0.126764
C39	C	1.499039	-0.659524	-0.126688
C40	C	1.497451	-0.718933	-0.126682
C41	C	1.497467	-0.718917	0.126824
C42	C	1.499064	-0.659507	0.126818
C43	C	1.499845	-0.629811	0.000057
C44	C	1.512213	-0.172361	0.126736
C45	C	1.513827	-0.112950	0.126716
C46	C	1.513804	-0.112971	-0.126789
C47	C	1.512197	-0.172377	-0.126771
C48	C	1.511397	-0.202070	0.000004
O49	O	1.509681	-0.266370	-0.234471
O50	O	1.509651	-0.266381	0.234551
C51	C	1.738875	0.080846	0.000010
C52	C	1.880449	0.082544	0.000018
C53	C	1.494963	0.188136	0.000048
C54	C	1.496653	0.251366	0.000070
N55	N	1.505619	0.084066	-0.362246
C56	C	1.415267	0.124446	-0.546603
C57	C	1.390140	0.073041	-0.453395
C58	C	1.530688	0.135466	-0.453385
C59	C	1.480479	0.032611	-0.546575
C60	C	1.621077	0.095070	-0.546573
C61	C	1.595999	0.043628	-0.453407
N62	N	1.505662	0.084042	0.362268
H63	H	0.910742	0.133043	0.211547
H64	H	1.504187	-0.469802	0.356752
H65	H	1.338790	0.158564	-0.587524
O66	O	1.514707	-0.080907	0.263435
H67	H	1.428503	-0.049108	0.269492
O68	O	0.949621	-0.031859	-0.000179
H69	H	0.990575	-0.053772	-0.095441
O70	O	1.114945	0.027818	0.242991
H71	H	1.165297	0.058417	0.304916
O72	O	1.062016	0.199907	-0.000085
H73	H	0.971390	0.229101	-0.001139
H74	H	1.511555	-0.196530	0.229968
O75	O	1.452266	-0.025000	-0.600533
H76	H	1.363849	-0.019663	-0.665124
H77	H	1.292520	0.063722	-0.412456
H78	H	1.100340	0.035107	-0.211771
H79	H	0.910706	0.133057	-0.211541
O80	O	1.507215	-0.354211	-0.390202
H81	H	1.508460	-0.307908	-0.368926
O82	O	1.507294	-0.354181	0.390234
H83	H	1.506454	-0.384819	0.478361
H84	H	1.499728	-0.635322	0.230032
O85	O	1.496594	-0.750950	0.263543
H86	H	1.495328	-0.797251	0.242242
H87	H	1.672430	0.009433	-0.412745
H88	H	1.718667	0.104408	-0.587537
H89	H	1.496804	-0.743118	-0.229898
O90	O	1.511318	-0.204426	-0.263477
H91	H	1.512133	-0.173793	-0.351615
O92	O	1.499915	-0.627496	-0.263415
H93	H	1.499103	-0.658144	-0.351537
O94	O	1.558772	0.193056	-0.399166
H95	H	1.483624	0.226506	-0.436512
H96	H	1.504106	-0.469829	-0.356694
O97	O	1.514656	-0.080936	-0.263498
H98	H	1.515897	-0.034635	-0.242197
