data_functionalizedCrystal
_audit_creation_method	'MofGen! by Chris Wilmer'
_symmetry_space_group_name_H-M	'P1'
_symmetry_Int_Tables_number	1
_symmetry_cell_setting	triclinic
loop_
_symmetry_equiv_pos_as_xyz
  x,y,z
_cell_length_a	13.897449
_cell_length_b	18.101395
_cell_length_c	13.897441
_cell_angle_alpha	90.033542
_cell_angle_beta	90.020733
_cell_angle_gamma	90.033231
loop_
_atom_site_label
_atom_site_type_symbol
_atom_site_fract_x
_atom_site_fract_y
_atom_site_fract_z
Zn1	Zn	1.474607	-0.294781	0.545361
Zn2	Zn	1.807940	0.038553	0.878695
Zn3	Zn	2.141274	0.371886	1.212028
Zn4	Zn	1.474461	-0.418636	0.384055
Zn5	Zn	1.807794	-0.085303	0.717388
Zn6	Zn	2.141128	0.248030	1.050721
Zn7	Zn	1.313296	-0.294816	0.384080
Zn8	Zn	1.646630	0.038517	0.717413
Zn9	Zn	1.979963	0.371851	1.050746
Zn10	Zn	1.313238	-0.418588	0.545307
Zn11	Zn	1.646571	-0.085254	0.878640
Zn12	Zn	1.979904	0.248079	1.211974
O13	O	1.393900	-0.356705	0.464701
O14	O	1.727234	-0.023372	0.798034
O15	O	2.060567	0.309961	1.131367
O16	O	1.609569	-0.311216	0.523976
O17	O	1.942903	0.022117	0.857309
O18	O	2.276236	0.355451	1.190643
O19	O	1.453045	-0.402246	0.249076
O20	O	1.786379	-0.068913	0.582409
O21	O	2.119712	0.264420	0.915743
O22	O	1.334780	-0.191178	0.405507
O23	O	1.668113	0.142155	0.738841
O24	O	2.001447	0.475488	1.072174
O25	O	1.609462	-0.402212	0.405464
O26	O	1.942795	-0.068879	0.738798
O27	O	2.276129	0.264454	1.072131
O28	O	1.453294	-0.191152	0.524000
O29	O	1.786628	0.142181	0.857334
O30	O	2.119961	0.475514	1.190667
O31	O	1.334638	-0.311276	0.249095
O32	O	1.667972	0.022057	0.582428
O33	O	2.001305	0.355391	0.915761
O34	O	1.178307	-0.311229	0.405455
O35	O	1.511640	0.022104	0.738788
O36	O	1.844973	0.355438	1.072121
O37	O	1.334680	-0.402129	0.680296
O38	O	1.668014	-0.068796	1.013629
O39	O	2.001347	0.264537	1.346963
O40	O	1.178264	-0.402164	0.523908
O41	O	1.511597	-0.068830	0.857241
O42	O	1.844931	0.264503	1.190574
O43	O	1.453238	-0.311169	0.680336
O44	O	1.786571	0.022164	1.013669
O45	O	2.119904	0.355498	1.347003
O46	O	1.452989	-0.522263	0.405412
O47	O	1.786322	-0.188930	0.738745
O48	O	2.119655	0.144404	1.072078
O49	O	1.334539	-0.522227	0.523883
O50	O	1.667872	-0.188894	0.857217
O51	O	2.001205	0.144440	1.190550
C52	C	1.143286	-0.356695	0.464679
C53	C	1.476619	-0.023362	0.798012
C54	C	1.809953	0.309971	1.131345
C55	C	1.036072	-0.356709	0.464692
C56	C	1.369406	-0.023376	0.798026
C57	C	1.702739	0.309958	1.131359
C58	C	1.393768	-0.549116	0.464660
C59	C	1.727101	-0.215782	0.797993
C60	C	2.060434	0.117551	1.131327
C61	C	1.393799	-0.631430	0.464675
C62	C	1.727132	-0.298097	0.798008
C63	C	2.060466	0.035237	1.131341
C64	C	0.839777	-0.356712	0.464717
C65	C	1.173110	-0.023378	0.798051
C66	C	1.506444	0.309955	1.131384
C67	C	0.949010	-0.356708	0.464701
C68	C	1.282343	-0.023374	0.798034
C69	C	1.615676	0.309959	1.131367
C70	C	1.393910	-0.782138	0.464713
C71	C	1.727243	-0.448805	0.798046
C72	C	2.060577	-0.115472	1.131380
C73	C	1.319346	-0.813501	0.539195
C74	C	1.652679	-0.480167	0.872528
C75	C	1.986013	-0.146834	1.205861
C76	C	1.319628	-0.899119	0.539509
C77	C	1.652961	-0.565785	0.872842
C78	C	1.986295	-0.232452	1.206176
C79	C	1.394017	-0.930521	0.464751
C80	C	1.727351	-0.597187	0.798084
C81	C	2.060684	-0.263854	1.131418
C82	C	1.495711	-0.899335	0.492096
C83	C	1.829045	-0.566001	0.825429
C84	C	2.162378	-0.232668	1.158762
C85	C	1.495218	-0.813690	0.492615
C86	C	1.828551	-0.480356	0.825948
C87	C	2.161884	-0.147023	1.159281
C88	C	1.367692	-0.813781	0.362708
C89	C	1.701025	-0.480448	0.696041
C90	C	2.034359	-0.147115	1.029374
C91	C	1.365511	-0.899433	0.363273
C92	C	1.698844	-0.566100	0.696606
C93	C	2.032178	-0.232767	1.029940
C94	C	1.394084	-1.014380	0.464771
C95	C	1.727418	-0.681047	0.798104
C96	C	2.060751	-0.347714	1.131437
C97	C	1.393850	-0.698279	0.464696
C98	C	1.727183	-0.364946	0.798029
C99	C	2.060516	-0.031612	1.131362
C100	C	1.645493	-0.356716	0.464723
C101	C	1.978827	-0.023382	0.798057
C102	C	2.312160	0.309951	1.131390
C103	C	1.752707	-0.356720	0.464733
C104	C	2.086041	-0.023387	0.798066
C105	C	2.419374	0.309947	1.131400
C106	C	1.393969	-0.356640	0.716294
C107	C	1.727302	-0.023306	1.049627
C108	C	2.060636	0.310027	1.382961
C109	C	1.393998	-0.356612	0.823508
C110	C	1.727331	-0.023279	1.156841
C111	C	2.060665	0.310055	1.490175
C112	C	1.394060	-0.163543	0.464763
C113	C	1.727393	0.169790	0.798096
C114	C	2.060727	0.503123	1.131429
C115	C	1.394128	-0.081229	0.464789
C116	C	1.727461	0.252104	0.798123
C117	C	2.060795	0.585438	1.131456
C118	C	1.393888	-0.356717	0.214086
C119	C	1.727221	-0.023384	0.547420
C120	C	2.060554	0.309950	0.880753
C121	C	1.394046	-0.356536	0.106873
C122	C	1.727379	-0.023203	0.440206
C123	C	2.060712	0.310130	0.773540
C124	C	1.394024	-0.356562	1.019803
C125	C	1.727358	-0.023228	1.353136
C126	C	2.060691	0.310105	1.686470
C127	C	1.394007	-0.356592	0.910571
C128	C	1.727340	-0.023258	1.243904
C129	C	2.060673	0.310075	1.577237
H130	H	1.244229	-0.920209	0.522417
H131	H	1.577562	-0.586876	0.855751
H132	H	1.910895	-0.253543	1.189084
H133	H	1.552684	-0.792937	0.440712
H134	H	1.886017	-0.459604	0.774045
H135	H	2.219350	-0.126270	1.107378
H136	H	1.290671	-0.919827	0.342646
H137	H	1.624004	-0.586494	0.675980
H138	H	1.957338	-0.253161	1.009313
H139	H	1.421993	-0.793491	0.307215
H140	H	1.755327	-0.460157	0.640549
H141	H	2.088660	-0.126824	0.973882
H142	H	1.336511	-0.791926	0.614348
H143	H	1.669845	-0.458593	0.947681
H144	H	2.003178	-0.125260	1.281014
Br145	Br	1.590890	-0.933207	0.404463
Br146	Br	1.924223	-0.599874	0.737797
Br147	Br	2.257556	-0.266541	1.071130
Br148	Br	1.533396	-0.934985	0.615017
Br149	Br	1.866729	-0.601652	0.948351
Br150	Br	2.200062	-0.268318	1.281684
Br151	Br	1.246144	-0.777906	0.321128
Br152	Br	1.579478	-0.444573	0.654462
Br153	Br	1.912811	-0.111240	0.987795
Br154	Br	1.449446	-0.935061	0.265874
Br155	Br	1.782780	-0.601728	0.599207
Br156	Br	2.116113	-0.268395	0.932540
H157	H	1.243678	-0.792983	0.522295
H158	H	1.577012	-0.459649	0.855629
H159	H	1.910345	-0.126316	1.188962
Br160	Br	1.348587	-0.933183	0.665514
Br161	Br	1.681920	-0.599850	0.998848
Br162	Br	2.015253	-0.266517	1.332181
H163	H	1.517409	-0.793655	0.567173
H164	H	1.850742	-0.460322	0.900506
H165	H	2.184076	-0.126988	1.233840
