data_functionalizedCrystal
_audit_creation_method	'MofGen! by Chris Wilmer'
_symmetry_space_group_name_H-M	'P1'
_symmetry_Int_Tables_number	1
_symmetry_cell_setting	triclinic
loop_
_symmetry_equiv_pos_as_xyz
  x,y,z
_cell_length_a	10.967926
_cell_length_b	12.376457
_cell_length_c	11.026607
_cell_angle_alpha	76.198578
_cell_angle_beta	96.380754
_cell_angle_gamma	89.566802
loop_
_atom_site_label
_atom_site_type_symbol
_atom_site_fract_x
_atom_site_fract_y
_atom_site_fract_z
O1	O	1.648667	-0.227173	0.226339
O2	O	1.302490	-0.159732	0.226089
O3	O	1.446887	-0.187867	0.047940
O4	O	1.504270	-0.199038	0.404487
O5	O	1.410791	-0.368846	0.092414
O6	O	1.266394	-0.340711	0.270563
O7	O	1.612571	-0.408152	0.270813
Zn8	Zn	1.433751	-0.403166	0.277749
Zn9	Zn	1.481310	-0.164718	0.219153
O10	O	1.468174	-0.380017	0.448961
C11	C	1.239435	-0.241454	0.244983
C12	C	1.105325	-0.215327	0.235010
N13	N	1.401302	-0.565902	0.317739
C14	C	1.026836	-0.297432	0.253602
C15	C	0.888226	-0.270431	0.243294
C16	C	1.589085	-0.957475	0.086299
C17	C	1.611790	-0.843559	0.058309
C18	C	1.559169	-0.774139	0.123164
C19	C	1.483842	-0.818646	0.216014
C20	C	1.461143	-0.932575	0.244013
C21	C	1.431227	-0.749239	0.280878
C22	C	1.355899	-0.793746	0.373728
C23	C	1.333203	-0.907664	0.401722
C24	C	1.385824	-0.977084	0.336867
C25	C	1.453926	-0.635310	0.252879
C26	C	1.325983	-0.610411	0.410593
C27	C	1.303279	-0.724327	0.438583
C28	C	1.675626	-0.326428	0.251917
C29	C	1.809737	-0.352547	0.261889
C30	C	1.418253	-0.276293	0.024368
C31	C	1.386697	-0.270141	-0.112131
N32	N	1.513766	-0.001984	0.179153
C33	C	1.473831	-0.287115	-0.181012
C34	C	1.441219	-0.280757	-0.322091
C35	C	1.496808	-0.291589	0.472533
C36	C	1.528366	-0.297733	0.609030
H37	H	1.062254	-0.387714	0.277144
H38	H	1.627132	-0.316889	-0.345525
C39	C	1.231972	-0.336636	-0.324569
C40	C	1.307907	-0.254781	-0.383455
H41	H	1.149673	-0.320593	-0.362451
H42	H	1.258319	-0.407319	-0.333509
H43	H	1.236413	-0.337493	-0.237814
H44	H	1.303474	-0.253929	-0.470210
H45	H	1.281553	-0.184079	-0.374527
C46	C	1.607257	-0.997467	-0.113687
C47	C	1.646909	-1.033782	0.015015
H48	H	1.642962	-1.044576	-0.157698
H49	H	1.520370	-0.999948	-0.127008
H50	H	1.631568	-0.923252	-0.143643
H51	H	1.622590	-1.107995	0.044972
H52	H	1.733815	-1.031313	0.028343
H53	H	1.271878	-0.943904	0.477335
H54	H	1.287955	-0.250898	-0.157605
C55	C	1.640727	-0.620492	0.200184
C56	C	1.584125	-0.648920	0.092394
H57	H	1.656140	-0.543185	0.181177
H58	H	1.588333	-0.637056	0.264747
H59	H	1.716107	-0.661945	0.227715
H60	H	1.508740	-0.607473	0.064868
H61	H	1.636521	-0.632345	0.027809
H62	H	1.572573	-0.306358	-0.135538
C63	C	0.712372	-0.145386	0.207451
C64	C	0.840432	-0.148543	0.211507
H65	H	0.682869	-0.070139	0.187836
H66	H	0.677556	-0.180730	0.144820
H67	H	0.689846	-0.183136	0.286960
H68	H	0.862958	-0.110800	0.131995
H69	H	0.875261	-0.113183	0.274142
H70	H	0.845148	-0.442836	0.285435
H71	H	1.069906	-0.125045	0.211458
H72	H	1.515258	-0.599083	0.177281
H73	H	1.673122	-0.807325	-0.017287
C74	C	1.422968	-1.153833	0.291104
C75	C	1.360875	-1.102309	0.367643
H76	H	1.407573	-1.231144	0.310111
H77	H	1.394826	-1.121590	0.205334
H78	H	1.508620	-1.143723	0.305980
H79	H	1.275222	-1.112412	0.352761
H80	H	1.389011	-1.134563	0.453433
H81	H	1.241946	-0.760579	0.514184
C82	C	1.361152	-0.484173	0.544790
C83	C	1.268137	-0.534115	0.481891
H84	H	1.325444	-0.437063	0.588798
H85	H	1.411837	-0.540204	0.602753
H86	H	1.409246	-0.441364	0.485467
H87	H	1.220048	-0.576931	0.541215
H88	H	1.217432	-0.478076	0.423922
