data_functionalizedCrystal
_audit_creation_method	'MofGen! by Chris Wilmer'
_symmetry_space_group_name_H-M	'P1'
_symmetry_Int_Tables_number	1
_symmetry_cell_setting	triclinic
loop_
_symmetry_equiv_pos_as_xyz
  x,y,z
_cell_length_a	19.077409
_cell_length_b	19.076808
_cell_length_c	17.077396
_cell_angle_alpha	92.329364
_cell_angle_beta	87.727737
_cell_angle_gamma	94.713771
loop_
_atom_site_label
_atom_site_type_symbol
_atom_site_fract_x
_atom_site_fract_y
_atom_site_fract_z
Zn1	Zn	1.066431	-0.237335	0.385580
Zn2	Zn	1.061606	-0.355239	0.249240
Zn3	Zn	0.948544	-0.242099	0.259378
Zn4	Zn	0.943776	-0.359935	0.385514
O5	O	1.005089	-0.298652	0.319928
O6	O	1.164440	-0.249016	0.363279
O7	O	1.046584	-0.340260	0.140738
O8	O	0.968197	-0.142809	0.280389
O9	O	1.160895	-0.335640	0.263111
O10	O	1.054808	-0.139309	0.373110
O11	O	0.963518	-0.257136	0.148186
O12	O	0.849263	-0.261690	0.280325
O13	O	0.960070	-0.343643	0.495370
O14	O	0.845760	-0.348263	0.372997
O15	O	1.050185	-0.253569	0.495419
O16	O	1.041961	-0.454520	0.263047
O17	O	0.955391	-0.457970	0.363166
C18	C	0.821933	-0.306004	0.327754
C19	C	0.743577	-0.309165	0.331120
C20	C	0.302323	-0.331788	0.355301
C21	C	0.375946	-0.328822	0.352124
C22	C	0.414562	-0.282193	0.302372
C23	C	0.379550	-0.238531	0.255790
C24	C	0.305928	-0.241501	0.258963
C25	C	0.634943	-0.268473	0.287711
C26	C	0.708570	-0.265506	0.284543
C27	C	0.704961	-0.355798	0.380876
C28	C	0.631338	-0.358760	0.384049
C29	C	0.596332	-0.315102	0.337464
N30	N	0.489817	-0.279159	0.299125
N31	N	0.521078	-0.318140	0.340707
C32	C	0.997654	-0.481825	0.312016
C33	C	0.994538	-0.560185	0.308654
C34	C	1.038134	-0.595117	0.355391
C35	C	1.035203	-0.668744	0.352234
C36	C	0.988679	-0.707438	0.302335
C37	C	0.945079	-0.672501	0.255596
C38	C	0.948006	-0.598875	0.258758
C39	C	0.975088	-0.927838	0.287702
C40	C	0.972165	-1.001469	0.284542
C41	C	1.062289	-0.997706	0.381182
C42	C	1.065216	-0.924079	0.384336
C43	C	1.021613	-0.889149	0.337600
N44	N	0.985684	-0.782697	0.299105
N45	N	1.024605	-0.813891	0.340834
C46	C	1.188961	-0.291272	0.312072
C47	C	1.267316	-0.288128	0.308724
C48	C	1.005134	-0.298598	0.524673
C49	C	1.005153	-0.298576	0.611923
C50	C	1.012572	-0.114763	0.327888
C51	C	1.015761	-0.036400	0.331280
C52	C	1.005087	-0.298653	0.115980
C53	C	1.005213	-0.298472	0.028733
C54	C	1.052077	-0.251670	0.652940
C55	C	1.052087	-0.251647	0.734921
C56	C	1.005175	-0.298532	0.775883
C57	C	0.958245	-0.345439	0.734861
C58	C	0.958233	-0.345459	0.652882
C59	C	0.958275	-0.345396	0.905732
C60	C	0.958288	-0.345377	0.987717
C61	C	1.052129	-0.251583	0.987771
C62	C	1.052117	-0.251603	0.905792
C63	C	1.005188	-0.298512	0.864775
H64	H	0.740009	-0.227525	0.244035
C65	C	0.907308	-0.396417	0.861335
C66	C	0.866247	-0.437494	0.914751
C67	C	0.819305	-0.484515	0.873881
H68	H	0.877614	-0.370784	0.831820
H69	H	0.933018	-0.426093	0.826899
H70	H	0.840539	-0.407821	0.949173
H71	H	0.895922	-0.463141	0.944268
H72	H	0.845015	-0.514191	0.839444
H73	H	0.789616	-0.458876	0.844366
H74	H	0.791444	-0.512395	0.910116
H75	H	0.920046	-0.383612	0.768219
C76	C	0.921724	-1.043605	0.230382
C77	C	0.928513	-1.115559	0.237599
C78	C	0.882071	-1.154395	0.187710
H79	H	0.874797	-1.033571	0.244313
H80	H	0.932553	-1.031182	0.177706
H81	H	0.917679	-1.127977	0.290263
H82	H	0.975430	-1.125614	0.223661
H83	H	0.892900	-1.141972	0.135035
H84	H	0.835147	-1.144356	0.201646
H85	H	0.886676	-1.203220	0.192595
H86	H	1.090321	-0.213429	0.872442
C87	C	0.413917	-0.376138	0.402836
C88	C	0.396680	-0.361580	0.481960
C89	C	0.431651	-0.405150	0.528701
H90	H	0.399953	-0.424005	0.389839
H91	H	0.463302	-0.367691	0.393875
H92	H	0.347307	-0.370033	0.490916
H93	H	0.410646	-0.313722	0.494981
H94	H	0.481035	-0.396703	0.519740
H95	H	0.417684	-0.453014	0.515697
H96	H	0.419966	-0.395274	0.582391
H97	H	1.076022	-0.563616	0.396021
H98	H	1.090339	-0.213387	1.021171
C99	C	1.082577	-0.706765	0.402837
C100	C	1.126082	-0.747217	0.354677
C101	C	1.169726	-0.782261	0.401265
H102	H	1.110774	-0.673258	0.433018
H103	H	1.054469	-0.736615	0.436921
H104	H	1.154187	-0.717370	0.320607
H105	H	1.097903	-0.780736	0.324496
H106	H	1.141618	-0.812111	0.435349
H107	H	1.197919	-0.748750	0.431444
H108	H	1.199245	-0.809717	0.368596
C109	C	0.596923	-0.221208	0.236992
C110	C	0.553057	-0.262799	0.186686
C111	C	0.518036	-0.219290	0.139922
H112	H	0.569388	-0.191652	0.269507
H113	H	0.630462	-0.193045	0.206866
H114	H	0.519522	-0.290950	0.216809
H115	H	0.580574	-0.292354	0.154153
H116	H	0.551575	-0.191126	0.109795
H117	H	0.490505	-0.189735	0.172444
H118	H	0.488274	-0.247502	0.105779
H119	H	0.410996	-0.200567	0.215277
H120	H	1.090299	-0.213453	0.768313
C121	C	0.907266	-0.396474	0.608484
C122	C	0.866201	-0.437548	0.661900
C123	C	0.819250	-0.484559	0.621030
H124	H	0.877575	-0.370834	0.578973
H125	H	0.932969	-0.426153	0.574044
H126	H	0.840501	-0.407872	0.696326
H127	H	0.895874	-0.463203	0.691413
H128	H	0.844953	-0.514238	0.586590
H129	H	0.789564	-0.458913	0.591521
H130	H	0.791387	-0.512437	0.657266
C131	C	0.268048	-0.194015	0.208362
C132	C	0.317622	-0.152529	0.164128
C133	C	0.282754	-0.108771	0.117509
H134	H	0.238221	-0.222025	0.174119
H135	H	0.240601	-0.164451	0.240994
H136	H	0.345056	-0.182089	0.131499
H137	H	0.347451	-0.124504	0.198351
H138	H	0.255308	-0.079208	0.150140
H139	H	0.252928	-0.136787	0.083271
H140	H	0.316385	-0.080614	0.087496
H141	H	0.733471	-0.391343	0.418803
C142	C	0.907420	-0.396237	1.032333
C143	C	0.917489	-0.386188	1.112904
C144	C	0.870644	-0.433029	1.154029
H145	H	0.860447	-0.387855	1.021457
H146	H	0.915798	-0.443217	1.016458
H147	H	0.909106	-0.339219	1.128773
H148	H	0.964453	-0.394576	1.123804
H149	H	0.879021	-0.480009	1.138154
H150	H	0.823673	-0.424643	1.143147
H151	H	0.877473	-0.426222	1.208700
C152	C	0.260367	-0.382298	0.409423
C153	C	0.219755	-0.344141	0.463367
C154	C	0.181105	-0.390648	0.513242
H155	H	0.230329	-0.414155	0.379345
H156	H	0.291739	-0.407865	0.436755
H157	H	0.188386	-0.318585	0.436038
H158	H	0.249775	-0.312286	0.493464
H159	H	0.212478	-0.416215	0.540575
H160	H	0.151072	-0.422503	0.483157
H161	H	0.153551	-0.364765	0.549854
C162	C	1.109500	-1.035678	0.432028
C163	C	1.067871	-1.079542	0.482207
C164	C	1.111334	-1.114527	0.529069
H165	H	1.139101	-1.063213	0.399574
H166	H	1.137614	-1.002114	0.462248
H167	H	1.039769	-1.113102	0.451990
H168	H	1.038270	-1.052025	0.514678
H169	H	1.139448	-1.080963	0.559289
H170	H	1.140934	-1.142058	0.496609
H171	H	1.083096	-1.144288	0.563126
C172	C	0.589538	-0.409472	0.438073
C173	C	0.635954	-0.447092	0.478164
C174	C	0.597473	-0.493823	0.527927
H175	H	0.561915	-0.383790	0.474796
H176	H	0.559579	-0.441347	0.407904
H177	H	0.665901	-0.415222	0.508332
H178	H	0.663578	-0.472788	0.441462
H179	H	0.567514	-0.525697	0.497758
H180	H	0.569851	-0.468135	0.564645
H181	H	0.628959	-0.519358	0.555129
H182	H	1.103100	-0.892576	0.424967
H183	H	0.907195	-0.704012	0.214971
C184	C	0.927727	-0.890047	0.236860
C185	C	0.886377	-0.939695	0.192465
C186	C	0.842747	-0.904905	0.145606
H187	H	0.898070	-0.862569	0.269313
H188	H	0.955842	-0.860255	0.202721
H189	H	0.858265	-0.969475	0.226599
H190	H	0.916015	-0.967175	0.159996
H191	H	0.870862	-0.875113	0.111468
H192	H	0.813096	-0.877428	0.178065
H193	H	0.814691	-0.938585	0.115473
H194	H	0.912505	-0.570435	0.220701
H195	H	1.090281	-0.213493	0.619594
