data_functionalizedCrystal
_audit_creation_method	'MofGen! by Chris Wilmer'
_symmetry_space_group_name_H-M	'P1'
_symmetry_Int_Tables_number	1
_symmetry_cell_setting	triclinic
loop_
_symmetry_equiv_pos_as_xyz
  x,y,z
_cell_length_a	25.639242
_cell_length_b	25.639233
_cell_length_c	25.639239
_cell_angle_alpha	89.980699
_cell_angle_beta	90.034185
_cell_angle_gamma	89.978417
loop_
_atom_site_label
_atom_site_type_symbol
_atom_site_fract_x
_atom_site_fract_y
_atom_site_fract_z
Zn1	Zn	0.799223	-0.295732	-0.208286
Zn2	Zn	1.049223	-0.045732	0.041714
Zn3	Zn	1.299223	0.204268	0.291714
Zn4	Zn	1.549223	0.454268	0.541714
Zn5	Zn	0.799145	-0.208296	-0.295704
Zn6	Zn	1.049145	0.041704	-0.045704
Zn7	Zn	1.299145	0.291704	0.204296
Zn8	Zn	1.549145	0.541704	0.454296
Zn9	Zn	0.711799	-0.208297	-0.208277
Zn10	Zn	0.961799	0.041703	0.041723
Zn11	Zn	1.211799	0.291703	0.291723
Zn12	Zn	1.461799	0.541703	0.541723
Zn13	Zn	0.711743	-0.295686	-0.295684
Zn14	Zn	0.961743	-0.045686	-0.045684
Zn15	Zn	1.211743	0.204314	0.204316
Zn16	Zn	1.461743	0.454314	0.454316
O17	O	0.755478	-0.252003	-0.251988
O18	O	1.005478	-0.002003	-0.001988
O19	O	1.255478	0.247997	0.248012
O20	O	1.505478	0.497997	0.498012
O21	O	0.872378	-0.284152	-0.219894
O22	O	1.122378	-0.034152	0.030106
O23	O	1.372378	0.215848	0.280106
O24	O	1.622378	0.465848	0.530106
O25	O	0.787550	-0.135131	-0.284112
O26	O	1.037550	0.114869	-0.034112
O27	O	1.287550	0.364869	0.215888
O28	O	1.537550	0.614869	0.465888
O29	O	0.723452	-0.219915	-0.135113
O30	O	0.973452	0.030085	0.114887
O31	O	1.223452	0.280085	0.364887
O32	O	1.473452	0.530085	0.614887
O33	O	0.872321	-0.219913	-0.284120
O34	O	1.122321	0.030087	-0.034120
O35	O	1.372321	0.280087	0.215880
O36	O	1.622321	0.530087	0.465880
O37	O	0.787682	-0.284153	-0.135119
O38	O	1.037682	-0.034153	0.114881
O39	O	1.287682	0.215847	0.364881
O40	O	1.537682	0.465847	0.614881
O41	O	0.723377	-0.135132	-0.219879
O42	O	0.973377	0.114868	0.030121
O43	O	1.223377	0.364868	0.280121
O44	O	1.473377	0.614868	0.530121
O45	O	0.638627	-0.219871	-0.219860
O46	O	0.888627	0.030129	0.030140
O47	O	1.138627	0.280129	0.280140
O48	O	1.388627	0.530129	0.530140
O49	O	0.723357	-0.368858	-0.284085
O50	O	0.973357	-0.118858	-0.034085
O51	O	1.223357	0.131142	0.215915
O52	O	1.473357	0.381142	0.465915
O53	O	0.638586	-0.284075	-0.284077
O54	O	0.888586	-0.034075	-0.034077
O55	O	1.138586	0.215925	0.215923
O56	O	1.388586	0.465925	0.465923
O57	O	0.787628	-0.368891	-0.219874
O58	O	1.037628	-0.118891	0.030126
O59	O	1.287628	0.131109	0.280126
O60	O	1.537628	0.381109	0.530126
O61	O	0.787496	-0.219868	-0.368867
O62	O	1.037496	0.030132	-0.118867
O63	O	1.287496	0.280132	0.131133
O64	O	1.537496	0.530132	0.381133
O65	O	0.723282	-0.284074	-0.368852
O66	O	0.973282	-0.034074	-0.118852
O67	O	1.223282	0.215926	0.131148
O68	O	1.473282	0.465926	0.381148
C69	C	0.619635	-0.251969	-0.251966
C70	C	0.869635	-0.001969	-0.001966
C71	C	1.119635	0.248031	0.248034
C72	C	1.369635	0.498031	0.498034
C73	C	0.561521	-0.251967	-0.251969
C74	C	0.811521	-0.001967	-0.001969
C75	C	1.061521	0.248033	0.248031
C76	C	1.311521	0.498033	0.498031
C77	C	0.310340	-0.218629	-0.218494
C78	C	0.560340	0.031371	0.031506
C79	C	0.810340	0.281371	0.281506
C80	C	1.060340	0.531371	0.531506
C81	C	0.364945	-0.218623	-0.218489
C82	C	0.614945	0.031377	0.031511
C83	C	0.864945	0.281377	0.281511
C84	C	1.114945	0.531377	0.531511
O85	O	0.393192	-0.190249	-0.189997
O86	O	0.643192	0.059751	0.060003
O87	O	0.893192	0.309751	0.310003
O88	O	1.143192	0.559751	0.560003
N89	N	0.392247	-0.251993	-0.251975
N90	N	0.642247	-0.001993	-0.001975
N91	N	0.892247	0.248007	0.248025
N92	N	1.142247	0.498007	0.498025
C93	C	0.364943	-0.285376	-0.285465
C94	C	0.614943	-0.035376	-0.035465
C95	C	0.864943	0.214624	0.214535
C96	C	1.114943	0.464624	0.464535
O97	O	0.393180	-0.313759	-0.313947
O98	O	0.643180	-0.063759	-0.063947
O99	O	0.893180	0.186241	0.186053
O100	O	1.143180	0.436241	0.436053
C101	C	0.310339	-0.285385	-0.285467
C102	C	0.560339	-0.035385	-0.035467
C103	C	0.810339	0.214615	0.214533
C104	C	1.060339	0.464615	0.464533
C105	C	0.283040	-0.252008	-0.251982
C106	C	0.533040	-0.002008	-0.001982
C107	C	0.783040	0.247992	0.248018
C108	C	1.033040	0.497992	0.498018
C109	C	0.283040	-0.185256	-0.185011
C110	C	0.533040	0.064744	0.064989
C111	C	0.783040	0.314744	0.314989
C112	C	1.033040	0.564744	0.564989
C113	C	0.228440	-0.185262	-0.185017
C114	C	0.478440	0.064738	0.064983
C115	C	0.728440	0.314738	0.314983
C116	C	0.978440	0.564738	0.564983
C117	C	0.201139	-0.218641	-0.218505
C118	C	0.451139	0.031359	0.031495
C119	C	0.701139	0.281359	0.281495
C120	C	0.951139	0.531359	0.531495
C121	C	0.228439	-0.252014	-0.251987
C122	C	0.478439	-0.002014	-0.001987
C123	C	0.728439	0.247986	0.248013
C124	C	0.978439	0.497986	0.498013
C125	C	0.283036	-0.318770	-0.318953
C126	C	0.533036	-0.068770	-0.068953
C127	C	0.783036	0.181230	0.181047
C128	C	1.033036	0.431230	0.431047
C129	C	0.228429	-0.318776	-0.318952
C130	C	0.478429	-0.068776	-0.068952
C131	C	0.728429	0.181224	0.181048
C132	C	0.978429	0.431224	0.431048
C133	C	0.201129	-0.285400	-0.285467
C134	C	0.451129	-0.035400	-0.035467
C135	C	0.701129	0.214600	0.214533
C136	C	0.951129	0.464600	0.464533
C137	C	0.146538	-0.285400	-0.285481
C138	C	0.396538	-0.035400	-0.035481
C139	C	0.646538	0.214600	0.214519
C140	C	0.896538	0.464600	0.464519
N141	N	0.119235	-0.252029	-0.251995
N142	N	0.369235	-0.002029	-0.001995
N143	N	0.619235	0.247971	0.248005
N144	N	0.869235	0.497971	0.498005
C145	C	0.146536	-0.218650	-0.218507
C146	C	0.396536	0.031350	0.031493
C147	C	0.646536	0.281350	0.281493
C148	C	0.896536	0.531350	0.531493
C149	C	0.479613	-0.285355	-0.285458
C150	C	0.729613	-0.035355	-0.035458
C151	C	0.979613	0.214645	0.214542
C152	C	1.229613	0.464645	0.464542
C153	C	0.534216	-0.285344	-0.285459
C154	C	0.784216	-0.035344	-0.035459
C155	C	1.034216	0.214656	0.214541
C156	C	1.284216	0.464656	0.464541
C157	C	0.534214	-0.218591	-0.218482
C158	C	0.784214	0.031409	0.031518
C159	C	1.034214	0.281409	0.281518
C160	C	1.284214	0.531409	0.531518
C161	C	0.479610	-0.218600	-0.218484
C162	C	0.729610	0.031400	0.031516
C163	C	0.979610	0.281400	0.281516
C164	C	1.229610	0.531400	0.531516
C165	C	0.452311	-0.251985	-0.251971
C166	C	0.702311	-0.001985	-0.001971
C167	C	0.952311	0.248015	0.248029
C168	C	1.202311	0.498015	0.498029
C169	C	0.031871	-0.218665	-0.218522
C170	C	0.281871	0.031335	0.031478
C171	C	0.531871	0.281335	0.281478
C172	C	0.781871	0.531335	0.531478
C173	C	-0.022735	-0.218673	-0.218532
C174	C	0.227265	0.031327	0.031468
C175	C	0.477265	0.281327	0.281468
C176	C	0.727265	0.531327	0.531468
C177	C	-0.022728	-0.285427	-0.285506
C178	C	0.227272	-0.035427	-0.035506
C179	C	0.477272	0.214573	0.214494
C180	C	0.727272	0.464573	0.464494
C181	C	0.031873	-0.285418	-0.285498
C182	C	0.281873	-0.035418	-0.035498
C183	C	0.531873	0.214582	0.214502
C184	C	0.781873	0.464582	0.464502
C185	C	0.059171	-0.252035	-0.252002
C186	C	0.309171	-0.002035	-0.002002
C187	C	0.559171	0.247965	0.247998
C188	C	0.809171	0.497965	0.497998
O189	O	0.118256	-0.313761	-0.313958
O190	O	0.368256	-0.063761	-0.063958
O191	O	0.618256	0.186239	0.186042
O192	O	0.868256	0.436239	0.436042
O193	O	0.118292	-0.190276	-0.190025
O194	O	0.368292	0.059724	0.059975
O195	O	0.618292	0.309724	0.309975
O196	O	0.868292	0.559724	0.559975
C197	C	0.755495	-0.388376	-0.251979
C198	C	1.005495	-0.138376	-0.001979
C199	C	1.255495	0.111624	0.248021
C200	C	1.505495	0.361624	0.498021
C201	C	0.755502	-0.446490	-0.251975
C202	C	1.005502	-0.196490	-0.001975
C203	C	1.255502	0.053510	0.248025
C204	C	1.505502	0.303510	0.498025
C205	C	0.789010	-0.806876	-0.218440
C206	C	1.039010	-0.556876	0.031560
C207	C	1.289010	-0.306876	0.281560
C208	C	1.539010	-0.056876	0.531560
C209	C	0.789016	-0.861481	-0.218426
C210	C	1.039016	-0.611481	0.031574
C211	C	1.289016	-0.361481	0.281574
C212	C	1.539016	-0.111481	0.531574
O213	O	0.817464	-0.889737	-0.189976
O214	O	1.067464	-0.639737	0.060024
O215	O	1.317464	-0.389737	0.310024
O216	O	1.567464	-0.139737	0.560024
N217	N	0.755559	-0.888773	-0.251852
N218	N	1.005559	-0.638773	-0.001852
N219	N	1.255559	-0.388773	0.248148
N220	N	1.505559	-0.138773	0.498148
C221	C	0.722090	-0.861457	-0.285291
C222	C	0.972090	-0.611457	-0.035291
C223	C	1.222090	-0.361457	0.214709
C224	C	1.472090	-0.111457	0.464709
O225	O	0.693632	-0.889685	-0.313721
O226	O	0.943632	-0.639685	-0.063721
O227	O	1.193632	-0.389685	0.186279
O228	O	1.443632	-0.139685	0.436279
C229	C	0.722081	-0.806854	-0.285302
C230	C	0.972081	-0.556854	-0.035302
C231	C	1.222081	-0.306854	0.214698
C232	C	1.472081	-0.056854	0.464698
C233	C	0.755544	-0.779565	-0.251878
C234	C	1.005544	-0.529565	-0.001878
C235	C	1.255544	-0.279565	0.248122
C236	C	1.505544	-0.029565	0.498122
C237	C	0.822470	-0.779587	-0.185018
C238	C	1.072470	-0.529587	0.064982
C239	C	1.322470	-0.279587	0.314982
C240	C	1.572470	-0.029587	0.564982
C241	C	0.822464	-0.724986	-0.185034
C242	C	1.072464	-0.474986	0.064966
C243	C	1.322464	-0.224986	0.314966
C244	C	1.572464	0.025014	0.564966
C245	C	0.788998	-0.697675	-0.218471
C246	C	1.038998	-0.447675	0.031529
C247	C	1.288998	-0.197675	0.281529
C248	C	1.538998	0.052325	0.531529
C249	C	0.755538	-0.724964	-0.251893
C250	C	1.005538	-0.474964	-0.001893
C251	C	1.255538	-0.224964	0.248107
C252	C	1.505538	0.025036	0.498107
C253	C	0.688610	-0.779540	-0.318738
C254	C	0.938610	-0.529540	-0.068738
C255	C	1.188610	-0.279540	0.181262
C256	C	1.438610	-0.029540	0.431262
C257	C	0.688603	-0.724933	-0.318747
C258	C	0.938603	-0.474933	-0.068747
C259	C	1.188603	-0.224933	0.181253
C260	C	1.438603	0.025067	0.431253
C261	C	0.722066	-0.697644	-0.285322
C262	C	0.972066	-0.447644	-0.035322
C263	C	1.222066	-0.197644	0.214678
C264	C	1.472066	0.052356	0.464678
C265	C	0.722067	-0.643052	-0.285346
C266	C	0.972067	-0.393052	-0.035346
C267	C	1.222067	-0.143052	0.214654
C268	C	1.472067	0.106948	0.464654
N269	N	0.755524	-0.615760	-0.251920
N270	N	1.005524	-0.365760	-0.001920
N271	N	1.255524	-0.115760	0.248080
N272	N	1.505524	0.134240	0.498080
C273	C	0.788989	-0.643072	-0.218482
C274	C	1.038989	-0.393072	0.031518
C275	C	1.288989	-0.143072	0.281518
C276	C	1.538989	0.106928	0.531518
C277	C	0.722110	-0.976128	-0.285264
C278	C	0.972110	-0.726128	-0.035264
C279	C	1.222110	-0.476128	0.214736
C280	C	1.472110	-0.226128	0.464736
C281	C	0.722121	-1.030730	-0.285255
C282	C	0.972121	-0.780730	-0.035255
C283	C	1.222121	-0.530730	0.214745
C284	C	1.472121	-0.280730	0.464745
C285	C	0.789047	-1.030750	-0.218390
C286	C	1.039047	-0.780750	0.031610
C287	C	1.289047	-0.530750	0.281610
C288	C	1.539047	-0.280750	0.531610
C289	C	0.789038	-0.976146	-0.218401
C290	C	1.039038	-0.726146	0.031599
C291	C	1.289038	-0.476146	0.281599
C292	C	1.539038	-0.226146	0.531599
C293	C	0.755567	-0.948836	-0.251838
C294	C	1.005567	-0.698836	-0.001838
C295	C	1.255567	-0.448836	0.248162
C296	C	1.505567	-0.198836	0.498162
C297	C	0.788975	-0.528407	-0.218517
C298	C	1.038975	-0.278407	0.031483
C299	C	1.288975	-0.028407	0.281483
C300	C	1.538975	0.221593	0.531483
C301	C	0.788968	-0.473801	-0.218537
C302	C	1.038968	-0.223801	0.031463
C303	C	1.288968	0.026199	0.281463
C304	C	1.538968	0.276199	0.531463
C305	C	0.722040	-0.473787	-0.285401
C306	C	0.972040	-0.223787	-0.035401
C307	C	1.222040	0.026213	0.214599
C308	C	1.472040	0.276213	0.464599
C309	C	0.722049	-0.528387	-0.285383
C310	C	0.972049	-0.278387	-0.035383
C311	C	1.222049	-0.028387	0.214617
C312	C	1.472049	0.221613	0.464617
C313	C	0.755518	-0.555696	-0.251937
C314	C	1.005518	-0.305696	-0.001937
C315	C	1.255518	-0.055696	0.248063
C316	C	1.505518	0.194304	0.498063
O317	O	0.693632	-0.614761	-0.313780
O318	O	0.943632	-0.364761	-0.063780
O319	O	1.193632	-0.114761	0.186220
O320	O	1.443632	0.135239	0.436220
O321	O	0.817437	-0.614837	-0.190053
O322	O	1.067437	-0.364837	0.059947
O323	O	1.317437	-0.114837	0.309947
O324	O	1.567437	0.135163	0.559947
C325	C	0.891851	-0.252037	-0.252010
C326	C	1.141851	-0.002037	-0.002010
C327	C	1.391851	0.247963	0.247990
C328	C	1.641851	0.497963	0.497990
C329	C	0.949965	-0.252052	-0.252020
C330	C	1.199965	-0.002052	-0.002020
C331	C	1.449965	0.247948	0.247980
C332	C	1.699965	0.497948	0.497980
C333	C	0.755388	-0.251977	-0.387830
C334	C	1.005388	-0.001977	-0.137830
C335	C	1.255388	0.248023	0.112170
C336	C	1.505388	0.498023	0.362170
C337	C	0.755398	-0.251984	-0.445944
C338	C	1.005398	-0.001984	-0.195944
C339	C	1.255398	0.248016	0.054056
C340	C	1.505398	0.498016	0.304056
C341	C	0.755491	-0.116160	-0.251959
C342	C	1.005491	0.133840	-0.001959
C343	C	1.255491	0.383840	0.248041
C344	C	1.505491	0.633840	0.498041
C345	C	0.755585	-0.058047	-0.251816
C346	C	1.005585	0.191953	-0.001816
C347	C	1.255585	0.441953	0.248184
C348	C	1.505585	0.691953	0.498184
C349	C	0.722035	-0.285424	-0.697142
C350	C	0.972035	-0.035424	-0.447142
C351	C	1.222035	0.214576	-0.197142
C352	C	1.472035	0.464576	0.052858
C353	C	0.722016	-0.285418	-0.642538
C354	C	0.972016	-0.035418	-0.392538
C355	C	1.222016	0.214582	-0.142538
C356	C	1.472016	0.464582	0.107462
O357	O	0.693564	-0.313832	-0.614305
O358	O	0.943564	-0.063832	-0.364305
O359	O	1.193564	0.186168	-0.114305
O360	O	1.443564	0.436168	0.135695
N361	N	0.755464	-0.252012	-0.615218
N362	N	1.005464	-0.002012	-0.365218
N363	N	1.255464	0.247988	-0.115218
N364	N	1.505464	0.497988	0.134782
C365	C	0.788937	-0.218613	-0.642505
C366	C	1.038937	0.031387	-0.392505
C367	C	1.288937	0.281387	-0.142505
C368	C	1.538937	0.531387	0.107495
O369	O	0.817386	-0.190198	-0.614254
O370	O	1.067386	0.059802	-0.364254
O371	O	1.317386	0.309802	-0.114254
O372	O	1.567386	0.559802	0.135746
C373	C	0.788959	-0.218622	-0.697109
C374	C	1.038959	0.031378	-0.447109
C375	C	1.288959	0.281378	-0.197109
C376	C	1.538959	0.531378	0.052891
C377	C	0.755505	-0.252027	-0.724426
C378	C	1.005505	-0.002027	-0.474426
C379	C	1.255505	0.247973	-0.224426
C380	C	1.505505	0.497973	0.025574
C381	C	0.688584	-0.318827	-0.724460
C382	C	0.938584	-0.068827	-0.474460
C383	C	1.188584	0.181173	-0.224460
C384	C	1.438584	0.431173	0.025540
C385	C	0.688603	-0.318832	-0.779060
C386	C	0.938603	-0.068832	-0.529060
C387	C	1.188603	0.181168	-0.279060
C388	C	1.438603	0.431168	-0.029060
C389	C	0.722073	-0.285435	-0.806343
C390	C	0.972073	-0.035435	-0.556343
C391	C	1.222073	0.214565	-0.306343
C392	C	1.472073	0.464565	-0.056343
C393	C	0.755524	-0.252032	-0.779026
C394	C	1.005524	-0.002032	-0.529026
C395	C	1.255524	0.247968	-0.279026
C396	C	1.505524	0.497968	-0.029026
C397	C	0.822434	-0.185226	-0.724395
C398	C	1.072434	0.064774	-0.474395
C399	C	1.322434	0.314774	-0.224395
C400	C	1.572434	0.564774	0.025605
C401	C	0.822453	-0.185238	-0.779002
C402	C	1.072453	0.064762	-0.529002
C403	C	1.322453	0.314762	-0.279002
C404	C	1.572453	0.564762	-0.029002
C405	C	0.788999	-0.218643	-0.806319
C406	C	1.038999	0.031357	-0.556319
C407	C	1.288999	0.281357	-0.306319
C408	C	1.538999	0.531357	-0.056319
C409	C	0.789012	-0.218640	-0.860910
C410	C	1.039012	0.031360	-0.610910
C411	C	1.289012	0.281360	-0.360910
C412	C	1.539012	0.531360	-0.110910
N413	N	0.755564	-0.252046	-0.888230
N414	N	1.005564	-0.002046	-0.638230
N415	N	1.255564	0.247954	-0.388230
N416	N	1.505564	0.497954	-0.138230
C417	C	0.722094	-0.285444	-0.860947
C418	C	0.972094	-0.035444	-0.610947
C419	C	1.222094	0.214556	-0.360947
C420	C	1.472094	0.464556	-0.110947
C421	C	0.788890	-0.218597	-0.527835
C422	C	1.038890	0.031403	-0.277835
C423	C	1.288890	0.281403	-0.027835
C424	C	1.538890	0.531403	0.222165
C425	C	0.788866	-0.218585	-0.473232
C426	C	1.038866	0.031415	-0.223232
C427	C	1.288866	0.281415	0.026768
C428	C	1.538866	0.531415	0.276768
C429	C	0.721945	-0.285391	-0.473269
C430	C	0.971945	-0.035391	-0.223269
C431	C	1.221945	0.214609	0.026731
C432	C	1.471945	0.464609	0.276731
C433	C	0.721967	-0.285400	-0.527872
C434	C	0.971967	-0.035400	-0.277872
C435	C	1.221967	0.214600	-0.027872
C436	C	1.471967	0.464600	0.222128
C437	C	0.755442	-0.252003	-0.555155
C438	C	1.005442	-0.002003	-0.305155
C439	C	1.255442	0.247997	-0.055155
C440	C	1.505442	0.497997	0.194845
C441	C	0.722136	-0.285452	-0.975612
C442	C	0.972136	-0.035452	-0.725612
C443	C	1.222136	0.214548	-0.475612
C444	C	1.472136	0.464548	-0.225612
C445	C	0.722156	-0.285453	-1.030217
C446	C	0.972156	-0.035453	-0.780217
C447	C	1.222156	0.214547	-0.530217
C448	C	1.472156	0.464547	-0.280217
C449	C	0.789079	-0.218649	-1.030176
C450	C	1.039079	0.031351	-0.780176
C451	C	1.289079	0.281351	-0.530176
C452	C	1.539079	0.531351	-0.280176
C453	C	0.789057	-0.218646	-0.975575
C454	C	1.039057	0.031354	-0.725575
C455	C	1.289057	0.281354	-0.475575
C456	C	1.539057	0.531354	-0.225575
C457	C	0.755584	-0.252052	-0.948295
C458	C	1.005584	-0.002052	-0.698295
C459	C	1.255584	0.247948	-0.448295
C460	C	1.505584	0.497948	-0.198295
O461	O	0.817451	-0.190242	-0.889178
O462	O	1.067451	0.059758	-0.639178
O463	O	1.317451	0.309758	-0.389178
O464	O	1.567451	0.559758	-0.139178
O465	O	0.693655	-0.313859	-0.889205
O466	O	0.943655	-0.063859	-0.639205
O467	O	1.193655	0.186141	-0.389205
O468	O	1.443655	0.436141	-0.139205
C469	C	0.755582	-0.252040	-0.115615
C470	C	1.005582	-0.002040	0.134385
C471	C	1.255582	0.247960	0.384385
C472	C	1.505582	0.497960	0.634385
C473	C	0.755626	-0.252055	-0.057501
C474	C	1.005626	-0.002055	0.192499
C475	C	1.255626	0.247945	0.442499
C476	C	1.505626	0.497945	0.692499
H477	H	0.206204	-0.345964	-0.346220
H478	H	0.456204	-0.095964	-0.096220
H479	H	0.706204	0.154036	0.153780
H480	H	0.956204	0.404036	0.403780
F481	F	0.686361	-0.320954	-0.556940
F482	F	0.936361	-0.070954	-0.306940
F483	F	1.186361	0.179046	-0.056940
F484	F	1.436361	0.429046	0.193060
F485	F	0.199392	-0.149743	-0.149373
F486	F	0.449392	0.100257	0.100627
F487	F	0.699392	0.350257	0.350627
F488	F	0.949392	0.600257	0.600627
F489	F	-0.051786	-0.183147	-0.182892
F490	F	0.198214	0.066853	0.067108
F491	F	0.448214	0.316853	0.317108
F492	F	0.698214	0.566853	0.567108
H493	H	0.457386	-0.191424	-0.191216
H494	H	0.707386	0.058576	0.058784
H495	H	0.957386	0.308576	0.308784
H496	H	1.207386	0.558576	0.558784
F497	F	0.686438	-0.557431	-0.320960
F498	F	0.936438	-0.307431	-0.070960
F499	F	1.186438	-0.057431	0.179040
F500	F	1.436438	0.192569	0.429040
H501	H	0.816327	-0.191456	-1.052400
H502	H	1.066327	0.058544	-0.802400
H503	H	1.316327	0.308544	-0.552400
H504	H	1.566327	0.558544	-0.302400
H505	H	0.661360	-0.801749	-0.345956
H506	H	0.911360	-0.551749	-0.095956
H507	H	1.161360	-0.301749	0.154044
H508	H	1.411360	-0.051749	0.404044
H509	H	0.816101	-0.191378	-0.450995
H510	H	1.066101	0.058622	-0.200995
H511	H	1.316101	0.308622	0.049005
H512	H	1.566101	0.558622	0.299005
H513	H	0.849722	-0.801818	-0.157787
H514	H	1.099722	-0.551818	0.092213
H515	H	1.349722	-0.301818	0.342213
H516	H	1.599722	-0.051818	0.592213
H517	H	0.054090	-0.191484	-0.191243
H518	H	0.304090	0.058516	0.058757
H519	H	0.554090	0.308516	0.308757
H520	H	0.804090	0.558516	0.558757
H521	H	0.816148	-0.191397	-0.550045
H522	H	1.066148	0.058603	-0.300045
H523	H	1.316148	0.308603	-0.050045
H524	H	1.566148	0.558603	0.199955
H525	H	0.694913	-0.312656	-1.052456
H526	H	0.944913	-0.062656	-0.802456
H527	H	1.194913	0.187344	-0.552456
H528	H	1.444913	0.437344	-0.302456
F529	F	0.686425	-0.444710	-0.320985
F530	F	0.936425	-0.194710	-0.070985
F531	F	1.186425	0.055290	0.179015
F532	F	1.436425	0.305290	0.429015
F533	F	0.824594	-0.557463	-0.182918
F534	F	1.074594	-0.307463	0.067082
F535	F	1.324594	-0.057463	0.317082
F536	F	1.574594	0.192537	0.567082
F537	F	0.686323	-0.320935	-0.444222
F538	F	0.936323	-0.070935	-0.194222
F539	F	1.186323	0.179065	0.055778
F540	F	1.436323	0.429065	0.305778
F541	F	0.686510	-0.321006	-0.946585
F542	F	0.936510	-0.071006	-0.696585
F543	F	1.186510	0.178994	-0.446585
F544	F	1.436510	0.428994	-0.196585
H545	H	0.054101	-0.312591	-0.312768
H546	H	0.304101	-0.062591	-0.062768
H547	H	0.554101	0.187409	0.187232
H548	H	0.804101	0.437409	0.437232
H549	H	0.694878	-1.052945	-0.312479
H550	H	0.944878	-0.802945	-0.062479
H551	H	1.194878	-0.552945	0.187521
H552	H	1.444878	-0.302945	0.437521
F553	F	0.858077	-0.695950	-0.149456
F554	F	1.108077	-0.445950	0.100544
F555	F	1.358077	-0.195950	0.350544
F556	F	1.608077	0.054050	0.600544
H557	H	0.694853	-0.953895	-0.312495
H558	H	0.944853	-0.703895	-0.062495
H559	H	1.194853	-0.453895	0.187505
H560	H	1.444853	-0.203895	0.437505
H561	H	0.556439	-0.312517	-0.312731
H562	H	0.806439	-0.062517	-0.062731
H563	H	1.056439	0.187483	0.187269
H564	H	1.306439	0.437483	0.437269
F565	F	0.858045	-0.149676	-0.695334
F566	F	1.108045	0.100324	-0.445334
F567	F	1.358045	0.350324	-0.195334
F568	F	1.608045	0.600324	0.054666
H569	H	0.849715	-0.158044	-0.801212
H570	H	1.099715	0.091956	-0.551212
H571	H	1.349715	0.341956	-0.301212
H572	H	1.599715	0.591956	-0.051212
F573	F	0.824652	-0.183083	-0.946502
F574	F	1.074652	0.066917	-0.696502
F575	F	1.324652	0.316917	-0.446502
F576	F	1.574652	0.566917	-0.196502
F577	F	0.652977	-0.695870	-0.354335
F578	F	0.902977	-0.445870	-0.104335
F579	F	1.152977	-0.195870	0.145665
F580	F	1.402977	0.054130	0.395665
F581	F	0.824586	-0.444761	-0.182962
F582	F	1.074586	-0.194761	0.067038
F583	F	1.324586	0.055239	0.317038
F584	F	1.574586	0.305239	0.567038
H585	H	0.661361	-0.346033	-0.801297
H586	H	0.911361	-0.096033	-0.551297
H587	H	1.161361	0.153967	-0.301297
H588	H	1.411361	0.403967	-0.051297
F589	F	0.563279	-0.183066	-0.182841
F590	F	0.813279	0.066934	0.067159
F591	F	1.063279	0.316934	0.317159
F592	F	1.313279	0.566934	0.567159
F593	F	0.312088	-0.149728	-0.149364
F594	F	0.562088	0.100272	0.100636
F595	F	0.812088	0.350272	0.350636
F596	F	1.062088	0.600272	0.600636
F597	F	0.312079	-0.354294	-0.354592
F598	F	0.562079	-0.104294	-0.104592
F599	F	0.812079	0.145706	0.145408
F600	F	1.062079	0.395706	0.395408
F601	F	0.450564	-0.320886	-0.321106
F602	F	0.700564	-0.070886	-0.071106
F603	F	0.950564	0.179114	0.178894
F604	F	1.200564	0.429114	0.428894
F605	F	-0.051793	-0.320944	-0.321151
F606	F	0.198207	-0.070944	-0.071151
F607	F	0.448207	0.179056	0.178849
F608	F	0.698207	0.429056	0.428849
H609	H	0.816286	-0.953931	-0.191183
H610	H	1.066286	-0.703931	0.058817
H611	H	1.316286	-0.453931	0.308817
H612	H	1.566286	-0.203931	0.558817
F613	F	0.824664	-1.059826	-0.182801
F614	F	1.074664	-0.809826	0.067199
F615	F	1.324664	-0.559826	0.317199
F616	F	1.574664	-0.309826	0.567199
F617	F	0.652959	-0.354377	-0.695431
F618	F	0.902959	-0.104377	-0.445431
F619	F	1.152959	0.145623	-0.195431
F620	F	1.402959	0.395623	0.054569
