data_functionalizedCrystal
_audit_creation_method	'MofGen! by Chris Wilmer'
_symmetry_space_group_name_H-M	'P1'
_symmetry_Int_Tables_number	1
_symmetry_cell_setting	triclinic
loop_
_symmetry_equiv_pos_as_xyz
  x,y,z
_cell_length_a	21.295417
_cell_length_b	11.169417
_cell_length_c	11.169409
_cell_angle_alpha	90.019513
_cell_angle_beta	90.041399
_cell_angle_gamma	90.031756
loop_
_atom_site_label
_atom_site_type_symbol
_atom_site_fract_x
_atom_site_fract_y
_atom_site_fract_z
Zn1	Zn	-0.250537	1.834794	0.678457
Zn2	Zn	-0.355825	1.834613	0.477742
Zn3	Zn	-0.250576	1.634080	0.477793
Zn4	Zn	-0.355775	1.634017	0.678388
O5	O	-0.303178	1.734376	0.578095
O6	O	-0.264509	2.002720	0.651840
O7	O	-0.341901	1.807962	0.309799
O8	O	-0.162482	1.660807	0.504461
O9	O	-0.341864	2.002587	0.504375
O10	O	-0.162453	1.808271	0.651888
O11	O	-0.264575	1.660632	0.309836
O12	O	-0.264526	1.466122	0.504394
O13	O	-0.341777	1.660700	0.846347
O14	O	-0.341815	1.466076	0.651771
O15	O	-0.264460	1.808210	0.846398
O16	O	-0.443908	1.807901	0.504309
O17	O	-0.443871	1.660524	0.651722
C18	C	-0.303170	1.422551	0.578081
C19	C	-0.303182	1.289151	0.578104
C20	C	-0.466730	1.734219	0.578029
C21	C	-0.536698	1.734261	0.578040
C22	C	-0.569563	1.811069	0.501361
C23	C	-0.635306	1.811125	0.501388
C24	C	-0.668181	1.734352	0.578082
C25	C	-0.635308	1.657539	0.654776
C26	C	-0.569566	1.657494	0.654756
N27	N	-0.771447	1.629362	0.587227
N28	N	-0.833898	1.629409	0.587239
C29	C	-0.866255	1.734487	0.578151
N30	N	-0.833802	1.839518	0.569025
N31	N	-0.771345	1.839470	0.569006
C32	C	-0.739466	1.734394	0.578113
C33	C	-0.970406	1.811362	0.501496
C34	C	-1.036150	1.811420	0.501531
C35	C	-1.036150	1.657824	0.654914
C36	C	-0.970408	1.657776	0.654885
C37	C	-0.937540	1.734543	0.578169
C38	C	-0.138988	1.734567	0.578188
C39	C	-0.069020	1.734648	0.578228
C40	C	-0.303109	1.734468	0.891138
C41	C	-0.303079	1.734507	1.024538
C42	C	-0.303187	2.047418	0.578110
C43	C	-0.303191	2.180818	0.578116
C44	C	-0.303203	1.734353	0.266270
C45	C	-0.303055	1.734547	0.132871
H46	H	-0.542804	1.873580	0.438898
C47	C	-0.533414	1.573011	0.739128
N48	N	-0.506183	1.509382	0.802684
H49	H	-0.943644	1.873874	0.439033
C50	C	-0.671465	1.895616	0.417024
N51	N	-0.698698	1.959252	0.353479
C52	C	-0.671471	1.573085	0.739136
N53	N	-0.698710	1.509473	0.802679
C54	C	-1.072309	1.573375	0.739281
N55	N	-1.099547	1.509767	0.802830
C56	C	-1.072301	1.895918	0.417172
N57	N	-1.099531	1.959561	0.353628
C58	C	-0.934255	1.573305	0.739264
N59	N	-0.907025	1.509691	0.802836
