data_functionalizedCrystal
_audit_creation_method	'MofGen! by Chris Wilmer'
_symmetry_space_group_name_H-M	'P1'
_symmetry_Int_Tables_number	1
_symmetry_cell_setting	triclinic
loop_
_symmetry_equiv_pos_as_xyz
  x,y,z
_cell_length_a	10.540539
_cell_length_b	16.109301
_cell_length_c	14.586319
_cell_angle_alpha	90.005214
_cell_angle_beta	89.998549
_cell_angle_gamma	96.006514
loop_
_atom_site_label
_atom_site_type_symbol
_atom_site_fract_x
_atom_site_fract_y
_atom_site_fract_z
O1	O	1.684215	-0.117165	-0.076200
O2	O	1.314645	-0.128205	-0.076212
O3	O	1.509583	-0.001716	-0.076197
O4	O	1.489278	-0.243654	-0.076216
O5	O	1.509569	-0.001714	0.076284
O6	O	1.314631	-0.128203	0.076269
O7	O	1.684202	-0.117163	0.076280
Cu8	Cu	1.499415	-0.122683	0.090197
Cu9	Cu	1.499431	-0.122685	-0.090129
O10	O	1.489264	-0.243652	0.076265
C11	C	1.267347	-0.127376	0.000027
C12	C	1.126434	-0.124899	0.000023
N13	N	1.499413	-0.122681	0.217029
C14	C	1.508753	0.029265	0.000044
C15	C	1.506287	0.121575	0.000046
C16	C	0.944360	-0.029989	0.000386
C17	C	1.090943	-0.032500	0.000033
C18	C	1.064135	-0.169366	-0.087051
C19	C	0.917636	-0.166213	-0.087115
C20	C	0.917105	-0.168090	0.086285
C21	C	1.064075	-0.168941	0.087426
C22	C	1.731500	-0.117992	0.000039
C23	C	1.872413	-0.120469	0.000037
C24	C	1.490093	-0.274633	0.000022
C25	C	1.492559	-0.366943	0.000015
C26	C	1.616226	0.343175	0.000034
C27	C	1.613899	0.429910	0.000027
C28	C	1.382612	0.411450	0.000023
C29	C	1.384940	0.324717	0.000024
C30	C	1.501751	0.290582	0.000034
C31	C	1.497096	0.464050	0.000026
C32	C	1.494572	0.558091	0.000018
C33	C	1.504275	0.196535	0.000041
N34	N	1.499443	-0.122681	-0.216961
C35	C	1.585760	-0.066691	0.452042
C36	C	1.585764	-0.066689	0.548024
C37	C	1.413087	-0.178673	0.548019
C38	C	1.413079	-0.178671	0.452040
C39	C	1.499422	-0.122680	0.404054
C40	C	1.499435	-0.122681	0.596015
C41	C	1.499438	-0.122679	0.700082
C42	C	1.499418	-0.122681	0.299980
H43	H	1.134050	0.002489	0.062452
O44	O	1.729580	0.309878	0.000075
C45	C	1.707094	0.222047	0.000054
H46	H	1.608030	0.202270	0.028925
H47	H	1.713234	0.197865	-0.073099
C48	C	1.929729	0.209778	0.024388
C49	C	1.808061	0.185487	0.059855
H50	H	1.992013	0.187225	0.061272
H51	H	1.944881	0.268951	0.024399
H52	H	1.934828	0.189625	-0.036572
H53	H	1.802959	0.205649	0.120810
H54	H	1.792911	0.126316	0.059856
H55	H	1.342766	-0.224265	0.412965
O56	O	0.909071	0.013297	-0.073783
C57	C	0.939841	-0.028203	-0.154627
H58	H	1.019209	-0.069200	-0.139627
H59	H	0.851910	-0.068737	-0.180369
C60	C	0.887538	0.086949	-0.246851
C61	C	0.985027	0.036602	-0.228429
H62	H	0.915405	0.126923	-0.292378
H63	H	0.866803	0.114908	-0.192386
H64	H	0.814270	0.053162	-0.268298
H65	H	1.058286	0.070388	-0.206972
H66	H	1.005775	0.008650	-0.282893
O67	O	1.089814	-0.250288	-0.090815
C68	C	1.164630	-0.267959	-0.014537
H69	H	1.216966	-0.207458	0.012708
H70	H	1.100387	-0.298641	0.041448
C71	C	1.198157	-0.401850	-0.077107
C72	C	1.262447	-0.327542	-0.043649
H73	H	1.258492	-0.438606	-0.095063
H74	H	1.147749	-0.389946	-0.128496
H75	H	1.144624	-0.427407	-0.030447
H76	H	1.315965	-0.301981	-0.090312
H77	H	1.312867	-0.339443	0.007731
H78	H	1.656067	-0.021096	0.587093
H79	H	1.707116	0.472728	0.000025
H80	H	0.885979	-0.138187	0.152286
H81	H	0.868927	-0.234830	0.086867
O82	O	1.269038	0.444473	-0.000022
C83	C	1.168498	0.379451	-0.000001
H84	H	1.204061	0.320328	-0.028868
H85	H	1.133184	0.367395	0.073151
C86	C	1.014657	0.477191	-0.024346
C87	C	1.058334	0.404577	-0.059808
H88	H	0.946700	0.492691	-0.061234
H89	H	1.082392	0.520999	-0.024356
H90	H	0.985238	0.467135	0.036613
H91	H	1.087767	0.414638	-0.120762
H92	H	0.990602	0.360772	-0.059809
O93	O	0.911039	0.013673	0.074847
C94	C	0.977079	0.094425	0.073101
H95	H	1.067056	0.093843	0.029841
H96	H	0.913227	0.139985	0.042089
C97	C	0.903415	0.122593	0.224657
C98	C	1.013932	0.121876	0.171530
H99	H	0.926143	0.139528	0.285372
H100	H	0.858918	0.068190	0.225832
H101	H	0.850215	0.160558	0.198803
H102	H	1.067121	0.083903	0.197378
H103	H	1.058439	0.176273	0.170362
H104	H	1.291715	0.281893	0.000022
H105	H	1.342790	-0.224261	0.587099
O106	O	1.113295	-0.130258	0.164371
C107	C	1.056658	-0.170330	0.242399
H108	H	0.960422	-0.204724	0.222857
H109	H	1.121486	-0.216855	0.270146
C110	C	1.155416	-0.062553	0.340552
C111	C	1.037212	-0.104790	0.316552
H112	H	1.143426	-0.022126	0.386295
H113	H	1.193578	-0.035557	0.287984
H114	H	1.209428	-0.101332	0.363669
H115	H	0.983209	-0.066013	0.293425
H116	H	0.999041	-0.131779	0.369118
O117	O	1.141486	0.009408	-0.074592
C118	C	1.204505	-0.045228	-0.129857
H119	H	1.232259	-0.099247	-0.086316
H120	H	1.138222	-0.070582	-0.187401
C121	C	1.291301	0.068655	-0.224787
C122	C	1.325398	0.002312	-0.171308
H123	H	1.365871	0.097980	-0.250360
H124	H	1.248840	0.105465	-0.187557
H125	H	1.236063	0.047517	-0.272733
H126	H	1.380621	0.023452	-0.123357
H127	H	1.367871	-0.034493	-0.208532
O128	O	1.115596	-0.132641	-0.164382
C129	C	1.173392	-0.192042	-0.216562
H130	H	1.198291	-0.244774	-0.169947
H131	H	1.104542	-0.218437	-0.272125
C132	C	1.265313	-0.085275	-0.318723
C133	C	1.295905	-0.150038	-0.261469
H134	H	1.340882	-0.059366	-0.346428
H135	H	1.226371	-0.045256	-0.283571
H136	H	1.207936	-0.107280	-0.365018
H137	H	1.353267	-0.128031	-0.215169
H138	H	1.334859	-0.190053	-0.296614
H139	H	0.889900	-0.133349	-0.152198
H140	H	0.868720	-0.232665	-0.091072
H141	H	1.087341	-0.236306	0.092678
H142	H	1.656065	-0.021099	0.412974
