data_functionalizedCrystal
_audit_creation_method	'MofGen! by Chris Wilmer'
_symmetry_space_group_name_H-M	'P1'
_symmetry_Int_Tables_number	1
_symmetry_cell_setting	triclinic
loop_
_symmetry_equiv_pos_as_xyz
  x,y,z
_cell_length_a	14.908941
_cell_length_b	14.908977
_cell_length_c	14.909241
_cell_angle_alpha	96.802072
_cell_angle_beta	89.833618
_cell_angle_gamma	90.214478
loop_
_atom_site_label
_atom_site_type_symbol
_atom_site_fract_x
_atom_site_fract_y
_atom_site_fract_z
Zn1	Zn	-1.417675	0.253425	-0.413827
Zn2	Zn	-1.417564	0.413544	-0.253738
Zn3	Zn	-1.259578	0.270824	-0.271084
Zn4	Zn	-1.275892	0.412484	-0.412774
O5	O	-1.342677	0.337569	-0.337855
O6	O	-1.543114	0.267827	-0.385772
O7	O	-1.389733	0.402338	-0.129743
O8	O	-1.273770	0.142221	-0.297719
O9	O	-1.543032	0.385466	-0.268155
O10	O	-1.389922	0.129437	-0.402592
O11	O	-1.273662	0.297482	-0.142487
O12	O	-1.136288	0.296454	-0.296698
O13	O	-1.301574	0.383658	-0.539209
O14	O	-1.148274	0.400530	-0.400797
O15	O	-1.405741	0.266799	-0.539982
O16	O	-1.405551	0.539699	-0.267134
O17	O	-1.301466	0.538920	-0.383977
C18	C	-1.109752	0.350266	-0.350516
C19	C	-1.010108	0.355717	-0.355952
C20	C	-0.810334	0.257404	-0.257941
C21	C	-0.716709	0.262524	-0.263046
C22	C	-0.729232	0.371081	-0.371262
C23	C	-0.822857	0.365961	-0.366157
C24	C	-0.863404	0.309120	-0.309496
C25	C	-0.957031	0.303996	-0.304396
C26	C	-0.969552	0.412557	-0.412606
C27	C	-0.875927	0.417677	-0.417711
C28	C	-0.576511	0.324816	-0.325140
C29	C	-0.676155	0.319359	-0.319706
C30	C	-1.355292	0.572054	-0.323577
C31	C	-1.360772	0.672361	-0.317495
C32	C	-1.355489	0.323169	-0.573258
C33	C	-1.360949	0.317033	-0.673573
C34	C	-1.262570	0.860114	-0.427639
C35	C	-1.267717	0.954362	-0.421928
C36	C	-1.376206	0.955106	-0.300355
C37	C	-1.371060	0.860858	-0.306067
C38	C	-1.314241	0.813366	-0.369712
C39	C	-1.309100	0.719116	-0.375428
C40	C	-1.417584	0.719862	-0.253852
C41	C	-1.422731	0.814110	-0.248140
C42	C	-1.330009	1.102169	-0.352199
C43	C	-1.324534	1.001861	-0.358289
C44	C	-1.262743	0.427209	-0.861269
C45	C	-1.267870	0.421446	-0.955524
C46	C	-1.376335	0.299750	-0.956338
C47	C	-1.371208	0.305513	-0.862083
C48	C	-1.314409	0.369243	-0.814552
C49	C	-1.309277	0.375001	-0.720297
C50	C	-1.417747	0.253310	-0.721112
C51	C	-1.422874	0.247547	-0.815366
C52	C	-1.329963	0.351845	-0.103370
C53	C	-1.324663	0.357718	-0.003061
H54	H	-0.843348	0.211110	-0.211817
H55	H	-1.225799	0.468648	-0.993557
H56	H	-1.422585	0.247871	-0.995053
H57	H	-1.422457	0.993792	-0.248531
H58	H	-1.468988	0.852792	-0.196320
H59	H	-1.459661	0.681789	-0.206686
H60	H	-1.469121	0.195662	-0.854078
H61	H	-1.216312	0.821444	-0.479468
H62	H	-1.459812	0.206106	-0.683065
H63	H	-0.673502	0.220410	-0.221066
H64	H	-1.262837	0.680448	-0.427253
H65	H	-1.263019	0.426885	-0.681600
H66	H	-0.990043	0.257707	-0.258265
H67	H	-1.225643	0.992420	-0.469100
H68	H	-0.842901	0.463958	-0.463840
H69	H	-0.696202	0.417367	-0.417384
H70	H	-1.012773	0.454663	-0.454591
H71	H	-1.216477	0.479085	-0.822571
