data_functionalizedCrystal
_audit_creation_method	'MofGen! by Chris Wilmer'
_symmetry_space_group_name_H-M	'P1'
_symmetry_Int_Tables_number	1
_symmetry_cell_setting	triclinic
loop_
_symmetry_equiv_pos_as_xyz
  x,y,z
_cell_length_a	16.992694
_cell_length_b	8.597304
_cell_length_c	16.053802
_cell_angle_alpha	84.919063
_cell_angle_beta	87.249047
_cell_angle_gamma	87.974141
loop_
_atom_site_label
_atom_site_type_symbol
_atom_site_fract_x
_atom_site_fract_y
_atom_site_fract_z
O1	O	1.047298	0.324833	-0.092685
O2	O	0.818974	0.321199	-0.092448
O3	O	0.936864	0.096567	-0.076275
O4	O	0.929408	0.549465	-0.108858
O5	O	0.930374	0.108877	0.061697
O6	O	0.812484	0.333509	0.045524
O7	O	1.040809	0.337143	0.045288
Zn8	Zn	0.925616	0.337280	0.067312
Zn9	Zn	0.934166	0.321061	-0.114473
O10	O	0.922919	0.561775	0.029114
C11	C	0.786465	0.322683	-0.023129
C12	C	0.699266	0.308744	-0.022136
C13	C	0.650518	0.443222	-0.031810
C14	C	0.568585	0.430118	-0.030856
C15	C	0.535403	0.282534	-0.020233
C16	C	0.584158	0.148047	-0.010556
C17	C	0.666088	0.161153	-0.011505
C18	C	0.291202	0.228215	-0.016303
C19	C	0.209265	0.215119	-0.015358
C20	C	0.193698	0.497192	-0.035656
C21	C	0.275631	0.510284	-0.036609
C22	C	0.324378	0.375797	-0.026927
N23	N	0.451655	0.269136	-0.019260
N24	N	0.408124	0.389197	-0.027894
C25	C	0.932457	0.044503	-0.003103
C26	C	0.928985	-0.128973	0.009372
C27	C	1.073318	0.335659	-0.024033
C28	C	1.160516	0.349597	-0.025032
C29	C	0.927325	0.613839	-0.044060
C30	C	0.930797	0.787314	-0.056540
N31	N	0.919786	0.348349	0.191375
N32	N	0.940002	0.309981	-0.238535
C33	C	0.969968	0.252806	0.241948
C34	C	0.965897	0.260565	0.328796
C35	C	0.911649	0.363875	0.365069
C36	C	0.861462	0.459422	0.314490
C37	C	0.865529	0.451654	0.227644
C38	C	0.893882	0.397760	0.624039
C39	C	0.889821	0.405524	0.710892
C40	C	0.994255	0.206664	0.725192
C41	C	0.998321	0.198912	0.638343
C42	C	0.948131	0.294453	0.587772
N43	N	0.907489	0.371812	0.453842
N44	N	0.952288	0.286508	0.499002
H45	H	0.677528	0.563400	-0.040461
F46	F	0.812116	0.553341	0.173822
H47	H	0.528897	0.539624	-0.038734
H48	H	0.302642	0.630461	-0.045268
H49	H	0.557134	0.027882	-0.001895
H50	H	1.042495	0.114789	0.608812
F51	F	0.923475	-0.208761	0.095617
F52	F	1.027711	0.142856	0.203352
H53	H	0.935002	-0.151643	-0.122518
F54	F	0.141813	0.640312	-0.045958
H55	H	1.006758	0.182765	0.369973
F56	F	0.173951	0.058035	-0.004037
H57	H	1.035117	0.128877	0.766375
F58	F	0.832079	0.515491	0.749490
H59	H	0.330882	0.118706	-0.008419
H60	H	0.853017	0.475556	0.582871
H61	H	0.817288	0.543534	0.344029
H62	H	0.705779	0.051647	-0.003627
