data_functionalizedCrystal
_audit_creation_method	'MofGen! by Chris Wilmer'
_symmetry_space_group_name_H-M	'P1'
_symmetry_Int_Tables_number	1
_symmetry_cell_setting	triclinic
loop_
_symmetry_equiv_pos_as_xyz
  x,y,z
_cell_length_a	10.654550
_cell_length_b	14.185328
_cell_length_c	10.654550
_cell_angle_alpha	75.339925
_cell_angle_beta	95.515069
_cell_angle_gamma	104.657809
loop_
_atom_site_label
_atom_site_type_symbol
_atom_site_fract_x
_atom_site_fract_y
_atom_site_fract_z
O1	O	1.693457	0.083346	-0.202012
O2	O	1.327984	0.083364	-0.218824
O3	O	1.519121	0.083348	-0.027677
O4	O	1.502319	0.083362	-0.393160
O5	O	1.467827	-0.083494	0.023602
O6	O	1.276690	-0.083478	-0.167545
O7	O	1.642163	-0.083496	-0.150733
Cu8	Cu	1.454743	-0.098721	-0.154457
Cu9	Cu	1.515404	0.098589	-0.215100
O10	O	1.451025	-0.083480	-0.341881
C11	C	1.255540	-0.000055	-0.191951
C12	C	1.116099	-0.000048	-0.188261
N13	N	1.412087	-0.237498	-0.111803
C14	C	1.036613	-0.000046	-0.300803
C15	C	0.905587	-0.000064	-0.297322
C16	C	0.933545	-0.000080	-0.068747
C17	C	1.064567	-0.000069	-0.072228
C18	C	1.683293	-0.605109	-0.383097
C19	C	1.651011	-0.710136	-0.350768
C20	C	1.497370	-0.710118	-0.197018
C21	C	1.529635	-0.605090	-0.229339
C22	C	1.622599	-0.552594	-0.322378
C23	C	1.468941	-0.552575	-0.168620
C24	C	1.501209	-0.447556	-0.200934
C25	C	1.594171	-0.395052	-0.293966
C26	C	1.654866	-0.447575	-0.354691
C27	C	1.375985	-0.605073	-0.075575
C28	C	1.315290	-0.552557	-0.014856
C29	C	1.347551	-0.447536	-0.047176
C30	C	1.440513	-0.395033	-0.140208
C31	C	1.286856	-0.395013	0.013549
C32	C	1.319123	-0.289994	-0.018764
C33	C	1.472781	-0.290014	-0.172522
C34	C	1.714608	-0.000075	-0.177607
C35	C	1.854051	-0.000076	-0.181299
C36	C	1.492240	-0.000072	0.044760
C37	C	1.488549	-0.000070	0.184203
N38	N	1.558070	0.237366	-0.257745
C39	C	1.477907	-0.000058	-0.414319
C40	C	1.481600	-0.000053	-0.553763
C41	C	1.601089	-0.000076	0.263690
C42	C	1.597616	-0.000063	0.394707
C43	C	1.369053	-0.000045	0.366738
C44	C	1.372529	-0.000050	0.235722
H45	H	0.840874	-0.000065	-0.388964
O46	O	1.718997	-0.000084	0.480443
H47	H	1.795383	0.067904	0.441088
H48	H	1.349723	-0.690586	-0.049260
O49	O	1.726230	-0.000081	0.208125
H50	H	1.712388	-0.068089	0.170021
H51	H	1.274592	-0.000030	0.408702
O52	O	1.716498	-0.766774	-0.416253
H53	H	1.678459	-0.848621	-0.378143
H54	H	1.269697	-0.247235	0.030677
O55	O	1.628993	-0.281780	-0.328931
H56	H	1.667662	-0.253990	-0.241068
H57	H	1.129287	-0.000073	0.019424
O58	O	1.573044	-0.233390	-0.272882
H59	H	1.528105	-0.185565	-0.354539
O60	O	1.215031	-0.609193	0.085491
H61	H	1.247693	-0.589023	0.179414
O62	O	1.251138	-0.000055	0.149977
H63	H	1.169872	-0.000059	0.207815
H64	H	0.891570	-0.000104	0.025725
O65	O	1.092195	-0.000044	-0.425940
H66	H	1.014902	-0.000059	-0.503607
O67	O	1.755125	-0.390936	-0.455050
H68	H	1.849083	-0.411070	-0.422462
O69	O	1.783552	-0.548471	-0.483456
H70	H	1.877509	-0.568605	-0.450867
O71	O	1.397098	-0.766740	-0.096679
H72	H	1.384848	-0.848589	-0.084415
O73	O	1.186593	-0.451637	0.113897
H74	H	1.174350	-0.533486	0.126163
