data_functionalizedCrystal
_audit_creation_method	'MofGen! by Chris Wilmer'
_symmetry_space_group_name_H-M	'P1'
_symmetry_Int_Tables_number	1
_symmetry_cell_setting	triclinic
loop_
_symmetry_equiv_pos_as_xyz
  x,y,z
_cell_length_a	13.635800
_cell_length_b	19.492383
_cell_length_c	15.300833
_cell_angle_alpha	101.558477
_cell_angle_beta	75.827619
_cell_angle_gamma	102.253892
loop_
_atom_site_label
_atom_site_type_symbol
_atom_site_fract_x
_atom_site_fract_y
_atom_site_fract_z
V1	V	1.859427	0.097674	0.281568
O2	O	1.859462	-0.004187	0.275777
O3	O	1.833018	0.193185	0.280056
O4	O	1.769550	0.096394	0.404180
O5	O	1.923369	0.093273	0.150794
V6	V	2.110037	0.085464	0.265876
O7	O	1.970645	0.124458	0.315989
O8	O	2.223917	0.058681	0.231454
O9	O	2.024842	-0.010046	0.267388
O10	O	2.168700	0.187326	0.271666
O11	O	2.104793	0.089865	0.396650
O12	O	2.088310	0.086744	0.143263
V13	V	2.359427	0.097674	0.281568
O14	O	2.359462	-0.004187	0.275777
O15	O	2.333018	0.193185	0.280056
O16	O	2.269550	0.096394	0.404180
O17	O	2.423369	0.093273	0.150794
V18	V	2.610037	0.085464	0.265876
O19	O	2.470645	0.124458	0.315989
O20	O	2.723917	0.058681	0.231454
O21	O	2.524842	-0.010046	0.267388
O22	O	2.668700	0.187326	0.271666
O23	O	2.604793	0.089865	0.396650
O24	O	2.588310	0.086744	0.143263
C25	C	1.757107	0.216461	0.275721
C26	C	1.775720	0.294543	0.275302
C27	C	1.872987	0.334806	0.279614
C28	C	1.890474	0.408174	0.279230
C29	C	1.810694	0.441273	0.274514
C30	C	1.713412	0.401002	0.270207
C31	C	1.695925	0.327636	0.270600
N32	N	1.787541	0.547440	0.218944
N33	N	1.804160	0.617134	0.218569
C34	C	1.863376	0.662318	0.273330
N35	N	1.905364	0.635175	0.328471
N36	N	1.888748	0.565474	0.328842
C37	C	1.829646	0.520825	0.274088
C38	C	1.979610	0.782135	0.277227
C39	C	1.997092	0.855505	0.276848
C40	C	1.820029	0.848330	0.267816
C41	C	1.802548	0.774963	0.268204
C42	C	1.882343	0.741869	0.272906
C43	C	1.676147	0.092994	0.434052
C44	C	1.643291	0.092580	0.534292
C45	C	1.935913	0.966681	0.271718
C46	C	1.917309	0.888599	0.272135
C47	C	1.638896	0.156731	0.594538
C48	C	1.608028	0.156340	0.688723
C49	C	1.581548	0.091797	0.722660
C50	C	1.585946	0.027642	0.662406
C51	C	1.616821	0.028033	0.568223
C52	C	1.521592	0.026830	0.858714
C53	C	1.490714	0.026437	0.952903
C54	C	1.512800	0.155136	0.979214
C55	C	1.543674	0.155528	0.885031
C56	C	1.548069	0.091372	0.824784
C57	C	2.013387	0.090147	0.113386
C58	C	2.035863	0.090558	0.013146
C59	C	1.957550	0.094269	-0.029343
C60	C	1.978677	0.094663	-0.123528
C61	C	2.078119	0.091350	-0.175221
C62	C	2.156437	0.087636	-0.132726
C63	C	2.135307	0.087237	-0.038544
C64	C	2.200472	0.088468	-0.329031
C65	C	2.221603	0.088868	-0.423219
C66	C	2.043841	0.095894	-0.414015
C67	C	2.022712	0.095495	-0.319833
C68	C	2.101032	0.091783	-0.277344
C69	C	2.176147	0.092994	0.434052
C70	C	2.143291	0.092580	0.534292
C71	C	2.257107	0.216461	0.275721
C72	C	2.275720	0.294543	0.275302
C73	C	2.432426	-0.033318	0.271720
C74	C	2.403428	-0.111400	0.272145
C75	C	2.513387	0.090147	0.113386
C76	C	2.535863	0.090558	0.013146
C77	C	2.372993	0.334801	0.279626
C78	C	2.390493	0.408169	0.279246
C79	C	2.310720	0.441278	0.274536
C80	C	2.213439	0.401016	0.270214
C81	C	2.195938	0.327649	0.270600
C82	C	2.478648	-0.151657	0.267823
C83	C	2.451417	-0.225025	0.268208
C84	C	2.348966	-0.258134	0.272920
C85	C	2.273742	-0.217872	0.277239
C86	C	2.300973	-0.144506	0.276848
H87	H	1.937963	0.307867	0.283448
H88	H	1.941741	0.098199	-0.277746
Cl89	Cl	2.281451	0.083470	-0.197711
Cl90	Cl	1.457434	-0.054703	0.995566
H91	H	2.469711	0.440941	0.282763
H92	H	1.604457	0.208578	0.737773
H93	H	2.116729	0.294876	0.267074
H94	H	2.562074	-0.124710	0.263987
H95	H	2.199080	0.084216	-0.003950
Cl96	Cl	1.945382	0.100562	-0.467429
Cl97	Cl	1.573637	0.277017	0.265177
H98	H	2.302576	0.086170	-0.465305
H99	H	2.190324	-0.244840	0.281075
H100	H	2.239713	-0.111733	0.280375
Cl101	Cl	2.473293	0.293195	0.285557
H102	H	2.324984	0.501019	0.274222
Cl103	Cl	2.545999	-0.275625	0.262780
H104	H	1.914908	0.097694	-0.158117
H105	H	2.148493	0.427984	0.266379
H106	H	2.326806	-0.317874	0.273237
Cl107	Cl	2.119379	0.906123	0.282276
Cl108	Cl	2.012763	0.458800	0.284651
Cl109	Cl	1.613115	0.442612	0.264284
H110	H	2.044584	0.755189	0.281054
H111	H	1.755069	0.875279	0.263983
Cl112	Cl	1.832534	0.098439	0.035634
Cl113	Cl	1.680264	0.724343	0.262775
H114	H	1.660448	0.209289	0.566915
H115	H	2.264250	0.085446	-0.294439
H116	H	1.565228	0.208084	0.857403
Cl117	Cl	1.552660	-0.053498	0.705069
H118	H	1.525172	-0.025413	0.809662
Cl119	Cl	1.507218	0.235787	1.054950
H120	H	1.620398	-0.024205	0.519170
