data_functionalizedCrystal
_audit_creation_method	'MofGen! by Chris Wilmer'
_symmetry_space_group_name_H-M	'P1'
_symmetry_Int_Tables_number	1
_symmetry_cell_setting	triclinic
loop_
_symmetry_equiv_pos_as_xyz
  x,y,z
_cell_length_a	19.805407
_cell_length_b	12.759399
_cell_length_c	19.805399
_cell_angle_alpha	89.976347
_cell_angle_beta	89.980427
_cell_angle_gamma	90.015116
loop_
_atom_site_label
_atom_site_type_symbol
_atom_site_fract_x
_atom_site_fract_y
_atom_site_fract_z
Zn1	Zn	1.034789	-0.418291	-0.382738
Zn2	Zn	1.034726	-0.593984	-0.269558
Zn3	Zn	0.921603	-0.418320	-0.269563
Zn4	Zn	0.921589	-0.593928	-0.382704
O5	O	0.978177	-0.506131	-0.326141
O6	O	1.129497	-0.441608	-0.367736
O7	O	1.019700	-0.570717	-0.174842
O8	O	0.936650	-0.271295	-0.284592
O9	O	1.129451	-0.570689	-0.284583
O10	O	1.019807	-0.271273	-0.367741
O11	O	0.936589	-0.441657	-0.174845
O12	O	0.826885	-0.441603	-0.284559
O13	O	0.936626	-0.570594	-0.477425
O14	O	0.826875	-0.570622	-0.367684
O15	O	1.019793	-0.441554	-0.477450
O16	O	1.019686	-0.740998	-0.284551
O17	O	0.936565	-0.740957	-0.367679
C18	C	0.802321	-0.506110	-0.326119
C19	C	0.727089	-0.506127	-0.326126
C20	C	0.691757	-0.573408	-0.369339
C21	C	0.621069	-0.573410	-0.369348
C22	C	0.585713	-0.506135	-0.326141
C23	C	0.621050	-0.438847	-0.282926
C24	C	0.691737	-0.438840	-0.282920
C25	C	0.335977	-0.438870	-0.282948
C26	C	0.265285	-0.438884	-0.282956
C27	C	0.265308	-0.573440	-0.369376
C28	C	0.335995	-0.573433	-0.369370
C29	C	0.371326	-0.506141	-0.326158
C30	C	0.447974	-0.506139	-0.326149
C31	C	0.509066	-0.506143	-0.326146
C32	C	0.978135	-0.779098	-0.326125
C33	C	0.978180	-0.895875	-0.326141
C34	C	1.021510	-0.950723	-0.282906
C35	C	1.021554	-1.060447	-0.282928
C36	C	0.934930	-1.060465	-0.369424
C37	C	0.934891	-0.950743	-0.369405
C38	C	1.101446	-1.210321	-0.258846
C39	C	1.144771	-1.265173	-0.215599
C40	C	1.155188	-1.229620	-0.149559
C41	C	1.122271	-1.139217	-0.126751
C42	C	1.078942	-1.084370	-0.169994
C43	C	1.068537	-1.119922	-0.236044
C44	C	0.854997	-0.800867	-0.393480
C45	C	0.811663	-0.746018	-0.436720
C46	C	0.801239	-0.781569	-0.502762
C47	C	0.834144	-0.871976	-0.525567
C48	C	0.877478	-0.926825	-0.482327
C49	C	0.887903	-0.891266	-0.416286
C50	C	1.154720	-0.506152	-0.326163
C51	C	1.229952	-0.506160	-0.326173
C52	C	0.978215	-0.506064	-0.502684
C53	C	0.978231	-0.506036	-0.577916
C54	C	0.978237	-0.232097	-0.326171
C55	C	0.978263	-0.115321	-0.326184
C56	C	1.021537	-0.438842	-0.613274
C57	C	1.021544	-0.438811	-0.683962
C58	C	0.978248	-0.505981	-0.719291
C59	C	0.934937	-0.573179	-0.683928
C60	C	0.934927	-0.573203	-0.613241
C61	C	0.934975	-0.573081	-0.969002
C62	C	0.934990	-0.573054	-1.039694
C63	C	1.021592	-0.438689	-1.039723
C64	C	1.021582	-0.438713	-0.969036
C65	C	0.978269	-0.505906	-0.933679
C66	C	0.978261	-0.505937	-0.857030
C67	C	0.978259	-0.505957	-0.795938
C68	C	0.978178	-0.506121	-0.150285
C69	C	0.978293	-0.505853	-0.075053
H70	H	0.720538	-0.628195	-0.404521
O71	O	0.231019	-0.638949	-0.411290
C72	C	0.248283	-0.743628	-0.396391
H73	H	0.267685	-0.748823	-0.342309
H74	H	0.289331	-0.771158	-0.432641
C75	C	0.161656	-0.807388	-0.470629
C76	C	0.185480	-0.813770	-0.404202
H77	H	0.122918	-0.850656	-0.475450
H78	H	0.150026	-0.736864	-0.480669
H79	H	0.195869	-0.830328	-0.500829
H80	H	0.151272	-0.790818	-0.374004
H81	H	0.197103	-0.884292	-0.394157
H82	H	0.592258	-0.384066	-0.247749
H83	H	0.899656	-0.627909	-0.584453
H84	H	0.364778	-0.628219	-0.404552
O85	O	0.865110	-0.766512	-0.329282
C86	C	0.844798	-0.844798	-0.283295
H87	H	0.846151	-0.924473	-0.309284
H88	H	0.791255	-0.827830	-0.265205
C89	C	0.891449	-0.747749	-0.190472
C90	C	0.893116	-0.845608	-0.222390
H91	H	0.921251	-0.748247	-0.152901
H92	H	0.905132	-0.695004	-0.221453
H93	H	0.846827	-0.733620	-0.175402
H94	H	0.937735	-0.859729	-0.237466
H95	H	0.879442	-0.898356	-0.191410
H96	H	0.236500	-0.384094	-0.247771
O97	O	0.370186	-0.373471	-0.240910
C98	C	0.323820	-0.314079	-0.202790
H99	H	0.273429	-0.357121	-0.200399
H100	H	0.316317	-0.234343	-0.227670
C101	C	0.413271	-0.245905	-0.133705
C102	C	0.351381	-0.298775	-0.130764
H103	H	0.430272	-0.236460	-0.089277
H104	H	0.444509	-0.285915	-0.159389
H105	H	0.407010	-0.179464	-0.154442
H106	H	0.357645	-0.365219	-0.110035
H107	H	0.320144	-0.258775	-0.105075
O108	O	0.892899	-1.113928	-0.411380
C109	C	0.902234	-1.222533	-0.402138
H110	H	0.924438	-1.237546	-0.349926
H111	H	0.938264	-1.253584	-0.442324
C112	C	0.806494	-1.260505	-0.472411
C113	C	0.833760	-1.278945	-0.408282
H114	H	0.764257	-1.295304	-0.476204
H115	H	0.800206	-1.187336	-0.478640
H116	H	0.836526	-1.286381	-0.505893
H117	H	0.803733	-1.253057	-0.374802
H118	H	0.840042	-1.352111	-0.402048
H119	H	1.056841	-0.384020	-0.940274
H120	H	0.899717	-0.627809	-0.940222
O121	O	0.725956	-0.373456	-0.240875
C122	C	0.679595	-0.314062	-0.202750
H123	H	0.629199	-0.357094	-0.200364
H124	H	0.672099	-0.234319	-0.227623
C125	C	0.769050	-0.245924	-0.133657
C126	C	0.707155	-0.298781	-0.130722
H127	H	0.786052	-0.236492	-0.089228
H128	H	0.800286	-0.285935	-0.159344
H129	H	0.762796	-0.179477	-0.154388
H130	H	0.713412	-0.365231	-0.110000
H131	H	0.675922	-0.258780	-0.105030
H132	H	0.592304	-0.628198	-0.404536
O133	O	1.046861	-0.996655	-0.147841
C134	C	0.976431	-1.011478	-0.151904
H135	H	0.964629	-1.098924	-0.151280
H136	H	0.956726	-0.975449	-0.200755
C137	C	0.956553	-0.850810	-0.091960
C138	C	0.942058	-0.958213	-0.091189
H139	H	0.935349	-0.817950	-0.054511
H140	H	1.004003	-0.840821	-0.089225
H141	H	0.940132	-0.820800	-0.132672
H142	H	0.958486	-0.988224	-0.050481
H143	H	0.894610	-0.968207	-0.093916
O144	O	1.063618	-0.373493	-0.579063
C145	C	1.101853	-0.314197	-0.625433
H146	H	1.074136	-0.310540	-0.675815
H147	H	1.153251	-0.352673	-0.632957
C148	C	1.145671	-0.206880	-0.535981
C149	C	1.111626	-0.202381	-0.597861
H150	H	1.151702	-0.137908	-0.518973
H151	H	1.119913	-0.246831	-0.504740
H152	H	1.188499	-0.238948	-0.542260
H153	H	1.068795	-0.170326	-0.591580
H154	H	1.137376	-0.162422	-0.629100
H155	H	1.056760	-0.906052	-0.247679
O156	O	1.132484	-1.104805	-0.062584
C157	C	1.177772	-1.172614	-0.029302
H158	H	1.209695	-1.215824	-0.068270
H159	H	1.148134	-1.231823	0.002038
C160	C	1.184946	-1.055260	0.065219
C161	C	1.224159	-1.108325	0.017358
H162	H	1.213558	-1.015606	0.094004
H163	H	1.154433	-1.009578	0.042798
H164	H	1.160250	-1.104611	0.091329
H165	H	1.248847	-1.058974	-0.008756
H166	H	1.254677	-1.153999	0.039776
O167	O	1.197221	-1.283065	-0.107583
C168	C	1.173163	-1.386261	-0.099177
H169	H	1.139861	-1.408206	-0.143930
H170	H	1.142444	-1.391429	-0.050598
C171	C	1.274267	-1.435407	-0.040194
C172	C	1.233369	-1.462364	-0.095164
H173	H	1.311405	-1.482352	-0.037716
H174	H	1.290475	-1.365882	-0.045855
H175	H	1.248660	-1.439714	0.000282
H176	H	1.258974	-1.458044	-0.135640
H177	H	1.217167	-1.531891	-0.089510
O178	O	0.909422	-1.014593	-0.504599
C179	C	0.890921	-1.034228	-0.572158
H180	H	0.873065	-0.958272	-0.596652
H181	H	0.848376	-1.094395	-0.573448
C182	C	0.974232	-1.170294	-0.581040
C183	C	0.952307	-1.077002	-0.611127
H184	H	1.012096	-1.196684	-0.605078
H185	H	0.986695	-1.157069	-0.535524
H186	H	0.938772	-1.220422	-0.582118
H187	H	0.987763	-1.026872	-0.610041
H188	H	0.939851	-1.090219	-0.656644
O189	O	1.063542	-0.373563	-0.718413
C190	C	1.054274	-0.387949	-0.788379
H191	H	1.002035	-0.422358	-0.798017
H192	H	1.094416	-0.443881	-0.808449
C193	C	1.124651	-0.239363	-0.812839
C194	C	1.060488	-0.281617	-0.824677
H195	H	1.128487	-0.173774	-0.835230
H196	H	1.130897	-0.229672	-0.765702
H197	H	1.158095	-0.285983	-0.829564
H198	H	1.027046	-0.235003	-0.807944
H199	H	1.054236	-0.291297	-0.871812
O200	O	0.823970	-0.906347	-0.589750
C201	C	0.778657	-0.838565	-0.623020
H202	H	0.779416	-0.758550	-0.597443
H203	H	0.725492	-0.872606	-0.620426
C204	C	0.799018	-0.924901	-0.728828
C205	C	0.799954	-0.826622	-0.697419
H206	H	0.812152	-0.917537	-0.774722
H207	H	0.829544	-0.970570	-0.706414
H208	H	0.754712	-0.953258	-0.726660
H209	H	0.844261	-0.798273	-0.699580
H210	H	0.769435	-0.780948	-0.719835
H211	H	1.056857	-0.383973	-1.068519
O212	O	0.759142	-0.728142	-0.544687
C213	C	0.732312	-0.640743	-0.510393
H214	H	0.767251	-0.618283	-0.467015
H215	H	0.680300	-0.661263	-0.489544
C216	C	0.683154	-0.575482	-0.612973
C217	C	0.726069	-0.547890	-0.559698
H218	H	0.679300	-0.518206	-0.643386
H219	H	0.701228	-0.634365	-0.636077
H220	H	0.639815	-0.592583	-0.595590
H221	H	0.769409	-0.530803	-0.577081
H222	H	0.708003	-0.489001	-0.536598
O223	O	0.892941	-0.638393	-0.718349
C224	C	0.902223	-0.623947	-0.788322
H225	H	0.954468	-0.589544	-0.797991
H226	H	0.862092	-0.567985	-0.808381
C227	C	0.831833	-0.772490	-0.812723
C228	C	0.896002	-0.730244	-0.824599
H229	H	0.827992	-0.838058	-0.835101
H230	H	0.825576	-0.782221	-0.765581
H231	H	0.798397	-0.725845	-0.829439
H232	H	0.929436	-0.776883	-0.807876
H233	H	0.902264	-0.720524	-0.871739
H234	H	1.171572	-1.338780	-0.234176
H235	H	1.092975	-1.239270	-0.312623
H236	H	0.784874	-0.672399	-0.418148
H237	H	0.899730	-0.627754	-1.068457
