data_functionalizedCrystal
_audit_creation_method	'MofGen! by Chris Wilmer'
_symmetry_space_group_name_H-M	'P1'
_symmetry_Int_Tables_number	1
_symmetry_cell_setting	triclinic
loop_
_symmetry_equiv_pos_as_xyz
  x,y,z
_cell_length_a	14.044220
_cell_length_b	14.044220
_cell_length_c	12.503572
_cell_angle_alpha	86.156832
_cell_angle_beta	93.835250
_cell_angle_gamma	93.188878
loop_
_atom_site_label
_atom_site_type_symbol
_atom_site_fract_x
_atom_site_fract_y
_atom_site_fract_z
O1	O	-1.282200	-0.225116	-0.089210
O2	O	-0.948867	0.108217	0.244123
O3	O	-0.615533	0.441550	0.577457
O4	O	-1.005530	-0.216809	-0.089237
O5	O	-0.672197	0.116524	0.244096
O6	O	-0.338863	0.449858	0.577430
O7	O	-1.139712	-0.082627	-0.089213
O8	O	-0.806378	0.250706	0.244120
O9	O	-0.473045	0.584039	0.577453
O10	O	-1.148019	-0.359298	-0.089234
O11	O	-0.814685	-0.025964	0.244100
O12	O	-0.481352	0.307369	0.577433
O13	O	-1.129622	-0.092737	0.089427
O14	O	-0.796289	0.240596	0.422760
O15	O	-0.462955	0.573930	0.756093
O16	O	-0.995440	-0.226918	0.089403
O17	O	-0.662107	0.106415	0.422736
O18	O	-0.328774	0.439748	0.756070
O19	O	-1.272110	-0.235226	0.089430
O20	O	-0.938777	0.098108	0.422763
O21	O	-0.605444	0.431441	0.756097
Cu22	Cu	-1.132854	-0.231995	0.105728
Cu23	Cu	-0.799521	0.101338	0.439061
Cu24	Cu	-0.466187	0.434672	0.772395
Cu25	Cu	-1.144786	-0.220040	-0.105535
Cu26	Cu	-0.811453	0.113294	0.227798
Cu27	Cu	-0.478120	0.446627	0.561132
O28	O	-1.137929	-0.369407	0.089406
O29	O	-0.804595	-0.036074	0.422740
O30	O	-0.471262	0.297259	0.756073
C31	C	-1.131031	-0.052060	0.000107
C32	C	-0.797698	0.281273	0.333440
C33	C	-0.464365	0.614606	0.666773
C34	C	-1.120187	0.054082	0.000107
C35	C	-0.786853	0.387416	0.333440
C36	C	-0.453520	0.720749	0.666774
C37	C	-0.964864	-0.218228	0.000080
C38	C	-0.631530	0.115105	0.333413
C39	C	-0.298197	0.448439	0.666746
C40	C	-0.858721	-0.207383	0.000070
C41	C	-0.525388	0.125951	0.333403
C42	C	-0.192055	0.459284	0.666736
C43	C	-1.312777	-0.233807	0.000111
C44	C	-0.979444	0.099527	0.333444
C45	C	-0.646110	0.432860	0.666778
C46	C	-1.418920	-0.244651	0.000114
C47	C	-1.085586	0.088682	0.333447
C48	C	-0.752253	0.422015	0.666781
C49	C	-0.664382	-0.187558	0.000092
C50	C	-0.331049	0.145776	0.333426
C51	C	0.002284	0.479109	0.666759
C52	C	-0.613253	-0.264472	0.000091
C53	C	-0.279919	0.068861	0.333425
C54	C	0.053414	0.402195	0.666758
C55	C	-0.505116	-0.253441	0.000104
C56	C	-0.171782	0.079892	0.333437
C57	C	0.161551	0.413225	0.666771
C58	C	-0.772529	-0.198587	0.000080
C59	C	-0.439196	0.134746	0.333413
C60	C	-0.105863	0.468079	0.666746
C61	C	-1.146609	-0.399974	0.000084
C62	C	-0.813276	-0.066641	0.333417
C63	C	-0.479943	0.266692	0.666751
C64	C	-1.157454	-0.506117	0.000077
C65	C	-0.824121	-0.172783	0.333410
C66	C	-0.490788	0.160550	0.666743
N67	N	-1.124469	-0.240404	0.254319
N68	N	-0.791135	0.092929	0.587652
N69	N	-0.457802	0.426263	0.920985
C70	C	-1.100361	0.248421	0.000090
C71	C	-0.767028	0.581754	0.333423
C72	C	-0.433695	0.915088	0.666756
C73	C	-1.177275	0.299551	0.000094
C74	C	-0.843942	0.632884	0.333427
C75	C	-0.510609	0.966217	0.666761
C76	C	-1.166244	0.407687	0.000084
C77	C	-0.832911	0.741021	0.333418
C78	C	-0.499578	1.074354	0.666751
C79	C	-1.111391	0.140274	0.000099
C80	C	-0.778058	0.473608	0.333433
C81	C	-0.444724	0.806941	0.666766
N82	N	-1.153179	-0.211624	-0.254126
N83	N	-0.819846	0.121710	0.079208
N84	N	-0.486512	0.455043	0.412541
C85	C	-1.112134	-0.252782	0.473432
C86	C	-0.778800	0.080551	0.806765
C87	C	-0.445467	0.413885	1.140098
C88	C	-1.165511	-0.199249	0.526768
C89	C	-0.832178	0.134085	0.860102
C90	C	-0.498844	0.467418	1.193435
C91	C	-1.158648	-0.206136	0.648690
C92	C	-0.825314	0.127198	0.982024
C93	C	-0.491981	0.460531	1.315357
C94	C	-1.118996	-0.245896	0.351499
C95	C	-0.785662	0.087437	0.684832
C96	C	-0.452329	0.420771	1.018165
H97	H	-0.650692	-0.338605	0.000081
H98	H	-0.317359	-0.005272	0.333414
H99	H	0.015974	0.328062	0.666747
H100	H	-1.061285	-0.303783	0.519330
H101	H	-0.727952	0.029550	0.852663
H102	H	-0.394619	0.362883	1.185997
H103	H	-0.626945	-0.113431	0.000104
H104	H	-0.293612	0.219902	0.333437
H105	H	0.039722	0.553236	0.666770
H106	H	-1.251413	0.262115	0.000029
H107	H	-0.918079	0.595449	0.333362
H108	H	-0.584746	0.928782	0.666696
H109	H	-1.216364	-0.148245	0.480864
H110	H	-0.883030	0.185088	0.814198
H111	H	-0.549697	0.518421	1.147531
Cl112	Cl	-0.985912	0.306222	0.000073
Cl113	Cl	-0.652579	0.639556	0.333407
Cl114	Cl	-0.319246	0.972889	0.666740
