data_functionalizedCrystal
_audit_creation_method	'MofGen! by Chris Wilmer'
_symmetry_space_group_name_H-M	'P1'
_symmetry_Int_Tables_number	1
_symmetry_cell_setting	triclinic
loop_
_symmetry_equiv_pos_as_xyz
  x,y,z
_cell_length_a	6.817900
_cell_length_b	14.712618
_cell_length_c	16.417823
_cell_angle_alpha	84.298978
_cell_angle_beta	103.385419
_cell_angle_gamma	77.863674
loop_
_atom_site_label
_atom_site_type_symbol
_atom_site_fract_x
_atom_site_fract_y
_atom_site_fract_z
V1	V	-4.010897	0.290284	-0.116424
O2	O	-3.999226	0.284427	0.005040
O3	O	-3.962028	0.288617	-0.230317
O4	O	-3.955802	0.416742	-0.114877
O5	O	-4.005495	0.155416	-0.111199
V6	V	-4.495453	0.274114	-0.101867
O7	O	-4.269889	0.325754	-0.148357
O8	O	-4.686658	0.238644	-0.069934
O9	O	-4.321115	0.275781	0.012025
O10	O	-4.624520	0.279971	-0.223331
O11	O	-4.618252	0.408983	-0.107093
O12	O	-4.327341	0.147656	-0.103415
C13	C	-3.807131	0.284120	-0.258073
C14	C	-3.848417	0.283600	-0.351183
C15	C	-3.946606	0.196764	-0.640787
C16	C	-3.907787	0.197238	-0.553298
C17	C	-3.979116	0.367644	-0.577516
C18	C	-4.017920	0.367169	-0.665003
C19	C	-4.001673	0.281727	-0.696637
C20	C	-3.924050	0.282675	-0.521660
C21	C	-3.881961	0.283189	-0.426801
C22	C	-4.043761	0.281212	-0.791502
C23	C	-4.147296	0.116839	-0.107477
C24	C	-4.090300	0.013456	-0.107984
C25	C	-3.881704	-0.365107	-0.109882
C26	C	-3.939750	-0.259780	-0.109354
C27	C	-3.986001	-0.175829	-0.108934
C28	C	-4.044049	-0.070495	-0.108404
C29	C	-3.799189	0.447555	-0.110818
C30	C	-3.835424	0.550936	-0.110306
C31	C	-4.139354	0.280276	0.039777
C32	C	-4.077306	0.280802	0.132887
H33	H	-3.992343	0.437208	-0.551750
C34	C	-4.078501	0.460639	-0.726442
N35	N	-4.124124	0.531038	-0.772717
H36	H	-3.933368	0.127191	-0.666540
H37	H	-3.862945	0.128053	-0.507828
