data_functionalizedCrystal
_audit_creation_method	'MofGen! by Chris Wilmer'
_symmetry_space_group_name_H-M	'P1'
_symmetry_Int_Tables_number	1
_symmetry_cell_setting	triclinic
loop_
_symmetry_equiv_pos_as_xyz
  x,y,z
_cell_length_a	11.792241
_cell_length_b	17.699083
_cell_length_c	16.176319
_cell_angle_alpha	89.998611
_cell_angle_beta	90.006929
_cell_angle_gamma	96.261785
loop_
_atom_site_label
_atom_site_type_symbol
_atom_site_fract_x
_atom_site_fract_y
_atom_site_fract_z
O1	O	0.143527	-1.004844	0.068631
O2	O	0.643527	-0.504844	0.568631
O3	O	0.162200	-0.784565	0.068658
O4	O	0.662200	-0.284565	0.568658
O5	O	-0.012371	-0.900050	0.068638
O6	O	0.487629	-0.400050	0.568638
O7	O	0.318098	-0.889359	0.068651
O8	O	0.818098	-0.389359	0.568651
O9	O	-0.012382	-0.900034	-0.068855
O10	O	0.487618	-0.400034	0.431145
O11	O	0.162189	-0.784549	-0.068835
O12	O	0.662189	-0.284549	0.431165
O13	O	0.143516	-1.004828	-0.068862
O14	O	0.643516	-0.504828	0.431138
Cu15	Cu	0.152851	-0.894687	-0.081403
Cu16	Cu	0.652851	-0.394687	0.418597
Cu17	Cu	0.152865	-0.894706	0.081199
Cu18	Cu	0.652865	-0.394706	0.581199
O19	O	0.318087	-0.889343	-0.068842
O20	O	0.818087	-0.389343	0.431158
C21	C	-0.054660	-0.899370	-0.000108
C22	C	0.445340	-0.399370	0.499892
C23	C	-0.180649	-0.897360	-0.000107
C24	C	0.319351	-0.397360	0.499893
C25	C	0.161525	-0.756356	-0.000085
C26	C	0.661525	-0.256356	0.499915
C27	C	0.159518	-0.672328	-0.000075
C28	C	0.659518	-0.172328	0.499925
C29	C	0.144190	-1.033036	-0.000117
C30	C	0.644190	-0.533036	0.499883
C31	C	0.146198	-1.117065	-0.000122
C32	C	0.646198	-0.617065	0.499878
C33	C	-0.411317	-0.893664	-0.000093
C34	C	0.088683	-0.393664	0.499907
C35	C	-0.282956	-0.895718	-0.000101
C36	C	0.217044	-0.395718	0.499899
C37	C	0.360375	-0.890022	-0.000094
C38	C	0.860375	-0.390022	0.499906
C39	C	0.486365	-0.892032	-0.000090
C40	C	0.986365	-0.392032	0.499910
N41	N	0.152841	-0.894679	-0.195768
N42	N	0.652841	-0.394679	0.304232
C43	C	0.261988	-0.624253	-0.000071
C44	C	0.761988	-0.124253	0.499929
C45	C	0.260095	-0.545299	-0.000082
C46	C	0.760095	-0.045299	0.499918
C47	C	0.155731	-0.514422	-0.000091
C48	C	0.655731	-0.014422	0.499909
C49	C	0.053254	-0.562503	-0.000097
C50	C	0.553254	-0.062503	0.499903
C51	C	0.055148	-0.641455	-0.000092
C52	C	0.555148	-0.141455	0.499908
C53	C	0.045613	-0.244099	-0.000118
C54	C	0.545613	0.255901	0.499882
C55	C	0.043727	-0.165141	-0.000120
C56	C	0.543727	0.334859	0.499880
C57	C	0.250560	-0.147944	-0.000108
C58	C	0.750560	0.352056	0.499892
C59	C	0.252454	-0.226896	-0.000103
C60	C	0.752454	0.273104	0.499897
C61	C	0.149977	-0.274970	-0.000113
C62	C	0.649977	0.225030	0.499887
C63	C	0.152031	-0.360580	-0.000103
C64	C	0.652031	0.139420	0.499897
C65	C	0.153676	-0.428814	-0.000095
C66	C	0.653676	0.071186	0.499905
C67	C	0.075573	-0.945831	-0.239041
C68	C	0.575573	-0.445831	0.260959
C69	C	0.075572	-0.945835	-0.325588
C70	C	0.575572	-0.445835	0.174412
C71	C	0.152845	-0.894690	-0.368861
C72	C	0.652845	-0.394690	0.131139
C73	C	0.230118	-0.843532	-0.325582
C74	C	0.730118	-0.343532	0.174418
C75	C	0.230113	-0.843525	-0.239036
C76	C	0.730113	-0.343525	0.260964
C77	C	0.230139	-0.843558	-0.674610
C78	C	0.730139	-0.343558	-0.174610
C79	C	0.230140	-0.843570	-0.761161
C80	C	0.730140	-0.343570	-0.261161
C81	C	0.075598	-0.945868	-0.761162
C82	C	0.575598	-0.445868	-0.261162
C83	C	0.075593	-0.945861	-0.674617
C84	C	0.575593	-0.445861	-0.174617
C85	C	0.152861	-0.894701	-0.631345
C86	C	0.652861	-0.394701	-0.131345
C87	C	0.152860	-0.894697	-0.537501
C88	C	0.652860	-0.394697	-0.037501
C89	C	0.152853	-0.894697	-0.462703
C90	C	0.652853	-0.394697	0.037297
N91	N	0.152865	-0.894720	0.195564
N92	N	0.652865	-0.394720	0.695564
H93	H	0.346973	-0.649386	-0.000064
H94	H	0.846973	-0.149386	0.499936
O95	O	-0.055371	-0.693313	-0.000093
O96	O	0.444629	-0.193313	0.499907
H97	H	-0.128261	-0.658580	-0.000093
H98	H	0.371739	-0.158580	0.499907
H99	H	0.012653	-0.987483	-0.203814
H100	H	0.512653	-0.487483	0.296186
O101	O	-0.064915	-0.295941	-0.000123
O102	O	0.435085	0.204059	0.499877
H103	H	-0.046074	-0.356030	-0.000128
H104	H	0.453926	0.143970	0.499872
O105	O	0.313483	-0.788388	-0.627942
O106	O	0.813483	-0.288388	-0.127942
H107	H	0.367225	-0.752833	-0.672575
H108	H	0.867225	-0.252833	-0.172575
O109	O	-0.068841	-0.131834	-0.000143
O110	O	0.431159	0.368166	0.499857
H111	H	-0.139783	-0.178526	-0.000161
H112	H	0.360217	0.321474	0.499839
O113	O	-0.059315	-0.529206	-0.000109
O114	O	0.440685	-0.029206	0.499891
H115	H	-0.043419	-0.466229	-0.000104
H116	H	0.456581	0.033771	0.499896
O117	O	-0.007747	-1.001020	-0.372265
O118	O	0.492253	-0.501020	0.127735
H119	H	-0.061464	-1.036594	-0.327635
H120	H	0.438536	-0.536594	0.172365
O121	O	-0.007757	-1.001020	-0.627942
O122	O	0.492243	-0.501020	-0.127942
H123	H	-0.061498	-1.036586	-0.672573
H124	H	0.438502	-0.536586	-0.172573
O125	O	0.313438	-0.788340	-0.192363
O126	O	0.813438	-0.288340	0.307637
H127	H	0.300439	-0.796917	-0.124913
H128	H	0.800439	-0.296917	0.375087
H129	H	0.012679	-0.987523	-0.796403
H130	H	0.512679	-0.487523	-0.296403
O131	O	0.313510	-0.788411	-0.807830
O132	O	0.813510	-0.288411	-0.307830
H133	H	0.299163	-0.729348	-0.791243
H134	H	0.799163	-0.229348	-0.291243
O135	O	0.370614	-0.493444	-0.000078
O136	O	0.870614	0.006556	0.499922
H137	H	0.443502	-0.528179	-0.000062
H138	H	0.943502	-0.028179	0.499938
O139	O	0.365016	-0.260201	-0.000106
O140	O	0.865016	0.239799	0.499894
H141	H	0.435954	-0.213506	-0.000117
H142	H	0.935954	0.286494	0.499883
H143	H	0.293032	-0.801884	-0.360819
H144	H	0.793032	-0.301884	0.139181
H145	H	0.334002	-0.108792	-0.000103
H146	H	0.834002	0.391208	0.499897
