data_functionalizedCrystal
_audit_creation_method	'MofGen! by Chris Wilmer'
_symmetry_space_group_name_H-M	'P1'
_symmetry_Int_Tables_number	1
_symmetry_cell_setting	triclinic
loop_
_symmetry_equiv_pos_as_xyz
  x,y,z
_cell_length_a	10.654537
_cell_length_b	10.489711
_cell_length_c	9.730217
_cell_angle_alpha	89.999568
_cell_angle_beta	90.000508
_cell_angle_gamma	84.504493
loop_
_atom_site_label
_atom_site_type_symbol
_atom_site_fract_x
_atom_site_fract_y
_atom_site_fract_z
O1	O	-1.667907	-0.179119	-0.114250
O2	O	-1.302433	-0.196198	-0.114257
O3	O	-1.493506	-0.002054	-0.114257
O4	O	-1.476835	-0.373263	-0.114250
O5	O	-1.493500	-0.002052	0.114323
O6	O	-1.302428	-0.196196	0.114323
O7	O	-1.667901	-0.179117	0.114331
Zn8	Zn	-1.485163	-0.187656	0.150619
Zn9	Zn	-1.485171	-0.187659	-0.150545
O10	O	-1.476829	-0.373261	0.114330
C11	C	-1.255632	-0.194945	0.000032
C12	C	-1.116187	-0.191199	0.000028
C13	C	-1.492252	0.045479	0.000029
C14	C	-1.488508	0.187108	0.000018
C15	C	-1.088300	-0.423347	0.000016
C16	C	-1.008847	-0.537656	0.000004
C17	C	-0.877828	-0.534128	0.000004
C18	C	-0.826259	-0.416279	0.000019
C19	C	-0.905712	-0.301970	0.000030
C20	C	-1.036733	-0.305510	0.000027
C21	C	-0.933599	-0.069824	0.000053
C22	C	-1.064619	-0.073349	0.000043
C23	C	-0.882031	0.048025	0.000068
C24	C	-0.961484	0.162337	0.000070
C25	C	-1.092511	0.158804	0.000068
C26	C	-1.144072	0.040960	0.000055
C27	C	-0.714702	-0.180374	0.000041
C28	C	-0.854146	-0.184133	0.000041
C29	C	-1.478083	-0.420793	0.000041
C30	C	-1.481826	-0.562423	0.000044
C31	C	-1.603413	0.369553	0.000034
C32	C	-1.546014	0.277381	0.112733
C33	C	-1.545989	0.277403	-0.112629
C34	C	-1.424376	0.347270	0.112836
C35	C	-1.424368	0.347302	-0.112627
C36	C	-1.366880	0.255157	0.000100
N37	N	-1.485167	-0.187654	0.356155
N38	N	-1.485177	-0.187651	-0.356082
C39	C	-1.654432	-0.015790	0.356146
C40	C	-1.739072	0.070139	0.428081
C41	C	-1.739085	0.070139	0.571961
C42	C	-1.654446	-0.015795	0.643909
C43	C	-1.569805	-0.101723	0.571974
C44	C	-1.569804	-0.101717	0.428091
C45	C	-1.400537	-0.273579	0.571983
C46	C	-1.400528	-0.273588	0.428103
C47	C	-1.315897	-0.359513	0.643930
C48	C	-1.231260	-0.445450	0.571995
C49	C	-1.231252	-0.445448	0.428107
C50	C	-1.315887	-0.359516	0.356168
H51	H	-1.194982	-0.426231	-0.000015
Cl52	Cl	-1.073682	-0.685802	-0.000016
Cl53	Cl	-1.654446	-0.015777	0.824788
H54	H	-1.315906	-0.359504	0.761085
H55	H	-1.372969	0.378054	0.208222
Cl56	Cl	-1.124833	-0.553472	0.337687
H57	H	-1.597459	0.246421	0.208015
H58	H	-0.719575	-0.413417	0.000035
H59	H	-1.162347	-0.515406	0.630584
H60	H	-1.250753	0.038072	0.000037
Cl61	Cl	-1.315889	-0.359511	0.175289
Cl62	Cl	-1.757703	0.446356	0.000204
H63	H	-1.266855	0.205641	0.000161
Cl64	Cl	-0.896648	0.310473	0.000100
H65	H	-1.597460	0.246469	-0.207906
Cl66	Cl	-0.777940	-0.677832	0.000003
Cl67	Cl	-1.654441	-0.015798	0.175267
H68	H	-0.775346	0.050889	0.000075
H69	H	-1.157195	0.251889	0.000083
H70	H	-1.807983	0.140108	0.369489
Cl71	Cl	-1.345007	0.395161	-0.259742
Cl72	Cl	-1.845485	0.178171	0.662396
