data_functionalizedCrystal
_audit_creation_method	'MofGen! by Chris Wilmer'
_symmetry_space_group_name_H-M	'P1'
_symmetry_Int_Tables_number	1
_symmetry_cell_setting	triclinic
loop_
_symmetry_equiv_pos_as_xyz
  x,y,z
_cell_length_a	21.295417
_cell_length_b	12.759401
_cell_length_c	12.759393
_cell_angle_alpha	90.020220
_cell_angle_beta	89.961624
_cell_angle_gamma	89.973415
loop_
_atom_site_label
_atom_site_type_symbol
_atom_site_fract_x
_atom_site_fract_y
_atom_site_fract_z
Zn1	Zn	-0.250643	-1.606142	-0.593968
Zn2	Zn	-0.355925	-1.605987	-0.418265
Zn3	Zn	-0.250667	-1.430443	-0.418303
Zn4	Zn	-0.355871	-1.430384	-0.593902
O5	O	-0.303277	-1.518239	-0.506109
O6	O	-0.264622	-1.753143	-0.570673
O7	O	-0.341996	-1.582661	-0.271249
O8	O	-0.162574	-1.453840	-0.441649
O9	O	-0.341972	-1.753029	-0.441584
O10	O	-0.162557	-1.582925	-0.570709
O11	O	-0.264663	-1.453690	-0.271277
O12	O	-0.264610	-1.283415	-0.441585
O13	O	-0.341879	-1.453739	-0.740932
O14	O	-0.341903	-1.283371	-0.570596
O15	O	-0.264569	-1.582867	-0.740981
O16	O	-0.444008	-1.582604	-0.441520
O17	O	-0.443968	-1.453589	-0.570560
C18	C	-0.303253	-1.245272	-0.506088
C19	C	-0.303259	-1.128495	-0.506104
C20	C	-0.263056	-1.073686	-0.573423
C21	C	-0.263065	-0.963961	-0.573427
C22	C	-0.343483	-0.963867	-0.438789
C23	C	-0.343471	-1.073589	-0.438781
C24	C	-0.222844	-1.128592	-0.640745
C25	C	-0.182639	-1.073782	-0.708071
C26	C	-0.182647	-0.964058	-0.708075
C27	C	-0.222861	-0.909144	-0.640753
C28	C	-0.466828	-1.518102	-0.506051
C29	C	-0.536796	-1.518139	-0.506062
C30	C	-0.569663	-1.585376	-0.438939
C31	C	-0.635405	-1.585426	-0.438963
C32	C	-0.668279	-1.518218	-0.506098
C33	C	-0.635404	-1.450976	-0.573233
C34	C	-0.569663	-1.450936	-0.573215
N35	N	-0.771540	-1.426311	-0.514100
N36	N	-0.833992	-1.426352	-0.514111
C37	C	-0.866353	-1.518336	-0.506158
N38	N	-0.833905	-1.610280	-0.498173
N39	N	-0.771447	-1.610238	-0.498156
C40	C	-0.739564	-1.518255	-0.506125
C41	C	-0.970506	-1.585633	-0.439058
C42	C	-1.036249	-1.585684	-0.439089
C43	C	-1.036247	-1.451225	-0.573353
C44	C	-0.970504	-1.451183	-0.573328
C45	C	-0.937638	-1.518386	-0.506175
C46	C	-0.139086	-1.518406	-0.506191
C47	C	-0.069118	-1.518477	-0.506226
C48	C	-0.303215	-1.518314	-0.780143
C49	C	-0.303189	-1.518346	-0.896920
C50	C	-0.303293	-0.792273	-0.506125
C51	C	-0.303279	-0.909049	-0.506116
C52	C	-0.262892	-1.451234	-1.061521
C53	C	-0.262914	-1.451211	-0.951796
C54	C	-0.343440	-1.585516	-0.951773
C55	C	-0.343414	-1.585544	-1.061495
C56	C	-0.222618	-1.384088	-1.116392
C57	C	-0.182366	-1.316919	-1.061546
C58	C	-0.182389	-1.316895	-0.951822
C59	C	-0.222663	-1.384041	-0.896943
C60	C	-0.303292	-1.518225	-0.233142
C61	C	-0.303141	-1.518397	-0.116366
H62	H	-0.149895	-1.118500	-0.762875
H63	H	-0.662174	-1.396257	-0.627896
H64	H	-0.222596	-1.384098	-1.205735
H65	H	-0.662171	-1.640182	-0.384305
O66	O	-0.143185	-1.251666	-1.114688
C67	C	-0.107675	-1.192364	-1.042747
H68	H	-0.105515	-1.235384	-0.964541
H69	H	-0.130724	-1.112547	-1.031053
C70	C	-0.043321	-1.124458	-1.181657
C71	C	-0.040664	-1.177300	-1.085605
H72	H	-0.001986	-1.115161	-1.208095
H73	H	-0.067247	-1.164407	-1.230126
H74	H	-0.062531	-1.057949	-1.171899
H75	H	-0.021461	-1.243812	-1.095367
H76	H	-0.016733	-1.137361	-1.037139
H77	H	-0.542905	-1.640099	-0.384262
H78	H	-0.943743	-1.396428	-0.627981
O79	O	-0.382636	-0.910641	-0.373457
C80	C	-0.445389	-0.937415	-0.396241
H81	H	-0.446713	-1.017099	-0.436614
H82	H	-0.466635	-0.875678	-0.450200
C83	C	-0.481823	-0.844548	-0.244115
C84	C	-0.483449	-0.942422	-0.293694
H85	H	-0.505301	-0.847632	-0.180860
H86	H	-0.439545	-0.826506	-0.228766
H87	H	-0.499527	-0.793111	-0.289091
H88	H	-0.465738	-0.993854	-0.248723
H89	H	-0.525725	-0.960473	-0.309033
H90	H	-0.376188	-1.640236	-1.106151
O91	O	-0.143310	-1.251752	-0.898381
C92	C	-0.151976	-1.266104	-0.789771
H93	H	-0.172598	-1.347162	-0.774782
H94	H	-0.185503	-1.203749	-0.758610
C95	C	-0.062967	-1.156960	-0.751880
C96	C	-0.088290	-1.256521	-0.733470
H97	H	-0.023684	-1.151044	-0.717149
H98	H	-0.057129	-1.147287	-0.825053
H99	H	-0.090912	-1.105008	-0.725913
H100	H	-0.060349	-1.308469	-0.759448
H101	H	-0.094122	-1.266202	-0.660300
H102	H	-0.376207	-1.118216	-0.383964
O103	O	-0.537831	-1.385516	-0.638451
C104	C	-0.580939	-1.326228	-0.697737
H105	H	-0.627827	-1.322642	-0.654718
H106	H	-0.587869	-1.364666	-0.777566
C107	C	-0.497742	-1.218792	-0.765611
C108	C	-0.555329	-1.214379	-0.712770
H109	H	-0.481944	-1.149800	-0.774888
H110	H	-0.468698	-1.258737	-0.725672
H111	H	-0.503524	-1.250828	-0.832129
H112	H	-0.549544	-1.182356	-0.646249
H113	H	-0.584371	-1.174426	-0.752698
O114	O	-0.938507	-1.650970	-0.373982
C115	C	-0.900424	-1.718787	-0.433846
H116	H	-0.890551	-1.681682	-0.513427
H117	H	-0.925715	-1.796655	-0.445471
C118	C	-0.850125	-1.783377	-0.278289
C119	C	-0.837994	-1.737799	-0.376029
H120	H	-0.811616	-1.795110	-0.242624
H121	H	-0.875783	-1.737691	-0.237957
H122	H	-0.871202	-1.848262	-0.287991
H123	H	-0.816925	-1.672910	-0.366326
H124	H	-0.812331	-1.783475	-0.416359
O125	O	-0.143573	-0.910977	-0.773566
C126	C	-0.108068	-0.982972	-0.832960
H127	H	-0.133848	-1.061173	-0.836510
H128	H	-0.060230	-0.994651	-0.794639
C129	C	-0.067419	-0.844153	-0.940449
C130	C	-0.099085	-0.940199	-0.944817
H131	H	-0.061875	-0.817768	-1.009446
H132	H	-0.091337	-0.795648	-0.900432
H133	H	-0.027557	-0.853899	-0.908510
H134	H	-0.138950	-0.930450	-0.976743
H135	H	-0.075174	-0.988702	-0.984842
O136	O	-1.068081	-1.651037	-0.373785
C137	C	-1.024971	-1.710356	-0.314532
H138	H	-0.978132	-1.667293	-0.310844
H139	H	-1.017917	-1.790127	-0.353067
C140	C	-1.108207	-1.778457	-0.207266
C141	C	-1.050681	-1.725562	-0.202728
H142	H	-1.124066	-1.787841	-0.138302
H143	H	-1.137251	-1.738496	-0.247188
H144	H	-1.102321	-1.844927	-0.239383
H145	H	-1.056568	-1.659088	-0.170624
H146	H	-1.021637	-1.765512	-0.162799
H147	H	-1.063012	-1.396508	-0.628020
O148	O	-0.382544	-1.650631	-0.898304
C149	C	-0.373925	-1.636221	-0.789700
H150	H	-0.353304	-1.555158	-0.774719
H151	H	-0.340417	-1.698565	-0.758582
C152	C	-0.462959	-1.745326	-0.751738
C153	C	-0.437637	-1.645760	-0.733338
H154	H	-0.502258	-1.751215	-0.716969
H155	H	-0.468765	-1.755038	-0.824907
H156	H	-0.435029	-1.797268	-0.725806
H157	H	-0.465562	-1.593820	-0.759281
H158	H	-0.431837	-1.636039	-0.660172
H159	H	-0.222851	-0.819799	-0.640739
H160	H	-0.222832	-1.217935	-0.640750
H161	H	-0.222674	-1.384023	-0.807599
