data_functionalizedCrystal
_audit_creation_method	'MofGen! by Chris Wilmer'
_symmetry_space_group_name_H-M	'P1'
_symmetry_Int_Tables_number	1
_symmetry_cell_setting	triclinic
loop_
_symmetry_equiv_pos_as_xyz
  x,y,z
_cell_length_a	23.096457
_cell_length_b	27.440280
_cell_length_c	23.096457
_cell_angle_alpha	90.005172
_cell_angle_beta	60.000788
_cell_angle_gamma	60.002725
loop_
_atom_site_label
_atom_site_type_symbol
_atom_site_fract_x
_atom_site_fract_y
_atom_site_fract_z
Zr1	Zr	0.633642	0.469553	-0.075889
O2	O	0.754435	0.391743	-0.168346
O3	O	0.512857	0.493399	-0.047549
O4	O	0.633639	0.493407	-0.168335
O5	O	0.633653	0.391737	0.047721
O6	O	0.633628	0.573610	-0.168323
O7	O	0.633653	0.391735	-0.047560
O8	O	0.417571	0.573596	0.047741
O9	O	0.849710	0.391751	-0.168342
O10	O	0.562527	0.563433	-0.035450
O11	O	0.562535	0.503580	0.035649
O12	O	0.704740	0.503589	-0.106561
O13	O	0.704748	0.443736	-0.035463
Zr14	Zr	0.633624	0.597471	0.076093
Zr15	Zr	0.633625	0.597468	-0.075870
Zr16	Zr	0.633642	0.469557	0.076074
Zr17	Zr	0.785595	0.469566	-0.075884
Zr18	Zr	0.481672	0.597458	0.076087
O19	O	0.754409	0.573625	0.047753
O20	O	0.754410	0.573620	-0.168319
O21	O	0.754435	0.391747	0.047726
O22	O	0.512831	0.675281	0.168549
O23	O	0.512832	0.675277	-0.047522
O24	O	0.512857	0.493404	0.168522
O25	O	0.633614	0.675287	-0.047518
O26	O	0.633627	0.573617	0.168539
O27	O	0.633638	0.493414	0.168527
O28	O	0.633613	0.675289	0.047764
O29	O	0.849696	0.493425	-0.168327
O30	O	0.417571	0.573599	0.168531
O31	O	0.417557	0.675273	0.168546
O32	O	0.417557	0.675271	0.047756
O33	O	0.849710	0.391753	-0.047552
O34	O	0.849695	0.493428	-0.047537
O35	O	0.562526	0.563435	0.106765
O36	O	0.562518	0.623288	0.035666
O37	O	0.704732	0.563445	-0.035445
O38	O	0.704740	0.503592	0.035654
C39	C	0.443564	0.533496	0.000095
C40	C	0.379057	0.533491	0.000093
C41	C	0.296265	0.577677	0.052586
C42	C	0.235643	0.577681	0.052593
C43	C	0.257818	0.533503	0.000095
C44	C	0.340624	0.489309	-0.052403
C45	C	0.401243	0.489303	-0.052404
N46	N	0.201710	0.520136	-0.062153
N47	N	0.144121	0.520146	-0.062149
C48	C	0.075179	0.533519	0.000096
N49	N	0.065994	0.546894	0.062342
N50	N	0.123586	0.546887	0.062338
C51	C	0.192093	0.533505	0.000091
C52	C	-0.073349	0.577712	0.052601
C53	C	-0.133970	0.577712	0.052608
C54	C	-0.028986	0.489343	-0.052393
C55	C	0.031632	0.489341	-0.052394
C56	C	0.009445	0.533528	0.000102
C57	C	0.633656	0.373511	0.000078
C58	C	0.633663	0.319208	0.000070
C59	C	0.559386	0.013748	0.037241
C60	C	0.559381	-0.037270	0.037247
O61	O	0.496248	-0.037092	0.068837
N62	N	0.633614	-0.094025	0.000127
C63	C	0.707857	-0.099760	-0.036996
O64	O	0.770998	-0.152719	-0.068568
C65	C	0.707861	-0.048743	-0.036998
C66	C	0.633623	0.008011	0.000119
C67	C	0.485154	0.070500	0.074355
C68	C	0.485159	0.121514	0.074347
C69	C	0.559396	0.115778	0.037226
C70	C	0.633627	0.059026	0.000111
C71	C	0.782102	-0.054479	-0.074116
C72	C	0.782100	-0.003455	-0.074114
C73	C	0.707862	0.053299	-0.036997
C74	C	0.707869	0.104304	-0.037018
N75	N	0.633636	0.161059	0.000102
C76	C	0.559399	0.166796	0.037224
C77	C	0.707844	-0.206899	-0.036988
C78	C	0.707841	-0.257916	-0.036991
C79	C	0.559365	-0.195423	0.037253
C80	C	0.559369	-0.144405	0.037251
C81	C	0.633610	-0.150144	0.000132
C82	C	0.559415	0.273928	0.037205
C83	C	0.559426	0.324945	0.037192
C84	C	0.707902	0.262447	-0.037049
C85	C	0.707891	0.211434	-0.037039
C86	C	0.633641	0.217179	0.000093
O87	O	0.770970	0.104172	-0.068589
O88	O	0.496269	0.219756	0.068799
C89	C	0.823702	0.533528	0.000109
C90	C	0.888210	0.533534	0.000111
C91	C	0.633634	0.533508	-0.189980
C92	C	0.633634	0.533507	-0.254492
C93	C	0.633611	0.693513	0.000126
C94	C	0.633603	0.747816	0.000134
C95	C	0.633649	0.489329	-0.715014
C96	C	0.633643	0.489329	-0.654396
C97	C	0.633637	0.533513	-0.624077
C98	C	0.633617	0.577709	-0.654371
C99	C	0.633615	0.577711	-0.714985
N100	N	0.679989	0.546894	-0.552079
N101	N	0.679993	0.546888	-0.494500
C102	C	0.633643	0.533509	-0.441450
N103	N	0.587299	0.520125	-0.448161
N104	N	0.587299	0.520128	-0.505747
C105	C	0.633640	0.533515	-0.558351
C106	C	0.633651	0.489318	-0.345430
C107	C	0.633641	0.489322	-0.284808
C108	C	0.633623	0.577700	-0.284789
C109	C	0.633626	0.577698	-0.345406
C110	C	0.633644	0.533504	-0.375725
C111	C	0.633633	0.533516	0.190184
C112	C	0.633633	0.533517	0.254696
C113	C	0.443542	0.693497	0.000119
C114	C	0.379027	0.747795	0.000125
C115	C	0.443564	0.533500	0.190177
C116	C	0.379056	0.533496	0.254687
C117	C	0.443542	0.693501	0.190201
C118	C	0.379026	0.747800	0.254719
C119	C	0.823725	0.373523	-0.189997
C120	C	0.888240	0.319224	-0.254515
C121	C	0.823725	0.373527	0.000085
C122	C	0.888240	0.319230	0.000079
C123	C	0.823703	0.533524	-0.189974
C124	C	0.888211	0.533528	-0.254483
C125	C	0.348734	0.742049	-0.037001
C126	C	0.288124	0.793062	-0.037010
C127	C	0.257803	0.849821	0.000112
C128	C	0.288101	0.855565	0.037239
C129	C	0.348715	0.804552	0.037243
C130	C	0.348758	0.564738	0.322110
C131	C	0.288154	0.564732	0.382730
C132	C	0.257846	0.533487	0.375925
C133	C	0.288150	0.502241	0.308495
C134	C	0.348756	0.502244	0.247877
C135	C	0.348725	0.804547	0.247905
C136	C	0.288114	0.855572	0.308520
C137	C	0.257802	0.849847	0.375950
C138	C	0.288109	0.793094	0.382763
C139	C	0.348723	0.742071	0.322148
C140	C	0.918549	0.262477	-0.247701
C141	C	0.979179	0.211452	-0.308317
C142	C	1.009494	0.217177	-0.375746
C143	C	0.979183	0.273930	-0.382559
C144	C	0.918559	0.324953	-0.321944
C145	C	0.918539	0.324975	0.037198
C146	C	0.979166	0.273962	0.037190
C147	C	1.009489	0.217203	0.000067
C148	C	0.979188	0.211459	-0.037057
C149	C	0.918566	0.262472	-0.037053
C150	C	0.918500	0.564780	-0.247656
C151	C	0.979104	0.564795	-0.308264
C152	C	1.009422	0.533555	-0.375699
C153	C	0.979126	0.502303	-0.382525
C154	C	0.918519	0.502291	-0.321918
H155	H	0.358675	0.453339	-0.095146
H156	H	0.893898	0.257785	-0.067278
H157	H	0.373371	0.809239	0.067479
H158	H	0.633618	0.613679	-0.370072
C159	C	0.633659	0.440723	-0.748360
H160	H	0.633661	0.447049	-0.788801
H161	H	0.586174	0.442548	-0.714683
H162	H	0.681161	0.402582	-0.762183
C163	C	0.191175	0.533492	0.442609
H164	H	0.177470	0.556580	0.483736
H165	H	0.211039	0.493690	0.442617
H166	H	0.143874	0.550224	0.442620
C167	C	0.254804	0.467876	0.301015
H168	H	0.281528	0.449264	0.252179
H169	H	0.197576	0.494845	0.323129
H170	H	0.264749	0.438310	0.323116
H171	H	0.373417	0.476804	0.192980
H172	H	0.468659	0.453319	-0.095149
H173	H	1.003820	0.476869	-0.437439
H174	H	0.263405	0.901784	0.067461
H175	H	0.373428	0.590182	0.327664
H176	H	0.633601	0.613696	-0.739647
C177	C	0.382060	0.810856	0.173740
H178	H	0.355332	0.851963	0.178374
H179	H	0.372127	0.792253	0.148545
H180	H	0.439290	0.792253	0.148553
C181	C	0.254761	0.917994	0.301017
H182	H	0.214320	0.947565	0.346771
H183	H	0.231114	0.922449	0.275836
H184	H	0.298269	0.922478	0.275824
H185	H	0.893864	0.476840	-0.327487
C186	C	0.254824	0.599110	0.456893
H187	H	0.281547	0.617726	0.452258
H188	H	0.264766	0.572150	0.482085
H189	H	0.197592	0.628674	0.482085
H190	H	0.208446	0.891399	0.425300
C191	C	1.012540	0.149025	-0.077885
H192	H	0.985820	0.152903	-0.099998
H193	H	1.002609	0.127828	-0.045842
H194	H	1.069770	0.127828	-0.113012
C195	C	0.254753	0.786805	0.456937
H196	H	0.214307	0.825323	0.492055
H197	H	0.298256	0.765610	0.462268
H198	H	0.231096	0.765611	0.462252
C199	C	1.012427	0.599166	-0.300743
H200	H	0.985699	0.617758	-0.251900
H201	H	1.002487	0.628739	-0.322831
H202	H	1.069658	0.572198	-0.322849
C203	C	0.477764	0.387374	0.078023
H204	H	0.488394	0.416939	0.072700
H205	H	0.447261	0.391854	0.126857
H206	H	0.447263	0.391844	0.059690
C207	C	0.633669	0.440716	-0.621075
H208	H	0.633686	0.414394	-0.647816
H209	H	0.586184	0.458855	-0.573681
H210	H	0.681171	0.418898	-0.621186
H211	H	0.373386	0.695867	0.327706
H212	H	0.893870	0.257805	-0.192802
C213	C	0.633621	0.626306	-0.621028
H214	H	0.633636	0.619972	-0.580595
H215	H	0.586129	0.664448	-0.607207
H216	H	0.681116	0.624472	-0.654712
C217	C	0.789558	0.256142	-0.077879
H218	H	0.833773	0.215036	-0.099990
H219	H	0.792637	0.274753	-0.045839
H220	H	0.792645	0.274742	-0.113009
C221	C	0.885193	0.387402	0.078038
H222	H	0.911934	0.383509	0.100135
H223	H	0.827968	0.408601	0.113167
H224	H	0.895126	0.408606	0.046000
C225	C	1.076168	0.161048	-0.442416
H226	H	1.089865	0.126433	-0.428694
H227	H	1.123467	0.161037	-0.469845
H228	H	1.056293	0.161040	-0.469833
C229	C	1.012503	0.149032	-0.300810
H230	H	0.985752	0.152935	-0.251969
H231	H	1.069727	0.127829	-0.322902
H232	H	1.002571	0.127826	-0.322918
H233	H	1.058772	0.533570	-0.425044
H234	H	1.003874	0.278584	-0.437467
C235	C	1.012489	0.280288	0.078027
H236	H	1.052946	0.241781	0.072703
H237	H	0.968973	0.301483	0.126861
H238	H	1.036124	0.301496	0.059696
C239	C	0.885216	0.387372	-0.329449
H240	H	0.911951	0.383468	-0.378290
H241	H	0.895135	0.408589	-0.307344
H242	H	0.827988	0.408564	-0.307353
C243	C	1.076169	0.161095	0.000070
H244	H	1.089862	0.172651	0.027501
H245	H	1.123468	0.138013	-0.047219
H246	H	1.056305	0.138011	0.019947
C247	C	-0.004583	0.440746	-0.110139
H248	H	0.053411	0.414427	-0.141402
H249	H	-0.026047	0.458896	-0.136064
H250	H	-0.026048	0.418922	-0.088572
H251	H	-0.091415	0.613689	0.095350
C252	C	0.885156	0.599147	-0.173484
H253	H	0.844726	0.594665	-0.138359
H254	H	0.861502	0.640250	-0.168163
H255	H	0.928675	0.583721	-0.168169
C256	C	0.271859	0.626276	0.110335
H257	H	0.213865	0.652589	0.141603
H258	H	0.293326	0.648098	0.088778
H259	H	0.293321	0.608119	0.136264
C260	C	-0.225044	0.626320	0.110352
H261	H	-0.229570	0.652637	0.141611
H262	H	-0.250880	0.608177	0.136283
H263	H	-0.250866	0.648144	0.088784
C264	C	0.122705	0.440741	-0.110144
H265	H	0.127232	0.414434	-0.141414
H266	H	0.148537	0.418914	-0.088588
H267	H	0.148531	0.458895	-0.136071
H268	H	0.168222	0.613663	0.095341
C269	C	0.477705	-0.189119	0.078096
H270	H	0.488341	-0.227633	0.072786
H271	H	0.447193	-0.167924	0.059775
H272	H	0.447210	-0.167920	0.126933
H273	H	0.424706	0.167722	0.104569
C274	C	0.477742	0.280253	0.078045
H275	H	0.433539	0.321363	0.100139
H276	H	0.474643	0.261659	0.113176
H277	H	0.474654	0.261648	0.046004
H278	H	0.424698	0.075181	0.104588
C279	C	0.477708	-0.081980	0.078087
H280	H	0.433499	-0.085877	0.100198
H281	H	0.474615	-0.060776	0.046055
H282	H	0.474623	-0.060780	0.113218
H283	H	0.768304	-0.211581	-0.067219
C284	C	0.863765	-0.116898	-0.114939
H285	H	0.907971	-0.112997	-0.137036
H286	H	0.866866	-0.138111	-0.150068
H287	H	0.866848	-0.138091	-0.082892
C288	C	0.789502	-0.320340	-0.077824
H289	H	0.833711	-0.316444	-0.099927
H290	H	0.792593	-0.341550	-0.112948
H291	H	0.792588	-0.341535	-0.045779
H292	H	0.633663	0.453334	-0.370116
H293	H	0.633648	0.453339	-0.260143
H294	H	0.768341	0.165222	-0.067272
C295	C	0.863768	-0.009772	-0.114950
H296	H	0.907975	-0.050880	-0.137057
H297	H	0.866858	0.008836	-0.082917
H298	H	0.866858	0.008824	-0.150084
H299	H	0.633614	0.613677	-0.260101
C300	C	0.382081	0.679622	-0.077842
H301	H	0.355359	0.683515	-0.099958
H302	H	0.372149	0.658415	-0.045813
H303	H	0.439311	0.658426	-0.112969
H304	H	0.263462	0.788374	-0.067243
C305	C	0.191122	0.905929	0.000109
H306	H	0.177421	0.894373	-0.027314
H307	H	0.210975	0.929018	-0.019759
H308	H	0.143821	0.929006	0.047403
