data_functionalizedCrystal
_audit_creation_method	'MofGen! by Chris Wilmer'
_symmetry_space_group_name_H-M	'P1'
_symmetry_Int_Tables_number	1
_symmetry_cell_setting	triclinic
loop_
_symmetry_equiv_pos_as_xyz
  x,y,z
_cell_length_a	6.817900
_cell_length_b	12.200875
_cell_length_c	9.582889
_cell_angle_alpha	91.576692
_cell_angle_beta	111.207298
_cell_angle_gamma	107.143593
loop_
_atom_site_label
_atom_site_type_symbol
_atom_site_fract_x
_atom_site_fract_y
_atom_site_fract_z
V1	V	-4.108301	-0.357451	-0.207395
V2	V	-3.774968	-0.024117	0.125938
V3	V	-3.441635	0.309216	0.459271
O4	O	-4.053185	-0.350862	0.009616
O5	O	-3.719852	-0.017529	0.342950
O6	O	-3.386519	0.315804	0.676283
O7	O	-4.098767	-0.354798	-0.410894
O8	O	-3.765434	-0.021465	-0.077561
O9	O	-3.432101	0.311869	0.255773
O10	O	-4.077439	-0.513442	-0.204359
O11	O	-3.744106	-0.180109	0.128975
O12	O	-3.410772	0.153225	0.462308
O13	O	-4.074661	-0.191120	-0.198349
O14	O	-3.741328	0.142213	0.134985
O15	O	-3.407995	0.475547	0.468318
V16	V	-4.584621	-0.337581	-0.181420
V17	V	-4.251287	-0.004248	0.151913
V18	V	-3.917954	0.329085	0.485246
O19	O	-4.385362	-0.401035	-0.264374
O20	O	-4.052028	-0.067702	0.068959
O21	O	-3.718695	0.265631	0.402292
O22	O	-4.757758	-0.293997	-0.124441
O23	O	-4.424425	0.039337	0.208892
O24	O	-4.091091	0.372670	0.542225
O25	O	-4.370948	-0.340234	0.022078
O26	O	-4.037615	-0.006901	0.355412
O27	O	-3.704282	0.326433	0.688745
O28	O	-4.757134	-0.344170	-0.398432
O29	O	-4.423800	-0.010836	-0.065099
O30	O	-4.090467	0.322497	0.268235
O31	O	-4.735658	-0.503912	-0.190467
O32	O	-4.402325	-0.170578	0.142866
O33	O	-4.068991	0.162755	0.476200
O34	O	-4.392277	-0.181590	-0.184457
O35	O	-4.058943	0.151743	0.148876
O36	O	-3.725610	0.485077	0.482210
C37	C	-3.952656	-0.349105	-0.460498
C38	C	-3.619322	-0.015772	-0.127164
C39	C	-3.285989	0.317561	0.206169
C40	C	-4.026264	-0.347976	-0.626861
C41	C	-3.692931	-0.014643	-0.293528
C42	C	-3.359597	0.318690	0.039805
C43	C	-3.925448	-0.551470	-0.197040
C44	C	-3.592115	-0.218137	0.136294
C45	C	-3.258781	0.115197	0.469627
C46	C	-3.981755	-0.678992	-0.195903
C47	C	-3.648422	-0.345659	0.137430
C48	C	-3.315089	-0.012326	0.470763
C49	C	-4.084806	-0.912469	-0.193825
C50	C	-3.751473	-0.579136	0.139509
C51	C	-3.418139	-0.245802	0.472842
C52	C	-4.027453	-0.782546	-0.194981
C53	C	-3.694119	-0.449212	0.138353
C54	C	-3.360786	-0.115879	0.471686
C55	C	-4.180403	-0.345923	0.071674
C56	C	-3.847070	-0.012590	0.405007
C57	C	-3.513737	0.320743	0.738341
C58	C	-4.086034	-0.347060	0.238036
C59	C	-3.752701	-0.013726	0.571370
C60	C	-3.419368	0.319607	0.904703
C61	C	-4.207610	-0.143556	-0.191781
C62	C	-3.874277	0.189778	0.141552
C63	C	-3.540943	0.523111	0.474886
C64	C	-4.130540	-0.016032	-0.192910
C65	C	-3.797206	0.317301	0.140424
C66	C	-3.463873	0.650634	0.473757
