data_functionalizedCrystal
_audit_creation_method	'MofGen! by Chris Wilmer'
_symmetry_space_group_name_H-M	'P1'
_symmetry_Int_Tables_number	1
_symmetry_cell_setting	triclinic
loop_
_symmetry_equiv_pos_as_xyz
  x,y,z
_cell_length_a	12.827892
_cell_length_b	12.759401
_cell_length_c	12.759393
_cell_angle_alpha	89.980324
_cell_angle_beta	89.970028
_cell_angle_gamma	90.015628
loop_
_atom_site_label
_atom_site_type_symbol
_atom_site_fract_x
_atom_site_fract_y
_atom_site_fract_z
Zn1	Zn	-0.415971	1.606263	-0.593989
Zn2	Zn	-0.590748	1.606152	-0.418310
Zn3	Zn	-0.416023	1.430561	-0.418328
Zn4	Zn	-0.590672	1.430552	-0.593951
O5	O	-0.503353	1.518382	-0.506144
O6	O	-0.439165	1.753269	-0.570693
O7	O	-0.567624	1.582818	-0.271291
O8	O	-0.269780	1.453919	-0.441652
O9	O	-0.567573	1.753188	-0.441623
O10	O	-0.269741	1.583006	-0.570710
O11	O	-0.439254	1.453812	-0.271304
O12	O	-0.439180	1.283539	-0.441616
O13	O	-0.567443	1.453902	-0.740977
O14	O	-0.567494	1.283532	-0.570646
O15	O	-0.439091	1.582996	-0.741005
O16	O	-0.736974	1.582808	-0.441587
O17	O	-0.736918	1.453795	-0.570629
C18	C	-0.503335	1.245415	-0.506130
C19	C	-0.503353	1.128638	-0.506148
C20	C	-0.436611	1.073819	-0.573459
C21	C	-0.436622	0.964095	-0.573466
C22	C	-0.570124	0.964019	-0.438849
C23	C	-0.570108	1.073741	-0.438837
C24	C	-0.774863	1.518317	-0.506125
C25	C	-0.891016	1.518386	-0.506152
C26	C	-0.942808	1.454531	-0.569959
C27	C	-1.062858	1.454600	-0.569989
C28	C	-0.230783	1.518476	-0.506187
C29	C	-0.114630	1.518516	-0.506205
C30	C	-0.503253	1.518461	-0.780178
C31	C	-0.503210	1.518494	-0.896955
C32	C	-0.503372	1.792415	-0.506160
C33	C	-0.503380	1.909192	-0.506167
C34	C	-0.436367	1.585718	-0.951833
C35	C	-0.436322	1.585736	-1.061557
C36	C	-0.569973	1.451303	-1.061515
C37	C	-0.570012	1.451280	-0.951793
C38	C	-0.503378	1.518364	-0.233177
C39	C	-0.503126	1.518534	-0.116401
H40	H	-0.624475	0.919308	-0.384048
C41	C	-0.363170	1.134202	-0.647493
N42	N	-0.307848	1.179680	-0.703255
C43	C	-0.643545	1.377321	-0.891424
N44	N	-0.698926	1.321615	-0.845954
C45	C	-0.362874	1.659646	-0.891514
N46	N	-0.307513	1.715327	-0.846085
H47	H	-0.381889	1.640475	-1.106233
H48	H	-1.070098	1.573191	-0.451578
H49	H	-1.107397	1.399936	-0.624621
C50	C	-0.882647	1.380605	-0.643734
N51	N	-0.837334	1.324923	-0.699304
H52	H	-0.624362	1.396582	-1.106178
H53	H	-0.624457	1.118376	-0.384019
H54	H	-0.382273	0.919466	-0.628275
C55	C	-0.951177	1.592310	-0.432375
N56	N	-0.996490	1.647992	-0.376805
