data_functionalizedCrystal
_audit_creation_method	'MofGen! by Chris Wilmer'
_symmetry_space_group_name_H-M	'P1'
_symmetry_Int_Tables_number	1
_symmetry_cell_setting	triclinic
loop_
_symmetry_equiv_pos_as_xyz
  x,y,z
_cell_length_a	21.295418
_cell_length_b	21.295417
_cell_length_c	21.295412
_cell_angle_alpha	89.968813
_cell_angle_beta	89.964379
_cell_angle_gamma	90.046319
loop_
_atom_site_label
_atom_site_type_symbol
_atom_site_fract_x
_atom_site_fract_y
_atom_site_fract_z
Zn1	Zn	0.962305	-0.250356	-0.356234
Zn2	Zn	0.962223	-0.355625	-0.250959
Zn3	Zn	0.857043	-0.250403	-0.250943
Zn4	Zn	0.856998	-0.355620	-0.356155
O5	O	0.909642	-0.303001	-0.303573
O6	O	1.050384	-0.264303	-0.342308
O7	O	0.948255	-0.341689	-0.162867
O8	O	0.871060	-0.162307	-0.264937
O9	O	1.050323	-0.341644	-0.264963
O10	O	0.948396	-0.162273	-0.342293
O11	O	0.870980	-0.264383	-0.162856
O12	O	0.768948	-0.264378	-0.264861
O13	O	0.870983	-0.341635	-0.444255
O14	O	0.768915	-0.341681	-0.342160
O15	O	0.948352	-0.264298	-0.444313
O16	O	0.948211	-0.443714	-0.264887
O17	O	0.870903	-0.443710	-0.342175
C18	C	0.746091	-0.303034	-0.303500
C19	C	0.676123	-0.303064	-0.303484
C20	C	0.643255	-0.343368	-0.343674
C21	C	0.577512	-0.343353	-0.343702
C22	C	0.544640	-0.303039	-0.303530
C23	C	0.577516	-0.262727	-0.263337
C24	C	0.643257	-0.262739	-0.263315
N25	N	0.441372	-0.298121	-0.248472
N26	N	0.378920	-0.298113	-0.248495
C27	C	0.346565	-0.302999	-0.303596
N28	N	0.379021	-0.307905	-0.358674
N29	N	0.441478	-0.307916	-0.358650
C30	C	0.473355	-0.303021	-0.303550
C31	C	0.242412	-0.343289	-0.343820
C32	C	0.176669	-0.343269	-0.343849
C33	C	0.176673	-0.262646	-0.263479
C34	C	0.242415	-0.262663	-0.263455
C35	C	0.275281	-0.302988	-0.303625
C36	C	0.909560	-0.466553	-0.303538
C37	C	0.909582	-0.536521	-0.303544
C38	C	0.949872	-0.569369	-0.263342
C39	C	0.949902	-0.635111	-0.263356
C40	C	0.909630	-0.668003	-0.303566
C41	C	0.869337	-0.635148	-0.343776
C42	C	0.869313	-0.569407	-0.343765
N43	N	0.854562	-0.771284	-0.308340
N44	N	0.854587	-0.833736	-0.308347
C45	C	0.909700	-0.866078	-0.303602
N46	N	0.964790	-0.833610	-0.298838
N47	N	0.964765	-0.771152	-0.298828
C48	C	0.909652	-0.739289	-0.303582
C49	C	0.950026	-0.970211	-0.263413
C50	C	0.950056	-1.035955	-0.263431
C51	C	0.869486	-1.035990	-0.343848
C52	C	0.869461	-0.970248	-0.343833
C53	C	0.909730	-0.937362	-0.303612
C54	C	1.073833	-0.302968	-0.303646
C55	C	1.143801	-0.302954	-0.303677
C56	C	0.909671	-0.302960	-0.467763
C57	C	0.909684	-0.302943	-0.537731
C58	C	0.909742	-0.138811	-0.303622
C59	C	0.909785	-0.068843	-0.303642
C60	C	0.950029	-0.262574	-1.037220
C61	C	0.950025	-0.262589	-0.971478
C62	C	0.909738	-0.302860	-0.938571
C63	C	0.869465	-0.343130	-0.971412
C64	C	0.869476	-0.343118	-1.037153
N65	N	0.854617	-0.307719	-0.835324
N66	N	0.854609	-0.307727	-0.772872
C67	C	0.909705	-0.302899	-0.740496
N68	N	0.964811	-0.298052	-0.772931
N69	N	0.964819	-0.298041	-0.835388
C70	C	0.909723	-0.302878	-0.867286
C71	C	0.949973	-0.262652	-0.636377
C72	C	0.949970	-0.262671	-0.570634
C73	C	0.869405	-0.343209	-0.570569
C74	C	0.869414	-0.343192	-0.636312
C75	C	0.909698	-0.302910	-0.669212
C76	C	0.909650	-0.302996	-0.140021
C77	C	0.909759	-0.302836	-0.070054
H78	H	0.149909	-0.376089	-0.376580
H79	H	0.670017	-0.229916	-0.230588
C80	C	0.994323	-0.218297	-0.935351
C81	C	0.994310	-0.218311	-0.863038
C82	C	1.038607	-0.174019	-0.826914
C83	C	1.082918	-0.129713	-0.863102
C84	C	1.082932	-0.129697	-0.935419
C85	C	1.038635	-0.173989	-0.971544
H86	H	0.961507	-0.251111	-0.836246
H87	H	1.038596	-0.174031	-0.773380
H88	H	1.115710	-0.096925	-0.836361
H89	H	1.115735	-0.096897	-0.962211
H90	H	1.038646	-0.173977	-1.025077
C91	C	0.994174	-0.533198	-0.219104
C92	C	0.989085	-0.542298	-0.147538
C93	C	1.033388	-0.506127	-0.103301
C94	C	1.082780	-0.460857	-0.130629
C95	C	1.087870	-0.451755	-0.202199
C96	C	1.043567	-0.487926	-0.246436
H97	H	0.952521	-0.575812	-0.127304
H98	H	1.029620	-0.512865	-0.050320
H99	H	1.115575	-0.434081	-0.097882
H100	H	1.124435	-0.418241	-0.222432
H101	H	1.047336	-0.481188	-0.299417
C102	C	0.994270	-0.218378	-0.534516
C103	C	0.967010	-0.168976	-0.489323
C104	C	1.011310	-0.124681	-0.453205
C105	C	1.082870	-0.129789	-0.462280
C106	C	1.110134	-0.179192	-0.507475
C107	C	1.065834	-0.223487	-0.543593
H108	H	0.914033	-0.165194	-0.482603
H109	H	0.991127	-0.088109	-0.419748
H110	H	1.115664	-0.096999	-0.435543
H111	H	1.163110	-0.182975	-0.514194
H112	H	1.086017	-0.260059	-0.577049
H113	H	0.269173	-0.376121	-0.376531
C114	C	0.825152	-0.387431	-0.935218
C115	C	0.825138	-0.387446	-0.862905
C116	C	0.780828	-0.431753	-0.826711
C117	C	0.736531	-0.476046	-0.862831
C118	C	0.736544	-0.476032	-0.935148
C119	C	0.780854	-0.431725	-0.971341
H120	H	0.857931	-0.354657	-0.836164
H121	H	0.780819	-0.431763	-0.773177
H122	H	0.703730	-0.508844	-0.836038
H123	H	0.703751	-0.508822	-0.961889
H124	H	0.780863	-0.431716	-1.024875
C125	C	0.994288	-0.218350	-0.672575
C126	C	1.043697	-0.245608	-0.717788
C127	C	1.088012	-0.201307	-0.753984
C128	C	1.082919	-0.129748	-0.744966
C129	C	1.033508	-0.102487	-0.699751
C130	C	0.989193	-0.146788	-0.663555
H131	H	1.047469	-0.298583	-0.724465
H132	H	1.124588	-0.221488	-0.787455
H133	H	1.115723	-0.096954	-0.771760
H134	H	1.029736	-0.049511	-0.693073
H135	H	0.952617	-0.126606	-0.630083
C136	C	0.140522	-0.218298	-0.219289
C137	C	0.068209	-0.218281	-0.219312
C138	C	0.032054	-0.173930	-0.175124
C139	C	0.068212	-0.129595	-0.130912
C140	C	0.140529	-0.129611	-0.130887
C141	C	0.176684	-0.173963	-0.175076
H142	H	0.041439	-0.251101	-0.252042
H143	H	-0.021480	-0.173918	-0.175142
H144	H	0.041448	-0.096764	-0.098201
H145	H	0.167299	-0.096791	-0.098157
H146	H	0.230218	-0.173974	-0.175057
H147	H	0.982834	-0.229776	-1.064004
C148	C	0.825184	-1.072162	-0.388080
C149	C	0.775795	-1.117434	-0.360749
C150	C	0.731493	-1.153608	-0.404984
C151	C	0.736580	-1.144511	-0.476551
C152	C	0.785971	-1.099237	-0.503885
C153	C	0.830273	-1.063063	-0.459650
H154	H	0.772028	-1.124170	-0.307768
H155	H	0.694931	-1.187123	-0.384749
H156	H	0.703785	-1.171289	-0.509296
H157	H	0.789738	-1.092501	-0.556866
H158	H	0.866835	-1.029548	-0.479886
C159	C	0.825100	-0.387471	-0.672427
C160	C	0.830180	-0.459034	-0.663365
C161	C	0.785860	-0.503313	-0.699478
C162	C	0.736460	-0.476029	-0.744653
C163	C	0.731378	-0.404463	-0.753717
C164	C	0.775698	-0.360183	-0.717604
H165	H	0.866750	-0.479234	-0.629922
H166	H	0.789622	-0.556292	-0.692767
H167	H	0.703652	-0.508808	-0.771385
H168	H	0.694807	-0.384262	-0.787160
H169	H	0.771935	-0.307205	-0.724314
C170	C	0.825134	-0.934111	-0.388050
C171	C	0.825105	-0.861798	-0.388040
C172	C	0.780777	-0.825662	-0.432260
C173	C	0.736477	-0.861838	-0.476491
C174	C	0.736504	-0.934154	-0.476503
C175	C	0.780832	-0.970291	-0.432283
H176	H	0.857900	-0.835015	-0.355296
H177	H	0.780758	-0.772128	-0.432251
H178	H	0.703663	-0.835087	-0.509226
H179	H	0.703709	-0.960938	-0.509247
H180	H	0.780852	-1.023825	-0.432292
H181	H	0.982818	-0.943435	-0.230664
H182	H	0.982869	-1.062698	-0.230695
H183	H	0.670010	-0.376203	-0.376384
C184	C	0.994217	-0.671254	-0.219125
C185	C	1.038508	-0.635082	-0.174882
C186	C	1.082821	-0.671222	-0.130649
C187	C	1.082842	-0.743535	-0.130658
C188	C	1.038549	-0.779711	-0.174902
C189	C	0.994237	-0.743571	-0.219136
H190	H	1.038494	-0.581548	-0.174874
H191	H	1.115609	-0.644442	-0.097896
H192	H	1.115645	-0.770288	-0.097914
H193	H	1.038563	-0.833245	-0.174911
H194	H	0.961448	-0.770351	-0.251888
H195	H	0.836548	-0.661933	-0.376516
C196	C	0.825169	-0.387404	-1.073272
C197	C	0.830259	-0.458967	-1.064213
C198	C	0.785949	-0.503250	-1.100333
C199	C	0.736549	-0.475971	-1.145510
C200	C	0.731457	-0.404405	-1.154571
C201	C	0.775767	-0.360121	-1.118452
H202	H	0.866829	-0.479163	-1.030768
H203	H	0.789718	-0.556229	-1.093625
H204	H	0.703747	-0.508753	-1.172248
H205	H	0.694886	-0.384208	-1.188016
H206	H	0.771997	-0.307143	-1.125159
H207	H	0.269177	-0.229845	-0.230726
H208	H	0.550747	-0.229902	-0.230630
C209	C	0.825080	-0.387504	-0.534385
C210	C	0.775665	-0.360241	-0.489183
C211	C	0.731337	-0.404538	-0.452998
C212	C	0.736424	-0.476097	-0.462015
C213	C	0.785842	-0.503364	-0.507218
C214	C	0.830170	-0.459067	-0.543404
H215	H	0.771896	-0.307266	-0.482506
H216	H	0.694754	-0.384353	-0.419535
H217	H	0.703610	-0.508888	-0.435228
H218	H	0.789611	-0.556339	-0.513895
H219	H	0.866753	-0.479252	-0.576867
H220	H	0.550746	-0.376174	-0.376431
H221	H	0.836503	-0.542661	-0.376503
