data_functionalizedCrystal
_audit_creation_method	'MofGen! by Chris Wilmer'
_symmetry_space_group_name_H-M	'P1'
_symmetry_Int_Tables_number	1
_symmetry_cell_setting	triclinic
loop_
_symmetry_equiv_pos_as_xyz
  x,y,z
_cell_length_a	14.750779
_cell_length_b	14.971486
_cell_length_c	14.971486
_cell_angle_alpha	83.614129
_cell_angle_beta	77.341889
_cell_angle_gamma	102.662171
loop_
_atom_site_label
_atom_site_type_symbol
_atom_site_fract_x
_atom_site_fract_y
_atom_site_fract_z
O1	O	0.079718	-1.167575	-0.135922
O2	O	0.079744	-0.907169	-0.149887
O3	O	0.079724	-1.044353	-0.012703
O4	O	0.079739	-1.030391	-0.273106
O5	O	-0.079933	-1.083134	0.026074
O6	O	-0.079912	-0.945949	-0.111111
O7	O	-0.079938	-1.206356	-0.097146
Zn8	Zn	-0.105274	-1.082310	-0.097972
Zn9	Zn	0.105080	-1.031215	-0.149061
O10	O	-0.079917	-1.069171	-0.234330
C11	C	-0.000080	-0.893233	-0.129876
C12	C	-0.000071	-0.793934	-0.128007
C13	C	-0.000104	-1.063119	0.040010
C14	C	-0.000103	-1.061248	0.139307
N15	N	-0.248835	-1.117187	-0.063104
C16	C	-0.600620	-0.898937	-0.281262
C17	C	-0.701123	-0.923383	-0.256835
C18	C	-0.701104	-1.044885	-0.135403
C19	C	-0.600599	-1.020446	-0.159817
C20	C	-0.550365	-0.947472	-0.232748
C21	C	-0.550344	-1.068981	-0.111303
C22	C	-0.449848	-1.044547	-0.135718
C23	C	-0.399607	-0.971577	-0.208648
C24	C	-0.449869	-0.923037	-0.257163
C25	C	-0.600580	-1.141959	-0.038377
C26	C	-0.550325	-1.190494	0.010138
C27	C	-0.449827	-1.166056	-0.014273
C28	C	-0.399586	-1.093086	-0.087203
C29	C	-0.399565	-1.214596	0.034242
C30	C	-0.299069	-1.190161	0.009827
C31	C	-0.299090	-1.068652	-0.111618
N32	N	0.248641	-0.996345	-0.183922
C33	C	-0.000111	-1.220290	-0.117158
C34	C	-0.000115	-1.319588	-0.119028
C35	C	-0.000067	-0.736708	-0.208597
C36	C	-0.000082	-0.643412	-0.206831
C37	C	-0.000093	-0.607342	-0.124475
C38	C	-0.000099	-0.664576	-0.043878
C39	C	-0.000091	-0.757872	-0.045644
C40	C	-0.000112	-0.470117	-0.040204
C41	C	-0.000118	-0.376815	-0.038438
C42	C	-0.000103	-0.355657	-0.201390
C43	C	-0.000095	-0.448953	-0.203156
C44	C	-0.000100	-0.506180	-0.122559
C45	C	-0.000088	-1.050405	-0.287043
C46	C	-0.000082	-1.052274	-0.386342
C47	C	-0.000112	-1.141839	0.196534
C48	C	-0.000102	-1.140074	0.289831
C49	C	-0.000090	-1.057718	0.325901
C50	C	-0.000079	-0.977120	0.268665
C51	C	-0.000082	-0.978884	0.175369
C52	C	-0.000075	-0.973448	0.463127
C53	C	-0.000074	-0.971683	0.556431
C54	C	-0.000095	-1.134637	0.577590
C55	C	-0.000098	-1.136402	0.484293
C56	C	-0.000088	-1.055804	0.427064
H57	H	-0.258187	-1.009223	-0.171000
Cl58	Cl	-0.000072	-0.571472	-0.308150
Cl59	Cl	-0.000052	-0.873583	0.314007
Cl60	Cl	-0.273267	-0.940863	-0.239346
H61	H	-0.000093	-0.804465	0.019981
Cl62	Cl	-0.000164	-0.331479	0.065105
H63	H	-0.408967	-0.863608	-0.316545
H64	H	-0.000058	-0.766068	-0.275661
Cl65	Cl	-0.764294	-0.862358	-0.317838
H66	H	-0.559718	-0.839508	-0.340644
H67	H	-0.000121	-0.635205	0.023181
Cl68	Cl	-0.000062	-0.872122	0.391183
H69	H	-0.742016	-1.104304	-0.076024
Cl70	Cl	-0.613483	-1.282232	0.101818
H71	H	-0.000100	-1.200263	0.624190
Cl72	Cl	-0.235889	-1.251182	0.070816
H73	H	-0.000117	-0.516710	0.025428
H74	H	-0.682410	-1.161853	-0.018503
Cl75	Cl	-0.462726	-1.306340	0.125914
Cl76	Cl	-0.000071	-0.494294	-0.306694
Cl77	Cl	-0.000099	-0.283715	-0.302712
Cl78	Cl	-0.000060	-0.868148	0.601774
Cl79	Cl	-0.000067	-0.877564	0.103424
Cl80	Cl	-0.000136	-1.245381	0.151202
Cl81	Cl	-0.000116	-1.241395	0.361772
H82	H	-0.000115	-1.203465	0.454930
