data_functionalizedCrystal
_audit_creation_method	'MofGen! by Chris Wilmer'
_symmetry_space_group_name_H-M	'P1'
_symmetry_Int_Tables_number	1
_symmetry_cell_setting	triclinic
loop_
_symmetry_equiv_pos_as_xyz
  x,y,z
_cell_length_a	25.639242
_cell_length_b	29.839131
_cell_length_c	25.639233
_cell_angle_alpha	90.027239
_cell_angle_beta	90.022166
_cell_angle_gamma	90.030754
loop_
_atom_site_label
_atom_site_type_symbol
_atom_site_fract_x
_atom_site_fract_y
_atom_site_fract_z
Zn1	Zn	0.799238	-0.178962	0.295711
Zn2	Zn	0.799166	-0.254076	0.208263
Zn3	Zn	0.711814	-0.178955	0.208275
Zn4	Zn	0.711764	-0.254059	0.295653
O5	O	0.755496	-0.216513	0.251976
O6	O	0.872393	-0.188935	0.284130
O7	O	0.787570	-0.244115	0.135099
O8	O	0.723461	-0.116089	0.219904
O9	O	0.872341	-0.244122	0.219882
O10	O	0.787691	-0.116094	0.284143
O11	O	0.723392	-0.188924	0.135109
O12	O	0.638642	-0.188908	0.219847
O13	O	0.723377	-0.244093	0.368826
O14	O	0.638606	-0.244087	0.284043
O15	O	0.787643	-0.188919	0.368869
O16	O	0.787522	-0.316941	0.219825
O17	O	0.723308	-0.316929	0.284030
C18	C	0.619653	-0.216495	0.251940
C19	C	0.561539	-0.216499	0.251937
C20	C	0.201166	-0.245293	0.285371
C21	C	0.146561	-0.245295	0.285379
O22	O	0.118316	-0.269755	0.313775
N23	N	0.119256	-0.216525	0.252010
C24	C	0.146559	-0.187748	0.218634
O25	O	0.118320	-0.163276	0.190252
C26	C	0.201162	-0.187743	0.218629
C27	C	0.228464	-0.216518	0.251996
C28	C	0.228468	-0.274065	0.318736
C29	C	0.283069	-0.274063	0.318727
C30	C	0.310367	-0.245288	0.285352
C31	C	0.283065	-0.216516	0.251987
C32	C	0.228463	-0.158963	0.185256
C33	C	0.283070	-0.158961	0.185254
C34	C	0.310372	-0.187736	0.218621
C35	C	0.364964	-0.187739	0.218604
N36	N	0.392269	-0.216509	0.251973
C37	C	0.364970	-0.245283	0.285347
C38	C	0.031888	-0.187759	0.218648
C39	C	-0.022714	-0.187766	0.218650
C40	C	-0.022708	-0.245313	0.285396
C41	C	0.031896	-0.245308	0.285391
C42	C	0.059193	-0.216529	0.252017
C43	C	0.479635	-0.245277	0.285325
C44	C	0.534241	-0.245273	0.285312
C45	C	0.534229	-0.187724	0.218568
C46	C	0.479629	-0.187729	0.218580
C47	C	0.452333	-0.216507	0.251962
O48	O	0.393244	-0.163290	0.190224
O49	O	0.393216	-0.269746	0.313729
C50	C	0.755416	-0.333236	0.251931
C51	C	0.755430	-0.383170	0.251930
C52	C	0.788933	-0.692781	0.285472
C53	C	0.788989	-0.880454	0.285504
O54	O	0.817397	-0.904691	0.313990
N55	N	0.755584	-0.903955	0.252034
C56	C	0.722160	-0.880535	0.218556
O57	O	0.693745	-0.904830	0.190092
C58	C	0.722101	-0.692863	0.218527
C59	C	0.755512	-0.669364	0.251996
C60	C	0.822341	-0.669282	0.318939
C61	C	0.822328	-0.622367	0.318928
C62	C	0.788908	-0.598950	0.285452
C63	C	0.755500	-0.622449	0.251986
C64	C	0.688675	-0.669444	0.185052
C65	C	0.688662	-0.622522	0.185049
C66	C	0.722073	-0.599024	0.218518
C67	C	0.722067	-0.552116	0.218499
N68	N	0.755472	-0.528615	0.251969
C69	C	0.788892	-0.552032	0.285446
C70	C	0.722194	-0.979066	0.218572
C71	C	0.722210	-1.025983	0.218578
C72	C	0.789038	-1.025899	0.285527
C73	C	0.789025	-0.978981	0.285518
C74	C	0.755599	-0.955565	0.252042
C75	C	0.788864	-0.453506	0.285421
C76	C	0.788850	-0.406587	0.285407
C77	C	0.722020	-0.406675	0.218460
C78	C	0.722035	-0.453591	0.218472
C79	C	0.755459	-0.477005	0.251957
O80	O	0.693670	-0.527850	0.190032
O81	O	0.817296	-0.527729	0.313913
C82	C	0.788945	-0.739696	0.285483
C83	C	0.755537	-0.763195	0.252016
C84	C	0.722117	-0.739778	0.218540
C85	C	0.755553	-0.810113	0.252023
C86	C	0.788973	-0.833530	0.285499
C87	C	0.822378	-0.810029	0.318969
C88	C	0.822366	-0.763113	0.318959
C89	C	0.688712	-0.763279	0.185070
C90	C	0.688727	-0.810195	0.185082
C91	C	0.722148	-0.833612	0.218559
C92	C	0.891869	-0.216531	0.252011
C93	C	0.949983	-0.216539	0.252027
C94	C	0.755512	-0.216505	0.388349
C95	C	0.755520	-0.216502	0.446463
C96	C	0.755590	-0.099335	0.252031
C97	C	0.755630	-0.049400	0.252055
C98	C	0.755509	-0.216488	0.116133
C99	C	0.755603	-0.216365	0.058019
C100	C	0.789025	-0.187687	0.806854
C101	C	0.789032	-0.187675	0.861458
O102	O	0.817478	-0.163229	0.889719
N103	N	0.755577	-0.216396	0.888745
C104	C	0.722110	-0.245129	0.861425
O105	O	0.693655	-0.269558	0.889649
C106	C	0.722101	-0.245139	0.806822
C107	C	0.755562	-0.216419	0.779538
C108	C	0.822483	-0.158969	0.779570
C109	C	0.822477	-0.158982	0.724969
C110	C	0.789014	-0.187714	0.697653
C111	C	0.755556	-0.216432	0.724937
C112	C	0.688632	-0.273869	0.779503
C113	C	0.688626	-0.273876	0.724896
C114	C	0.722087	-0.245156	0.697611
C115	C	0.722087	-0.245176	0.643020
N116	N	0.755542	-0.216455	0.615733
C117	C	0.789005	-0.187723	0.643050
C118	C	0.722130	-0.245106	0.976096
C119	C	0.722141	-0.245099	1.030698
C120	C	0.789063	-0.187644	1.030728
C121	C	0.789054	-0.187653	0.976124
C122	C	0.755585	-0.216384	0.948809
C123	C	0.788990	-0.187753	0.528384
C124	C	0.788983	-0.187770	0.473779
C125	C	0.722060	-0.245223	0.473754
C126	C	0.722069	-0.245208	0.528355
C127	C	0.755536	-0.216470	0.555669
O128	O	0.693654	-0.269609	0.614725
O129	O	0.817451	-0.163295	0.614819
H130	H	0.054110	-0.164324	0.191467
H131	H	0.661468	-0.688568	0.157798
C132	C	0.825777	-0.953137	0.322338
N133	N	0.853460	-0.933673	0.350073
C134	C	0.825608	-0.380741	0.322225
N135	N	0.853293	-0.361276	0.349956
C136	C	0.313094	-0.305716	0.355437
N137	N	0.335705	-0.329558	0.383090
H138	H	0.816233	-0.164382	0.451567
C139	C	0.651891	-0.596768	0.148221
N140	N	0.624196	-0.577370	0.120481
H141	H	0.695009	-1.045112	0.191319
C142	C	0.651970	-0.836038	0.148261
N143	N	0.624281	-0.855501	0.120532
C144	C	0.198443	-0.127303	0.148554
N145	N	0.175833	-0.103452	0.120910
H146	H	0.694828	-0.268599	0.550571
C147	C	0.449618	-0.276937	0.322044
N148	N	0.427009	-0.300786	0.349698
C149	C	0.825809	-0.156142	0.558421
N150	N	0.853543	-0.132334	0.581045
C151	C	0.313094	-0.127302	0.148538
N152	N	0.335707	-0.103457	0.120881
H153	H	0.694900	-0.268490	1.052908
C154	C	0.651938	-0.737527	0.148247
N155	N	0.624238	-0.718133	0.120510
H156	H	0.849723	-0.135594	0.702759
C157	C	0.685315	-0.276718	0.946054
N158	N	0.657585	-0.300529	0.923429
H159	H	0.694833	-0.472724	0.191215
C160	C	0.685257	-0.380908	0.181640
N161	N	0.657563	-0.361498	0.153910
C162	C	0.859301	-0.127361	0.809609
N163	N	0.887037	-0.103554	0.832231
C164	C	0.685415	-0.953314	0.181749
N165	N	0.657712	-0.933920	0.154014
C166	C	0.825859	-0.156056	0.946117
N167	N	0.853580	-0.132254	0.923518
C168	C	-0.052746	-0.276963	0.322113
N169	N	-0.075373	-0.300799	0.349766
H170	H	0.206247	-0.297497	0.345916
H171	H	0.816309	-0.164248	1.052978
C172	C	0.651818	-0.305461	0.809503
N173	N	0.624085	-0.329256	0.832099
C174	C	0.651808	-0.305484	0.694852
N175	N	0.624078	-0.329293	0.672225
H176	H	0.556468	-0.268707	0.312484
C177	C	0.859113	-0.695034	0.355764
N178	N	0.886817	-0.714426	0.383500
C179	C	0.061923	-0.276960	0.322100
N180	N	0.084537	-0.300801	0.349753
H181	H	-0.044939	-0.164338	0.191474
C182	C	0.685249	-0.276824	0.443696
N183	N	0.657520	-0.300623	0.421054
H184	H	0.556465	-0.164298	0.191394
C185	C	0.859140	-0.835796	0.355794
N186	N	0.886825	-0.855207	0.383532
C187	C	0.449595	-0.156079	0.181870
N188	N	0.426978	-0.132236	0.154223
C189	C	0.825635	-0.479256	0.322253
N190	N	0.853335	-0.498650	0.349992
H191	H	0.849533	-0.603237	0.346183
H192	H	0.849572	-0.743984	0.346212
C193	C	0.825798	-1.051666	0.322355
N194	N	0.853481	-1.071076	0.350095
