data_functionalizedCrystal
_audit_creation_method	'MofGen! by Chris Wilmer'
_symmetry_space_group_name_H-M	'P1'
_symmetry_Int_Tables_number	1
_symmetry_cell_setting	triclinic
loop_
_symmetry_equiv_pos_as_xyz
  x,y,z
_cell_length_a	10.654550
_cell_length_b	9.730223
_cell_length_c	10.654550
_cell_angle_alpha	90.004025
_cell_angle_beta	95.515070
_cell_angle_gamma	89.996848
loop_
_atom_site_label
_atom_site_type_symbol
_atom_site_fract_x
_atom_site_fract_y
_atom_site_fract_z
O1	O	1.667840	-0.114271	-0.176398
O2	O	1.302361	-0.114278	-0.193204
O3	O	1.493504	-0.114266	-0.002062
O4	O	1.476698	-0.114283	-0.367540
O5	O	1.493490	0.114314	-0.002058
O6	O	1.302347	0.114302	-0.193200
O7	O	1.667826	0.114309	-0.176394
Zn8	Zn	1.485084	0.150597	-0.184796
Zn9	Zn	1.485103	-0.150566	-0.184802
O10	O	1.476683	0.114297	-0.367536
C11	C	1.255556	0.000011	-0.191968
C12	C	1.116113	0.000009	-0.188276
N13	N	1.485081	0.356134	-0.184792
C14	C	1.492263	0.000024	0.044738
C15	C	1.488571	0.000021	0.184181
C16	C	1.714631	0.000017	-0.177630
C17	C	1.854074	0.000010	-0.181322
C18	C	1.933560	0.000010	-0.068780
C19	C	2.064580	0.000015	-0.072257
C20	C	2.036617	0.000013	-0.300826
C21	C	1.905599	0.000018	-0.297349
C22	C	1.569747	0.428065	-0.100190
C23	C	1.569758	0.571948	-0.100191
C24	C	1.400433	0.571956	-0.269406
C25	C	1.400417	0.428075	-0.269398
N26	N	1.485109	0.643897	-0.184801
C27	C	1.477925	0.000004	-0.414336
C28	C	1.481616	-0.000002	-0.553779
C29	C	1.601112	0.000023	0.263667
C30	C	1.597636	0.000006	0.394688
C31	C	1.369066	-0.000008	0.366725
C32	C	1.372544	-0.000001	0.235706
H33	H	1.891613	0.000007	0.025696
O34	O	1.256472	0.000044	0.416987
C35	C	1.277531	0.000008	0.549672
H36	H	1.375270	0.043285	0.579586
H37	H	1.203219	0.066369	0.590541
H38	H	1.271134	-0.109654	0.586182
H39	H	2.129293	0.000017	0.019386
H40	H	1.331503	0.630545	-0.338293
O41	O	1.652127	0.641609	-0.017966
C42	C	1.726821	0.547252	0.056729
H43	H	1.728672	0.444683	0.005224
H44	H	1.826953	0.588807	0.074951
H45	H	1.685240	0.531967	0.150411
O46	O	2.086526	-0.000175	-0.413604
C47	C	2.046030	-0.118576	-0.482270
H48	H	1.954876	-0.158036	-0.447253
H49	H	2.028760	-0.091955	-0.586699
H50	H	2.121706	-0.201478	-0.468385
O51	O	1.828251	-0.000171	-0.406595
C52	C	1.751650	-0.118568	-0.411438
H53	H	1.744166	-0.158032	-0.311693
H54	H	1.653599	-0.091939	-0.457355
H55	H	1.795242	-0.201469	-0.469180
H56	H	1.638684	0.369494	-0.031297
H57	H	1.331465	0.369505	-0.338291
H58	H	1.695588	0.000038	0.221720
O59	O	1.707077	0.000073	0.471720
C60	C	1.810223	0.000057	0.398141
H61	H	1.779191	0.043339	0.300654
H62	H	1.889140	0.066423	0.445782
H63	H	1.845745	-0.109600	0.388490
O64	O	1.263096	0.000059	0.158665
C65	C	1.159943	0.000015	0.232234
H66	H	1.190956	0.043290	0.329732
H67	H	1.081014	0.066372	0.184600
H68	H	1.124445	-0.109650	0.241859
