data_functionalizedCrystal
_audit_creation_method	'MofGen! by Chris Wilmer'
_symmetry_space_group_name_H-M	'P1'
_symmetry_Int_Tables_number	1
_symmetry_cell_setting	triclinic
loop_
_symmetry_equiv_pos_as_xyz
  x,y,z
_cell_length_a	15.944499
_cell_length_b	10.654550
_cell_length_c	9.730223
_cell_angle_alpha	90.004253
_cell_angle_beta	90.005881
_cell_angle_gamma	83.981270
loop_
_atom_site_label
_atom_site_type_symbol
_atom_site_fract_x
_atom_site_fract_y
_atom_site_fract_z
O1	O	-1.115485	-0.161656	-0.114372
O2	O	-0.871046	-0.181693	-0.114357
O3	O	-0.998886	0.011139	-0.114356
O4	O	-0.987646	-0.354488	-0.114373
O5	O	-0.998877	0.011144	0.114224
O6	O	-0.871038	-0.181688	0.114223
O7	O	-1.115477	-0.161651	0.114208
Zn8	Zn	-0.993256	-0.171669	0.150508
Zn9	Zn	-0.993267	-0.171675	-0.150656
O10	O	-0.987637	-0.354483	0.114207
C11	C	-0.998056	0.057929	-0.000067
C12	C	-0.995587	0.197339	-0.000069
C13	C	-0.839742	-0.180870	-0.000065
C14	C	-0.746480	-0.178411	-0.000059
C15	C	-1.146781	-0.162474	-0.000087
C16	C	-1.240043	-0.164933	-0.000102
C17	C	-0.455592	-0.290441	-0.000084
C18	C	-0.516288	-0.232207	-0.112786
C19	C	-0.410791	-0.169476	-0.000090
C20	C	-0.516266	-0.232170	0.112576
C21	C	-0.575726	-0.173872	-0.000072
C22	C	-0.470259	-0.111209	-0.112885
C23	C	-0.470231	-0.111188	0.112578
C24	C	-0.530909	-0.052866	-0.000151
C25	C	-0.315777	-0.166947	-0.000101
C26	C	-0.670739	-0.176392	-0.000071
C27	C	-0.988467	-0.401273	-0.000085
C28	C	-0.990936	-0.540683	-0.000092
N29	N	-0.993255	-0.171663	0.356044
C30	C	-1.070857	0.277820	-0.000074
C31	C	-1.068532	0.408810	-0.000091
C32	C	-0.915660	0.378826	-0.000091
C33	C	-0.917986	0.247839	-0.000084
N34	N	-0.993275	-0.171671	-0.356193
C35	C	-1.049882	-0.086313	0.427970
C36	C	-1.049890	-0.086313	0.571853
C37	C	-0.936642	-0.257025	0.571871
C38	C	-0.936630	-0.257018	0.427991
H39	H	-0.536686	-0.283377	-0.208065
H40	H	-0.890540	-0.326521	0.630464
C41	C	-0.831327	0.433414	-0.000168
C42	C	-0.765906	0.334892	-0.000202
C43	C	-0.688205	0.385126	-0.000289
H44	H	-0.827116	0.483878	0.079519
H45	H	-0.827202	0.483846	-0.079913
H46	H	-0.770029	0.284482	0.079536
H47	H	-0.770089	0.284420	-0.079882
H48	H	-0.684081	0.435558	-0.080035
H49	H	-0.684003	0.435590	0.079399
H50	H	-0.643808	0.318287	-0.000325
C51	C	-1.111416	0.006151	0.650121
C52	C	-1.163209	-0.060787	0.732724
C53	C	-1.219890	0.024354	0.804856
H54	H	-1.145216	0.057019	0.586819
H55	H	-1.080927	0.058434	0.706344
H56	H	-1.193696	-0.113048	0.676505
H57	H	-1.129432	-0.111650	0.796051
H58	H	-1.189401	0.076637	0.861079
H59	H	-1.253685	0.075217	0.741544
H60	H	-1.255033	-0.021050	0.860920
C61	C	-0.836285	0.160389	-0.000363
C62	C	-0.833156	0.084328	-0.117979
C63	C	-0.757905	0.003767	-0.118299
H64	H	-0.833930	0.108554	0.079255
H65	H	-0.789712	0.209179	-0.000439
H66	H	-0.879716	0.035542	-0.117890
H67	H	-0.835497	0.136129	-0.197616
H68	H	-0.711332	0.052558	-0.118375
H69	H	-0.755557	-0.048059	-0.038676
H70	H	-0.755768	-0.047841	-0.198105
C71	C	-0.411958	-0.424317	-0.000515
C72	C	-0.435162	-0.487076	-0.118800
C73	C	-0.394972	-0.610393	-0.119261
H74	H	-0.428335	-0.467874	0.078641
H75	H	-0.352571	-0.421836	0.000228
H76	H	-0.494536	-0.489563	-0.119531
H77	H	-0.418783	-0.443557	-0.197976
H78	H	-0.335585	-0.607912	-0.118517
H79	H	-0.411353	-0.653938	-0.040099
H80	H	-0.410704	-0.652987	-0.199522
C81	C	-0.443066	-0.043152	-0.240029
C82	C	-0.355367	-0.041675	-0.238601
C83	C	-0.330283	0.020985	-0.355713
H84	H	-0.469443	0.041032	-0.240477
H85	H	-0.459152	-0.085851	-0.319998
H86	H	-0.339289	0.001026	-0.158653
H87	H	-0.328968	-0.125841	-0.238173
H88	H	-0.346369	-0.021714	-0.435682
H89	H	-0.356665	0.105165	-0.356151
H90	H	-0.270776	0.021985	-0.354766
H91	H	-1.095988	-0.016810	0.369395
C92	C	-0.442606	-0.043152	0.239453
C93	C	-0.402801	0.061989	0.199201
C94	C	-0.377185	0.124535	0.316047
H95	H	-0.404362	-0.098857	0.291260
H96	H	-0.490484	-0.016319	0.294204
H97	H	-0.354929	0.035154	0.144473
H98	H	-0.441029	0.117724	0.147411
H99	H	-0.425063	0.151369	0.370798
H100	H	-0.338944	0.068820	0.367846
H101	H	-0.350181	0.195886	0.288753
C102	C	-0.574341	0.081129	-0.000506
C103	C	-0.551009	0.143857	-0.118714
C104	C	-0.591011	0.267287	-0.119103
H105	H	-0.557904	0.124571	0.078704
H106	H	-0.633747	0.078862	0.000180
H107	H	-0.491616	0.146131	-0.119388
H108	H	-0.567447	0.100454	-0.197944
H109	H	-0.650417	0.265020	-0.118417
H110	H	-0.574571	0.310717	-0.039888
H111	H	-0.575193	0.309860	-0.199311
C112	C	-0.543293	-0.300604	0.239574
C113	C	-0.504791	-0.424905	0.239038
C114	C	-0.529656	-0.487988	0.356009
H115	H	-0.602827	-0.301175	0.239222
H116	H	-0.526729	-0.258513	0.319644
H117	H	-0.521361	-0.466985	0.158990
H118	H	-0.445259	-0.424371	0.239411
H119	H	-0.513092	-0.445897	0.436078
H120	H	-0.589190	-0.488549	0.355646
H121	H	-0.503531	-0.572328	0.355667
H122	H	-1.134045	0.236708	-0.000064
C123	C	-1.150347	0.495980	-0.000021
C124	C	-1.218800	0.423712	0.000027
C125	C	-1.294184	0.503969	0.000107
H126	H	-1.152745	0.547719	-0.079715
H127	H	-1.152658	0.547694	0.079717
H128	H	-1.216490	0.372020	-0.079703
H129	H	-1.216430	0.371975	0.079715
H130	H	-1.296495	0.555683	0.079845
H131	H	-1.296573	0.555704	-0.079588
H132	H	-1.340638	0.454947	0.000152
H133	H	-0.890514	-0.326521	0.369424
