data_functionalizedCrystal
_audit_creation_method	'MofGen! by Chris Wilmer'
_symmetry_space_group_name_H-M	'P1'
_symmetry_Int_Tables_number	1
_symmetry_cell_setting	triclinic
loop_
_symmetry_equiv_pos_as_xyz
  x,y,z
_cell_length_a	19.288864
_cell_length_b	10.489711
_cell_length_c	18.366186
_cell_angle_alpha	89.997509
_cell_angle_beta	89.977106
_cell_angle_gamma	83.831628
loop_
_atom_site_label
_atom_site_type_symbol
_atom_site_fract_x
_atom_site_fract_y
_atom_site_fract_z
O1	O	0.922410	0.159112	-0.060778
O2	O	0.720293	0.180576	-0.060727
O3	O	0.825961	-0.015861	-0.060755
O4	O	0.816742	0.355548	-0.060749
O5	O	0.825943	-0.015870	0.060344
O6	O	0.720274	0.180566	0.060372
O7	O	0.922392	0.159102	0.060322
Zn8	Zn	0.821330	0.169833	0.079574
Zn9	Zn	0.821354	0.169845	-0.079979
O10	O	0.816723	0.355539	0.060350
C11	C	0.694402	0.179880	-0.000171
C12	C	0.617285	0.177807	-0.000152
C13	C	0.825260	-0.063382	-0.000208
C14	C	0.823190	-0.204966	-0.000213
C15	C	0.573355	0.293067	-0.000161
C16	C	0.500895	0.291120	-0.000170
C17	C	0.472368	0.173905	-0.000183
C18	C	0.516308	0.058630	-0.000169
C19	C	0.588766	0.060581	-0.000154
C20	C	0.363500	0.081765	-0.042635
C21	C	0.291043	0.079819	-0.042655
C22	C	0.248883	0.167883	-0.000227
C23	C	0.279187	0.257915	0.042212
C24	C	0.351646	0.259866	0.042227
C25	C	0.393800	0.171777	-0.000199
C26	C	0.126383	0.281039	-0.000244
C27	C	0.053921	0.279086	-0.000248
C28	C	0.069336	0.046594	-0.000255
C29	C	0.141796	0.048550	-0.000244
C30	C	0.170314	0.165776	-0.000242
C31	C	0.886736	-0.388790	-0.000222
C32	C	0.854985	-0.295933	0.059494
C33	C	0.854986	-0.295947	-0.059901
C34	C	0.787716	-0.364363	0.059567
C35	C	0.787726	-0.364387	-0.059882
C36	C	0.755926	-0.271556	-0.000151
C37	C	0.948282	0.159798	-0.000236
C38	C	1.025400	0.161871	-0.000260
C39	C	0.817425	0.403060	-0.000199
C40	C	0.819495	0.544645	-0.000198
N41	N	0.821319	0.169823	0.188465
N42	N	0.821371	0.169845	-0.188871
C43	C	0.868125	0.082884	0.226553
C44	C	0.868129	0.082878	0.302781
C45	C	0.821335	0.169834	0.340918
C46	C	0.774520	0.256780	0.302821
C47	C	0.774512	0.256775	0.226595
C48	C	0.812809	0.286049	0.461682
C49	C	0.812822	0.286056	0.537907
C50	C	0.821354	0.169850	0.576026
C51	C	0.829889	0.053632	0.537910
C52	C	0.829882	0.053627	0.461684
C53	C	0.821338	0.169849	0.423573
C54	C	0.868168	0.082897	0.696768
C55	C	0.868167	0.082890	0.772998
C56	C	0.774561	0.256803	0.773036
C57	C	0.774558	0.256799	0.696808
C58	C	0.821365	0.169847	0.658679
H59	H	0.465120	0.384981	-0.000175
N60	N	0.236125	0.347857	0.085562
N61	N	0.244050	0.349921	0.153080
H62	H	0.213632	0.413441	0.183692
N63	N	0.155508	0.400787	-0.000238
N64	N	0.116272	0.503694	-0.000237
H65	H	0.136839	0.588268	-0.000232
H66	H	0.736447	0.327598	0.665795
N67	N	0.890683	-0.257910	-0.123244
N68	N	0.859680	-0.182093	-0.167951
H69	H	0.884894	-0.155234	-0.212686
H70	H	0.759280	-0.394533	0.110109
N71	N	0.186663	-0.069199	-0.000236
N72	N	0.161188	-0.173849	-0.000245
H73	H	0.192875	-0.257016	-0.000237
H74	H	0.805876	0.380687	0.568934
H75	H	0.883429	-0.265593	0.109965
N76	N	0.915999	-0.005833	0.187618
N77	N	0.957827	-0.083382	0.221640
H78	H	0.991660	-0.146001	0.194141
N79	N	0.726771	0.345644	0.811984
N80	N	0.728304	0.463534	0.803466
H81	H	0.694550	0.526280	0.830977
H82	H	0.805848	0.380684	0.430652
H83	H	0.018154	0.372949	-0.000251
N84	N	0.406558	-0.008178	-0.085993
N85	N	0.444500	0.030832	-0.134558
H86	H	0.474908	-0.032687	-0.165180
N87	N	0.686530	-0.207940	-0.000088
N88	N	0.646043	-0.225462	0.051235
H89	H	0.597032	-0.180533	0.051283
H90	H	0.836829	-0.041001	0.430653
N91	N	0.726720	0.345587	0.341785
N92	N	0.726733	0.345581	0.409843
H93	H	0.692971	0.408299	0.437362
N94	N	0.040195	-0.073129	-0.000255
N95	N	-0.024501	-0.074858	-0.000261
H96	H	-0.045086	-0.159414	-0.000257
H97	H	0.906246	0.012079	0.333798
H98	H	0.266374	0.006515	-0.077214
N99	N	0.838596	-0.065069	0.576848
N100	N	0.838589	-0.065054	0.644907
H101	H	0.844734	-0.148884	0.672410
H102	H	0.759305	-0.394760	-0.110356
H103	H	0.493077	-0.036807	-0.000190
H104	H	0.736396	0.327573	0.195583
H105	H	0.906280	0.012086	0.804009
N106	N	0.602473	0.412818	-0.000162
N107	N	0.563236	0.515722	-0.000171
H108	H	0.583801	0.600298	-0.000172
H109	H	0.624535	-0.033281	-0.000146
N110	N	0.382591	0.351831	0.085577
N111	N	0.344948	0.430461	0.123456
H112	H	0.366802	0.495412	0.154075
H113	H	0.906279	0.012092	0.665722
H114	H	0.942004	-0.439730	-0.000177
