data_functionalizedCrystal
_audit_creation_method	'MofGen! by Chris Wilmer'
_symmetry_space_group_name_H-M	'P1'
_symmetry_Int_Tables_number	1
_symmetry_cell_setting	triclinic
loop_
_symmetry_equiv_pos_as_xyz
  x,y,z
_cell_length_a	19.288864
_cell_length_b	10.540539
_cell_length_c	17.766277
_cell_angle_alpha	89.995823
_cell_angle_beta	89.976791
_cell_angle_gamma	83.830869
loop_
_atom_site_label
_atom_site_type_symbol
_atom_site_fract_x
_atom_site_fract_y
_atom_site_fract_z
O1	O	0.922410	0.158345	-0.062832
O2	O	0.720292	0.179706	-0.062781
O3	O	0.825962	-0.015784	-0.062807
O4	O	0.816739	0.353835	-0.062806
O5	O	0.825943	-0.015794	0.062382
O6	O	0.720273	0.179696	0.062408
O7	O	0.922391	0.158335	0.062356
Cu8	Cu	0.821330	0.169015	0.073813
Cu9	Cu	0.821352	0.169026	-0.074237
O10	O	0.816721	0.353825	0.062382
C11	C	0.694401	0.179013	-0.000180
C12	C	0.617284	0.176950	-0.000160
C13	C	0.573353	0.291654	-0.000172
C14	C	0.500893	0.289716	-0.000180
C15	C	0.472367	0.173067	-0.000192
C16	C	0.516308	0.058347	-0.000176
C17	C	0.588766	0.060289	-0.000160
C18	C	0.363500	0.081371	-0.044076
C19	C	0.291042	0.079434	-0.044097
C20	C	0.248881	0.167074	-0.000237
C21	C	0.279185	0.256671	0.043633
C22	C	0.351644	0.258613	0.043649
C23	C	0.393799	0.170949	-0.000208
C24	C	0.126381	0.279684	-0.000257
C25	C	0.053919	0.277741	-0.000261
C26	C	0.069336	0.046369	-0.000264
C27	C	0.141795	0.048315	-0.000253
C28	C	0.170313	0.164976	-0.000253
C29	C	0.825261	-0.063076	-0.000214
C30	C	0.823192	-0.203978	-0.000217
C31	C	0.743903	-0.385638	-0.000478
C32	C	0.746000	-0.239067	-0.000197
C33	C	0.860329	-0.266470	0.071262
C34	C	0.857694	-0.412955	0.071323
C35	C	0.859286	-0.413497	-0.071040
C36	C	0.859997	-0.266531	-0.071986
C37	C	0.948281	0.159027	-0.000246
C38	C	1.025399	0.161091	-0.000271
C39	C	0.817422	0.401117	-0.000212
C40	C	0.819491	0.542019	-0.000214
N41	N	0.821320	0.169006	0.177943
N42	N	0.821368	0.169025	-0.178368
C43	C	0.868126	0.082485	0.217318
C44	C	0.868130	0.082479	0.296120
C45	C	0.821334	0.169016	0.335544
C46	C	0.774519	0.255543	0.296159
C47	C	0.774512	0.255538	0.217359
C48	C	0.812807	0.284670	0.460383
C49	C	0.812819	0.284676	0.539182
C50	C	0.821353	0.169031	0.578590
C51	C	0.829889	0.053373	0.539189
C52	C	0.829882	0.053368	0.460389
C53	C	0.821337	0.169030	0.420989
C54	C	0.868166	0.082497	0.703411
C55	C	0.868165	0.082489	0.782214
C56	C	0.774558	0.255564	0.782252
C57	C	0.774555	0.255560	0.703450
C58	C	0.821363	0.169028	0.664034
H59	H	0.493077	-0.036629	-0.000196
C60	C	0.452557	0.415892	-0.000196
H61	H	0.405319	0.398024	-0.000202
H62	H	0.461289	0.463741	-0.043851
H63	H	0.461238	0.463744	0.043466
C64	C	0.839260	-0.073841	0.417049
H65	H	0.844438	-0.142717	0.451797
H66	H	0.879627	-0.076523	0.386201
H67	H	0.799485	-0.080769	0.386417
C68	C	0.637095	-0.065888	-0.000153
H69	H	0.684333	-0.048023	-0.000139
H70	H	0.628409	-0.113737	-0.043810
H71	H	0.628366	-0.113738	0.043507
H72	H	0.736416	0.326000	0.328261
C73	C	0.409870	-0.015029	-0.092331
H74	H	0.381445	-0.068650	-0.118470
H75	H	0.441537	-0.065532	-0.060714
H76	H	0.435226	0.029635	-0.127593
H77	H	0.716558	-0.196659	0.051142
H78	H	0.916276	-0.243564	-0.076317
H79	H	0.917016	-0.245379	0.073906
C80	C	0.384977	0.357150	0.091909
H81	H	0.349495	0.409065	0.118034
H82	H	0.409849	0.409161	0.060298
H83	H	0.416146	0.314005	0.127183
H84	H	0.805846	0.378849	0.428304
C85	C	0.706527	-0.180615	-0.069413
H86	H	0.707762	-0.090755	-0.069336
H87	H	0.659458	-0.199283	-0.067636
H88	H	0.728018	-0.215740	-0.113975
C89	C	0.723083	0.350752	0.825608
H90	H	0.729793	0.338369	0.878179
H91	H	0.676661	0.337184	0.812719
H92	H	0.731048	0.435436	0.812684
H93	H	0.736396	0.325994	0.185298
C94	C	0.232821	0.353081	0.091884
H95	H	0.261246	0.406720	0.118008
H96	H	0.207462	0.308437	0.127146
H97	H	0.201157	0.403581	0.060255
C98	C	0.934602	-0.478982	-0.071717
H99	H	0.941789	-0.533176	-0.029072
H100	H	0.966294	-0.416003	-0.070157
H101	H	0.942180	-0.528195	-0.116336
C102	C	0.919605	-0.012709	0.173966
H103	H	0.947477	-0.064247	0.208707
H104	H	0.948738	0.032809	0.143203
H105	H	0.894351	-0.065442	0.143248
H106	H	0.906278	0.012027	0.814274
C107	C	0.037966	-0.081943	-0.000281
H108	H	-0.011480	-0.066673	-0.000298
H109	H	0.052983	-0.129168	0.043374
H110	H	0.053032	-0.129144	-0.043943
H111	H	0.018151	0.371151	-0.000266
H112	H	0.834516	-0.223299	0.124468
H113	H	0.177565	-0.045090	-0.000247
C114	C	0.825546	-0.455352	-0.144230
H115	H	0.786869	-0.500352	-0.132274
H116	H	0.858795	-0.509320	-0.172153
H117	H	0.810141	-0.382193	-0.173408
C118	C	0.919644	-0.012695	0.660051
H119	H	0.947514	-0.064240	0.694791
H120	H	0.948780	0.032827	0.629293
H121	H	0.894391	-0.065421	0.629329
C122	C	0.823344	-0.210405	-0.143424
H123	H	0.785770	-0.149100	-0.129578
H124	H	0.805959	-0.276857	-0.171490
H125	H	0.855693	-0.170602	-0.173270
H126	H	0.836837	-0.040796	0.571274
H127	H	0.149601	0.374676	-0.000246
C128	C	0.257714	-0.019121	-0.092348
H129	H	0.293201	-0.071055	-0.118455
H130	H	0.226544	0.023995	-0.127625
H131	H	0.232847	-0.071129	-0.060724
C132	C	0.723075	0.350748	0.660135
H133	H	0.695209	0.402294	0.694898
H134	H	0.693936	0.305223	0.629412
H135	H	0.748324	0.403473	0.629380
C136	C	0.702867	-0.425518	0.068403
H137	H	0.731600	-0.486061	0.097323
H138	H	0.662703	-0.462497	0.051978
H139	H	0.688993	-0.352592	0.098414
H140	H	0.713418	-0.413555	-0.051736
C141	C	0.820588	-0.450235	0.143517
H142	H	0.807259	-0.375887	0.172530
H143	H	0.851327	-0.507977	0.172093
H144	H	0.780271	-0.489817	0.130463
H145	H	0.913209	-0.462161	0.074552
C146	C	0.919620	-0.012689	0.339446
H147	H	0.912917	-0.000295	0.392021
H148	H	0.966038	0.000887	0.326505
H149	H	0.911660	-0.097380	0.326546
C150	C	0.803431	0.411888	0.582519
H151	H	0.804666	0.395331	0.635093
H152	H	0.759847	0.457348	0.569627
H153	H	0.840000	0.461462	0.569579
H154	H	0.596567	0.386649	-0.000173
