data_functionalizedCrystal
_audit_creation_method	'MofGen! by Chris Wilmer'
_symmetry_space_group_name_H-M	'P1'
_symmetry_Int_Tables_number	1
_symmetry_cell_setting	triclinic
loop_
_symmetry_equiv_pos_as_xyz
  x,y,z
_cell_length_a	19.188925
_cell_length_b	17.666332
_cell_length_c	19.188930
_cell_angle_alpha	89.988397
_cell_angle_beta	96.856335
_cell_angle_gamma	90.010303
loop_
_atom_site_label
_atom_site_type_symbol
_atom_site_fract_x
_atom_site_fract_y
_atom_site_fract_z
O1	O	0.926152	0.062973	-0.087151
O2	O	0.722840	0.062972	-0.098889
O3	O	0.830363	0.062958	0.008636
O4	O	0.818629	0.062987	-0.194676
O5	O	0.830344	-0.062939	0.008642
O6	O	0.722821	-0.062925	-0.098883
O7	O	0.926133	-0.062924	-0.087145
Cu8	Cu	0.824476	-0.074419	-0.093014
Cu9	Cu	0.824498	0.074468	-0.093020
O10	O	0.818610	-0.062909	-0.194670
C11	C	0.696820	0.000023	-0.098507
C12	C	0.619315	0.000022	-0.097367
C13	C	0.057545	0.000032	-0.152831
C14	C	0.130368	0.000037	-0.153908
C15	C	0.175302	0.000026	-0.090816
C16	C	0.147408	0.000031	-0.026642
C17	C	0.074586	0.000034	-0.025568
N18	N	0.295973	-0.042837	-0.045138
N19	N	0.365150	-0.042842	-0.046163
C20	C	0.394712	0.000018	-0.094050
N21	N	0.352481	0.042872	-0.140883
N22	N	0.283297	0.042874	-0.139860
C23	C	0.254267	0.000023	-0.091974
C24	C	0.501561	0.000023	-0.159386
C25	C	0.574385	0.000032	-0.160460
C26	C	0.591425	0.000018	-0.033193
C27	C	0.518601	0.000017	-0.032121
C28	C	0.473673	0.000016	-0.095220
N29	N	0.824465	-0.179139	-0.093008
C30	C	0.872092	-0.218755	-0.045420
C31	C	0.872096	-0.298003	-0.045416
C32	C	0.824480	-0.337631	-0.093014
C33	C	0.776844	-0.298005	-0.140606
C34	C	0.776837	-0.218759	-0.140604
N35	N	0.815404	-0.462041	-0.154821
N36	N	0.815415	-0.537321	-0.154821
C37	C	0.824498	-0.576395	-0.093023
N38	N	0.833584	-0.537345	-0.031223
N39	N	0.833576	-0.462057	-0.031223
C40	C	0.824482	-0.423560	-0.093022
C41	C	0.872132	-0.701940	-0.045427
C42	C	0.872131	-0.781190	-0.045423
C43	C	0.776883	-0.781191	-0.140619
C44	C	0.776880	-0.701943	-0.140617
C45	C	0.824509	-0.662323	-0.093022
C46	C	0.952154	0.000027	-0.087527
C47	C	1.029658	0.000033	-0.088666
C48	C	0.829974	0.000007	0.034650
C49	C	0.828833	0.000001	0.112154
N50	N	0.824514	0.179187	-0.093020
C51	C	0.819000	0.000043	-0.220684
C52	C	0.820140	0.000054	-0.298188
C53	C	0.891924	-0.000003	0.157079
C54	C	0.890852	0.000010	0.229903
C55	C	0.826686	0.000010	0.257799
C56	C	0.763587	0.000017	0.212864
C57	C	0.764660	0.000013	0.140041
N58	N	0.777632	-0.042835	0.365805
N59	N	0.776617	-0.042833	0.434983
C60	C	0.823448	0.000025	0.477207
N61	N	0.871344	0.042871	0.447641
N62	N	0.872361	0.042865	0.378456
C63	C	0.825515	0.000015	0.336761
C64	C	0.885381	0.000036	0.601097
C65	C	0.884307	0.000053	0.673922
C66	C	0.757040	0.000053	0.656880
C67	C	0.758116	0.000044	0.584057
C68	C	0.822289	0.000032	0.556170
H69	H	0.628010	0.000016	0.018178
Cl70	Cl	0.972598	0.000004	0.122025
H71	H	0.711342	0.000019	0.235581
H72	H	0.910880	-0.330264	-0.006662
Cl73	Cl	0.609442	0.000039	-0.241132
H74	H	0.495896	0.000013	0.020129
H75	H	0.738074	-0.330275	-0.179360
Cl76	Cl	0.932003	-0.652131	0.014410
H77	H	0.910871	-0.186498	-0.006663
H78	H	0.935686	0.000054	0.710500
Cl79	Cl	0.717018	-0.831004	-0.200450
Cl80	Cl	0.716960	-0.168953	-0.200435
H81	H	0.910912	-0.813446	-0.006666
H82	H	0.051883	0.000035	0.026685
H83	H	0.738101	-0.669686	-0.179371
H84	H	0.942230	0.000010	0.266488
H85	H	0.713282	0.000015	0.103462
H86	H	0.937635	0.000030	0.578390
H87	H	0.020968	0.000035	-0.204211
H88	H	0.704794	0.000057	0.679592
Cl89	Cl	0.678797	0.000045	0.527576
H90	H	0.153078	0.000029	-0.206160
H91	H	0.183999	0.000024	0.024728
H92	H	0.464978	0.000023	-0.210765
