data_functionalizedCrystal
_audit_creation_method	'MofGen! by Chris Wilmer'
_symmetry_space_group_name_H-M	'P1'
_symmetry_Int_Tables_number	1
_symmetry_cell_setting	triclinic
loop_
_symmetry_equiv_pos_as_xyz
  x,y,z
_cell_length_a	19.288855
_cell_length_b	19.288864
_cell_length_c	17.766277
_cell_angle_alpha	89.976755
_cell_angle_beta	90.007804
_cell_angle_gamma	96.865756
loop_
_atom_site_label
_atom_site_type_symbol
_atom_site_fract_x
_atom_site_fract_y
_atom_site_fract_z
O1	O	-0.086648	0.921350	-0.062840
O2	O	0.246685	1.254684	0.270494
O3	O	0.580019	1.588017	0.603827
O4	O	-0.098337	0.719089	-0.062789
O5	O	0.234997	1.052422	0.270544
O6	O	0.568330	1.385756	0.603878
O7	O	0.008638	0.826068	-0.062806
O8	O	0.341972	1.159401	0.270527
O9	O	0.675305	1.492734	0.603861
O10	O	-0.193623	0.814372	-0.062823
O11	O	0.139710	1.147705	0.270511
O12	O	0.473044	1.481038	0.603844
O13	O	0.008641	0.826049	0.062383
O14	O	0.341975	1.159382	0.395716
O15	O	0.675308	1.492715	0.729049
O16	O	-0.098334	0.719070	0.062400
O17	O	0.235000	1.052403	0.395733
O18	O	0.568333	1.385737	0.729066
O19	O	-0.086645	0.921331	0.062349
O20	O	0.246688	1.254664	0.395682
O21	O	0.580022	1.587998	0.729015
Cu22	Cu	-0.092489	0.820199	0.073805
Cu23	Cu	0.240844	1.153532	0.407138
Cu24	Cu	0.574178	1.486866	0.740472
Cu25	Cu	-0.092493	0.820221	-0.074245
Cu26	Cu	0.240841	1.153555	0.259088
Cu27	Cu	0.574174	1.486888	0.592422
O28	O	-0.193620	0.814353	0.062366
O29	O	0.139713	1.147686	0.395699
O30	O	0.473047	1.481019	0.729032
C31	C	-0.097959	0.693203	-0.000188
C32	C	0.235374	1.026536	0.333145
C33	C	0.568708	1.359870	0.666479
C34	C	-0.096830	0.616100	-0.000168
C35	C	0.236503	0.949433	0.333165
C36	C	0.569837	1.282766	0.666498
C37	C	-0.159598	0.571401	-0.000185
C38	C	0.173735	0.904734	0.333148
C39	C	0.507068	1.238068	0.666481
C40	C	-0.158538	0.498954	-0.000193
C41	C	0.174796	0.832287	0.333140
C42	C	0.508129	1.165621	0.666473
C43	C	-0.094705	0.471209	-0.000200
C44	C	0.238628	0.804542	0.333134
C45	C	0.571962	1.137875	0.666467
C46	C	-0.031929	0.515917	-0.000178
C47	C	0.301405	0.849250	0.333155
C48	C	0.634738	1.182584	0.666488
C49	C	-0.032991	0.588363	-0.000163
C50	C	0.300342	0.921696	0.333171
C51	C	0.633675	1.255029	0.666504
C52	C	-0.044527	0.362955	-0.044080
C53	C	0.288806	0.696289	0.289253
C54	C	0.622140	1.029622	0.622587
C55	C	-0.043467	0.290511	-0.044100
C56	C	0.289866	0.623844	0.289233
C57	C	0.623200	0.957177	0.622566
C58	C	-0.091426	0.247763	-0.000245
C59	C	0.241908	0.581097	0.333088
C60	C	0.575241	0.914430	0.666422
C61	C	-0.140456	0.277468	0.043621
C62	C	0.192878	0.610801	0.376954
C63	C	0.526211	0.944134	0.710288
C64	C	-0.141518	0.349913	0.043637
C65	C	0.191815	0.683246	0.376970
C66	C	0.525148	1.016580	0.710303
C67	C	-0.093546	0.392655	-0.000216
C68	C	0.239787	0.725988	0.333117
C69	C	0.573121	1.059321	0.666450
C70	C	-0.153048	0.124509	-0.000270
C71	C	0.180285	0.457842	0.333063
C72	C	0.513619	0.791176	0.666397
C73	C	-0.151985	0.052061	-0.000274
C74	C	0.181349	0.385394	0.333060
C75	C	0.514682	0.718728	0.666393
C76	C	-0.025374	0.069026	-0.000266
C77	C	0.307959	0.402359	0.333067
C78	C	0.641293	0.735692	0.666401
C79	C	-0.026439	0.141472	-0.000255
C80	C	0.306894	0.474805	0.333078
C81	C	0.640228	0.808139	0.666412
C82	C	-0.090278	0.169209	-0.000260
C83	C	0.243055	0.502542	0.333073
C84	C	0.576389	0.835876	0.666406
C85	C	0.034517	0.825683	-0.000211
C86	C	0.367850	1.159016	0.333123
C87	C	0.701183	1.492350	0.666456
C88	C	0.111620	0.824557	-0.000208
C89	C	0.444954	1.157890	0.333126
C90	C	0.778287	1.491223	0.666459
C91	C	0.147829	0.824041	-0.068448
C92	C	0.481163	1.157375	0.264886
C93	C	0.814496	1.490708	0.598219
C94	C	0.220276	0.822973	-0.068452
C95	C	0.553609	1.156307	0.264881
C96	C	0.886942	1.489640	0.598214
C97	C	0.256512	0.822434	-0.000213
C98	C	0.589845	1.155768	0.333120
C99	C	0.923178	1.489101	0.666453
C100	C	0.220293	0.822946	0.068036
C101	C	0.553627	1.156279	0.401369
C102	C	0.886960	1.489612	0.734702
C103	C	0.147848	0.824007	0.068039
C104	C	0.481181	1.157340	0.401372
C105	C	0.814515	1.490674	0.734705
C106	C	0.376745	0.861429	0.052053
C107	C	0.710078	1.194762	0.385386
C108	C	1.043411	1.528096	0.718720
C109	C	0.449189	0.860372	0.052047
C110	C	0.782523	1.193705	0.385381
C111	C	1.115856	1.527039	0.718714
C112	C	0.479958	0.819158	-0.000219
C113	C	0.813291	1.152492	0.333114
C114	C	1.146624	1.485825	0.666448
C115	C	0.438274	0.779010	-0.052492
C116	C	0.771607	1.112344	0.280841
C117	C	1.104940	1.445677	0.614174
C118	C	0.365828	0.780072	-0.052490
C119	C	0.699161	1.113405	0.280844
C120	C	1.032495	1.446738	0.614177
C121	C	0.335067	0.821283	-0.000209
C122	C	0.668400	1.154617	0.333125
C123	C	1.001733	1.487950	0.666458
C124	C	0.594721	0.817484	-0.068469
C125	C	0.928054	1.150817	0.264864
C126	C	1.261388	1.484150	0.598198
C127	C	0.667168	0.816411	-0.068471
C128	C	1.000501	1.149745	0.264863
C129	C	1.333834	1.483078	0.598196
C130	C	0.667185	0.816391	0.068019
C131	C	1.000519	1.149724	0.401353
C132	C	1.333852	1.483057	0.734686
C133	C	0.594739	0.817456	0.068019
C134	C	0.928072	1.150790	0.401352
C135	C	1.261406	1.484123	0.734686
C136	C	0.558512	0.818006	-0.000227
C137	C	0.891845	1.151339	0.333106
C138	C	1.225178	1.484673	0.666440
C139	C	0.780502	0.814739	-0.000229
C140	C	1.113835	1.148073	0.333104
C141	C	1.447169	1.481406	0.666438
C142	C	0.703399	0.815871	-0.000231
C143	C	1.036732	1.149205	0.333102
C144	C	1.370066	1.482538	0.666436
C145	C	-0.087023	0.947217	-0.000254
C146	C	0.246311	1.280550	0.333079
C147	C	0.579644	1.613884	0.666413
C148	C	-0.088152	1.024321	-0.000279
C149	C	0.245182	1.357654	0.333055
C150	C	0.578515	1.690987	0.666388
N151	N	-0.092486	0.820188	0.177935
N152	N	0.240847	1.153521	0.511269
N153	N	0.574181	1.486855	0.844602
N154	N	-0.092490	0.820238	-0.178375
N155	N	0.240843	1.153571	0.154958
N156	N	0.574177	1.486904	0.488291
C157	C	-0.134510	0.862174	0.217301
C158	C	0.198823	1.195507	0.550634
C159	C	0.532157	1.528841	0.883968
C160	C	-0.134508	0.862185	0.296103
C161	C	0.198825	1.195518	0.629436
C162	C	0.532159	1.528852	0.962769
C163	C	-0.092490	0.820197	0.335536
C164	C	0.240843	1.153530	0.668869
C165	C	0.574177	1.486864	1.002202
C166	C	-0.050458	0.778208	0.296161
C167	C	0.282876	1.111542	0.629494
C168	C	0.616209	1.444875	0.962827
C169	C	-0.050456	0.778204	0.217360
C170	C	0.282878	1.111537	0.550694
C171	C	0.616211	1.444871	0.884027
C172	C	-0.090733	0.757585	0.460411
C173	C	0.242600	1.090918	0.793745
C174	C	0.575933	1.424251	1.127078
C175	C	-0.090740	0.757588	0.539210
C176	C	0.242593	1.090921	0.872543
C177	C	0.575926	1.424254	1.205877
C178	C	-0.092492	0.820211	0.578582
C179	C	0.240841	1.153545	0.911915
C180	C	0.574174	1.486878	1.245249
C181	C	-0.094252	0.882833	0.539146
C182	C	0.239081	1.216167	0.872479
C183	C	0.572415	1.549500	1.205812
C184	C	-0.094250	0.882829	0.460345
C185	C	0.239083	1.216162	0.793679
C186	C	0.572417	1.549495	1.127012
C187	C	-0.092487	0.820197	0.420981
C188	C	0.240846	1.153531	0.754315
C189	C	0.574179	1.486864	1.087648
C190	C	-0.134516	0.862213	0.703394
C191	C	0.198817	1.195546	1.036727
C192	C	0.532150	1.528879	1.370060
C193	C	-0.134509	0.862225	0.782197
C194	C	0.198824	1.195559	1.115530
C195	C	0.532157	1.528892	1.448864
C196	C	-0.050463	0.778242	0.782253
C197	C	0.282870	1.111576	1.115587
C198	C	0.616204	1.444909	1.448920
C199	C	-0.050466	0.778236	0.703452
C200	C	0.282867	1.111570	1.036785
C201	C	0.616201	1.444903	1.370118
C202	C	-0.092496	0.820220	0.664027
C203	C	0.240837	1.153554	0.997360
C204	C	0.574170	1.486887	1.330693
H205	H	-0.205029	0.147093	-0.000263
H206	H	0.128304	0.480427	0.333070
H207	H	0.461637	0.813760	0.666403
C208	C	0.707033	0.815795	0.143083
C209	C	1.040366	1.149129	0.476416
C210	C	1.373699	1.482462	0.809750
H211	H	0.675088	0.816252	0.183726
H212	H	1.008422	1.149585	0.517060
H213	H	1.341755	1.482918	0.850393
H214	H	0.740721	0.855875	0.145912
H215	H	1.074055	1.189208	0.479245
H216	H	1.407388	1.522541	0.812579
H217	H	0.729865	0.774877	0.145927
H218	H	1.063198	1.108211	0.479260
H219	H	1.396532	1.441544	0.812593
H220	H	0.249762	0.822549	-0.124023
H221	H	0.583095	1.155883	0.209310
H222	H	0.916429	1.489216	0.542643
C223	C	-0.088794	0.688698	0.417106
C224	C	0.244539	1.022031	0.750439
C225	C	0.577873	1.355364	1.083773
H226	H	-0.089034	0.697664	0.364528
H227	H	0.244299	1.030998	0.697861
H228	H	0.577632	1.364331	1.031195
H229	H	-0.128555	0.657007	0.430024
H230	H	0.204779	0.990341	0.763357
H231	H	0.538112	1.323674	1.096691
H232	H	-0.047580	0.668932	0.430043
H233	H	0.285753	1.002265	0.763376
H234	H	0.619086	1.335598	1.096709
C235	C	-0.096179	0.951725	0.582440
C236	C	0.237154	1.285058	0.915773
C237	C	0.570487	1.618392	1.249107
H238	H	-0.097232	0.989016	0.547668
H239	H	0.236102	1.322349	0.881001
H240	H	0.569435	1.655682	1.214335
H241	H	-0.055767	0.960287	0.613182
H242	H	0.277566	1.293620	0.946515
H243	H	0.610899	1.626953	1.279848
H244	H	-0.136742	0.948374	0.613175
H245	H	0.196591	1.281707	0.946508
H246	H	0.529925	1.615041	1.279842
C247	C	-0.195440	0.382587	0.091892
C248	C	0.137893	0.715920	0.425225
C249	C	0.471226	1.049254	0.758559
H250	H	-0.223850	0.346758	0.118015
H251	H	0.109484	0.680091	0.451348
H252	H	0.442817	1.013424	0.784681
H253	H	-0.223901	0.407111	0.060279
H254	H	0.109432	0.740444	0.393612
H255	H	0.442766	1.073777	0.726946
H256	H	-0.171831	0.414044	0.127168
H257	H	0.161502	0.747377	0.460501
H258	H	0.494836	1.080711	0.793835
C259	C	0.472108	0.733671	-0.109987
C260	C	0.805441	1.067005	0.223346
C261	C	1.138775	1.400338	0.556680
H262	H	0.521223	0.738781	-0.102499
H263	H	0.854556	1.072114	0.230835
H264	H	1.187889	1.405448	0.564168
H265	H	0.462147	0.748157	-0.159532
H266	H	0.795480	1.081490	0.173802
H267	H	1.128813	1.414823	0.507135
H268	H	0.453837	0.686101	-0.103389
H269	H	0.787170	1.019434	0.229944
H270	H	1.120504	1.352768	0.563278
C271	C	-0.004246	0.732001	0.174053
C272	C	0.329088	1.065335	0.507386
C273	C	0.662421	1.398668	0.840719
H274	H	-0.010265	0.738010	0.121475
H275	H	0.323068	1.071344	0.454809
H276	H	0.656401	1.404677	0.788142
H277	H	-0.017282	0.684442	0.186998
H278	H	0.316052	1.017776	0.520331
H279	H	0.649385	1.351109	0.853664
H280	H	0.043320	0.745054	0.186958
H281	H	0.376653	1.078388	0.520292
H282	H	0.709987	1.411721	0.853625
C283	C	-0.096175	0.951707	0.416968
C284	C	0.237158	1.285041	0.750301
C285	C	0.570492	1.618374	1.083634
H286	H	-0.097214	0.989008	0.451697
H287	H	0.236120	1.322341	0.785030
H288	H	0.569453	1.655675	1.118363
H289	H	-0.136730	0.948357	0.386218
H290	H	0.196604	1.281690	0.719552
H291	H	0.529937	1.615024	1.052885
H292	H	-0.055755	0.960257	0.386234
H293	H	0.277579	1.293591	0.719568
H294	H	0.610912	1.626924	1.052901
C295	C	0.706998	0.815841	-0.143539
C296	C	1.040331	1.149175	0.189795
C297	C	1.373664	1.482508	0.523128
H298	H	0.675044	0.816326	-0.184180
H299	H	1.008377	1.149659	0.149154
H300	H	1.341711	1.482993	0.482487
H301	H	0.729831	0.774930	-0.146370
H302	H	1.063164	1.108263	0.186963
H303	H	1.396497	1.441597	0.520296
H304	H	0.740685	0.855927	-0.146383
H305	H	1.074019	1.189261	0.186950
H306	H	1.407352	1.522594	0.520284
C307	C	-0.221033	0.002892	-0.000292
C308	C	0.112300	0.336225	0.333041
C309	C	0.445633	0.669558	0.666374
H310	H	-0.259202	0.029790	-0.000300
H311	H	0.074131	0.363123	0.333033
H312	H	0.407464	0.696457	0.666366
H313	H	-0.223255	-0.025746	0.043358
H314	H	0.110079	0.307588	0.376691
H315	H	0.443412	0.640921	0.710024
H316	H	-0.223246	-0.025697	-0.043960
H317	H	0.110087	0.307636	0.289374
H318	H	0.443421	0.640969	0.622707
C319	C	0.495035	0.904531	0.109545
C320	C	0.828368	1.237865	0.442878
C321	C	1.161702	1.571198	0.776211
H322	H	0.466335	0.929218	0.140682
H323	H	0.799668	1.262552	0.474016
H324	H	1.133002	1.595885	0.807349
H325	H	0.527675	0.936839	0.083654
H326	H	0.861008	1.270173	0.416987
H327	H	1.194342	1.603506	0.750320
H328	H	0.519370	0.874774	0.139784
H329	H	0.852703	1.208107	0.473117
H330	H	1.186036	1.541440	0.806450
H331	H	0.351700	0.894989	0.094620
H332	H	0.685033	1.228323	0.427953
H333	H	1.018366	1.561656	0.761287
H334	H	0.331891	0.747380	-0.095051
H335	H	0.665225	1.080714	0.238282
H336	H	0.998558	1.414047	0.571616
H337	H	0.565258	0.817882	0.123588
H338	H	0.898591	1.151215	0.456921
H339	H	1.231925	1.484548	0.790254
H340	H	-0.209653	0.462554	-0.000205
H341	H	0.123681	0.795887	0.333128
H342	H	0.457014	1.129220	0.666461
C343	C	0.554867	0.818080	-0.143535
C344	C	0.888200	1.151414	0.189799
C345	C	1.221534	1.484747	0.523132
H346	H	0.586809	0.817610	-0.184178
H347	H	0.920142	1.150943	0.149155
H348	H	1.253476	1.484277	0.482488
H349	H	0.532032	0.858992	-0.146382
H350	H	0.865365	1.192325	0.186951
H351	H	1.198699	1.525659	0.520285
H352	H	0.521179	0.777995	-0.146359
H353	H	0.854512	1.111328	0.186975
H354	H	1.187846	1.444661	0.520308
H355	H	-0.179508	0.242664	0.079333
H356	H	0.153826	0.575997	0.412666
H357	H	0.487159	0.909330	0.746000
H358	H	0.026600	0.046436	-0.000318
H359	H	0.359933	0.379770	0.333015
H360	H	0.693266	0.713103	0.666349
C361	C	0.010458	0.257838	-0.092354
C362	C	0.343791	0.591172	0.240980
C363	C	0.677124	0.924505	0.574313
H364	H	0.004216	0.208570	-0.086091
H365	H	0.337549	0.541903	0.247242
H366	H	0.670883	0.875237	0.580575
H367	H	0.056240	0.275856	-0.076927
H368	H	0.389573	0.609189	0.256407
H369	H	0.722906	0.942523	0.589740
H370	H	0.004175	0.268925	-0.143820
H371	H	0.337508	0.602258	0.189513
H372	H	0.670841	0.935592	0.522846
C373	C	0.042607	0.190642	-0.000248
C374	C	0.375940	0.523976	0.333085
C375	C	0.709273	0.857309	0.666419
H376	H	0.080776	0.163745	-0.000259
H377	H	0.414110	0.497078	0.333074
H378	H	0.747443	0.830411	0.666408
H379	H	0.044827	0.219234	0.043413
H380	H	0.378161	0.552567	0.376746
H381	H	0.711494	0.885901	0.710079
H382	H	0.044820	0.219277	-0.043905
H383	H	0.378153	0.552611	0.289429
H384	H	0.711487	0.885944	0.622762
H385	H	-0.005472	0.397755	-0.079797
H386	H	0.327862	0.731089	0.253536
H387	H	0.661195	1.064422	0.586870
C388	C	-0.229816	0.601912	-0.000187
C389	C	0.103517	0.935245	0.333146
C390	C	0.436850	1.268579	0.666479
H391	H	-0.221462	0.651460	-0.000182
H392	H	0.111872	0.984794	0.333152
H393	H	0.445205	1.318127	0.666485
H394	H	-0.255655	0.586529	0.043462
H395	H	0.077678	0.919863	0.376795
H396	H	0.411012	1.253196	0.710128
H397	H	-0.255648	0.586578	-0.043856
H398	H	0.077685	0.919912	0.289477
H399	H	0.411019	1.253245	0.622811
C400	C	0.260150	0.822355	0.143097
C401	C	0.593484	1.155688	0.476430
C402	C	0.926817	1.489021	0.809763
H403	H	0.308484	0.821656	0.133322
H404	H	0.641817	1.154989	0.466655
H405	H	0.975150	1.488323	0.799989
H406	H	0.242859	0.782028	0.171147
H407	H	0.576192	1.115361	0.504480
H408	H	0.909525	1.448694	0.837814
H409	H	0.253705	0.863025	0.171126
H410	H	0.587039	1.196358	0.504459
H411	H	0.920372	1.529692	0.837792
C412	C	0.108017	0.824580	0.143106
C413	C	0.441351	1.157914	0.476439
C414	C	0.774684	1.491247	0.809772
H415	H	0.139972	0.824110	0.183748
H416	H	0.473305	1.157443	0.517081
H417	H	0.806638	1.490776	0.850414
H418	H	0.074328	0.784500	0.145954
H419	H	0.407662	1.117834	0.479287
H420	H	0.740995	1.451167	0.812621
H421	H	0.085187	0.865498	0.145932
H422	H	0.418520	1.198831	0.479265
H423	H	0.751853	1.532164	0.812598
C424	C	0.038287	0.485404	-0.000187
C425	C	0.371620	0.818737	0.333146
C426	C	0.704953	1.152070	0.666480
H427	H	0.075519	0.522404	-0.000169
H428	H	0.408852	0.855737	0.333164
H429	H	0.742186	1.189070	0.666497
H430	H	0.041333	0.457520	-0.043849
H431	H	0.374666	0.790854	0.289484
H432	H	0.708000	1.124187	0.622817
H433	H	0.041332	0.457471	0.043468
H434	H	0.374666	0.790804	0.376802
H435	H	0.707999	1.124137	0.710135
H436	H	0.018124	0.624757	-0.000149
H437	H	0.351457	0.958090	0.333184
H438	H	0.684791	1.291424	0.666517
C439	C	0.107981	0.824634	-0.143515
C440	C	0.441315	1.157967	0.189818
C441	C	0.774648	1.491300	0.523152
H442	H	0.139926	0.824167	-0.184157
H443	H	0.473259	1.157500	0.149176
H444	H	0.806592	1.490834	0.482509
H445	H	0.085141	0.865542	-0.146365
H446	H	0.418474	1.198875	0.186968
H447	H	0.751807	1.532208	0.520302
H448	H	0.074299	0.784544	-0.146339
H449	H	0.407632	1.117877	0.186994
H450	H	0.740965	1.451211	0.520328
C451	C	-0.180733	0.908361	0.173934
C452	C	0.152601	1.241694	0.507267
C453	C	0.485934	1.575028	0.840601
H454	H	-0.174717	0.902344	0.121364
H455	H	0.158616	1.235677	0.454698
H456	H	0.491950	1.569010	0.788031
H457	H	-0.167707	0.955925	0.186829
H458	H	0.165626	1.289258	0.520163
H459	H	0.498960	1.622591	0.853496
H460	H	-0.228295	0.895299	0.186845
H461	H	0.105038	1.228632	0.520178
H462	H	0.438372	1.561965	0.853511
H463	H	-0.168740	0.896399	0.671292
H464	H	0.164594	1.229733	1.004625
H465	H	0.497927	1.563066	1.337959
C466	C	-0.180737	0.908368	0.339418
C467	C	0.152596	1.241701	0.672751
C468	C	0.485930	1.575034	1.006084
H469	H	-0.174715	0.902359	0.391995
H470	H	0.158619	1.235693	0.725328
H471	H	0.491952	1.569026	1.058661
H472	H	-0.228295	0.895306	0.326502
H473	H	0.105038	1.228640	0.659836
H474	H	0.438372	1.561973	0.993169
H475	H	-0.167710	0.955935	0.326485
H476	H	0.165623	1.289269	0.659818
H477	H	0.498957	1.622602	0.993151
H478	H	-0.168728	0.896420	0.814247
H479	H	0.164605	1.229753	1.147581
H480	H	0.497938	1.563087	1.480914
H481	H	-0.016250	0.744056	0.814359
H482	H	0.317083	1.077389	1.147692
H483	H	0.650416	1.410722	1.481026
C484	C	-0.004247	0.732043	0.660147
C485	C	0.329086	1.065376	0.993480
C486	C	0.662419	1.398709	1.326814
H487	H	0.020774	0.707032	0.694916
H488	H	0.354107	1.040366	1.028249
H489	H	0.687440	1.373699	1.361583
H490	H	0.027793	0.760603	0.629396
H491	H	0.361126	1.093936	0.962729
H492	H	0.694460	1.427270	1.296063
H493	H	-0.032799	0.699982	0.629421
H494	H	0.300534	1.033315	0.962755
H495	H	0.633867	1.366648	1.296088
H496	H	-0.089311	0.706597	0.571313
H497	H	0.244022	1.039930	0.904647
H498	H	0.577355	1.373264	1.237980
H499	H	-0.016246	0.744022	0.328272
H500	H	0.317088	1.077356	0.661605
H501	H	0.650421	1.410689	0.994939
