data_functionalizedCrystal
_audit_creation_method	'MofGen! by Chris Wilmer'
_symmetry_space_group_name_H-M	'P1'
_symmetry_Int_Tables_number	1
_symmetry_cell_setting	triclinic
loop_
_symmetry_equiv_pos_as_xyz
  x,y,z
_cell_length_a	6.817900
_cell_length_b	11.102183
_cell_length_c	19.453114
_cell_angle_alpha	94.505332
_cell_angle_beta	101.709288
_cell_angle_gamma	108.603876
loop_
_atom_site_label
_atom_site_type_symbol
_atom_site_fract_x
_atom_site_fract_y
_atom_site_fract_z
V1	V	-4.033144	-0.177162	-0.218998
O2	O	-3.993679	0.007152	-0.214830
O3	O	-4.010446	-0.349972	-0.217499
O4	O	-3.975742	-0.175034	-0.314511
O5	O	-4.028624	-0.168998	-0.117147
V6	V	-4.514607	-0.155045	-0.206816
O7	O	-4.298919	-0.225676	-0.245720
O8	O	-4.699029	-0.106531	-0.180093
O9	O	-4.314098	0.017766	-0.208315
O10	O	-4.671469	-0.339359	-0.210983
O11	O	-4.636524	-0.163209	-0.308667
O12	O	-4.348802	-0.157173	-0.111303
C13	C	-3.861991	-0.392081	-0.214044
C14	C	-3.924660	-0.533360	-0.213455
C15	C	-3.850346	-0.496305	-0.084805
C16	C	-3.842627	-0.544150	-0.020206
C17	C	-3.901517	-0.676895	-0.019656
C18	C	-3.968138	-0.761800	-0.083713
C19	C	-3.975856	-0.713955	-0.148312
C20	C	-3.916955	-0.581205	-0.148854
C21	C	-4.050184	-0.751010	-0.276960
C22	C	-3.991281	-0.618265	-0.277511
C23	C	-4.116804	-0.835915	-0.341017
C24	C	-4.124510	-0.788070	-0.405617
C25	C	-4.065612	-0.655316	-0.406164
C26	C	-3.999000	-0.570420	-0.342110
C27	C	-3.817721	-0.168928	-0.337791
C28	C	-3.852243	-0.168332	-0.415874
C29	C	-4.051192	-0.174431	-0.456131
C30	C	-4.083629	-0.173871	-0.529497
C31	C	-3.917118	-0.167238	-0.562606
C32	C	-3.718138	-0.161131	-0.522339
C33	C	-3.685700	-0.161678	-0.448973
N34	N	-3.867358	-0.234355	-0.681395
N35	N	-3.898186	-0.233838	-0.751091
C36	C	-4.014839	-0.165586	-0.783655
N37	N	-4.099538	-0.097887	-0.743892
N38	N	-4.068715	-0.098410	-0.674191
C39	C	-3.952271	-0.166643	-0.642159
C40	C	-4.248972	-0.171076	-0.903465
C41	C	-4.281398	-0.170508	-0.976832
C42	C	-3.915907	-0.157780	-0.969673
C43	C	-3.883480	-0.158335	-0.896306
C44	C	-4.050023	-0.164990	-0.863207
C45	C	-4.125896	0.059868	-0.211768
C46	C	-4.042465	0.201145	-0.212361
C47	C	-4.170166	-0.163283	-0.088018
C48	C	-4.114882	-0.163872	-0.009935
H49	H	-4.016111	-0.869887	-0.083260
N50	N	-3.680287	-0.152148	-0.855174
N51	N	-3.651355	-0.152650	-0.789670
H52	H	-3.507844	-0.148282	-0.760619
N53	N	-3.938809	-0.434820	-0.342655
N54	N	-3.879328	-0.359033	-0.285459
H55	H	-3.836816	-0.263262	-0.285840
H56	H	-3.802332	-0.388214	-0.085245
N57	N	-3.548034	-0.154184	-0.556175
N58	N	-3.378456	-0.059831	-0.537826
H59	H	-3.258313	-0.054857	-0.561732
H60	H	-4.186806	-0.179845	-0.429186
N61	N	-3.774594	-0.457406	0.045217
N62	N	-3.722022	-0.338886	0.044721
H63	H	-3.673981	-0.277624	0.090926
N64	N	-4.286865	-0.180130	-0.570643
N65	N	-4.315798	-0.179654	-0.636148
H66	H	-4.459335	-0.184080	-0.665207
N67	N	-3.482463	-0.155470	-0.407862
N68	N	-3.407481	-0.241196	-0.421418
H69	H	-3.263942	-0.236816	-0.392384
N70	N	-4.176977	-0.971507	-0.340446
N71	N	-4.170077	-1.014213	-0.282765
H72	H	-4.212573	-1.109977	-0.282362
N73	N	-4.419057	-0.177867	-0.869639
N74	N	-4.485487	-0.269643	-0.837253
H75	H	-4.605611	-0.274438	-0.813365
H76	H	-4.071929	-0.616372	-0.458769
N77	N	-4.484620	-0.176706	-1.017950
N78	N	-4.559606	-0.090983	-1.004393
H79	H	-4.703135	-0.095356	-1.033432
N80	N	-3.893657	-0.725754	0.046334
N81	N	-3.834197	-0.649944	0.103520
H82	H	-3.828651	-0.684450	0.150127
H83	H	-3.780324	-0.152367	-0.996629
N84	N	-4.192509	-0.874795	-0.471040
N85	N	-4.069479	-0.867372	-0.511461
H86	H	-4.117497	-0.928627	-0.557667
