data_functionalizedCrystal
_audit_creation_method	'MofGen! by Chris Wilmer'
_symmetry_space_group_name_H-M	'P1'
_symmetry_Int_Tables_number	1
_symmetry_cell_setting	triclinic
loop_
_symmetry_equiv_pos_as_xyz
  x,y,z
_cell_length_a	18.215407
_cell_length_b	18.215405
_cell_length_c	18.215399
_cell_angle_alpha	90.032960
_cell_angle_beta	90.014769
_cell_angle_gamma	90.020505
loop_
_atom_site_label
_atom_site_type_symbol
_atom_site_fract_x
_atom_site_fract_y
_atom_site_fract_z
Zn1	Zn	-1.125050	0.293060	-0.416062
Zn2	Zn	-0.625050	0.793060	0.083938
Zn3	Zn	-1.124965	0.416137	-0.292990
Zn4	Zn	-0.624965	0.916137	0.207010
Zn5	Zn	-1.001989	0.293079	-0.293014
Zn6	Zn	-0.501989	0.793079	0.206986
Zn7	Zn	-1.001949	0.416080	-0.416020
Zn8	Zn	-0.501949	0.916080	0.083980
O9	O	-1.063488	0.354589	-0.354521
O10	O	-0.563488	0.854589	0.145479
O11	O	-1.228023	0.309402	-0.399744
O12	O	-0.728023	0.809402	0.100256
O13	O	-1.108633	0.399844	-0.190009
O14	O	-0.608633	0.899844	0.309991
O15	O	-1.018366	0.190092	-0.309364
O16	O	-0.518366	0.690092	0.190636
O17	O	-1.227960	0.399826	-0.309324
O18	O	-0.727960	0.899826	0.190676
O19	O	-1.108778	0.190079	-0.399767
O20	O	-0.608778	0.690079	0.100233
O21	O	-1.018283	0.309435	-0.190026
O22	O	-0.518283	0.809435	0.309974
O23	O	-0.898999	0.309380	-0.309323
O24	O	-0.398999	0.809380	0.190677
O25	O	-1.018297	0.399730	-0.519010
O26	O	-0.518297	0.899730	-0.019010
O27	O	-0.898970	0.399748	-0.399695
O28	O	-0.398970	0.899748	0.100305
O29	O	-1.108739	0.309348	-0.519041
O30	O	-0.608739	0.809348	-0.019041
O31	O	-1.108594	0.519114	-0.309283
O32	O	-0.608594	1.019114	0.190717
O33	O	-1.018214	0.519072	-0.399672
O34	O	-0.518214	1.019072	0.100328
C35	C	-0.872282	0.354560	-0.354507
C36	C	-0.372282	0.854560	0.145493
C37	C	-0.790483	0.354566	-0.354519
C38	C	-0.290483	0.854566	0.145481
C39	C	-0.602321	0.307573	-0.401674
C40	C	-0.102321	0.807573	0.098326
C41	C	-0.525462	0.307577	-0.401675
C42	C	-0.025462	0.807577	0.098325
C43	C	-0.525408	0.401594	-0.307375
C44	C	-0.025408	0.901594	0.192625
C45	C	-0.602265	0.401586	-0.307370
C46	C	-0.102265	0.901586	0.192630
C47	C	-0.640720	0.354577	-0.354523
C48	C	-0.140720	0.854577	0.145477
C49	C	-0.487003	0.354589	-0.354530
C50	C	0.012997	0.854589	0.145470
C51	C	-0.403670	0.354593	-0.354532
C52	C	0.096330	0.854593	0.145468
C53	C	-0.724058	0.354571	-0.354521
C54	C	-0.224058	0.854571	0.145479
C55	C	-1.063410	0.545795	-0.354486
C56	C	-0.563410	1.045795	0.145514
C57	C	-1.063445	0.627594	-0.354496
C58	C	-0.563445	1.127594	0.145504
C59	C	-0.255441	0.354611	-0.354534
C60	C	0.244559	0.854611	0.145466
C61	C	-0.337240	0.354599	-0.354535
C62	C	0.162760	0.854599	0.145465
C63	C	-1.063523	0.354530	-0.546474
C64	C	-0.563523	0.854530	-0.046474
C65	C	-1.063538	0.354505	-0.628273
C66	C	-0.563538	0.854505	-0.128273
C67	C	-1.063586	0.162636	-0.354573
C68	C	-0.563586	0.662636	0.145427
C69	C	-1.063628	0.080837	-0.354595
C70	C	-0.563628	0.580837	0.145405
C71	C	-1.110616	0.815785	-0.307517
C72	C	-0.610616	1.315785	0.192483
C73	C	-1.110649	0.892644	-0.307534
C74	C	-0.610649	1.392644	0.192466
C75	C	-1.016455	0.892641	-0.401579
C76	C	-0.516455	1.392641	0.098421
C77	C	-1.016426	0.815784	-0.401565
C78	C	-0.516426	1.315784	0.098435
C79	C	-1.063505	0.777358	-0.354529
C80	C	-0.563505	1.277358	0.145471
C81	C	-1.063567	0.931074	-0.354562
C82	C	-0.563567	1.431074	0.145438
C83	C	-1.063602	1.014407	-0.354581
C84	C	-0.563602	1.514407	0.145419
C85	C	-1.063471	0.694019	-0.354510
C86	C	-0.563471	1.194019	0.145490
C87	C	-1.016532	0.307397	-0.816477
C88	C	-0.516532	0.807397	-0.316477
C89	C	-1.016545	0.307382	-0.893336
C90	C	-0.516545	0.807382	-0.393336
C91	C	-1.110631	0.401526	-0.893307
C92	C	-0.610631	0.901526	-0.393307
C93	C	-1.110614	0.401544	-0.816450
C94	C	-0.610614	0.901544	-0.316450
C95	C	-1.063566	0.354475	-0.778037
C96	C	-0.563566	0.854475	-0.278037
C97	C	-1.063596	0.354442	-0.931753
C98	C	-0.563596	0.854442	-0.431753
C99	C	-1.063610	0.354427	-1.015087
C100	C	-0.563610	0.854427	-0.515087
C101	C	-1.063550	0.354492	-0.694698
C102	C	-0.563550	0.854492	-0.194698
C103	C	-1.063496	0.354595	-0.163315
C104	C	-0.563496	0.854595	0.336685
C105	C	-1.063624	0.354412	-0.081517
C106	C	-0.563624	0.854412	0.418483
H107	H	-0.633530	0.439862	-0.268971
H108	H	-0.133530	0.939862	0.231029
H109	H	-1.149011	0.923929	-0.269253
H110	H	-0.649011	1.423929	0.230747
H111	H	-0.978222	0.269071	-0.785204
H112	H	-0.478222	0.769071	-0.285204
H113	H	-0.633628	0.269293	-0.440066
H114	H	-0.133628	0.769293	0.059934
C115	C	-0.964800	0.255607	-0.935621
C116	C	-0.464800	0.755607	-0.435621
H117	H	-0.971538	0.262345	-0.986896
H118	H	-0.471538	0.762345	-0.486896
H119	H	-0.975581	0.206161	-0.923050
H120	H	-0.475581	0.706161	-0.423050
H121	H	-0.915347	0.266389	-0.923011
H122	H	-0.415347	0.766389	-0.423011
H123	H	-0.978123	0.923936	-0.439873
H124	H	-0.478123	1.423936	0.060127
C125	C	-1.162387	0.453290	-0.935564
C126	C	-0.662387	0.953290	-0.435564
H127	H	-1.155667	0.446532	-0.986843
H128	H	-0.655667	0.946532	-0.486843
H129	H	-1.151594	0.502739	-0.922953
H130	H	-0.651594	1.002739	-0.422953
H131	H	-1.211838	0.442521	-0.922971
H132	H	-0.711838	0.942521	-0.422971
C133	C	-0.483226	0.255877	-0.453544
C134	C	0.016774	0.755877	0.046456
H135	H	-0.517138	0.227885	-0.481628
H136	H	-0.017138	0.727885	0.018372
H137	H	-0.453243	0.223778	-0.425455
H138	H	0.046757	0.723778	0.074545
H139	H	-0.453248	0.284077	-0.485562
H140	H	0.046752	0.784077	0.014438
C141	C	-1.162400	0.773516	-0.255782
C142	C	-0.662400	1.273516	0.244218
H143	H	-1.155631	0.722238	-0.262499
H144	H	-0.655631	1.222238	0.237501
H145	H	-1.211845	0.786065	-0.266597
H146	H	-0.711845	1.286065	0.233403
H147	H	-1.151659	0.786161	-0.206327
H148	H	-0.651659	1.286161	0.293673
C149	C	-0.964601	0.773510	-0.453280
C150	C	-0.464601	1.273510	0.046720
H151	H	-0.936559	0.807402	-0.481287
H152	H	-0.436559	1.307402	0.018713
H153	H	-0.992721	0.743483	-0.485364
H154	H	-0.492721	1.243483	0.014636
H155	H	-0.932542	0.743574	-0.425087
H156	H	-0.432542	1.243574	0.074913
C157	C	-1.162355	0.453331	-0.774163
C158	C	-0.662355	0.953331	-0.274163
H159	H	-1.190385	0.481353	-0.808046
H160	H	-0.690385	0.981353	-0.308046
H161	H	-1.134180	0.485399	-0.744168
H162	H	-0.634180	0.985399	-0.244168
H163	H	-1.194428	0.425184	-0.744192
H164	H	-0.694428	0.925184	-0.244192
H165	H	-0.494089	0.439868	-0.268985
H166	H	0.005911	0.939868	0.231015
