data_functionalizedCrystal
_audit_creation_method	'MofGen! by Chris Wilmer'
_symmetry_space_group_name_H-M	'P1'
_symmetry_Int_Tables_number	1
_symmetry_cell_setting	triclinic
loop_
_symmetry_equiv_pos_as_xyz
  x,y,z
_cell_length_a	14.044220
_cell_length_b	13.101039
_cell_length_c	14.044220
_cell_angle_alpha	93.667477
_cell_angle_beta	86.811122
_cell_angle_gamma	93.659868
loop_
_atom_site_label
_atom_site_type_symbol
_atom_site_fract_x
_atom_site_fract_y
_atom_site_fract_z
O1	O	-1.281968	-0.085109	0.225348
O2	O	-1.005298	-0.085135	0.217041
O3	O	-1.139480	-0.085112	0.082860
O4	O	-1.147787	-0.085132	0.359530
O5	O	-1.129854	0.085316	0.092504
O6	O	-0.995673	0.085293	0.226686
O7	O	-1.272343	0.085319	0.234993
Zn8	Zn	-1.132479	0.112365	0.232371
Zn9	Zn	-1.145162	-0.112181	0.219663
O10	O	-1.138161	0.085296	0.369175
C11	C	-0.964864	0.000076	0.218228
C12	C	-0.858722	0.000066	0.207383
N13	N	-1.123831	0.265612	0.241043
N14	N	-1.153817	-0.265428	0.210984
C15	C	-1.312777	0.000106	0.233806
C16	C	-1.418920	0.000109	0.244651
C17	C	-0.664383	0.000088	0.187558
C18	C	-0.613253	0.000087	0.264472
C19	C	-0.505116	0.000099	0.253441
C20	C	-0.772529	0.000076	0.198587
C21	C	-1.131031	0.000102	0.052060
C22	C	-1.120187	0.000102	-0.054083
C23	C	-1.112065	0.474653	0.252851
C24	C	-1.165580	0.525538	0.199179
C25	C	-1.159034	0.641855	0.205749
C26	C	-1.118610	0.358325	0.246282
C27	C	-1.100362	0.000086	-0.248421
C28	C	-1.177276	0.000090	-0.299551
C29	C	-1.166245	0.000080	-0.407688
C30	C	-1.111391	0.000095	-0.140275
C31	C	-1.146610	0.000080	0.399974
C32	C	-1.157455	0.000073	0.506116
H33	H	-0.650693	0.000077	0.338605
H34	H	-0.626945	0.000099	0.113431
H35	H	-1.251413	0.000028	-0.262115
H36	H	-1.216314	0.481744	0.148295
N37	N	-1.048427	0.529598	0.316676
N38	N	-1.043136	0.625379	0.321988
H39	H	-0.998194	0.664196	0.367065
H40	H	-1.026235	0.000076	-0.285859
