data_functionalizedCrystal
_audit_creation_method	'MofGen! by Chris Wilmer'
_symmetry_space_group_name_H-M	'P1'
_symmetry_Int_Tables_number	1
_symmetry_cell_setting	triclinic
loop_
_symmetry_equiv_pos_as_xyz
  x,y,z
_cell_length_a	12.594516
_cell_length_b	12.759401
_cell_length_c	12.759393
_cell_angle_alpha	90.018705
_cell_angle_beta	89.971669
_cell_angle_gamma	89.983786
loop_
_atom_site_label
_atom_site_type_symbol
_atom_site_fract_x
_atom_site_fract_y
_atom_site_fract_z
Zn1	Zn	-0.423683	-1.606248	-0.593999
Zn2	Zn	-0.601700	-1.606137	-0.418327
Zn3	Zn	-0.423736	-1.430549	-0.418339
Zn4	Zn	-0.601620	-1.430534	-0.593968
O5	O	-0.512685	-1.518367	-0.506158
O6	O	-0.447308	-1.753254	-0.570704
O7	O	-0.578148	-1.582805	-0.271307
O8	O	-0.274784	-1.453908	-0.441658
O9	O	-0.578097	-1.753173	-0.441638
O10	O	-0.274744	-1.582993	-0.570715
O11	O	-0.447399	-1.453801	-0.271316
O12	O	-0.447322	-1.283526	-0.441628
O13	O	-0.577961	-1.453883	-0.740993
O14	O	-0.578013	-1.283515	-0.570663
O15	O	-0.447231	-1.582979	-0.741016
O16	O	-0.750635	-1.582791	-0.441608
O17	O	-0.750577	-1.453776	-0.570651
C18	C	-0.512665	-1.245400	-0.506144
C19	C	-0.512683	-1.128623	-0.506163
C20	C	-0.789226	-1.518298	-0.506148
C21	C	-0.907531	-1.518365	-0.506179
C22	C	-0.512581	-1.518442	-0.780192
C23	C	-0.512537	-1.518473	-0.896968
C24	C	-0.976791	-1.448187	-0.576316
C25	C	-1.047660	-1.422587	-0.480449
C26	C	-1.047461	-1.544060	-0.602062
C27	C	-0.976842	-1.492714	-0.410261
C28	C	-0.976637	-1.614232	-0.531938
C29	C	-1.047474	-1.588669	-0.436006
C30	C	-0.235064	-1.518465	-0.506192
C31	C	-0.116759	-1.518506	-0.506206
C32	C	-0.512705	-1.792400	-0.506173
C33	C	-0.512714	-1.909177	-0.506179
C34	C	-0.580842	-1.073783	-0.573240
C35	C	-0.580856	-0.964059	-0.573251
C36	C	-0.444547	-0.964025	-0.439099
C37	C	-0.444529	-1.073747	-0.439094
C38	C	-0.648996	-1.128659	-0.640308
C39	C	-0.717162	-1.073819	-0.707390
C40	C	-0.717175	-0.964095	-0.707402
C41	C	-0.649023	-0.909211	-0.640331
C42	C	-0.444405	-1.451345	-1.061559
C43	C	-0.444443	-1.451322	-0.951835
C44	C	-0.580591	-1.585661	-0.951831
C45	C	-0.580547	-1.585689	-1.061554
C46	C	-0.376314	-1.384182	-1.116420
C47	C	-0.308258	-1.316995	-1.061565
C48	C	-0.308296	-1.316972	-0.951841
C49	C	-0.376389	-1.384134	-0.896972
C50	C	-0.512711	-1.518353	-0.233191
C51	C	-0.512456	-1.518525	-0.116415
H52	H	-1.078881	-1.341580	-0.458684
H53	H	-0.649030	-0.819866	-0.640355
N54	N	-0.371059	-0.904834	-0.366749
H55	H	-0.387503	-0.923908	-0.291659
H56	H	-0.295053	-0.923964	-0.383276
N57	N	-0.376263	-1.384202	-1.234764
H58	H	-0.356689	-1.456284	-1.261206
H59	H	-0.449284	-1.364829	-1.261097
H60	H	-0.389020	-1.118399	-0.384482
H61	H	-1.078314	-1.648077	-0.376636
N62	N	-0.935929	-1.463882	-0.302836
H63	H	-0.891341	-1.398294	-0.307882
H64	H	-0.997900	-1.450963	-0.254251
H65	H	-0.252813	-1.262321	-1.106246
H66	H	-0.376408	-1.384116	-0.807627
N67	N	-0.790666	-1.133003	-0.779730
H68	H	-0.747468	-1.178557	-0.828485
H69	H	-0.839920	-1.178437	-0.736869
H70	H	-0.635958	-1.640394	-1.106218
H71	H	-0.945755	-1.388734	-0.635542
H72	H	-0.252875	-1.262273	-0.907180
N73	N	-0.654030	-1.658094	-0.892656
H74	H	-0.643842	-1.647771	-0.814824
H75	H	-0.730031	-1.641823	-0.911940
H76	H	-0.945419	-1.695221	-0.553750
H77	H	-0.648994	-1.218002	-0.640305
N78	N	-1.088564	-1.572776	-0.709449
H79	H	-1.062853	-1.519660	-0.762356
H80	H	-1.061612	-1.644638	-0.729350
H81	H	-0.772672	-0.919447	-0.762030
