data_functionalizedCrystal
_audit_creation_method	'MofGen! by Chris Wilmer'
_symmetry_space_group_name_H-M	'P1'
_symmetry_Int_Tables_number	1
_symmetry_cell_setting	triclinic
loop_
_symmetry_equiv_pos_as_xyz
  x,y,z
_cell_length_a	12.377034
_cell_length_b	16.109295
_cell_length_c	16.109301
_cell_angle_alpha	96.539666
_cell_angle_beta	101.275423
_cell_angle_gamma	101.287133
loop_
_atom_site_label
_atom_site_type_symbol
_atom_site_fract_x
_atom_site_fract_y
_atom_site_fract_z
O1	O	0.093927	-1.087195	0.122763
O2	O	0.593927	-0.587195	0.622763
O3	O	0.093947	-0.845129	0.136071
O4	O	0.593947	-0.345129	0.636071
O5	O	0.093925	-0.972814	0.008384
O6	O	0.593925	-0.472814	0.508384
O7	O	0.093949	-0.959511	0.250450
O8	O	0.593949	-0.459511	0.750450
O9	O	-0.094076	-1.004707	-0.023482
O10	O	0.405924	-0.504707	0.476518
O11	O	-0.094054	-0.877022	0.104205
O12	O	0.405946	-0.377022	0.604205
O13	O	-0.094074	-1.119088	0.090898
O14	O	0.405926	-0.619088	0.590898
Zn15	Zn	-0.123913	-1.003119	0.092492
Zn16	Zn	0.376087	-0.503119	0.592492
Zn17	Zn	0.123786	-0.961099	0.134476
Zn18	Zn	0.623786	-0.461099	0.634476
O19	O	-0.094052	-0.991404	0.218585
O20	O	0.405948	-0.491404	0.718585
C21	C	-0.000051	-0.830100	0.119600
C22	C	0.499949	-0.330100	0.619600
C23	C	-0.000044	-0.737804	0.117988
C24	C	0.499956	-0.237804	0.617988
N25	N	-0.292962	-1.031803	0.063839
N26	N	0.207038	-0.531803	0.563839
C27	C	-0.000076	-0.988222	-0.038524
C28	C	0.499924	-0.488222	0.461476
C29	C	-0.000078	-0.986607	-0.130819
C30	C	0.499922	-0.486607	0.369181
C31	C	-0.352124	-1.098394	-0.002716
C32	C	0.147876	-0.598394	0.497284
C33	C	-0.470456	-1.118468	-0.022795
C34	C	0.029544	-0.618468	0.477205
C35	C	-0.529639	-1.071958	0.023683
C36	C	-0.029639	-0.571958	0.523683
C37	C	-0.470478	-1.005370	0.090243
C38	C	0.029522	-0.505370	0.590243
C39	C	-0.352133	-0.985289	0.110320
C40	C	0.147867	-0.485289	0.610320
C41	C	-0.529649	-0.958854	0.136719
C42	C	-0.029649	-0.458854	0.636719
C43	C	-0.470488	-0.892266	0.203279
C44	C	0.029512	-0.392266	0.703279
C45	C	-0.352155	-0.872189	0.223352
C46	C	0.147845	-0.372189	0.723352
C47	C	-0.292972	-0.918698	0.176875
C48	C	0.207028	-0.418698	0.676875
C49	C	-0.647994	-0.978935	0.116642
C50	C	-0.147994	-0.478935	0.616642
C51	C	-0.648004	-0.865831	0.229677
C52	C	-0.148004	-0.365831	0.729677
C53	C	-0.529671	-0.845756	0.249757
C54	C	-0.029671	-0.345756	0.749757
N55	N	0.292835	-0.932421	0.163123
N56	N	0.792835	-0.432421	0.663123
C57	C	-0.000049	-0.515532	0.190000
C58	C	0.499951	-0.015532	0.690000
C59	C	-0.000056	-0.428812	0.188476
C60	C	0.499944	0.071188	0.688476
C61	C	-0.000067	-0.448688	0.036985
C62	C	0.499933	0.051312	0.536985
C63	C	-0.000068	-0.535407	0.038508
C64	C	0.499932	-0.035407	0.538508
C65	C	-0.000053	-0.568825	0.115019
C66	C	0.499947	-0.068825	0.615019
C67	C	-0.000059	-0.395387	0.111972
C68	C	0.499941	0.104613	0.611972
C69	C	-0.000067	-0.301362	0.110320
C70	C	0.499933	0.198638	0.610320
C71	C	-0.000048	-0.662857	0.116671
C72	C	0.499952	-0.162857	0.616671
C73	C	-0.000072	-0.134116	0.107374
C74	C	0.499928	0.365884	0.607374
C75	C	-0.000068	-0.226409	0.109003
C76	C	0.499932	0.273591	0.609003
C77	C	-0.000066	-1.058613	-0.353091
C78	C	0.499934	-0.558613	0.146909
C79	C	-0.000056	-1.057087	-0.439810
C80	C	0.499944	-0.557087	0.060190
C81	C	-0.000048	-0.905597	-0.419931
C82	C	0.499952	-0.405597	0.080069
C83	C	-0.000050	-0.907122	-0.333213
C84	C	0.499950	-0.407122	0.166787
C85	C	-0.000064	-0.983633	-0.299796
C86	C	0.499936	-0.483633	0.200204
C87	C	-0.000053	-0.980583	-0.473234
C88	C	0.499947	-0.480583	0.026766
C89	C	-0.000043	-0.978928	-0.567258
C90	C	0.499957	-0.478928	-0.067258
C91	C	-0.000072	-0.985288	-0.205766
C92	C	0.499928	-0.485288	0.294234
C93	C	-0.000049	-0.975995	0.265493
C94	C	0.499951	-0.475995	0.765493
C95	C	-0.000040	-0.977609	0.357790
C96	C	0.499960	-0.477609	0.857790
H97	H	-0.696153	-1.033151	0.062449
H98	H	-0.196153	-0.533151	0.562449
H99	H	-0.696190	-0.827956	0.267523
H100	H	-0.196190	-0.327956	0.767523
H101	H	-0.000074	-0.578803	-0.022555
H102	H	0.499926	-0.078803	0.477445
H103	H	-0.196615	-0.902357	0.193225
H104	H	0.303385	-0.402357	0.693225
H105	H	-0.000046	-0.542739	0.252298
H106	H	0.499954	-0.042739	0.752298
H107	H	-0.000045	-0.846060	-0.289817
H108	H	0.499955	-0.346060	0.210183
H109	H	-0.000055	-0.385423	0.249533
H110	H	0.499945	0.114577	0.749533
C111	C	-0.000054	-1.139562	-0.498434
C112	C	0.499946	-0.639562	0.001566
H113	H	-0.000036	-1.127696	-0.554865
H114	H	0.499964	-0.627696	-0.054865
H115	H	-0.065614	-1.182060	-0.499426
H116	H	0.434386	-0.682060	0.000574
H117	H	0.065514	-1.159804	-0.477182
H118	H	0.565514	-0.659804	0.022818
H119	H	-0.000039	-0.843304	-0.447150
H120	H	0.499961	-0.343304	0.052850
H121	H	-0.625992	-1.088306	0.007332
H122	H	-0.125992	-0.588306	0.507332
C123	C	-0.000073	-1.142768	-0.316329
C124	C	0.499927	-0.642768	0.183671
H125	H	-0.000084	-1.132942	-0.257052
H126	H	0.499916	-0.632942	0.242948
H127	H	0.065486	-1.162516	-0.323508
H128	H	0.565486	-0.662516	0.176492
H129	H	-0.065642	-1.184762	-0.345744
H130	H	0.434358	-0.684762	0.154256
C131	C	-0.535526	-1.191715	-0.095996
C132	C	-0.035526	-0.691715	0.404004
H133	H	-0.483333	-1.216546	-0.120795
H134	H	0.016667	-0.716546	0.379205
H135	H	-0.581686	-1.169659	-0.138449
H136	H	-0.081686	-0.669659	0.361551
H137	H	-0.581692	-1.234146	-0.073899
H138	H	-0.081692	-0.734146	0.426101
C139	C	-0.000069	-0.411927	-0.047169
C140	C	0.499931	0.088073	0.452831
H141	H	-0.000081	-0.456091	-0.091609
H142	H	0.499919	0.043909	0.408391
H143	H	0.065493	-0.367387	-0.039797
H144	H	0.565493	0.132613	0.460203
H145	H	-0.065636	-0.389636	-0.062028
H146	H	0.434364	0.110364	0.437972
H147	H	-0.303929	-1.136252	-0.040556
H148	H	0.196071	-0.636252	0.459444
C149	C	-0.464585	-0.772509	0.322964
C150	C	0.035415	-0.272509	0.822964
H151	H	-0.385634	-0.767211	0.328257
H152	H	0.114366	-0.267211	0.828257
H153	H	-0.483986	-0.784806	0.375166
H154	H	0.016014	-0.284806	0.875166
H155	H	-0.483971	-0.720313	0.310621
H156	H	0.016029	-0.220313	0.810621
C157	C	-0.287074	-0.798950	0.296570
C158	C	0.212926	-0.298950	0.796570
H159	H	-0.208122	-0.793651	0.301868
H160	H	0.291878	-0.293651	0.801868
H161	H	-0.306484	-0.811261	0.348766
H162	H	0.193516	-0.311261	0.848766
H163	H	-0.306457	-0.746751	0.284239
H164	H	0.193543	-0.246751	0.784239
