data_functionalizedCrystal
_audit_creation_method	'MofGen! by Chris Wilmer'
_symmetry_space_group_name_H-M	'P1'
_symmetry_Int_Tables_number	1
_symmetry_cell_setting	triclinic
loop_
_symmetry_equiv_pos_as_xyz
  x,y,z
_cell_length_a	18.101398
_cell_length_b	29.839131
_cell_length_c	18.101389
_cell_angle_alpha	89.971059
_cell_angle_beta	89.975673
_cell_angle_gamma	90.030494
loop_
_atom_site_label
_atom_site_type_symbol
_atom_site_fract_x
_atom_site_fract_y
_atom_site_fract_z
Zn1	Zn	1.132100	-0.178957	-0.418785
Zn2	Zn	1.632100	0.321043	0.081215
Zn3	Zn	1.131987	-0.254074	-0.294920
Zn4	Zn	1.631987	0.245926	0.205080
Zn5	Zn	1.008259	-0.178952	-0.294946
Zn6	Zn	1.508259	0.321048	0.205054
Zn7	Zn	1.008200	-0.254055	-0.418709
Zn8	Zn	1.508200	0.245945	0.081291
O9	O	1.070136	-0.216510	-0.356840
O10	O	1.570136	0.283490	0.143160
O11	O	1.235718	-0.188932	-0.402375
O12	O	1.735718	0.311068	0.097625
O13	O	1.115551	-0.244115	-0.191291
O14	O	1.615551	0.255885	0.308709
O15	O	1.024758	-0.116086	-0.311415
O16	O	1.524758	0.383914	0.188585
O17	O	1.235635	-0.244119	-0.311372
O18	O	1.735635	0.255881	0.188628
O19	O	1.115744	-0.116089	-0.402399
O20	O	1.615744	0.383911	0.097601
O21	O	1.024648	-0.188924	-0.191309
O22	O	1.524648	0.311076	0.308691
O23	O	0.904618	-0.188905	-0.311342
O24	O	1.404618	0.311095	0.188658
O25	O	1.024659	-0.244087	-0.522352
O26	O	1.524659	0.255913	-0.022352
O27	O	0.904575	-0.244082	-0.402270
O28	O	1.404575	0.255918	0.097730
O29	O	1.115687	-0.188913	-0.522407
O30	O	1.615687	0.311087	-0.022407
O31	O	1.115495	-0.316938	-0.311299
O32	O	1.615495	0.183062	0.188701
O33	O	1.024549	-0.316924	-0.402246
O34	O	1.524549	0.183076	0.097754
C35	C	0.877726	-0.216491	-0.356801
C36	C	1.377726	0.283509	0.143199
C37	C	0.795412	-0.216494	-0.356802
C38	C	1.295412	0.283506	0.143198
C39	C	1.070023	-0.333232	-0.356777
C40	C	1.570023	0.166768	0.143223
C41	C	1.070043	-0.383167	-0.356775
C42	C	1.570043	0.116833	0.143225
C43	C	0.496321	-0.216522	-0.356864
C44	C	0.996321	0.283478	0.143136
C45	C	0.527648	-0.181633	-0.299934
C46	C	1.027648	0.318367	0.200066
C47	C	0.613266	-0.181726	-0.299691
C48	C	1.113266	0.318274	0.200309
C49	C	0.644703	-0.216508	-0.356834
C50	C	1.144703	0.283492	0.143166
C51	C	0.613580	-0.263830	-0.335495
C52	C	1.113580	0.236170	0.164505
C53	C	0.527934	-0.263636	-0.335099
C54	C	1.027934	0.236364	0.164901
C55	C	0.527937	-0.204501	-0.435267
C56	C	1.027937	0.295499	0.064733
C57	C	0.613588	-0.203447	-0.434840
C58	C	1.113588	0.296553	0.065160
C59	C	0.728563	-0.216503	-0.356817
C60	C	1.228563	0.283497	0.143183
C61	C	0.412461	-0.216531	-0.356879
C62	C	0.912461	0.283469	0.143121
C63	C	1.117502	-0.692777	-0.404283
C64	C	1.617502	-0.192777	0.095717
C65	C	1.117583	-0.880450	-0.404327
C66	C	1.617583	-0.380450	0.095673
O67	O	1.157824	-0.904687	-0.444673
O68	O	1.657824	-0.404687	0.055327
N69	N	1.070262	-0.903952	-0.356922
N70	N	1.570262	-0.403952	0.143078
C71	C	1.022915	-0.880532	-0.309506
C72	C	1.522915	-0.380532	0.190494
O73	O	0.982662	-0.904828	-0.269191
O74	O	1.482662	-0.404828	0.230809
C75	C	1.022831	-0.692860	-0.309466
C76	C	1.522831	-0.192860	0.190534
C77	C	1.070160	-0.669361	-0.356869
C78	C	1.570160	-0.169361	0.143131
C79	C	1.164827	-0.669277	-0.451682
C80	C	1.664827	-0.169277	0.048318
C81	C	1.164809	-0.622362	-0.451668
C82	C	1.664809	-0.122362	0.048332
C83	C	1.117467	-0.598946	-0.404254
C84	C	1.617467	-0.098946	0.095746
C85	C	1.070142	-0.622445	-0.356854
C86	C	1.570142	-0.122445	0.143146
C87	C	0.975481	-0.669441	-0.262054
C88	C	1.475481	-0.169441	0.237946
C89	C	0.975463	-0.622520	-0.262049
C90	C	1.475463	-0.122520	0.237951
C91	C	1.022792	-0.599021	-0.309452
C92	C	1.522792	-0.099021	0.190548
C93	C	1.022783	-0.552114	-0.309426
C94	C	1.522783	-0.052114	0.190574
N95	N	1.070103	-0.528612	-0.356831
N96	N	1.570103	-0.028612	0.143169
C97	C	1.117445	-0.552028	-0.404245
C98	C	1.617445	-0.052028	0.095755
C99	C	1.022963	-0.979063	-0.309529
C100	C	1.522963	-0.479063	0.190471
C101	C	1.022985	-1.025981	-0.309538
C102	C	1.522985	-0.525981	0.190462
C103	C	1.117652	-1.025895	-0.404361
C104	C	1.617652	-0.525895	0.095639
C105	C	1.117633	-0.978976	-0.404347
C106	C	1.617633	-0.478976	0.095653
C107	C	1.070284	-0.955561	-0.356934
C108	C	1.570284	-0.455561	0.143066
C109	C	1.117405	-0.453502	-0.404210
C110	C	1.617405	0.046498	0.095790
C111	C	1.117385	-0.406583	-0.404190
C112	C	1.617385	0.093417	0.095810
C113	C	1.022716	-0.406672	-0.309370
C114	C	1.522716	0.093328	0.190630
C115	C	1.022738	-0.453588	-0.309388
C116	C	1.522738	0.046412	0.190612
C117	C	1.070085	-0.477002	-0.356814
C118	C	1.570085	0.022998	0.143186
O119	O	0.982557	-0.527848	-0.269107
O120	O	1.482557	-0.027848	0.230893
O121	O	1.157680	-0.527724	-0.444565
O122	O	1.657680	-0.027724	0.055435
C123	C	1.117520	-0.739692	-0.404297
C124	C	1.617520	-0.239692	0.095703
C125	C	1.070196	-0.763192	-0.356897
C126	C	1.570196	-0.263192	0.143103
C127	C	1.022853	-0.739776	-0.309483
C128	C	1.522853	-0.239776	0.190517
C129	C	1.070217	-0.810109	-0.356906
C130	C	1.570217	-0.310109	0.143094
C131	C	1.117559	-0.833526	-0.404321
C132	C	1.617559	-0.333526	0.095679
C133	C	1.164880	-0.810024	-0.451726
C134	C	1.664880	-0.310024	0.048274
C135	C	1.164862	-0.763108	-0.451711
C136	C	1.664862	-0.263108	0.048289
C137	C	0.975533	-0.763277	-0.262078
C138	C	1.475533	-0.263277	0.237922
C139	C	0.975555	-0.810193	-0.262096
C140	C	1.475555	-0.310193	0.237904
C141	C	1.022897	-0.833609	-0.309510
C142	C	1.522897	-0.333609	0.190490
C143	C	1.263298	-0.216528	-0.356879
C144	C	1.763298	0.283472	0.143121
C145	C	1.345612	-0.216536	-0.356896
C146	C	1.845612	0.283464	0.143104
C147	C	1.070179	-0.216498	-0.550002
C148	C	1.570179	0.283502	-0.050002
C149	C	1.070197	-0.216493	-0.632316
C150	C	1.570197	0.283507	-0.132316
C151	C	1.070270	-0.099331	-0.356919
C152	C	1.570270	0.400669	0.143081
C153	C	1.070327	-0.049397	-0.356952
C154	C	1.570327	0.450603	0.143048
C155	C	1.070241	-0.216409	-0.931407
C156	C	1.570241	0.283591	-0.431407
C157	C	1.012771	-0.251013	-0.900047
C158	C	1.512771	0.248987	-0.400047
C159	C	1.012926	-0.251173	-0.814429
C160	C	1.512926	0.248827	-0.314429
C161	C	1.070219	-0.216451	-0.783025
C162	C	1.570219	0.283549	-0.283025
C163	C	1.148242	-0.229306	-0.814126
C164	C	1.648242	0.270694	-0.314126
C165	C	1.147922	-0.229533	-0.899771
C166	C	1.647922	0.270467	-0.399771
C167	C	1.050365	-0.168874	-0.899846
C168	C	1.550365	0.331126	-0.399846
C169	C	1.048629	-0.169148	-0.814195
C170	C	1.548629	0.330852	-0.314195
C171	C	1.070211	-0.216474	-0.699165
C172	C	1.570211	0.283526	-0.199165
C173	C	1.070253	-0.216387	-1.015267
C174	C	1.570253	0.283613	-0.515267
C175	C	1.070136	-0.216488	-0.164429
C176	C	1.570136	0.283512	0.335571
C177	C	1.070262	-0.216367	-0.082116
C178	C	1.570262	0.283633	0.417884
H179	H	0.507082	-0.146434	-0.313164
H180	H	1.007082	0.353566	0.186836
H181	H	1.192211	-0.204894	-0.793788
H182	H	1.692211	0.295106	-0.293788
H183	H	1.026048	-0.286408	-0.793936
H184	H	1.526048	0.213592	-0.293936
N185	N	0.971660	-0.381412	-0.258228
N186	N	1.471660	0.118588	0.241772
H187	H	0.978833	-0.348125	-0.265418
H188	H	1.478833	0.151875	0.234582
H189	H	0.918765	-0.389631	-0.269704
H190	H	1.418765	0.110369	0.230296
N191	N	0.501420	-0.277133	-0.259174
N192	N	1.001420	0.222867	0.240826
H193	H	0.445632	-0.277140	-0.258156
H194	H	0.945632	0.222860	0.241844
H195	H	0.520240	-0.308146	-0.247152
H196	H	1.020240	0.191854	0.252848
N197	N	0.498836	-0.191912	-0.223482
N198	N	0.998836	0.308088	0.276518
H199	H	0.465610	-0.219085	-0.225558
H200	H	0.965610	0.280915	0.274442
H201	H	0.541679	-0.198089	-0.189240
H202	H	1.041679	0.301911	0.310760
N203	N	0.501078	-0.238157	-0.491452
N204	N	1.001078	0.261843	0.008548
H205	H	0.471798	-0.222229	-0.531022
H206	H	0.971798	0.277771	-0.031022
H207	H	0.544870	-0.253704	-0.514637
H208	H	1.044870	0.246296	-0.014637
N209	N	1.168435	-0.381237	-0.455318
N210	N	1.668435	0.118763	0.044682
H211	H	1.198426	-0.403193	-0.485357
H212	H	1.698426	0.096807	0.014643
H213	H	1.138263	-0.361770	-0.489554
H214	H	1.638263	0.138230	0.010446
H215	H	1.155954	-0.472560	-0.442834
H216	H	1.655954	0.027440	0.057166
N217	N	0.641930	-0.277576	-0.260391
N218	N	1.141930	0.222424	0.239609
H219	H	0.697674	-0.278899	-0.261429
H220	H	1.197674	0.221101	0.238571
H221	H	0.625466	-0.254958	-0.222308
H222	H	1.125466	0.245042	0.277692
H223	H	1.165384	-0.263685	-0.792674
H224	H	1.665384	0.236315	-0.292674
H225	H	0.633936	-0.168623	-0.450930
H226	H	1.133936	0.331377	0.049070
N227	N	0.500485	-0.299241	-0.387618
N228	N	1.000485	0.200759	0.112382
H229	H	0.469537	-0.321731	-0.359617
H230	H	0.969537	0.178269	0.140383
H231	H	0.469541	-0.284823	-0.427489
H232	H	0.969541	0.215177	0.072511
N233	N	1.168673	-0.953629	-0.455476
N234	N	1.668673	-0.453629	0.044524
H235	H	1.221597	-0.961773	-0.444030
H236	H	1.721597	-0.461773	0.055970
H237	H	1.157080	-0.961793	-0.508358
H238	H	1.657080	-0.461793	-0.008358
N239	N	0.976312	-0.153358	-0.928438
N240	N	1.476312	0.346642	-0.428438
H241	H	0.954897	-0.176989	-0.962146
H242	H	1.454897	0.323011	-0.462146
H243	H	0.941731	-0.148225	-0.885471
H244	H	1.441731	0.351775	-0.385471
H245	H	0.991210	-0.159454	-0.793866
H246	H	1.491210	0.340546	-0.293866
N247	N	1.215908	-0.737766	-0.502840
N248	N	1.715908	-0.237766	-0.002840
H249	H	1.245897	-0.759725	-0.532876
H250	H	1.745897	-0.259725	-0.032876
H251	H	1.185737	-0.718301	-0.537080
H252	H	1.685737	-0.218301	-0.037080
H253	H	0.634990	-0.227008	-0.479532
H254	H	1.134990	0.272992	0.020468
H255	H	1.203346	-0.603232	-0.490269
H256	H	1.703346	-0.103232	0.009731
H257	H	1.087433	-0.141998	-0.792819
H258	H	1.587433	0.358002	-0.292819
N259	N	0.640557	-0.299181	-0.388706
N260	N	1.140557	0.200819	0.111294
H261	H	0.669602	-0.322620	-0.360852
H262	H	1.169602	0.177380	0.139148
H263	H	0.596823	-0.313749	-0.413671
H264	H	1.096823	0.186251	0.086329
N265	N	0.499368	-0.159590	-0.460970
N266	N	0.999368	0.340410	0.039030
H267	H	0.465637	-0.146582	-0.422047
H268	H	0.965637	0.353418	0.077953
H269	H	0.542344	-0.138616	-0.469506
H270	H	1.042344	0.361384	0.030494
N271	N	1.215934	-0.835280	-0.502881
N272	N	1.715934	-0.335280	-0.002881
H273	H	1.268855	-0.827099	-0.491441
H274	H	1.768855	-0.327099	0.008559
H275	H	1.208698	-0.868560	-0.495676
H276	H	1.708698	-0.368560	0.004324
H277	H	1.092223	-0.143093	-0.920129
H278	H	1.592223	0.356907	-0.420129
H279	H	0.634311	-0.146635	-0.313068
H280	H	1.134311	0.353365	0.186932
H281	H	1.156200	-1.044968	-0.442966
H282	H	1.656200	-0.544968	0.057034
N283	N	0.640358	-0.192251	-0.222736
N284	N	1.140358	0.307749	0.277264
H285	H	0.621468	-0.222683	-0.207179
H286	H	1.121468	0.277317	0.292821
H287	H	0.696151	-0.192330	-0.222307
H288	H	1.196151	0.307670	0.277693
N289	N	1.170232	-0.275563	-0.926227
N290	N	1.670232	0.224437	-0.426227
H291	H	1.129052	-0.288858	-0.956827
H292	H	1.629052	0.211142	-0.456827
H293	H	1.216423	-0.273124	-0.957289
H294	H	1.716423	0.226876	-0.457289
H295	H	1.203378	-0.688338	-0.490297
H296	H	1.703378	-0.188338	0.009703
N297	N	0.935899	-0.240469	-0.927318
N298	N	1.435899	0.259531	-0.427318
H299	H	0.899884	-0.263069	-0.906554
H300	H	1.399884	0.236931	-0.406554
H301	H	0.921416	-0.209402	-0.910611
H302	H	1.421416	0.290598	-0.410611
N303	N	0.924425	-0.694783	-0.210938
N304	N	1.424425	-0.194783	0.289062
H305	H	0.954537	-0.714250	-0.176646
H306	H	1.454537	-0.214250	0.323354
H307	H	0.894439	-0.672797	-0.180957
H308	H	1.394439	-0.172797	0.319043
N309	N	1.206571	-0.197607	-0.927262
N310	N	1.706571	0.302393	-0.427262
H311	H	1.232519	-0.183449	-0.883742
H312	H	1.732519	0.316551	-0.383742
H313	H	1.243612	-0.214579	-0.958200
H314	H	1.743612	0.285421	-0.458200
N315	N	0.924399	-0.597267	-0.210900
N316	N	1.424399	-0.097267	0.289100
H317	H	0.931565	-0.563979	-0.218080
H318	H	1.431565	-0.063979	0.281920
H319	H	0.871505	-0.605489	-0.222375
H320	H	1.371505	-0.105489	0.277625
N321	N	0.971949	-1.051324	-0.258400
N322	N	1.471949	-0.551324	0.241600
H323	H	0.941957	-1.029366	-0.228365
H324	H	1.441957	-0.529366	0.271635
H325	H	0.937665	-1.070796	-0.288511
H326	H	1.437665	-0.570796	0.211489
H327	H	0.984404	-0.960001	-0.270918
H328	H	1.484404	-0.460001	0.229082
H329	H	0.937015	-0.829322	-0.223488
H330	H	1.437015	-0.329322	0.276512
N331	N	0.971701	-0.478937	-0.258254
N332	N	1.471701	0.021063	0.241746
H333	H	0.941710	-0.456982	-0.228213
H334	H	1.441710	0.043018	0.271787
H335	H	0.937416	-0.498405	-0.288371
H336	H	1.437416	0.001595	0.211629
N337	N	0.924475	-0.738023	-0.210932
N338	N	1.424475	-0.238023	0.289068
H339	H	0.871557	-0.746210	-0.222377
H340	H	1.371557	-0.246210	0.277623
H341	H	0.936082	-0.746220	-0.158057
H342	H	1.436082	-0.246220	0.341943
H343	H	0.955068	-0.243128	-0.793398
H344	H	1.455068	0.256872	-0.293398
H345	H	1.025762	-0.286032	-0.921562
H346	H	1.525762	0.213968	-0.421562
