data_functionalizedCrystal
_audit_creation_method	'MofGen! by Chris Wilmer'
_symmetry_space_group_name_H-M	'P1'
_symmetry_Int_Tables_number	1
_symmetry_cell_setting	triclinic
loop_
_symmetry_equiv_pos_as_xyz
  x,y,z
_cell_length_a	23.096457
_cell_length_b	14.560432
_cell_length_c	14.560432
_cell_angle_alpha	90.001629
_cell_angle_beta	60.001046
_cell_angle_gamma	60.002951
loop_
_atom_site_label
_atom_site_type_symbol
_atom_site_fract_x
_atom_site_fract_y
_atom_site_fract_z
Zr1	Zr	0.633727	-0.120467	0.884787
O2	O	0.754510	-0.267107	0.738144
O3	O	0.512941	-0.075519	0.929737
O4	O	0.633724	-0.267111	0.929742
O5	O	0.633730	0.075623	0.738139
O6	O	0.633724	-0.267109	1.080882
O7	O	0.633727	-0.075514	0.738139
O8	O	0.417666	0.075614	1.080873
O9	O	0.849788	-0.267100	0.738148
O10	O	0.562623	-0.056341	1.061706
O11	O	0.562625	0.056449	0.948912
O12	O	0.704831	-0.169126	0.948918
O13	O	0.704833	-0.056335	0.836124
Zr14	Zr	0.633730	0.120584	1.125837
Zr15	Zr	0.633726	-0.120463	1.125837
Zr16	Zr	0.633731	0.120580	0.884786
Zr17	Zr	0.785684	-0.120456	0.884793
Zr18	Zr	0.481773	0.120574	1.125831
O19	O	0.754515	0.075637	1.080886
O20	O	0.754510	-0.267101	1.080886
O21	O	0.754516	0.075631	0.738144
O22	O	0.512947	0.267224	1.272479
O23	O	0.512941	-0.075514	1.272480
O24	O	0.512947	0.267219	0.929737
O25	O	0.633727	-0.075506	1.272484
O26	O	0.633733	0.267229	1.080881
O27	O	0.633733	0.267227	0.929742
O28	O	0.633730	0.075632	1.272484
O29	O	0.849788	-0.267097	0.929751
O30	O	0.417669	0.267215	1.080873
O31	O	0.417669	0.267218	1.272476
O32	O	0.417666	0.075618	1.272476
O33	O	0.849791	-0.075500	0.738148
O34	O	0.849791	-0.075497	0.929751
O35	O	0.562626	0.169243	1.061706
O36	O	0.562624	0.056453	1.174500
O37	O	0.704832	-0.056332	1.061711
O38	O	0.704834	0.056459	0.948918
C39	C	0.443653	0.000046	1.005304
C40	C	0.379143	0.000042	1.005301
C41	C	0.633729	0.000054	0.703794
C42	C	0.633729	0.000052	0.601462
C43	C	0.633733	0.301572	1.005312
C44	C	0.633735	0.403903	1.005312
C45	C	0.348841	-0.058838	1.064171
C46	C	0.288219	-0.058829	1.064182
C47	C	0.257912	0.000045	1.005302
C48	C	0.288218	0.058938	0.946429
C49	C	0.348834	0.058936	0.946429
N50	N	0.195517	-0.008121	0.909485
N51	N	0.137936	-0.008125	0.909487
C52	C	0.075280	0.000055	1.005300
N53	N	0.072388	0.008219	1.101110
N54	N	0.129977	0.008217	1.101106
C55	C	0.192185	0.000054	1.005296
C56	C	-0.020756	-0.058817	1.064187
C57	C	-0.081383	-0.058800	1.064201
C58	C	-0.081376	0.058959	0.946438
C59	C	-0.020756	0.058949	0.946435
C60	C	0.009553	0.000055	1.005307
C61	C	0.823804	0.000072	1.005319
C62	C	0.888314	0.000076	1.005322
C63	C	0.633724	-0.301454	1.005312
C64	C	0.633722	-0.403785	1.005312
C65	C	0.782202	0.286172	0.887571
C66	C	0.856432	0.275383	0.828705
C67	C	0.856429	0.371536	0.828708
C68	C	0.782187	0.478485	0.887579
C69	C	0.707956	0.489274	0.946444
C70	C	0.707968	0.393113	0.946438
C71	C	0.559491	0.607004	1.064177
C72	C	0.559493	0.510852	1.064183
C73	C	0.485249	0.713953	1.123048
C74	C	0.411016	0.724743	1.181922
C75	C	0.411023	0.628582	1.181918
C76	C	0.485262	0.521641	1.123048
C77	C	0.485261	0.117803	0.526915
C78	C	0.411028	0.176674	0.633868
C79	C	0.411025	0.176675	0.730019
C80	C	0.485264	0.117795	0.719215
C81	C	0.559498	0.058923	0.612263
C82	C	0.559493	0.058932	0.516115
C83	C	0.707963	-0.058819	0.494510
C84	C	0.707967	-0.058815	0.398357
C85	C	0.782202	-0.117699	0.483705
C86	C	0.856437	-0.176565	0.376752
C87	C	0.856437	-0.176563	0.280596
C88	C	0.782201	-0.117686	0.291404
C89	C	0.633728	0.000064	1.306829
C90	C	0.633728	0.000065	1.409161
C91	C	0.443653	0.000051	1.306821
C92	C	0.379143	0.000048	1.409151
C93	C	0.443658	0.301559	1.005304
C94	C	0.379150	0.403886	1.005301
C95	C	0.443658	0.301564	1.306821
C96	C	0.379149	0.403892	1.409151
C97	C	0.823799	-0.301446	0.703802
C98	C	0.888308	-0.403775	0.601473
C99	C	0.823804	0.000067	0.703802
C100	C	0.888314	0.000069	0.601473
C101	C	0.823799	-0.301442	1.005319
C102	C	0.888307	-0.403768	1.005322
C103	C	0.348847	-0.058840	1.398329
C104	C	0.288242	-0.058865	1.494469
C105	C	0.257929	0.000006	1.601430
C106	C	0.288230	0.058896	1.612250
C107	C	0.348839	0.058914	1.516111
C108	C	0.348857	0.510827	1.064177
C109	C	0.288253	0.606983	1.064171
C110	C	0.257939	0.596195	1.005294
C111	C	0.288238	0.489243	0.946411
C112	C	0.348845	0.393089	0.946411
C113	C	0.348855	0.393071	1.516093
C114	C	0.288251	0.489210	1.612252
C115	C	0.257938	0.596169	1.601466
C116	C	0.288239	0.606988	1.494512
C117	C	0.348846	0.510850	1.398356
C118	C	0.918610	-0.392954	0.494530
C119	C	0.979232	-0.489093	0.398372
C120	C	1.009548	-0.596051	0.409158
C121	C	0.979243	-0.606870	0.516111
C122	C	0.918626	-0.510732	0.612268
C123	C	0.918616	0.058948	0.612295
C124	C	0.979238	0.058946	0.516154
C125	C	1.009553	0.000072	0.409193
C126	C	0.979249	-0.058814	0.398373
C127	C	0.918632	-0.058818	0.494512
C128	C	0.918602	-0.392944	1.064210
C129	C	0.979206	-0.489082	1.064235
C130	C	1.009519	-0.596042	1.005364
C131	C	0.979218	-0.606863	0.946474
C132	C	0.918611	-0.510727	0.946456
H133	H	0.263542	-0.106777	1.112123
H134	H	0.263547	0.480476	0.898475
N135	N	1.011916	0.122455	0.527852
H136	H	1.072756	0.068454	0.490611
H137	H	0.983445	0.159742	0.610226
N138	N	0.885924	-0.277596	0.482887
H139	H	0.825081	-0.235080	0.520142
H140	H	0.914386	-0.285435	0.400523
H141	H	1.058869	-0.674313	1.005386
N142	N	0.330957	0.640227	1.245419
H143	H	0.342221	0.563088	1.236491
H144	H	0.298545	0.682732	1.214494
N145	N	0.381507	0.122437	1.527799
H146	H	0.442351	0.068449	1.490543
H147	H	0.353043	0.159717	1.610171
N148	N	0.255555	-0.122369	1.482791
H149	H	0.266108	-0.181632	1.520040
H150	H	0.283964	-0.159575	1.400423
N151	N	0.381518	0.122448	0.882936
H152	H	0.353120	0.159752	0.845640
H153	H	0.442363	0.068389	0.823743
N154	N	0.885940	-0.522409	0.882936
H155	H	0.914345	-0.604758	0.845646
H156	H	0.896496	-0.485094	0.823734
H157	H	0.373504	0.519677	1.311282
N158	N	0.936497	-0.240062	0.365113
H159	H	0.968951	-0.209173	0.322651
H160	H	0.968889	-0.322411	0.322665
N161	N	0.782184	0.582191	0.887581
H162	H	0.723891	0.651578	0.933808
H163	H	0.811368	0.582130	0.807807
H164	H	0.373515	-0.106789	1.112111
H165	H	0.916888	-0.224509	0.193514
N166	N	1.011923	-0.722232	0.882973
H167	H	0.983539	-0.714514	0.845660
H168	H	1.001373	-0.764684	0.937042
N169	N	0.255572	0.477510	1.727592
H170	H	0.194728	0.514776	1.770108
H171	H	0.266181	0.514740	1.770035
N172	N	0.192569	0.699908	1.005300
H173	H	0.177980	0.769289	1.051538
H174	H	0.142312	0.699857	1.038785
N175	N	0.381534	0.277716	1.527743
H176	H	0.353140	0.285466	1.610088
H177	H	0.442381	0.235254	1.490412
N178	N	0.485240	0.817664	1.123058
H179	H	0.543529	0.794604	1.076841
H180	H	0.456047	0.863892	1.202837
H181	H	0.893954	-0.519557	0.699342
N182	N	0.192553	-0.000018	1.705112
H183	H	0.142252	0.079717	1.751391
H184	H	0.213711	-0.033578	1.751310
H185	H	0.916874	0.362746	0.780767
N186	N	0.255530	0.122445	0.882929
H187	H	0.212533	0.113511	0.891860
H188	H	0.301821	0.091536	0.800592
H189	H	1.003941	-0.106748	0.311272
N190	N	1.011889	-0.477391	1.127737
H191	H	1.054882	-0.554517	1.118826
H192	H	0.965594	-0.434857	1.210071
N193	N	0.485135	0.418039	1.123247
H194	H	0.514243	0.371648	1.043570
H195	H	0.426779	0.441371	1.169586
N196	N	0.011938	-0.122330	1.127684
H197	H	-0.016465	-0.159623	1.164989
H198	H	0.001397	-0.068273	1.186872
H199	H	0.373501	0.306016	0.898471
H200	H	-0.106051	0.106895	0.898496
N201	N	0.782201	-0.117676	0.187700
H202	H	0.723909	-0.071445	0.210776
H203	H	0.811383	-0.197447	0.141465
N204	N	0.255535	0.722352	1.482883
H205	H	0.301769	0.731384	1.440414
H206	H	0.212530	0.781535	1.560067
N207	N	0.485279	0.117774	0.423198
H208	H	0.514429	0.151276	0.376915
H209	H	0.426971	0.163979	0.446343
H210	H	1.058912	0.000085	0.330919
H211	H	0.003919	0.106891	0.898492
N212	N	-0.114073	-0.122303	1.127706
H213	H	-0.085670	-0.159611	1.164996
H214	H	-0.103531	-0.181485	1.073642
H215	H	0.782212	0.207873	0.887576
H216	H	0.208588	0.674442	1.679771
N217	N	0.255518	0.122407	1.727621
H218	H	0.283900	0.159725	1.719901
H219	H	0.266061	0.068349	1.770083
H220	H	0.350584	0.224611	0.642653
H221	H	0.893938	0.106898	0.699379
N222	N	1.011893	-0.477404	0.283027
H223	H	1.054896	-0.554531	0.223740
H224	H	1.036982	-0.434865	0.274129
H225	H	0.350577	0.224621	0.817105
N226	N	0.885952	-0.122326	0.482832
H227	H	0.914358	-0.159616	0.400482
H228	H	0.825108	-0.068270	0.520145
H229	H	1.058906	-0.674324	0.330852
H230	H	1.003934	-0.693968	0.524880
N231	N	0.936505	0.160034	0.765205
H232	H	0.925248	0.100756	0.774134
H233	H	0.968915	0.151143	0.796131
H234	H	0.485255	0.117789	0.797512
H235	H	0.893931	-0.305861	1.112150
H236	H	0.350574	0.811824	1.229843
N237	N	0.381543	0.522479	1.127688
H238	H	0.353152	0.604823	1.164975
H239	H	0.442390	0.485148	1.073627
N240	N	0.782195	-0.117704	0.587414
H241	H	0.753050	-0.037966	0.633694
H242	H	0.840506	-0.163988	0.564255
H243	H	0.373528	-0.106794	1.311244
N244	N	0.255572	0.722331	1.127690
H245	H	0.301820	0.731333	1.096821
H246	H	0.230410	0.731255	1.210040
