data_functionalizedCrystal
_audit_creation_method	'MofGen! by Chris Wilmer'
_symmetry_space_group_name_H-M	'P1'
_symmetry_Int_Tables_number	1
_symmetry_cell_setting	triclinic
loop_
_symmetry_equiv_pos_as_xyz
  x,y,z
_cell_length_a	29.839134
_cell_length_b	29.839131
_cell_length_c	29.839125
_cell_angle_alpha	89.982291
_cell_angle_beta	90.012189
_cell_angle_gamma	89.978008
loop_
_atom_site_label
_atom_site_type_symbol
_atom_site_fract_x
_atom_site_fract_y
_atom_site_fract_z
Zn1	Zn	0.686719	0.179149	0.254008
Zn2	Zn	0.936719	0.429149	0.504008
Zn3	Zn	1.186719	0.679149	0.754008
Zn4	Zn	1.436719	0.929149	1.004008
Zn5	Zn	0.686652	0.254261	0.178878
Zn6	Zn	0.936652	0.504261	0.428878
Zn7	Zn	1.186652	0.754261	0.678878
Zn8	Zn	1.436652	1.004261	0.928878
Zn9	Zn	0.611602	0.179121	0.178890
Zn10	Zn	0.861602	0.429121	0.428890
Zn11	Zn	1.111602	0.679121	0.678890
Zn12	Zn	1.361602	0.929121	0.928890
Zn13	Zn	0.611550	0.254227	0.253979
Zn14	Zn	0.861550	0.504227	0.503979
Zn15	Zn	1.111550	0.754227	0.753979
Zn16	Zn	1.361550	1.004227	1.003979
O17	O	0.649131	0.216690	0.216439
O18	O	0.899131	0.466690	0.466439
O19	O	1.149131	0.716690	0.716439
O20	O	1.399131	0.966690	0.966439
O21	O	0.749578	0.189139	0.244048
O22	O	0.999578	0.439139	0.494048
O23	O	1.249578	0.689139	0.744048
O24	O	1.499578	0.939139	0.994048
O25	O	0.676690	0.244296	0.116012
O26	O	0.926690	0.494296	0.366012
O27	O	1.176690	0.744296	0.616012
O28	O	1.426690	0.994296	0.866012
O29	O	0.621617	0.116257	0.188872
O30	O	0.871617	0.366257	0.438872
O31	O	1.121617	0.616257	0.688872
O32	O	1.371617	0.866257	0.938872
O33	O	0.749528	0.244324	0.188851
O34	O	0.999528	0.494324	0.438851
O35	O	1.249528	0.744324	0.688851
O36	O	1.499528	0.994324	0.938851
O37	O	0.676805	0.116278	0.244060
O38	O	0.926805	0.366278	0.494060
O39	O	1.176805	0.616278	0.744060
O40	O	1.426805	0.866278	0.994060
O41	O	0.621551	0.189090	0.116021
O42	O	0.871551	0.439090	0.366021
O43	O	1.121551	0.689090	0.616021
O44	O	1.371551	0.939090	0.866021
O45	O	0.548728	0.189058	0.188844
O46	O	0.798728	0.439058	0.438844
O47	O	1.048728	0.689058	0.688844
O48	O	1.298728	0.939058	0.938844
O49	O	0.621528	0.244266	0.316850
O50	O	0.871528	0.494266	0.566850
O51	O	1.121528	0.744266	0.816850
O52	O	1.371528	0.994266	1.066850
O53	O	0.548690	0.244238	0.244011
O54	O	0.798690	0.494238	0.494011
O55	O	1.048690	0.744238	0.744011
O56	O	1.298690	0.994238	0.994011
O57	O	0.676755	0.189106	0.316871
O58	O	0.926755	0.439106	0.566871
O59	O	1.176755	0.689106	0.816871
O60	O	1.426755	0.939106	1.066871
O61	O	0.676639	0.317124	0.188823
O62	O	0.926639	0.567124	0.438823
O63	O	1.176639	0.817124	0.688823
O64	O	1.426639	1.067124	0.938823
O65	O	0.621462	0.317099	0.243999
O66	O	0.871462	0.567099	0.493999
O67	O	1.121462	0.817099	0.743999
O68	O	1.371462	1.067099	0.993999
C69	C	0.532408	0.216641	0.216426
C70	C	0.782408	0.466641	0.466426
C71	C	1.032408	0.716641	0.716426
C72	C	1.282408	0.966641	0.966426
C73	C	0.482474	0.216632	0.216431
C74	C	0.732474	0.466632	0.466431
C75	C	0.982474	0.716632	0.716431
C76	C	1.232474	0.966632	0.966431
C77	C	0.125909	0.188015	0.245237
C78	C	0.375909	0.438015	0.495237
C79	C	0.625909	0.688015	0.745237
C80	C	0.875909	0.938015	0.995237
C81	C	0.313582	0.187979	0.245226
C82	C	0.563582	0.437979	0.495226
C83	C	0.813582	0.687979	0.745226
C84	C	1.063582	0.937979	0.995226
O85	O	0.337865	0.163591	0.269715
O86	O	0.587865	0.413591	0.519715
O87	O	0.837865	0.663591	0.769715
O88	O	1.087865	0.913591	1.019715
N89	N	0.337029	0.216661	0.216442
N90	N	0.587029	0.466661	0.466442
N91	N	0.837029	0.716661	0.716442
N92	N	1.087029	0.966661	0.966442
C93	C	0.313555	0.245357	0.187660
C94	C	0.563555	0.495357	0.437660
C95	C	0.813555	0.745357	0.687660
C96	C	1.063555	0.995357	0.937660
O97	O	0.337804	0.269755	0.163181
O98	O	0.587804	0.519755	0.413181
O99	O	0.837804	0.769755	0.663181
O100	O	1.087804	1.019755	0.913181
C101	C	0.125883	0.245395	0.187673
C102	C	0.375883	0.495395	0.437673
C103	C	0.625883	0.745395	0.687673
C104	C	0.875883	0.995395	0.937673
C105	C	0.102438	0.216707	0.216456
C106	C	0.352438	0.466707	0.466456
C107	C	0.602438	0.716707	0.716456
C108	C	0.852438	0.966707	0.966456
C109	C	0.102464	0.159330	0.274017
C110	C	0.352464	0.409330	0.524017
C111	C	0.602464	0.659330	0.774017
C112	C	0.852464	0.909330	1.024017
C113	C	0.055548	0.159338	0.274018
C114	C	0.305548	0.409338	0.524018
C115	C	0.555548	0.659338	0.774018
C116	C	0.805548	0.909338	1.024018
C117	C	0.032078	0.188030	0.245238
C118	C	0.282078	0.438030	0.495238
C119	C	0.532078	0.688030	0.745238
C120	C	0.782078	0.938030	0.995238
C121	C	0.055522	0.216715	0.216457
C122	C	0.305522	0.466715	0.466457
C123	C	0.555522	0.716715	0.716457
C124	C	0.805522	0.966715	0.966457
C125	C	0.102409	0.274092	0.158894
C126	C	0.352409	0.524092	0.408894
C127	C	0.602409	0.774092	0.658894
C128	C	0.852409	1.024092	0.908894
C129	C	0.055488	0.274100	0.158901
C130	C	0.305488	0.524100	0.408901
C131	C	0.555488	0.774100	0.658901
C132	C	0.805488	1.024100	0.908901
C133	C	0.032044	0.245412	0.187684
C134	C	0.282044	0.495412	0.437684
C135	C	0.532044	0.745412	0.687684
C136	C	0.782044	0.995412	0.937684
C137	C	-0.014864	0.245415	0.187677
C138	C	0.235136	0.495415	0.437677
C139	C	0.485136	0.745415	0.687677
C140	C	0.735136	0.995415	0.937677
N141	N	-0.038311	0.216732	0.216461
N142	N	0.211689	0.466732	0.466461
N143	N	0.461689	0.716732	0.716461
N144	N	0.711689	0.966732	0.966461
C145	C	-0.014840	0.188040	0.245242
C146	C	0.235160	0.438040	0.495242
C147	C	0.485160	0.688040	0.745242
C148	C	0.735160	0.938040	0.995242
C149	C	0.412085	0.245334	0.187655
C150	C	0.662085	0.495334	0.437655
C151	C	0.912085	0.745334	0.687655
C152	C	1.162085	0.995334	0.937655
C153	C	0.459003	0.245324	0.187651
C154	C	0.709003	0.495324	0.437651
C155	C	0.959003	0.745324	0.687651
C156	C	1.209003	0.995324	0.937651
C157	C	0.459027	0.187947	0.245218
C158	C	0.709027	0.437947	0.495218
C159	C	0.959027	0.687947	0.745218
C160	C	1.209027	0.937947	0.995218
C161	C	0.412108	0.187955	0.245219
C162	C	0.662108	0.437955	0.495219
C163	C	0.912108	0.687955	0.745219
C164	C	1.162108	0.937955	0.995219
C165	C	0.388638	0.216652	0.216439
C166	C	0.638638	0.466652	0.466439
C167	C	0.888638	0.716652	0.716439
C168	C	1.138638	0.966652	0.966439
C169	C	-0.113366	0.188058	0.245240
C170	C	0.136634	0.438058	0.495240
C171	C	0.386634	0.688058	0.745240
C172	C	0.636634	0.938058	0.995240
C173	C	-0.160286	0.188067	0.245237
C174	C	0.089714	0.438067	0.495237
C175	C	0.339714	0.688067	0.745237
C176	C	0.589714	0.938067	0.995237
C177	C	-0.160305	0.245445	0.187672
C178	C	0.089695	0.495445	0.437672
C179	C	0.339695	0.745445	0.687672
C180	C	0.589695	0.995445	0.937672
C181	C	-0.113390	0.245435	0.187674
C182	C	0.136610	0.495435	0.437674
C183	C	0.386610	0.745435	0.687674
C184	C	0.636610	0.995435	0.937674
C185	C	-0.089921	0.216740	0.216461
C186	C	0.160079	0.466740	0.466461
C187	C	0.410079	0.716740	0.716461
C188	C	0.660079	0.966740	0.966461
O189	O	-0.039176	0.269794	0.163204
O190	O	0.210824	0.519794	0.413204
O191	O	0.460824	0.769794	0.663204
O192	O	0.710824	1.019794	0.913204
O193	O	-0.039098	0.163652	0.269725
O194	O	0.210902	0.413652	0.519725
O195	O	0.460902	0.663652	0.769725
O196	O	0.710902	0.913652	1.019725
C197	C	0.172824	0.188007	0.245236
C198	C	0.422824	0.438007	0.495236
C199	C	0.672824	0.688007	0.745236
C200	C	0.922824	0.938007	0.995236
C201	C	0.196269	0.216692	0.216455
C202	C	0.446269	0.466692	0.466455
C203	C	0.696269	0.716692	0.716455
C204	C	0.946269	0.966692	0.966455
C205	C	0.172798	0.245384	0.187675
C206	C	0.422798	0.495384	0.437675
C207	C	0.672798	0.745384	0.687675
C208	C	0.922798	0.995384	0.937675
C209	C	0.243187	0.216682	0.216451
C210	C	0.493187	0.466682	0.466451
C211	C	0.743187	0.716682	0.716451
C212	C	0.993187	0.966682	0.966451
C213	C	0.266657	0.187990	0.245231
C214	C	0.516657	0.437990	0.495231
C215	C	0.766657	0.687990	0.745231
C216	C	1.016657	0.937990	0.995231
C217	C	0.243210	0.159308	0.274016
C218	C	0.493210	0.409308	0.524016
C219	C	0.743210	0.659308	0.774016
C220	C	0.993210	0.909308	1.024016
C221	C	0.196295	0.159315	0.274016
C222	C	0.446295	0.409315	0.524016
C223	C	0.696295	0.659315	0.774016
C224	C	0.946295	0.909315	1.024016
C225	C	0.196245	0.274067	0.158891
C226	C	0.446245	0.524067	0.408891
C227	C	0.696245	0.774067	0.658891
C228	C	0.946245	1.024067	0.908891
C229	C	0.243161	0.274056	0.158892
C230	C	0.493161	0.524056	0.408892
C231	C	0.743161	0.774056	0.658892
C232	C	0.993161	1.024056	0.908892
C233	C	0.266631	0.245364	0.187672
C234	C	0.516631	0.495364	0.437672
C235	C	0.766631	0.745364	0.687672
C236	C	1.016631	0.995364	0.937672
C237	C	0.649050	0.333412	0.216416
C238	C	0.899050	0.583412	0.466416
C239	C	1.149050	0.833412	0.716416
C240	C	1.399050	1.083412	0.966416
C241	C	0.649056	0.383347	0.216422
C242	C	0.899056	0.633347	0.466422
C243	C	1.149056	0.883347	0.716422
C244	C	1.399056	1.133347	0.966422
C245	C	0.649143	0.216686	0.333617
C246	C	0.899143	0.466686	0.583617
C247	C	1.149143	0.716686	0.833617
C248	C	1.399143	0.966686	1.083617
C249	C	0.649148	0.216684	0.383551
C250	C	0.899148	0.466684	0.633551
C251	C	1.149148	0.716684	0.883551
C252	C	1.399148	0.966684	1.133551
C253	C	0.766309	0.216738	0.216451
C254	C	1.016309	0.466738	0.466451
C255	C	1.266309	0.716738	0.716451
C256	C	1.516309	0.966738	0.966451
C257	C	0.816244	0.216759	0.216457
C258	C	1.066244	0.466759	0.466457
C259	C	1.316244	0.716759	0.716457
C260	C	1.566244	0.966759	0.966457
C261	C	0.649225	0.099511	0.216471
C262	C	0.899225	0.349511	0.466471
C263	C	1.149225	0.599511	0.716471
C264	C	1.399225	0.849511	0.966471
C265	C	0.649264	0.049577	0.216484
C266	C	0.899264	0.299577	0.466484
C267	C	1.149264	0.549577	0.716484
C268	C	1.399264	0.799577	0.966484
C269	C	0.677914	0.692990	0.187750
C270	C	0.927914	0.942990	0.437750
C271	C	1.177914	1.192990	0.687750
C272	C	1.427914	1.442990	0.937750
C273	C	0.677969	0.880663	0.187767
C274	C	0.927969	1.130663	0.437767
C275	C	1.177969	1.380663	0.687767
C276	C	1.427969	1.630663	0.937767
O277	O	0.702440	0.904928	0.163373
O278	O	0.952440	1.154928	0.413373
O279	O	1.202440	1.404928	0.663373
O280	O	1.452440	1.654928	0.913373
N281	N	0.649224	0.904132	0.216472
N282	N	0.899224	1.154132	0.466472
N283	N	1.149224	1.404132	0.716472
N284	N	1.399224	1.654132	0.966472
C285	C	0.620465	0.880679	0.245177
C286	C	0.870465	1.130679	0.495177
C287	C	1.120465	1.380679	0.745177
C288	C	1.370465	1.630679	0.995177
O289	O	0.596020	0.904946	0.269596
O290	O	0.846020	1.154946	0.519596
O291	O	1.096020	1.404946	0.769596
O292	O	1.346020	1.654946	1.019596
C293	C	0.620412	0.693007	0.245162
C294	C	0.870412	0.943007	0.495162
C295	C	1.120412	1.193007	0.745162
C296	C	1.370412	1.443007	0.995162
C297	C	0.649156	0.669541	0.216452
C298	C	0.899156	0.919541	0.466452
C299	C	1.149156	1.169541	0.716452
C300	C	1.399156	1.419541	0.966452
C301	C	0.706655	0.669524	0.159043
C302	C	0.956655	0.919524	0.409043
C303	C	1.206655	1.169524	0.659043
C304	C	1.456655	1.419524	0.909043
C305	C	0.706640	0.622609	0.159037
C306	C	0.956640	0.872609	0.409037
C307	C	1.206640	1.122609	0.659037
C308	C	1.456640	1.372609	0.909037
C309	C	0.677882	0.599159	0.187738
C310	C	0.927882	0.849159	0.437738
C311	C	1.177882	1.099159	0.687738
C312	C	1.427882	1.349159	0.937738
C313	C	0.649140	0.622625	0.216446
C314	C	0.899140	0.872625	0.466446
C315	C	1.149140	1.122625	0.716446
C316	C	1.399140	1.372625	0.966446
C317	C	0.591656	0.669555	0.273868
C318	C	0.841656	0.919555	0.523868
C319	C	1.091656	1.169555	0.773868
C320	C	1.341656	1.419555	1.023868
C321	C	0.591646	0.622634	0.273863
C322	C	0.841646	0.872634	0.523863
C323	C	1.091646	1.122634	0.773863
C324	C	1.341646	1.372634	1.023863
C325	C	0.620390	0.599168	0.245153
C326	C	0.870390	0.849168	0.495153
C327	C	1.120390	1.099168	0.745153
C328	C	1.370390	1.349168	0.995153
C329	C	0.620367	0.552260	0.245141
C330	C	0.870367	0.802260	0.495141
C331	C	1.120367	1.052260	0.745141
C332	C	1.370367	1.302260	0.995141
N333	N	0.649112	0.528792	0.216437
N334	N	0.899112	0.778792	0.466437
N335	N	1.149112	1.028792	0.716437
N336	N	1.399112	1.278792	0.966437
C337	C	0.677869	0.552242	0.187735
C338	C	0.927869	0.802242	0.437735
C339	C	1.177869	1.052242	0.687735
C340	C	1.427869	1.302242	0.937735
C341	C	0.620494	0.979209	0.245183
C342	C	0.870494	1.229209	0.495183
C343	C	1.120494	1.479209	0.745183
C344	C	1.370494	1.729209	0.995183
C345	C	0.620507	1.026127	0.245186
C346	C	0.870507	1.276127	0.495186
C347	C	1.120507	1.526127	0.745186
C348	C	1.370507	1.776127	0.995186
C349	C	0.678012	1.026109	0.187777
C350	C	0.928012	1.276109	0.437777
C351	C	1.178012	1.526109	0.687777
C352	C	1.428012	1.776109	0.937777
C353	C	0.677996	0.979190	0.187772
C354	C	0.927996	1.229190	0.437772
C355	C	1.177996	1.479190	0.687772
C356	C	1.427996	1.729190	0.937772
C357	C	0.649239	0.955741	0.216478
C358	C	0.899239	1.205741	0.466478
C359	C	1.149239	1.455741	0.716478
C360	C	1.399239	1.705741	0.966478
C361	C	0.677834	0.453716	0.187725
C362	C	0.927834	0.703716	0.437725
C363	C	1.177834	0.953716	0.687725
C364	C	1.427834	1.203716	0.937725
C365	C	0.677814	0.406796	0.187720
C366	C	0.927814	0.656796	0.437720
C367	C	1.177814	0.906796	0.687720
C368	C	1.427814	1.156796	0.937720
C369	C	0.620311	0.406819	0.245131
C370	C	0.870311	0.656819	0.495131
C371	C	1.120311	0.906819	0.745131
C372	C	1.370311	1.156819	0.995131
C373	C	0.620329	0.453734	0.245134
C374	C	0.870329	0.703734	0.495134
C375	C	1.120329	0.953734	0.745134
C376	C	1.370329	1.203734	0.995134
C377	C	0.649094	0.477182	0.216429
C378	C	0.899094	0.727182	0.466429
C379	C	1.149094	0.977182	0.716429
C380	C	1.399094	1.227182	0.966429
O381	O	0.595912	0.527966	0.269527
O382	O	0.845912	0.777966	0.519527
O383	O	1.095912	1.027966	0.769527
O384	O	1.345912	1.277966	1.019527
O385	O	0.702318	0.527966	0.163327
O386	O	0.952318	0.777966	0.413327
O387	O	1.202318	1.027966	0.663327
O388	O	1.452318	1.277966	0.913327
C389	C	0.677930	0.739906	0.187756
C390	C	0.927930	0.989906	0.437756
C391	C	1.177930	1.239906	0.687756
C392	C	1.427930	1.489906	0.937756
C393	C	0.649188	0.763372	0.216463
C394	C	0.899188	1.013372	0.466463
C395	C	1.149188	1.263372	0.716463
C396	C	1.399188	1.513372	0.966463
C397	C	0.620430	0.739922	0.245165
C398	C	0.870430	0.989922	0.495165
C399	C	1.120430	1.239922	0.745165
C400	C	1.370430	1.489922	0.995165
C401	C	0.649200	0.810289	0.216467
C402	C	0.899200	1.060289	0.466467
C403	C	1.149200	1.310289	0.716467
C404	C	1.399200	1.560289	0.966467
C405	C	0.677958	0.833739	0.187765
C406	C	0.927958	1.083739	0.437765
C407	C	1.177958	1.333739	0.687765
C408	C	1.427958	1.583739	0.937765
C409	C	0.706703	0.810271	0.159060
C410	C	0.956703	1.060271	0.409060
C411	C	1.206703	1.310271	0.659060
C412	C	1.456703	1.560271	0.909060
C413	C	0.706687	0.763355	0.159054
C414	C	0.956687	1.013355	0.409054
C415	C	1.206687	1.263355	0.659054
C416	C	1.456687	1.513355	0.909054
C417	C	0.591685	0.763390	0.273870
C418	C	0.841685	1.013390	0.523870
C419	C	1.091685	1.263390	0.773870
C420	C	1.341685	1.513390	1.023870
C421	C	0.591703	0.810306	0.273873
C422	C	0.841703	1.060306	0.523873
C423	C	1.091703	1.310306	0.773873
C424	C	1.341703	1.560306	1.023873
C425	C	0.620461	0.833755	0.245171
C426	C	0.870461	1.083755	0.495171
C427	C	1.120461	1.333755	0.745171
C428	C	1.370461	1.583755	0.995171
C429	C	0.649145	0.216661	0.099716
C430	C	0.899145	0.466661	0.349716
C431	C	1.149145	0.716661	0.599716
C432	C	1.399145	0.966661	0.849716
C433	C	0.649227	0.216536	0.049782
C434	C	0.899227	0.466536	0.299782
C435	C	1.149227	0.716536	0.549782
C436	C	1.399227	0.966536	0.799782
C437	C	0.677935	0.187887	0.693209
C438	C	0.927935	0.437887	0.943209
C439	C	1.177935	0.687887	1.193209
C440	C	1.427935	0.937887	1.443209
C441	C	0.677957	0.187849	0.880882
C442	C	0.927957	0.437849	1.130882
C443	C	1.177957	0.687849	1.380882
C444	C	1.427957	0.937849	1.630882
O445	O	0.702399	0.163407	0.905159
O446	O	0.952399	0.413407	1.155159
O447	O	1.202399	0.663407	1.405159
O448	O	1.452399	0.913407	1.655159
N449	N	0.649208	0.216564	0.904337
N450	N	0.899208	0.466564	1.154337
N451	N	1.149208	0.716564	1.404337
N452	N	1.399208	0.966564	1.654337
C453	C	0.620449	0.245288	0.880870
C454	C	0.870449	0.495288	1.130870
C455	C	1.120449	0.745288	1.380870
C456	C	1.370449	0.995288	1.630870
O457	O	0.595993	0.269708	0.905126
O458	O	0.845993	0.519708	1.155126
O459	O	1.095993	0.769708	1.405126
O460	O	1.345993	1.019708	1.655126
C461	C	0.620424	0.245324	0.693198
C462	C	0.870424	0.495324	0.943198
C463	C	1.120424	0.745324	1.193198
C464	C	1.370424	0.995324	1.443198
C465	C	0.649179	0.216610	0.669746
C466	C	0.899179	0.466610	0.919746
C467	C	1.149179	0.716610	1.169746
C468	C	1.399179	0.966610	1.419746
C469	C	0.706687	0.159175	0.669757
C470	C	0.956687	0.409175	0.919757
C471	C	1.206687	0.659175	1.169757
C472	C	1.456687	0.909175	1.419757
C473	C	0.706683	0.159187	0.622841
C474	C	0.956683	0.409187	0.872841
C475	C	1.206683	0.659187	1.122841
C476	C	1.456683	0.909187	1.372841
C477	C	0.677927	0.187910	0.599378
C478	C	0.927927	0.437910	0.849378
C479	C	1.177927	0.687910	1.099378
C480	C	1.427927	0.937910	1.349378
C481	C	0.649175	0.216622	0.622830
C482	C	0.899175	0.466622	0.872830
C483	C	1.149175	0.716622	1.122830
C484	C	1.399175	0.966622	1.372830
C485	C	0.591663	0.274045	0.669732
C486	C	0.841663	0.524045	0.919732
C487	C	1.091663	0.774045	1.169732
C488	C	1.341663	1.024045	1.419732
C489	C	0.591659	0.274051	0.622811
C490	C	0.841659	0.524051	0.872811
C491	C	1.091659	0.774051	1.122811
C492	C	1.341659	1.024051	1.372811
C493	C	0.620414	0.245337	0.599359
C494	C	0.870414	0.495337	0.849359
C495	C	1.120414	0.745337	1.099359
C496	C	1.370414	0.995337	1.349359
C497	C	0.620415	0.245356	0.552451
C498	C	0.870415	0.495356	0.802451
C499	C	1.120415	0.745356	1.052451
C500	C	1.370415	0.995356	1.302451
N501	N	0.649164	0.216642	0.528997
N502	N	0.899164	0.466642	0.778997
N503	N	1.149164	0.716642	1.028997
N504	N	1.399164	0.966642	1.278997
C505	C	0.677920	0.187918	0.552460
C506	C	0.927920	0.437918	0.802460
C507	C	1.177920	0.687918	1.052460
C508	C	1.427920	0.937918	1.302460
C509	C	0.620464	0.245268	0.979401
C510	C	0.870464	0.495268	1.229401
C511	C	1.120464	0.745268	1.479401
C512	C	1.370464	0.995268	1.729401
C513	C	0.620471	0.245260	1.026319
C514	C	0.870471	0.495260	1.276319
C515	C	1.120471	0.745260	1.526319
C516	C	1.370471	0.995260	1.776319
C517	C	0.677979	0.187820	1.026327
C518	C	0.927979	0.437820	1.276327
C519	C	1.177979	0.687820	1.526327
C520	C	1.427979	0.937820	1.776327
C521	C	0.677974	0.187830	0.979409
C522	C	0.927974	0.437830	1.229409
C523	C	1.177974	0.687830	1.479409
C524	C	1.427974	0.937830	1.729409
C525	C	0.649213	0.216553	0.955946
C526	C	0.899213	0.466553	1.205946
C527	C	1.149213	0.716553	1.455946
C528	C	1.399213	0.966553	1.705946
C529	C	0.677910	0.187945	0.453934
C530	C	0.927910	0.437945	0.703934
C531	C	1.177910	0.687945	0.953934
C532	C	1.427910	0.937945	1.203934
C533	C	0.677904	0.187961	0.407015
C534	C	0.927904	0.437961	0.657015
C535	C	1.177904	0.687961	0.907015
C536	C	1.427904	0.937961	1.157015
C537	C	0.620395	0.245399	0.407010
C538	C	0.870395	0.495399	0.657010
C539	C	1.120395	0.745399	0.907010
C540	C	1.370395	0.995399	1.157010
C541	C	0.620401	0.245385	0.453926
C542	C	0.870401	0.495385	0.703926
C543	C	1.120401	0.745385	0.953926
C544	C	1.370401	0.995385	1.203926
C545	C	0.649160	0.216655	0.477386
C546	C	0.899160	0.466655	0.727386
C547	C	1.149160	0.716655	0.977386
C548	C	1.399160	0.966655	1.227386
O549	O	0.595982	0.269782	0.528146
O550	O	0.845982	0.519782	0.778146
O551	O	1.095982	0.769782	1.028146
O552	O	1.345982	1.019782	1.278146
O553	O	0.702365	0.163495	0.528196
O554	O	0.952365	0.413495	0.778196
O555	O	1.202365	0.663495	1.028196
O556	O	1.452365	0.913495	1.278196
C557	C	0.677939	0.187875	0.740124
C558	C	0.927939	0.437875	0.990124
C559	C	1.177939	0.687875	1.240124
C560	C	1.427939	0.937875	1.490124
C561	C	0.649187	0.216587	0.763577
C562	C	0.899187	0.466587	1.013577
C563	C	1.149187	0.716587	1.263577
C564	C	1.399187	0.966587	1.513577
C565	C	0.620431	0.245310	0.740113
C566	C	0.870431	0.495310	0.990113
C567	C	1.120431	0.745310	1.240113
C568	C	1.370431	0.995310	1.490113
C569	C	0.649194	0.216579	0.810494
C570	C	0.899194	0.466579	1.060494
C571	C	1.149194	0.716579	1.310494
C572	C	1.399194	0.966579	1.560494
C573	C	0.677950	0.187856	0.833958
C574	C	0.927950	0.437856	1.083958
C575	C	1.177950	0.687856	1.333958
C576	C	1.427950	0.937856	1.583958
C577	C	0.706699	0.159141	0.810503
C578	C	0.956699	0.409141	1.060503
C579	C	1.206699	0.659141	1.310503
C580	C	1.456699	0.909141	1.560503
C581	C	0.706695	0.159152	0.763588
C582	C	0.956695	0.409152	1.013588
C583	C	1.206695	0.659152	1.263588
C584	C	1.456695	0.909152	1.513588
C585	C	0.591682	0.274025	0.763568
C586	C	0.841682	0.524025	1.013568
C587	C	1.091682	0.774025	1.263568
C588	C	1.341682	1.024025	1.513568
C589	C	0.591689	0.274011	0.810483
C590	C	0.841689	0.524011	1.060483
C591	C	1.091689	0.774011	1.310483
C592	C	1.341689	1.024011	1.560483
C593	C	0.620445	0.245288	0.833947
C594	C	0.870445	0.495288	1.083947
C595	C	1.120445	0.745288	1.333947
C596	C	1.370445	0.995288	1.583947
H597	H	-0.179372	0.164704	0.268675
H598	H	0.070628	0.414704	0.518675
H599	H	0.320628	0.664704	0.768675
H600	H	0.570628	0.914704	1.018675
H601	H	0.177140	0.297432	0.135454
H602	H	0.427140	0.547432	0.385454
H603	H	0.677140	0.797432	0.635454
H604	H	0.927140	1.047432	0.885454
Cl605	Cl	0.555524	0.699043	0.309968
Cl606	Cl	0.805524	0.949043	0.559968
Cl607	Cl	1.055524	1.199043	0.809968
Cl608	Cl	1.305524	1.449043	1.059968
Cl609	Cl	0.555514	0.310146	0.699203
Cl610	Cl	0.805514	0.560146	0.949203
Cl611	Cl	1.055514	0.810146	1.199203
Cl612	Cl	1.305514	1.060146	1.449203
Cl613	Cl	0.584255	0.281485	0.483409
Cl614	Cl	0.834255	0.531485	0.733409
Cl615	Cl	1.084255	0.781485	0.983409
Cl616	Cl	1.334255	1.031485	1.233409
Cl617	Cl	0.026082	0.123276	0.310209
Cl618	Cl	0.276082	0.373276	0.560209
Cl619	Cl	0.526082	0.623276	0.810209
Cl620	Cl	0.776082	0.873276	1.060209
Cl621	Cl	0.714056	0.151862	0.377535
Cl622	Cl	0.964056	0.401862	0.627535
Cl623	Cl	1.214056	0.651862	0.877535
Cl624	Cl	1.464056	0.901862	1.127535
Cl625	Cl	0.714133	0.949695	0.151678
Cl626	Cl	0.964133	1.199695	0.401678
Cl627	Cl	1.214133	1.449695	0.651678
Cl628	Cl	1.464133	1.699695	0.901678
Cl629	Cl	0.714163	1.055596	0.151695
Cl630	Cl	0.964163	1.305596	0.401695
Cl631	Cl	1.214163	1.555596	0.651695
Cl632	Cl	1.464163	1.805596	0.901695
H633	H	0.701220	0.387692	0.164340
H634	H	0.951220	0.637692	0.414340
H635	H	1.201220	0.887692	0.664340
H636	H	1.451220	1.137692	0.914340
H637	H	0.730046	0.603506	0.135660
H638	H	0.980046	0.853506	0.385660
H639	H	1.230046	1.103506	0.635660
H640	H	1.480046	1.353506	0.885660
Cl641	Cl	0.714062	0.151825	0.483421
Cl642	Cl	0.964062	0.401825	0.733421
Cl643	Cl	1.214062	0.651825	0.983421
Cl644	Cl	1.464062	0.901825	1.233421
H645	H	0.701393	0.164432	1.045439
H646	H	0.951393	0.414432	1.295439
H647	H	1.201393	0.664432	1.545439
H648	H	1.451393	0.914432	1.795439
Cl649	Cl	0.742854	0.839759	0.122978
Cl650	Cl	0.992854	1.089759	0.372978
Cl651	Cl	1.242854	1.339759	0.622978
Cl652	Cl	1.492854	1.589759	0.872978
Cl653	Cl	0.584365	1.055622	0.281275
Cl654	Cl	0.834365	1.305622	0.531275
Cl655	Cl	1.084365	1.555622	0.781275
Cl656	Cl	1.334365	1.805622	1.031275
H657	H	-0.179424	0.268804	0.164238
H658	H	0.070576	0.518804	0.414238
H659	H	0.320576	0.768804	0.664238
H660	H	0.570576	1.018804	0.914238
H661	H	0.568233	0.297436	0.603710
H662	H	0.818233	0.547436	0.853710
H663	H	1.068233	0.797436	1.103710
H664	H	1.318233	1.047436	1.353710
Cl665	Cl	0.555563	0.839800	0.309969
Cl666	Cl	0.805563	1.089800	0.559969
Cl667	Cl	1.055563	1.339800	0.809969
Cl668	Cl	1.305563	1.589800	1.059969
H669	H	0.730093	0.744253	0.135676
H670	H	0.980093	0.994253	0.385676
H671	H	1.230093	1.244253	0.635676
H672	H	1.480093	1.494253	0.885676
Cl673	Cl	0.584327	0.281365	1.055796
Cl674	Cl	0.834327	0.531365	1.305796
Cl675	Cl	1.084327	0.781365	1.555796
Cl676	Cl	1.334327	1.031365	1.805796
H677	H	0.568265	0.297416	0.744469
H678	H	0.818265	0.547416	0.994469
H679	H	1.068265	0.797416	1.244469
H680	H	1.318265	1.047416	1.494469
H681	H	0.730097	0.135805	0.603751
H682	H	0.980097	0.385805	0.853751
H683	H	1.230097	0.635805	1.103751
H684	H	1.480097	0.885805	1.353751
H685	H	0.177210	0.135955	0.297454
H686	H	0.427210	0.385955	0.547454
H687	H	0.677210	0.635955	0.797454
H688	H	0.927210	0.885955	1.047454
H689	H	-0.094264	0.164691	0.268682
H690	H	0.155736	0.414691	0.518682
H691	H	0.405736	0.664691	0.768682
H692	H	0.655736	0.914691	1.018682
H693	H	0.730104	0.135783	0.688855
H694	H	0.980104	0.385783	0.938855
H695	H	1.230104	0.635783	1.188855
H696	H	1.480104	0.885783	1.438855
Cl697	Cl	0.555528	0.733918	0.309955
Cl698	Cl	0.805528	0.983918	0.559955
Cl699	Cl	1.055528	1.233918	0.809955
Cl700	Cl	1.305528	1.483918	1.059955
H701	H	0.568274	0.297398	0.829574
H702	H	0.818274	0.547398	1.079574
H703	H	1.068274	0.797398	1.329574
H704	H	1.318274	1.047398	1.579574
H705	H	0.262245	0.297416	0.135449
H706	H	0.512245	0.547416	0.385449
H707	H	0.762245	0.797416	0.635449
H708	H	1.012245	1.047416	0.885449
H709	H	0.596925	0.472841	0.268513
H710	H	0.846925	0.722841	0.518513
H711	H	1.096925	0.972841	0.768513
H712	H	1.346925	1.222841	1.018513
Cl713	Cl	0.272725	0.123237	0.310195
Cl714	Cl	0.522725	0.373237	0.560195
Cl715	Cl	0.772725	0.623237	0.810195
Cl716	Cl	1.022725	0.873237	1.060195
H717	H	0.478145	0.164583	0.268651
H718	H	0.728145	0.414583	0.518651
H719	H	0.978145	0.664583	0.768651
H720	H	1.228145	0.914583	1.018651
Cl721	Cl	0.713995	0.483185	0.151638
Cl722	Cl	0.963995	0.733185	0.401638
Cl723	Cl	1.213995	0.983185	0.651638
Cl724	Cl	1.463995	1.233185	0.901638
H725	H	0.568229	0.603544	0.297240
H726	H	0.818229	0.853544	0.547240
H727	H	1.068229	1.103544	0.797240
H728	H	1.318229	1.353544	1.047240
H729	H	0.701388	0.164449	0.960317
H730	H	0.951388	0.414449	1.210317
H731	H	1.201388	0.664449	1.460317
H732	H	1.451388	0.914449	1.710317
Cl733	Cl	0.584163	0.377331	0.281213
Cl734	Cl	0.834163	0.627331	0.531213
Cl735	Cl	1.084163	0.877331	0.781213
Cl736	Cl	1.334163	1.127331	1.031213
H737	H	0.121569	0.135965	0.297456
H738	H	0.371569	0.385965	0.547456
H739	H	0.621569	0.635965	0.797456
H740	H	0.871569	0.885965	1.047456
Cl741	Cl	0.382640	0.151890	0.281405
Cl742	Cl	0.632640	0.401890	0.531405
Cl743	Cl	0.882640	0.651890	0.781405
Cl744	Cl	1.132640	0.901890	1.031405
H745	H	0.730076	0.688612	0.135670
H746	H	0.980076	0.938612	0.385670
H747	H	1.230076	1.188612	0.635670
H748	H	1.480076	1.438612	0.885670
H749	H	0.597044	0.268660	0.960302
H750	H	0.847044	0.518660	1.210302
H751	H	1.097044	0.768660	1.460302
H752	H	1.347044	1.018660	1.710302
H753	H	0.478088	0.268679	0.164208
H754	H	0.728088	0.518679	0.414208
H755	H	0.978088	0.768679	0.664208
H756	H	1.228088	1.018679	0.914208
H757	H	0.597076	0.960121	0.268559
H758	H	0.847076	1.210121	0.518559
H759	H	1.097076	1.460121	0.768559
H760	H	1.347076	1.710121	1.018559
Cl761	Cl	0.584245	0.281505	0.377505
Cl762	Cl	0.834245	0.531505	0.627505
Cl763	Cl	1.084245	0.781505	0.877505
Cl764	Cl	1.334245	1.031505	1.127505
H765	H	0.730110	0.135771	0.744497
H766	H	0.980110	0.385771	0.994497
H767	H	1.230110	0.635771	1.244497
H768	H	1.480110	0.885771	1.494497
Cl769	Cl	0.742851	0.123033	0.840009
Cl770	Cl	0.992851	0.373033	1.090009
Cl771	Cl	1.242851	0.623033	1.340009
Cl772	Cl	1.492851	0.873033	1.590009
Cl773	Cl	0.131871	0.310152	0.122701
Cl774	Cl	0.381871	0.560152	0.372701
Cl775	Cl	0.631871	0.810152	0.622701
Cl776	Cl	0.881871	1.060152	0.872701
Cl777	Cl	0.025986	0.310181	0.122721
Cl778	Cl	0.275986	0.560181	0.372721
Cl779	Cl	0.525986	0.810181	0.622721
Cl780	Cl	0.775986	1.060181	0.872721
Cl781	Cl	0.382587	0.281407	0.151464
Cl782	Cl	0.632587	0.531407	0.401464
Cl783	Cl	0.882587	0.781407	0.651464
Cl784	Cl	1.132587	1.031407	0.901464
H785	H	-0.094300	0.268791	0.164232
H786	H	0.155700	0.518791	0.414232
H787	H	0.405700	0.768791	0.664232
H788	H	0.655700	1.018791	0.914232
