data_functionalizedCrystal
_audit_creation_method	'MofGen! by Chris Wilmer'
_symmetry_space_group_name_H-M	'P1'
_symmetry_Int_Tables_number	1
_symmetry_cell_setting	triclinic
loop_
_symmetry_equiv_pos_as_xyz
  x,y,z
_cell_length_a	12.759401
_cell_length_b	12.759400
_cell_length_c	12.759393
_cell_angle_alpha	89.968231
_cell_angle_beta	89.982620
_cell_angle_gamma	90.014845
loop_
_atom_site_label
_atom_site_type_symbol
_atom_site_fract_x
_atom_site_fract_y
_atom_site_fract_z
Zn1	Zn	1.606244	-0.418198	-0.593981
Zn2	Zn	1.606142	-0.593917	-0.418301
Zn3	Zn	1.430549	-0.418253	-0.418321
Zn4	Zn	1.430535	-0.593836	-0.593943
O5	O	1.518367	-0.506051	-0.506137
O6	O	1.753251	-0.441518	-0.570685
O7	O	1.582812	-0.570672	-0.271283
O8	O	1.453905	-0.271225	-0.441647
O9	O	1.753176	-0.570618	-0.441614
O10	O	1.582987	-0.271184	-0.570704
O11	O	1.453805	-0.441613	-0.271297
O12	O	1.283526	-0.441534	-0.441609
O13	O	1.453879	-0.570480	-0.740969
O14	O	1.283516	-0.570533	-0.570638
O15	O	1.582972	-0.441439	-0.740997
O16	O	1.582798	-0.740927	-0.441577
O17	O	1.453780	-0.740868	-0.570620
C18	C	1.245400	-0.506032	-0.506122
C19	C	1.128623	-0.506049	-0.506141
C20	C	1.073783	-0.573326	-0.573215
C21	C	0.964059	-0.573340	-0.573227
C22	C	0.964025	-0.438795	-0.439081
C23	C	1.073747	-0.438777	-0.439075
C24	C	1.128659	-0.640598	-0.640281
C25	C	1.073819	-0.707882	-0.707360
C26	C	0.964095	-0.707895	-0.707371
C27	C	0.909211	-0.640625	-0.640304
C28	C	1.518305	-0.779018	-0.506115
C29	C	1.518374	-0.895795	-0.506140
C30	C	1.585629	-0.950653	-0.439022
C31	C	1.585693	-1.060377	-0.439054
C32	C	1.451240	-1.060375	-0.573327
C33	C	1.451182	-0.950653	-0.573299
C34	C	1.652821	-0.895795	-0.371864
C35	C	1.720080	-0.950654	-0.304739
C36	C	1.720144	-1.060378	-0.304771
C37	C	1.652950	-1.115243	-0.371929
C38	C	1.792401	-0.506071	-0.506152
C39	C	1.909177	-0.506080	-0.506158
C40	C	1.518436	-0.505944	-0.780170
C41	C	1.518465	-0.505898	-0.896947
C42	C	1.518459	-0.232018	-0.506182
C43	C	1.518497	-0.115241	-0.506201
C44	C	1.451319	-0.438685	-0.951822
C45	C	1.451351	-0.438653	-1.061546
C46	C	1.585683	-0.573052	-1.061510
C47	C	1.585645	-0.573088	-0.951788
C48	C	1.384139	-0.371495	-0.896981
C49	C	1.316989	-0.304275	-0.951857
C50	C	1.317021	-0.304244	-1.061581
C51	C	1.384203	-0.371432	-1.116430
C52	C	1.518360	-0.506082	-0.233169
C53	C	1.518534	-0.505831	-0.116393
H54	H	0.919447	-0.762674	-0.761998
N55	N	1.658068	-0.645586	-0.892603
H56	H	1.733147	-0.629270	-0.911698
H57	H	1.647762	-0.635387	-0.814791
H58	H	1.396418	-0.905987	-0.627954
H59	H	1.640381	-0.627752	-1.106176
H60	H	1.262286	-0.249578	-0.907192
N61	N	1.384095	-0.371534	-0.778638
H62	H	1.436825	-0.424311	-0.752195
H63	H	1.403398	-0.299437	-0.752310
N64	N	1.244590	-0.231758	-1.120771
H65	H	1.202028	-0.189203	-1.069377
H66	H	1.287387	-0.183129	-1.166309
N67	N	1.792678	-1.119546	-0.232371
H68	H	1.782525	-1.197379	-0.242578
H69	H	1.867695	-1.100292	-0.248774
H70	H	1.384220	-0.371404	-1.205774
H71	H	1.218002	-0.640597	-0.640277
N72	N	1.133003	-0.780435	-0.779696
H73	H	1.178555	-0.737795	-0.828454
H74	H	1.178440	-0.829053	-0.736834
N75	N	0.790866	-0.640626	-0.640324
H76	H	0.764450	-0.693451	-0.692996
H77	H	0.764485	-0.659824	-0.568186
H78	H	0.919330	-0.384027	-0.384477
H79	H	1.652773	-0.806452	-0.371827
H80	H	1.118399	-0.383986	-0.384466
N81	N	1.792557	-0.891478	-0.232321
H82	H	1.749863	-0.846031	-0.183582
H83	H	1.835163	-0.942947	-0.189880
N84	N	1.653027	-1.233589	-0.371977
H85	H	1.705833	-1.260019	-0.319270
H86	H	1.580946	-1.260015	-0.352644
H87	H	1.396533	-1.105055	-0.628002
