data_functionalizedCrystal
_audit_creation_method	'MofGen! by Chris Wilmer'
_symmetry_space_group_name_H-M	'P1'
_symmetry_Int_Tables_number	1
_symmetry_cell_setting	triclinic
loop_
_symmetry_equiv_pos_as_xyz
  x,y,z
_cell_length_a	11.169417
_cell_length_b	19.121063
_cell_length_c	11.169409
_cell_angle_alpha	92.400753
_cell_angle_beta	89.980176
_cell_angle_gamma	92.469728
loop_
_atom_site_label
_atom_site_type_symbol
_atom_site_fract_x
_atom_site_fract_y
_atom_site_fract_z
Zn1	Zn	1.814442	-0.279539	-0.698851
Zn2	Zn	2.314442	0.220461	-0.198851
Zn3	Zn	1.805707	-0.397012	-0.506702
Zn4	Zn	2.305707	0.102988	-0.006702
Zn5	Zn	1.613724	-0.279582	-0.498188
Zn6	Zn	2.113724	0.220418	0.001812
Zn7	Zn	1.605116	-0.396955	-0.707343
Zn8	Zn	2.105116	0.103045	-0.207343
O9	O	1.709747	-0.338272	-0.602771
O10	O	2.209747	0.161728	-0.102771
O11	O	1.981232	-0.295128	-0.673371
O12	O	2.481232	0.204872	-0.173371
O13	O	1.780188	-0.381477	-0.337626
O14	O	2.280188	0.118523	0.162374
O15	O	1.647608	-0.181292	-0.517690
O16	O	2.147608	0.318708	-0.017690
O17	O	1.974815	-0.381435	-0.532200
O18	O	2.474815	0.118565	-0.032200
O19	O	1.795074	-0.181261	-0.665116
O20	O	2.295074	0.318739	-0.165116
O21	O	1.639139	-0.295201	-0.331371
O22	O	2.139139	0.204799	0.168629
O23	O	1.444633	-0.295146	-0.525924
O24	O	1.944633	0.204854	-0.025924
O25	O	1.632936	-0.381338	-0.874163
O26	O	2.132936	0.118662	-0.374163
O27	O	1.438308	-0.381379	-0.679589
O28	O	1.938308	0.118621	-0.179589
O29	O	1.786727	-0.295073	-0.867924
O30	O	2.286727	0.204927	-0.367924
O31	O	1.771840	-0.495289	-0.540435
O32	O	2.271840	0.004711	-0.040435
O33	O	1.624466	-0.495247	-0.687844
O34	O	2.124466	0.004753	-0.187844
C35	C	1.397923	-0.338261	-0.602755
C36	C	1.897923	0.161739	-0.102755
C37	C	1.264522	-0.338274	-0.602778
C38	C	1.764522	0.161726	-0.102778
C39	C	1.696304	-0.520752	-0.616011
C40	C	2.196304	-0.020752	-0.116011
C41	C	1.690663	-0.598817	-0.621715
C42	C	2.190663	-0.098817	-0.121715
C43	C	1.764802	-0.635491	-0.547710
C44	C	2.264802	-0.135491	-0.047710
C45	C	1.759503	-0.708842	-0.553082
C46	C	2.259503	-0.208842	-0.053082
C47	C	1.680059	-0.745518	-0.632454
C48	C	2.180059	-0.245518	-0.132454
C49	C	1.605917	-0.708838	-0.706467
C50	C	2.105917	-0.208838	-0.206467
C51	C	1.611222	-0.635489	-0.701100
C52	C	2.111222	-0.135489	-0.201100
C53	C	1.660204	-0.966986	-0.652499
C54	C	2.160204	-0.466986	-0.152499
C55	C	1.654902	-1.040340	-0.657858
C56	C	2.154902	-0.540340	-0.157858
C57	C	1.808490	-1.040339	-0.504474
C58	C	2.308490	-0.540339	-0.004474
C59	C	1.813784	-0.966988	-0.499110
C60	C	2.313784	-0.466988	0.000890
C61	C	1.739646	-0.930315	-0.573127
C62	C	2.239646	-0.430315	-0.073127
C63	C	1.674638	-0.820494	-0.637944
C64	C	2.174638	-0.320494	-0.137944
C65	C	1.745073	-0.855340	-0.567642
C66	C	2.245073	-0.355340	-0.067642
C67	C	2.022789	-0.338283	-0.602788
C68	C	2.522789	0.161717	-0.102788
C69	C	2.156188	-0.338288	-0.602795
C70	C	2.656188	0.161712	-0.102795
C71	C	1.709845	-0.338194	-0.915808
C72	C	2.209845	0.161806	-0.415808
C73	C	1.709887	-0.338161	-1.049206
C74	C	2.209887	0.161839	-0.549206
C75	C	1.723276	-0.155080	-0.589506
C76	C	2.223276	0.344920	-0.089506
C77	C	1.729041	-0.077014	-0.583853
C78	C	2.229041	0.422986	-0.083853
C79	C	1.709722	-0.338299	-0.290948
C80	C	2.209722	0.161701	0.209052
C81	C	1.709928	-0.338134	-0.157537
C82	C	2.209928	0.161866	0.342463
H83	H	1.829489	-0.605635	-0.483072
H84	H	2.329489	-0.105635	0.016928
C85	C	1.578711	-0.926655	-0.733983
C86	C	2.078711	-0.426655	-0.233983
N87	N	1.517349	-0.896276	-0.795383
N88	N	2.017349	-0.396276	-0.295383
H89	H	1.590223	-1.070200	-0.722513
H90	H	2.090223	-0.570200	-0.222513
C91	C	1.518523	-0.749184	-0.793773
C92	C	2.018523	-0.249184	-0.293773
N93	N	1.452690	-0.779572	-0.859528
N94	N	1.952690	-0.279572	-0.359528
H95	H	1.819874	-0.738699	-0.492818
H96	H	2.319874	-0.238699	0.007182
H97	H	1.809762	-0.825477	-0.503022
H98	H	2.309762	-0.325477	-0.003022
H99	H	1.609952	-0.850363	-0.702566
H100	H	2.109952	-0.350363	-0.202566
C101	C	1.890040	-1.080685	-0.423064
C102	C	2.390040	-0.580685	0.076936
N103	N	1.951469	-1.111073	-0.361745
N104	N	2.451469	-0.611073	0.138255
C105	C	1.901148	-0.926650	-0.411764
C106	C	2.401148	-0.426650	0.088236
N107	N	1.966938	-0.896268	-0.345959
N108	N	2.466938	-0.396268	0.154041
H109	H	1.550852	-0.605630	-0.761364
H110	H	2.050852	-0.105630	-0.261364
