data_functionalizedCrystal
_audit_creation_method	'MofGen! by Chris Wilmer'
_symmetry_space_group_name_H-M	'P1'
_symmetry_Int_Tables_number	1
_symmetry_cell_setting	triclinic
loop_
_symmetry_equiv_pos_as_xyz
  x,y,z
_cell_length_a	10.654541
_cell_length_b	15.944551
_cell_length_c	9.130307
_cell_angle_alpha	89.995755
_cell_angle_beta	89.999822
_cell_angle_gamma	83.991333
loop_
_atom_site_label
_atom_site_type_symbol
_atom_site_fract_x
_atom_site_fract_y
_atom_site_fract_z
O1	O	1.666312	0.117965	-0.121758
O2	O	1.300688	0.129208	-0.121771
O3	O	1.493485	0.001369	-0.121751
O4	O	1.473516	0.245804	-0.121778
O5	O	1.493478	0.001368	0.121848
O6	O	1.300682	0.129206	0.121828
O7	O	1.666306	0.117964	0.121841
Cu8	Cu	1.483493	0.123585	0.144077
Cu9	Cu	1.483501	0.123587	-0.144007
O10	O	1.473509	0.245802	0.121821
C11	C	1.253897	0.128382	0.000027
C12	C	1.114486	0.125914	0.000022
C13	C	1.084537	0.278779	-0.000013
C14	C	1.004069	0.354048	-0.000036
C15	C	0.873081	0.351724	-0.000038
C16	C	0.822560	0.274122	-0.000011
C17	C	0.903028	0.198852	0.000012
C18	C	1.034017	0.201185	0.000009
C19	C	0.932976	0.045989	0.000058
C20	C	1.063965	0.048311	0.000049
C21	C	0.882455	-0.031613	0.000085
C22	C	0.962924	-0.106885	0.000098
C23	C	1.093919	-0.104557	0.000097
C24	C	1.144433	-0.026958	0.000072
C25	C	1.492652	-0.029930	0.000049
C26	C	1.490167	-0.123190	0.000049
C27	C	1.364722	-0.338772	0.000025
C28	C	1.422972	-0.399453	0.120136
C29	C	1.485671	-0.293942	0.000038
C30	C	1.423006	-0.399435	-0.120034
C31	C	1.481319	-0.458880	0.000021
C32	C	1.543954	-0.353395	0.120248
C33	C	1.543971	-0.353371	-0.120029
C34	C	1.602309	-0.414034	0.000111
C35	C	1.488175	-0.198925	0.000049
C36	C	1.478825	-0.553896	0.000020
C37	C	1.713097	0.118790	0.000040
C38	C	1.852508	0.121258	0.000035
C39	C	1.474342	0.277102	0.000018
C40	C	1.476827	0.370362	0.000008
N41	N	1.483497	0.123584	0.346700
N42	N	1.483507	0.123582	-0.346630
C43	C	1.654288	0.010416	0.346708
C44	C	1.739692	-0.046165	0.423378
C45	C	1.739704	-0.046166	0.576712
C46	C	1.654301	0.010420	0.653378
C47	C	1.568898	0.067001	0.576707
C48	C	1.568897	0.066997	0.423370
C49	C	1.398103	0.180163	0.576699
C50	C	1.398094	0.180169	0.423366
C51	C	1.312700	0.236748	0.653366
C52	C	1.227301	0.293335	0.576695
C53	C	1.227292	0.293334	0.423352
C54	C	1.312691	0.236750	0.346695
H55	H	0.807563	0.413015	-0.000046
H56	H	1.654297	0.010418	0.221855
N57	N	1.355221	-0.426431	-0.254535
H58	H	1.399997	-0.408856	-0.345251
H59	H	1.354766	-0.489740	-0.253909
N60	N	1.654316	0.010419	0.818758
H61	H	1.587261	0.054850	0.855691
H62	H	1.636096	-0.046797	0.855583
H63	H	1.809224	-0.092238	0.360943
N64	N	1.135187	0.354353	0.659380
H65	H	1.148148	0.345762	0.768149
H66	H	1.149683	0.414036	0.632581
N67	N	1.831813	-0.107191	0.659417
H68	H	1.885913	-0.143038	0.587590
H69	H	1.887322	-0.074678	0.723022
H70	H	1.191193	0.280679	-0.000044
H71	H	0.715901	0.272236	0.000006
N72	N	1.735398	-0.457198	0.000187
H73	H	1.797240	-0.413324	0.001090
H74	H	1.748671	-0.493982	0.090069
N75	N	1.180712	-0.185740	0.000117
H76	H	1.235726	-0.188176	0.090420
H77	H	1.128741	-0.235202	0.000080
N78	N	1.312704	0.236749	0.818746
H79	H	1.379768	0.192322	0.855686
H80	H	1.330921	0.293968	0.855545
H81	H	0.921778	-0.170062	0.000118
N82	N	1.058557	0.437745	-0.000060
H83	H	1.153748	0.427801	-0.000060
H84	H	1.029122	0.470709	-0.090376
N85	N	0.741177	-0.034122	0.000070
H86	H	0.721385	-0.094701	0.000089
H87	H	0.703829	-0.004627	0.090362
H88	H	1.251088	-0.025055	0.000055
N89	N	1.231743	-0.295422	0.000168
H90	H	1.218522	-0.258610	0.090017
H91	H	1.217961	-0.259461	-0.090639
N92	N	1.355223	-0.426477	0.254652
H93	H	1.265491	-0.398832	0.254566
H94	H	1.354859	-0.489792	0.254076
N95	N	1.611662	-0.326535	0.254903
H96	H	1.612886	-0.263284	0.254102
H97	H	1.566282	-0.343743	0.345434
N98	N	1.135167	0.354355	0.340661
H99	H	1.081071	0.390195	0.412500
H100	H	1.183225	0.391796	0.277032
H101	H	1.312696	0.236747	0.221843
N102	N	1.611690	-0.326312	-0.254530
H103	H	1.565924	-0.342879	-0.345215
H104	H	1.613566	-0.263121	-0.252881
