data_functionalizedCrystal
_audit_creation_method	'MofGen! by Chris Wilmer'
_symmetry_space_group_name_H-M	'P1'
_symmetry_Int_Tables_number	1
_symmetry_cell_setting	triclinic
loop_
_symmetry_equiv_pos_as_xyz
  x,y,z
_cell_length_a	12.837943
_cell_length_b	10.654545
_cell_length_c	11.892295
_cell_angle_alpha	86.069007
_cell_angle_beta	94.302879
_cell_angle_gamma	89.657183
loop_
_atom_site_label
_atom_site_type_symbol
_atom_site_fract_x
_atom_site_fract_y
_atom_site_fract_z
O1	O	1.371232	0.333985	-0.093969
O2	O	1.069310	0.317844	-0.093977
O3	O	1.227212	0.143932	-0.093972
O4	O	1.213330	0.507896	-0.093974
O5	O	1.240347	0.129453	0.094030
O6	O	1.082445	0.303365	0.094026
O7	O	1.384367	0.319505	0.094033
Zn8	Zn	1.235491	0.309136	0.123879
Zn9	Zn	1.218186	0.328213	-0.123822
O10	O	1.226465	0.493417	0.094028
C11	C	1.037217	0.305152	0.000024
C12	C	0.922023	0.288890	0.000021
C13	C	1.232760	0.089784	0.000027
C14	C	1.229709	-0.049992	0.000020
C15	C	0.682472	0.484393	0.000036
C16	C	0.574236	0.469119	0.000034
C17	C	0.597314	0.243068	0.000023
C18	C	0.705550	0.258342	0.000025
C19	C	0.748125	0.379008	0.000030
C20	C	0.856362	0.394282	0.000023
C21	C	0.879438	0.168232	0.000021
C22	C	0.771202	0.152958	0.000019
C23	C	1.215402	-0.034213	-0.204946
C24	C	1.206819	-0.091990	-0.307428
C25	C	1.203953	-0.223321	-0.307430
C26	C	1.209667	-0.296880	-0.204937
C27	C	1.218250	-0.239103	-0.102455
C28	C	1.221119	-0.107768	-0.102465
C29	C	1.232550	-0.254882	0.102509
C30	C	1.235423	-0.123551	0.102512
C31	C	1.238264	-0.328440	0.205001
C32	C	1.246855	-0.270664	0.307486
C33	C	1.249722	-0.139324	0.307483
C34	C	1.244006	-0.065774	0.204995
C35	C	1.416459	0.332198	0.000030
C36	C	1.531653	0.348460	0.000026
C37	C	1.220917	0.547566	0.000027
C38	C	1.223967	0.687342	0.000026
N39	N	1.247309	0.296116	0.292928
N40	N	1.206376	0.341224	-0.292872
C41	C	1.124019	0.431870	0.529624
C42	C	1.132304	0.422760	0.647962
C43	C	1.272169	0.268795	0.647947
C44	C	1.263884	0.277904	0.529608
C45	C	1.189805	0.359443	0.470451
C46	C	1.181516	0.368546	0.352110
C47	C	1.321385	0.214587	0.352096
C48	C	1.329671	0.205477	0.470435
H49	H	0.891024	0.492534	0.000029
H50	H	1.256695	-0.092291	0.390937
H51	H	0.932904	0.082420	0.000008
C52	C	1.112756	0.068361	-0.426362
C53	C	1.200563	-0.011119	-0.420077
H54	H	1.108906	0.118292	-0.495902
H55	H	1.051542	0.019160	-0.422139
H56	H	1.118283	0.121549	-0.365315
H57	H	1.195033	-0.064314	-0.481119
H58	H	1.261793	0.038087	-0.424311
H59	H	1.246345	0.041164	0.204983
H60	H	1.121194	0.434935	0.303945
H61	H	0.717137	0.582644	0.000038
C62	C	1.248799	-0.478993	0.398491
C63	C	1.253136	-0.351519	0.420135
H64	H	1.252684	-0.528910	0.468038
H65	H	1.184997	-0.494907	0.356384
H66	H	1.305788	-0.499614	0.356387
H67	H	1.196142	-0.330895	0.462232
H68	H	1.316945	-0.335597	0.462260
H69	H	1.332489	0.202416	0.696128
C70	C	0.562301	0.694093	0.000033
C71	C	0.502069	0.584961	0.000031
H72	H	0.517745	0.765611	0.000024
H73	H	0.609573	0.690297	0.065591
H74	H	0.600421	0.700391	-0.065530
H75	H	0.463955	0.578658	0.065599
H76	H	0.454779	0.588757	-0.065534
H77	H	1.389987	0.139093	0.518614
C78	C	0.986595	0.583140	0.541521
C79	C	1.042593	0.521493	0.464590
H80	H	0.936331	0.638474	0.501370
H81	H	0.952135	0.522775	0.587680
H82	H	1.033345	0.629996	0.587673
H83	H	0.995844	0.474629	0.418444
H84	H	1.077055	0.581866	0.418411
H85	H	0.562637	0.144820	0.000112
H86	H	1.078735	0.481739	0.696138
C87	C	1.134383	0.153094	-0.149157
C88	C	1.218563	0.110148	-0.204941
H89	H	1.136341	0.242216	-0.149151
H90	H	1.070709	0.128660	-0.187023
H91	H	1.139021	0.117544	-0.073457
H92	H	1.213920	0.145691	-0.280645
H93	H	1.282253	0.134594	-0.167077
C94	C	1.378063	0.007017	0.316033
C95	C	1.393711	0.134788	0.287218
H96	H	1.422709	-0.042300	0.276024
H97	H	1.393508	-0.009906	0.395000
H98	H	1.307360	-0.013398	0.296597
H99	H	1.464413	0.155205	0.306662
H100	H	1.378273	0.151718	0.208233
H101	H	0.736524	0.054713	0.000028
H102	H	1.196954	-0.270362	-0.390880
C103	C	1.298474	-0.492778	-0.149122
C104	C	1.206508	-0.441241	-0.204932
H105	H	1.296517	-0.581902	-0.149111
H106	H	1.356865	-0.462514	-0.186973
H107	H	1.304398	-0.468885	-0.073423
H108	H	1.200587	-0.465127	-0.280634
H109	H	1.148100	-0.471517	-0.167083
C110	C	1.141247	-0.508823	0.149182
C111	C	1.235120	-0.472802	0.204997
H112	H	1.139316	-0.597947	0.149176
H113	H	1.084149	-0.479692	0.187026
H114	H	1.136625	-0.473275	0.073481
H115	H	1.239739	-0.508343	0.280701
H116	H	1.292234	-0.501947	0.167155
