data_functionalizedCrystal
_audit_creation_method	'MofGen! by Chris Wilmer'
_symmetry_space_group_name_H-M	'P1'
_symmetry_Int_Tables_number	1
_symmetry_cell_setting	triclinic
loop_
_symmetry_equiv_pos_as_xyz
  x,y,z
_cell_length_a	15.944493
_cell_length_b	19.188940
_cell_length_c	14.421503
_cell_angle_alpha	90.003842
_cell_angle_beta	89.992936
_cell_angle_gamma	83.311879
loop_
_atom_site_label
_atom_site_type_symbol
_atom_site_fract_x
_atom_site_fract_y
_atom_site_fract_z
O1	O	1.114227	0.089845	-0.077100
O2	O	0.869630	0.100989	-0.077105
O3	O	0.998983	-0.006221	-0.077095
O4	O	0.984874	0.197055	-0.077110
O5	O	0.998961	-0.006205	0.077128
O6	O	0.869608	0.101005	0.077118
O7	O	1.114206	0.089861	0.077123
Cu8	Cu	0.991905	0.095435	0.091203
Cu9	Cu	0.991930	0.095416	-0.091184
O10	O	0.984853	0.197071	0.077114
C11	C	0.838326	0.100542	0.000006
C12	C	0.745082	0.099176	0.000005
C13	C	0.509089	0.162283	-0.000001
C14	C	0.458646	0.128260	0.076046
C15	C	0.574371	0.096646	0.000007
C16	C	0.458672	0.128228	-0.076006
C17	C	0.409470	0.094207	0.000005
C18	C	0.525156	0.062641	0.076116
C19	C	0.525185	0.062619	-0.076005
C20	C	0.474775	0.028548	0.000061
C21	C	0.669365	0.098053	0.000009
C22	C	0.314478	0.092795	0.000009
C23	C	0.998514	-0.032225	0.000016
C24	C	0.997138	-0.109732	0.000016
C25	C	0.987340	-0.663007	0.084061
C26	C	0.988623	-0.590179	0.084066
C27	C	0.989281	-0.553767	-0.000000
C28	C	0.988633	-0.590185	-0.084078
C29	C	0.987341	-0.663011	-0.084080
N30	N	1.039116	-0.444629	-0.062571
N31	N	1.040345	-0.375448	-0.062563
C32	C	0.993171	-0.334348	0.000003
N33	N	0.944732	-0.365043	0.062575
N34	N	0.943507	-0.434231	0.062569
C35	C	0.990681	-0.474800	-0.000006
C36	C	0.995204	-0.218969	0.084081
C37	C	0.996482	-0.146140	0.084083
C38	C	0.996500	-0.146149	-0.084063
C39	C	0.995214	-0.218976	-0.084063
C40	C	0.994570	-0.255382	0.000012
C41	C	1.145510	0.090309	0.000010
C42	C	1.238753	0.091674	0.000005
C43	C	0.985322	0.223075	0.000000
C44	C	0.986697	0.300583	-0.000006
N45	N	0.991893	0.095447	0.219484
N46	N	0.991949	0.095397	-0.219466
C47	C	0.932070	0.144999	0.469133
C48	C	1.007922	0.158541	0.530936
C49	C	0.991914	0.095431	0.408645
C50	C	0.916081	0.081905	0.530936
C51	C	0.991927	0.095416	0.591367
C52	C	1.067804	0.109004	0.469088
C53	C	0.975914	0.032341	0.469082
C54	C	1.051820	0.045856	0.530857
C55	C	0.991905	0.095441	0.303384
C56	C	0.991944	0.095406	0.696626
H57	H	0.554077	0.034945	0.140471
O58	O	0.839642	0.068171	0.563456
C59	C	0.849912	0.006379	0.617177
H60	H	0.917598	-0.003012	0.643814
H61	H	0.835970	-0.040019	0.572695
C62	C	0.705398	0.025777	0.667251
C63	C	0.788529	0.014246	0.699973
H64	H	0.667532	0.030628	0.718321
H65	H	0.698477	0.067407	0.631055
H66	H	0.693792	-0.012890	0.630182
H67	H	0.800137	0.052917	0.737032
H68	H	0.795451	-0.027376	0.736178
H69	H	0.989165	-0.560533	-0.152525
O70	O	0.997221	-0.110702	0.165689
C71	C	1.070707	-0.076503	0.170719
H72	H	1.095148	-0.068236	0.097723
H73	H	1.121140	-0.110108	0.212200
C74	C	1.019817	-0.015074	0.308441
C75	C	1.049832	-0.004914	0.218785
H76	H	1.006943	0.029084	0.338094
H77	H	0.970309	-0.038117	0.305055
H78	H	1.061850	-0.043080	0.342997
H79	H	1.007796	0.023084	0.184228
H80	H	1.099333	0.018134	0.222167
H81	H	1.131953	0.120501	0.442034
H82	H	0.989131	-0.560526	0.152525
H83	H	0.524503	0.218822	0.000067
H84	H	0.962344	-0.020989	0.441892
H85	H	0.986815	-0.692644	0.152521
H86	H	0.429597	0.155986	0.140333
H87	H	0.986817	-0.692656	-0.152540
H88	H	0.459518	-0.028034	0.000109
H89	H	0.994673	-0.248612	0.152540
O90	O	0.559921	0.029470	-0.152601
C91	C	0.617839	-0.028040	-0.125343
H92	H	0.601504	-0.045301	-0.052554
H93	H	0.684463	-0.011980	-0.125625
C94	C	0.633236	-0.068039	-0.282917
C95	C	0.613169	-0.089243	-0.193518
H96	H	0.630359	-0.105791	-0.324973
H97	H	0.594218	-0.029292	-0.301283
H98	H	0.688755	-0.054655	-0.283139
H99	H	0.557647	-0.102617	-0.193296
H100	H	0.652177	-0.127993	-0.175155
H101	H	0.997026	-0.116501	-0.152512
O102	O	0.994646	-0.254247	-0.165809
C103	C	0.995483	-0.206493	-0.240009
H104	H	1.022981	-0.157471	-0.215359
H105	H	0.928253	-0.191421	-0.265866
C106	C	1.016299	-0.301121	-0.349707
C107	C	1.050079	-0.240913	-0.319433
H108	H	1.049972	-0.322352	-0.398702
H109	H	1.015731	-0.333294	-0.299718
H110	H	0.960274	-0.288552	-0.371249
H111	H	1.106098	-0.253483	-0.297882
H112	H	1.050657	-0.208742	-0.369421
H113	H	0.881513	0.186951	0.442032
H114	H	0.429639	0.155955	-0.140288
H115	H	1.021467	0.211888	0.558105
O116	O	1.112372	-0.004089	0.562952
C117	C	1.192173	0.010421	0.531247
H118	H	1.189558	0.068610	0.514001
H119	H	1.210154	-0.021969	0.466464
C120	C	1.261794	-0.080049	0.628604
C121	C	1.258585	-0.008578	0.607430
H122	H	1.302762	-0.091771	0.675594
H123	H	1.208031	-0.089826	0.649962
H124	H	1.276776	-0.107031	0.574612
H125	H	1.243593	0.018403	0.661418
H126	H	1.312347	0.001204	0.586082
