data_functionalizedCrystal
_audit_creation_method	'MofGen! by Chris Wilmer'
_symmetry_space_group_name_H-M	'P1'
_symmetry_Int_Tables_number	1
_symmetry_cell_setting	triclinic
loop_
_symmetry_equiv_pos_as_xyz
  x,y,z
_cell_length_a	18.215407
_cell_length_b	12.759400
_cell_length_c	18.215399
_cell_angle_alpha	90.023429
_cell_angle_beta	90.019833
_cell_angle_gamma	90.013614
loop_
_atom_site_label
_atom_site_type_symbol
_atom_site_fract_x
_atom_site_fract_y
_atom_site_fract_z
Zn1	Zn	1.125132	-0.418264	0.416139
Zn2	Zn	1.125065	-0.593962	0.293082
Zn3	Zn	1.002064	-0.418299	0.293086
Zn4	Zn	1.002056	-0.593903	0.416107
O5	O	1.063579	-0.506107	0.354604
O6	O	1.228107	-0.441581	0.399827
O7	O	1.108725	-0.570699	0.190099
O8	O	1.018421	-0.271273	0.309424
O9	O	1.228059	-0.570665	0.309418
O10	O	1.108838	-0.271248	0.399831
O11	O	1.018357	-0.441640	0.190102
O12	O	0.899079	-0.441583	0.309394
O13	O	1.018406	-0.570566	0.519096
O14	O	0.899072	-0.570599	0.399777
O15	O	1.108830	-0.441525	0.519119
O16	O	1.108716	-0.740975	0.309387
O17	O	1.018341	-0.740932	0.399773
C18	C	0.872373	-0.506089	0.354583
C19	C	0.790574	-0.506107	0.354591
C20	C	0.602396	-0.573391	0.401594
C21	C	0.525537	-0.573394	0.401604
C22	C	0.525515	-0.438842	0.307629
C23	C	0.602372	-0.438835	0.307624
C24	C	0.640811	-0.506115	0.354606
C25	C	0.487095	-0.506126	0.354620
C26	C	0.403761	-0.506129	0.354630
C27	C	0.724150	-0.506111	0.354597
C28	C	1.063541	-0.779075	0.354592
C29	C	1.063592	-0.895851	0.354612
C30	C	1.110648	-0.950620	0.401725
C31	C	1.110682	-1.060344	0.401743
C32	C	1.016601	-1.060520	0.307528
C33	C	1.016564	-0.950798	0.307515
C34	C	1.157676	-0.895673	0.448822
C35	C	1.204737	-0.950442	0.495938
C36	C	1.204771	-1.060166	0.495956
C37	C	1.157744	-1.115121	0.448858
C38	C	1.255532	-0.506126	0.354625
C39	C	1.337331	-0.506134	0.354635
C40	C	1.063624	-0.506035	0.546557
C41	C	1.063643	-0.506004	0.628356
C42	C	1.063638	-0.232074	0.354632
C43	C	1.063663	-0.115297	0.354643
C44	C	1.063577	-0.506103	0.163398
C45	C	1.063700	-0.505838	0.081599
C46	C	1.110744	-0.438749	0.816563
C47	C	1.110753	-0.438719	0.893422
C48	C	1.016595	-0.573096	0.893386
C49	C	1.016583	-0.573120	0.816529
C50	C	1.063662	-0.505949	0.778119
C51	C	1.063682	-0.505894	0.931835
C52	C	1.063691	-0.505861	1.015169
C53	C	1.063652	-0.505980	0.694780
H54	H	1.157655	-0.806330	0.448811
H55	H	0.978245	-0.906205	0.269151
H56	H	0.633650	-0.384044	0.269360
C57	C	1.256461	-0.889997	0.547743
H58	H	1.249707	-0.816806	0.540981
H59	H	1.245671	-0.907944	0.597183
H60	H	1.305921	-0.907942	0.537014
C61	C	1.256534	-1.120410	0.547781
H62	H	1.284538	-1.071968	0.575823
H63	H	1.228383	-1.163215	0.579830
H64	H	1.288630	-1.163202	0.519657
C65	C	0.483284	-0.647396	0.453293
H66	H	0.517187	-0.687464	0.481268
H67	H	0.453323	-0.607264	0.485408
H68	H	0.453283	-0.693129	0.425089
C69	C	1.157750	-1.235815	0.448910
H70	H	1.192504	-1.260566	0.483723
H71	H	1.110251	-1.260628	0.461604
H72	H	1.170508	-1.260710	0.401441
C73	C	0.964883	-1.120968	0.255720
H74	H	0.971650	-1.194159	0.262471
H75	H	0.915423	-1.103032	0.266440
H76	H	0.975682	-1.103016	0.206278
C77	C	0.483230	-0.364852	0.255946
H78	H	0.431954	-0.374499	0.262672
H79	H	0.495835	-0.294277	0.266793
H80	H	0.495806	-0.380151	0.206479
H81	H	1.149076	-0.384051	0.785292
C82	C	0.644676	-0.647386	0.453278
H83	H	0.610787	-0.687445	0.481269
H84	H	0.674643	-0.693112	0.425076
H85	H	0.674674	-0.607241	0.485391
H86	H	1.149091	-0.383996	0.924719
H87	H	0.978238	-0.627841	0.785227
H88	H	0.978267	-0.627787	0.924669
