data_functionalizedCrystal
_audit_creation_method	'MofGen! by Chris Wilmer'
_symmetry_space_group_name_H-M	'P1'
_symmetry_Int_Tables_number	1
_symmetry_cell_setting	triclinic
loop_
_symmetry_equiv_pos_as_xyz
  x,y,z
_cell_length_a	14.044220
_cell_length_b	14.971486
_cell_length_c	13.101018
_cell_angle_alpha	86.637324
_cell_angle_beta	93.664297
_cell_angle_gamma	88.401503
loop_
_atom_site_label
_atom_site_type_symbol
_atom_site_fract_x
_atom_site_fract_y
_atom_site_fract_z
O1	O	1.263160	0.211151	0.085107
O2	O	1.763160	0.711151	0.585107
O3	O	0.987183	0.203367	0.085132
O4	O	1.487183	0.703367	0.585132
O5	O	1.132568	0.077642	0.085112
O6	O	1.632568	0.577642	0.585112
O7	O	1.117775	0.336876	0.085127
O8	O	1.617775	0.836876	0.585127
O9	O	1.122125	0.086670	-0.085317
O10	O	1.622125	0.586670	0.414683
O11	O	0.976740	0.212395	-0.085296
O12	O	1.476740	0.712395	0.414704
O13	O	1.252717	0.220179	-0.085322
O14	O	1.752717	0.720179	0.414678
Zn15	Zn	1.113070	0.217720	-0.112369
Zn16	Zn	1.613070	0.717720	0.387631
Zn17	Zn	1.126830	0.205825	0.112179
Zn18	Zn	1.626830	0.705825	0.612179
O19	O	1.107332	0.345904	-0.085301
O20	O	1.607332	0.845904	0.414699
C21	C	1.126685	0.048779	-0.000103
C22	C	1.626685	0.548779	0.499897
C23	C	1.124702	-0.050674	-0.000101
C24	C	1.624702	0.449326	0.499899
C25	C	0.946644	0.204474	-0.000079
C26	C	1.446644	0.704474	0.499921
C27	C	0.841407	0.194313	-0.000069
C28	C	1.341407	0.694313	0.499931
C29	C	1.210112	-0.101171	-0.000110
C30	C	1.710112	0.398829	0.499890
C31	C	1.208244	-0.194618	-0.000100
C32	C	1.708244	0.305382	0.499900
C33	C	1.120965	-0.237567	-0.000088
C34	C	1.620965	0.262433	0.499912
C35	C	1.035549	-0.187063	-0.000076
C36	C	1.535549	0.312937	0.499924
C37	C	1.037418	-0.093618	-0.000079
C38	C	1.537418	0.406382	0.499921
C39	C	1.031658	-0.381833	-0.000072
C40	C	1.531658	0.118167	0.499928
C41	C	1.029788	-0.475284	-0.000071
C42	C	1.529788	0.024716	0.499929
C43	C	1.202484	-0.482832	-0.000092
C44	C	1.702484	0.017168	0.499908
C45	C	1.204354	-0.389387	-0.000096
C46	C	1.704354	0.110613	0.499904
C47	C	1.118937	-0.338890	-0.000086
C48	C	1.618937	0.161110	0.499914
C49	C	0.648723	0.175737	-0.000090
C50	C	1.148723	0.675737	0.499910
C51	C	0.591172	0.247804	-0.000090
C52	C	1.091172	0.747804	0.499910
C53	C	0.483956	0.237468	-0.000102
C54	C	0.983956	0.737468	0.499898
C55	C	0.755949	0.186072	-0.000079
C56	C	1.255949	0.686072	0.499921
C57	C	1.293256	0.219071	-0.000109
C58	C	1.793256	0.719071	0.499891
C59	C	1.398494	0.229233	-0.000112
C60	C	1.898494	0.729233	0.499888
C61	C	1.113215	0.374767	-0.000085
C62	C	1.613215	0.874767	0.499915
C63	C	1.115198	0.474220	-0.000079
C64	C	1.615198	0.974220	0.499921
N65	N	1.103687	0.225839	-0.265616
N66	N	1.603687	0.725839	0.234384
C67	C	1.148982	0.186652	-0.525532
C68	C	1.648982	0.686652	-0.025532
C69	C	1.090928	0.236885	-0.474651
C70	C	1.590928	0.736885	0.025349
C71	C	1.098029	0.230737	-0.358333
C72	C	1.598029	0.730737	0.141667
C73	C	1.141883	0.192798	-0.641861
C74	C	1.641883	0.692798	-0.141861
N75	N	1.136221	0.197701	0.265426
N76	N	1.636221	0.697701	0.765426
H77	H	1.281184	-0.066209	-0.000126
H78	H	1.781184	0.433791	0.499874
H79	H	0.622422	0.317265	-0.000081
H80	H	1.122422	0.817265	0.499919
N81	N	0.609513	0.088610	-0.000103
N82	N	1.109513	0.588610	0.499897
N83	N	0.521207	0.080233	-0.000112
N84	N	1.021207	0.580233	0.499888
H85	H	0.493503	0.018700	-0.000118
H86	H	0.993503	0.518700	0.499882
N87	N	1.021907	0.296649	-0.529587
N88	N	1.521907	0.796649	-0.029587
N89	N	1.024082	0.378816	-0.517700
N90	N	1.524082	0.878816	-0.017700
H91	H	0.975341	0.421027	-0.556503
H92	H	1.475341	0.921027	-0.056503
H93	H	0.962103	-0.340721	-0.000061
H94	H	1.462103	0.159279	0.499939
H95	H	1.204014	0.139033	-0.481740
H96	H	1.704014	0.639033	0.018260
H97	H	0.964485	-0.222040	-0.000060
H98	H	1.464485	0.277960	0.499940
H99	H	1.277793	-0.235728	-0.000109
H100	H	1.777793	0.264272	0.499891
H101	H	1.272034	-0.523951	-0.000097
H102	H	1.772034	-0.023951	0.499903
N103	N	1.293505	-0.345514	-0.000131
N104	N	1.793505	0.154486	0.499869
N105	N	1.346705	-0.354674	-0.071981
N106	N	1.846705	0.145326	0.428019
H107	H	1.409670	-0.323689	-0.072006
H108	H	1.909670	0.176311	0.427994
N109	N	0.940628	-0.519142	-0.000076
N110	N	1.440628	-0.019142	0.499924
N111	N	0.864371	-0.474048	-0.000070
N112	N	1.364371	0.025952	0.499930
H113	H	0.801398	-0.505022	-0.000080
H114	H	1.301398	-0.005022	0.499920
H115	H	0.967869	-0.052505	-0.000072
H116	H	1.467869	0.447495	0.499928
