data_functionalizedCrystal
_audit_creation_method	'MofGen! by Chris Wilmer'
_symmetry_space_group_name_H-M	'P1'
_symmetry_Int_Tables_number	1
_symmetry_cell_setting	triclinic
loop_
_symmetry_equiv_pos_as_xyz
  x,y,z
_cell_length_a	6.817900
_cell_length_b	16.417825
_cell_length_c	17.110486
_cell_angle_alpha	96.329403
_cell_angle_beta	99.060439
_cell_angle_gamma	103.385495
loop_
_atom_site_label
_atom_site_type_symbol
_atom_site_fract_x
_atom_site_fract_y
_atom_site_fract_z
V1	V	-3.976376	-0.115636	-0.246997
O2	O	-3.965400	0.005813	-0.242010
O3	O	-3.927708	-0.229533	-0.245582
O4	O	-3.906242	-0.113744	-0.354595
O5	O	-3.987013	-0.110777	-0.132242
V6	V	-4.462855	-0.101122	-0.233238
O7	O	-4.231150	-0.147472	-0.277178
O8	O	-4.658278	-0.069286	-0.203056
O9	O	-4.288317	0.012775	-0.234653
O10	O	-4.591228	-0.222571	-0.238225
O11	O	-4.569614	-0.105981	-0.347993
O12	O	-4.309782	-0.103014	-0.125639
C13	C	-3.773346	-0.257302	-0.241756
C14	C	-3.814696	-0.350414	-0.241317
C15	C	-3.745965	-0.109601	-0.380813
C16	C	-3.769904	-0.108808	-0.468777
C17	C	-3.884325	-0.552752	-0.167828
C18	C	-3.923199	-0.640242	-0.167421
C19	C	-3.974284	-0.664006	-0.312415
C20	C	-3.935425	-0.576518	-0.312822
C21	C	-3.890436	-0.520893	-0.240525
C22	C	-3.968168	-0.695870	-0.239712
C23	C	-4.010317	-0.790731	-0.239272
C24	C	-3.848288	-0.426026	-0.240966
C25	C	-3.962428	-0.112616	-0.514144
C26	C	-3.984910	-0.111871	-0.596796
C27	C	-3.814869	-0.107324	-0.634079
C28	C	-3.622328	-0.103513	-0.588706
C29	C	-3.599845	-0.104252	-0.506055
C30	C	-3.873679	-0.104877	-0.883428
C31	C	-3.896178	-0.104140	-0.966086
C32	C	-4.258759	-0.112496	-0.974169
C33	C	-4.236261	-0.113241	-0.891517
C34	C	-4.043722	-0.109425	-0.846150
C35	C	-3.837846	-0.106564	-0.718563
C36	C	-4.020744	-0.110179	-0.761668
C37	C	-4.106021	0.040540	-0.238476
C38	C	-4.043908	0.133651	-0.238921
C39	C	-4.133403	-0.107159	-0.099418
C40	C	-4.088702	-0.107948	-0.011453
H41	H	-3.847692	-0.507464	-0.108960
Br42	Br	-3.943740	-0.533276	-0.411490
Br43	Br	-4.035336	-0.739501	-0.410527
Br44	Br	-3.914922	-0.683477	-0.068757
Br45	Br	-4.193220	-0.118797	-0.463554
Br46	Br	-4.246208	-0.117049	-0.658364
Br47	Br	-3.665392	-0.097972	-1.016685
Br48	Br	-4.467047	-0.119419	-0.840925
Br49	Br	-4.520050	-0.117672	-1.035742
Br50	Br	-3.391552	-0.097340	-0.639304
H51	H	-3.716919	-0.101800	-0.846505
Br52	Br	-3.338547	-0.099073	-0.444482
H53	H	-4.159189	-0.113878	-0.731307
Br54	Br	-3.607089	-0.100405	-0.769171
