data_functionalizedCrystal
_audit_creation_method	'MofGen! by Chris Wilmer'
_symmetry_space_group_name_H-M	'P1'
_symmetry_Int_Tables_number	1
_symmetry_cell_setting	triclinic
loop_
_symmetry_equiv_pos_as_xyz
  x,y,z
_cell_length_a	13.635800
_cell_length_b	7.190339
_cell_length_c	7.076105
_cell_angle_alpha	96.843180
_cell_angle_beta	117.701832
_cell_angle_gamma	60.611724
loop_
_atom_site_label
_atom_site_type_symbol
_atom_site_fract_x
_atom_site_fract_y
_atom_site_fract_z
V1	V	-2.142715	0.291769	-0.663521
V2	V	-1.642715	0.791769	-0.163521
O3	O	-2.089376	-0.017451	-0.652442
O4	O	-1.589376	0.482549	-0.152442
O5	O	-2.160516	0.581828	-0.657491
O6	O	-1.660516	1.081828	-0.157491
O7	O	-2.155337	0.285776	-0.953586
O8	O	-1.655337	0.785776	-0.453586
O9	O	-2.094591	0.280650	-0.354297
O10	O	-1.594591	0.780650	0.145703
V11	V	-2.374315	0.254960	-0.626717
V12	V	-1.874315	0.754960	-0.126717
O13	O	-2.295634	0.372511	-0.744255
O14	O	-1.795634	0.872511	-0.244255
O15	O	-2.446495	0.174218	-0.545983
O16	O	-1.946495	0.674218	-0.045983
O17	O	-2.244911	-0.035098	-0.632747
O18	O	-1.744911	0.464902	-0.132747
O19	O	-2.486353	0.564180	-0.637796
O20	O	-1.986353	1.064180	-0.137796
O21	O	-2.481138	0.266079	-0.935941
O22	O	-1.981138	0.766079	-0.435941
O23	O	-2.250090	0.260954	-0.336651
O24	O	-1.750090	0.760954	0.163349
V25	V	-1.874308	0.254960	-0.626717
V26	V	-1.374308	0.754960	-0.126717
O27	O	-1.922433	0.266079	-0.935941
O28	O	-1.422433	0.766079	-0.435941
O29	O	-1.861686	0.260954	-0.336651
O30	O	-1.361686	0.760954	0.163349
O31	O	-1.856507	-0.035098	-0.632747
O32	O	-1.356507	0.464902	-0.132747
O33	O	-1.927647	0.564180	-0.637796
O34	O	-1.427647	1.064180	-0.137796
V35	V	-1.642708	0.291769	-0.663521
V36	V	-1.142708	0.791769	-0.163521
O37	O	-1.721389	0.174218	-0.545983
O38	O	-1.221389	0.674218	-0.045983
O39	O	-1.570528	0.372511	-0.744255
O40	O	-1.070528	0.872511	-0.244255
O41	O	-1.766933	0.285776	-0.953586
O42	O	-1.266933	0.785776	-0.453586
O43	O	-1.535885	0.280650	-0.354297
O44	O	-1.035885	0.780650	0.145703
O45	O	-1.530670	-0.017451	-0.652442
O46	O	-1.030670	0.482549	-0.152442
O47	O	-1.772112	0.581828	-0.657491
O48	O	-1.272112	1.081828	-0.157491
C49	C	-2.092052	0.652587	-0.646649
C50	C	-1.592052	1.152587	-0.146649
C51	C	-2.148539	0.894162	-0.643600
C52	C	-1.648539	1.394162	-0.143600
C53	C	-2.088911	0.274928	-0.024334
C54	C	-1.588911	0.774928	0.475666
C55	C	-2.151677	0.271834	-0.265902
C56	C	-1.651677	0.771834	0.234098
C57	C	-1.931578	0.271791	-0.265890
C58	C	-1.431578	0.771791	0.234110
C59	C	-1.879373	0.274821	-0.024312
C60	C	-1.379373	0.774821	0.475688
C61	C	-1.924977	-0.105844	-0.643602
C62	C	-1.424977	0.394156	-0.143602
C63	C	-1.868497	-0.347414	-0.646677
C64	C	-1.368497	0.152586	-0.146677
