data_functionalizedCrystal
_audit_creation_method	'MofGen! by Chris Wilmer'
_symmetry_space_group_name_H-M	'P1'
_symmetry_Int_Tables_number	1
_symmetry_cell_setting	triclinic
loop_
_symmetry_equiv_pos_as_xyz
  x,y,z
_cell_length_a	27.732048
_cell_length_b	27.732048
_cell_length_c	12.996460
_cell_angle_alpha	89.988908
_cell_angle_beta	89.999906
_cell_angle_gamma	82.642655
loop_
_atom_site_label
_atom_site_type_symbol
_atom_site_fract_x
_atom_site_fract_y
_atom_site_fract_z
O1	O	0.640928	0.057518	-0.085445
O2	O	1.140928	0.557518	0.414555
O3	O	0.500134	0.066263	-0.085478
O4	O	1.000134	0.566263	0.414522
O5	O	0.574904	-0.008506	-0.085441
O6	O	1.074904	0.491494	0.414559
O7	O	0.566158	0.132287	-0.085482
O8	O	1.066158	0.632287	0.414518
O9	O	0.574896	-0.008510	0.085693
O10	O	1.074896	0.491490	0.585693
O11	O	0.500127	0.066259	0.085656
O12	O	1.000127	0.566259	0.585656
O13	O	0.640920	0.057514	0.085689
O14	O	1.140920	0.557514	0.585689
Cu15	Cu	0.570523	0.061886	0.101298
Cu16	Cu	1.070523	0.561886	0.601298
Cu17	Cu	0.570532	0.061891	-0.101087
Cu18	Cu	1.070532	0.561891	0.398913
O19	O	0.566151	0.132283	0.085652
O20	O	1.066151	0.632283	0.585652
C21	C	0.482124	0.066078	0.000085
C22	C	0.982124	0.566078	0.500085
C23	C	0.428469	0.065525	0.000073
C24	C	0.928469	0.565525	0.500073
C25	C	0.089654	0.106229	0.000106
C26	C	0.589654	0.606229	0.500106
C27	C	-0.112006	0.104178	0.000116
C28	C	0.387994	0.604178	0.500116
O29	O	-0.143262	0.141398	0.000150
O30	O	0.356738	0.641398	0.500150
N31	N	-0.131130	0.059843	0.000127
N32	N	0.368870	0.559843	0.500127
C33	C	-0.099835	0.016017	0.000143
C34	C	0.400165	0.516017	0.500143
O35	O	-0.120728	-0.021740	0.000163
O36	O	0.379272	0.478260	0.500163
C37	C	0.101824	0.018068	0.000140
C38	C	0.601824	0.518068	0.500140
C39	C	0.120944	0.062407	0.000119
C40	C	0.620944	0.562407	0.500119
C41	C	0.108775	0.150563	0.000086
C42	C	0.608775	0.650563	0.500086
C43	C	0.159187	0.151075	0.000078
C44	C	0.659187	0.651075	0.500078
C45	C	0.190477	0.107253	0.000090
C46	C	0.690477	0.607253	0.500090
C47	C	0.171356	0.062919	0.000110
C48	C	0.671356	0.562919	0.500110
C49	C	0.133117	-0.025757	0.000163
C50	C	0.633117	0.474243	0.500163
C51	C	0.183535	-0.025240	0.000165
C52	C	0.683535	0.474760	0.500165
C53	C	0.202655	0.019098	0.000143
C54	C	0.702655	0.519098	0.500143
C55	C	0.253059	0.019609	0.000115
C56	C	0.753059	0.519609	0.500115
N57	N	0.272183	0.063944	0.000104
N58	N	0.772183	0.563944	0.500104
C59	C	0.240892	0.107766	0.000091
C60	C	0.740892	0.607766	0.500091
C61	C	-0.205709	0.014943	0.000142
C62	C	0.294291	0.514943	0.500142
C63	C	-0.256124	0.014430	0.000141
C64	C	0.243876	0.514430	0.500141
C65	C	-0.268291	0.102591	0.000116
C66	C	0.231709	0.602591	0.500116
C67	C	-0.217876	0.103104	0.000110
C68	C	0.282124	0.603104	0.500110
C69	C	-0.186585	0.059278	0.000131
C70	C	0.313415	0.559278	0.500131
C71	C	0.346761	0.108839	0.000073
C72	C	0.846761	0.608839	0.500073
C73	C	0.397178	0.109347	0.000061
C74	C	0.897178	0.609347	0.500061
C75	C	0.409341	0.021186	0.000091
C76	C	0.909341	0.521186	0.500091
C77	C	0.358929	0.020678	0.000098
C78	C	0.858929	0.520678	0.500098
C79	C	0.327639	0.064508	0.000093
C80	C	0.827639	0.564508	0.500093
O81	O	0.284343	-0.017592	0.000093
O82	O	0.784343	0.482408	0.500093
O83	O	0.261794	0.145518	0.000094
O84	O	0.761794	0.645518	0.500094
C85	C	0.039242	0.105716	0.000114
C86	C	0.539242	0.605716	0.500114
C87	C	0.020120	0.061382	0.000135
C88	C	0.520120	0.561382	0.500135
C89	C	0.051411	0.017560	0.000147
C90	C	0.551411	0.517560	0.500147
C91	C	-0.030294	0.060869	0.000133
C92	C	0.469706	0.560869	0.500133
C93	C	-0.061585	0.104691	0.000121
C94	C	0.438415	0.604691	0.500121
C95	C	-0.042461	0.149026	0.000110
C96	C	0.457539	0.649026	0.500110
C97	C	0.007951	0.149539	0.000102
C98	C	0.507951	0.649539	0.500102
C99	C	0.032287	-0.026775	0.000158
C100	C	0.532287	0.473225	0.500158
C101	C	-0.018125	-0.027284	0.000165
C102	C	0.481875	0.472716	0.500165
C103	C	-0.049416	0.016538	0.000153
C104	C	0.450584	0.516538	0.500153
C105	C	0.574716	-0.026515	0.000129
C106	C	1.074716	0.473485	0.500129
C107	C	0.574164	-0.080170	0.000137
C108	C	1.074164	0.419830	0.500137
C109	C	0.614867	-0.418985	0.000094
C110	C	1.114867	0.081015	0.500094
C111	C	0.612816	-0.620645	0.000079
C112	C	1.112816	-0.120645	0.500079
O113	O	0.650037	-0.651900	0.000042
O114	O	1.150037	-0.151900	0.500042
N115	N	0.568481	-0.639768	0.000070
N116	N	1.068481	-0.139768	0.500070
C117	C	0.524656	-0.608474	0.000057
C118	C	1.024656	-0.108474	0.500057
O119	O	0.486899	-0.629367	0.000038
O120	O	0.986899	-0.129367	0.500038
C121	C	0.526707	-0.406815	0.000065
C122	C	1.026707	0.093185	0.500065
C123	C	0.571045	-0.387694	0.000084
C124	C	1.071045	0.112306	0.500084
C125	C	0.659202	-0.399864	0.000112
C126	C	1.159202	0.100136	0.500112
C127	C	0.659714	-0.349452	0.000122
C128	C	1.159714	0.150548	0.500122
C129	C	0.615892	-0.318161	0.000112
C130	C	1.115892	0.181839	0.500112
C131	C	0.571557	-0.337282	0.000094
C132	C	1.071557	0.162718	0.500094
C133	C	0.482882	-0.375521	0.000045
C134	C	0.982882	0.124479	0.500045
C135	C	0.483399	-0.325104	0.000044
C136	C	0.983399	0.174896	0.500044
C137	C	0.527737	-0.305983	0.000064
C138	C	1.027737	0.194017	0.500064
C139	C	0.528247	-0.255580	0.000094
C140	C	1.028247	0.244420	0.500094
N141	N	0.572583	-0.236456	0.000103
N142	N	1.072583	0.263544	0.500103
C143	C	0.616405	-0.267747	0.000112
C144	C	1.116405	0.232253	0.500112
C145	C	0.523582	-0.714348	0.000055
C146	C	1.023582	-0.214348	0.500055
C147	C	0.523069	-0.764762	0.000055
C148	C	1.023069	-0.264762	0.500055
C149	C	0.611230	-0.776930	0.000075
C150	C	1.111230	-0.276930	0.500075
C151	C	0.611742	-0.726514	0.000082
C152	C	1.111742	-0.226514	0.500082
C153	C	0.567917	-0.695224	0.000065
C154	C	1.067917	-0.195224	0.500065
C155	C	0.617477	-0.161878	0.000133
C156	C	1.117477	0.338122	0.500133
C157	C	0.617986	-0.111461	0.000146
C158	C	1.117986	0.388539	0.500146
C159	C	0.529825	-0.099298	0.000121
C160	C	1.029825	0.400702	0.500121
C161	C	0.529316	-0.149710	0.000113
C162	C	1.029316	0.350290	0.500113
C163	C	0.573147	-0.180999	0.000115
C164	C	1.073147	0.319001	0.500115
O165	O	0.491047	-0.224296	0.000119
O166	O	0.991047	0.275704	0.500119
O167	O	0.654156	-0.246844	0.000108
O168	O	1.154156	0.253156	0.500108
C169	C	0.614355	-0.469397	0.000084
C170	C	1.114355	0.030603	0.500084
C171	C	0.570021	-0.488518	0.000066
C172	C	1.070021	0.011482	0.500066
C173	C	0.526198	-0.457228	0.000056
C174	C	1.026198	0.042772	0.500056
C175	C	0.569508	-0.538933	0.000066
C176	C	1.069508	-0.038933	0.500066
C177	C	0.613330	-0.570223	0.000075
C178	C	1.113330	-0.070223	0.500075
C179	C	0.657665	-0.551100	0.000084
C180	C	1.157665	-0.051100	0.500084
C181	C	0.658177	-0.500688	0.000094
C182	C	1.158177	-0.000688	0.500094
C183	C	0.481863	-0.476351	0.000047
C184	C	0.981863	0.023649	0.500047
C185	C	0.481355	-0.526764	0.000039
C186	C	0.981355	-0.026764	0.500039
C187	C	0.525177	-0.558054	0.000048
C188	C	1.025177	-0.058054	0.500048
C189	C	0.658931	0.057699	0.000123
C190	C	1.158931	0.557699	0.500123
C191	C	0.712586	0.058252	0.000128
C192	C	1.212586	0.558252	0.500128
C193	C	0.566338	0.150292	0.000080
C194	C	1.066338	0.650292	0.500080
C195	C	0.566891	0.203947	0.000065
C196	C	1.066891	0.703947	0.500065
N197	N	0.570520	0.061883	0.243645
N198	N	1.070520	0.561883	0.743645
N199	N	0.570538	0.061891	-0.243435
N200	N	1.070538	0.561891	0.256565
C201	C	0.570531	0.061891	0.663460
C202	C	1.070531	0.561891	1.163460
C203	C	0.570526	0.061891	0.546654
C204	C	1.070526	0.561891	1.046654
C205	C	0.570526	0.061887	0.453556
C206	C	1.070526	0.561887	0.953556
C207	C	0.570521	0.061886	0.336744
C208	C	1.070521	0.561886	0.836744
H209	H	0.434827	-0.014492	0.000097
H210	H	0.934827	0.485508	0.500097
Br211	Br	-0.163250	-0.044540	0.000170
Br212	Br	0.336750	0.455460	0.500170
H213	H	0.694282	-0.485125	0.000109
H214	H	1.194282	0.014875	0.500109
Br215	Br	0.462893	-0.790705	0.000053
Br216	Br	0.962893	-0.290705	0.500053
Br217	Br	0.678163	-0.085515	0.000174
Br218	Br	1.178163	0.414485	0.500174
Br219	Br	0.423124	0.169524	0.000025
Br220	Br	0.923124	0.669524	0.500025
Br221	Br	0.066317	0.210045	0.000069
Br222	Br	0.566317	0.710045	0.500069
H223	H	0.653168	-0.187348	0.000131
H224	H	1.153168	0.312652	0.500131
Br225	Br	-0.044068	-0.087463	0.000177
Br226	Br	0.455932	0.412537	0.500177
H227	H	0.695819	-0.333889	0.000134
H228	H	1.195819	0.166111	0.500134
Br229	Br	0.421176	-0.552706	0.000020
Br230	Br	0.921176	-0.052706	0.500020
H231	H	0.446177	-0.450879	0.000037
H232	H	0.946177	0.049121	0.500037
H233	H	0.493213	-0.165279	0.000126
H234	H	0.993213	0.334721	0.500126
Br235	Br	0.074746	-0.086255	0.000178
Br236	Br	0.574746	0.413745	0.500178
Br237	Br	-0.191932	0.163278	0.000081
Br238	Br	0.308068	0.663278	0.500081
H239	H	0.694889	-0.425336	0.000116
H240	H	1.194889	0.074664	0.500116
H241	H	0.023514	0.185643	0.000086
H242	H	0.523514	0.685643	0.500086
Br243	Br	0.671917	-0.700570	0.000111
Br244	Br	1.171917	-0.200570	0.500111
H245	H	0.646911	-0.802415	0.000083
H246	H	1.146911	-0.302415	0.500083
H247	H	0.693347	-0.576585	0.000096
H248	H	1.193347	-0.076585	0.500096
H249	H	0.321291	0.144530	0.000072
H250	H	0.821291	0.644530	0.500072
H251	H	0.174750	0.187180	0.000060
H252	H	0.674750	0.687180	0.500060
Br253	Br	0.423918	-0.282641	0.000015
Br254	Br	0.923918	0.217359	0.500015
H255	H	-0.271687	-0.021674	0.000142
H256	H	0.228313	0.478326	0.500142
Br257	Br	-0.310766	0.162064	0.000100
Br258	Br	0.189234	0.662064	0.500100
Br259	Br	0.225997	-0.084721	0.000199
Br260	Br	0.725997	0.415279	0.500199
Br261	Br	0.470355	-0.056822	0.000109
Br262	Br	0.970355	0.443178	0.500109
H263	H	0.446777	-0.391080	0.000023
H264	H	0.946777	0.108920	0.500023
H265	H	0.343360	-0.015426	0.000101
H266	H	0.843360	0.484574	0.500101
H267	H	0.117558	-0.061861	0.000181
H268	H	0.617558	0.438139	0.500181
H269	H	-0.067947	0.184708	0.000096
H270	H	0.432053	0.684708	0.500096
H271	H	0.487892	-0.688875	0.000041
H272	H	0.987892	-0.188875	0.500041
