data_functionalizedCrystal
_audit_creation_method	'MofGen! by Chris Wilmer'
_symmetry_space_group_name_H-M	'P1'
_symmetry_Int_Tables_number	1
_symmetry_cell_setting	triclinic
loop_
_symmetry_equiv_pos_as_xyz
  x,y,z
_cell_length_a	12.759401
_cell_length_b	17.640280
_cell_length_c	17.639145
_cell_angle_alpha	109.635155
_cell_angle_beta	78.793399
_cell_angle_gamma	78.801088
loop_
_atom_site_label
_atom_site_type_symbol
_atom_site_fract_x
_atom_site_fract_y
_atom_site_fract_z
Zn1	Zn	1.561627	-0.233977	0.399629
Zn2	Zn	1.650594	-0.399597	0.234001
Zn3	Zn	1.430482	-0.261823	0.261844
Zn4	Zn	1.430436	-0.371734	0.371775
O5	O	1.518285	-0.316783	0.316813
O6	O	1.720451	-0.255954	0.377663
O7	O	1.658648	-0.404635	0.122372
O8	O	1.410665	-0.142818	0.303431
O9	O	1.785814	-0.377634	0.255977
O10	O	1.507017	-0.122360	0.404661
O11	O	1.496933	-0.303413	0.142828
O12	O	1.283454	-0.276396	0.276422
O13	O	1.410586	-0.330146	0.490793
O14	O	1.283420	-0.357147	0.357188
O15	O	1.506972	-0.228937	0.511257
O16	O	1.658604	-0.511212	0.228968
O17	O	1.496854	-0.490741	0.330190
C18	C	1.245316	-0.316770	0.316804
C19	C	1.128539	-0.316780	0.316816
C20	C	1.073742	-0.358929	0.358767
C21	C	0.964019	-0.358938	0.358774
C22	C	0.963900	-0.274648	0.274873
C23	C	1.073619	-0.274634	0.274872
C24	C	1.128663	-0.401075	0.400712
C25	C	1.073866	-0.443229	0.442665
C26	C	0.964143	-0.443237	0.442672
C27	C	0.909216	-0.401093	0.400726
C28	C	1.587401	-0.530871	0.273553
C29	C	1.617056	-0.622454	0.255074
C30	C	1.293331	-0.870566	0.457496
C31	C	1.321207	-0.956627	0.440106
C32	C	1.489686	-0.977856	0.334810
C33	C	1.461826	-0.891795	0.352194
C34	C	1.363647	-0.838156	0.413538
C35	C	1.532142	-0.859385	0.308236
C36	C	1.504282	-0.773332	0.325616
C37	C	1.406105	-0.719688	0.386954
C38	C	1.335786	-0.752103	0.430918
C39	C	1.630317	-0.913026	0.246888
C40	C	1.700633	-0.880616	0.202930
C41	C	1.672777	-0.794560	0.220314
C42	C	1.574601	-0.740917	0.281652
C43	C	1.743096	-0.762146	0.176350
C44	C	1.715235	-0.676092	0.193730
C45	C	1.546740	-0.654864	0.299032
C46	C	1.792319	-0.316796	0.316821
C47	C	1.909097	-0.316802	0.316825
C48	C	1.448850	-0.273327	0.531763
C49	C	1.419261	-0.254809	0.623362
C50	C	1.448922	-0.101855	0.360259
C51	C	1.419363	-0.010265	0.378774
C52	C	1.742946	-0.457412	0.871343
C53	C	1.715127	-0.440002	0.957416
C54	C	1.546743	-0.334606	0.978715
C55	C	1.574546	-0.352010	0.892641
C56	C	1.672650	-0.413413	0.838962
C57	C	1.504249	-0.308012	0.860260
C58	C	1.532053	-0.325411	0.774194
C59	C	1.630154	-0.386810	0.720510
C60	C	1.700454	-0.430813	0.752896
C61	C	1.406150	-0.246605	0.913942
C62	C	1.335854	-0.202606	0.881561
C63	C	1.363653	-0.220010	0.795493
C64	C	1.461754	-0.281408	0.741808
C65	C	1.293354	-0.176007	0.763107
C66	C	1.321158	-0.193406	0.677041
C67	C	1.489558	-0.298808	0.655743
C68	C	1.587450	-0.360089	1.102694
C69	C	1.617046	-0.378610	1.011095
H70	H	0.919527	-0.477553	0.476839
H71	H	1.255844	-0.708426	0.480876
H72	H	1.118231	-0.240306	0.240719
O73	O	1.796020	-0.932611	0.143294
C74	C	1.960244	-0.944575	0.040726
C75	C	1.852237	-0.885603	0.108227
H76	H	2.005738	-0.906590	0.012368
H77	H	1.939107	-0.993607	-0.010597
H78	H	2.015888	-0.977186	0.070483
H79	H	1.796542	-0.852934	0.078545
H80	H	1.873455	-0.836622	0.159542
H81	H	1.255980	-0.152610	0.925278
O82	O	1.657442	-0.996592	0.230138
C83	C	1.698754	-1.104069	0.284242
C84	C	1.668059	-1.009411	0.303319
H85	H	1.707324	-1.114462	0.343401
H86	H	1.781032	-1.136872	0.232885
H87	H	1.630544	-1.130948	0.262323
H88	H	1.736195	-0.982457	0.325273
H89	H	1.585748	-0.976667	0.354648
H90	H	0.919170	-0.240336	0.240721
O91	O	1.379330	-0.229688	0.997549
C92	C	1.433289	-0.183490	1.125349
C93	C	1.463811	-0.202641	1.030668
H94	H	1.501563	-0.161601	1.152158
H95	H	1.424577	-0.242562	1.135874
H96	H	1.351077	-0.132068	1.158124
H97	H	1.546033	-0.254037	0.997831
H98	H	1.472448	-0.143528	1.020205
H99	H	1.466798	-0.611187	0.348990
O100	O	1.838560	-0.814160	0.116819
C101	C	2.038695	-0.848507	0.071654
C102	C	1.930669	-0.789527	0.139126
H103	H	2.113194	-0.828624	0.089673
H104	H	2.036397	-0.845031	0.008594
H105	H	2.046466	-0.915576	0.066770
H106	H	1.922829	-0.722432	0.144086
H107	H	1.933013	-0.793076	0.202151
O108	O	1.379081	-0.636125	0.403690
C109	C	1.337655	-0.528634	0.349620
C110	C	1.368283	-0.623291	0.330547
H111	H	1.328893	-0.518227	0.290502
H112	H	1.405878	-0.501714	0.371463
H113	H	1.255433	-0.495880	0.401042
H114	H	1.450477	-0.656115	0.279110
H115	H	1.299993	-0.650149	0.308752
O116	O	0.802629	-0.401183	0.400815
C117	C	0.645179	-0.447333	0.446971
C118	C	0.765900	-0.447328	0.446905
H119	H	0.615439	-0.484622	0.484246
H120	H	0.641390	-0.477273	0.379718
H121	H	0.589307	-0.380046	0.477047
H122	H	0.821844	-0.514588	0.416869
H123	H	0.769601	-0.417341	0.514175
H124	H	1.263949	-0.983008	0.475917
H125	H	1.652792	-0.400973	0.650431
O126	O	1.197979	-0.116470	0.815269
C127	C	1.021201	-0.085714	0.914724
C128	C	1.129148	-0.153227	0.855669
H129	H	0.965532	-0.115404	0.947417
H130	H	0.975646	-0.057261	0.876831
H131	H	1.042551	-0.034475	0.963691
H132	H	1.107896	-0.204516	0.806692
H133	H	1.174673	-0.181613	0.893619
H134	H	1.213389	-0.826889	0.507454
O135	O	1.584968	-1.029945	0.275111
C136	C	1.689938	-1.084543	0.129660
C137	C	1.581966	-1.025542	0.197183
H138	H	1.687557	-1.080990	0.066643
H139	H	1.697806	-1.151643	0.124705
H140	H	1.764429	-1.064630	0.147664
H141	H	1.507413	-1.045379	0.179229
H142	H	1.574196	-0.958455	0.202125
O143	O	1.127282	-0.484040	0.483476
C144	C	1.218821	-0.472790	0.592474
C145	C	1.158375	-0.426472	0.546311
H146	H	1.243957	-0.426264	0.643297
H147	H	1.296375	-0.523454	0.545918
H148	H	1.160803	-0.502940	0.622419
H149	H	1.216304	-0.396271	0.516363
H150	H	1.080807	-0.375853	0.592902
O151	O	1.783550	-0.644715	0.150899
C152	C	1.871375	-0.646665	0.016080
C153	C	1.794017	-0.682284	0.064485
H154	H	1.879844	-0.677011	-0.053793
H155	H	1.956889	-0.660616	0.027131
H156	H	1.834595	-0.575943	0.039082
H157	H	1.830696	-0.753010	0.041513
H158	H	1.708513	-0.668267	0.053433
O159	O	1.584804	-0.358559	0.603654
C160	C	1.689491	-0.504069	0.548933
C161	C	1.581595	-0.436484	0.607971
H162	H	1.686922	-0.567090	0.552390
H163	H	1.764117	-0.486260	0.568775
H164	H	1.697278	-0.508897	0.481873
H165	H	1.573701	-0.431621	0.675048
H166	H	1.507023	-0.454321	0.588058
O167	O	1.795809	-0.490471	0.700865
C168	C	1.959853	-0.593240	0.688799
C169	C	1.851922	-0.525687	0.747821
H170	H	2.005239	-0.621744	0.726737
H171	H	2.015681	-0.563602	0.656164
H172	H	1.938498	-0.644431	0.639783
H173	H	1.873174	-0.474476	0.796883
H174	H	1.796124	-0.555387	0.780394
O175	O	1.838302	-0.517070	0.819311
C176	C	2.002346	-0.619839	0.807246
C177	C	1.894414	-0.552286	0.866267
H178	H	2.047732	-0.648343	0.845183
H179	H	2.058174	-0.590201	0.774610
H180	H	1.980990	-0.671030	0.758230
H181	H	1.915667	-0.501075	0.915330
H182	H	1.838617	-0.581986	0.898840
H183	H	1.772380	-0.475834	0.983776
O184	O	1.451345	-0.275023	1.030763
C185	C	1.251211	-0.229729	1.065206
C186	C	1.359168	-0.297257	1.006190
H187	H	1.176657	-0.247690	1.045371
H188	H	1.253590	-0.166695	1.061702
H189	H	1.243466	-0.224837	1.132281
H190	H	1.366982	-0.302225	0.939090
H191	H	1.356742	-0.360255	1.009767
O192	O	1.252721	-0.150621	0.645712
C193	C	1.082784	-0.044216	0.675918
C194	C	1.160175	-0.092622	0.711506
H195	H	1.007955	0.002699	0.729096
H196	H	1.052993	-0.090154	0.628005
H197	H	1.130163	-0.009317	0.644305
H198	H	1.112871	-0.127524	0.743161
H199	H	1.189970	-0.046644	0.759377
H200	H	1.218006	-0.401075	0.400709
