data_functionalizedCrystal
_audit_creation_method	'MofGen! by Chris Wilmer'
_symmetry_space_group_name_H-M	'P1'
_symmetry_Int_Tables_number	1
_symmetry_cell_setting	triclinic
loop_
_symmetry_equiv_pos_as_xyz
  x,y,z
_cell_length_a	13.897449
_cell_length_b	16.120484
_cell_length_c	13.897441
_cell_angle_alpha	92.866498
_cell_angle_beta	89.978743
_cell_angle_gamma	92.926462
loop_
_atom_site_label
_atom_site_type_symbol
_atom_site_fract_x
_atom_site_fract_y
_atom_site_fract_z
Zn1	Zn	1.455160	-0.331870	-0.564892
Zn2	Zn	1.955160	0.168130	-0.064892
Zn3	Zn	1.446858	-0.471299	-0.411762
Zn4	Zn	1.946858	0.028701	0.088238
Zn5	Zn	1.293853	-0.331906	-0.403605
Zn6	Zn	1.793853	0.168094	0.096395
Zn7	Zn	1.285632	-0.471246	-0.573004
Zn8	Zn	1.785632	0.028754	-0.073004
O9	O	1.370376	-0.401580	-0.488316
O10	O	1.870376	0.098420	0.011684
O11	O	1.589040	-0.350373	-0.544598
O12	O	2.089040	0.149627	-0.044598
O13	O	1.426528	-0.452846	-0.275701
O14	O	1.926528	0.047154	0.224299
O15	O	1.322166	-0.215236	-0.418192
O16	O	1.822166	0.284764	0.081808
O17	O	1.582941	-0.452811	-0.432094
O18	O	2.082941	0.047189	0.067906
O19	O	1.440677	-0.215209	-0.536689
O20	O	1.940677	0.284791	-0.036689
O21	O	1.314116	-0.350435	-0.269708
O22	O	1.814116	0.149565	0.230292
O23	O	1.157781	-0.350383	-0.426058
O24	O	1.657781	0.149617	0.073942
O25	O	1.308154	-0.452720	-0.706907
O26	O	1.808154	0.047280	-0.206907
O27	O	1.151741	-0.452755	-0.550514
O28	O	1.651741	0.047245	-0.050514
O29	O	1.432706	-0.350321	-0.700948
O30	O	1.932706	0.149679	-0.200948
O31	O	1.418556	-0.587958	-0.439960
O32	O	1.918556	-0.087958	0.060040
O33	O	1.300104	-0.587918	-0.558423
O34	O	1.800104	-0.087918	-0.058423
C35	C	1.119762	-0.401567	-0.488282
C36	C	1.619762	0.098433	0.011718
C37	C	1.012547	-0.401582	-0.488291
C38	C	1.512547	0.098418	0.011709
C39	C	1.357563	-0.618188	-0.500978
C40	C	1.857563	-0.118188	-0.000978
C41	C	1.352170	-0.710854	-0.506427
C42	C	1.852170	-0.210854	-0.006427
C43	C	0.925477	-0.401585	-0.488307
C44	C	1.425477	0.098415	0.011693
C45	C	0.816245	-0.401591	-0.488337
C46	C	1.316245	0.098409	0.011663
C47	C	1.342330	-0.880515	-0.516396
C48	C	1.842330	-0.380515	-0.016396
C49	C	1.398594	-0.921805	-0.460252
C50	C	1.898594	-0.421805	0.039748
C51	C	1.393119	-1.016210	-0.465799
C52	C	1.893119	-0.516210	0.034201
C53	C	1.347804	-0.786101	-0.510850
C54	C	1.847804	-0.286101	-0.010850
C55	C	1.621968	-0.401594	-0.488351
C56	C	2.121968	0.098406	0.011649
C57	C	1.729182	-0.401600	-0.488366
C58	C	2.229182	0.098400	0.011634
C59	C	1.370439	-0.401510	-0.739905
C60	C	1.870439	0.098490	-0.239905
C61	C	1.370466	-0.401480	-0.847117
C62	C	1.870466	0.098520	-0.347117
C63	C	1.383264	-0.184127	-0.475626
C64	C	1.883264	0.315873	0.024374
C65	C	1.388757	-0.091461	-0.470218
C66	C	1.888757	0.408539	0.029782
C67	C	1.370487	-0.401457	-0.934186
C68	C	1.870487	0.098543	-0.434186
C69	C	1.370517	-0.401419	-1.043416
C70	C	1.870517	0.098581	-0.543416
C71	C	1.370372	-0.401590	-0.237702
C72	C	1.870372	0.098410	0.262298
C73	C	1.370546	-0.401385	-0.130477
C74	C	1.870546	0.098615	0.369523
H75	H	1.450875	-0.886252	-0.408020
H76	H	1.950875	-0.386252	0.091980
O77	O	1.279979	-0.923049	-0.578616
O78	O	1.779979	-0.423049	-0.078616
C79	C	1.217675	-1.057300	-0.640996
C80	C	1.717675	-0.557300	-0.140996
C81	C	1.288316	-1.009221	-0.570479
C82	C	1.788316	-0.509221	-0.070479
H83	H	1.224406	-1.126978	-0.634456
H84	H	1.724406	-0.626978	-0.134456
H85	H	1.140848	-1.040376	-0.622999
H86	H	1.640848	-0.540376	-0.122999
H87	H	1.235523	-1.040130	-0.717795
H88	H	1.735523	-0.540130	-0.217795
H89	H	1.270556	-1.026366	-0.493656
H90	H	1.770556	-0.526366	0.006344
H91	H	1.365122	-1.026149	-0.588559
H92	H	1.865122	-0.526149	-0.088559
