data_functionalizedCrystal
_audit_creation_method	'MofGen! by Chris Wilmer'
_symmetry_space_group_name_H-M	'P1'
_symmetry_Int_Tables_number	1
_symmetry_cell_setting	triclinic
loop_
_symmetry_equiv_pos_as_xyz
  x,y,z
_cell_length_a	15.944499
_cell_length_b	15.944551
_cell_length_c	14.421503
_cell_angle_alpha	90.003340
_cell_angle_beta	89.989779
_cell_angle_gamma	83.488174
loop_
_atom_site_label
_atom_site_type_symbol
_atom_site_fract_x
_atom_site_fract_y
_atom_site_fract_z
O1	O	1.114556	0.108114	-0.077169
O2	O	0.870001	0.121515	-0.077159
O3	O	0.998957	-0.007462	-0.077156
O4	O	0.985600	0.237090	-0.077172
O5	O	0.998935	-0.007442	0.077067
O6	O	0.869979	0.121534	0.077064
O7	O	1.114535	0.108133	0.077054
Cu8	Cu	0.992255	0.114835	0.091141
Cu9	Cu	0.992281	0.114813	-0.091246
O10	O	0.985579	0.237110	0.077051
C11	C	0.838695	0.120976	-0.000046
C12	C	0.745447	0.119331	-0.000042
C13	C	0.453911	0.194263	-0.000061
C14	C	0.514951	0.155302	-0.076100
C15	C	0.409810	0.113355	-0.000063
C16	C	0.514916	0.155299	0.075952
C17	C	0.574719	0.116296	-0.000051
C18	C	0.469622	0.074371	-0.076165
C19	C	0.469581	0.074380	0.075955
C20	C	0.530603	0.035360	-0.000102
C21	C	0.314810	0.111663	-0.000071
C22	C	0.669718	0.117981	-0.000050
C23	C	0.998392	-0.038746	-0.000044
C24	C	0.996729	-0.131992	-0.000044
C25	C	0.912823	-0.346833	-0.000053
C26	C	0.951776	-0.407848	0.075987
C27	C	0.993722	-0.302717	-0.000051
C28	C	0.951816	-0.407850	-0.076065
C29	C	0.990811	-0.467629	-0.000061
C30	C	1.032697	-0.362504	0.076052
C31	C	1.032726	-0.362500	-0.076069
C32	C	1.071737	-0.423497	-0.000010
C33	C	0.995397	-0.207715	-0.000044
C34	C	0.989143	-0.562630	-0.000062
C35	C	1.145840	0.108672	-0.000061
C36	C	1.239089	0.110317	-0.000071
C37	C	0.986144	0.268394	-0.000063
C38	C	0.987806	0.361640	-0.000069
N39	N	0.992244	0.114851	0.219422
N40	N	0.992299	0.114791	-0.219527
C41	C	0.932604	0.174463	0.469075
C42	C	1.008506	0.190756	0.530873
C43	C	0.992264	0.114831	0.408584
C44	C	0.916382	0.098557	0.530879
C45	C	0.992277	0.114813	0.591305
C46	C	1.068204	0.131162	0.469021
C47	C	0.976030	0.038930	0.469022
C48	C	1.051987	0.055191	0.530793
C49	C	0.992255	0.114843	0.303323
C50	C	0.992294	0.114800	0.696564
H51	H	0.535058	0.189518	-0.140386
Br52	Br	0.398356	0.306175	-0.000184
Br53	Br	0.800903	-0.291298	0.000069
Br54	Br	0.848598	0.258577	0.423902
H55	H	1.022248	0.254936	0.558040
Br56	Br	1.089725	-0.328969	-0.183226
Br57	Br	1.089670	-0.329190	0.183315
H58	H	0.962264	-0.025230	0.441833
Br59	Br	0.894776	-0.441342	-0.183202
Br60	Br	0.894734	-0.441339	0.183141
Br61	Br	1.175198	0.154214	0.423931
Br62	Br	1.136175	-0.028879	0.575684
Br63	Br	1.183755	-0.478788	0.000050
H64	H	0.852204	0.084801	0.558053
H65	H	0.563780	-0.031846	-0.000138
Br66	Br	0.436033	0.017401	0.183113
Br67	Br	0.548368	0.212372	0.183091
Br68	Br	0.436346	0.017361	-0.183426
