data_functionalizedCrystal
_audit_creation_method	'MofGen! by Chris Wilmer'
_symmetry_space_group_name_H-M	'P1'
_symmetry_Int_Tables_number	1
_symmetry_cell_setting	triclinic
loop_
_symmetry_equiv_pos_as_xyz
  x,y,z
_cell_length_a	18.426585
_cell_length_b	14.560438
_cell_length_c	14.560438
_cell_angle_alpha	59.999496
_cell_angle_beta	90.000540
_cell_angle_gamma	59.998633
loop_
_atom_site_label
_atom_site_type_symbol
_atom_site_fract_x
_atom_site_fract_y
_atom_site_fract_z
Zr1	Zr	0.699054	1.005384	-0.120601
O2	O	0.583166	1.196990	-0.267254
O3	O	0.734587	0.813772	-0.075637
O4	O	0.734576	1.005383	-0.267248
O5	O	0.583178	1.005381	0.075496
O6	O	0.854001	1.005389	-0.267252
O7	O	0.583178	1.005378	-0.075642
O8	O	0.854022	0.662632	0.075506
O9	O	0.583158	1.348139	-0.267262
O10	O	0.838859	0.892591	-0.056472
O11	O	0.749733	0.892588	0.056324
O12	O	0.749719	1.118186	-0.169274
O13	O	0.660594	1.118183	-0.056478
Zr14	Zr	0.889525	1.005398	0.120441
Zr15	Zr	0.889524	1.005394	-0.120607
Zr16	Zr	0.699055	1.005388	0.120447
Zr17	Zr	0.699040	1.246449	-0.120614
Zr18	Zr	0.889539	0.764333	0.120454
O19	O	0.853992	1.197010	0.075477
O20	O	0.853991	1.197004	-0.267263
O21	O	0.583168	1.196995	0.075486
O22	O	1.005413	0.813792	0.267094
O23	O	1.005412	0.813786	-0.075646
O24	O	0.734588	0.813777	0.267102
O25	O	1.005401	1.005401	-0.075656
O26	O	0.854004	1.005398	0.267088
O27	O	0.734578	1.005392	0.267092
O28	O	1.005401	1.005403	0.075482
O29	O	0.734556	1.348147	-0.267267
O30	O	0.854023	0.662635	0.267107
O31	O	1.005421	0.662643	0.267102
O32	O	1.005421	0.662640	0.075501
O33	O	0.583158	1.348142	-0.075661
O34	O	0.734557	1.348150	-0.075666
O35	O	0.838860	0.892595	0.169114
O36	O	0.927985	0.892598	0.056318
O37	O	0.838846	1.118193	-0.056484
O38	O	0.749720	1.118190	0.056312
C39	C	0.556040	1.005378	-0.000072
C40	C	0.475180	1.005374	-0.000070
C41	C	0.794291	1.005396	0.301434
C42	C	0.794291	1.005397	0.403766
C43	C	0.794273	1.306927	-0.000096
C44	C	0.794267	1.409265	-0.000102
C45	C	0.179066	1.005413	-0.000089
C46	C	0.261451	1.005407	-0.000087
C47	C	0.327120	1.005393	-0.000081
C48	C	0.409512	1.005387	-0.000076
C49	C	1.032539	1.005403	-0.000088
C50	C	1.113399	1.005408	-0.000090
C51	C	0.794306	0.703855	-0.000064
C52	C	0.794312	0.601516	-0.000058
C53	C	0.747752	1.457331	0.058785
C54	C	0.747777	1.553455	0.058810
C55	C	0.840832	1.553440	-0.058946
C56	C	0.840812	1.457312	-0.058965
C57	C	0.794288	1.005386	-0.301594
C58	C	0.794288	1.005384	-0.403926
C59	C	0.747763	1.123154	0.392962
C60	C	0.747758	1.123147	0.489117
C61	C	0.840818	0.887619	0.606875
C62	C	0.840817	0.887626	0.510721
C63	C	1.032556	0.703868	-0.000071
C64	C	1.113421	0.601534	-0.000068
C65	C	0.794308	0.703860	0.301451
C66	C	0.794314	0.601523	0.403787
C67	C	1.032557	0.703873	0.301443
C68	C	1.113423	0.601540	0.403777
C69	C	0.556022	1.306909	-0.301603
C70	C	0.475156	1.409241	-0.403937
C71	C	0.556023	1.306914	-0.000089
C72	C	0.475158	1.409248	-0.000092
C73	C	0.794271	1.306921	-0.301611
C74	C	0.794265	1.409258	-0.403948
C75	C	1.104874	0.553473	-0.058952
C76	C	1.180848	0.457332	-0.058972
C77	C	1.265369	0.409248	-0.000101
C78	C	1.273916	0.457318	0.058785
C79	C	1.197942	0.553463	0.058797
C80	C	1.197929	0.553485	0.392956
C81	C	1.273919	0.457347	0.489101
C82	C	1.265400	0.409258	0.596065
C83	C	1.180885	0.457322	0.606884
C84	C	1.104897	0.553466	0.510741
C85	C	0.390650	1.457308	-0.393116
C86	C	0.314660	1.553476	-0.489261
C87	C	0.323179	1.601570	-0.596225
C88	C	0.407694	1.553500	-0.607044
C89	C	0.483682	1.457339	-0.510901
C90	C	0.483706	1.457319	0.058782
C91	C	0.407731	1.553486	0.058775
C92	C	0.323210	1.601574	-0.000099
C93	C	0.314663	1.553499	-0.058980
C94	C	0.390637	1.457340	-0.058980
C95	C	0.840839	0.553447	0.510741
C96	C	0.840835	0.457299	0.606893
C97	C	0.747779	0.457310	0.489125
C98	C	0.747778	0.553462	0.392975
H99	H	0.709853	1.418213	0.106716
H100	H	0.245836	1.592667	-0.106915
O101	O	0.415886	1.600340	0.115893
C102	C	0.330713	1.695503	0.103300
H103	H	0.280341	1.737589	0.023768
H104	H	0.331570	1.776370	0.096579
H105	H	0.311353	1.649503	0.179368
O106	O	0.702641	1.237435	0.288983
C107	C	0.712598	1.212197	0.206427
H108	H	0.775439	1.110994	0.243893
H109	H	0.717921	1.287413	0.132282
H110	H	0.652486	1.217778	0.176349
O111	O	1.206203	0.600333	0.115838
C112	C	1.165019	0.735074	0.040283
H113	H	1.161498	0.761431	-0.048437
H114	H	1.205316	0.762697	0.065822
H115	H	1.094942	0.790050	0.042368
O116	O	0.702526	0.410624	0.478775
C117	C	0.637213	0.434137	0.530843
H118	H	0.656760	0.446114	0.596367
H119	H	0.631593	0.348720	0.573541
H120	H	0.570474	0.526586	0.464729
H121	H	1.204882	0.592625	0.305869
H122	H	0.709901	1.592585	0.106762
H123	H	0.383665	1.418204	-0.106919
O124	O	0.702549	1.237652	0.478422
C125	C	0.661468	1.341593	0.363401
H126	H	0.697962	1.307071	0.312125
H127	H	0.663969	1.423953	0.350007
H128	H	0.589254	1.377807	0.335064
H129	H	1.327225	0.330959	-0.000119
O130	O	0.565821	1.410426	-0.521266
C131	C	0.612560	1.275700	-0.469206
H132	H	0.583559	1.234900	-0.403674
H133	H	0.685679	1.225888	-0.426519
H134	H	0.606237	1.257368	-0.535324
O135	O	0.885959	1.600308	-0.116114
C136	C	0.876019	1.695441	-0.103453
H137	H	0.813186	1.737501	-0.081768
H138	H	0.870694	1.776333	-0.185400
H139	H	0.936140	1.649419	-0.032956
O140	O	1.356089	0.410413	0.115958
C141	C	1.421302	0.315267	0.103292
H142	H	1.391675	0.273243	0.081597
H143	H	1.479897	0.234353	0.185241
H144	H	1.445067	0.361265	0.032800
O145	O	0.886081	0.773314	0.521070
C146	C	0.951391	0.766258	0.468998
H147	H	0.931835	0.868505	0.403478
H148	H	0.957017	0.716430	0.426295
H149	H	1.018129	0.708135	0.535111
O150	O	0.249388	1.695133	-0.689649
C151	C	0.249514	1.806375	-0.754102
H152	H	0.292481	1.806272	-0.697670
H153	H	0.178632	1.897246	-0.793043
H154	H	0.277527	1.805563	-0.823709
O155	O	1.356076	0.410577	0.478777
C156	C	1.421327	0.315397	0.586564
H157	H	1.391728	0.331167	0.650309
H158	H	1.479896	0.323247	0.585473
H159	H	1.445121	0.214814	0.611068
H160	H	1.327281	0.330971	0.674342
O161	O	0.232637	1.599969	-0.478536
C162	C	0.241422	1.536902	-0.363508
H163	H	0.309229	1.439447	-0.312252
H164	H	0.186939	1.520318	-0.350096
H165	H	0.235202	1.599943	-0.335161
H166	H	1.173962	0.418154	0.693987
O167	O	0.886013	1.410798	-0.116270
C168	C	0.927111	1.473801	-0.168204
H169	H	0.890634	1.571258	-0.179857
H170	H	0.924602	1.490376	-0.253736
H171	H	0.999328	1.410718	-0.113019
H172	H	0.878699	0.791734	0.693968
O173	O	1.022876	0.599947	0.521461
C174	C	1.031664	0.536897	0.636490
H175	H	1.099477	0.439452	0.687752
H176	H	0.977191	0.520293	0.649916
H177	H	1.025430	0.599960	0.664817
H178	H	0.383697	1.418155	-0.306029
O179	O	1.022822	0.599951	-0.116065
C180	C	1.013081	0.497346	-0.072762
H181	H	1.081478	0.401158	-0.029644
H182	H	0.973119	0.511854	-0.144424
H183	H	0.976769	0.496056	-0.009203
H184	H	0.552520	1.418173	0.106733
O185	O	0.249389	1.695147	-0.000289
C186	C	0.198467	1.806383	-0.111699
H187	H	0.243062	1.806259	-0.165966
H188	H	0.167704	1.897259	-0.112881
H189	H	0.143457	1.805581	-0.146339
O190	O	1.172646	0.410415	-0.116001
C191	C	1.213799	0.275686	-0.040406
H192	H	1.265596	0.234901	0.037076
H193	H	1.247516	0.225872	-0.083130
H194	H	1.161566	0.257339	-0.014038
O195	O	0.416018	1.599943	-0.710922
C196	C	0.462819	1.497275	-0.723183
H197	H	0.504826	1.401130	-0.636608
H198	H	0.507908	1.511772	-0.773896
H199	H	0.413568	1.495902	-0.768959
H200	H	0.878728	0.592580	0.519551
O201	O	0.885952	0.410496	0.710871
C202	C	0.875992	0.315304	0.793422
H203	H	0.813153	0.331097	0.755949
H204	H	0.870661	0.323115	0.867565
H205	H	0.936105	0.214729	0.823506
H206	H	0.709888	0.592610	0.305883
