data_functionalizedCrystal
_audit_creation_method	'MofGen! by Chris Wilmer'
_symmetry_space_group_name_H-M	'P1'
_symmetry_Int_Tables_number	1
_symmetry_cell_setting	triclinic
loop_
_symmetry_equiv_pos_as_xyz
  x,y,z
_cell_length_a	18.760487
_cell_length_b	14.628931
_cell_length_c	14.628931
_cell_angle_alpha	59.999807
_cell_angle_beta	90.035214
_cell_angle_gamma	60.020388
loop_
_atom_site_label
_atom_site_type_symbol
_atom_site_fract_x
_atom_site_fract_y
_atom_site_fract_z
Zr1	Zr	0.686684	1.000578	-0.119421
O2	O	0.572868	1.191284	-0.265472
O3	O	0.721575	0.809872	-0.074648
O4	O	0.721575	1.000578	-0.265354
O5	O	0.572868	1.000577	0.075667
O6	O	0.838878	1.000578	-0.265261
O7	O	0.572868	1.000578	-0.074766
O8	O	0.838878	0.659439	0.075877
O9	O	0.572868	1.341716	-0.265472
O10	O	0.823997	0.888312	-0.055484
O11	O	0.736455	0.888311	0.056713
O12	O	0.736455	1.112843	-0.167819
O13	O	0.648914	1.112843	-0.055623
Zr14	Zr	0.873769	1.000577	0.120649
Zr15	Zr	0.873769	1.000577	-0.119273
Zr16	Zr	0.686684	1.000577	0.120501
Zr17	Zr	0.686684	1.240499	-0.119421
Zr18	Zr	0.873769	0.760655	0.120649
O19	O	0.838878	1.191282	0.075876
O20	O	0.838878	1.191283	-0.265262
O21	O	0.572868	1.191283	0.075666
O22	O	0.987585	0.809870	0.266700
O23	O	0.987585	0.809871	-0.074438
O24	O	0.721575	0.809871	0.266490
O25	O	0.987585	1.000577	-0.074438
O26	O	0.838878	1.000576	0.266582
O27	O	0.721575	1.000576	0.266490
O28	O	0.987585	1.000577	0.075994
O29	O	0.721575	1.341716	-0.265355
O30	O	0.838878	0.659439	0.266583
O31	O	0.987585	0.659439	0.266700
O32	O	0.987585	0.659439	0.075994
O33	O	0.572868	1.341715	-0.074766
O34	O	0.721575	1.341715	-0.074649
O35	O	0.823997	0.888311	0.169048
O36	O	0.911539	0.888311	0.056851
O37	O	0.823997	1.112843	-0.055484
O38	O	0.736456	1.112843	0.056712
C39	C	0.780226	0.700472	0.000615
C40	C	0.780226	0.598619	0.000615
C41	C	0.823653	0.553210	-0.055042
C42	C	0.823653	0.447939	-0.055043
C43	C	0.546212	1.000578	0.000430
C44	C	0.466790	1.000578	0.000367
C45	C	0.085277	1.117785	-0.057829
C46	C	0.176677	0.883370	0.059451
C47	C	0.251299	0.883368	0.059355
C48	C	0.242913	1.000576	0.000665
C49	C	0.159905	1.117787	-0.057930
C50	C	0.334311	0.766160	0.117939
C51	C	0.408940	0.766153	0.117844
C52	C	0.400555	0.883363	0.059159
C53	C	0.317540	1.000578	0.000564
C54	C	0.309154	1.117786	-0.058126
C55	C	0.226140	1.235003	-0.116716
C56	C	0.151519	1.234997	-0.116614
C57	C	0.475176	0.883369	0.059057
C58	C	0.383782	1.117788	-0.058227
C59	C	1.014241	1.000577	0.000799
C60	C	1.093663	1.000577	0.000861
C61	C	0.780226	1.000578	-0.299492
C62	C	0.780226	1.000578	-0.401345
C63	C	0.780227	1.300682	0.000614
C64	C	0.780227	1.402535	0.000614
C65	C	0.736800	1.111959	-0.607744
C66	C	0.736799	1.111961	-0.502474
C67	C	0.780227	1.000576	0.300720
C68	C	0.780227	1.000576	0.402573
C69	C	1.014240	0.700472	0.000799
C70	C	1.093663	0.598618	0.000862
C71	C	0.780226	0.700471	0.300720
C72	C	0.780226	0.598618	0.402574
C73	C	1.014241	0.700471	0.300905
C74	C	1.093663	0.598617	0.402821
C75	C	0.546212	1.300684	-0.299677
C76	C	0.466790	1.402537	-0.401593
C77	C	0.546212	1.300683	0.000429
C78	C	0.466790	1.402536	0.000366
C79	C	0.780226	1.300683	-0.299492
C80	C	0.780226	1.402537	-0.401345
C81	C	1.085264	0.550787	-0.057756
C82	C	1.159883	0.455099	-0.057720
C83	C	1.242899	0.407237	0.000942
C84	C	1.251295	0.455077	0.059562
C85	C	1.176678	0.550770	0.059519
C86	C	1.176664	0.550786	0.392116
C87	C	1.251297	0.455097	0.487868
C88	C	1.242927	0.407235	0.594323
C89	C	1.159917	0.455076	0.605026
C90	C	1.085286	0.550769	0.509275
C91	C	0.383788	1.450380	-0.390888
C92	C	0.309156	1.546099	-0.486639
C93	C	0.317526	1.593966	-0.593095
C94	C	0.400536	1.546119	-0.603797
C95	C	0.475167	1.450409	-0.508047
C96	C	0.475189	1.450377	0.058974
C97	C	0.400570	1.546092	0.058911
C98	C	0.317554	1.593958	0.000246
C99	C	0.309157	1.546113	-0.058369
C100	C	0.383775	1.450406	-0.058312
C101	C	0.823653	0.553208	0.503709
C102	C	0.823654	0.447938	0.608981
H103	H	0.860835	0.592261	-0.102687
H104	H	0.407424	1.585031	0.106647
H105	H	0.699623	1.207320	-0.511132
H106	H	1.153114	0.416092	0.691714
F107	F	0.731634	0.547565	0.062905
F108	F	1.339655	0.404122	0.121994
F109	F	0.217226	1.359740	-0.179179
F110	F	1.150928	0.404197	-0.120110
F111	F	0.872244	0.604263	0.515021
H112	H	0.376956	1.411412	-0.304215
H113	H	0.241556	1.585100	-0.106133
F114	F	0.996952	0.601659	0.520685
H115	H	0.256803	1.671888	0.000209
H116	H	0.241573	1.585039	-0.477903
F117	F	1.322306	0.305389	0.000980
H118	H	0.743051	0.441573	0.511903
H119	H	0.476526	0.670708	0.165549
F120	F	0.872257	0.396892	0.722381
F121	F	0.238089	1.695829	-0.694993
H122	H	0.376925	1.411456	-0.106035
H123	H	0.083925	1.330428	-0.164313
F124	F	1.185630	0.601659	0.121919
F125	F	-0.003069	1.242529	-0.120175
F126	F	0.185597	0.758636	0.121903
F127	F	0.731624	0.547577	0.391261
F128	F	0.731622	0.453575	0.062894
F129	F	1.322364	0.305387	0.696221
H130	H	0.860829	0.408895	-0.102699
H131	H	1.183496	0.589741	0.305443
F132	F	0.409431	1.597073	-0.717104
H133	H	1.318881	0.416155	0.479134
F134	F	0.563501	1.399493	-0.519457
H135	H	0.376943	1.213235	-0.106008
H136	H	0.542778	1.411412	0.106754
H137	H	0.542761	0.787933	0.106770
F138	F	0.343230	0.641427	0.180391
F139	F	0.688196	1.236602	-0.721151
H140	H	0.817409	0.905214	-0.392678
F141	F	0.828818	0.875932	-0.484020
F142	F	0.996919	0.601712	-0.120200
