data_functionalizedCrystal
_audit_creation_method	'MofGen! by Chris Wilmer'
_symmetry_space_group_name_H-M	'P1'
_symmetry_Int_Tables_number	1
_symmetry_cell_setting	triclinic
loop_
_symmetry_equiv_pos_as_xyz
  x,y,z
_cell_length_a	10.540539
_cell_length_b	15.944551
_cell_length_c	9.016244
_cell_angle_alpha	89.996810
_cell_angle_beta	89.994699
_cell_angle_gamma	84.012115
loop_
_atom_site_label
_atom_site_type_symbol
_atom_site_fract_x
_atom_site_fract_y
_atom_site_fract_z
O1	O	1.684281	0.118370	-0.123274
O2	O	1.314716	0.129523	-0.123293
O3	O	1.509591	0.001731	-0.123269
O4	O	1.489407	0.246161	-0.123297
O5	O	1.509562	0.001734	0.123411
O6	O	1.314688	0.129525	0.123388
O7	O	1.684253	0.118372	0.123407
Cu8	Cu	1.499468	0.123949	0.145921
Cu9	Cu	1.499502	0.123946	-0.145807
O10	O	1.489378	0.246164	0.123384
C11	C	1.267411	0.128688	0.000046
C12	C	1.126497	0.126185	0.000039
C13	C	0.944375	0.030298	0.000626
C14	C	1.090959	0.032835	0.000054
C15	C	1.064229	0.171108	-0.140828
C16	C	0.917728	0.167922	-0.140930
C17	C	0.917181	0.169824	0.139592
C18	C	1.064151	0.170684	0.141438
C19	C	1.508739	-0.029566	0.000071
C20	C	1.506227	-0.122827	0.000072
C21	C	1.379430	-0.338440	0.000045
C22	C	1.438296	-0.399105	0.121677
C23	C	1.501682	-0.293580	0.000060
C24	C	1.438353	-0.399091	-0.121531
C25	C	1.497283	-0.458519	0.000043
C26	C	1.560582	-0.353017	0.121792
C27	C	1.560622	-0.352996	-0.121525
C28	C	1.619577	-0.413643	0.000136
C29	C	1.504213	-0.198563	0.000072
C30	C	1.494762	-0.553535	0.000042
C31	C	1.731559	0.119207	0.000065
C32	C	1.872473	0.121710	0.000062
C33	C	1.490231	0.277461	0.000040
C34	C	1.492743	0.370722	0.000029
N35	N	1.499453	0.123951	0.351108
N36	N	1.499526	0.123937	-0.350993
C37	C	1.394894	0.192082	0.586128
C38	C	1.395120	0.192337	0.414237
C39	C	1.631905	0.143889	0.413450
C40	C	1.631333	0.144372	0.585395
C41	C	1.472882	0.035659	0.585659
C42	C	1.469829	0.036231	0.413705
H43	H	1.105548	0.137866	0.245651
H44	H	1.612234	-0.332717	0.224735
H45	H	1.087450	0.238743	0.149936
Cl46	Cl	1.776380	-0.463907	0.000244
Cl47	Cl	1.640405	-0.321439	-0.280288
H48	H	1.296130	0.180269	0.627518
Cl49	Cl	1.420815	0.292633	0.652770
H50	H	1.386641	-0.419477	-0.224368
H51	H	1.296667	0.180340	0.372089
Cl52	Cl	1.667577	0.243809	0.647287
Cl53	Cl	1.326987	0.006377	0.652683
H54	H	1.655936	0.207567	0.370366
H55	H	1.412128	0.257831	0.373084
H56	H	1.386576	-0.419520	0.224501
Cl57	Cl	1.755036	0.070639	0.649617
H58	H	1.711617	0.095612	0.372555
H59	H	0.889981	0.134718	-0.246221
Cl60	Cl	1.156138	-0.021886	-0.156374
H61	H	1.372396	0.021118	0.372960
H62	H	0.869036	0.237251	0.140536
Cl63	Cl	1.222762	-0.287949	0.000215
H64	H	1.541079	-0.016915	0.370738
H65	H	1.549184	-0.015061	0.626321
H66	H	1.134043	-0.002512	0.101034
H67	H	0.916281	-0.006580	0.101649
Cl68	Cl	0.842251	0.271572	-0.150816
Cl69	Cl	0.898523	-0.026408	-0.154456
H70	H	1.085649	0.239662	-0.146076
Cl71	Cl	0.869102	0.123180	0.304447
Cl72	Cl	1.130649	0.122926	-0.302680
