data_functionalizedCrystal
_audit_creation_method	'MofGen! by Chris Wilmer'
_symmetry_space_group_name_H-M	'P1'
_symmetry_Int_Tables_number	1
_symmetry_cell_setting	triclinic
loop_
_symmetry_equiv_pos_as_xyz
  x,y,z
_cell_length_a	21.295420
_cell_length_b	21.295417
_cell_length_c	21.395356
_cell_angle_alpha	90.027507
_cell_angle_beta	90.016531
_cell_angle_gamma	90.027953
loop_
_atom_site_label
_atom_site_type_symbol
_atom_site_fract_x
_atom_site_fract_y
_atom_site_fract_z
Zn1	Zn	0.962308	-0.250667	0.354256
Zn2	Zn	1.295641	0.082666	0.687589
Zn3	Zn	1.628975	0.415999	1.020922
Zn4	Zn	0.962227	-0.355932	0.249475
Zn5	Zn	1.295560	-0.022599	0.582808
Zn6	Zn	1.628894	0.310735	0.916141
Zn7	Zn	0.857046	-0.250677	0.249492
Zn8	Zn	1.190380	0.082656	0.582825
Zn9	Zn	1.523713	0.415989	0.916159
Zn10	Zn	0.857002	-0.355899	0.354215
Zn11	Zn	1.190336	-0.022566	0.687548
Zn12	Zn	1.523669	0.310767	1.020881
O13	O	0.909646	-0.303294	0.301859
O14	O	1.242979	0.030039	0.635193
O15	O	1.576313	0.363373	0.968526
O16	O	1.050387	-0.264640	0.340366
O17	O	1.383720	0.068693	0.673699
O18	O	1.717053	0.402026	1.007033
O19	O	0.948259	-0.341987	0.161799
O20	O	1.281592	-0.008654	0.495132
O21	O	1.614926	0.324679	0.828466
O22	O	0.871062	-0.162587	0.263414
O23	O	1.204395	0.170747	0.596747
O24	O	1.537729	0.504080	0.930080
O25	O	1.050327	-0.341978	0.263384
O26	O	1.383660	-0.008644	0.596717
O27	O	1.716994	0.324689	0.930051
O28	O	0.948397	-0.162579	0.340383
O29	O	1.281731	0.170754	0.673716
O30	O	1.615064	0.504087	1.007050
O31	O	0.870983	-0.264657	0.161812
O32	O	1.204317	0.068676	0.495145
O33	O	1.537650	0.402009	0.828479
O34	O	0.768951	-0.264626	0.263374
O35	O	1.102284	0.068707	0.596707
O36	O	1.435618	0.402041	0.930041
O37	O	0.870987	-0.341922	0.441898
O38	O	1.204320	-0.008589	0.775231
O39	O	1.537653	0.324744	1.108565
O40	O	0.768919	-0.341932	0.340313
O41	O	1.102252	-0.008599	0.673646
O42	O	1.435585	0.324735	1.006980
O43	O	0.948355	-0.264609	0.441928
O44	O	1.281688	0.068724	0.775261
O45	O	1.615021	0.402058	1.108595
O46	O	0.948216	-0.444017	0.263344
O47	O	1.281550	-0.110684	0.596678
O48	O	1.614883	0.222650	0.930011
O49	O	0.870908	-0.443993	0.340296
O50	O	1.204241	-0.110660	0.673630
O51	O	1.537575	0.222674	1.006963
C52	C	0.746094	-0.303277	0.301841
C53	C	1.079428	0.030056	0.635175
C54	C	1.412761	0.363390	0.968508
C55	C	0.676126	-0.303285	0.301848
C56	C	1.009460	0.030048	0.635182
C57	C	1.342793	0.363382	0.968515
C58	C	0.176668	-0.343621	0.341883
C59	C	0.510001	-0.010288	0.675216
C60	C	0.843335	0.323045	1.008549
C61	C	0.242410	-0.343622	0.341876
C62	C	0.575744	-0.010288	0.675209
C63	C	0.909077	0.323045	1.008543
C64	C	0.275287	-0.303308	0.301879
C65	C	0.608620	0.030025	0.635212
C66	C	0.941953	0.363358	0.968546
C67	C	0.242415	-0.263003	0.261874
C68	C	0.575749	0.070330	0.595207
C69	C	0.909082	0.403664	0.928541
C70	C	0.176674	-0.263008	0.261877
C71	C	0.510007	0.070325	0.595211
C72	C	0.843341	0.403658	0.928544
N73	N	0.378527	-0.248191	0.297167
N74	N	0.711861	0.085142	0.630501
N75	N	1.045194	0.418475	0.963834
N76	N	0.440979	-0.248188	0.297168
N77	N	0.774312	0.085145	0.630501
N78	N	1.107646	0.418479	0.963835
C79	C	0.473362	-0.303291	0.301866
C80	C	0.806695	0.030043	0.635199
C81	C	1.140028	0.363376	0.968532
N82	N	0.440933	-0.358398	0.306575
N83	N	0.774267	-0.025064	0.639908
N84	N	1.107600	0.308269	0.973242
N85	N	0.378476	-0.358400	0.306578
N86	N	0.711810	-0.025067	0.639911
N87	N	1.045143	0.308266	0.973244
C88	C	0.346572	-0.303298	0.301871
C89	C	0.679906	0.030035	0.635204
C90	C	1.013239	0.363368	0.968537
C91	C	0.577511	-0.343597	0.341858
C92	C	0.910844	-0.010263	0.675191
C93	C	1.244177	0.323070	1.008524
C94	C	0.643254	-0.343598	0.341847
C95	C	0.976588	-0.010265	0.675180
C96	C	1.309921	0.323069	1.008513
C97	C	0.643258	-0.262974	0.261848
C98	C	0.976591	0.070360	0.595181
C99	C	1.309925	0.403693	0.928515
C100	C	0.577516	-0.262978	0.261856
C101	C	0.910849	0.070355	0.595189
C102	C	1.244182	0.403689	0.928522
C103	C	0.544646	-0.303289	0.301864
C104	C	0.877979	0.030045	0.635197
C105	C	1.211312	0.363378	0.968531
C106	C	0.909566	-0.466846	0.301828
C107	C	1.242899	-0.133512	0.635161
C108	C	1.576232	0.199821	0.968494
C109	C	0.909589	-0.536814	0.301835
C110	C	1.242922	-0.203480	0.635168
C111	C	1.576256	0.129853	0.968502
C112	C	0.949834	-0.569619	0.341941
C113	C	1.283168	-0.236286	0.675275
C114	C	1.616501	0.097047	1.008608
C115	C	0.949857	-0.635362	0.341957
C116	C	1.283190	-0.302029	0.675290
C117	C	1.616523	0.031305	1.008624
C118	C	0.909640	-0.668296	0.301855
C119	C	1.242973	-0.334963	0.635188
C120	C	1.576307	-0.001630	0.968521
C121	C	0.869387	-0.635483	0.261745
C122	C	1.202720	-0.302149	0.595079
C123	C	1.536053	0.031184	0.928412
C124	C	0.869361	-0.569741	0.261735
C125	C	1.202695	-0.236408	0.595069
C126	C	1.536028	0.096925	0.928402
N127	N	0.904888	-0.771555	0.247021
N128	N	1.238222	-0.438222	0.580354
N129	N	1.571555	-0.104888	0.913688
N130	N	0.904916	-0.834006	0.247032
N131	N	1.238250	-0.500673	0.580365
N132	N	1.571583	-0.167340	0.913699
C133	C	0.909714	-0.866371	0.301883
C134	C	1.243047	-0.533038	0.635216
C135	C	1.576380	-0.199704	0.968550
N136	N	0.914494	-0.833925	0.356723
N137	N	1.247827	-0.500591	0.690057
N138	N	1.581161	-0.167258	1.023390
N139	N	0.914469	-0.771467	0.356712
N140	N	1.247803	-0.438134	0.690045
N141	N	1.581136	-0.104801	1.023378
C142	C	0.909663	-0.739582	0.301861
C143	C	1.242996	-0.406248	0.635194
C144	C	1.576330	-0.072915	0.968528
C145	C	0.949985	-0.970462	0.342010
C146	C	1.283319	-0.637129	0.675343
C147	C	1.616652	-0.303795	1.008676
C148	C	0.950003	-1.036206	0.342026
C149	C	1.283336	-0.702873	0.675359
C150	C	1.616670	-0.369539	1.008693
C151	C	0.869536	-1.036325	0.261809
C152	C	1.202870	-0.702992	0.595142
C153	C	1.536203	-0.369659	0.928476
C154	C	0.869515	-0.970583	0.261798
C155	C	1.202849	-0.637250	0.595131
C156	C	1.536182	-0.303916	0.928465
C157	C	0.909743	-0.937655	0.301897
C158	C	1.243076	-0.604322	0.635231
C159	C	1.576410	-0.270989	0.968564
C160	C	1.073836	-0.303312	0.301878
C161	C	1.407170	0.030022	0.635211
C162	C	1.740503	0.363355	0.968544
C163	C	1.143804	-0.303319	0.301886
C164	C	1.477138	0.030014	0.635219
C165	C	1.810471	0.363348	0.968552
C166	C	0.909675	-0.303261	0.465283
C167	C	1.243008	0.030072	0.798616
C168	C	1.576341	0.363406	1.131949
C169	C	0.909687	-0.303247	0.534924
C170	C	1.243020	0.030086	0.868257
C171	C	1.576354	0.363420	1.201591
C172	C	0.909744	-0.139104	0.301905
C173	C	1.243077	0.194230	0.635238
C174	C	1.576410	0.527563	0.968571
C175	C	0.909785	-0.069136	0.301924
C176	C	1.243119	0.264198	0.635258
C177	C	1.576452	0.597531	0.968591
C178	C	0.909653	-0.303282	0.139072
C179	C	1.242987	0.030052	0.472405
C180	C	1.576320	0.363385	0.805738
C181	C	0.909763	-0.303118	0.069431
C182	C	1.243096	0.030215	0.402764
C183	C	1.576430	0.363548	0.736097
C184	C	0.949995	-0.343381	1.036714
C185	C	1.283329	-0.010047	1.370047
C186	C	1.616662	0.323286	1.703381
C187	C	0.949984	-0.343401	0.971279
C188	C	1.283317	-0.010067	1.304612
C189	C	1.616651	0.323266	1.637945
C190	C	0.909747	-0.303147	0.938562
C191	C	1.243080	0.030186	1.271896
C192	C	1.576414	0.363520	1.605229
C193	C	0.869507	-0.262882	0.971287
C194	C	1.202840	0.070451	1.304620
C195	C	1.536174	0.403785	1.637954
C196	C	0.869515	-0.262868	1.036721
C197	C	1.202848	0.070466	1.370054
C198	C	1.536182	0.403799	1.703388
C199	C	0.904798	-0.246455	0.834909
C200	C	1.238131	0.086878	1.168242
C201	C	1.571464	0.420212	1.501576
C202	C	0.904794	-0.246468	0.769476
C203	C	1.238127	0.086865	1.102809
C204	C	1.571461	0.420198	1.436143
C205	C	0.909719	-0.303192	0.736742
C206	C	1.243052	0.030142	1.070075
C207	C	1.576385	0.363475	1.403408
C208	C	0.914660	-0.359904	0.769448
C209	C	1.247994	-0.026570	1.102781
C210	C	1.581327	0.306763	1.436115
C211	C	0.914668	-0.359889	0.834882
C212	C	1.248002	-0.026556	1.168216
C213	C	1.581335	0.306778	1.501549
C214	C	0.909734	-0.303158	0.867610
C215	C	1.243067	0.030175	1.200943
C216	C	1.576400	0.363508	1.534277
C217	C	0.949941	-0.343479	0.633072
C218	C	1.283274	-0.010146	0.966406
C219	C	1.616608	0.323188	1.299739
C220	C	0.949925	-0.343500	0.567636
C221	C	1.283258	-0.010167	0.900969
C222	C	1.616592	0.323167	1.234302
C223	C	0.869452	-0.262976	0.567645
C224	C	1.202785	0.070358	0.900978
C225	C	1.536118	0.403691	1.234312
C226	C	0.869464	-0.262960	0.633081
C227	C	1.202797	0.070373	0.966414
C228	C	1.536131	0.403706	1.299747
C229	C	0.909712	-0.303211	0.665790
C230	C	1.243045	0.030122	0.999124
C231	C	1.576379	0.363456	1.332457
H232	H	0.550758	-0.230157	0.229288
H233	H	0.884091	0.103176	0.562621
H234	H	1.217424	0.436509	0.895954
H235	H	0.982624	-0.662078	0.374624
H236	H	1.315957	-0.328744	0.707957
H237	H	1.649291	0.004589	1.041290
Cl238	Cl	0.818825	-0.676885	0.211335
Cl239	Cl	1.152158	-0.343551	0.544668
Cl240	Cl	1.485491	-0.010218	0.878001
H241	H	0.550747	-0.376421	0.374434
H242	H	0.884080	-0.043087	0.707767
H243	H	1.217413	0.290246	1.041101
Cl244	Cl	0.684582	-0.212299	0.211559
Cl245	Cl	1.017915	0.121034	0.544893
Cl246	Cl	1.351249	0.454368	0.878226
H247	H	0.982767	-0.376158	1.063342
H248	H	1.316100	-0.042824	1.396676
H249	H	1.649433	0.290509	1.730009
H250	H	0.836753	-0.230080	1.063359
H251	H	1.170086	0.103254	1.396692
H252	H	1.503419	0.436587	1.730025
H253	H	0.149909	-0.376448	0.374458
H254	H	0.483243	-0.043114	0.707792
H255	H	0.816576	0.290219	1.041125
Cl256	Cl	0.898587	-0.175174	0.728366
Cl257	Cl	1.231920	0.158159	1.061699
Cl258	Cl	1.565254	0.491492	1.395033
H259	H	0.149917	-0.230188	0.229307
H260	H	0.483250	0.103146	0.562640
H261	H	0.816583	0.436479	0.895973
Cl262	Cl	0.818875	-0.212350	0.674212
Cl263	Cl	1.152208	0.120983	1.007546
Cl264	Cl	1.485541	0.454316	1.340879
Cl265	Cl	0.818976	-1.077722	0.211396
Cl266	Cl	1.152309	-0.744389	0.544729
Cl267	Cl	1.485642	-0.411056	0.878062
H268	H	0.269173	-0.376441	0.374448
H269	H	0.602507	-0.043107	0.707782
H270	H	0.935840	0.290226	1.041115
H271	H	0.670011	-0.376421	0.374415
H272	H	1.003344	-0.043088	0.707749
H273	H	1.336678	0.290245	1.041082
H274	H	0.982589	-0.542812	0.374594
H275	H	1.315922	-0.209478	0.707928
H276	H	1.649255	0.123855	1.041261
H277	H	0.836588	-0.543030	0.229075
H278	H	1.169921	-0.209697	0.562409
H279	H	1.503254	0.123636	0.895742
Cl280	Cl	1.000553	-0.929064	0.392422
Cl281	Cl	1.333887	-0.595731	0.725755
Cl282	Cl	1.667220	-0.262398	1.059089
Cl283	Cl	0.920854	-0.431218	0.728304
Cl284	Cl	1.254188	-0.097885	1.061637
Cl285	Cl	1.587521	0.235449	1.394970
H286	H	0.836745	-0.230108	0.944645
H287	H	1.170079	0.103225	1.277978
H288	H	1.503412	0.436559	1.611312
H289	H	0.836746	-0.943871	0.229137
H290	H	1.170080	-0.610537	0.562470
H291	H	1.503413	-0.277204	0.895803
H292	H	0.982755	-0.376180	0.944636
H293	H	1.316088	-0.042847	1.277969
H294	H	1.649422	0.290487	1.611302
Cl295	Cl	0.898921	-0.175112	0.876054
Cl296	Cl	1.232255	0.158222	1.209387
Cl297	Cl	1.565588	0.491555	1.542720
H298	H	0.269187	-0.230181	0.229307
H299	H	0.602521	0.103153	0.562641
H300	H	0.935854	0.436486	0.895974
Cl301	Cl	1.000595	-1.077448	0.392458
Cl302	Cl	1.333928	-0.744115	0.725792
Cl303	Cl	1.667261	-0.410781	1.059125
H304	H	0.918690	-0.406066	0.861509
H305	H	1.252024	-0.072733	1.194843
H306	H	1.585357	0.260601	1.528176
Cl307	Cl	1.000536	-0.394080	0.674196
Cl308	Cl	1.333869	-0.060747	1.007529
Cl309	Cl	1.667203	0.272587	1.340863
H310	H	0.982684	-0.376292	0.540999
H311	H	1.316017	-0.042959	0.874332
H312	H	1.649350	0.290374	1.207666
H313	H	0.836688	-0.230202	0.541008
H314	H	1.170022	0.103131	0.874342
H315	H	1.503355	0.436465	1.207675
