data_functionalizedCrystal
_audit_creation_method	'MofGen! by Chris Wilmer'
_symmetry_space_group_name_H-M	'P1'
_symmetry_Int_Tables_number	1
_symmetry_cell_setting	triclinic
loop_
_symmetry_equiv_pos_as_xyz
  x,y,z
_cell_length_a	18.050591
_cell_length_b	18.050589
_cell_length_c	18.050583
_cell_angle_alpha	90.031910
_cell_angle_beta	90.022021
_cell_angle_gamma	90.024227
loop_
_atom_site_label
_atom_site_type_symbol
_atom_site_fract_x
_atom_site_fract_y
_atom_site_fract_z
Zn1	Zn	-1.135301	0.295685	-0.420054
Zn2	Zn	-1.135209	0.419898	-0.295873
Zn3	Zn	-1.011117	0.295718	-0.295865
Zn4	Zn	-1.011068	0.419829	-0.420009
O5	O	-1.073174	0.357783	-0.357950
O6	O	-1.239213	0.312178	-0.403604
O7	O	-1.118730	0.403468	-0.191948
O8	O	-1.027650	0.191789	-0.312354
O9	O	-1.239146	0.403436	-0.312369
O10	O	-1.118887	0.191765	-0.403595
O11	O	-1.027561	0.312233	-0.191942
O12	O	-0.907186	0.312166	-0.312311
O13	O	-1.027565	0.403319	-0.523940
O14	O	-0.907150	0.403350	-0.403519
O15	O	-1.118838	0.312111	-0.523973
O16	O	-1.118682	0.523814	-0.312325
O17	O	-1.027476	0.523763	-0.403527
C18	C	-0.880222	0.357755	-0.357909
C19	C	-0.797676	0.357761	-0.357909
C20	C	-1.073084	0.550735	-0.357938
C21	C	-1.073114	0.633281	-0.357958
C22	C	-1.073207	0.357703	-0.551656
C23	C	-1.073221	0.357670	-0.634202
C24	C	-1.266879	0.357811	-0.357992
C25	C	-1.349425	0.357823	-0.358010
C26	C	-0.598223	0.308118	-0.308425
C27	C	-0.548803	0.375858	-0.290154
C28	C	-0.646545	0.357784	-0.357943
C29	C	-0.548884	0.290067	-0.376212
C30	C	-0.500560	0.357799	-0.357974
C31	C	-0.598213	0.425559	-0.339637
C32	C	-0.598297	0.339723	-0.425726
C33	C	-0.548900	0.407510	-0.407481
C34	C	-0.730644	0.357774	-0.357923
C35	C	-0.416464	0.357817	-0.357994
C36	C	-1.073284	0.164077	-0.357979
C37	C	-1.073331	0.081531	-0.357991
C38	C	-1.023565	0.832731	-0.407536
C39	C	-1.005465	0.882180	-0.339767
C40	C	-1.073187	0.784411	-0.357967
C41	C	-1.091322	0.882044	-0.425744
C42	C	-1.073256	0.930396	-0.357983
C43	C	-1.055052	0.832773	-0.290162
C44	C	-1.140940	0.832632	-0.376186
C45	C	-1.122867	0.882059	-0.308370
C46	C	-1.073145	0.700313	-0.357959
C47	C	-1.073297	1.014493	-0.357983
C48	C	-1.122905	0.308047	-0.833671
C49	C	-1.055171	0.289866	-0.883057
C50	C	-1.073250	0.357657	-0.785332
C51	C	-1.141011	0.375791	-0.883028
C52	C	-1.073285	0.357643	-0.931317
C53	C	-1.005481	0.339441	-0.833631
C54	C	-1.091367	0.425397	-0.833598
C55	C	-1.023586	0.407242	-0.882962
C56	C	-1.073231	0.357663	-0.701234
C57	C	-1.073296	0.357637	-1.015414
C58	C	-1.073184	0.357808	-0.164998
C59	C	-1.073314	0.357633	-0.082453
H60	H	-0.619880	0.266162	-0.266503
O61	O	-1.036599	0.807155	-0.221764
C62	C	-0.965408	0.833000	-0.202575
H63	H	-0.952303	0.885140	-0.235689
H64	H	-0.922620	0.788442	-0.215665
C65	C	-0.979240	0.786950	-0.078529
C66	C	-0.963147	0.850993	-0.119196
H67	H	-0.977843	0.798046	-0.027097
H68	H	-1.027202	0.769535	-0.091457
H69	H	-0.943581	0.749824	-0.089446
H70	H	-0.998811	0.888114	-0.108286
H71	H	-0.915191	0.868415	-0.106264
O72	O	-0.522897	0.393975	-0.221741
C73	C	-0.548037	0.341478	-0.169681
H74	H	-0.561932	0.287434	-0.199304
H75	H	-0.599685	0.363526	-0.140803
C76	C	-0.469895	0.393730	-0.075424
C77	C	-0.486955	0.327351	-0.111806
H78	H	-0.432219	0.385018	-0.039721
H79	H	-0.452959	0.429101	-0.110496
H80	H	-0.512940	0.412097	-0.051365
H81	H	-0.443913	0.308990	-0.135871
H82	H	-0.503882	0.291977	-0.076735
O83	O	-0.937109	0.320949	-0.807950
C84	C	-0.918036	0.249728	-0.833748
H85	H	-0.951177	0.236619	-0.885909
H86	H	-0.931189	0.206976	-0.789182
C87	C	-0.793963	0.263490	-0.787602
C88	C	-0.834663	0.247392	-0.851671
H89	H	-0.742534	0.262046	-0.798655
H90	H	-0.806813	0.311472	-0.770219
H91	H	-0.804932	0.227861	-0.750469
H92	H	-0.823701	0.283025	-0.888799
H93	H	-0.821810	0.199415	-0.869061
O94	O	-0.973354	0.457202	-0.908592
C95	C	-0.902054	0.437811	-0.883270
H96	H	-0.900674	0.376196	-0.869510
H97	H	-0.888230	0.471290	-0.831503
C98	C	-0.846404	0.530309	-0.961029
C99	C	-0.844707	0.454632	-0.944134
H100	H	-0.811029	0.540689	-0.998571
H101	H	-0.894440	0.543376	-0.978087
H102	H	-0.834886	0.558200	-0.917885
H103	H	-0.856235	0.426744	-0.987276
H104	H	-0.796672	0.441561	-0.927085
O105	O	-0.973332	0.806919	-0.457390
C106	C	-0.902010	0.832185	-0.437917
H107	H	-0.900656	0.846081	-0.376316
H108	H	-0.888088	0.883858	-0.471432
C109	C	-0.846403	0.754143	-0.530243
C110	C	-0.844738	0.771204	-0.454583
H111	H	-0.811074	0.716530	-0.540527
H112	H	-0.894454	0.737123	-0.543365
H113	H	-0.834803	0.797210	-0.558164
H114	H	-0.856347	0.728141	-0.426664
H115	H	-0.796688	0.788216	-0.441457
O116	O	-0.624036	0.493902	-0.321239
C117	C	-0.667555	0.521873	-0.379754
H118	H	-0.689167	0.473914	-0.414750
H119	H	-0.632390	0.560031	-0.415740
C120	C	-0.706858	0.624573	-0.304804
C121	C	-0.733408	0.565668	-0.347783
H122	H	-0.747477	0.651590	-0.285085
H123	H	-0.677536	0.605730	-0.265382
H124	H	-0.677554	0.656362	-0.334799
H125	H	-0.762703	0.533875	-0.317786
H126	H	-0.762736	0.584506	-0.387200
H127	H	-1.106699	0.482674	-0.811858
H128	H	-1.198301	0.391133	-0.904728
H129	H	-0.948201	0.903959	-0.324371
O130	O	-0.523253	0.457779	-0.457370
C131	C	-0.548539	0.529059	-0.437860
H132	H	-0.562291	0.530399	-0.376240
H133	H	-0.600304	0.542885	-0.471303
C134	C	-0.470765	0.584789	-0.530296
C135	C	-0.487650	0.586437	-0.454611
H136	H	-0.433209	0.620184	-0.540631
H137	H	-0.453732	0.536767	-0.543443
H138	H	-0.513908	0.596309	-0.558155
H139	H	-0.444510	0.574908	-0.426754
H140	H	-0.504675	0.634459	-0.441460
H141	H	-1.106634	0.903687	-0.483056
H142	H	-1.164860	0.903582	-0.266409
O143	O	-0.624224	0.321334	-0.494053
C144	C	-0.599120	0.249862	-0.513093
H145	H	-0.585226	0.217764	-0.460525
H146	H	-0.547480	0.254596	-0.549126
C147	C	-0.677291	0.248180	-0.620796
C148	C	-0.660232	0.208754	-0.556229
H149	H	-0.714985	0.222823	-0.647407
H150	H	-0.694202	0.296333	-0.607970
H151	H	-0.634252	0.252122	-0.650814
H152	H	-0.703268	0.204821	-0.526208
H153	H	-0.643330	0.160600	-0.569051
H154	H	-1.198192	0.810855	-0.391613
H155	H	-0.527176	0.232801	-0.391625
O156	O	-1.172835	0.257868	-0.807876
C157	C	-1.153479	0.186517	-0.833095
H158	H	-1.091882	0.185106	-0.846942
H159	H	-1.187024	0.172590	-0.884789
C160	C	-1.245882	0.131027	-0.755101
C161	C	-1.170226	0.129293	-0.772102
H162	H	-1.256215	0.095728	-0.717480
H163	H	-1.258924	0.179098	-0.738113
H164	H	-1.273827	0.119424	-0.798185
H165	H	-1.142283	0.140905	-0.729022
H166	H	-1.157179	0.081222	-0.789082
H167	H	-1.039859	0.232573	-0.904782
