data_functionalizedCrystal
_audit_creation_method	'MofGen! by Chris Wilmer'
_symmetry_space_group_name_H-M	'P1'
_symmetry_Int_Tables_number	1
_symmetry_cell_setting	triclinic
loop_
_symmetry_equiv_pos_as_xyz
  x,y,z
_cell_length_a	10.654550
_cell_length_b	23.532357
_cell_length_c	9.730223
_cell_angle_alpha	89.993164
_cell_angle_beta	89.996251
_cell_angle_gamma	83.656597
loop_
_atom_site_label
_atom_site_type_symbol
_atom_site_fract_x
_atom_site_fract_y
_atom_site_fract_z
O1	O	1.665268	0.079984	-0.114421
O2	O	1.299545	0.087605	-0.114401
O3	O	1.493468	0.000933	-0.114384
O4	O	1.471346	0.166656	-0.114439
O5	O	1.493466	0.000935	0.114196
O6	O	1.299543	0.087607	0.114179
O7	O	1.665266	0.079986	0.114158
Zn8	Zn	1.482404	0.083797	0.150461
Zn9	Zn	1.482407	0.083794	-0.150703
O10	O	1.471343	0.166658	0.114141
C11	C	1.252764	0.087046	-0.000108
C12	C	1.113375	0.085372	-0.000099
C13	C	1.032252	0.136403	-0.000136
C14	C	0.901282	0.134827	-0.000159
C15	C	0.932570	0.031184	-0.000114
C16	C	1.063537	0.032761	-0.000081
C17	C	1.082089	0.189015	-0.000154
C18	C	1.000965	0.240050	-0.000193
C19	C	0.869995	0.238473	-0.000216
C20	C	0.820149	0.185862	-0.000201
C21	C	1.492913	-0.020286	-0.000089
C22	C	1.491250	-0.083516	-0.000076
C23	C	1.480807	-0.475596	-0.124749
C24	C	1.479225	-0.535006	-0.124757
O25	O	1.478366	-0.565729	-0.230723
N26	N	1.478440	-0.564721	-0.000159
C27	C	1.479223	-0.535023	0.124454
O28	O	1.478409	-0.565753	0.230433
C29	C	1.480796	-0.475614	0.124460
C30	C	1.481594	-0.445902	-0.000145
C31	C	1.481604	-0.445885	-0.249344
C32	C	1.483187	-0.386479	-0.249336
C33	C	1.483974	-0.356785	-0.124732
C34	C	1.483177	-0.386497	-0.000137
C35	C	1.481570	-0.445916	0.249072
C36	C	1.483141	-0.386502	0.249067
C37	C	1.483940	-0.356791	0.124462
C38	C	1.485548	-0.297397	0.124475
N39	N	1.486334	-0.267682	-0.000123
C40	C	1.485547	-0.297376	-0.124726
C41	C	1.475919	-0.659786	0.124431
C42	C	1.474355	-0.719194	0.124426
C43	C	1.474355	-0.719173	-0.124785
C44	C	1.475928	-0.659764	-0.124779
C45	C	1.476704	-0.630071	-0.000166
C46	C	1.488874	-0.172620	-0.124699
C47	C	1.490463	-0.113210	-0.124680
C48	C	1.490456	-0.113236	0.124530
C49	C	1.488874	-0.172641	0.124512
C50	C	1.488078	-0.202332	-0.000114
O51	O	1.486403	-0.266636	0.230387
O52	O	1.486345	-0.266638	-0.230687
C53	C	1.712047	0.080545	-0.000138
C54	C	1.851437	0.082219	-0.000156
C55	C	1.471898	0.187877	-0.000156
C56	C	1.473562	0.251107	-0.000178
N57	N	1.482411	0.083799	0.355997
N58	N	1.482410	0.083788	-0.356240
C59	C	1.568302	0.045433	0.427931
C60	C	1.568299	0.045426	0.571814
C61	C	1.396510	0.122155	0.571816
C62	C	1.396509	0.122159	0.427936
C63	C	1.654204	0.007073	0.355992
C64	C	1.740103	-0.031295	0.427926
C65	C	1.740100	-0.031302	0.571809
C66	C	1.654198	0.007059	0.643758
H67	H	0.713503	0.184582	-0.000198
C68	C	1.476793	-0.627129	0.261523
N69	N	1.477452	-0.602535	0.364781
H70	H	1.654217	0.007076	0.238835
C71	C	0.780762	0.294612	-0.000240
N72	N	0.713554	0.336898	-0.000262
H73	H	1.188730	0.190304	-0.000142
C74	C	1.055799	0.297919	-0.000201
N75	N	1.097098	0.341508	-0.000207
H76	H	0.891974	-0.011650	-0.000125
H77	H	1.480922	-0.470097	0.350539
H78	H	1.129590	-0.008793	-0.000055
C79	C	1.480792	-0.478542	-0.386430
N80	N	1.480209	-0.503137	-0.489693
H81	H	1.491116	-0.089022	-0.226153
C82	C	1.488020	-0.205273	-0.261794
N83	N	1.487392	-0.229867	-0.365054
C84	C	1.484051	-0.353804	-0.386413
N85	N	1.484696	-0.329196	-0.489667
H86	H	1.476576	-0.635577	-0.226243
C87	C	1.473476	-0.751848	-0.261852
N88	N	1.472812	-0.776459	-0.365085
C89	C	1.488008	-0.205325	0.261583
N90	N	1.487343	-0.229938	0.364828
C91	C	1.473490	-0.751871	0.261502
N92	N	1.472828	-0.776480	0.364752
H93	H	1.326574	0.153387	0.630407
C94	C	1.491309	-0.080560	0.261587
N95	N	1.491939	-0.055946	0.364820
H96	H	1.483755	-0.362328	0.350544
H97	H	1.810034	-0.062530	0.369337
H98	H	1.654195	0.007047	0.760917
C99	C	1.834571	-0.073514	0.650932
N100	N	1.905731	-0.105310	0.710525
H101	H	1.326568	0.153399	0.369367
