data_functionalizedCrystal
_audit_creation_method	'MofGen! by Chris Wilmer'
_symmetry_space_group_name_H-M	'P1'
_symmetry_Int_Tables_number	1
_symmetry_cell_setting	triclinic
loop_
_symmetry_equiv_pos_as_xyz
  x,y,z
_cell_length_a	12.759401
_cell_length_b	13.897448
_cell_length_c	12.759393
_cell_angle_alpha	90.032272
_cell_angle_beta	90.019802
_cell_angle_gamma	90.016778
loop_
_atom_site_label
_atom_site_type_symbol
_atom_site_fract_x
_atom_site_fract_y
_atom_site_fract_z
Zn1	Zn	1.606244	-0.383992	0.593975
Zn2	Zn	1.606126	-0.545318	0.418290
Zn3	Zn	1.430543	-0.384036	0.418314
Zn4	Zn	1.430526	-0.545244	0.593931
O5	O	1.518360	-0.464648	0.506127
O6	O	1.753250	-0.405405	0.570679
O7	O	1.582793	-0.523973	0.271272
O8	O	1.453907	-0.249049	0.441644
O9	O	1.753163	-0.523930	0.441604
O10	O	1.582994	-0.249016	0.570702
O11	O	1.453793	-0.405480	0.271290
O12	O	1.283520	-0.405408	0.441601
O13	O	1.453878	-0.523804	0.740958
O14	O	1.283507	-0.523847	0.570626
O15	O	1.582977	-0.405333	0.740990
O16	O	1.582776	-0.680290	0.441560
O17	O	1.453763	-0.680235	0.570603
C18	C	1.245393	-0.464625	0.506112
C19	C	1.128616	-0.464639	0.506130
C20	C	0.964063	-0.403056	0.573451
C21	C	1.073787	-0.403037	0.573444
C22	C	1.073716	-0.526270	0.438827
C23	C	0.963993	-0.526293	0.438840
C24	C	1.223797	-0.368678	0.697397
C25	C	1.278694	-0.307038	0.764689
C26	C	1.243097	-0.212944	0.781004
C27	C	1.152605	-0.180470	0.730012
C28	C	1.097714	-0.242104	0.662713
C29	C	1.133310	-0.336212	0.646418
C30	C	0.813981	-0.560643	0.314885
C31	C	0.759088	-0.622273	0.247580
C32	C	0.794683	-0.716369	0.231254
C33	C	0.885178	-0.748839	0.282227
C34	C	0.940071	-0.687209	0.349532
C35	C	0.904469	-0.593114	0.365860
C36	C	1.518283	-0.715262	0.506097
C37	C	1.518347	-0.822476	0.506119
C38	C	1.518457	-1.018771	0.506185
C39	C	1.518393	-0.909538	0.506152
C40	C	1.792393	-0.464671	0.506144
C41	C	1.909170	-0.464681	0.506150
C42	C	1.518439	-0.464555	0.780161
C43	C	1.518472	-0.464515	0.896938
C44	C	1.518466	-0.213055	0.506181
C45	C	1.518511	-0.105841	0.506204
C46	C	1.518342	-0.464670	0.233160
C47	C	1.518512	-0.464438	0.116384
C48	C	1.585699	-0.402818	0.951818
C49	C	1.585717	-0.402776	1.061543
C50	C	1.451278	-0.526138	1.061496
C51	C	1.451255	-0.526174	0.951773
C52	C	1.623336	-0.288972	1.211524
C53	C	1.690579	-0.227282	1.266408
C54	C	1.793093	-0.212495	1.230815
C55	C	1.828384	-0.259411	1.140340
C56	C	1.761146	-0.321108	1.085461
C57	C	1.658618	-0.335877	1.121052
C58	C	1.413648	-0.639980	0.801790
C59	C	1.346414	-0.701682	0.746909
C60	C	1.243899	-0.716479	0.782500
C61	C	1.208612	-0.669580	0.872979
C62	C	1.275845	-0.607878	0.927860
C63	C	1.378359	-0.593079	0.892262
H64	H	1.640429	-0.352608	0.907174
H65	H	1.123637	-0.103844	0.743292
C66	C	1.134024	-0.594035	0.364781
C67	C	1.254714	-0.594010	0.364759
C68	C	1.315020	-0.661774	0.290709
C69	C	1.254636	-0.729563	0.216682
C70	C	1.133939	-0.729591	0.216702
C71	C	1.073633	-0.661826	0.290752
H72	H	1.299420	-0.543826	0.419561
H73	H	1.404368	-0.661754	0.290695
H74	H	1.299278	-0.779727	0.161866
H75	H	1.089233	-0.779775	0.161900
H76	H	0.984285	-0.661847	0.290766
C77	C	1.039617	-0.722924	0.405607
C78	C	1.078781	-0.826427	0.387652
C79	C	1.178327	-0.862139	0.443723
C80	C	1.238709	-0.794349	0.517751
C81	C	1.199546	-0.690840	0.535709
C82	C	1.100000	-0.655127	0.479637
H83	H	1.034081	-0.876615	0.332849
H84	H	1.207317	-0.938764	0.430429
H85	H	1.312399	-0.820786	0.559258
H86	H	1.244246	-0.640651	0.590512
H87	H	1.071010	-0.578502	0.492932
H88	H	1.352372	-0.333487	0.806206
H89	H	0.784989	-0.484022	0.328176
H90	H	1.661836	-0.189083	1.340074
H91	H	1.252783	-0.445299	0.684129
C92	C	1.526418	-0.623696	0.762633
C93	C	1.565236	-0.675290	0.663116
C94	C	1.678004	-0.659008	0.623956
C95	C	1.751955	-0.591132	0.684313
C96	C	1.713138	-0.539533	0.783836
C97	C	1.600370	-0.555815	0.822996
H98	H	1.510492	-0.725540	0.618431
H99	H	1.706738	-0.697205	0.550283
H100	H	1.835433	-0.579079	0.655325
H101	H	1.767882	-0.489282	0.828522
H102	H	1.571636	-0.517618	0.896669
H103	H	0.749983	-0.766545	0.176442
H104	H	1.539859	-0.300998	1.240507
C105	C	1.941158	-0.243152	1.101194
C106	C	2.015117	-0.175288	1.161557
C107	C	2.127893	-0.159026	1.122408
C108	C	2.166709	-0.210629	1.022895
C109	C	2.092748	-0.278497	0.962526
C110	C	1.979973	-0.294759	1.001676
H111	H	1.986384	-0.137085	1.235228
H112	H	2.182643	-0.108785	1.167097
H113	H	2.250192	-0.198591	0.993914
H114	H	2.121481	-0.316701	0.888856
H115	H	1.925223	-0.345000	0.956986
H116	H	1.287802	-0.162756	0.835794
C117	C	1.799949	-0.372711	0.985940
C118	C	1.837603	-0.313587	0.891106
C119	C	1.876407	-0.365184	0.791579
C120	C	1.877557	-0.475904	0.786886
C121	C	1.839903	-0.535034	0.881723
C122	C	1.801099	-0.483437	0.981250
H123	H	1.836752	-0.231620	0.894578
H124	H	1.904281	-0.321412	0.721375
H125	H	1.906282	-0.514099	0.713210
H126	H	1.840753	-0.617001	0.878251
H127	H	1.773224	-0.527209	1.051455
C128	C	1.867059	-0.144634	1.291186
C129	C	1.894575	-0.165758	1.406418
C130	C	1.968533	-0.097893	1.466792
C131	C	2.014976	-0.008905	1.411934
C132	C	1.987461	0.012223	1.296695
C133	C	1.913503	-0.055641	1.236321
H134	H	1.860195	-0.231636	1.447033
H135	H	1.988902	-0.113534	1.552099
H136	H	2.069725	0.041333	1.456626
H137	H	2.021842	0.078102	1.256080
H138	H	1.893135	-0.040001	1.151014
H139	H	0.919429	-0.352887	0.628259
H140	H	1.396554	-0.576341	1.106156
C141	C	1.237032	-0.556285	1.027389
C142	C	1.124268	-0.572560	1.066549
C143	C	1.085457	-0.520969	1.166078
C144	C	1.159411	-0.453105	1.226447
C145	C	1.272182	-0.436828	1.187288
C146	C	1.310993	-0.488418	1.087759
H147	H	1.069517	-0.622800	1.021859
H148	H	1.001977	-0.533019	1.195065
H149	H	1.130681	-0.414915	1.300124
H150	H	1.326933	-0.386587	1.231978
H151	H	1.394474	-0.476368	1.058772
H152	H	1.125136	-0.681632	0.901961
H153	H	1.375158	-0.739879	0.673243
H154	H	1.189162	-0.766731	0.737811
H155	H	1.023942	-0.215715	0.621330
H156	H	0.685143	-0.595964	0.206437
H157	H	0.914163	-0.825459	0.268931
