data_functionalizedCrystal
_audit_creation_method	'MofGen! by Chris Wilmer'
_symmetry_space_group_name_H-M	'P1'
_symmetry_Int_Tables_number	1
_symmetry_cell_setting	triclinic
loop_
_symmetry_equiv_pos_as_xyz
  x,y,z
_cell_length_a	16.974800
_cell_length_b	8.559649
_cell_length_c	15.455313
_cell_angle_alpha	92.288925
_cell_angle_beta	90.973911
_cell_angle_gamma	76.598529
loop_
_atom_site_label
_atom_site_type_symbol
_atom_site_fract_x
_atom_site_fract_y
_atom_site_fract_z
O1	O	1.036751	0.203632	0.000676
O2	O	0.805841	0.228027	-0.015540
O3	O	0.941639	-0.016681	-0.006001
O4	O	0.900953	0.448340	-0.008863
O5	O	0.933877	-0.002745	0.137716
O6	O	0.798079	0.241963	0.128177
O7	O	1.028988	0.217568	0.144393
Cu8	Cu	0.912825	0.231038	0.149408
Cu9	Cu	0.922005	0.214557	-0.020554
O10	O	0.893191	0.462276	0.134854
C11	C	0.772673	0.233812	0.054261
C12	C	0.685406	0.230267	0.048133
C13	C	0.940842	-0.069229	0.066073
C14	C	0.950020	-0.246568	0.066713
C15	C	0.640181	0.236195	0.123595
C16	C	0.558188	0.232839	0.117839
C17	C	0.521418	0.223567	0.036620
C18	C	0.566650	0.217634	-0.038849
C19	C	0.648643	0.220979	-0.033092
C20	C	0.276649	0.212739	0.011002
C21	C	0.194649	0.209400	0.005250
C22	C	0.186193	0.224601	0.161939
C23	C	0.268188	0.227955	0.167689
C24	C	0.313412	0.222014	0.092220
N25	N	0.437607	0.220142	0.030734
N26	N	0.397224	0.225428	0.098107
C27	C	1.062157	0.211783	0.074590
C28	C	1.149425	0.215327	0.080713
C29	C	0.893989	0.514824	0.062779
C30	C	0.884811	0.692162	0.062132
N31	N	0.906375	0.242628	0.268950
N32	N	0.928462	0.202954	-0.140096
C33	C	0.964082	0.138706	0.318398
C34	C	0.959210	0.147487	0.408863
C35	C	0.896634	0.260198	0.449880
C36	C	0.838921	0.364124	0.400425
C37	C	0.843790	0.355335	0.309961
C38	C	0.875619	0.298092	0.719985
C39	C	0.870755	0.306876	0.810456
C40	C	0.991044	0.090235	0.818888
C41	C	0.995911	0.081463	0.728422
C42	C	0.938195	0.185384	0.678975
N43	N	0.891654	0.269179	0.542350
N44	N	0.943173	0.176394	0.586506
H45	H	0.521372	0.237639	0.179290
O46	O	1.024945	-0.346062	0.071935
C47	C	1.017737	-0.506914	0.071449
H48	H	0.957690	-0.516061	0.039922
H49	H	1.019890	-0.548406	0.140810
C50	C	1.161822	-0.602980	0.058534
C51	C	1.088073	-0.614217	0.019805
H52	H	1.205210	-0.669173	0.026681
H53	H	1.166679	-0.494612	0.058864
H54	H	1.163604	-0.637554	0.116333
H55	H	1.086288	-0.579624	-0.037989
H56	H	1.083218	-0.722582	0.019464
H57	H	0.821956	-0.224614	0.057725
H58	H	1.015041	0.046932	0.285009
H59	H	1.006199	0.062864	0.449124
O60	O	0.809885	0.416400	0.850161
C61	C	0.759995	0.506260	0.787121
H62	H	0.766546	0.434504	0.722854
H63	H	0.778891	0.624154	0.778779
C64	C	0.663080	0.630223	0.895277
C65	C	0.671120	0.542085	0.816345
H66	H	0.608257	0.652329	0.913304
H67	H	0.696692	0.569688	0.937749
H68	H	0.678831	0.728458	0.888315
H69	H	0.655379	0.443844	0.823310
H70	H	0.637503	0.602605	0.773874
O71	O	1.056727	-0.028172	0.688717
C72	C	1.106630	-0.117990	0.751762
H73	H	1.070973	-0.113717	0.813997
H74	H	1.161489	-0.064854	0.765253
C75	C	1.178994	-0.298903	0.641898
C76	C	1.135198	-0.293665	0.718334
H77	H	1.196620	-0.407266	0.621278
H78	H	1.145377	-0.238388	0.599423
H79	H	1.224705	-0.254614	0.653151
H80	H	1.089483	-0.337934	0.707077
H81	H	1.168809	-0.354192	0.760806
O82	O	0.787798	0.456514	0.261968
C83	C	0.789824	0.616869	0.284298
H84	H	0.851506	0.620428	0.313576
H85	H	0.740494	0.668642	0.333550
C86	C	0.699591	0.712917	0.166650
C87	C	0.775353	0.717289	0.202603
H88	H	0.690661	0.774865	0.116258
H89	H	0.698223	0.604884	0.151607
H90	H	0.658492	0.756059	0.207701
H91	H	0.816451	0.674130	0.161556
H92	H	0.776727	0.825319	0.217637
H93	H	0.149363	0.229436	0.223381
O94	O	0.675896	0.245483	0.202471
C95	C	0.705794	0.386070	0.209271
H96	H	0.671398	0.477363	0.162230
H97	H	0.772983	0.355314	0.192863
C98	C	0.736402	0.345735	0.360183
C99	C	0.694151	0.457868	0.302412
H100	H	0.729224	0.390022	0.417637
H101	H	0.716262	0.251016	0.355602
H102	H	0.792389	0.320115	0.346499
H103	H	0.638165	0.483471	0.316090
H104	H	0.714282	0.552595	0.306997
O105	O	0.778109	0.473400	0.440362
C106	C	0.731865	0.392655	0.489645
H107	H	0.770079	0.269149	0.505932
H108	H	0.676178	0.378084	0.450756
C109	C	0.658019	0.642662	0.554006
C110	C	0.704956	0.490976	0.574016
H111	H	0.641417	0.703313	0.606048
H112	H	0.689172	0.697064	0.520801
H113	H	0.611619	0.630498	0.521597
H114	H	0.751360	0.503141	0.606415
H115	H	0.673810	0.436578	0.607229
H116	H	1.038032	0.005626	0.859155
H117	H	0.685464	0.216155	-0.094542
H118	H	0.164714	0.201854	-0.060892
O119	O	0.303786	0.236892	0.246656
C120	C	0.246281	0.241449	0.312029
H121	H	0.195396	0.186304	0.285406
H122	H	0.220237	0.371467	0.334374
C123	C	0.349880	0.213014	0.421914
C124	C	0.287386	0.145272	0.389218
H125	H	0.375235	0.153694	0.469530
H126	H	0.388622	0.209950	0.377872
H127	H	0.328168	0.321360	0.440528
H128	H	0.309100	0.036935	0.370594
H129	H	0.248648	0.148315	0.433259
O130	O	0.320447	0.207029	-0.062392
C131	C	0.270413	0.198091	-0.135309
H132	H	0.204405	0.248473	-0.116887
H133	H	0.279007	0.067362	-0.158878
C134	C	0.374388	0.234983	-0.230633
C135	C	0.293315	0.296876	-0.208008
H136	H	0.388516	0.295912	-0.275479
H137	H	0.408098	0.240999	-0.181508
H138	H	0.381539	0.126044	-0.250269
H139	H	0.286167	0.405806	-0.188363
H140	H	0.259604	0.290881	-0.257132
H141	H	0.536707	0.210074	-0.104980
H142	H	0.828626	0.382711	0.679733
