data_functionalizedCrystal
_audit_creation_method	'MofGen! by Chris Wilmer'
_symmetry_space_group_name_H-M	'P1'
_symmetry_Int_Tables_number	1
_symmetry_cell_setting	triclinic
loop_
_symmetry_equiv_pos_as_xyz
  x,y,z
_cell_length_a	19.288862
_cell_length_b	15.455320
_cell_length_c	19.288865
_cell_angle_alpha	87.336526
_cell_angle_beta	96.864237
_cell_angle_gamma	87.325106
loop_
_atom_site_label
_atom_site_type_symbol
_atom_site_fract_x
_atom_site_fract_y
_atom_site_fract_z
O1	O	-0.924405	0.072476	0.083566
O2	O	-0.424405	0.572476	0.583566
O3	O	-0.722142	0.072406	0.095259
O4	O	-0.222142	0.572406	0.595259
O5	O	-0.829117	0.072426	-0.011717
O6	O	-0.329117	0.572426	0.488283
O7	O	-0.817430	0.072456	0.190542
O8	O	-0.317430	0.572456	0.690542
O9	O	-0.823025	-0.071837	-0.005602
O10	O	-0.323025	0.428163	0.494398
O11	O	-0.716049	-0.071857	0.101375
O12	O	-0.216049	0.428143	0.601375
O13	O	-0.918313	-0.071787	0.089681
O14	O	-0.418313	0.428213	0.589681
Cu15	Cu	-0.816625	-0.084995	0.096086
Cu16	Cu	-0.316625	0.415005	0.596086
Cu17	Cu	-0.823830	0.085613	0.088854
Cu18	Cu	-0.323830	0.585613	0.588854
O19	O	-0.811337	-0.071807	0.196658
O20	O	-0.311337	0.428193	0.696658
C21	C	-0.693219	0.000265	0.097942
C22	C	-0.193219	0.500265	0.597942
C23	C	-0.616114	0.000237	0.096814
C24	C	-0.116114	0.500237	0.596814
N25	N	-0.811562	-0.204991	0.101173
N26	N	-0.311562	0.295009	0.601173
C27	C	-0.825695	0.000291	-0.034536
C28	C	-0.325695	0.500291	0.465464
C29	C	-0.824566	0.000283	-0.111639
C30	C	-0.324566	0.500283	0.388361
C31	C	-0.571418	0.000258	0.159582
C32	C	-0.071418	0.500258	0.659582
C33	C	-0.498971	0.000263	0.158522
C34	C	0.001029	0.500263	0.658522
C35	C	-0.471224	0.000265	0.094689
C36	C	0.028776	0.500265	0.594689
C37	C	-0.515929	0.000239	0.031914
C38	C	-0.015929	0.500239	0.531914
C39	C	-0.588374	0.000225	0.032977
C40	C	-0.088374	0.500225	0.532977
C41	C	-0.365097	0.050821	0.042368
C42	C	0.134903	0.550821	0.542368
C43	C	-0.292653	0.050840	0.041308
C44	C	0.207347	0.550840	0.541308
C45	C	-0.247780	0.000303	0.091410
C46	C	0.252220	0.500303	0.591410
C47	C	-0.275358	-0.050242	0.142584
C48	C	0.224642	0.449758	0.642584
C49	C	-0.347803	-0.050256	0.143646
C50	C	0.152197	0.449744	0.643646
C51	C	-0.392670	0.000279	0.093530
C52	C	0.107330	0.500279	0.593530
C53	C	-0.124528	0.000328	0.153032
C54	C	0.375472	0.500328	0.653032
C55	C	-0.052080	0.000327	0.151970
C56	C	0.447920	0.500327	0.651970
C57	C	-0.069040	0.000312	0.025360
C58	C	0.430960	0.500312	0.525360
C59	C	-0.141486	0.000304	0.026425
C60	C	0.358514	0.500304	0.526425
C61	C	-0.169226	0.000316	0.090263
C62	C	0.330774	0.500316	0.590263
C63	C	0.052765	0.000340	0.087002
C64	C	0.552765	0.500340	0.587002
C65	C	-0.024338	0.000328	0.088137
C66	C	0.475662	0.500328	0.588137
C67	C	-0.783441	-0.749004	0.129198
C68	C	-0.283441	-0.249004	0.629198
C69	C	-0.787284	-0.658195	0.125365
C70	C	-0.287284	-0.158195	0.625365
C71	C	-0.836589	-0.612775	0.076099
C72	C	-0.336589	-0.112775	0.576099
C73	C	-0.882049	-0.658168	0.030659
C74	C	-0.382049	-0.158168	0.530659
C75	C	-0.878201	-0.748975	0.034489
C76	C	-0.378201	-0.248975	0.534489
C77	C	-0.853174	-0.341191	0.059563
C78	C	-0.353174	0.158809	0.559563
C79	C	-0.857020	-0.250378	0.055737
C80	C	-0.357020	0.249622	0.555737
C81	C	-0.762254	-0.250411	0.150443
C82	C	-0.262254	0.249589	0.650443
C83	C	-0.758414	-0.341219	0.154272
C84	C	-0.258414	0.158781	0.654272
C85	C	-0.803871	-0.386605	0.108829
C86	C	-0.303871	0.113395	0.608829
N87	N	-0.840521	-0.519954	0.072181
N88	N	-0.340521	-0.019954	0.572181
N89	N	-0.799935	-0.479424	0.112744
N90	N	-0.299935	0.020576	0.612744
N91	N	-0.828898	0.205609	0.083763
N92	N	-0.328898	0.705609	0.583763
C93	C	-0.887334	0.000301	-0.156336
C94	C	-0.387334	0.500301	0.343664
C95	C	-0.886274	0.000314	-0.228784
C96	C	-0.386274	0.500314	0.271216
C97	C	-0.822441	0.000293	-0.256530
C98	C	-0.322441	0.500293	0.243470
C99	C	-0.759664	0.000280	-0.211823
C100	C	-0.259664	0.500280	0.288177
C101	C	-0.760727	0.000275	-0.139377
C102	C	-0.260727	0.500275	0.360623
C103	C	-0.770127	-0.050257	-0.362674
C104	C	-0.270127	0.449743	0.137326
C105	C	-0.769067	-0.050258	-0.435119
C106	C	-0.269067	0.449742	0.064881
C107	C	-0.819162	0.000311	-0.479977
C108	C	-0.319162	0.500311	0.020023
C109	C	-0.870329	0.050869	-0.452382
C110	C	-0.370329	0.550869	0.047618
C111	C	-0.871391	0.050864	-0.379936
C112	C	-0.371391	0.550864	0.120064
C113	C	-0.821282	0.000298	-0.335084
C114	C	-0.321282	0.500298	0.164916
C115	C	-0.880786	0.000344	-0.603231
C116	C	-0.380786	0.500344	-0.103231
C117	C	-0.879723	0.000363	-0.675680
C118	C	-0.379723	0.500363	-0.175680
C119	C	-0.753111	0.000320	-0.658716
C120	C	-0.253111	0.500320	-0.158716
C121	C	-0.754176	0.000310	-0.586270
C122	C	-0.254176	0.500310	-0.086270
C123	C	-0.818015	0.000318	-0.558531
C124	C	-0.318015	0.500318	-0.058531
C125	C	-0.814760	0.000329	0.219476
C126	C	-0.314760	0.500329	0.719476
C127	C	-0.815889	0.000343	0.296579
C128	C	-0.315889	0.500343	0.796579
H129	H	-0.593999	0.000269	0.211563
H130	H	-0.093999	0.500269	0.711563
Cl131	Cl	-0.442772	0.000286	0.237435
Cl132	Cl	0.057228	0.500286	0.737435
Cl133	Cl	-0.382471	-0.113799	0.207972
Cl134	Cl	0.117529	0.386201	0.707972
H135	H	-0.915216	-0.785928	-0.002510
H136	H	-0.415216	-0.285928	0.497490
H137	H	-0.147115	0.000324	0.205013
H138	H	0.352885	0.500324	0.705013
Cl139	Cl	-0.679417	0.000260	-0.246703
Cl140	Cl	-0.179417	0.500260	0.253297
H141	H	-0.750269	-0.621242	0.162362
H142	H	-0.250269	-0.121242	0.662362
Cl143	Cl	-0.707145	-0.113838	-0.306288
Cl144	Cl	-0.207145	0.386162	0.193712
H145	H	-0.703062	0.000291	-0.549875
H146	H	-0.203062	0.500291	-0.049875
Cl147	Cl	-0.933310	0.114447	-0.508767
Cl148	Cl	-0.433310	0.614447	-0.008767
H149	H	-0.727401	-0.091420	-0.457580
H150	H	-0.227401	0.408580	0.042420
H151	H	-0.238823	-0.091395	0.183381
H152	H	0.261177	0.408605	0.683381
Cl153	Cl	-0.197678	0.000283	-0.052488
Cl154	Cl	0.302322	0.500283	0.447512
Cl155	Cl	0.004111	0.000349	0.230885
Cl156	Cl	0.504111	0.500349	0.730885
H157	H	-0.718266	-0.378199	0.194388
H158	H	-0.218266	0.121801	0.694388
Cl159	Cl	-0.967590	0.000336	-0.121470
Cl160	Cl	-0.467590	0.500336	0.378530
H161	H	-0.725244	-0.213450	0.187440
H162	H	-0.225244	0.286550	0.687440
H163	H	-0.897173	-0.213401	0.015617
H164	H	-0.397173	0.286599	0.515617
Cl165	Cl	-0.681810	0.000253	-0.083183
Cl166	Cl	-0.181810	0.500253	0.416817
H167	H	-0.046451	0.000368	-0.026616
H168	H	0.453549	0.500368	0.473384
Cl169	Cl	-0.721457	-0.806093	0.191139
Cl170	Cl	-0.221457	-0.306093	0.691139
H171	H	-0.270205	0.092001	-0.000358
H172	H	0.229795	0.592001	0.499642
H173	H	-0.890188	-0.378137	0.022562
H174	H	-0.390188	0.121863	0.522562
H175	H	-0.922192	-0.621182	-0.009458
H176	H	-0.422192	-0.121182	0.490542
Cl177	Cl	-0.965189	0.000337	-0.284986
Cl178	Cl	-0.465189	0.500337	0.215014
H179	H	-0.401628	0.091980	0.001567
H180	H	0.098372	0.591980	0.501567
Cl181	Cl	-0.935707	0.114426	-0.345248
Cl182	Cl	-0.435707	0.614426	0.154752
H183	H	-0.701137	0.000307	-0.681307
H184	H	-0.201137	0.500307	-0.181307
Cl185	Cl	-0.481047	0.000236	-0.048332
Cl186	Cl	0.018953	0.500236	0.451668
H187	H	-0.624766	0.000209	-0.018138
H188	H	-0.124766	0.500209	0.481862
Cl189	Cl	-0.961038	0.000349	-0.568356
Cl190	Cl	-0.461038	0.500349	-0.068356
H191	H	-0.930839	0.000382	-0.712073
H192	H	-0.430839	0.500382	-0.212073
