data_functionalizedCrystal
_audit_creation_method	'MofGen! by Chris Wilmer'
_symmetry_space_group_name_H-M	'P1'
_symmetry_Int_Tables_number	1
_symmetry_cell_setting	triclinic
loop_
_symmetry_equiv_pos_as_xyz
  x,y,z
_cell_length_a	13.897449
_cell_length_b	13.897441
_cell_length_c	17.077402
_cell_angle_alpha	89.970213
_cell_angle_beta	90.024772
_cell_angle_gamma	89.981404
loop_
_atom_site_label
_atom_site_type_symbol
_atom_site_fract_x
_atom_site_fract_y
_atom_site_fract_z
Zn1	Zn	1.474643	-0.545380	-0.312464
Zn2	Zn	1.807977	-0.212047	0.020869
Zn3	Zn	2.141310	0.121287	0.354203
Zn4	Zn	1.474527	-0.384081	-0.443744
Zn5	Zn	1.807860	-0.050748	-0.110411
Zn6	Zn	2.141194	0.282586	0.222923
Zn7	Zn	1.313339	-0.384098	-0.312499
Zn8	Zn	1.646672	-0.050765	0.020834
Zn9	Zn	1.980005	0.282568	0.354168
Zn10	Zn	1.313298	-0.545334	-0.443695
Zn11	Zn	1.646631	-0.212000	-0.110361
Zn12	Zn	1.979965	0.121333	0.222972
O13	O	1.393952	-0.464723	-0.378100
O14	O	1.727285	-0.131390	-0.044767
O15	O	2.060618	0.201943	0.288566
O16	O	1.609610	-0.523996	-0.329884
O17	O	1.942943	-0.190662	0.003449
O18	O	2.276276	0.142671	0.336782
O19	O	1.453113	-0.249102	-0.426369
O20	O	1.786447	0.084232	-0.093036
O21	O	2.119780	0.417565	0.240297
O22	O	1.334802	-0.405520	-0.202647
O23	O	1.668135	-0.072186	0.130686
O24	O	2.001468	0.261147	0.464019
O25	O	1.609524	-0.405490	-0.426335
O26	O	1.942857	-0.072156	-0.093002
O27	O	2.276191	0.261177	0.240331
O28	O	1.453312	-0.524012	-0.202622
O29	O	1.786645	-0.190679	0.130712
O30	O	2.119978	0.142654	0.464045
O31	O	1.334689	-0.249114	-0.329944
O32	O	1.668022	0.084219	0.003389
O33	O	2.001356	0.417552	0.336722
O34	O	1.178352	-0.405475	-0.329896
O35	O	1.511685	-0.072141	0.003437
O36	O	1.845018	0.261192	0.336770
O37	O	1.334732	-0.680322	-0.426251
O38	O	1.668066	-0.346988	-0.092918
O39	O	2.001399	-0.013655	0.240416
O40	O	1.178322	-0.523933	-0.426285
O41	O	1.511655	-0.190600	-0.092952
O42	O	1.844988	0.142733	0.240381
O43	O	1.453272	-0.680356	-0.329837
O44	O	1.786606	-0.347022	0.003497
O45	O	2.119939	-0.013689	0.336830
O46	O	1.453074	-0.405445	-0.553584
O47	O	1.786407	-0.072111	-0.220251
O48	O	2.119741	0.261222	0.113082
O49	O	1.334620	-0.523916	-0.553548
O50	O	1.667953	-0.190583	-0.220215
O51	O	2.001286	0.142750	0.113119
C52	C	1.143337	-0.464701	-0.378090
C53	C	1.476671	-0.131368	-0.044757
C54	C	1.810004	0.201965	0.288577
C55	C	1.036123	-0.464715	-0.378104
C56	C	1.369457	-0.131381	-0.044771
C57	C	1.702790	0.201952	0.288562
C58	C	1.394011	-0.716316	-0.378034
C59	C	1.727344	-0.382983	-0.044701
C60	C	2.060677	-0.049650	0.288632
C61	C	1.394036	-0.823530	-0.378006
C62	C	1.727369	-0.490197	-0.044673
C63	C	2.060703	-0.156864	0.288660
C64	C	1.393856	-0.464695	-0.582048
C65	C	1.727189	-0.131361	-0.248715
C66	C	2.060523	0.201972	0.084618
C67	C	1.393903	-0.464715	-0.669298
C68	C	1.727237	-0.131381	-0.335965
C69	C	2.060570	0.201952	-0.002631
C70	C	0.839828	-0.464740	-0.378107
C71	C	1.173162	-0.131407	-0.044774
C72	C	1.506495	0.201927	0.288560
C73	C	0.949061	-0.464723	-0.378103
C74	C	1.282394	-0.131390	-0.044770
C75	C	1.615728	0.201943	0.288564
C76	C	1.645545	-0.464746	-0.378111
C77	C	1.978878	-0.131413	-0.044778
C78	C	2.312211	0.201921	0.288555
C79	C	1.752759	-0.464756	-0.378116
C80	C	2.086092	-0.131422	-0.044783
C81	C	2.419425	0.201911	0.288551
C82	C	1.394056	-0.910600	-0.377984
C83	C	1.727389	-0.577267	-0.044651
C84	C	2.060722	-0.243934	0.288683
C85	C	1.394083	-1.019833	-0.377949
C86	C	1.727417	-0.686500	-0.044615
C87	C	2.060750	-0.353166	0.288718
C88	C	1.393948	-0.214109	-0.378109
C89	C	1.727282	0.119224	-0.044776
C90	C	2.060615	0.452558	0.288557
C91	C	1.394110	-0.106896	-0.377916
C92	C	1.727443	0.226438	-0.044583
C93	C	2.060777	0.559771	0.288750
C94	C	1.455578	-0.526464	-0.710207
C95	C	1.788911	-0.193130	-0.376874
C96	C	2.122244	0.140203	-0.043540
C97	C	1.455618	-0.526484	-0.792188
C98	C	1.788952	-0.193151	-0.458854
C99	C	2.122285	0.140183	-0.125521
C100	C	1.393988	-0.464750	-0.833257
C101	C	1.727322	-0.131417	-0.499924
C102	C	2.060655	0.201917	-0.166591
C103	C	1.332307	-0.402998	-0.792342
C104	C	1.665640	-0.069665	-0.459009
C105	C	1.998974	0.263668	-0.125676
C106	C	1.332262	-0.402984	-0.710364
C107	C	1.665596	-0.069650	-0.377030
C108	C	1.998929	0.263683	-0.043697
C109	C	1.332406	-0.403032	-0.963212
C110	C	1.665740	-0.069699	-0.629879
C111	C	1.999073	0.263635	-0.296546
C112	C	1.332452	-0.403046	-1.045197
C113	C	1.665785	-0.069712	-0.711864
C114	C	1.999119	0.263621	-0.378530
C115	C	1.455762	-0.526533	-1.045037
C116	C	1.789095	-0.193199	-0.711703
C117	C	2.122429	0.140134	-0.378370
C118	C	1.455717	-0.526518	-0.963058
C119	C	1.789051	-0.193184	-0.629724
C120	C	2.122384	0.140149	-0.296391
C121	C	1.394037	-0.464765	-0.922148
C122	C	1.727370	-0.131431	-0.588815
C123	C	2.060704	0.201902	-0.255482
C124	C	1.394074	-0.464773	-0.173356
C125	C	1.727407	-0.131440	0.159977
C126	C	2.060741	0.201894	0.493311
C127	C	1.394126	-0.464794	-0.086106
C128	C	1.727460	-0.131461	0.247227
C129	C	2.060793	0.201872	0.580560
H130	H	1.505768	-0.576730	-0.676774
H131	H	1.839101	-0.243397	-0.343440
H132	H	2.172435	0.089936	-0.010107
Cl133	Cl	1.533143	-0.604128	-0.843613
Cl134	Cl	1.866476	-0.270794	-0.510280
Cl135	Cl	2.199809	0.062539	-0.176946
H136	H	1.505906	-0.576781	-0.929619
H137	H	1.839239	-0.243448	-0.596285
H138	H	2.172572	0.089886	-0.262952
Cl139	Cl	1.533306	-0.604162	-1.096465
Cl140	Cl	1.866639	-0.270829	-0.763131
Cl141	Cl	2.199972	0.062504	-0.429798
Cl142	Cl	1.254866	-0.325396	-0.911785
Cl143	Cl	1.588199	0.007937	-0.578452
Cl144	Cl	1.921533	0.341271	-0.245118
Cl145	Cl	1.254819	-0.325399	-0.843973
Cl146	Cl	1.588153	0.007934	-0.510640
Cl147	Cl	1.921486	0.341268	-0.177307
Cl148	Cl	1.254724	-0.325354	-0.658935
Cl149	Cl	1.588057	0.007979	-0.325601
Cl150	Cl	1.921391	0.341312	0.007732
H151	H	1.282263	-0.352780	-1.078634
H152	H	1.615597	-0.019447	-0.745301
H153	H	1.948930	0.313886	-0.411967
