data_functionalizedCrystal
_audit_creation_method	'MofGen! by Chris Wilmer'
_symmetry_space_group_name_H-M	'P1'
_symmetry_Int_Tables_number	1
_symmetry_cell_setting	triclinic
loop_
_symmetry_equiv_pos_as_xyz
  x,y,z
_cell_length_a	17.077404
_cell_length_b	12.759400
_cell_length_c	17.077396
_cell_angle_alpha	90.024901
_cell_angle_beta	90.019501
_cell_angle_gamma	90.014870
loop_
_atom_site_label
_atom_site_type_symbol
_atom_site_fract_x
_atom_site_fract_y
_atom_site_fract_z
Zn1	Zn	1.200100	-0.418260	0.443862
Zn2	Zn	1.200026	-0.593961	0.312604
Zn3	Zn	1.068831	-0.418297	0.312610
Zn4	Zn	1.068818	-0.593898	0.443828
O5	O	1.134444	-0.506104	0.378226
O6	O	1.309937	-0.441578	0.426463
O7	O	1.182597	-0.570700	0.202758
O8	O	1.086281	-0.271271	0.330038
O9	O	1.309882	-0.570664	0.330028
O10	O	1.182723	-0.271244	0.426468
O11	O	1.086209	-0.441641	0.202762
O12	O	0.958983	-0.441580	0.330005
O13	O	1.086258	-0.570558	0.553680
O14	O	0.958973	-0.570594	0.426410
O15	O	1.182710	-0.441517	0.553705
O16	O	1.182584	-0.740973	0.329995
O17	O	1.086187	-0.740927	0.426404
C18	C	0.930496	-0.506085	0.378205
C19	C	0.843246	-0.506102	0.378214
C20	C	0.802271	-0.573381	0.428332
C21	C	0.720291	-0.573383	0.428344
C22	C	0.679287	-0.506111	0.378234
C23	C	0.720267	-0.438825	0.328115
C24	C	0.802246	-0.438818	0.328107
C25	C	0.549397	-0.438846	0.328133
C26	C	0.467412	-0.438854	0.328140
C27	C	0.467442	-0.573410	0.428371
C28	C	0.549421	-0.573404	0.428363
C29	C	0.590396	-0.506119	0.378242
C30	C	1.134397	-0.779071	0.378212
C31	C	1.134449	-0.895848	0.378233
C32	C	1.184645	-0.950606	0.428487
C33	C	1.184689	-1.060330	0.428508
C34	C	1.084340	-1.060528	0.328014
C35	C	1.084292	-0.950806	0.327998
C36	C	1.212748	-1.210169	0.521132
C37	C	1.262956	-1.264931	0.571379
C38	C	1.339527	-1.229224	0.583495
C39	C	1.365906	-1.138757	0.545352
C40	C	1.315703	-1.084001	0.495099
C41	C	1.239120	-1.119706	0.482999
C42	C	1.056241	-0.800965	0.235372
C43	C	1.006041	-0.746207	0.185115
C44	C	0.929468	-0.781912	0.172991
C45	C	0.903092	-0.872382	0.211120
C46	C	0.953292	-0.927140	0.261377
C47	C	1.029864	-0.891428	0.273502
C48	C	1.339188	-0.506124	0.378248
C49	C	1.426438	-0.506132	0.378258
C50	C	1.134491	-0.506026	0.582971
C51	C	1.134511	-0.505993	0.670220
C52	C	1.134512	-0.232071	0.378257
C53	C	1.134541	-0.115294	0.378271
C54	C	1.134442	-0.506105	0.174278
C55	C	1.134573	-0.505842	0.087029
C56	C	1.184736	-0.438796	0.711225
C57	C	1.184745	-0.438761	0.793205
C58	C	1.134534	-0.505930	0.834180
C59	C	1.084304	-0.573130	0.793170
C60	C	1.084291	-0.573159	0.711191
C61	C	1.084335	-0.573066	0.964040
C62	C	1.084349	-0.573039	1.046025
C63	C	1.184790	-0.438669	1.046055
C64	C	1.184777	-0.438698	0.964076
C65	C	1.134548	-0.505900	0.923071
H66	H	1.225485	-0.905861	0.469392
H67	H	1.150395	-1.239244	0.511280
N68	N	1.030152	-0.645582	0.837362
H69	H	0.998333	-0.688155	0.798944
H70	H	0.993842	-0.602804	0.871377
N71	N	1.238902	-0.366357	0.667038
H72	H	1.275264	-0.409077	0.633033
H73	H	1.270666	-0.323804	0.705511
H74	H	0.686933	-0.628169	0.469154
N75	N	1.030252	-1.119805	0.273827
H76	H	1.037901	-1.197623	0.281458
H77	H	1.042499	-1.100653	0.217776
N78	N	1.030114	-0.645625	0.666960
H79	H	0.998306	-0.688171	0.705355
H80	H	1.062042	-0.694263	0.632942
H81	H	1.337181	-1.010346	0.464043
H82	H	0.686875	-0.384046	0.287318
N83	N	0.593650	-0.645968	0.482401
H84	H	0.555255	-0.688594	0.514154
H85	H	0.627688	-0.603262	0.518778
H86	H	1.428262	-1.109698	0.555214
H87	H	1.225668	-0.384010	0.930716
H88	H	0.582756	-0.384046	0.287327
H89	H	0.835651	-0.628165	0.469134
H90	H	0.835606	-0.384027	0.287300
N91	N	0.423252	-0.645984	0.482430
H92	H	0.437501	-0.721025	0.470130
H93	H	0.365111	-0.635689	0.474807
N94	N	1.393683	-1.288288	0.637686
H95	H	1.365355	-1.351014	0.660007
H96	H	1.410763	-1.240649	0.681744
H97	H	0.434029	-0.384062	0.287346
N98	N	0.924847	-1.024723	0.302502
H99	H	0.878390	-1.006797	0.336549
H100	H	0.968318	-1.053945	0.336133
N101	N	0.820504	-0.910907	0.198044
H102	H	0.792705	-0.862490	0.160422
H103	H	0.791581	-0.912045	0.249611
H104	H	1.241470	-1.338590	0.602435
N105	N	1.238900	-0.366264	0.837433
H106	H	1.270705	-0.323717	0.799036
H107	H	1.275224	-0.409004	0.871458
N108	N	0.875324	-0.722861	0.118776
H109	H	0.903651	-0.660134	0.096453
H110	H	0.827817	-0.698524	0.148926
N111	N	1.034489	-0.648632	0.143981
H112	H	1.090614	-0.634314	0.159290
H113	H	1.000682	-0.587181	0.159667
N114	N	1.138828	-0.762440	0.248465
H115	H	1.147921	-0.696821	0.216682
H116	H	1.177123	-0.818394	0.231652
N117	N	1.238969	-0.366189	1.090275
H118	H	1.231357	-0.376357	1.148426
H119	H	1.226773	-0.291158	1.075950
H120	H	1.043461	-0.627731	1.079384
N121	N	1.030157	-0.645541	0.919811
H122	H	0.998352	-0.688091	0.958206
H123	H	1.062093	-0.694176	0.885796
