data_functionalizedCrystal
_audit_creation_method	'MofGen! by Chris Wilmer'
_symmetry_space_group_name_H-M	'P1'
_symmetry_Int_Tables_number	1
_symmetry_cell_setting	triclinic
loop_
_symmetry_equiv_pos_as_xyz
  x,y,z
_cell_length_a	9.565339
_cell_length_b	19.288864
_cell_length_c	19.288865
_cell_angle_alpha	96.863755
_cell_angle_beta	89.995006
_cell_angle_gamma	90.017383
loop_
_atom_site_label
_atom_site_type_symbol
_atom_site_fract_x
_atom_site_fract_y
_atom_site_fract_z
O1	O	-0.116724	-0.921348	0.086643
O2	O	-0.116631	-0.719087	0.098331
O3	O	-0.116652	-0.826062	-0.008643
O4	O	-0.116702	-0.814373	0.193617
O5	O	0.115868	-0.826054	-0.008637
O6	O	0.115889	-0.719079	0.098338
O7	O	0.115796	-0.921339	0.086649
Zn8	Zn	0.152760	-0.820208	0.092495
Zn9	Zn	-0.153595	-0.820219	0.092486
O10	O	0.115818	-0.814365	0.193624
C11	C	-0.000358	-0.693207	0.097959
C12	C	-0.000321	-0.616103	0.096830
N13	N	0.361840	-0.820205	0.092500
N14	N	-0.362674	-0.820227	0.092475
C15	C	0.453053	-0.770718	0.141956
C16	C	0.546198	-0.833443	0.155238
C17	C	0.546250	-0.757508	0.079224
C18	C	0.452933	-0.882962	0.105813
C19	C	0.452976	-0.806985	0.029772
C20	C	0.546080	-0.869755	0.043027
C21	C	-0.000388	-0.825682	-0.034516
C22	C	-0.000375	-0.824553	-0.111620
C23	C	-0.000480	-0.947220	0.087022
C24	C	-0.000526	-1.024324	0.088151
C25	C	-0.000359	-0.571407	0.159598
C26	C	-0.000374	-0.498960	0.158537
C27	C	-0.000380	-0.471212	0.094705
C28	C	-0.000335	-0.515918	0.031929
C29	C	-0.000305	-0.588364	0.032991
C30	C	-0.081877	-0.362953	0.044523
C31	C	-0.081914	-0.290509	0.043463
C32	C	-0.000464	-0.247767	0.091425
C33	C	0.081007	-0.277476	0.140458
C34	C	0.081036	-0.349922	0.141521
C35	C	-0.000411	-0.392658	0.093546
C36	C	-0.000516	-0.124514	0.153047
C37	C	-0.000522	-0.052066	0.151984
C38	C	-0.000497	-0.069026	0.025374
C39	C	-0.000476	-0.141473	0.026439
C40	C	-0.000492	-0.169212	0.090278
C41	C	-0.000397	-0.887321	-0.156316
C42	C	-0.000419	-0.886260	-0.228763
C43	C	-0.000390	-0.822428	-0.256511
C44	C	-0.000376	-0.759652	-0.211805
C45	C	-0.000369	-0.760714	-0.139359
C46	C	0.081080	-0.772245	-0.364796
C47	C	0.081081	-0.771185	-0.437240
C48	C	-0.000420	-0.819148	-0.479956
C49	C	-0.081904	-0.868182	-0.450221
C50	C	-0.081896	-0.869245	-0.377775
C51	C	-0.000400	-0.821269	-0.335065
C52	C	-0.000468	-0.880770	-0.603209
C53	C	-0.000498	-0.879707	-0.675657
C54	C	-0.000441	-0.753097	-0.658697
C55	C	-0.000425	-0.754162	-0.586250
C56	C	-0.000432	-0.818000	-0.558511
C57	C	-0.000450	-0.814745	0.219497
C58	C	-0.000472	-0.815874	0.296601
H59	H	0.412206	-0.728906	0.183818
H60	H	0.412117	-0.936004	0.117095
H61	H	0.147377	-0.374109	0.181443
H62	H	-0.000350	-0.709599	-0.102967
H63	H	-0.000480	-0.932751	-0.580622
H64	H	-0.000453	-0.177866	-0.024674
C65	C	-0.000341	-0.689435	-0.242323
C66	C	-0.000316	-0.620388	-0.193154
C67	C	-0.000288	-0.550169	-0.223671
C68	C	-0.000287	-0.548996	-0.303358
C69	C	-0.000313	-0.618046	-0.352532
C70	C	-0.000340	-0.688265	-0.322015
H71	H	-0.000317	-0.621253	-0.134161
H72	H	-0.000269	-0.499054	-0.187269
H73	H	-0.000266	-0.497016	-0.325949
H74	H	-0.000311	-0.617181	-0.411525
H75	H	-0.000359	-0.739380	-0.358417
H76	H	0.411997	-0.795769	-0.023247
H77	H	0.587145	-0.844640	0.208274
H78	H	0.587242	-0.704476	0.068006
H79	H	-0.000545	-0.015674	0.203099
H80	H	-0.148270	-0.907238	-0.484999
C81	C	-0.171490	-0.409963	-0.008237
C82	C	-0.286377	-0.456388	0.017918
C83	C	-0.375988	-0.503396	-0.034840
C84	C	-0.350712	-0.503977	-0.113754
C85	C	-0.235819	-0.457550	-0.139913
C86	C	-0.146208	-0.410543	-0.087155
H87	H	-0.305093	-0.455959	0.076338
H88	H	-0.461039	-0.537764	-0.015475
H89	H	-0.417047	-0.538775	-0.152809
H90	H	-0.217104	-0.457979	-0.198333
H91	H	-0.061157	-0.376175	-0.106520
C92	C	0.600929	-0.926361	-0.013492
C93	C	0.563719	-1.003586	-0.010251
C94	C	0.618572	-1.060192	-0.066767
C95	C	0.710635	-1.039574	-0.126523
C96	C	0.747850	-0.962345	-0.129766
C97	C	0.692997	-0.905738	-0.073251
H98	H	0.495564	-1.018852	0.033986
H99	H	0.591022	-1.117362	-0.064366
H100	H	0.751240	-1.081477	-0.168359
H101	H	0.816005	-0.947079	-0.174003
H102	H	0.720547	-0.848568	-0.075652
H103	H	-0.000375	-0.593987	0.211580
H104	H	-0.000401	-0.462561	0.209652
H105	H	-0.000425	-0.701123	-0.681288
H106	H	-0.000588	-0.046435	-0.026600
C107	C	-0.000381	-0.685114	-0.537080
C108	C	-0.121109	-0.668436	-0.484936
C109	C	-0.121070	-0.599384	-0.435767
C110	C	-0.000303	-0.547011	-0.438741
C111	C	0.120434	-0.563688	-0.490888
C112	C	0.120395	-0.632740	-0.540057
H113	H	-0.210515	-0.707206	-0.482732
H114	H	-0.210447	-0.587039	-0.397164
H115	H	-0.000274	-0.495895	-0.402343
H116	H	0.209841	-0.524918	-0.493092
H117	H	0.209773	-0.645085	-0.578660
C118	C	0.170611	-0.230470	0.193222
C119	C	0.170595	-0.150783	0.192054
C120	C	0.260190	-0.103773	0.244818
C121	C	0.349800	-0.136450	0.298750
C122	C	0.349818	-0.216142	0.299920
C123	C	0.260224	-0.263151	0.247156
H124	H	0.104258	-0.126589	0.152129
H125	H	0.260175	-0.044780	0.243952
H126	H	0.416123	-0.101651	0.337809
H127	H	0.416156	-0.240335	0.339845
H128	H	0.260239	-0.322144	0.248022
C129	C	-0.171527	-0.257828	-0.010469
C130	C	-0.286462	-0.204650	0.014217
C131	C	-0.376075	-0.171970	-0.039717
C132	C	-0.350753	-0.192468	-0.118336
C133	C	-0.235813	-0.245649	-0.143026
C134	C	-0.146200	-0.278329	-0.089093
H135	H	-0.305211	-0.189474	0.072419
H136	H	-0.461162	-0.132603	-0.021439
H137	H	-0.417091	-0.168276	-0.158261
H138	H	-0.217064	-0.260825	-0.201229
H139	H	-0.061113	-0.317696	-0.107370
H140	H	-0.000276	-0.624756	-0.018124
C141	C	-0.000429	-0.955308	-0.277941
C142	C	-0.000434	-1.025527	-0.247429
C143	C	-0.000439	-1.094574	-0.296605
C144	C	-0.000440	-1.093404	-0.376292
C145	C	-0.000435	-1.023183	-0.406807
C146	C	-0.000430	-0.954135	-0.357632
H147	H	-0.000433	-1.026395	-0.188437
H148	H	-0.000442	-1.146557	-0.274014
H149	H	-0.000444	-1.144517	-0.412694
H150	H	-0.000436	-1.022314	-0.465800
H151	H	-0.000427	-0.902153	-0.380222
H152	H	-0.000524	-0.930822	-0.712049
C153	C	0.170734	-0.719480	-0.317811
C154	C	0.260374	-0.665552	-0.350516
C155	C	0.350020	-0.612788	-0.303532
C156	C	0.350027	-0.613952	-0.223844
C157	C	0.260385	-0.667882	-0.191136
C158	C	0.170738	-0.720646	-0.238119
H159	H	0.260371	-0.664688	-0.409509
H160	H	0.416379	-0.572865	-0.327746
H161	H	0.416389	-0.574892	-0.189065
H162	H	0.260387	-0.668745	-0.132143
H163	H	0.104379	-0.760569	-0.213906
H164	H	-0.000508	-0.147101	0.205028
H165	H	-0.000358	-0.493322	-0.020044
H166	H	-0.000408	-0.939303	-0.133736
H167	H	-0.148246	-0.909169	-0.353567
H168	H	0.147421	-0.731256	-0.461445
