data_functionalizedCrystal
_audit_creation_method	'MofGen! by Chris Wilmer'
_symmetry_space_group_name_H-M	'P1'
_symmetry_Int_Tables_number	1
_symmetry_cell_setting	triclinic
loop_
_symmetry_equiv_pos_as_xyz
  x,y,z
_cell_length_a	12.970454
_cell_length_b	20.016444
_cell_length_c	12.970454
_cell_angle_alpha	90.001406
_cell_angle_beta	60.000265
_cell_angle_gamma	60.002364
loop_
_atom_site_label
_atom_site_type_symbol
_atom_site_fract_x
_atom_site_fract_y
_atom_site_fract_z
Zr1	Zr	1.128559	0.643582	-0.135292
O2	O	1.343641	0.536910	-0.299914
O3	O	0.913473	0.676283	-0.084827
O4	O	1.128563	0.676283	-0.299916
O5	O	1.128551	0.536911	0.084842
O6	O	1.128571	0.786223	-0.299917
O7	O	1.128551	0.536910	-0.084825
O8	O	0.743814	0.786223	0.084838
O9	O	1.513307	0.536911	-0.299913
O10	O	1.001949	0.772277	-0.063303
O11	O	1.001942	0.690230	0.063318
O12	O	1.255183	0.690230	-0.189922
O13	O	1.255176	0.608183	-0.063301
Zr14	Zr	1.128571	0.818925	0.135308
Zr15	Zr	1.128572	0.818924	-0.135292
Zr16	Zr	1.128558	0.643583	0.135308
Zr17	Zr	1.399157	0.643583	-0.135289
Zr18	Zr	0.857973	0.818924	0.135306
O19	O	1.343658	0.786224	0.084844
O20	O	1.343660	0.786223	-0.299915
O21	O	1.343640	0.536911	0.084844
O22	O	0.913489	0.925597	0.299930
O23	O	0.913491	0.925596	-0.084828
O24	O	0.913471	0.676284	0.299931
O25	O	1.128580	0.925596	-0.084826
O26	O	1.128568	0.786224	0.299933
O27	O	1.128560	0.676284	0.299933
O28	O	1.128579	0.925597	0.084841
O29	O	1.513318	0.676284	-0.299913
O30	O	0.743813	0.786223	0.299929
O31	O	0.743823	0.925596	0.299929
O32	O	0.743824	0.925596	0.084838
O33	O	1.513306	0.536911	-0.084822
O34	O	1.513317	0.676284	-0.084822
O35	O	1.001948	0.772277	0.189938
O36	O	1.001954	0.854324	0.063317
O37	O	1.255188	0.772277	-0.063301
O38	O	1.255182	0.690231	0.063320
C39	C	0.790089	0.731253	0.000005
C40	C	0.675213	0.731252	0.000004
C41	C	1.128549	0.511928	0.000009
C42	C	1.128544	0.437491	0.000009
C43	C	0.996375	0.309052	0.066105
C44	C	0.996381	0.239106	0.066108
C45	C	1.260766	0.153457	-0.066091
C46	C	1.260758	0.223402	-0.066086
C47	C	1.128558	0.301198	0.000009
C48	C	1.128572	0.161309	0.000007
C49	C	1.128580	0.085471	0.000010
C50	C	1.128550	0.377041	0.000008
C51	C	1.467042	0.731254	0.000011
C52	C	1.581917	0.731255	0.000012
C53	C	1.128567	0.731253	-0.338471
C54	C	1.128568	0.731252	-0.453348
C55	C	1.128581	0.950579	0.000008
C56	C	1.128587	1.025016	0.000008
C57	C	1.128564	0.731255	0.338487
C58	C	1.128563	0.731255	0.453364
C59	C	0.790105	0.950578	0.000005
C60	C	0.675235	1.025015	0.000004
C61	C	0.790087	0.731254	0.338484
C62	C	0.675211	0.731254	0.453360
C63	C	0.790103	0.950579	0.338484
C64	C	0.675233	1.025016	0.453360
C65	C	1.467027	0.511928	-0.338468
C66	C	1.581898	0.437491	-0.453343
C67	C	1.467025	0.511929	0.000011
C68	C	1.581896	0.437492	0.000013
C69	C	1.467043	0.731253	-0.338468
C70	C	1.581920	0.731253	-0.453344
C71	C	0.621288	1.017143	-0.066103
C72	C	0.513370	1.087078	-0.066129
C73	C	0.459394	1.164883	-0.000041
C74	C	0.513351	1.172753	0.066068
C75	C	0.621275	1.102819	0.066086
C76	C	0.621291	1.102807	0.441212
C77	C	0.513373	1.172756	0.549139
C78	C	0.459390	1.164911	0.669213
C79	C	0.513342	1.087111	0.681359
C80	C	0.621266	1.017165	0.573433
C81	C	1.635852	0.359700	-0.441195
C82	C	1.743804	0.289751	-0.549123
C83	C	1.797792	0.297596	-0.669197
C84	C	1.743834	0.375396	-0.681343
C85	C	1.635891	0.445342	-0.573417
C86	C	1.635854	0.445364	0.066108
C87	C	1.743802	0.375429	0.066104
C88	C	1.797782	0.297624	0.000012
C89	C	1.743819	0.289754	-0.066091
C90	C	1.635881	0.359688	-0.066094
H91	H	0.888729	0.372394	0.119938
H92	H	1.591951	0.353267	-0.119914
H93	H	1.591901	0.353297	-0.343434
Cl94	Cl	1.933491	0.209654	-0.804866
H95	H	1.787786	0.226396	-0.119902
H96	H	0.888744	0.245508	0.119932
H97	H	1.368398	0.090108	-0.119904
Cl98	Cl	1.568066	0.543134	-0.588711
H99	H	0.469388	1.236111	0.119874
Cl100	Cl	1.426946	0.213528	-0.149177
Cl101	Cl	1.933475	0.209714	0.000032
H102	H	0.371514	1.221821	-0.000065
Cl103	Cl	0.445564	1.270550	0.533841
H104	H	0.665234	0.953797	-0.119935
Cl105	Cl	0.689071	1.112729	0.149210
Cl106	Cl	0.689143	1.112691	0.290274
Cl107	Cl	1.568023	0.543168	0.149199
Cl108	Cl	0.323710	1.252853	0.804882
Cl109	Cl	0.689056	0.919373	0.588727
H110	H	0.469450	1.080654	-0.119962
Cl111	Cl	1.811610	0.191957	-0.533825
H112	H	0.469374	1.080736	0.779138
H113	H	1.787805	0.381773	-0.779120
H114	H	1.787720	0.381853	0.119939
