data_functionalizedCrystal
_audit_creation_method	'MofGen! by Chris Wilmer'
_symmetry_space_group_name_H-M	'P1'
_symmetry_Int_Tables_number	1
_symmetry_cell_setting	triclinic
loop_
_symmetry_equiv_pos_as_xyz
  x,y,z
_cell_length_a	14.560432
_cell_length_b	14.628931
_cell_length_c	14.628931
_cell_angle_alpha	60.000028
_cell_angle_beta	90.001002
_cell_angle_gamma	59.999957
loop_
_atom_site_label
_atom_site_type_symbol
_atom_site_fract_x
_atom_site_fract_y
_atom_site_fract_z
Zr1	Zr	0.884766	1.000565	-0.119940
O2	O	0.738117	1.191273	-0.265905
O3	O	0.929722	0.809859	-0.075194
O4	O	0.929722	1.000564	-0.265899
O5	O	0.738117	1.000568	0.075233
O6	O	1.080863	1.000562	-0.265895
O7	O	0.738117	1.000568	-0.075199
O8	O	1.080863	0.659425	0.075242
O9	O	0.738117	1.341706	-0.265905
O10	O	1.061690	0.888297	-0.056107
O11	O	0.948895	0.888299	0.056155
O12	O	0.948895	1.112830	-0.168376
O13	O	0.836100	1.112832	-0.056113
Zr14	Zr	1.125818	1.000562	0.119988
Zr15	Zr	1.125818	1.000561	-0.119934
Zr16	Zr	0.884766	1.000566	0.119981
Zr17	Zr	0.884766	1.240487	-0.119940
Zr18	Zr	1.125818	0.760640	0.119988
O19	O	1.080862	1.191269	0.075241
O20	O	1.080862	1.191268	-0.265896
O21	O	0.738117	1.191274	0.075232
O22	O	1.272467	0.809854	0.265952
O23	O	1.272467	0.809853	-0.075185
O24	O	0.929722	0.809860	0.265943
O25	O	1.272467	1.000559	-0.075185
O26	O	1.080862	1.000563	0.265947
O27	O	0.929721	1.000566	0.265943
O28	O	1.272467	1.000560	0.075247
O29	O	0.929721	1.341702	-0.265900
O30	O	1.080863	0.659425	0.265948
O31	O	1.272467	0.659422	0.265953
O32	O	1.272467	0.659421	0.075247
O33	O	0.738117	1.341706	-0.075200
O34	O	0.929721	1.341703	-0.075195
O35	O	1.061689	0.888297	0.168424
O36	O	1.174484	0.888295	0.056161
O37	O	1.061689	1.112829	-0.056108
O38	O	0.948894	1.112831	0.056155
C39	C	1.005293	0.700458	0.000024
C40	C	1.005293	0.598605	0.000025
C41	C	0.926162	0.631956	-0.078737
C42	C	0.926161	0.526687	-0.078738
C43	C	0.703772	1.000569	0.000016
C44	C	0.601439	1.000571	0.000013
C45	C	0.601415	1.000586	-0.165749
C46	C	0.553326	1.000598	-0.248630
C47	C	0.457176	1.000598	-0.248626
C48	C	0.409116	1.000581	-0.165731
C49	C	0.457205	1.000569	-0.082850
C50	C	0.553355	1.000573	-0.082865
C51	C	0.457234	1.000545	0.082915
C52	C	0.553379	1.000554	0.082909
C53	C	0.409173	1.000529	0.165810
C54	C	0.457258	1.000526	0.248689
C55	C	0.553412	1.000528	0.248681
C56	C	0.601468	1.000542	0.165790
C57	C	1.306812	1.000559	0.000032
C58	C	1.409145	1.000557	0.000034
C59	C	1.005292	1.000563	-0.300081
C60	C	1.005293	1.000563	-0.401934
C61	C	1.005291	1.300670	0.000023
C62	C	1.005291	1.402523	0.000023
C63	C	0.949339	1.111946	-0.503036
C64	C	0.949338	1.111948	-0.608307
C65	C	1.005292	1.000565	0.300129
C66	C	1.005291	1.000565	0.401981
C67	C	1.306812	0.700453	0.000032
C68	C	1.409145	0.598598	0.000035
C69	C	1.005292	0.700459	0.300129
C70	C	1.005292	0.598606	0.401982
C71	C	1.306812	0.700454	0.300137
C72	C	1.409145	0.598599	0.401993
C73	C	0.703772	1.300674	-0.300089
C74	C	0.601439	1.402528	-0.401945
C75	C	0.703772	1.300675	0.000015
C76	C	0.601439	1.402530	0.000013
C77	C	1.005292	1.300669	-0.300082
C78	C	1.005292	1.402522	-0.401935
C79	C	1.398815	0.553189	-0.055656
C80	C	1.504580	0.447916	-0.055655
C81	C	1.061246	0.553196	0.503084
C82	C	1.061247	0.447926	0.608356
C83	C	1.510722	0.553188	0.391713
C84	C	1.616490	0.447916	0.496985
H85	H	1.073040	0.492118	0.067452
C86	C	1.070011	0.871731	-0.390272
C87	C	1.165465	0.839614	-0.440033
C88	C	1.230186	0.710779	-0.428366
C89	C	1.199454	0.614060	-0.366938
C90	C	1.103995	0.646174	-0.317173
C91	C	1.039274	0.775010	-0.328840
H92	H	1.188220	0.911214	-0.485509
H93	H	1.300851	0.687006	-0.465205
H94	H	1.247364	0.518688	-0.358301
H95	H	1.081240	0.574575	-0.271696
H96	H	0.968609	0.798783	-0.292000
H97	H	1.311670	0.592253	-0.103342
C98	C	1.617885	0.455252	0.064458
C99	C	1.567890	0.600021	0.001568
C100	C	1.579615	0.652770	0.065986
C101	C	1.641335	0.560749	0.193296
C102	C	1.691335	0.415970	0.256193
C103	C	1.679610	0.363222	0.191775
H104	H	1.522197	0.668148	-0.092681
H105	H	1.542601	0.759945	0.019425
H106	H	1.650015	0.599796	0.240982
H107	H	1.737028	0.347843	0.350442
H108	H	1.716623	0.256047	0.238336
H109	H	0.858412	0.555066	-0.146167
H110	H	1.519386	0.592249	0.304978
C111	C	1.125967	0.395178	0.725521
C112	C	1.253875	0.329299	0.760812
C113	C	1.318597	0.276550	0.877981
C114	C	1.255412	0.289679	0.959858
C115	C	1.127497	0.355561	0.924569
C116	C	1.062774	0.408311	0.807400
H117	H	1.300655	0.319577	0.700199
H118	H	1.413289	0.227779	0.904104
H119	H	1.303323	0.250631	1.046594
H120	H	1.080716	0.365283	0.985182
H121	H	0.968083	0.457081	0.781277
H122	H	0.957393	0.441562	0.511339
H123	H	0.418025	1.000601	-0.316112
C124	C	0.940574	0.545852	0.390321
C125	C	1.003761	0.401081	0.440086
C126	C	0.939041	0.348330	0.428419
C127	C	0.811132	0.440350	0.366987
C128	C	0.747938	0.585129	0.317218
C129	C	0.812658	0.637880	0.328884
H130	H	1.098453	0.332955	0.485565
H131	H	0.985822	0.241154	0.465262
H132	H	0.763222	0.401300	0.358351
H133	H	0.653246	0.653256	0.271738
H134	H	0.765877	0.745056	0.292041
H135	H	0.858420	0.738443	-0.146170
H136	H	0.592467	1.000607	-0.316121
H137	H	1.703628	0.408860	0.488358
H138	H	0.592565	1.000510	0.316176
H139	H	1.073037	0.374134	0.067461
C140	C	1.492856	0.395170	-0.120071
C141	C	1.431136	0.487190	-0.247381
C142	C	1.419411	0.434442	-0.311799
C143	C	1.469406	0.289672	-0.248909
C144	C	1.531131	0.197642	-0.121592
C145	C	1.542856	0.250391	-0.057173
H146	H	1.394122	0.594365	-0.293942
H147	H	1.373718	0.502569	-0.406048
H148	H	1.460727	0.250624	-0.296595
H149	H	1.568144	0.090467	-0.075030
H150	H	1.588549	0.182264	0.037075
H151	H	0.330834	1.000565	-0.165725
H152	H	0.679697	1.000602	-0.165769
H153	H	1.400484	0.559546	0.488729
H154	H	0.418125	1.000504	0.316180
H155	H	0.330887	1.000521	0.165814
H156	H	1.519018	0.441552	0.606715
H157	H	0.901441	1.207304	-0.511658
C158	C	0.884618	1.240782	-0.725472
C159	C	0.947803	1.272900	-0.807350
C160	C	0.883081	1.401738	-0.924519
C161	C	0.755173	1.498459	-0.959810
C162	C	0.691980	1.466344	-0.877931
C163	C	0.756702	1.337505	-0.760762
H164	H	1.042494	1.201299	-0.781227
H165	H	0.929861	1.425511	-0.985132
H166	H	0.707261	1.593833	-1.046546
H167	H	0.597289	1.537944	-0.904054
H168	H	0.709922	1.313732	-0.700149
H169	H	0.679754	1.000550	0.165773
H170	H	1.109144	0.592258	0.511706
H171	H	1.053192	0.905200	-0.511290
H172	H	1.496291	0.559543	0.047711
