data_functionalizedCrystal
_audit_creation_method	'MofGen! by Chris Wilmer'
_symmetry_space_group_name_H-M	'P1'
_symmetry_Int_Tables_number	1
_symmetry_cell_setting	triclinic
loop_
_symmetry_equiv_pos_as_xyz
  x,y,z
_cell_length_a	12.759401
_cell_length_b	29.839131
_cell_length_c	12.759393
_cell_angle_alpha	89.963184
_cell_angle_beta	89.979062
_cell_angle_gamma	90.042945
loop_
_atom_site_label
_atom_site_type_symbol
_atom_site_fract_x
_atom_site_fract_y
_atom_site_fract_z
Zn1	Zn	1.606071	-0.178813	-0.593974
Zn2	Zn	1.605880	-0.253950	-0.418275
Zn3	Zn	1.430370	-0.178837	-0.418309
Zn4	Zn	1.430280	-0.253919	-0.593912
O5	O	1.518150	-0.216380	-0.506117
O6	O	1.753067	-0.188784	-0.570679
O7	O	1.582556	-0.244010	-0.271258
O8	O	1.453795	-0.115967	-0.441652
O9	O	1.752927	-0.243986	-0.441593
O10	O	1.582882	-0.115949	-0.570712
O11	O	1.453610	-0.188824	-0.271283
O12	O	1.283337	-0.188794	-0.441592
O13	O	1.453641	-0.243933	-0.740941
O14	O	1.283271	-0.243956	-0.570606
O15	O	1.582794	-0.188753	-0.740987
O16	O	1.582469	-0.316813	-0.441533
O17	O	1.453456	-0.316790	-0.570573
C18	C	1.245183	-0.216375	-0.506097
C19	C	1.128406	-0.216383	-0.506113
C20	C	1.073538	-0.245150	-0.573185
C21	C	0.963813	-0.245151	-0.573206
C22	C	0.963837	-0.187618	-0.439073
C23	C	1.073559	-0.187615	-0.439058
C24	C	0.813900	-0.261272	-0.697062
C25	C	0.759027	-0.290045	-0.764125
C26	C	0.794577	-0.333888	-0.780061
C27	C	0.884998	-0.348966	-0.728920
C28	C	0.939865	-0.320195	-0.661849
C29	C	0.904317	-0.276346	-0.645932
C30	C	1.223475	-0.171499	-0.315200
C31	C	1.278344	-0.142730	-0.248124
C32	C	1.242796	-0.098886	-0.232176
C33	C	1.152371	-0.083810	-0.283300
C34	C	1.097502	-0.112579	-0.350376
C35	C	1.133058	-0.156422	-0.366325
C36	C	1.517961	-0.333103	-0.506065
C37	C	1.517976	-0.383037	-0.506078
C38	C	1.585450	-0.692680	-0.439024
C39	C	1.585579	-0.880353	-0.439065
O40	O	1.642798	-0.904617	-0.382014
N41	N	1.518368	-0.903822	-0.506197
C42	C	1.451125	-0.880370	-0.573327
O43	O	1.393969	-0.904638	-0.630435
C44	C	1.451001	-0.692698	-0.573291
C45	C	1.518209	-0.669231	-0.506148
C46	C	1.652653	-0.669213	-0.371888
C47	C	1.652616	-0.622297	-0.371874
C48	C	1.585375	-0.598849	-0.438997
C49	C	1.518172	-0.622316	-0.506134
C50	C	1.383764	-0.669247	-0.640427
C51	C	1.383741	-0.622326	-0.640413
C52	C	1.450949	-0.598859	-0.573270
C53	C	1.450895	-0.551952	-0.573244
N54	N	1.518106	-0.528482	-0.506113
C55	C	1.585346	-0.551931	-0.438989
C56	C	1.451193	-0.978901	-0.573340
C57	C	1.451223	-1.025819	-0.573348
C58	C	1.585679	-1.025798	-0.439087
C59	C	1.585643	-0.978879	-0.439075
C60	C	1.518404	-0.955431	-0.506209
C61	C	1.585262	-0.453405	-0.438965
C62	C	1.585216	-0.406486	-0.438955
C63	C	1.450764	-0.406510	-0.573219
C64	C	1.450806	-0.453426	-0.573226
C65	C	1.518064	-0.476872	-0.506096
O66	O	1.393715	-0.527659	-0.630274
O67	O	1.642510	-0.527655	-0.381907
C68	C	1.585487	-0.739595	-0.439038
C69	C	1.518284	-0.763062	-0.506175
C70	C	1.451043	-0.739613	-0.573298
C71	C	1.518313	-0.809980	-0.506183
C72	C	1.585553	-0.833428	-0.439060
C73	C	1.652764	-0.809959	-0.371928
C74	C	1.652727	-0.763044	-0.371915
C75	C	1.383832	-0.763083	-0.640430
C76	C	1.383874	-0.809998	-0.640437
C77	C	1.451114	-0.833447	-0.573314
C78	C	1.792184	-0.216386	-0.506139
C79	C	1.908960	-0.216388	-0.506148
C80	C	1.518229	-0.216337	-0.780151
C81	C	1.518263	-0.216318	-0.896928
C82	C	1.518370	-0.099202	-0.506193
C83	C	1.518463	-0.049267	-0.506225
C84	C	1.585518	-0.187582	-0.951815
C85	C	1.585535	-0.187562	-1.061539
C86	C	1.451040	-0.245020	-1.061479
C87	C	1.451018	-0.245037	-0.951757
C88	C	1.623205	-0.134558	-1.211531
C89	C	1.690477	-0.105825	-1.266422
C90	C	1.792997	-0.098936	-1.230832
C91	C	1.828267	-0.120786	-1.140353
C92	C	1.761001	-0.149522	-1.085468
C93	C	1.658466	-0.156403	-1.121056
C94	C	1.413359	-0.298042	-0.801763
C95	C	1.346098	-0.326781	-0.746875
C96	C	1.243576	-0.333675	-0.782463
C97	C	1.208310	-0.311832	-0.872945
C98	C	1.275571	-0.283093	-0.927833
C99	C	1.378092	-0.276199	-0.892238
C100	C	1.518133	-0.216391	-0.233150
C101	C	1.518303	-0.216282	-0.116374
H102	H	1.287475	-0.075464	-0.177548
H103	H	1.246849	-0.265308	-1.001509
N104	N	1.032231	-0.335582	-0.609613
N105	N	1.081215	-0.309887	-0.549743
H106	H	1.146454	-0.320754	-0.512855
N107	N	1.653872	-0.382522	-0.370354
N108	N	1.713902	-0.403468	-0.310429
H109	H	1.762389	-0.386546	-0.261981
H110	H	1.640429	-1.044898	-0.384433
N111	N	1.370701	-0.158138	-0.195896
N112	N	1.402436	-0.197285	-0.210144
H113	H	1.467663	-0.208168	-0.173260
H114	H	1.124829	-0.317447	-0.901925
H115	H	0.913929	-0.384669	-0.741892
H116	H	1.123415	-0.048112	-0.270299
N117	N	1.518079	-0.291000	-0.765385
N118	N	1.549554	-0.310506	-0.684600
H119	H	1.623511	-0.305533	-0.658906
N120	N	1.721387	-0.739074	-0.303342
N121	N	1.788304	-0.712851	-0.340348
H122	H	1.836797	-0.695923	-0.291914
N123	N	1.259800	-0.216286	-0.331477
N124	N	1.340525	-0.229743	-0.285810
H125	H	1.366179	-0.261374	-0.297297
N126	N	1.654209	-0.158244	-0.895824
N127	N	1.714251	-0.132588	-0.944849
H128	H	1.762766	-0.111867	-0.905309
N129	N	0.738512	-0.363275	-0.848560
N130	N	0.657781	-0.349811	-0.894206
H131	H	0.618181	-0.370563	-0.942586
N132	N	1.382071	-0.382561	-0.641784
N133	N	1.285131	-0.387845	-0.634743
H134	H	1.236618	-0.370931	-0.683173
H135	H	1.707414	-0.688300	-0.317227
H136	H	0.685407	-0.277764	-0.805765
H137	H	0.919167	-0.164197	-0.384478
N138	N	1.382137	-0.349092	-0.654454
N139	N	1.473675	-0.342931	-0.622679
H140	H	1.499128	-0.358687	-0.557405
N141	N	1.653967	-0.477344	-0.370386
N142	N	1.713957	-0.456378	-0.310449
H143	H	1.762475	-0.473284	-0.262009
H144	H	0.784954	-0.225570	-0.684103
N145	N	1.005147	-0.097171	-0.402607
N146	N	0.973420	-0.058021	-0.388372
H147	H	0.908200	-0.047138	-0.425265
N148	N	1.721276	-0.598337	-0.303283
N149	N	1.781304	-0.619287	-0.243364
H150	H	1.829801	-0.602368	-0.194919
H151	H	1.118191	-0.268573	-0.627787
H152	H	1.396485	-1.044921	-0.628013
N153	N	1.654298	-0.954918	-0.370481
N154	N	1.714320	-0.975865	-0.310553
H155	H	1.762812	-0.958945	-0.262105
N156	N	1.382500	-0.954960	-0.641929
N157	N	1.322500	-0.975925	-0.701857
H158	H	1.273982	-0.959019	-0.750297
H159	H	1.789719	-0.167314	-1.011805
N160	N	1.315101	-0.693209	-0.709005
N161	N	1.218156	-0.688009	-0.701957
H162	H	1.169658	-0.704931	-0.750395
N163	N	1.721436	-0.833923	-0.303362
N164	N	1.721446	-0.875814	-0.303392
H165	H	1.769944	-0.892741	-0.254972
N166	N	1.315202	-0.833959	-0.709026
N167	N	1.255175	-0.813012	-0.768949
H168	H	1.206680	-0.829932	-0.817394
N169	N	1.315055	-0.598382	-0.709005
N170	N	1.255062	-0.619344	-0.768945
H171	H	1.206552	-0.602435	-0.817388
H172	H	1.396083	-0.472534	-0.627903
H173	H	1.329078	-0.743995	-0.695091
H174	H	1.911753	-0.115178	-1.111389
H175	H	1.847770	-0.075541	-1.275533
H176	H	1.661750	-0.088034	-1.340090
H177	H	1.188816	-0.357080	-0.737769
N178	N	1.518477	-0.141582	-1.247889
N179	N	1.487009	-0.122073	-1.328674
H180	H	1.413043	-0.127034	-1.354358
H181	H	1.396294	-0.268403	-1.106134
