data_functionalizedCrystal
_audit_creation_method	'MofGen! by Chris Wilmer'
_symmetry_space_group_name_H-M	'P1'
_symmetry_Int_Tables_number	1
_symmetry_cell_setting	triclinic
loop_
_symmetry_equiv_pos_as_xyz
  x,y,z
_cell_length_a	14.519731
_cell_length_b	27.731996
_cell_length_c	13.596369
_cell_angle_alpha	89.988048
_cell_angle_beta	89.994584
_cell_angle_gamma	83.155120
loop_
_atom_site_label
_atom_site_type_symbol
_atom_site_fract_x
_atom_site_fract_y
_atom_site_fract_z
O1	O	1.222730	0.063413	-0.081807
O2	O	0.954124	0.070864	-0.081810
O3	O	1.096795	-0.003220	-0.081787
O4	O	1.080060	0.137496	-0.081830
O5	O	1.096781	-0.003224	0.081796
O6	O	0.954110	0.070860	0.081773
O7	O	1.222716	0.063409	0.081776
Zn8	Zn	1.088411	0.067134	0.107747
Zn9	Zn	1.088429	0.067139	-0.107781
O10	O	1.080046	0.137492	0.081753
C11	C	0.919764	0.070513	-0.000019
C12	C	0.817402	0.069466	-0.000019
C13	C	0.734273	0.068616	-0.000023
C14	C	0.629983	0.067554	-0.000023
C15	C	0.546859	0.066711	-0.000022
C16	C	0.442562	0.065649	-0.000024
C17	C	1.096444	-0.021231	0.000008
C18	C	1.095408	-0.074892	0.000018
C19	C	1.088901	-0.407638	-0.089199
C20	C	1.084969	-0.609315	-0.089217
O21	O	1.084428	-0.635386	-0.165052
N22	N	1.084473	-0.634537	-0.000049
C23	C	1.084954	-0.609335	0.089130
O24	O	1.084433	-0.635415	0.164973
C25	C	1.088880	-0.407659	0.089147
C26	C	1.089385	-0.382440	-0.000027
C27	C	1.089406	-0.382419	-0.178366
C28	C	1.090394	-0.332003	-0.178361
C29	C	1.090877	-0.306806	-0.089189
C30	C	1.090373	-0.332024	-0.000022
C31	C	1.089354	-0.382458	0.178324
C32	C	1.090333	-0.332036	0.178321
C33	C	1.090838	-0.306817	0.089147
C34	C	1.091845	-0.256411	0.089155
N35	N	1.092341	-0.231189	-0.000013
C36	C	1.091857	-0.256387	-0.089185
C37	C	1.082895	-0.715219	0.089115
C38	C	1.081916	-0.765638	0.089112
C39	C	1.081929	-0.765614	-0.089236
C40	C	1.082915	-0.715194	-0.089231
C41	C	1.083391	-0.689997	-0.000053
C42	C	1.093933	-0.150510	-0.089167
C43	C	1.094925	-0.100090	-0.089154
C44	C	1.094906	-0.100118	0.089193
C45	C	1.093919	-0.150534	0.089180
C46	C	1.093429	-0.175728	-0.000008
O47	O	1.092376	-0.230308	0.164951
O48	O	1.092358	-0.230297	-0.165016
C49	C	1.087913	-0.458054	-0.089205
C50	C	1.087409	-0.483272	-0.000038
C51	C	1.087893	-0.458075	0.089134
C52	C	1.086429	-0.533691	-0.000042
C53	C	1.085946	-0.558889	-0.089214
C54	C	1.086442	-0.533667	-0.178382
C55	C	1.087430	-0.483251	-0.178377
C56	C	1.087397	-0.483296	0.178302
C57	C	1.086410	-0.533712	0.178290
C58	C	1.085926	-0.558910	0.089118
C59	C	1.257077	0.063760	-0.000018
C60	C	1.359438	0.064806	-0.000024
C61	C	1.080397	0.155503	-0.000044
C62	C	1.081432	0.209165	-0.000060
N63	N	1.088405	0.067130	0.254839
N64	N	1.088443	0.067139	-0.254873
C65	C	1.088428	0.067139	0.656130
C66	C	1.088419	0.067138	0.544478
C67	C	1.088417	0.067135	0.455488
C68	C	1.088407	0.067133	0.343829
H69	H	1.093529	-0.171017	-0.161793
N70	N	1.095409	-0.074367	0.180267
N71	N	1.096288	-0.029351	0.180247
H72	H	1.096639	-0.011162	0.244569
N73	N	1.083405	-0.689435	-0.180320
N74	N	1.018919	-0.656903	-0.200223
H75	H	1.019261	-0.638713	-0.264558
H76	H	1.088944	-0.402982	0.250940
N77	N	1.090810	-0.306305	0.269426
N78	N	1.090354	-0.328831	0.349031
H79	H	1.090691	-0.310661	0.413375
N80	N	1.081420	-0.791388	0.180210
N81	N	1.081852	-0.768879	0.259816
H82	H	1.081499	-0.787063	0.324159
H83	H	1.093516	-0.171068	0.161793
H84	H	1.087841	-0.462723	-0.250991
N85	N	1.085960	-0.559419	-0.269461
N86	N	1.085083	-0.604436	-0.269439
H87	H	1.084741	-0.622626	-0.333759
H88	H	1.081536	-0.786138	-0.161843
H89	H	1.090802	-0.311475	-0.250976
H90	H	1.086006	-0.554241	0.250912
N91	N	1.083381	-0.689492	0.180224
N92	N	1.082939	-0.712023	0.259824
H93	H	1.083285	-0.693856	0.324172
H94	H	1.087792	-0.462786	0.250919
H95	H	1.089008	-0.402929	-0.250985
N96	N	1.095448	-0.074338	-0.180257
N97	N	1.095016	-0.096846	-0.259866
H98	H	1.095385	-0.078661	-0.324206
