data_functionalizedCrystal
_audit_creation_method	'MofGen! by Chris Wilmer'
_symmetry_space_group_name_H-M	'P1'
_symmetry_Int_Tables_number	1
_symmetry_cell_setting	triclinic
loop_
_symmetry_equiv_pos_as_xyz
  x,y,z
_cell_length_a	6.817900
_cell_length_b	16.418049
_cell_length_c	16.305550
_cell_angle_alpha	95.392859
_cell_angle_beta	103.455250
_cell_angle_gamma	103.389670
loop_
_atom_site_label
_atom_site_type_symbol
_atom_site_fract_x
_atom_site_fract_y
_atom_site_fract_z
V1	V	-4.025855	-0.116594	-0.263330
O2	O	-4.013857	0.004875	-0.258012
O3	O	-3.976925	-0.230486	-0.261823
O4	O	-3.977266	-0.115119	-0.378044
O5	O	-4.013514	-0.111290	-0.140987
V6	V	-4.509576	-0.102027	-0.248661
O7	O	-4.286679	-0.148547	-0.295508
O8	O	-4.698950	-0.070073	-0.216484
O9	O	-4.335300	0.011866	-0.250168
O10	O	-4.638971	-0.223496	-0.253980
O11	O	-4.639315	-0.107331	-0.371005
O12	O	-4.334959	-0.103501	-0.133948
C13	C	-3.821803	-0.258241	-0.257745
C14	C	-3.863082	-0.351351	-0.257277
C15	C	-4.140109	-0.569849	-0.260438
C16	C	-4.178884	-0.657337	-0.260006
C17	C	-3.814681	-0.648771	-0.251559
C18	C	-3.775912	-0.561285	-0.251997
C19	C	-3.938631	-0.521826	-0.256432
C20	C	-4.016174	-0.696800	-0.255562
C21	C	-4.058214	-0.791658	-0.255094
C22	C	-3.896590	-0.426962	-0.256902
C23	C	-3.822237	-0.111078	-0.405994
C24	C	-3.863790	-0.110626	-0.499775
C25	C	-4.014883	-0.108876	-0.840516
C26	C	-3.778853	-0.103678	-0.799574
C27	C	-3.735656	-0.104495	-0.702081
C28	C	-3.939923	-0.109743	-0.671470
C29	C	-4.106679	-0.192465	-0.722309
C30	C	-4.148544	-0.191997	-0.819857
C31	C	-4.069896	-0.032013	-0.794476
C32	C	-4.021969	-0.031358	-0.696631
C33	C	-3.897571	-0.110237	-0.575934
C34	C	-4.057244	-0.108388	-0.936054
C35	C	-4.153764	0.039616	-0.254244
C36	C	-4.091723	0.132725	-0.254717
C37	C	-4.153330	-0.107545	-0.105993
C38	C	-4.091015	-0.107993	-0.012211
H39	H	-3.609358	-0.045019	-0.666905
N40	N	-3.638503	-0.024529	-0.815749
H41	H	-3.726550	0.008729	-0.849775
H42	H	-3.541580	-0.040819	-0.848841
H43	H	-3.733577	-0.158901	-0.831228
H44	H	-4.259812	-0.199297	-0.703414
N45	N	-3.949122	0.051013	-0.811970
H46	H	-3.794355	0.056929	-0.790354
H47	H	-3.986945	0.099416	-0.781830
N48	N	-3.558587	-0.509489	-0.247684
H49	H	-3.458470	-0.514563	-0.193203
H50	H	-3.558905	-0.448105	-0.248676
H51	H	-3.669043	-0.160355	-0.685931
H52	H	-4.112205	-0.250184	-0.850388
H53	H	-4.322356	-0.199252	-0.847868
H54	H	-4.051051	-0.250668	-0.705645
H55	H	-3.901127	0.029827	-0.662096
H56	H	-4.241951	-0.035085	-0.821299
N57	N	-4.315608	-0.527289	-0.265238
H58	H	-4.280414	-0.482908	-0.213049
H59	H	-4.449055	-0.571045	-0.267743
N60	N	-4.396194	-0.709135	-0.264330
H61	H	-4.493384	-0.670860	-0.267207
H62	H	-4.392972	-0.737349	-0.211773
N63	N	-3.639173	-0.691326	-0.246754
H64	H	-3.694297	-0.754034	-0.247075
H65	H	-3.525659	-0.665880	-0.192419
N66	N	-4.216977	-0.029949	-0.668293
H67	H	-4.255089	-0.080333	-0.638620
H68	H	-4.335502	-0.032590	-0.719738
