data_functionalizedCrystal
_audit_creation_method	'MofGen! by Chris Wilmer'
_symmetry_space_group_name_H-M	'P1'
_symmetry_Int_Tables_number	1
_symmetry_cell_setting	triclinic
loop_
_symmetry_equiv_pos_as_xyz
  x,y,z
_cell_length_a	10.723024
_cell_length_b	16.109301
_cell_length_c	14.586319
_cell_angle_alpha	90.005214
_cell_angle_beta	90.003205
_cell_angle_gamma	83.964675
loop_
_atom_site_label
_atom_site_type_symbol
_atom_site_fract_x
_atom_site_fract_y
_atom_site_fract_z
O1	O	-1.655641	-0.116608	-0.076238
O2	O	-1.155641	0.383392	0.423762
O3	O	-1.292341	-0.127770	-0.076241
O4	O	-0.792341	0.372230	0.423759
O5	O	-1.483971	-0.001217	-0.076230
O6	O	-0.983971	0.498783	0.423770
O7	O	-1.464011	-0.243161	-0.076249
O8	O	-0.964011	0.256839	0.423751
O9	O	-1.483958	-0.001215	0.076251
O10	O	-0.983958	0.498785	0.576251
O11	O	-1.292328	-0.127768	0.076240
O12	O	-0.792328	0.372232	0.576240
O13	O	-1.655628	-0.116606	0.076243
O14	O	-1.155628	0.383394	0.576243
Cu15	Cu	-1.473977	-0.122187	0.090164
Cu16	Cu	-0.973977	0.377813	0.590164
Cu17	Cu	-1.473992	-0.122189	-0.090162
Cu18	Cu	-0.973992	0.377811	0.409838
O19	O	-1.463998	-0.243159	0.076232
O20	O	-0.963998	0.256841	0.576232
C21	C	-1.245845	-0.126956	-0.000001
C22	C	-0.745845	0.373044	0.499999
C23	C	-1.107323	-0.124526	-0.000002
C24	C	-0.607323	0.375474	0.499998
C25	C	-1.483156	0.029764	0.000011
C26	C	-0.983156	0.529764	0.500011
C27	C	-1.480732	0.122074	0.000012
C28	C	-0.980732	0.622074	0.500012
C29	C	-1.702123	-0.117419	0.000001
C30	C	-1.202123	0.382581	0.500001
C31	C	-1.840645	-0.119850	-0.000004
C32	C	-1.340645	0.380150	0.499996
C33	C	-1.031402	-0.195339	-0.000008
C34	C	-0.531402	0.304661	0.499992
C35	C	-0.888232	-0.192829	-0.000009
C36	C	-0.388232	0.307171	0.499991
C37	C	-1.464813	-0.274140	-0.000011
C38	C	-0.964813	0.225860	0.499989
C39	C	-1.467237	-0.366449	-0.000018
C40	C	-0.967237	0.133551	0.499982
N41	N	-1.473975	-0.122185	0.216996
N42	N	-0.973975	0.377815	0.716996
C43	C	-1.588805	0.343710	-0.000001
C44	C	-1.088805	0.843710	0.499999
C45	C	-1.586518	0.430444	-0.000009
C46	C	-1.086518	0.930444	0.499991
C47	C	-1.359155	0.411907	-0.000007
C48	C	-0.859155	0.911907	0.499993
C49	C	-1.361444	0.325175	-0.000006
C50	C	-0.861444	0.825175	0.499994
C51	C	-1.476272	0.291079	0.000001
C52	C	-0.976272	0.791079	0.500001
C53	C	-1.471696	0.464545	-0.000007
C54	C	-0.971696	0.964545	0.499993
C55	C	-1.469215	0.558586	-0.000015
C56	C	-0.969215	1.058586	0.499985
C57	C	-1.478754	0.197032	0.000008
C58	C	-0.978754	0.697032	0.500008
N59	N	-1.474004	-0.122185	-0.216994
N60	N	-0.974004	0.377815	0.283006
C61	C	-1.558857	-0.066166	0.452007
C62	C	-1.058857	0.433834	0.952007
C63	C	-1.558860	-0.066164	0.547989
C64	C	-1.058860	0.433836	1.047989
C65	C	-1.389113	-0.178206	0.547988
C66	C	-0.889113	0.321794	1.047988
C67	C	-1.389104	-0.178203	0.452009
C68	C	-0.889104	0.321797	0.952009
C69	C	-1.473983	-0.122184	0.404021
C70	C	-0.973983	0.377816	0.904021
C71	C	-1.473995	-0.122185	0.595981
C72	C	-0.973995	0.377815	1.095981
C73	C	-1.473999	-0.122183	0.700049
C74	C	-0.973999	0.377817	1.200049
C75	C	-1.473979	-0.122185	0.299947
C76	C	-0.973979	0.377815	0.799947
H77	H	-1.072396	-0.257822	-0.000008
H78	H	-0.572396	0.242178	0.499992
O79	O	-1.240064	0.268399	0.000007
O80	O	-0.740064	0.768399	0.500007
H81	H	-1.159832	0.306677	0.000018
H82	H	-0.659832	0.806677	0.500018
H83	H	-1.265665	0.439679	-0.000012
H84	H	-0.765665	0.939679	0.499988
H85	H	-0.905874	-0.059225	-0.000005
H86	H	-0.405874	0.440775	0.499995
O87	O	-1.053043	-0.041752	0.000010
O88	O	-0.553043	0.458248	0.500010
H89	H	-0.994453	-0.037138	-0.062141
H90	H	-0.494453	0.462862	0.437859
H91	H	-1.682306	0.315952	0.000003
H92	H	-1.182306	0.815952	0.500003
O93	O	-1.707891	0.487213	0.000000
O94	O	-1.207891	0.987213	0.500000
H95	H	-1.788117	0.448930	0.000014
H96	H	-1.288117	0.948930	0.500014
O97	O	-1.650385	-0.005740	0.400244
O98	O	-1.150385	0.494260	0.900244
H99	H	-1.709393	0.033219	0.449741
H100	H	-1.209393	0.533219	0.949741
O101	O	-1.650417	-0.005755	0.599749
O102	O	-1.150417	0.494245	1.099749
H103	H	-1.709442	0.033189	0.550252
H104	H	-1.209442	0.533189	1.050252
O105	O	-1.297586	-0.238638	0.599745
O106	O	-0.797586	0.261362	1.099745
H107	H	-1.236963	-0.203280	0.643495
H108	H	-0.736963	0.296720	1.143495
O109	O	-0.801834	-0.273136	-0.000008
O110	O	-0.301834	0.226864	0.499992
H111	H	-0.702942	-0.258562	0.000001
H112	H	-0.202942	0.241438	0.500001
O113	O	-1.297563	-0.238628	0.400241
O114	O	-0.797563	0.261372	0.900241
H115	H	-1.238556	-0.277591	0.449732
H116	H	-0.738556	0.222409	0.949732
