data_functionalizedCrystal
_audit_creation_method	'MofGen! by Chris Wilmer'
_symmetry_space_group_name_H-M	'P1'
_symmetry_Int_Tables_number	1
_symmetry_cell_setting	triclinic
loop_
_symmetry_equiv_pos_as_xyz
  x,y,z
_cell_length_a	16.109301
_cell_length_b	16.109302
_cell_length_c	15.186229
_cell_angle_alpha	89.996374
_cell_angle_beta	90.000638
_cell_angle_gamma	96.538228
loop_
_atom_site_label
_atom_site_type_symbol
_atom_site_fract_x
_atom_site_fract_y
_atom_site_fract_z
O1	O	-1.103131	0.106866	-0.073173
O2	O	-0.603131	0.606866	0.426827
O3	O	-0.861069	0.120165	-0.073187
O4	O	-0.361069	0.620165	0.426813
O5	O	-0.988749	-0.007515	-0.073174
O6	O	-0.488749	0.492485	0.426826
O7	O	-0.975451	0.234547	-0.073186
O8	O	-0.475451	0.734547	0.426814
O9	O	-0.988741	-0.007517	0.073284
O10	O	-0.488741	0.492483	0.573284
O11	O	-0.861061	0.120163	0.073271
O12	O	-0.361061	0.620163	0.573271
O13	O	-1.103123	0.106864	0.073285
O14	O	-0.603123	0.606864	0.573285
Zn15	Zn	-0.982090	0.113514	0.096531
Zn16	Zn	-0.482090	0.613514	0.596531
Zn17	Zn	-0.982102	0.113516	-0.096433
Zn18	Zn	-0.482102	0.613516	0.403567
O19	O	-0.975443	0.234545	0.073272
O20	O	-0.475443	0.734545	0.573272
C21	C	-0.830090	0.119626	0.000040
C22	C	-0.330090	0.619626	0.500040
C23	C	-0.737795	0.118011	0.000035
C24	C	-0.237795	0.618011	0.500035
C25	C	-0.988206	-0.038491	0.000054
C26	C	-0.488206	0.461509	0.500054
C27	C	-0.986591	-0.130786	0.000053
C28	C	-0.486591	0.369214	0.500053
C29	C	-1.134102	0.107404	0.000056
C30	C	-0.634102	0.607404	0.500056
C31	C	-1.226397	0.109019	0.000055
C32	C	-0.726397	0.609019	0.500055
C33	C	-0.515523	0.190018	0.000042
C34	C	-0.015523	0.690018	0.500042
C35	C	-0.428802	0.188494	0.000047
C36	C	0.071198	0.688494	0.500047
C37	C	-0.448676	0.037006	0.000051
C38	C	0.051324	0.537006	0.500051
C39	C	-0.535395	0.038530	0.000052
C40	C	-0.035395	0.538530	0.500052
C41	C	-0.568816	0.115039	0.000043
C42	C	-0.068816	0.615039	0.500043
C43	C	-0.395376	0.111990	0.000048
C44	C	0.104624	0.611990	0.500048
C45	C	-0.301350	0.110337	0.000054
C46	C	0.198650	0.610337	0.500054
C47	C	-0.662848	0.116693	0.000038
C48	C	-0.162848	0.616693	0.500038
C49	C	-0.975986	0.265520	0.000042
C50	C	-0.475986	0.765520	0.500042
C51	C	-0.977601	0.357816	0.000037
C52	C	-0.477601	0.857816	0.500037
C53	C	-0.981341	0.570158	-0.079791
C54	C	-0.481341	1.070158	0.420209
C55	C	-0.982867	0.656878	-0.079789
C56	C	-0.482867	1.156878	0.420211
C57	C	-0.982854	0.656865	0.079887
C58	C	-0.482854	1.156865	0.579887
C59	C	-0.981333	0.570146	0.079884
C60	C	-0.481333	1.070146	0.579884
C61	C	-0.980572	0.526795	0.000043
C62	C	-0.480572	1.026795	0.500043
C63	C	-0.983619	0.700234	0.000048
C64	C	-0.483619	1.200234	0.500048
C65	C	-0.985275	0.794260	0.000050
C66	C	-0.485275	1.294260	0.500050
C67	C	-0.978919	0.432763	0.000040
C68	C	-0.478919	0.932763	0.500040
N69	N	-0.982089	0.113511	0.228224
N70	N	-0.482089	0.613511	0.728224
N71	N	-0.982110	0.113511	-0.228126
N72	N	-0.482110	0.613511	0.271874
C73	C	-1.038645	0.056993	0.453952
C74	C	-0.538645	0.556993	0.953952
C75	C	-1.038647	0.056992	0.546142
C76	C	-0.538647	0.556992	1.046142
C77	C	-0.925548	0.170032	0.546139
C78	C	-0.425548	0.670032	1.046139
C79	C	-0.925542	0.170029	0.453951
C80	C	-0.425542	0.670029	0.953951
C81	C	-0.982095	0.113511	0.407860
C82	C	-0.482095	0.613511	0.907860
C83	C	-0.982104	0.113512	0.592238
C84	C	-0.482104	0.613512	1.092238
C85	C	-0.982106	0.113510	0.692194
C86	C	-0.482106	0.613510	1.192194
C87	C	-0.982092	0.113512	0.307898
C88	C	-0.482092	0.613512	0.807898
H89	H	-0.542731	0.252317	0.000041
H90	H	-0.042731	0.752317	0.500041
H91	H	-0.578788	-0.022530	0.000055
H92	H	-0.078788	0.477470	0.500055
H93	H	-1.084693	0.010972	0.416427
H94	H	-0.584693	0.510972	0.916427
C95	C	-0.863324	0.232180	0.596838
C96	C	-0.363324	0.732180	1.096838
H97	H	-0.829632	0.265827	0.556182
H98	H	-0.329632	0.765827	1.056182
H99	H	-0.893198	0.266809	0.632809
H100	H	-0.393198	0.766809	1.132809
H101	H	-0.828735	0.202234	0.632792
H102	H	-0.328735	0.702234	1.132792
H103	H	-0.980720	0.534864	-0.144803
H104	H	-0.480720	1.034864	0.355197
C105	C	-0.983680	0.704551	0.167708
C106	C	-0.483680	1.204551	0.667708
H107	H	-0.983011	0.666303	0.215253
H108	H	-0.483011	1.166303	0.715253
H109	H	-0.935817	0.744734	0.171022
H110	H	-0.435817	1.244734	0.671022
H111	H	-1.032732	0.732026	0.171034
H112	H	-0.532732	1.232026	0.671034
C113	C	-0.983707	0.704574	-0.167605
C114	C	-0.483707	1.204574	0.332395
H115	H	-0.983030	0.666334	-0.215153
H116	H	-0.483030	1.166334	0.284847
H117	H	-1.032755	0.732049	-0.170924
H118	H	-0.532755	1.232049	0.329076
H119	H	-0.935840	0.744758	-0.170925
H120	H	-0.435840	1.244758	0.329075
C121	C	-0.370184	0.270971	0.000040
C122	C	0.129816	0.770971	0.500040
H123	H	-0.402511	0.316752	0.000028
H124	H	0.097489	0.816752	0.500028
H125	H	-0.335941	0.273528	0.051113
H126	H	0.164059	0.773528	0.551113
H127	H	-0.335943	0.273524	-0.051040
H128	H	0.164057	0.773524	0.448960
H129	H	-0.980710	0.534839	0.144898
H130	H	-0.480710	1.034839	0.644898
C131	C	-0.411910	-0.047147	0.000050
C132	C	0.088090	0.452853	0.500050
H133	H	-0.352630	-0.037318	0.000040
H134	H	0.147370	0.462682	0.500040
H135	H	-0.430202	-0.078024	0.051122
H136	H	0.069798	0.421976	0.551122
H137	H	-0.430207	-0.078012	-0.051030
H138	H	0.069793	0.421988	0.448970
C139	C	-1.100855	-0.005175	0.596839
C140	C	-0.600855	0.494825	1.096839
H141	H	-1.134537	-0.038829	0.556183
H142	H	-0.634537	0.461171	1.056183
H143	H	-1.070964	-0.039795	0.632808
H144	H	-0.570964	0.460205	1.132808
H145	H	-1.135457	0.024751	0.632795
H146	H	-0.635457	0.524751	1.132795
C147	C	-0.863336	0.232204	0.403247
C148	C	-0.363336	0.732204	0.903247
H149	H	-0.829664	0.265873	0.443899
H150	H	-0.329664	0.765873	0.943899
H151	H	-0.828737	0.202285	0.367289
H152	H	-0.328737	0.702285	0.867289
H153	H	-0.893238	0.266822	0.367279
H154	H	-0.393238	0.766822	0.867279
