data_functionalizedCrystal
_audit_creation_method	'MofGen! by Chris Wilmer'
_symmetry_space_group_name_H-M	'P1'
_symmetry_Int_Tables_number	1
_symmetry_cell_setting	triclinic
loop_
_symmetry_equiv_pos_as_xyz
  x,y,z
_cell_length_a	31.640172
_cell_length_b	21.606444
_cell_length_c	21.606444
_cell_angle_alpha	90.000308
_cell_angle_beta	60.007561
_cell_angle_gamma	60.000374
loop_
_atom_site_label
_atom_site_type_symbol
_atom_site_fract_x
_atom_site_fract_y
_atom_site_fract_z
Zr1	Zr	0.462601	-0.081233	0.596314
O2	O	0.550762	-0.180051	0.497510
O3	O	0.374436	-0.050941	0.626591
O4	O	0.462599	-0.180057	0.626609
O5	O	0.462602	0.050914	0.497491
O6	O	0.462602	-0.180061	0.728459
O7	O	0.462599	-0.050935	0.497492
O8	O	0.304895	0.050904	0.728427
O9	O	0.620310	-0.180050	0.497524
O10	O	0.410704	-0.038024	0.715528
O11	O	0.410704	0.037988	0.639518
O12	O	0.514504	-0.114029	0.639539
O13	O	0.514504	-0.038017	0.563530
Zr14	Zr	0.462611	0.081199	0.758753
Zr15	Zr	0.462606	-0.081239	0.758753
Zr16	Zr	0.462606	0.081205	0.596314
Zr17	Zr	0.573522	-0.081231	0.596337
Zr18	Zr	0.351691	0.081198	0.758730
O19	O	0.550776	0.050908	0.728476
O20	O	0.550769	-0.180059	0.728476
O21	O	0.550769	0.050916	0.497509
O22	O	0.374450	0.180017	0.857557
O23	O	0.374443	-0.050950	0.857558
O24	O	0.374443	0.180025	0.626591
O25	O	0.462610	-0.050948	0.857575
O26	O	0.462613	0.180023	0.728458
O27	O	0.462610	0.180027	0.626608
O28	O	0.462613	0.050901	0.857575
O29	O	0.620314	-0.180054	0.626641
O30	O	0.304899	0.180020	0.728426
O31	O	0.304902	0.180016	0.857543
O32	O	0.304899	0.050899	0.857543
O33	O	0.620314	-0.050933	0.497523
O34	O	0.620317	-0.050937	0.626640
O35	O	0.410708	0.113995	0.715527
O36	O	0.410708	0.037983	0.791537
O37	O	0.514509	-0.038022	0.715549
O38	O	0.514509	0.037990	0.639539
C39	C	0.323862	-0.000019	0.677506
C40	C	0.276773	-0.000020	0.677496
C41	C	0.462600	-0.000010	0.474348
C42	C	0.462598	-0.000007	0.405388
C43	C	0.462612	0.203169	0.677533
C44	C	0.462614	0.272128	0.677533
C45	C	-0.015269	-0.039687	0.717225
C46	C	-0.192264	-0.039687	0.717240
O47	O	-0.215169	-0.073404	0.751011
N48	N	-0.214393	-0.000011	0.677563
C49	C	-0.192274	0.039672	0.637884
O50	O	-0.215161	0.073425	0.604143
C51	C	-0.015282	0.039675	0.637873
C52	C	0.006849	-0.000010	0.677546
C53	C	0.006862	-0.079368	0.756896
C54	C	0.051111	-0.079371	0.756888
C55	C	0.073228	-0.039694	0.717209
C56	C	0.051098	-0.000013	0.677539
C57	C	0.006834	0.079362	0.598198
C58	C	0.051084	0.079361	0.598200
C59	C	0.073215	0.039676	0.637874
C60	C	0.117464	0.039662	0.637852
N61	N	0.139593	-0.000014	0.677529
C62	C	0.117475	-0.039692	0.717208
C63	C	-0.285196	0.039666	0.637891
C64	C	-0.329443	0.039664	0.637892
C65	C	-0.329432	-0.039694	0.717250
C66	C	-0.285181	-0.039696	0.717244
C67	C	-0.263067	-0.000010	0.677568
C68	C	0.210401	-0.039696	0.717188
C69	C	0.254655	-0.039698	0.717175
C70	C	0.254638	0.039663	0.637820
C71	C	0.210390	0.039662	0.637830
C72	C	0.188271	-0.000019	0.677520
O73	O	0.140392	0.073368	0.604106
O74	O	0.140361	-0.073426	0.750958
C75	C	-0.059517	-0.039684	0.717232
C76	C	-0.081648	-0.000003	0.677562
C77	C	-0.059530	0.039674	0.637883
C78	C	-0.125895	-0.000005	0.677563
C79	C	-0.148013	-0.039683	0.717242
C80	C	-0.125884	-0.079359	0.756919
C81	C	-0.081635	-0.079362	0.756911
C82	C	-0.081659	0.079350	0.598206
C83	C	-0.125907	0.079350	0.598216
C84	C	-0.148025	0.039672	0.637895
C85	C	0.601350	-0.000015	0.677561
C86	C	0.648439	-0.000014	0.677571
C87	C	0.462600	-0.203203	0.677534
C88	C	0.462598	-0.272162	0.677534
C89	C	0.516796	0.264854	0.637869
C90	C	0.516795	0.329651	0.637866
C91	C	0.462610	0.401722	0.677531
C92	C	0.408424	0.408995	0.717196
C93	C	0.408426	0.344199	0.717195
C94	C	0.408413	0.670313	0.717202
C95	C	0.408415	0.735112	0.717202
C96	C	0.516782	0.655766	0.637873
C97	C	0.516784	0.590969	0.637872
C98	C	0.462598	0.598248	0.677533
C99	C	0.462601	0.527987	0.677535
C100	C	0.462607	0.471983	0.677534
C101	C	0.408416	0.039664	0.412654
C102	C	0.408417	0.039665	0.347857
C103	C	0.462602	-0.000011	0.275794
C104	C	0.516789	-0.039683	0.268530
C105	C	0.516786	-0.039679	0.333326
C106	C	0.516799	-0.039700	0.007212
C107	C	0.516797	-0.039703	-0.057586
C108	C	0.408430	0.039644	0.021742
C109	C	0.408428	0.039648	0.086538
C110	C	0.462614	-0.000021	0.079269
C111	C	0.462611	-0.000020	0.149530
C112	C	0.462605	-0.000016	0.205534
C113	C	0.462612	-0.000024	0.880719
C114	C	0.462614	-0.000027	0.949679
C115	C	0.323868	-0.000027	0.880691
C116	C	0.276781	-0.000030	0.949641
C117	C	0.323868	0.203167	0.677505
C118	C	0.276781	0.272125	0.677496
C119	C	0.323874	0.203159	0.880691
C120	C	0.276789	0.272115	0.949641
C121	C	0.601338	-0.203193	0.474376
C122	C	0.648423	-0.272149	0.405426
C123	C	0.601344	-0.000007	0.474375
C124	C	0.648431	-0.000004	0.405425
C125	C	0.601344	-0.203201	0.677562
C126	C	0.648431	-0.272159	0.677571
C127	C	0.254667	-0.039713	0.942345
C128	C	0.210430	-0.039731	1.007125
C129	C	0.188306	-0.000061	1.079200
C130	C	0.210425	0.039623	1.086495
C131	C	0.254664	0.039636	1.021716
C132	C	0.254671	0.344190	0.717167
C133	C	0.210435	0.408991	0.717155
C134	C	0.188306	0.401724	0.677476
C135	C	0.210420	0.329651	0.637800
C136	C	0.254659	0.264853	0.637807
C137	C	0.254678	0.264820	1.021704
C138	C	0.210443	0.329606	1.086495
C139	C	0.188318	0.401686	1.079223
C140	C	0.210433	0.408979	1.007153
C141	C	0.254670	0.344194	0.942363
C142	C	0.670540	-0.264854	0.333363
C143	C	0.714788	-0.329640	0.268571
C144	C	0.736916	-0.401719	0.275844
C145	C	0.714797	-0.409013	0.347914
C146	C	0.670553	-0.344228	0.412704
C147	C	0.670550	0.039672	0.412722
C148	C	0.714799	0.039673	0.347942
C149	C	0.736925	0.000001	0.275867
C150	C	0.714804	-0.039680	0.268572
C151	C	0.670559	-0.039685	0.333351
C152	C	0.670546	-0.264868	0.717258
C153	C	0.714783	-0.329656	0.717282
C154	C	0.736907	-0.401734	0.677614
C155	C	0.714788	-0.409023	0.637926
C156	C	0.670549	-0.344236	0.637907
H157	H	0.272674	-0.072017	0.749481
N158	N	0.278514	0.352068	0.864639
H159	H	0.257781	0.407562	0.869871
H160	H	0.270806	0.326922	0.836029
N161	N	0.646689	-0.187132	0.760045
H162	H	0.667415	-0.192356	0.785190
H163	H	0.602277	-0.158524	0.799921
H164	H	0.772952	0.000010	0.223126
H165	H	0.560907	-0.071983	0.209851
H166	H	0.652526	-0.206169	0.327428
N167	N	0.349972	0.082462	0.490375
H168	H	0.358190	0.076446	0.530323
H169	H	0.326309	0.061629	0.496371
N170	N	0.738632	-0.321769	0.190843
H171	H	0.783042	-0.346867	0.162195
H172	H	0.717851	-0.266262	0.196133
H173	H	0.732787	-0.323706	0.749600
H174	H	0.192412	0.467675	1.001243
N175	N	0.784631	-0.471586	0.205954
H176	H	0.769234	-0.502773	0.205914
H177	H	0.821333	-0.502719	0.205961
H178	H	0.272684	0.350122	0.749479
H179	H	-0.347447	-0.072002	0.749557
N180	N	0.349987	0.352039	0.759981
H181	H	0.347571	0.326925	0.723590
H182	H	0.315694	0.407541	0.785110
H183	H	0.192426	-0.072046	1.001170
H184	H	0.732820	-0.467708	0.353826
N185	N	0.186586	0.486719	0.759954
H186	H	0.207315	0.481484	0.785096
H187	H	0.142174	0.515332	0.799831
N188	N	0.140590	0.471617	0.677472
H189	H	0.129943	0.518371	0.708629
H190	H	0.103906	0.471584	0.700031
N191	N	0.140592	-0.000081	1.149065
H192	H	0.129942	-0.031240	1.133499
H193	H	0.103909	0.053673	1.180218
N194	N	0.646696	0.082454	0.490456
H195	H	0.602286	0.122385	0.519103
H196	H	0.667473	0.107533	0.485176
N197	N	0.074937	0.122161	0.555399
H198	H	0.106328	0.116142	0.561412
H199	H	0.041147	0.177646	0.576231
N200	N	-0.261339	0.082461	0.595086
H201	H	-0.269032	0.122392	0.631465
H202	H	-0.282082	0.107542	0.569953
H203	H	0.192396	0.323746	0.605494
H204	H	0.772929	-0.454482	0.677635
N205	N	0.575233	0.513244	0.595087
H206	H	0.577654	0.484586	0.555157
H207	H	0.577619	0.484651	0.631526
H208	H	0.560907	-0.071973	0.327406
H209	H	0.272655	0.206176	0.605505
N210	N	0.278534	0.187087	1.029570
H211	H	0.322946	0.158437	1.004462
H212	H	0.270789	0.158494	1.004473
N213	N	0.186560	0.082407	1.164235
H214	H	0.155178	0.076374	1.204159
H215	H	0.168231	0.137895	1.170239
N216	N	0.186559	-0.082504	0.759989
H217	H	0.194253	-0.122431	0.723606
H218	H	0.142157	-0.046075	0.799921
N219	N	0.646698	-0.352102	0.490428
H220	H	0.667431	-0.407596	0.485196
H221	H	0.602287	-0.326958	0.519026
H222	H	0.192376	0.071967	0.605515
H223	H	0.364305	0.071953	0.145213
H224	H	0.732803	0.071989	0.353897
H225	H	0.272664	0.071955	1.027667
N226	N	-0.149777	0.122162	0.555428
H227	H	-0.181169	0.116151	0.561451
H228	H	-0.115996	0.101337	0.499945
N229	N	0.349968	0.678177	0.759998
H230	H	0.347538	0.653071	0.723619
H231	H	0.315684	0.733683	0.785125
H232	H	0.364297	0.071970	0.353779
N233	N	0.278523	-0.082501	0.864612
H234	H	0.257797	-0.107642	0.869831
H235	H	0.322935	-0.122384	0.836009
N236	N	0.186594	0.321730	1.164221
H237	H	0.207321	0.266236	1.158991
H238	H	0.142181	0.346885	1.192829
N239	N	0.575236	0.187119	0.595087
H240	H	0.577652	0.158468	0.631479
H241	H	0.609529	0.192403	0.569958
N242	N	0.140605	0.471557	1.149108
H243	H	0.129957	0.455992	1.195860
H244	H	0.103921	0.502715	1.149069
H245	H	0.732825	-0.071980	0.209880
N246	N	0.646703	-0.082480	0.325476
H247	H	0.667436	-0.107608	0.269985
H248	H	0.602292	-0.046052	0.350613
H249	H	0.732808	-0.467718	0.605629
N250	N	0.349988	0.082436	0.029575
H251	H	0.326297	0.137940	0.058193
H252	H	0.326347	0.061559	0.058169
N253	N	0.074976	-0.122173	0.799681
H254	H	0.054243	-0.147303	0.824816
H255	H	0.067282	-0.085745	0.839565
N256	N	-0.016990	-0.122167	0.799696
H257	H	0.003750	-0.147300	0.824823
H258	H	-0.009292	-0.162057	0.763270
H259	H	0.652548	-0.350183	0.605585
H260	H	-0.267165	-0.072010	0.749550
H261	H	-0.347452	0.071970	0.605576
H262	H	0.272656	0.071965	0.605512
N263	N	-0.017037	0.122177	0.555419
H264	H	0.003690	0.147317	0.530294
H265	H	-0.061447	0.162064	0.591857
H266	H	-0.063619	-0.111677	0.789217
H267	H	-0.063656	0.111664	0.565896
N268	N	-0.149739	-0.122162	0.799709
H269	H	-0.181128	-0.116135	0.793688
H270	H	-0.168057	-0.101333	0.855191
N271	N	0.349981	0.486728	0.759982
H272	H	0.326297	0.492788	0.815481
H273	H	0.326338	0.492750	0.739106
H274	H	0.560903	0.649846	0.605576
N275	N	0.575234	0.321806	0.595094
H276	H	0.598929	0.293180	0.539594
H277	H	0.598869	0.293210	0.615981
N278	N	0.349969	0.812848	0.759988
H279	H	0.326281	0.818919	0.739166
H280	H	0.358241	0.852742	0.753960
N281	N	0.575242	-0.082496	-0.135315
H282	H	0.609569	-0.107623	-0.130089
H283	H	0.577597	-0.046062	-0.163926
H284	H	0.560921	-0.072014	0.001282
