data_functionalizedCrystal
_audit_creation_method	'MofGen! by Chris Wilmer'
_symmetry_space_group_name_H-M	'P1'
_symmetry_Int_Tables_number	1
_symmetry_cell_setting	triclinic
loop_
_symmetry_equiv_pos_as_xyz
  x,y,z
_cell_length_a	19.188905
_cell_length_b	27.732048
_cell_length_c	18.266242
_cell_angle_alpha	89.988683
_cell_angle_beta	89.983837
_cell_angle_gamma	82.888605
loop_
_atom_site_label
_atom_site_type_symbol
_atom_site_fract_x
_atom_site_fract_y
_atom_site_fract_z
O1	O	0.925776	0.060290	-0.061009
O2	O	1.425776	0.560290	0.438991
O3	O	0.722410	0.068427	-0.060985
O4	O	1.222410	0.568427	0.439015
O5	O	0.830409	-0.006019	-0.060984
O6	O	1.330409	0.493981	0.439016
O7	O	0.817777	0.134736	-0.061011
O8	O	1.317777	0.634736	0.438989
O9	O	0.830391	-0.006023	0.060778
O10	O	1.330391	0.493977	0.560778
O11	O	0.722392	0.068423	0.060777
O12	O	1.222392	0.568423	0.560777
O13	O	0.925758	0.060287	0.060753
O14	O	1.425758	0.560287	0.560753
Zn15	Zn	0.824072	0.064354	0.080097
Zn16	Zn	1.324072	0.564354	0.580097
Zn17	Zn	0.824096	0.064359	-0.080330
Zn18	Zn	1.324096	0.564359	0.419670
O19	O	0.817759	0.134733	0.060751
O20	O	1.317759	0.634733	0.560751
C21	C	0.696391	0.068163	-0.000101
C22	C	1.196391	0.568163	0.499899
C23	C	0.618891	0.067379	-0.000091
C24	C	1.118891	0.567379	0.499909
C25	C	0.582512	0.067004	-0.066466
C26	C	1.082512	0.567004	0.433534
C27	C	0.509693	0.066261	-0.066475
C28	C	1.009693	0.566261	0.433525
C29	C	0.473258	0.065883	-0.000106
C30	C	0.973258	0.565883	0.499894
C31	C	0.509646	0.066261	0.066278
C32	C	1.009646	0.566261	0.566278
C33	C	0.582462	0.067009	0.066285
C34	C	1.082462	0.567009	0.566285
N35	N	0.364413	0.037200	0.049292
N36	N	0.864413	0.537200	0.549292
N37	N	0.295241	0.036489	0.049281
N38	N	0.795241	0.536489	0.549281
C39	C	0.253866	0.063631	-0.000123
C40	C	0.753866	0.563631	0.499877
N41	N	0.284277	0.091506	-0.049526
N42	N	0.784277	0.591506	0.450474
N43	N	0.353457	0.092215	-0.049517
N44	N	0.853457	0.592215	0.450483
C45	C	0.394301	0.065073	-0.000106
C46	C	0.894301	0.565073	0.499894
C47	C	0.138528	0.062451	-0.066511
C48	C	0.638528	0.562451	0.433489
C49	C	0.065707	0.061712	-0.066518
C50	C	0.565707	0.561712	0.433482
C51	C	0.065662	0.061707	0.066237
C52	C	0.565662	0.561707	0.566237
C53	C	0.138481	0.062452	0.066241
C54	C	0.638481	0.562452	0.566241
C55	C	0.174909	0.062822	-0.000135
C56	C	0.674909	0.562822	0.499865
C57	C	0.830135	-0.024029	-0.000101
C58	C	1.330135	0.475971	0.499899
C59	C	0.829336	-0.077686	-0.000095
C60	C	1.329336	0.422314	0.499905
C61	C	0.888130	-0.416325	-0.000140
C62	C	1.388130	0.083675	0.499860
C63	C	0.885167	-0.617994	-0.000149
C64	C	1.385167	-0.117994	0.499851
O65	O	0.938930	-0.649088	-0.000188
O66	O	1.438930	-0.149088	0.499812
N67	N	0.821129	-0.637309	-0.000141
N68	N	1.321129	-0.137309	0.499859
C69	C	0.757826	-0.606204	-0.000135
C70	C	1.257826	-0.106204	0.499865
O71	O	0.703289	-0.627261	-0.000136
O72	O	1.203289	-0.127261	0.499864
C73	C	0.760789	-0.404537	-0.000131
C74	C	1.260789	0.095463	0.499869
C75	C	0.824832	-0.385224	-0.000131
C76	C	1.324832	0.114776	0.499869
C77	C	0.952168	-0.397012	-0.000141
C78	C	1.452168	0.102988	0.499859
C79	C	0.952908	-0.346598	-0.000135
C80	C	1.452908	0.153402	0.499865
C81	C	0.889610	-0.315497	-0.000127
C82	C	1.389610	0.184503	0.499873
C83	C	0.825572	-0.334810	-0.000125
C84	C	1.325572	0.165190	0.499875
C85	C	0.697487	-0.373432	-0.000130
C86	C	1.197487	0.126568	0.499870
C87	C	0.698234	-0.323013	-0.000131
C88	C	1.198234	0.176987	0.499869
C89	C	0.762277	-0.303700	-0.000132
C90	C	1.262277	0.196300	0.499868
C91	C	0.763014	-0.253295	-0.000110
C92	C	1.263014	0.246705	0.499890
N93	N	0.827053	-0.233979	-0.000119
N94	N	1.327053	0.266021	0.499881
C95	C	0.890351	-0.265080	-0.000127
C96	C	1.390351	0.234920	0.499873
C97	C	0.756275	-0.712083	-0.000136
C98	C	1.256275	-0.212083	0.499864
C99	C	0.755534	-0.762499	-0.000136
C100	C	1.255534	-0.262499	0.499864
C101	C	0.882876	-0.774286	-0.000152
C102	C	1.382876	-0.274286	0.499848
C103	C	0.883616	-0.723868	-0.000147
C104	C	1.383616	-0.223868	0.499853
C105	C	0.820313	-0.692767	-0.000145
C106	C	1.320313	-0.192767	0.499855
C107	C	0.891900	-0.159206	-0.000113
C108	C	1.391900	0.340794	0.499887
C109	C	0.892634	-0.108787	-0.000103
C110	C	1.392634	0.391213	0.499897
C111	C	0.765293	-0.097006	-0.000091
C112	C	1.265293	0.402994	0.499909
C113	C	0.764558	-0.147420	-0.000097
C114	C	1.264558	0.352580	0.499903
C115	C	0.827867	-0.178520	-0.000110
C116	C	1.327867	0.321480	0.499890
O117	O	0.709280	-0.222172	-0.000080
O118	O	1.209280	0.277828	0.499920
O119	O	0.944880	-0.244014	-0.000142
O120	O	1.444880	0.255986	0.499858
C121	C	0.887390	-0.466739	-0.000146
C122	C	1.387390	0.033261	0.499854
C123	C	0.823352	-0.486052	-0.000144
C124	C	1.323352	0.013948	0.499856
C125	C	0.760054	-0.454951	-0.000136
C126	C	1.260054	0.045049	0.499864
C127	C	0.822611	-0.536469	-0.000144
C128	C	1.322611	-0.036469	0.499856
C129	C	0.885909	-0.567570	-0.000152
C130	C	1.385909	-0.067570	0.499848
C131	C	0.949948	-0.548255	-0.000161
C132	C	1.449948	-0.048255	0.499839
C133	C	0.950688	-0.497840	-0.000154
C134	C	1.450688	0.002160	0.499846
C135	C	0.696015	-0.474267	-0.000128
C136	C	1.196015	0.025733	0.499872
C137	C	0.695281	-0.524681	-0.000134
C138	C	1.195281	-0.024681	0.499866
C139	C	0.758579	-0.555783	-0.000142
C140	C	1.258579	-0.055783	0.499858
C141	C	0.951776	0.060550	-0.000133
C142	C	1.451776	0.560550	0.499867
C143	C	1.029277	0.061335	-0.000148
C144	C	1.529277	0.561335	0.499852
C145	C	0.818033	0.152742	-0.000133
C146	C	1.318033	0.652742	0.499867
C147	C	0.818831	0.206399	-0.000144
C148	C	1.318831	0.706399	0.499856
N149	N	0.824061	0.064350	0.189584
N150	N	1.324061	0.564350	0.689584
N151	N	0.824113	0.064359	-0.189817
N152	N	1.324113	0.564359	0.310183
C153	C	0.871898	0.031402	0.227893
C154	C	1.371898	0.531402	0.727893
C155	C	0.871903	0.031400	0.304538
C156	C	1.371903	0.531400	0.804538
C157	C	0.824076	0.064354	0.342871
C158	C	1.324076	0.564354	0.842871
C159	C	0.776230	0.097305	0.304552
C160	C	1.276230	0.597305	0.804552
C161	C	0.776222	0.097303	0.227909
C162	C	1.276222	0.597303	0.727909
N163	N	0.814728	0.107145	0.463196
N164	N	1.314728	0.607145	0.963196
N165	N	0.814739	0.107145	0.536004
N166	N	1.314739	0.607145	1.036004
C167	C	0.824096	0.064361	0.573793
C168	C	1.324096	0.564361	1.073793
N169	N	0.833454	0.021576	0.536024
N170	N	1.333454	0.521576	1.036024
N171	N	0.833446	0.021576	0.463209
N172	N	1.333446	0.521576	0.963209
C173	C	0.824079	0.064360	0.425978
C174	C	1.324079	0.564360	0.925978
C175	C	0.871941	0.031407	0.695210
C176	C	1.371941	0.531407	1.195210
C177	C	0.871940	0.031405	0.771856
C178	C	1.371940	0.531405	1.271856
C179	C	0.776271	0.097315	0.771868
C180	C	1.276271	0.597315	1.271868
C181	C	0.776268	0.097313	0.695224
C182	C	1.276268	0.597313	1.195224
C183	C	0.824107	0.064360	0.656899
C184	C	1.324107	0.564360	1.156899
H185	H	0.168102	0.062754	0.120290
H186	H	0.668102	0.562754	0.620290
H187	H	0.612167	0.067305	-0.120514
H188	H	1.112167	0.567305	0.379486
H189	H	1.002838	-0.482121	-0.000155
H190	H	1.502838	0.017879	0.499845
H191	H	1.001487	-0.573586	-0.000164
H192	H	1.501487	-0.073586	0.499836
C193	C	0.630328	-0.705508	-0.000110
C194	C	1.130328	-0.205508	0.499890
C195	C	0.686686	-0.677901	-0.000123
C196	C	1.186686	-0.177901	0.499877
H197	H	0.587368	-0.684406	-0.000095
H198	H	1.087368	-0.184406	0.499905
H199	H	0.632695	-0.725410	-0.042571
H200	H	1.132695	-0.225410	0.457429
H201	H	0.632697	-0.725426	0.042352
H202	H	1.132697	-0.225426	0.542352
H203	H	0.684320	-0.657985	-0.042589
H204	H	1.184320	-0.157985	0.457411
H205	H	0.684318	-0.657990	0.042341
H206	H	1.184318	-0.157990	0.542341
C207	C	1.018435	-0.125509	-0.000125
C208	C	1.518435	0.374491	0.499875
C209	C	0.963035	-0.087560	-0.000110
C210	C	1.463035	0.412440	0.499890
H211	H	1.061895	-0.112405	-0.000135
H212	H	1.561895	0.387595	0.499865
H213	H	1.015492	-0.144934	0.042332
H214	H	1.515492	0.355066	0.542332
H215	H	1.015495	-0.144922	-0.042590
H216	H	1.515495	0.355078	0.457410
H217	H	0.965973	-0.068150	0.042358
H218	H	1.465973	0.431850	0.542358
H219	H	0.965980	-0.068128	-0.042572
H220	H	1.465980	0.431872	0.457428
H221	H	0.036087	0.061409	-0.120570
H222	H	0.536087	0.561409	0.379430
C223	C	0.517045	0.066331	-0.197696
C224	C	1.017045	0.566331	0.302304
C225	C	0.469693	0.065847	-0.139438
C226	C	0.969693	0.565847	0.360562
H227	H	0.492352	0.066073	-0.242739
H228	H	0.992352	0.566073	0.257261
H229	H	0.539807	0.094803	-0.194943
H230	H	1.039807	0.594803	0.305057
H231	H	0.551084	0.038439	-0.194920
H232	H	1.051084	0.538439	0.305080
H233	H	0.435657	0.093741	-0.142211
H234	H	0.935657	0.593741	0.357789
H235	H	0.446920	0.037373	-0.142193
H236	H	0.946920	0.537373	0.357807
H237	H	0.910893	0.004571	0.803048
H238	H	1.410893	0.504571	1.303048
C239	C	0.478871	0.107569	0.179415
C240	C	0.978871	0.607569	0.679415
C241	C	0.469599	0.065845	0.139232
C242	C	0.969599	0.565845	0.639232
H243	H	0.454143	0.107315	0.224453
H244	H	0.954143	0.607315	0.724453
H245	H	0.527439	0.108066	0.188918
H246	H	1.027439	0.608066	0.688918
H247	H	0.461306	0.135625	0.152128
H248	H	0.961306	0.635625	0.652128
H249	H	0.487168	0.037789	0.166516
H250	H	0.987168	0.537789	0.666516
H251	H	0.421020	0.065344	0.129730
H252	H	0.921020	0.565344	0.629730
H253	H	1.003716	-0.422330	-0.000150
H254	H	1.503716	0.077670	0.499850
H255	H	0.935765	-0.708148	-0.000148
H256	H	1.435765	-0.208148	0.499852
H257	H	0.646684	-0.297693	-0.000130
H258	H	1.146684	0.202307	0.499870
C259	C	0.913870	-0.052342	0.671553
C260	C	1.413870	0.447658	1.171553
C261	C	0.924515	-0.004801	0.653046
C262	C	1.424515	0.495199	1.153046
H263	H	0.946324	-0.074689	0.645511
H264	H	1.446324	0.425311	1.145511
H265	H	0.920740	-0.057073	0.722670
H266	H	1.420740	0.442927	1.222670
H267	H	0.867326	-0.057506	0.659016
H268	H	1.367326	0.442494	1.159016
H269	H	0.971057	0.000365	0.665588
H270	H	1.471057	0.500365	1.165588
H271	H	0.917651	-0.000068	0.601917
H272	H	1.417651	0.499932	1.101917
H273	H	0.737266	0.124135	0.196716
H274	H	1.237266	0.624135	0.696716
H275	H	0.612082	0.067314	0.120336
H276	H	1.112082	0.567314	0.620336
C277	C	0.689831	-0.197290	0.062499
C278	C	1.189831	0.302710	0.562499
C279	C	0.694160	-0.168649	-0.000088
C280	C	1.194160	0.331351	0.499912
H281	H	0.646367	-0.210390	0.062500
H282	H	1.146367	0.289610	0.562500
H283	H	0.727415	-0.223029	0.062484
H284	H	1.227415	0.276971	0.562484
H285	H	0.692763	-0.177872	0.104959
H286	H	1.192763	0.322128	0.604959
H287	H	0.691233	-0.188069	-0.042549
H288	H	1.191233	0.311931	0.457451
H289	H	0.656566	-0.142907	-0.000080
H290	H	1.156566	0.357093	0.499920
H291	H	0.035997	0.061402	0.120276
H292	H	0.535997	0.561402	0.620276
C293	C	0.681149	0.107974	0.858090
C294	C	1.181149	0.607974	1.358090
C295	C	0.723697	0.133539	0.813995
C296	C	1.223697	0.633539	1.313995
H297	H	0.648693	0.130338	0.884102
H298	H	1.148693	0.630338	1.384102
H299	H	0.656254	0.087902	0.828206
H300	H	1.156254	0.587902	1.328206
H301	H	0.709647	0.088351	0.891875
H302	H	1.209647	0.588351	1.391875
H303	H	0.695200	0.153159	0.780206
H304	H	1.195200	0.653159	1.280206
H305	H	0.748595	0.153620	0.843882
H306	H	1.248595	0.653620	1.343882
C307	C	0.966823	0.020539	0.141382
C308	C	1.466823	0.520539	0.641382
C309	C	0.924251	-0.004903	0.185635
C310	C	1.424251	0.495097	0.685635
H311	H	0.999078	-0.001899	0.115257
H312	H	1.499078	0.498101	0.615257
H313	H	0.938319	0.040239	0.107703
H314	H	1.438319	0.540239	0.607703
H315	H	0.991953	0.040525	0.171177
H316	H	1.491953	0.540525	0.671177
H317	H	0.899117	-0.024887	0.155839
H318	H	1.399117	0.475113	0.655839
H319	H	0.952759	-0.024611	0.219318
H320	H	1.452759	0.475389	0.719318
H321	H	0.934415	-0.799617	-0.000158
H322	H	1.434415	-0.299617	0.499842
C323	C	0.681713	0.162464	0.702937
C324	C	1.181713	0.662464	1.202937
C325	C	0.723691	0.133537	0.653109
C326	C	1.223691	0.633537	1.153109
H327	H	0.649255	0.184829	0.676936
H328	H	1.149255	0.684829	1.176936
H329	H	0.656820	0.142389	0.732845
H330	H	1.156820	0.642389	1.232845
H331	H	0.710597	0.179799	0.732815
H332	H	1.210597	0.679799	1.232815
H333	H	0.694807	0.116200	0.623234
H334	H	1.194807	0.616200	1.123234
H335	H	0.748585	0.153615	0.623188
H336	H	1.248585	0.653615	1.123188
H337	H	0.943453	-0.184522	-0.000126
H338	H	1.443453	0.315478	0.499874
C339	C	0.131258	0.062394	-0.197733
C340	C	0.631258	0.562394	0.302267
C341	C	0.178573	0.062871	-0.139469
C342	C	0.678573	0.562871	0.360531
H343	H	0.155980	0.062657	-0.242773
H344	H	0.655980	0.562657	0.257227
H345	H	0.108494	0.033922	-0.194977
H346	H	0.608494	0.533922	0.305023
H347	H	0.097217	0.090285	-0.194967
H348	H	0.597217	0.590285	0.305033
H349	H	0.212611	0.034977	-0.142232
H350	H	0.712611	0.534977	0.357768
H351	H	0.201348	0.091346	-0.142227
H352	H	0.701348	0.591346	0.357773
H353	H	0.713757	-0.071674	-0.000082
H354	H	1.213757	0.428326	0.499918
H355	H	1.005058	-0.330879	-0.000138
H356	H	1.505058	0.169121	0.499862
C357	C	0.680831	-0.812346	-0.062721
C358	C	1.180831	-0.312346	0.437279
C359	C	0.685136	-0.783725	-0.000128
C360	C	1.185136	-0.283725	0.499872
H361	H	0.637370	-0.825450	-0.062715
H362	H	1.137370	-0.325450	0.437285
H363	H	0.683774	-0.792917	-0.105173
H364	H	1.183774	-0.292917	0.394827
H365	H	0.718422	-0.838086	-0.062716
H366	H	1.218422	-0.338086	0.437284
H367	H	0.647547	-0.757983	-0.000135
H368	H	1.147547	-0.257983	0.499865
H369	H	0.682186	-0.803156	0.042335
H370	H	1.182186	-0.303156	0.542335
H371	H	0.645336	-0.389147	-0.000134
H372	H	1.145336	0.110853	0.499866
C373	C	0.569480	-0.507954	-0.000132
C374	C	1.069480	-0.007954	0.499868
C375	C	0.624877	-0.545906	-0.000135
C376	C	1.124877	-0.045906	0.499865
H377	H	0.526019	-0.521057	-0.000142
H378	H	1.026019	-0.021057	0.499858
H379	H	0.572409	-0.488546	0.042332
H380	H	1.072409	0.011454	0.542332
H381	H	0.572439	-0.488526	-0.042591
H382	H	1.072439	0.011474	0.457409
H383	H	0.621922	-0.565332	0.042327
H384	H	1.121922	-0.065332	0.542327
H385	H	0.621947	-0.565322	-0.042603
H386	H	1.121947	-0.065322	0.457397
C387	C	0.622965	-0.410727	-0.062707
C388	C	1.122965	0.089273	0.437293
C389	C	0.626431	-0.440086	-0.000117
C390	C	1.126431	0.059914	0.499883
H391	H	0.580000	-0.389629	-0.062698
H392	H	1.080000	0.110371	0.437302
H393	H	0.661198	-0.392004	-0.062704
H394	H	1.161198	0.107996	0.437296
H395	H	0.625333	-0.430637	-0.105166
H396	H	1.125333	0.069363	0.394834
H397	H	0.624068	-0.420175	0.042342
H398	H	1.124068	0.079825	0.542342
H399	H	0.588187	-0.458810	-0.000114
H400	H	1.088187	0.041190	0.499886
H401	H	0.910859	0.004568	0.335735
H402	H	1.410859	0.504568	0.835735
C403	C	0.733772	0.126578	0.422048
C404	C	1.233772	0.626578	0.922048
C405	C	0.723660	0.133531	0.346684
C406	C	1.223660	0.633531	0.846684
H407	H	0.701317	0.148944	0.448056
H408	H	1.201317	0.648944	0.948056
H409	H	0.726540	0.094335	0.434621
H410	H	1.226540	0.594335	0.934621
H411	H	0.780315	0.131747	0.434577
H412	H	1.280315	0.631747	0.934577
H413	H	0.677119	0.128359	0.334154
H414	H	1.177119	0.628359	0.834154
H415	H	0.730886	0.165782	0.334106
H416	H	1.230886	0.665782	0.834106
