data_functionalizedCrystal
_audit_creation_method	'MofGen! by Chris Wilmer'
_symmetry_space_group_name_H-M	'P1'
_symmetry_Int_Tables_number	1
_symmetry_cell_setting	triclinic
loop_
_symmetry_equiv_pos_as_xyz
  x,y,z
_cell_length_a	13.032831
_cell_length_b	16.959453
_cell_length_c	13.033429
_cell_angle_alpha	82.780405
_cell_angle_beta	89.091437
_cell_angle_gamma	82.824463
loop_
_atom_site_label
_atom_site_type_symbol
_atom_site_fract_x
_atom_site_fract_y
_atom_site_fract_z
Zn1	Zn	1.498537	-0.383759	-0.780851
Zn2	Zn	1.520257	-0.534576	-0.608850
Zn3	Zn	1.348377	-0.387973	-0.587080
Zn4	Zn	1.326521	-0.501453	-0.758986
O5	O	1.423423	-0.451940	-0.683942
O6	O	1.645340	-0.415863	-0.776296
O7	O	1.515694	-0.530755	-0.462036
O8	O	1.368353	-0.276805	-0.612825
O9	O	1.661298	-0.526668	-0.649927
O10	O	1.478675	-0.273709	-0.755187
O11	O	1.389414	-0.423047	-0.446042
O12	O	1.201556	-0.390928	-0.591623
O13	O	1.331102	-0.470215	-0.905813
O14	O	1.185498	-0.474301	-0.717921
O15	O	1.457482	-0.383745	-0.921877
O16	O	1.494500	-0.640792	-0.628725
O17	O	1.352163	-0.616456	-0.739030
C18	C	1.156210	-0.429478	-0.650038
C19	C	1.041892	-0.419885	-0.635558
C20	C	0.983019	-0.456947	-0.691499
C21	C	0.864865	-0.447033	-0.676535
C22	C	1.423342	-0.657304	-0.683893
C23	C	1.423397	-0.745163	-0.683919
C24	C	1.480936	-1.114962	-0.758205
C25	C	1.366178	-1.118324	-0.609868
C26	C	1.366143	-1.035777	-0.609839
C27	C	1.423504	-0.992819	-0.683996
C28	C	1.480900	-1.032407	-0.758180
C29	C	1.308739	-0.996181	-0.535663
C30	C	1.308701	-0.913630	-0.535632
C31	C	1.366069	-0.870671	-0.609784
C32	C	1.423468	-0.910264	-0.683971
C33	C	1.480829	-0.867306	-0.758128
C34	C	1.538236	-0.906899	-0.832311
C35	C	1.538268	-0.989448	-0.832333
C36	C	1.366036	-0.788121	-0.609762
C37	C	1.480794	-0.784751	-0.758103
C38	C	1.691680	-0.474491	-0.717979
C39	C	1.805995	-0.484100	-0.732483
C40	C	1.389431	-0.422815	-0.952207
C41	C	1.374946	-0.410403	-1.066525
C42	C	1.423530	-0.245775	-0.684017
C43	C	1.423575	-0.157920	-0.684048
C44	C	1.416004	-0.445346	-1.243556
C45	C	1.430976	-0.458170	-1.125402
C46	C	1.457342	-0.480901	-0.416728
C47	C	1.472026	-0.493106	-0.302435
H48	H	0.843058	-0.523167	-0.791465
O49	O	1.310299	-1.159992	-0.537930
C50	C	1.204932	-1.128812	-0.547287
H51	H	1.189249	-1.096729	-0.628771
H52	H	1.155281	-1.179830	-0.531961
H53	H	1.185064	-1.084666	-0.488698
H54	H	1.262035	-1.031163	-0.475291
O55	O	0.820793	-0.400484	-0.606043
C56	C	0.859923	-0.430966	-0.506783
H57	H	0.938222	-0.468090	-0.514398
H58	H	0.869329	-0.379158	-0.461242
H59	H	0.803862	-0.470296	-0.464444
H60	H	1.527509	-0.749780	-0.818487
O61	O	1.501282	-0.518359	-1.081134
C62	C	1.450521	-0.571172	-1.011516
H63	H	1.365435	-0.565749	-1.033677
H64	H	1.487853	-0.635272	-1.014883
H65	H	1.457229	-0.555203	-0.929695
H66	H	1.319291	-0.755888	-0.549368
H67	H	1.356962	-0.394961	-1.280622
O68	O	1.542545	-0.553233	-1.258399
C69	C	1.591706	-0.595165	-1.336082
H70	H	1.585650	-0.554834	-1.413159
H71	H	1.676649	-0.613765	-1.315238
H72	H	1.552576	-0.650801	-1.342666
H73	H	1.020089	-0.496013	-0.750474
O74	O	1.252927	-0.875304	-0.463467
C75	C	1.202286	-0.930920	-0.398039
H76	H	1.244883	-0.993665	-0.399882
H77	H	1.201647	-0.914988	-0.315602
H78	H	1.119382	-0.929078	-0.425723
O79	O	0.997815	-0.373339	-0.565070
C80	C	1.036945	-0.403821	-0.465811
H81	H	1.115244	-0.440945	-0.473426
H82	H	1.046351	-0.352013	-0.420270
H83	H	0.980884	-0.443151	-0.423472
H84	H	1.584934	-0.871912	-0.892694
O85	O	1.304373	-0.350393	-1.110752
C86	C	1.230122	-0.383118	-1.164467
H87	H	1.227832	-0.448336	-1.131198
H88	H	1.150817	-0.347743	-1.155749
H89	H	1.251673	-0.379737	-1.249886
H90	H	1.585004	-1.021692	-0.892730
O91	O	1.536850	-1.153399	-0.830184
C92	C	1.642198	-1.144200	-0.820822
H93	H	1.657870	-1.130901	-0.739320
H94	H	1.691900	-1.201753	-0.836204
H95	H	1.662012	-1.092508	-0.879371
