data_functionalizedCrystal
_audit_creation_method	'MofGen! by Chris Wilmer'
_symmetry_space_group_name_H-M	'P1'
_symmetry_Int_Tables_number	1
_symmetry_cell_setting	triclinic
loop_
_symmetry_equiv_pos_as_xyz
  x,y,z
_cell_length_a	18.050590
_cell_length_b	18.050589
_cell_length_c	17.077396
_cell_angle_alpha	89.975358
_cell_angle_beta	90.001070
_cell_angle_gamma	89.984959
loop_
_atom_site_label
_atom_site_type_symbol
_atom_site_fract_x
_atom_site_fract_y
_atom_site_fract_z
Zn1	Zn	-1.135327	-0.295921	-0.443477
Zn2	Zn	-0.635327	0.204079	0.056523
Zn3	Zn	-1.135227	-0.420118	-0.312220
Zn4	Zn	-0.635227	0.079882	0.187780
Zn5	Zn	-1.011136	-0.295918	-0.312268
Zn6	Zn	-0.511136	0.204082	0.187732
Zn7	Zn	-1.011094	-0.420045	-0.443486
Zn8	Zn	-0.511094	0.079955	0.056514
O9	O	-1.073196	-0.358000	-0.377863
O10	O	-0.573196	0.142000	0.122137
O11	O	-1.239238	-0.312428	-0.426043
O12	O	-0.739238	0.187572	0.073957
O13	O	-1.118742	-0.403672	-0.202380
O14	O	-0.618742	0.096328	0.297620
O15	O	-1.027669	-0.191994	-0.329689
O16	O	-0.527669	0.308006	0.170311
O17	O	-1.239165	-0.403675	-0.329608
O18	O	-0.739165	0.096325	0.170392
O19	O	-1.118912	-0.191996	-0.426088
O20	O	-0.618912	0.308004	0.073912
O21	O	-1.027573	-0.312423	-0.202414
O22	O	-0.527573	0.187577	0.297586
O23	O	-0.907206	-0.312352	-0.329698
O24	O	-0.407206	0.187648	0.170302
O25	O	-1.027598	-0.403550	-0.553332
O26	O	-0.527598	0.096450	-0.053332
O27	O	-0.907175	-0.403547	-0.426103
O28	O	-0.407175	0.096453	0.073897
O29	O	-1.118871	-0.312357	-0.553326
O30	O	-0.618871	0.187643	-0.053326
O31	O	-1.118702	-0.524033	-0.329617
O32	O	-0.618702	-0.024033	0.170383
O33	O	-1.027501	-0.523979	-0.426057
O34	O	-0.527501	-0.023979	0.073943
C35	C	-0.880244	-0.357942	-0.377907
C36	C	-0.380244	0.142058	0.122093
C37	C	-0.797698	-0.357935	-0.377944
C38	C	-0.297698	0.142065	0.122056
C39	C	-0.598252	-0.407661	-0.430256
C40	C	-0.098252	0.092339	0.069744
C41	C	-0.548861	-0.339942	-0.449569
C42	C	-0.048861	0.160058	0.050431
C43	C	-0.646568	-0.357970	-0.377914
C44	C	-0.146568	0.142030	0.122086
C45	C	-0.548878	-0.425722	-0.358607
C46	C	-0.048878	0.074278	0.141393
C47	C	-0.500583	-0.358010	-0.377886
C48	C	-0.000583	0.141990	0.122114
C49	C	-0.598263	-0.290215	-0.397265
C50	C	-0.098263	0.209785	0.102735
C51	C	-0.598285	-0.376041	-0.306269
C52	C	-0.098285	0.123959	0.193731
C53	C	-0.548915	-0.308275	-0.325556
C54	C	-0.048915	0.191725	0.174444
C55	C	-0.730666	-0.357948	-0.377932
C56	C	-0.230666	0.142052	0.122068
C57	C	-0.416486	-0.358024	-0.377868
C58	C	0.083514	0.141976	0.122132
C59	C	-1.073106	-0.550953	-0.377850
C60	C	-0.573106	-0.050953	0.122150
C61	C	-1.073136	-0.633498	-0.377871
C62	C	-0.573136	-0.133498	0.122129
C63	C	-0.266902	-0.358049	-0.377832
C64	C	0.233098	0.141951	0.122168
C65	C	-0.349447	-0.358044	-0.377853
C66	C	0.150553	0.141956	0.122147
C67	C	-1.023590	-0.832947	-0.430297
C68	C	-0.523590	-0.332947	0.069703
C69	C	-1.005487	-0.882384	-0.358674
C70	C	-0.505487	-0.382384	0.141326
C71	C	-1.073209	-0.784629	-0.377881
C72	C	-0.573209	-0.284629	0.122119
C73	C	-1.091349	-0.882273	-0.449512
C74	C	-0.591349	-0.382273	0.050488
C75	C	-1.073278	-0.930614	-0.377897
C76	C	-0.573278	-0.430614	0.122103
C77	C	-1.055070	-0.832979	-0.306220
C78	C	-0.555070	-0.332979	0.193780
C79	C	-1.140963	-0.832863	-0.397107
C80	C	-0.640963	-0.332863	0.102893
C81	C	-1.122886	-0.882278	-0.325434
C82	C	-0.622886	-0.382278	0.174566
C83	C	-1.073167	-0.700530	-0.377872
C84	C	-0.573167	-0.200530	0.122128
C85	C	-1.073320	-1.014710	-0.377897
C86	C	-0.573320	-0.514710	0.122103
C87	C	-1.073306	-0.164295	-0.377893
C88	C	-0.573306	0.335705	0.122107
C89	C	-1.073353	-0.081749	-0.377906
C90	C	-0.573353	0.418251	0.122094
C91	C	-1.073241	-0.357946	-0.582607
C92	C	-0.573241	0.142054	-0.082607
C93	C	-1.073260	-0.357922	-0.669857
C94	C	-0.573260	0.142078	-0.169857
C95	C	-1.120788	-0.310434	-0.710845
C96	C	-0.620788	0.189566	-0.210845
C97	C	-1.120797	-0.310409	-0.792826
C98	C	-0.620797	0.189591	-0.292826
C99	C	-1.073281	-0.357877	-0.833817
C100	C	-0.573281	0.142123	-0.333817
C101	C	-1.025748	-0.405368	-0.792823
C102	C	-0.525748	0.094632	-0.292823
C103	C	-1.025736	-0.405388	-0.710844
C104	C	-0.525736	0.094612	-0.210844
C105	C	-1.025778	-0.405323	-0.963693
C106	C	-0.525778	0.094677	-0.463693
C107	C	-1.025791	-0.405304	-1.045678
C108	C	-0.525791	0.094696	-0.545678
C109	C	-1.120839	-0.310344	-1.045675
C110	C	-0.620839	0.189656	-0.545675
C111	C	-1.120827	-0.310365	-0.963696
C112	C	-0.620827	0.189635	-0.463696
C113	C	-1.073294	-0.357856	-0.922708
C114	C	-0.573294	0.142144	-0.422708
C115	C	-1.073194	-0.358001	-0.173915
C116	C	-0.573194	0.141999	0.326085
C117	C	-1.073319	-0.357815	-0.086666
C118	C	-0.573319	0.142185	0.413334
H119	H	-0.527389	-0.266222	-0.281281
H120	H	-0.027389	0.233778	0.218719
H121	H	-0.948221	-0.904153	-0.342427
H122	H	-0.448221	-0.404153	0.157573
H123	H	-0.527181	-0.483001	-0.342291
H124	H	-0.027181	0.016999	0.157709
H125	H	-1.039688	-0.811415	-0.245632
H126	H	-0.539688	-0.311415	0.254368
Cl127	Cl	-0.631611	-0.201752	-0.422567
Cl128	Cl	-0.131611	0.298248	0.077433
Cl129	Cl	-1.180566	-0.250694	-0.912165
Cl130	Cl	-0.680566	0.249306	-0.412165
H131	H	-1.198216	-0.811097	-0.413387
H132	H	-0.698216	-0.311097	0.086613
Cl133	Cl	-0.631804	-0.399637	-0.212755
Cl134	Cl	-0.131804	0.100363	0.287245
Cl135	Cl	-0.966021	-0.465027	-0.912166
Cl136	Cl	-0.466021	0.034973	-0.412166
H137	H	-1.159540	-0.271674	-1.079051
H138	H	-0.659540	0.228326	-0.579051
Cl139	Cl	-0.958714	-0.799500	-0.498637
Cl140	Cl	-0.458714	-0.299500	0.001363
Cl141	Cl	-0.631702	-0.472432	-0.498662
Cl142	Cl	-0.131702	0.027568	0.001338
H143	H	-1.164877	-0.903802	-0.281064
H144	H	-0.664877	-0.403802	0.218936
Cl145	Cl	-1.114994	-0.915707	-0.543027
Cl146	Cl	-0.614994	-0.415707	-0.043027
H147	H	-1.159483	-0.271782	-0.677476
H148	H	-0.659483	0.228218	-0.177476
H149	H	-0.987027	-0.444051	-0.677472
H150	H	-0.487027	0.055949	-0.177472
Cl151	Cl	-0.966048	-0.464970	-1.097208
Cl152	Cl	-0.466048	0.035030	-0.597208
Cl153	Cl	-1.180582	-0.250740	-0.844350
Cl154	Cl	-0.680582	0.249260	-0.344350
Cl155	Cl	-0.966011	-0.465039	-0.844354
Cl156	Cl	-0.466011	0.034961	-0.344354
Cl157	Cl	-0.515341	-0.316361	-0.543093
Cl158	Cl	-0.015341	0.183639	-0.043093
