data_functionalizedCrystal
_audit_creation_method	'MofGen! by Chris Wilmer'
_symmetry_space_group_name_H-M	'P1'
_symmetry_Int_Tables_number	1
_symmetry_cell_setting	triclinic
loop_
_symmetry_equiv_pos_as_xyz
  x,y,z
_cell_length_a	16.704503
_cell_length_b	23.096457
_cell_length_c	16.704494
_cell_angle_alpha	89.998889
_cell_angle_beta	66.032140
_cell_angle_gamma	62.458199
loop_
_atom_site_label
_atom_site_type_symbol
_atom_site_fract_x
_atom_site_fract_y
_atom_site_fract_z
Zr1	Zr	0.814773	0.602164	-0.043798
O2	O	0.960131	0.521498	-0.155619
O3	O	0.661248	0.621453	-0.017062
O4	O	0.802999	0.634442	-0.166504
O5	O	0.830516	0.504451	0.120286
O6	O	0.803001	0.729722	-0.166508
O7	O	0.818381	0.508509	-0.006178
O8	O	0.549434	0.706487	0.100816
O9	O	1.084082	0.527686	-0.147038
O10	O	0.727421	0.707359	0.003451
O11	O	0.736476	0.633224	0.097833
O12	O	0.903369	0.648517	-0.078116
O13	O	0.912424	0.574382	0.016266
Zr14	Zr	0.834129	0.747655	0.157890
Zr15	Zr	0.814775	0.754126	-0.043805
Zr16	Zr	0.834127	0.595693	0.157897
Zr17	Zr	1.012459	0.612034	-0.030112
Zr18	Zr	0.636443	0.737785	0.144204
O19	O	0.987654	0.728367	0.131154
O20	O	0.960135	0.737568	-0.155630
O21	O	0.987650	0.512297	0.131164
O22	O	0.688771	0.828322	0.269712
O23	O	0.661252	0.837522	-0.017072
O24	O	0.688767	0.612252	0.269722
O25	O	0.818386	0.845368	-0.006193
O26	O	0.845903	0.715378	0.280596
O27	O	0.845901	0.620097	0.280600
O28	O	0.830521	0.841310	0.120270
O29	O	1.084084	0.648476	-0.147044
O30	O	0.564818	0.701344	0.261136
O31	O	0.564820	0.822133	0.261131
O32	O	0.549437	0.827276	0.100810
O33	O	1.099466	0.522543	0.013282
O34	O	1.099468	0.643332	0.013276
O35	O	0.745533	0.701303	0.192208
O36	O	0.736478	0.775437	0.097826
O37	O	0.912426	0.716596	0.016259
O38	O	0.921481	0.642461	0.110641
C39	C	0.577175	0.662564	0.039927
C40	C	0.493252	0.658374	0.034117
C41	C	0.212338	0.744194	0.153104
C42	C	0.133483	0.740258	0.147649
C43	C	0.256683	0.646564	0.017754
C44	C	0.335539	0.650500	0.023210
C45	C	0.313361	0.699317	0.090887
C46	C	0.392219	0.703255	0.096338
C47	C	0.515418	0.609558	-0.033552
C48	C	0.436562	0.605623	-0.039007
C49	C	0.824448	0.484829	0.057055
C50	C	0.824447	0.420317	0.057058
C51	C	0.732606	0.420727	0.099627
C52	C	0.732604	0.360111	0.099630
C53	C	0.824448	0.299087	0.057048
C54	C	0.916302	0.298681	0.014479
C55	C	0.916301	0.359296	0.014484
N56	N	0.888638	0.182453	-0.018156
N57	N	0.888632	0.124873	-0.018160
C58	C	0.824456	0.116455	0.057032
N59	N	0.760270	0.167798	0.132225
N60	N	0.760272	0.225384	0.132227
C61	C	0.824459	0.233357	0.057038
C62	C	0.732608	0.051141	0.099609
C63	C	0.732611	-0.009478	0.099616
C64	C	0.916310	-0.070908	0.014455
C65	C	0.916305	-0.010290	0.014457
C66	C	0.824451	0.050732	0.057031
C67	C	1.071727	0.687256	0.074165
C68	C	1.155650	0.691446	0.079975
C69	C	0.800242	0.683004	-0.195243
C70	C	0.792026	0.685751	-0.280868
C71	C	0.824454	0.864990	0.057037
C72	C	0.824455	0.929502	0.057034
C73	C	0.960293	0.629487	-0.526930
C74	C	0.952578	0.632067	-0.607385
C75	C	0.768882	0.693494	-0.522232
C76	C	0.776597	0.690914	-0.441778
C77	C	0.872306	0.658909	-0.444132
C78	C	0.880020	0.656325	-0.363675
C79	C	0.696325	0.717756	-0.278525
C80	C	0.688610	0.720336	-0.358979
C81	C	0.848660	0.666815	0.309335
C82	C	0.856876	0.664068	0.394960
C83	C	0.577179	0.852644	0.039918
C84	C	0.493257	0.912966	0.034105
C85	C	0.601384	0.654469	0.292217
C86	C	0.525677	0.647532	0.372031
C87	C	0.601387	0.844550	0.292208
C88	C	0.525681	0.902125	0.372019
C89	C	1.047515	0.505269	-0.178115
C90	C	1.123221	0.447695	-0.257927
C91	C	1.071724	0.497175	0.074174
C92	C	1.155646	0.436853	0.079987
C93	C	1.047518	0.695350	-0.178124
C94	C	1.123225	0.702287	-0.257939
C95	C	0.449117	0.905757	-0.017896
C96	C	0.370273	0.962431	-0.023376
C97	C	0.335564	1.026313	0.023151
C98	C	0.379711	1.033520	0.075154
C99	C	0.458559	0.976847	0.080628
C100	C	0.494853	0.679811	0.458784
C101	C	0.423730	0.673290	0.533787
C102	C	0.383427	0.634495	0.522034
C103	C	0.414258	0.602212	0.435273
C104	C	0.485385	0.608729	0.360272
C105	C	0.485403	0.967866	0.360233
C106	C	0.414279	1.021970	0.435218
C107	C	0.383431	1.010331	0.521987
C108	C	0.423717	0.944583	0.533772
C109	C	0.494844	0.890480	0.458788
C110	C	1.163509	0.381953	-0.246140
C111	C	1.234657	0.327851	-0.321123
C112	C	1.265510	0.339490	-0.407892
C113	C	1.225218	0.405238	-0.419677
C114	C	1.154077	0.459340	-0.344694
C115	C	1.199792	0.444063	0.131980
C116	C	1.278656	0.387390	0.137440
C117	C	1.313368	0.323509	0.090910
C118	C	1.269217	0.316301	0.038911
C119	C	1.190359	0.372973	0.033447
C120	C	1.163506	0.741088	-0.246158
C121	C	1.234631	0.747619	-0.321145
C122	C	1.265479	0.715345	-0.407912
C123	C	1.225191	0.676543	-0.419692
C124	C	1.154062	0.670016	-0.344706
H125	H	0.194279	0.783946	0.208205
Cl126	Cl	0.464431	0.544254	-0.124078
Cl127	Cl	0.617137	0.127855	0.153136
Cl128	Cl	0.363579	0.553445	0.420513
Cl129	Cl	0.384923	0.929961	0.642859
H130	H	0.690961	0.719559	-0.520333
Cl131	Cl	0.492738	0.825456	-0.076400
Cl132	Cl	0.384983	0.713881	0.642848
Cl133	Cl	0.314785	0.953355	-0.088750
H134	H	0.271360	1.072454	0.018687
H135	H	0.351440	1.085540	0.113033
Cl136	Cl	0.294008	0.626310	0.616332
H137	H	0.527631	0.836952	0.468397
Cl138	Cl	1.124738	0.367303	-0.137068
H139	H	1.314592	0.393272	0.179786
H140	H	0.510472	0.582446	0.289636
Cl141	Cl	1.103429	0.541984	-0.359528
H142	H	0.610686	0.746396	-0.357076
Cl143	Cl	1.264011	0.419859	-0.528765
H144	H	1.323398	0.720665	-0.468963
H145	H	0.624679	0.741709	-0.211098
H146	H	0.991082	0.248991	-0.020192
H147	H	0.510508	0.977356	0.289588
H148	H	0.527661	0.711402	0.468371
H149	H	1.267427	0.779214	-0.311536
Cl150	Cl	0.363643	1.104617	0.420382
H151	H	1.377579	0.277369	0.095367
H152	H	1.323438	0.295431	-0.468940
H153	H	0.657810	0.470409	0.134288
Cl154	Cl	0.617138	0.360621	0.153144
H155	H	0.991092	0.358957	-0.020178
H156	H	0.657820	-0.009139	0.134286
H157	H	0.325513	1.054390	0.583036
Cl158	Cl	0.006481	0.796676	0.225870
Cl159	Cl	1.285291	0.245203	-0.306287
H160	H	0.494489	0.982726	0.122978
Cl161	Cl	1.031773	-0.147619	-0.039071
Cl162	Cl	1.156178	0.524364	0.190479
H163	H	1.297491	0.264282	0.001029
Cl164	Cl	1.134863	0.363898	-0.031915
H165	H	1.138401	0.767370	-0.175514
Cl166	Cl	0.284544	0.585190	-0.067304
H167	H	1.250318	0.650268	-0.490348
H168	H	0.374157	0.743005	0.151443
Cl169	Cl	0.642427	0.553144	-0.111780
H170	H	1.121272	0.638418	-0.354310
H171	H	0.991091	-0.010626	-0.020214
H172	H	0.957951	0.630262	-0.365595
H173	H	1.038223	0.603420	-0.528848
H174	H	1.024227	0.608110	-0.674801
