data_functionalizedCrystal
_audit_creation_method	'MofGen! by Chris Wilmer'
_symmetry_space_group_name_H-M	'P1'
_symmetry_Int_Tables_number	1
_symmetry_cell_setting	triclinic
loop_
_symmetry_equiv_pos_as_xyz
  x,y,z
_cell_length_a	10.723024
_cell_length_b	10.723024
_cell_length_c	9.198806
_cell_angle_alpha	89.997988
_cell_angle_beta	89.996352
_cell_angle_gamma	84.467869
loop_
_atom_site_label
_atom_site_type_symbol
_atom_site_fract_x
_atom_site_fract_y
_atom_site_fract_z
O1	O	1.657188	0.175024	-0.120879
O2	O	1.294035	0.191778	-0.120884
O3	O	1.483988	0.001825	-0.120876
O4	O	1.467235	0.364977	-0.120887
O5	O	1.483973	0.001824	0.120909
O6	O	1.294020	0.191777	0.120901
O7	O	1.657173	0.175024	0.120906
Cu8	Cu	1.475595	0.183401	0.142981
Cu9	Cu	1.475613	0.183401	-0.142958
O10	O	1.467220	0.364977	0.120898
C11	C	1.247528	0.190558	0.000008
C12	C	1.108974	0.186911	0.000007
C13	C	1.033991	0.293198	0.000002
C14	C	0.890788	0.289431	0.000001
C15	C	1.482762	-0.044675	0.000015
C16	C	1.479114	-0.183229	0.000010
C17	C	1.585401	-0.258212	0.000009
C18	C	1.581634	-0.401415	0.000004
C19	C	1.703680	0.176243	0.000011
C20	C	1.842234	0.179891	0.000003
C21	C	1.468447	0.411477	0.000004
C22	C	1.472094	0.550031	-0.000000
N23	N	1.475592	0.183399	0.344095
N24	N	1.475626	0.183393	-0.344072
C25	C	1.555347	0.103292	0.416295
C26	C	1.555367	0.103288	0.583707
H27	H	0.906659	0.088896	-0.000003
H28	H	1.385328	-0.225051	-0.000001
H29	H	1.407345	0.251984	0.593848
C30	C	1.710588	-0.202702	-0.000070
C31	C	1.807915	-0.299631	-0.000111
C32	C	1.923257	-0.248547	-0.000208
H33	H	1.716757	-0.152497	0.084221
H34	H	1.716647	-0.152516	-0.084422
H35	H	1.801860	-0.349796	0.084233
H36	H	1.801787	-0.349843	-0.084395
H37	H	1.929316	-0.198362	-0.084560
H38	H	1.929414	-0.198344	0.084084
H39	H	1.989308	-0.314305	-0.000249
C40	C	1.350794	-0.364012	-0.000301
C41	C	1.346218	-0.288480	-0.124709
C42	C	1.234489	-0.209285	-0.125047
H43	H	1.347349	-0.312539	0.083918
H44	H	1.281547	-0.413008	-0.000384
H45	H	1.415446	-0.239489	-0.124613
H46	H	1.349643	-0.339920	-0.208948
H47	H	1.165242	-0.258280	-0.125130
H48	H	1.231054	-0.157820	-0.040822
H49	H	1.231364	-0.158035	-0.209462
C50	C	1.384495	0.274648	0.427105
C51	C	1.307436	0.207631	0.514533
C52	C	1.223511	0.291649	0.591033
H53	H	1.334333	0.324943	0.360267
H54	H	1.430006	0.326796	0.486557
H55	H	1.261928	0.155505	0.455086
H56	H	1.357563	0.157340	0.581398
H57	H	1.269022	0.343797	0.650485
H58	H	1.173358	0.341939	0.524184
H59	H	1.171224	0.246191	0.650371
C60	C	1.089574	0.418347	-0.000226
C61	C	1.049590	0.486081	-0.124603
C62	C	1.100751	0.601383	-0.124853
H63	H	1.178410	0.404433	-0.000298
H64	H	1.062542	0.464541	0.084044
H65	H	1.076629	0.439897	-0.208852
H66	H	0.960761	0.500029	-0.124558
H67	H	1.073719	0.647577	-0.040583
H68	H	1.189585	0.587457	-0.124921
H69	H	1.073620	0.647360	-0.209234
H70	H	1.672624	-0.465848	0.000010
C71	C	1.646236	0.011669	0.333511
C72	C	1.624652	-0.111103	0.370365
C73	C	1.708346	-0.195528	0.294106
H74	H	1.729771	0.025567	0.358288
H75	H	1.634096	0.023772	0.231992
H76	H	1.636803	-0.123200	0.471861
H77	H	1.541133	-0.125040	0.345584
H78	H	1.696206	-0.183426	0.192588
H79	H	1.791876	-0.181620	0.318889
H80	H	1.693706	-0.278839	0.319091
H81	H	1.623653	0.034709	0.645796
C82	C	1.053464	0.061724	0.000081
C83	C	1.150393	-0.035603	0.000119
C84	C	1.099310	-0.150945	0.000206
H85	H	1.003264	0.055556	-0.084212
H86	H	1.003274	0.055664	0.084431
H87	H	1.200562	-0.029546	-0.084223
H88	H	1.200601	-0.029477	0.084405
H89	H	1.049120	-0.157006	0.084556
H90	H	1.049110	-0.157100	-0.084088
H91	H	1.165067	-0.216996	0.000245
H92	H	0.826355	0.380421	-0.000009
