data_functionalizedCrystal
_audit_creation_method	'MofGen! by Chris Wilmer'
_symmetry_space_group_name_H-M	'P1'
_symmetry_Int_Tables_number	1
_symmetry_cell_setting	triclinic
loop_
_symmetry_equiv_pos_as_xyz
  x,y,z
_cell_length_a	18.215407
_cell_length_b	19.805405
_cell_length_c	18.215399
_cell_angle_alpha	89.969390
_cell_angle_beta	89.980167
_cell_angle_gamma	90.026858
loop_
_atom_site_label
_atom_site_type_symbol
_atom_site_fract_x
_atom_site_fract_y
_atom_site_fract_z
Zn1	Zn	1.125064	-0.269462	-0.416102
Zn2	Zn	1.625064	0.230538	0.083898
Zn3	Zn	1.124969	-0.382653	-0.293030
Zn4	Zn	1.624969	0.117347	0.206970
Zn5	Zn	1.001997	-0.269484	-0.293050
Zn6	Zn	1.501997	0.230516	0.206950
Zn7	Zn	1.001959	-0.382615	-0.416055
Zn8	Zn	1.501959	0.117385	0.083945
O9	O	1.063497	-0.326054	-0.354559
O10	O	1.563497	0.173946	0.145441
O11	O	1.228036	-0.284484	-0.399788
O12	O	1.728036	0.215516	0.100212
O13	O	1.108633	-0.367666	-0.190049
O14	O	1.608633	0.132334	0.309951
O15	O	1.018377	-0.174765	-0.309401
O16	O	1.518377	0.325235	0.190599
O17	O	1.227966	-0.367644	-0.309368
O18	O	1.727966	0.132356	0.190632
O19	O	1.108794	-0.174748	-0.399807
O20	O	1.608794	0.325252	0.100193
O21	O	1.018285	-0.284521	-0.190063
O22	O	1.518285	0.215479	0.309937
O23	O	0.899008	-0.284485	-0.309355
O24	O	1.399008	0.215515	0.190645
O25	O	1.018313	-0.367580	-0.519046
O26	O	1.518313	0.132420	-0.019046
O27	O	0.898980	-0.367602	-0.399727
O28	O	1.398980	0.132398	0.100273
O29	O	1.108758	-0.284447	-0.519080
O30	O	1.608758	0.215553	-0.019080
O31	O	1.108596	-0.477365	-0.309322
O32	O	1.608596	0.022635	0.190678
O33	O	1.018221	-0.477337	-0.399708
O34	O	1.518221	0.022663	0.100292
C35	C	0.872291	-0.326042	-0.354538
C36	C	1.372291	0.173958	0.145462
C37	C	0.790492	-0.326053	-0.354547
C38	C	1.290492	0.173947	0.145453
C39	C	0.602303	-0.369400	-0.401544
C40	C	1.102303	0.130600	0.098456
C41	C	0.525444	-0.369403	-0.401553
C42	C	1.025444	0.130597	0.098447
C43	C	0.525444	-0.282719	-0.307591
C44	C	1.025444	0.217281	0.192409
C45	C	0.602301	-0.282714	-0.307586
C46	C	1.102301	0.217286	0.192414
C47	C	0.640729	-0.326059	-0.354561
C48	C	1.140729	0.173941	0.145439
C49	C	0.487013	-0.326066	-0.354575
C50	C	0.987013	0.173934	0.145425
C51	C	0.403679	-0.326068	-0.354585
C52	C	0.903679	0.173932	0.145415
C53	C	0.724068	-0.326056	-0.354553
C54	C	1.224068	0.173944	0.145447
C55	C	1.063415	-0.501910	-0.354524
C56	C	1.563415	-0.001910	0.145476
C57	C	1.063446	-0.577142	-0.354533
C58	C	1.563446	-0.077142	0.145467
C59	C	1.110550	-0.612478	-0.307518
C60	C	1.610550	-0.112478	0.192482
C61	C	1.110582	-0.683166	-0.307535
C62	C	1.610582	-0.183166	0.192465
C63	C	1.063505	-0.718517	-0.354562
C64	C	1.563505	-0.218517	0.145438
C65	C	1.016399	-0.683176	-0.401582
C66	C	1.516399	-0.183176	0.098418
C67	C	1.016372	-0.612489	-0.401569
C68	C	1.516372	-0.112489	0.098431
C69	C	1.016507	-0.968249	-0.401637
C70	C	1.516507	-0.468249	0.098363
C71	C	1.016536	-1.038941	-0.401645
C72	C	1.516536	-0.538941	0.098355
C73	C	1.110717	-1.038927	-0.307602
C74	C	1.610717	-0.538927	0.192398
C75	C	1.110690	-0.968239	-0.307589
C76	C	1.610690	-0.468239	0.192411
C77	C	1.063587	-0.932905	-0.354611
C78	C	1.563587	-0.432905	0.145389
C79	C	1.063555	-0.856256	-0.354594
C80	C	1.563555	-0.356256	0.145406
C81	C	1.063533	-0.795164	-0.354577
C82	C	1.563533	-0.295164	0.145423
C83	C	1.255450	-0.326066	-0.354581
C84	C	1.755450	0.173934	0.145419
C85	C	1.337249	-0.326071	-0.354590
C86	C	1.837249	0.173929	0.145410
C87	C	1.063542	-0.326007	-0.546512
C88	C	1.563542	0.173993	-0.046512
C89	C	1.063561	-0.325987	-0.628311
C90	C	1.563561	0.174013	-0.128311
C91	C	1.063601	-0.149511	-0.354611
C92	C	1.563601	0.350489	0.145389
C93	C	1.063645	-0.074279	-0.354633
C94	C	1.563645	0.425721	0.145367
C95	C	1.110673	-0.282659	-0.816524
C96	C	1.610673	0.217341	-0.316524
C97	C	1.110682	-0.282639	-0.893383
C98	C	1.610682	0.217361	-0.393383
C99	C	1.016502	-0.369210	-0.893336
C100	C	1.516502	0.130790	-0.393336
C101	C	1.016490	-0.369226	-0.816479
C102	C	1.516490	0.130774	-0.316479
C103	C	1.063580	-0.325952	-0.778075
C104	C	1.563580	0.174048	-0.278075
C105	C	1.063600	-0.325916	-0.931791
C106	C	1.563600	0.174084	-0.431791
C107	C	1.063609	-0.325895	-1.015125
C108	C	1.563609	0.174105	-0.515125
C109	C	1.063570	-0.325972	-0.694736
C110	C	1.563570	0.174028	-0.194736
C111	C	1.063495	-0.326051	-0.163353
C112	C	1.563495	0.173949	0.336647
C113	C	1.063619	-0.325880	-0.081555
C114	C	1.563619	0.174120	0.418445
H115	H	0.494146	-0.247431	-0.269344
H116	H	0.994146	0.252569	0.230656
H117	H	0.978153	-0.939485	-0.439923
H118	H	1.478153	-0.439485	0.060077
H119	H	1.149073	-1.067705	-0.269317
H120	H	1.649073	-0.567705	0.230683
H121	H	0.978016	-0.583719	-0.439854
H122	H	1.478016	-0.083719	0.060146
C123	C	0.964616	-0.722060	-0.453317
C124	C	1.464616	-0.222060	0.046683
C125	C	0.964641	-0.799813	-0.453333
C126	C	1.464641	-0.299813	0.046667
C127	C	0.912856	-0.838695	-0.505069
C128	C	1.412856	-0.338695	-0.005069
C129	C	0.861046	-0.799824	-0.556788
C130	C	1.361046	-0.299824	-0.056788
C131	C	0.861018	-0.722067	-0.556774
C132	C	1.361018	-0.222067	-0.056774
C133	C	0.912803	-0.683185	-0.505038
C134	C	1.412803	-0.183185	-0.005038
H135	H	1.002996	-0.828592	-0.415046
H136	H	1.502996	-0.328592	0.084954
H137	H	0.912877	-0.896257	-0.505079
H138	H	1.412877	-0.396257	-0.005079
H139	H	0.822712	-0.828607	-0.595086
H140	H	1.322712	-0.328607	-0.095086
H141	H	0.822663	-0.693288	-0.595061
H142	H	1.322663	-0.193288	-0.095061
H143	H	0.912783	-0.625623	-0.505028
H144	H	1.412783	-0.125623	-0.005028
H145	H	0.494162	-0.404695	-0.439812
H146	H	0.994162	0.095305	0.060188
C147	C	1.162397	-0.722032	-0.255814
C148	C	1.662397	-0.222032	0.244186
C149	C	1.130563	-0.770691	-0.198015
C150	C	1.630563	-0.270691	0.301985
C151	C	1.182382	-0.809554	-0.146292
C152	C	1.682382	-0.309554	0.353708
C153	C	1.266036	-0.799758	-0.152367
C154	C	1.766036	-0.299758	0.347633
C155	C	1.297874	-0.751097	-0.210168
C156	C	1.797874	-0.251097	0.289832
C157	C	1.246055	-0.712234	-0.261891
C158	C	1.746055	-0.212234	0.238109
H159	H	1.068633	-0.777944	-0.193516
H160	H	1.568633	-0.277944	0.306484
H161	H	1.158812	-0.845576	-0.103504
H162	H	1.658812	-0.345576	0.396496
H163	H	1.304395	-0.828527	-0.114078
H164	H	1.804395	-0.328527	0.385922
H165	H	1.359803	-0.743843	-0.214667
H166	H	1.859803	-0.243843	0.285333
H167	H	1.269624	-0.676211	-0.304679
H168	H	1.769624	-0.176211	0.195321
H169	H	1.149014	-0.247420	-0.785258
H170	H	1.649014	0.252580	-0.285258
C171	C	0.644574	-0.417072	-0.453222
C172	C	1.144574	0.082928	0.046778
C173	C	0.697449	-0.387805	-0.511052
C174	C	1.197449	0.112195	-0.011052
C175	C	0.739717	-0.435477	-0.562734
C176	C	1.239717	0.064523	-0.062734
C177	C	0.729111	-0.512416	-0.556585
C178	C	1.229111	-0.012416	-0.056585
C179	C	0.676234	-0.541687	-0.498753
C180	C	1.176234	-0.041687	0.001247
C181	C	0.633966	-0.494015	-0.447071
C182	C	1.133966	0.005985	0.052929
H183	H	0.705302	-0.330846	-0.515606
H184	H	1.205302	0.169154	-0.015606
H185	H	0.778860	-0.413807	-0.605545
H186	H	1.278860	0.086193	-0.105545
H187	H	0.760401	-0.547705	-0.594843
H188	H	1.260401	-0.047705	-0.094843
H189	H	0.668381	-0.598646	-0.494199
H190	H	1.168381	-0.098646	0.005801
H191	H	0.594823	-0.515685	-0.404260
H192	H	1.094823	-0.015685	0.095740
H193	H	0.978136	-0.404480	-0.785172
H194	H	1.478136	0.095520	-0.285172
C195	C	1.162486	-0.235018	-0.935678
C196	C	1.662486	0.264982	-0.435678
C197	C	1.214279	-0.187418	-0.893432
C198	C	1.714279	0.312582	-0.393432
C199	C	1.266084	-0.139793	-0.935727
C200	C	1.766084	0.360207	-0.435727
C201	C	1.266097	-0.139768	-1.020267
C202	C	1.766097	0.360232	-0.520267
C203	C	1.214303	-0.187369	-1.062517
C204	C	1.714303	0.312631	-0.562517
C205	C	1.162497	-0.234994	-1.020223
C206	C	1.662497	0.265006	-0.520223
H207	H	1.214271	-0.187436	-0.830846
H208	H	1.714271	0.312564	-0.330846
H209	H	1.304426	-0.104556	-0.904449
H210	H	1.804426	0.395444	-0.404449
H211	H	1.304447	-0.104513	-1.051575
H212	H	1.804447	0.395487	-0.551575
H213	H	1.214311	-0.187351	-1.125103
H214	H	1.714311	0.312649	-0.625103
H215	H	1.124155	-0.270231	-1.051500
H216	H	1.624155	0.229769	-0.551500
H217	H	0.633588	-0.247416	-0.269327
H218	H	1.133588	0.252584	0.230673
H219	H	0.978165	-0.404444	-0.924614
H220	H	1.478165	0.095556	-0.424614
H221	H	1.149022	-0.939459	-0.269292
H222	H	1.649022	-0.439459	0.230708
C223	C	1.162337	-0.573594	-0.255787
C224	C	1.662337	-0.073594	0.244213
C225	C	1.130466	-0.525061	-0.197968
C226	C	1.630466	-0.025061	0.302032
C227	C	1.182257	-0.486180	-0.146237
C228	C	1.682257	0.013820	0.353763
C229	C	1.265919	-0.495832	-0.152326
C230	C	1.765919	0.004168	0.347674
C231	C	1.297794	-0.544367	-0.210148
C232	C	1.797794	-0.044367	0.289852
C233	C	1.246003	-0.583248	-0.261878
C234	C	1.746003	-0.083248	0.238122
H235	H	1.068531	-0.517914	-0.193458
H236	H	1.568531	-0.017914	0.306542
H237	H	1.158660	-0.450251	-0.103434
H238	H	1.658660	0.049749	0.396566
H239	H	1.304257	-0.467049	-0.114032
H240	H	1.804257	0.032951	0.385968
H241	H	1.359729	-0.551514	-0.214657
H242	H	1.859729	-0.051514	0.285343
H243	H	1.269600	-0.619177	-0.304682
H244	H	1.769600	-0.119177	0.195318
C245	C	0.964753	-1.077829	-0.453383
C246	C	1.464753	-0.577829	0.046617
C247	C	0.912944	-1.038965	-0.505109
C248	C	1.412944	-0.538965	-0.005109
C249	C	0.861163	-1.077853	-0.556844
C250	C	1.361163	-0.577853	-0.056844
C251	C	0.861192	-1.155606	-0.556852
C252	C	1.361192	-0.655606	-0.056852
C253	C	0.913003	-1.194475	-0.505124
C254	C	1.413003	-0.694475	-0.005124
C255	C	0.964784	-1.155587	-0.453390
C256	C	1.464784	-0.655587	0.046610
H257	H	0.912920	-0.981403	-0.505104
H258	H	1.412920	-0.481403	-0.005104
H259	H	0.822809	-1.049079	-0.595136
H260	H	1.322809	-0.549079	-0.095136
H261	H	0.822861	-1.184394	-0.595149
H262	H	1.322861	-0.684394	-0.095149
H263	H	0.913026	-1.252037	-0.505129
H264	H	1.413026	-0.752037	-0.005129
H265	H	1.003138	-1.184361	-0.415098
H266	H	1.503138	-0.684361	0.084902
