data_functionalizedCrystal
_audit_creation_method	'MofGen! by Chris Wilmer'
_symmetry_space_group_name_H-M	'P1'
_symmetry_Int_Tables_number	1
_symmetry_cell_setting	triclinic
loop_
_symmetry_equiv_pos_as_xyz
  x,y,z
_cell_length_a	9.730223
_cell_length_b	19.288864
_cell_length_c	19.288865
_cell_angle_alpha	96.863755
_cell_angle_beta	90.006547
_cell_angle_gamma	89.985960
loop_
_atom_site_label
_atom_site_type_symbol
_atom_site_fract_x
_atom_site_fract_y
_atom_site_fract_z
O1	O	0.114746	-0.921344	0.086645
O2	O	0.114654	-0.719084	0.098333
O3	O	0.114676	-0.826058	-0.008641
O4	O	0.114725	-0.814370	0.193619
O5	O	-0.113904	-0.826057	-0.008639
O6	O	-0.113926	-0.719082	0.098336
O7	O	-0.113834	-0.921343	0.086647
Zn8	Zn	-0.150172	-0.820213	0.092492
Zn9	Zn	0.150992	-0.820214	0.092489
O10	O	-0.113855	-0.814368	0.193622
C11	C	0.000352	-0.693207	0.097959
C12	C	0.000316	-0.616103	0.096830
N13	N	-0.355708	-0.820216	0.092494
C14	C	0.000382	-0.825682	-0.034516
C15	C	0.000369	-0.824553	-0.111620
C16	C	-0.427625	-0.867597	0.045142
C17	C	-0.571508	-0.867595	0.045133
C18	C	-0.571545	-0.772830	0.139836
C19	C	-0.427664	-0.772829	0.139841
C20	C	-0.427604	-0.922311	-0.009532
C21	C	-0.571487	-0.922309	-0.009541
N22	N	0.356529	-0.820216	0.092481
C23	C	0.000471	-0.947220	0.087022
C24	C	0.000517	-1.024324	0.088151
C25	C	0.000353	-0.571407	0.159598
C26	C	0.000368	-0.498960	0.158537
C27	C	0.000373	-0.471212	0.094705
C28	C	0.000329	-0.515918	0.031929
C29	C	0.000300	-0.588364	0.032991
C30	C	0.080489	-0.362951	0.044525
C31	C	0.080526	-0.290506	0.043465
C32	C	0.000456	-0.247767	0.091425
C33	C	-0.079634	-0.277479	0.140457
C34	C	-0.079663	-0.349924	0.141520
C35	C	0.000404	-0.392658	0.093546
C36	C	0.000507	-0.124514	0.153047
C37	C	0.000513	-0.052066	0.151984
C38	C	0.000488	-0.069026	0.025374
C39	C	0.000468	-0.141473	0.026439
C40	C	0.000484	-0.169212	0.090278
C41	C	0.000391	-0.887321	-0.156316
C42	C	0.000412	-0.886260	-0.228763
C43	C	0.000384	-0.822428	-0.256511
C44	C	0.000370	-0.759652	-0.211805
C45	C	0.000362	-0.760714	-0.139359
C46	C	-0.079706	-0.772248	-0.364797
C47	C	-0.079707	-0.771188	-0.437242
C48	C	0.000413	-0.819148	-0.479956
C49	C	0.080516	-0.868180	-0.450219
C50	C	0.080509	-0.869242	-0.377774
C51	C	0.000393	-0.821269	-0.335065
C52	C	0.000460	-0.880770	-0.603209
C53	C	0.000490	-0.879707	-0.675657
C54	C	0.000434	-0.753097	-0.658697
C55	C	0.000418	-0.754162	-0.586250
C56	C	0.000424	-0.818000	-0.558511
C57	C	0.000442	-0.814745	0.219497
C58	C	0.000464	-0.815874	0.296601
H59	H	-0.369111	-0.734243	0.178393
H60	H	0.000344	-0.709599	-0.102967
H61	H	0.000394	-0.462561	0.209652
Br62	Br	-0.645900	-0.895166	-0.093297
Br63	Br	-0.362530	-0.903598	-0.098288
H64	H	-0.630147	-0.734249	0.178384
H65	H	0.000271	-0.624756	-0.018124
Br66	Br	0.000322	-0.478263	-0.054702
Br67	Br	-0.188425	-0.704650	-0.477593
Br68	Br	-0.636541	-1.011046	0.009234
H69	H	-0.382950	-0.972545	0.006789
Br70	Br	0.000372	-0.609050	0.246235
H71	H	0.000445	-0.177866	-0.024674
H72	H	0.145746	-0.266320	0.003543
Br73	Br	-0.188354	-0.390247	0.208057
Br74	Br	0.000349	-0.673021	-0.249460
Br75	Br	-0.188305	-0.219484	0.205553
Br76	Br	0.000438	-0.973958	-0.118673
H77	H	0.000392	-0.703049	-0.549857
H78	H	0.000500	-0.147101	0.205028
H79	H	0.000535	-0.015674	0.203099
Br80	Br	-0.188450	-0.707153	-0.306834
Br81	Br	0.189220	-0.935779	-0.337417
Br82	Br	0.000473	-0.031377	-0.061257
H83	H	0.145700	-0.397744	0.005468
Br84	Br	0.000448	-0.971451	-0.289434
H85	H	0.145758	-0.907233	-0.484997
Br86	Br	0.000455	-0.967406	-0.565558
H87	H	0.000515	-0.930822	-0.712049
H88	H	0.000418	-0.701123	-0.681288
