data_functionalizedCrystal
_audit_creation_method	'MofGen! by Chris Wilmer'
_symmetry_space_group_name_H-M	'P1'
_symmetry_Int_Tables_number	1
_symmetry_cell_setting	triclinic
loop_
_symmetry_equiv_pos_as_xyz
  x,y,z
_cell_length_a	11.169417
_cell_length_b	11.169416
_cell_length_c	11.169409
_cell_angle_alpha	90.030816
_cell_angle_beta	90.022388
_cell_angle_gamma	90.008562
loop_
_atom_site_label
_atom_site_type_symbol
_atom_site_fract_x
_atom_site_fract_y
_atom_site_fract_z
Zn1	Zn	-1.834971	0.477768	-0.678613
Zn2	Zn	-1.584971	0.727768	-0.428613
Zn3	Zn	-1.334971	0.977768	-0.178613
Zn4	Zn	-1.084971	1.227768	0.071387
Zn5	Zn	-1.834858	0.678508	-0.477935
Zn6	Zn	-1.584858	0.928508	-0.227935
Zn7	Zn	-1.334858	1.178508	0.022065
Zn8	Zn	-1.084858	1.428508	0.272065
Zn9	Zn	-1.634254	0.477831	-0.477941
Zn10	Zn	-1.384254	0.727831	-0.227941
Zn11	Zn	-1.134254	0.977831	0.022059
Zn12	Zn	-0.884254	1.227831	0.272059
Zn13	Zn	-1.634264	0.678401	-0.678574
Zn14	Zn	-1.384264	0.928401	-0.428574
Zn15	Zn	-1.134264	1.178401	-0.178574
Zn16	Zn	-0.884264	1.428401	0.071426
O17	O	-1.734587	0.578127	-0.578266
O18	O	-1.484587	0.828127	-0.328266
O19	O	-1.234587	1.078127	-0.078266
O20	O	-0.984587	1.328127	0.171734
O21	O	-2.002906	0.504414	-0.652007
O22	O	-1.752906	0.754414	-0.402007
O23	O	-1.502906	1.004414	-0.152007
O24	O	-1.252906	1.254414	0.097993
O25	O	-1.808196	0.651959	-0.309986
O26	O	-1.558196	0.901959	-0.059986
O27	O	-1.308196	1.151959	0.190014
O28	O	-1.058196	1.401959	0.440014
O29	O	-1.660923	0.309873	-0.504580
O30	O	-1.410923	0.559873	-0.254580
O31	O	-1.160923	0.809873	-0.004580
O32	O	-0.910923	1.059873	0.245420
O33	O	-2.002823	0.651897	-0.504570
O34	O	-1.752823	0.901897	-0.254570
O35	O	-1.502823	1.151897	-0.004570
O36	O	-1.252823	1.401897	0.245430
O37	O	-1.808389	0.309826	-0.652013
O38	O	-1.558389	0.559826	-0.402013
O39	O	-1.308389	0.809826	-0.152013
O40	O	-1.058389	1.059826	0.097987
O41	O	-1.660813	0.504523	-0.309991
O42	O	-1.410813	0.754523	-0.059991
O43	O	-1.160813	1.004523	0.190009
O44	O	-0.910813	1.254523	0.440009
O45	O	-1.466306	0.504419	-0.504542
O46	O	-1.216306	0.754419	-0.254542
O47	O	-0.966306	1.004419	-0.004542
O48	O	-0.716306	1.254419	0.245458
O49	O	-1.660940	0.651715	-0.846529
O50	O	-1.410940	0.901715	-0.596529
O51	O	-1.160940	1.151715	-0.346529
O52	O	-0.910940	1.401715	-0.096529
O53	O	-1.466313	0.651777	-0.651945
O54	O	-1.216313	0.901777	-0.401945
O55	O	-0.966313	1.151777	-0.151945
O56	O	-0.716313	1.401777	0.098055
O57	O	-1.808399	0.504311	-0.846558
O58	O	-1.558399	0.754311	-0.596558
O59	O	-1.308399	1.004311	-0.346558
O60	O	-1.058399	1.254311	-0.096558
O61	O	-1.808206	0.846443	-0.504531
O62	O	-1.558206	1.096443	-0.254531
O63	O	-1.308206	1.346443	-0.004531
O64	O	-1.058206	1.596443	0.245469
O65	O	-1.660830	0.846365	-0.651940
O66	O	-1.410830	1.096365	-0.401940
O67	O	-1.160830	1.346365	-0.151940
O68	O	-0.910830	1.596365	0.098060
C69	C	-1.422762	0.578094	-0.578241
C70	C	-1.172762	0.828094	-0.328241
C71	C	-0.922762	1.078094	-0.078241
C72	C	-0.672762	1.328094	0.171759
C73	C	-1.289362	0.578109	-0.578258
C74	C	-1.039362	0.828109	-0.328258
C75	C	-0.789362	1.078109	-0.078258
C76	C	-0.539362	1.328109	0.171742
C77	C	-1.734539	0.889952	-0.578257
C78	C	-1.484539	1.139952	-0.328257
C79	C	-1.234539	1.389952	-0.078257
C80	C	-0.984539	1.639952	0.171743
C81	C	-1.734629	1.023352	-0.578293
C82	C	-1.484629	1.273352	-0.328293
C83	C	-1.234629	1.523352	-0.078293
C84	C	-0.984629	1.773352	0.171707
C85	C	-1.734683	0.577994	-0.891309
C86	C	-1.484683	0.827994	-0.641309
C87	C	-1.234683	1.077994	-0.391309
C88	C	-0.984683	1.327994	-0.141309
C89	C	-1.734724	0.577937	-1.024709
C90	C	-1.484724	0.827937	-0.774709
C91	C	-1.234724	1.077937	-0.524709
C92	C	-0.984724	1.327937	-0.274709
C93	C	-1.047629	0.578149	-0.578284
C94	C	-0.797629	0.828149	-0.328284
C95	C	-0.547629	1.078149	-0.078284
C96	C	-0.297629	1.328149	0.171716
C97	C	-1.181029	0.578129	-0.578271
C98	C	-0.931029	0.828129	-0.328271
C99	C	-0.681029	1.078129	-0.078271
C100	C	-0.431029	1.328129	0.171729
C101	C	-1.734667	0.265085	-0.578301
C102	C	-1.484667	0.515085	-0.328301
C103	C	-1.234667	0.765085	-0.078301
C104	C	-0.984667	1.015085	0.171699
C105	C	-1.734702	0.131685	-0.578316
C106	C	-1.484702	0.381685	-0.328316
C107	C	-1.234702	0.631685	-0.078316
C108	C	-0.984702	0.881685	0.171684
C109	C	-1.734560	0.578173	-0.266441
C110	C	-1.484560	0.828173	-0.016441
C111	C	-1.234560	1.078173	0.233559
C112	C	-0.984560	1.328173	0.483559
C113	C	-1.734752	0.577891	-0.133042
C114	C	-1.484752	0.827891	0.116958
C115	C	-1.234752	1.077891	0.366958
C116	C	-0.984752	1.327891	0.616958
