data_functionalizedCrystal
_audit_creation_method	'MofGen! by Chris Wilmer'
_symmetry_space_group_name_H-M	'P1'
_symmetry_Int_Tables_number	1
_symmetry_cell_setting	triclinic
loop_
_symmetry_equiv_pos_as_xyz
  x,y,z
_cell_length_a	18.101398
_cell_length_b	17.077402
_cell_length_c	18.101380
_cell_angle_alpha	90.084607
_cell_angle_beta	89.934607
_cell_angle_gamma	89.981851
loop_
_atom_site_label
_atom_site_type_symbol
_atom_site_fract_x
_atom_site_fract_y
_atom_site_fract_z
Zn1	Zn	1.132464	0.312182	-0.418836
Zn2	Zn	1.132288	0.443583	-0.294992
Zn3	Zn	1.008534	0.312324	-0.294997
Zn4	Zn	1.008591	0.443399	-0.418781
O5	O	1.070469	0.377872	-0.356902
O6	O	1.236073	0.329630	-0.402429
O7	O	1.115775	0.426307	-0.191360
O8	O	1.025023	0.202458	-0.311449
O9	O	1.235945	0.426170	-0.311442
O10	O	1.116073	0.202354	-0.402433
O11	O	1.024853	0.329872	-0.191363
O12	O	0.904908	0.329694	-0.311396
O13	O	1.025120	0.425857	-0.522422
O14	O	0.904951	0.425994	-0.402340
O15	O	1.116129	0.329452	-0.522462
O16	O	1.115830	0.553405	-0.311389
O17	O	1.024950	0.553271	-0.402336
C18	C	0.878059	0.377840	-0.356863
C19	C	0.795745	0.377846	-0.356864
C20	C	1.070398	0.581820	-0.356872
C21	C	1.070435	0.669070	-0.356884
C22	C	1.070651	0.377618	-0.550064
C23	C	1.070728	0.377510	-0.632378
C24	C	0.496654	0.377895	-0.356926
C25	C	0.527928	0.317002	-0.299986
C26	C	0.613546	0.317165	-0.299743
C27	C	0.645036	0.377870	-0.356895
C28	C	0.613914	0.460581	-0.335570
C29	C	0.528268	0.460243	-0.335174
C30	C	0.528322	0.356795	-0.435326
C31	C	0.613972	0.354954	-0.434898
C32	C	0.728896	0.377861	-0.356879
C33	C	0.412794	0.377909	-0.356941
C34	C	1.263631	0.377905	-0.356941
C35	C	1.345945	0.377919	-0.356957
C36	C	1.070561	0.173128	-0.356947
C37	C	1.070600	0.085878	-0.356967
C38	C	1.117805	0.710104	-0.309579
C39	C	1.117841	0.792084	-0.309598
C40	C	1.070503	0.833029	-0.356919
C41	C	1.023131	0.791989	-0.404229
C42	C	1.023099	0.710010	-0.404214
C43	C	1.023200	0.962859	-0.404257
C44	C	1.023231	1.044844	-0.404272
C45	C	1.117941	1.044933	-0.309642
C46	C	1.117909	0.962954	-0.309626
C47	C	1.070537	0.921920	-0.356936
C48	C	1.070331	0.378068	-0.164491
C49	C	1.070397	0.377955	-0.082177
C50	C	1.070618	0.377659	0.216914
C51	C	1.012783	0.317668	0.185544
C52	C	1.012886	0.317513	0.099925
C53	C	1.070508	0.377806	0.068531
C54	C	1.148419	0.354725	0.099413
C55	C	1.148147	0.354204	0.185058
C56	C	1.051201	0.460909	0.185580
C57	C	1.049412	0.460568	0.099932
C58	C	1.070450	0.377890	-0.015328
C59	C	1.070680	0.377573	0.300773
H60	H	0.634588	0.255834	-0.313110
H61	H	1.156349	0.676772	-0.271041
H62	H	1.156451	0.929617	-0.271090
C63	C	0.499193	0.276727	-0.461522
C64	C	0.522989	0.243906	-0.537178
C65	C	0.493860	0.163835	-0.563364
C66	C	0.440935	0.116586	-0.513894
C67	C	0.417136	0.149407	-0.438234
C68	C	0.446265	0.229478	-0.412048
H69	H	0.562169	0.278883	-0.573802
H70	H	0.511478	0.139539	-0.619373
H71	H	0.419372	0.057312	-0.533279
H72	H	0.377956	0.114430	-0.401609
H73	H	0.428648	0.253774	-0.356039
H74	H	0.506339	0.330799	-0.242230
C75	C	1.170055	1.090067	-0.257602
C76	C	1.170098	1.180241	-0.257618
C77	C	1.222206	1.225378	-0.205576
C78	C	1.274271	1.180342	-0.153519
C79	C	1.274230	1.090163	-0.153501
C80	C	1.222122	1.045026	-0.205542
H81	H	1.131555	1.213584	-0.296156
H82	H	1.222236	1.292134	-0.205590
H83	H	1.312844	1.213755	-0.114995
H84	H	1.312773	1.056820	-0.114963
H85	H	1.222092	0.978269	-0.205528
C86	C	0.641131	0.336029	-0.221266
C87	C	0.585230	0.350995	-0.158623
C88	C	0.612815	0.369865	-0.080144
C89	C	0.696302	0.373768	-0.064307
C90	C	0.752208	0.358801	-0.126952
C91	C	0.724623	0.339932	-0.205432
H92	H	0.523424	0.348106	-0.170345
H93	H	0.571429	0.380944	-0.033770
H94	H	0.716722	0.387736	-0.006212
H95	H	0.814014	0.361690	-0.115231
H96	H	0.766009	0.328852	-0.251805
C97	C	0.500135	0.233893	-0.317838
C98	C	0.454211	0.188469	-0.260485
C99	C	0.426410	0.105359	-0.278339
C100	C	0.444533	0.067672	-0.353547
C101	C	0.490460	0.113095	-0.410905
C102	C	0.518261	0.196206	-0.393050
H103	H	0.440792	0.216367	-0.204808
H104	H	0.392412	0.071734	-0.235879
H105	H	0.423953	0.006149	-0.366763
H106	H	0.503878	0.085197	-0.466582
H107	H	0.552259	0.229831	-0.435511
H108	H	0.992058	0.477934	0.079809
C109	C	0.934506	0.337000	0.213557
C110	C	0.922138	0.407494	0.265261
C111	C	0.843858	0.426829	0.293277
C112	C	0.777946	0.375669	0.269589
C113	C	0.790312	0.305169	0.217882
C114	C	0.868592	0.285835	0.189866
H115	H	0.970932	0.445370	0.282799
H116	H	0.834704	0.479018	0.331554
H117	H	0.719998	0.389981	0.290329
H118	H	0.741518	0.267293	0.200345
H119	H	0.877745	0.233646	0.151589
H120	H	0.508218	0.478127	-0.277860
C121	C	0.500315	0.523624	-0.388743
C122	C	0.555924	0.574387	-0.431744
C123	C	0.527974	0.637773	-0.485306
C124	C	0.444415	0.650396	-0.495867
C125	C	0.388800	0.599632	-0.452866
C126	C	0.416750	0.536246	-0.399304
H127	H	0.617785	0.565044	-0.423926
H128	H	0.569145	0.675352	-0.517138
H129	H	0.423724	0.697318	-0.535517
H130	H	0.326939	0.608975	-0.460683
H131	H	0.375580	0.498667	-0.367471
H132	H	1.192686	0.395955	0.205803
H133	H	0.634314	0.507170	-0.375744
H134	H	0.635290	0.478773	-0.278875
H135	H	1.192620	0.397085	0.079074
C136	C	0.971087	0.917722	-0.456297
C137	C	1.003157	0.861235	-0.514464
C138	C	0.951042	0.816098	-0.566499
C139	C	0.866858	0.827447	-0.560367
C140	C	0.834784	0.883936	-0.502197
C141	C	0.886899	0.929074	-0.450162
H142	H	1.065479	0.852831	-0.519006
H143	H	0.974786	0.774281	-0.609560
H144	H	0.828280	0.794034	-0.598886
H145	H	0.772462	0.892340	-0.497655
H146	H	0.863155	0.970890	-0.407101
H147	H	1.165202	0.294561	0.077790
H148	H	0.634319	0.294087	-0.450978
C149	C	1.102191	0.524315	0.071100
C150	C	1.091517	0.610137	0.095069
C151	C	1.144307	0.673881	0.066242
C152	C	1.207771	0.651802	0.013445
C153	C	1.218448	0.565976	-0.010528
C154	C	1.165658	0.502232	0.018300
H155	H	1.044535	0.626485	0.134156
H156	H	1.136404	0.737415	0.083989
H157	H	1.246850	0.698989	-0.007895
H158	H	1.265430	0.549628	-0.049614
H159	H	1.173562	0.438698	0.000553
C160	C	0.642948	0.410483	-0.495290
C161	C	0.695555	0.477911	-0.474741
C162	C	0.724537	0.533442	-0.535133
C163	C	0.700911	0.521543	-0.616073
C164	C	0.648301	0.454112	-0.636625
C165	C	0.619319	0.398581	-0.576234
H166	H	0.713047	0.486722	-0.414821
H167	H	0.763483	0.583359	-0.519918
H168	H	0.722365	0.562650	-0.660778
H169	H	0.630809	0.445301	-0.696546
H170	H	0.580373	0.348664	-0.591449
H171	H	0.508102	0.401146	-0.477752
C172	C	1.169953	0.837217	-0.257561
C173	C	1.163894	0.826101	-0.173364
C174	C	1.216012	0.871232	-0.121327
C175	C	1.274189	0.927478	-0.153488
C176	C	1.280250	0.938596	-0.237690
C177	C	1.228131	0.893466	-0.289726
H178	H	1.120826	0.784463	-0.149553
H179	H	1.211526	0.863001	-0.058996
H180	H	1.312770	0.960886	-0.114967
H181	H	1.323317	0.980235	-0.261501
H182	H	1.232618	0.901697	-0.352058
H183	H	0.995426	0.481749	0.207335
C184	C	1.029870	0.234831	0.214381
C185	C	1.096053	0.221479	0.266240
C186	C	1.113143	0.138644	0.295078
C187	C	1.064051	0.069160	0.272057
C188	C	0.997864	0.082510	0.220196
C189	C	0.980774	0.165346	0.191358
H190	H	1.132398	0.272917	0.283284
H191	H	1.162139	0.128762	0.333470
H192	H	1.076702	0.007841	0.293405
H193	H	0.961519	0.031072	0.203152
H194	H	0.931778	0.175228	0.152966
C195	C	0.971164	1.089885	-0.456329
C196	C	0.919062	1.044753	-0.508374
C197	C	0.866994	1.089795	-0.560430
C198	C	0.867028	1.179968	-0.560442
C199	C	0.919132	1.225105	-0.508394
C200	C	0.971200	1.180064	-0.456338
H201	H	0.919035	0.977997	-0.508367
H202	H	0.828423	1.056381	-0.598959
H203	H	0.828484	1.213311	-0.598977
H204	H	0.919159	1.291862	-0.508401
H205	H	1.009770	1.213478	-0.417809
C206	C	0.970990	0.664868	-0.456247
C207	C	0.886804	0.676212	-0.450120
C208	C	0.834696	0.631071	-0.502158
C209	C	0.866773	0.574585	-0.560322
C210	C	0.950963	0.563239	-0.566452
C211	C	1.003071	0.608381	-0.514414
H212	H	0.863055	0.718028	-0.407061
H213	H	0.772373	0.639470	-0.497620
H214	H	0.828199	0.541169	-0.598844
H215	H	0.974712	0.521423	-0.609511
H216	H	1.065394	0.599981	-0.518952
C217	C	1.030152	0.234264	0.072009
C218	C	1.043894	0.167719	0.127646
C219	C	1.061162	0.084466	0.099730
C220	C	1.064689	0.067760	0.016178
C221	C	1.050947	0.134308	-0.039465
C222	C	1.033679	0.217560	-0.011549
H223	H	1.041284	0.180084	0.189502
H224	H	1.071335	0.035204	0.140921
H225	H	1.077472	0.006132	-0.004487
H226	H	1.053557	0.121942	-0.101320
H227	H	1.023506	0.266823	-0.052740
H228	H	0.984591	0.825333	-0.442762
C229	C	1.108105	0.521314	0.212997
C230	C	1.117971	0.535667	0.296412
C231	C	1.174875	0.596065	0.323834
C232	C	1.221914	0.642110	0.267841
C233	C	1.212050	0.627758	0.184421
C234	C	1.155145	0.567359	0.156999
H235	H	1.083149	0.501581	0.337866
H236	H	1.182177	0.606689	0.385587
H237	H	1.264038	0.686820	0.288141
H238	H	1.246872	0.661844	0.142967
H239	H	1.147843	0.556735	0.095246
H240	H	1.164660	0.293335	0.204859
H241	H	0.955099	0.332031	0.079052
