data_functionalizedCrystal
_audit_creation_method	'MofGen! by Chris Wilmer'
_symmetry_space_group_name_H-M	'P1'
_symmetry_Int_Tables_number	1
_symmetry_cell_setting	triclinic
loop_
_symmetry_equiv_pos_as_xyz
  x,y,z
_cell_length_a	16.992694
_cell_length_b	10.489741
_cell_length_c	15.455313
_cell_angle_alpha	92.692689
_cell_angle_beta	87.142206
_cell_angle_gamma	87.603699
loop_
_atom_site_label
_atom_site_type_symbol
_atom_site_fract_x
_atom_site_fract_y
_atom_site_fract_z
O1	O	1.045321	0.265388	-0.072021
O2	O	0.817021	0.262418	-0.072047
O3	O	0.936366	0.078758	-0.072028
O4	O	0.925976	0.449049	-0.072040
O5	O	0.929541	0.089214	0.072233
O6	O	0.810196	0.272874	0.072214
O7	O	1.038496	0.275845	0.072240
Cu8	Cu	0.923723	0.275314	0.085399
Cu9	Cu	0.931794	0.262948	-0.085206
O10	O	0.919151	0.459505	0.072221
C11	C	0.784374	0.263826	0.000081
C12	C	0.697266	0.252430	0.000071
C13	C	0.647647	0.362380	0.000068
C14	C	0.565799	0.351666	0.000081
C15	C	0.533573	0.231001	0.000089
C16	C	0.583198	0.121044	0.000095
C17	C	0.665044	0.131759	0.000089
C18	C	0.289723	0.186590	0.000114
C19	C	0.207871	0.175882	0.000117
C20	C	0.190477	0.406505	0.000105
C21	C	0.272325	0.417210	0.000094
C22	C	0.321944	0.307253	0.000104
N23	N	0.449911	0.220047	0.000099
N24	N	0.405603	0.318209	0.000100
C25	C	0.932168	0.036386	0.000102
C26	C	0.929821	-0.105448	0.000100
C27	C	0.853885	-0.180195	0.000085
C28	C	0.886392	-0.264041	0.071217
C29	C	0.893138	-0.274324	-0.071013
C30	C	0.962356	-0.187422	0.071291
C31	C	0.969095	-0.197700	-0.071003
C32	C	1.001656	-0.281512	0.000146
C33	C	1.071143	0.274436	0.000111
C34	C	1.158251	0.285832	0.000115
C35	C	0.923349	0.501877	0.000090
C36	C	0.925697	0.643710	0.000086
N37	N	0.918052	0.284011	0.205394
N38	N	0.937472	0.254242	-0.205201
C39	C	0.968772	0.206019	0.250796
C40	C	0.964490	0.212608	0.341603
C41	C	0.909492	0.297199	0.387007
C42	C	0.858766	0.375195	0.341598
C43	C	0.863045	0.368597	0.250793
C44	C	0.891025	0.325640	0.658585
C45	C	0.886752	0.332234	0.749397
C46	C	0.992475	0.169646	0.749396
C47	C	0.996751	0.163062	0.658589
C48	C	0.946023	0.241053	0.613188
N49	N	0.905116	0.303939	0.479826
N50	N	0.950396	0.234305	0.520370
H51	H	0.705444	0.042227	0.000090
O52	O	0.858181	-0.320028	-0.142693
C53	C	0.857107	-0.454313	-0.142121
H54	H	0.861401	-0.485546	-0.072792
H55	H	0.799775	-0.487580	-0.169070
H56	H	0.909275	-0.498399	-0.184038
H57	H	0.673878	0.460638	0.000060
O58	O	0.517713	0.458597	0.000038
C59	C	0.563707	0.567397	0.000046
H60	H	0.625886	0.539246	-0.027272
H61	H	0.535949	0.641909	-0.041839
H62	H	0.566476	0.609013	0.069252
O63	O	0.844743	-0.299035	0.143041
C64	C	0.880604	-0.252833	0.217922
H65	H	0.917222	-0.167841	0.201352
H66	H	0.833107	-0.221604	0.270203
H67	H	0.920480	-0.331691	0.242762
H68	H	1.033774	0.106148	0.786369
O69	O	0.303496	0.534526	0.000129
C70	C	0.242149	0.629274	0.000107
H71	H	0.185068	0.589814	0.027425
H72	H	0.257739	0.716052	0.041986
H73	H	0.234034	0.658572	-0.069102
H74	H	1.064144	-0.325496	0.000193
H75	H	0.849721	0.389146	0.621627
H76	H	0.150069	0.496026	0.000099
H77	H	0.813982	0.444065	0.378571
H78	H	1.004043	-0.168221	-0.131136
O79	O	0.813890	0.444420	0.206591
C80	C	0.858819	0.523684	0.154065
H81	H	0.920564	0.478183	0.140458
H82	H	0.829195	0.535862	0.090213
H83	H	0.863028	0.621098	0.189048
H84	H	0.181636	0.077618	0.000124
O85	O	0.833245	0.414427	0.793370
C86	C	0.789398	0.481866	0.733827
H87	H	0.791272	0.424755	0.669101
H88	H	0.725619	0.496772	0.760074
H89	H	0.815844	0.578604	0.724160
H90	H	0.330113	0.097055	0.000123
H91	H	0.556953	0.022797	0.000114
H92	H	0.791448	-0.135971	0.000150
H93	H	1.013560	0.137142	0.213834
O94	O	0.997335	-0.141975	0.143027
C95	C	1.064756	-0.076274	0.117655
H96	H	1.058786	-0.043077	0.049012
H97	H	1.070588	0.010146	0.164065
H98	H	1.119411	-0.142761	0.119373
O99	O	1.013850	0.136811	0.385572
C100	C	1.063304	0.060726	0.326026
H101	H	1.067523	0.108438	0.261289
H102	H	1.124614	0.049633	0.352252
H103	H	1.037768	-0.037414	0.316386
H104	H	1.041535	0.094182	0.621623
