data_functionalizedCrystal
_audit_creation_method	'MofGen! by Chris Wilmer'
_symmetry_space_group_name_H-M	'P1'
_symmetry_Int_Tables_number	1
_symmetry_cell_setting	triclinic
loop_
_symmetry_equiv_pos_as_xyz
  x,y,z
_cell_length_a	14.519731
_cell_length_b	10.654550
_cell_length_c	13.596369
_cell_angle_alpha	89.999781
_cell_angle_beta	90.006024
_cell_angle_gamma	95.913108
loop_
_atom_site_label
_atom_site_type_symbol
_atom_site_fract_x
_atom_site_fract_y
_atom_site_fract_z
O1	O	1.224712	-0.164742	0.081793
O2	O	0.956338	-0.184101	0.081795
O3	O	1.096696	0.008376	0.081788
O4	O	1.084355	-0.357219	0.081800
O5	O	1.096678	0.008366	-0.081795
O6	O	0.956321	-0.184111	-0.081788
O7	O	1.224695	-0.164753	-0.081790
Zn8	Zn	1.090505	-0.174434	-0.107761
Zn9	Zn	1.090528	-0.174420	0.107766
O10	O	1.084337	-0.357230	-0.081783
C11	C	0.921965	-0.183199	0.000003
C12	C	0.819571	-0.180481	0.000004
C13	C	0.736416	-0.178272	0.000008
C14	C	0.632093	-0.175513	0.000008
C15	C	0.548942	-0.173322	0.000008
C16	C	0.444612	-0.170563	0.000010
C17	C	1.095781	0.055160	-0.000003
C18	C	1.093070	0.194578	-0.000002
C19	C	1.259068	-0.165655	0.000004
C20	C	1.361462	-0.168373	0.000010
C21	C	1.085252	-0.404014	0.000010
C22	C	1.087963	-0.543432	0.000015
N23	N	1.090496	-0.174443	-0.254853
C24	C	1.175710	0.274850	-0.000002
C25	C	1.173157	0.405846	0.000010
C26	C	1.005317	0.376286	0.000018
C27	C	1.007871	0.245293	0.000013
C28	C	1.090501	-0.174446	-0.343851
C29	C	1.090510	-0.174437	-0.455502
C30	C	1.090522	-0.174423	-0.544493
C31	C	1.090532	-0.174415	-0.656151
N32	N	1.090544	-0.174401	0.254858
H33	H	1.245085	0.233562	-0.000012
O34	O	0.927675	0.167128	0.000057
C35	C	0.948202	0.040636	0.000030
H36	H	1.020678	0.035453	0.030994
H37	H	0.944937	0.002762	-0.078449
C38	C	0.788115	-0.033007	0.026156
C39	C	0.877128	-0.039374	0.064194
H40	H	0.744271	-0.082364	0.065732
H41	H	0.774284	0.052212	0.026171
H42	H	0.785407	-0.064567	-0.039242
H43	H	0.879837	-0.007800	0.129587
H44	H	0.890957	-0.124591	0.064192
O45	O	0.922616	0.425705	0.000155
C46	C	0.916117	0.500567	0.084889
H47	H	0.988599	0.533020	0.113134
H48	H	0.875694	0.442790	0.144214
C49	C	0.776689	0.576690	0.024465
C50	C	0.865713	0.616559	0.059151
H51	H	0.745593	0.648237	0.008591
H52	H	0.781064	0.526250	-0.032620
H53	H	0.743015	0.528541	0.073908
H54	H	0.899389	0.664692	0.009704
H55	H	0.861342	0.667009	0.116228
O56	O	1.253521	0.483642	-0.000037
C57	C	1.329262	0.410784	-0.000024
H58	H	1.306473	0.313077	-0.030999
H59	H	1.355349	0.401388	0.078452
C60	C	1.435529	0.595879	-0.026134
C61	C	1.407542	0.475878	-0.064185
H62	H	1.483819	0.636034	-0.065707
H63	H	1.384502	0.644967	-0.026138
H64	H	1.457263	0.588033	0.039262
H65	H	1.385798	0.483727	-0.129575
H66	H	1.458568	0.426793	-0.064193
