data_functionalizedCrystal
_audit_creation_method	'MofGen! by Chris Wilmer'
_symmetry_space_group_name_H-M	'P1'
_symmetry_Int_Tables_number	1
_symmetry_cell_setting	triclinic
loop_
_symmetry_equiv_pos_as_xyz
  x,y,z
_cell_length_a	16.956995
_cell_length_b	17.666332
_cell_length_c	16.992695
_cell_angle_alpha	90.006422
_cell_angle_beta	83.361347
_cell_angle_gamma	90.012625
loop_
_atom_site_label
_atom_site_type_symbol
_atom_site_fract_x
_atom_site_fract_y
_atom_site_fract_z
O1	O	1.060105	0.063001	0.032364
O2	O	0.829695	0.062991	0.059778
O3	O	0.943976	0.062990	-0.068012
O4	O	0.945823	0.063002	0.160154
O5	O	0.943954	-0.062907	-0.068017
O6	O	0.829673	-0.062906	0.059773
O7	O	1.060083	-0.062896	0.032359
Cu8	Cu	0.944876	-0.074396	0.046066
Cu9	Cu	0.944902	0.074491	0.046072
O10	O	0.945802	-0.062895	0.160149
C11	C	0.800065	0.000041	0.061179
C12	C	0.711811	0.000038	0.065352
C13	C	0.214500	0.000068	0.096570
C14	C	0.297425	0.000067	0.092643
C15	C	0.343815	0.000057	0.018931
C16	C	0.307278	0.000056	-0.050860
C17	C	0.224354	0.000062	-0.046932
C18	C	0.592349	0.000043	-0.000510
C19	C	0.675278	0.000034	-0.004433
C20	C	0.665419	0.000046	0.139071
C21	C	0.582495	0.000048	0.142992
C22	C	0.545964	0.000051	0.073202
N23	N	0.428578	0.000054	0.014915
N24	N	0.461203	0.000060	0.077218
N25	N	0.944864	-0.179116	0.046061
C26	C	0.995487	-0.218726	-0.010500
C27	C	0.995491	-0.297974	-0.010504
C28	C	0.944881	-0.337608	0.046066
C29	C	0.894248	-0.297988	0.102631
C30	C	0.894239	-0.218742	0.102628
N31	N	0.939175	-0.462023	0.115816
N32	N	0.939188	-0.537303	0.115815
C33	C	0.944902	-0.576372	0.046075
N34	N	0.950619	-0.537316	-0.023668
N35	N	0.950610	-0.462028	-0.023667
C36	C	0.944884	-0.423537	0.046074
C37	C	0.995533	-0.701911	-0.010494
C38	C	0.995532	-0.781160	-0.010499
C39	C	0.894293	-0.781173	0.102642
C40	C	0.894290	-0.701926	0.102640
C41	C	0.944914	-0.662300	0.046073
C42	C	1.089713	0.000055	0.030958
C43	C	1.177967	0.000064	0.026785
C44	C	0.941589	0.000041	-0.097073
C45	C	0.934498	0.000041	-0.183657
N46	N	0.944920	0.179211	0.046070
C47	C	1.002913	0.000043	-0.238332
C48	C	0.996246	0.000050	-0.319686
C49	C	0.921163	0.000050	-0.346365
C50	C	0.852743	0.000050	-0.291683
C51	C	0.859411	0.000049	-0.210331
C52	C	0.893527	0.000059	-0.588171
C53	C	0.886865	0.000058	-0.669531
C54	C	1.030368	0.000060	-0.697528
C55	C	1.037029	0.000054	-0.616172
C56	C	0.968609	0.000058	-0.561498
N57	N	0.914346	0.000054	-0.429522
N58	N	0.975427	0.000059	-0.478343
C59	C	0.948189	0.000055	0.189210
C60	C	0.955280	0.000060	0.275795
H61	H	0.713048	0.000030	-0.064462
H62	H	0.803700	0.000047	-0.165814
H63	H	1.036706	-0.186465	-0.056562
H64	H	1.051957	0.000050	-0.364200
C65	C	0.838561	-0.341579	0.164843
H66	H	0.808400	-0.306635	0.198522
H67	H	0.869183	-0.372486	0.195524
H68	H	0.803724	-0.372499	0.138855
C69	C	0.804270	0.000071	-0.698875
H70	H	0.764476	0.000082	-0.654663
H71	H	0.798671	-0.043830	-0.730035
H72	H	0.798708	0.043981	-0.730024
H73	H	1.098170	0.000054	-0.594458
C74	C	1.051221	-0.824732	-0.072717
H75	H	1.081373	-0.789779	-0.106399
H76	H	1.020594	-0.855660	-0.103393
H77	H	1.086068	-0.855631	-0.046739
C78	C	1.105623	0.000066	-0.757669
H79	H	1.090901	0.000074	-0.809942
H80	H	1.136193	-0.043833	-0.750096
H81	H	1.136198	0.043978	-0.750081
C82	C	0.838622	-0.824761	0.164867
H83	H	0.845880	-0.877631	0.156771
H84	H	0.785083	-0.811790	0.159792
H85	H	0.850569	-0.811764	0.216431
H86	H	0.327165	0.000077	0.149470
C87	C	0.838621	-0.658349	0.164869
H88	H	0.845862	-0.605477	0.156765
H89	H	0.850571	-0.671329	0.216428
H90	H	0.785078	-0.671349	0.159796
H91	H	0.837815	0.000062	-0.543665
H92	H	0.695172	0.000045	0.195890
H93	H	0.176733	0.000070	0.156595
H94	H	0.791609	0.000054	-0.313411
H95	H	0.544728	0.000058	0.203017
H96	H	0.345056	0.000053	-0.110878
C97	C	0.552175	0.000033	-0.077276
H98	H	0.591683	0.000016	-0.121737
H99	H	0.520044	0.043936	-0.078736
H100	H	0.520021	-0.043875	-0.078723
C101	C	0.184168	0.000056	-0.123695
H102	H	0.223672	0.000043	-0.168159
H103	H	0.152038	0.043961	-0.125146
H104	H	0.152011	-0.043850	-0.125145
H105	H	1.036716	-0.330230	-0.056564
H106	H	0.853015	-0.186490	0.148687
H107	H	1.064053	0.000039	-0.216618
C108	C	1.051207	-0.658319	-0.072722
H109	H	1.081349	-0.693263	-0.106417
H110	H	1.086051	-0.627392	-0.046757
H111	H	1.020562	-0.627419	-0.103394
