data_functionalizedCrystal
_audit_creation_method	'MofGen! by Chris Wilmer'
_symmetry_space_group_name_H-M	'P1'
_symmetry_Int_Tables_number	1
_symmetry_cell_setting	triclinic
loop_
_symmetry_equiv_pos_as_xyz
  x,y,z
_cell_length_a	12.594517
_cell_length_b	25.639240
_cell_length_c	12.594509
_cell_angle_alpha	90.041310
_cell_angle_beta	90.021327
_cell_angle_gamma	90.032557
loop_
_atom_site_label
_atom_site_type_symbol
_atom_site_fract_x
_atom_site_fract_y
_atom_site_fract_z
Zn1	Zn	1.627143	-0.208138	0.601763
Zn2	Zn	1.626982	-0.295580	0.423744
Zn3	Zn	1.449147	-0.208160	0.423792
Zn4	Zn	1.449078	-0.295544	0.601674
O5	O	1.538088	-0.251855	0.512743
O6	O	1.776068	-0.219743	0.578166
O7	O	1.603354	-0.284008	0.274805
O8	O	1.472855	-0.134992	0.447458
O9	O	1.775949	-0.283987	0.447376
O10	O	1.603628	-0.134976	0.578212
O11	O	1.472699	-0.219781	0.274840
O12	O	1.300192	-0.219746	0.447371
O13	O	1.472737	-0.283925	0.750632
O14	O	1.300141	-0.283946	0.578060
O15	O	1.603561	-0.219708	0.750697
O16	O	1.603286	-0.368740	0.447289
O17	O	1.472580	-0.368714	0.578014
C18	C	1.261547	-0.251845	0.512712
C19	C	1.143241	-0.251853	0.512724
C20	C	1.073985	-0.216887	0.441778
C21	C	1.003146	-0.264579	0.415576
C22	C	1.003282	-0.204184	0.538944
C23	C	1.073960	-0.299570	0.486471
C24	C	1.074102	-0.239144	0.609885
C25	C	1.003295	-0.286869	0.583720
C26	C	1.537937	-0.387698	0.512660
C27	C	1.537970	-0.445812	0.512660
C28	C	1.606215	-0.806128	0.580950
C29	C	1.606246	-0.860732	0.580972
O30	O	1.664091	-0.888929	0.638949
N31	N	1.538235	-0.888094	0.512846
C32	C	1.470181	-0.860849	0.444702
O33	O	1.412334	-0.889137	0.386759
C34	C	1.470145	-0.806246	0.444687
C35	C	1.538168	-0.778887	0.512809
C36	C	1.674232	-0.778769	0.649068
C37	C	1.674201	-0.724168	0.649045
C38	C	1.606154	-0.696927	0.580904
C39	C	1.538138	-0.724286	0.512786
C40	C	1.402086	-0.779002	0.376549
C41	C	1.402055	-0.724395	0.376540
C42	C	1.470078	-0.697036	0.444662
C43	C	1.470060	-0.642445	0.444622
N44	N	1.538071	-0.615083	0.512747
C45	C	1.606118	-0.642324	0.580888
C46	C	1.470260	-0.975520	0.444741
C47	C	1.470301	-1.030122	0.444751
C48	C	1.606365	-1.030002	0.581022
C49	C	1.606329	-0.975398	0.581006
C50	C	1.538271	-0.948158	0.512867
C51	C	1.606050	-0.527659	0.580833
C52	C	1.606017	-0.473053	0.580801
C53	C	1.469949	-0.473179	0.444534
C54	C	1.469986	-0.527780	0.444562
C55	C	1.538040	-0.555018	0.512720
O56	O	1.412242	-0.614213	0.386677
O57	O	1.663945	-0.614029	0.638832
C58	C	1.815708	-0.251866	0.512775
C59	C	1.934014	-0.251871	0.512789
C60	C	1.538159	-0.251810	0.790364
C61	C	1.538189	-0.251790	0.908670
C62	C	1.538268	-0.115482	0.512850
C63	C	1.538344	-0.057368	0.512896
C64	C	1.538078	-0.251863	0.236202
C65	C	1.538254	-0.251736	0.117898
C66	C	1.467056	-0.286698	0.977888
C67	C	1.564169	-0.299473	1.048672
C68	C	1.441152	-0.238984	1.048685
C69	C	1.635353	-0.264590	0.977896
C70	C	1.512270	-0.204079	0.977903
C71	C	1.609450	-0.216836	1.048655
H72	H	0.972179	-0.163870	0.561057
O73	O	1.590515	-0.347580	1.085648
C74	C	1.692163	-0.361323	1.048060
H75	H	1.710580	-0.338205	0.973002
H76	H	1.754029	-0.352054	1.111434
C77	C	1.672130	-0.448475	1.114975
C78	C	1.694746	-0.420085	1.022781
H79	H	1.673726	-0.484722	1.099386
H80	H	1.603649	-0.439216	1.140302
H81	H	1.723688	-0.440745	1.167777
H82	H	1.643180	-0.427810	0.969985
H83	H	1.763218	-0.429346	0.997444
H84	H	0.971980	-0.275340	0.333436
O85	O	1.111013	-0.347649	0.459901
C86	C	1.222955	-0.347057	0.460171
H87	H	1.252283	-0.305383	0.448485
H88	H	1.253302	-0.362629	0.539322
C89	C	1.228605	-0.432854	0.383683
C90	C	1.264626	-0.381670	0.369322
H91	H	1.254311	-0.454206	0.327647
H92	H	1.153188	-0.433254	0.383504
H93	H	1.253897	-0.445823	0.449645
H94	H	1.239323	-0.368699	0.303367
H95	H	1.340040	-0.381268	0.369487
H96	H	1.669702	-0.187292	1.079531
H97	H	1.717467	-0.275445	0.946932
O98	O	1.672129	-0.446558	0.647082
C99	C	1.732208	-0.482315	0.707212
H100	H	1.688628	-0.521254	0.710867
H101	H	1.813071	-0.488107	0.668314
C102	C	1.800999	-0.413125	0.816012
C103	C	1.747468	-0.460949	0.820509
H104	H	1.810417	-0.399945	0.885898
H105	H	1.760526	-0.389034	0.775500
H106	H	1.868379	-0.417958	0.783592
H107	H	1.680085	-0.456114	0.852916
H108	H	1.787931	-0.485039	0.861030
H109	H	1.105293	-0.228368	0.691999
O110	O	1.485858	-0.156002	0.940826
C111	C	1.383418	-0.142674	0.976851
H112	H	1.337456	-0.179717	0.996718
H113	H	1.390191	-0.117288	1.050900
C114	C	1.380907	-0.066870	0.864933
C115	C	1.324453	-0.112368	0.889326
H116	H	1.344535	-0.048174	0.810947
H117	H	1.449924	-0.075849	0.840665
H118	H	1.386547	-0.045722	0.926648
H119	H	1.318825	-0.133518	0.827615
H120	H	1.255432	-0.103392	0.913582
O121	O	1.672411	-1.056411	0.647370
C122	C	1.649061	-1.043044	0.753429
H123	H	1.608128	-1.003413	0.755587
H124	H	1.594329	-1.073782	0.789230
C125	C	1.803059	-1.089132	0.815354
C126	C	1.752792	-1.040455	0.818005
H127	H	1.867043	-1.087537	0.855190
H128	H	1.818788	-1.098140	0.743901
H129	H	1.757438	-1.114742	0.845187
H130	H	1.798407	-1.014848	0.788161
H131	H	1.737072	-1.031443	0.889455
H132	H	1.406949	-0.316264	0.946816
H133	H	1.661459	-0.549830	0.636342
H134	H	1.729588	-0.701895	0.704519
O135	O	1.740441	-0.805145	0.715297
C136	C	1.800436	-0.769277	0.775426
H137	H	1.804101	-0.730373	0.731812
H138	H	1.761415	-0.763452	0.856228
C139	C	1.909233	-0.838302	0.844441
C140	C	1.913741	-0.790521	0.790869
H141	H	1.979123	-0.851407	0.853972
H142	H	1.868811	-0.862467	0.803934
H143	H	1.876711	-0.833441	0.911770
H144	H	1.946250	-0.795383	0.723536
H145	H	1.954171	-0.766357	0.831365
O146	O	1.404131	-1.056615	0.378534
C147	C	1.344091	-1.020856	0.318371
H148	H	1.340366	-0.981916	0.361955
H149	H	1.383112	-1.015067	0.237569
C150	C	1.235401	-1.090041	0.249398
C151	C	1.230819	-1.042215	0.302933
H152	H	1.165531	-1.103217	0.239870
H153	H	1.275853	-1.114133	0.289927
H154	H	1.267923	-1.085210	0.182069
H155	H	1.198309	-1.047047	0.370266
H156	H	1.190358	-1.018124	0.262414
H157	H	1.359062	-0.228175	1.079780
H158	H	0.972452	-0.316480	0.643744
O159	O	1.404302	-0.949003	0.378483
C160	C	1.464917	-0.917433	0.309761
H161	H	1.545549	-0.909195	0.347375
H162	H	1.476678	-0.938509	0.230907
C163	C	1.307289	-0.875720	0.244204
C164	C	1.406319	-0.865599	0.290407
H165	H	1.271142	-0.843748	0.232261
H166	H	1.266451	-0.896991	0.290500
H167	H	1.317103	-0.893286	0.178497
H168	H	1.396503	-0.848041	0.356118
H169	H	1.447155	-0.844324	0.244122
H170	H	1.661719	-0.953125	0.636478
H171	H	1.346694	-0.801269	0.321076
O172	O	1.335794	-0.697992	0.310400
C173	C	1.229708	-0.711360	0.333595
H174	H	1.227508	-0.750988	0.374527
H175	H	1.193812	-0.680619	0.388274
C176	C	1.167986	-0.665288	0.179505
C177	C	1.165284	-0.713961	0.229770
H178	H	1.128245	-0.666890	0.115462
H179	H	1.239458	-0.656279	0.163879
H180	H	1.138075	-0.639675	0.225081
H181	H	1.195207	-0.739571	0.184199
H182	H	1.093816	-0.722974	0.245386
O183	O	1.403815	-0.554279	0.378351
C184	C	1.343773	-0.518523	0.318180
H185	H	1.340051	-0.479580	0.361753
H186	H	1.382791	-0.512740	0.237375
C187	C	1.235079	-0.587712	0.249232
C188	C	1.230500	-0.539883	0.302753
H189	H	1.165207	-0.600888	0.239711
H190	H	1.275532	-0.611802	0.289766
H191	H	1.267598	-0.582887	0.181900
H192	H	1.197993	-0.544710	0.370089
H193	H	1.190038	-0.515794	0.262230
H194	H	1.414549	-0.450991	0.389051
H195	H	1.105024	-0.187346	0.381707
