data_functionalizedCrystal
_audit_creation_method	'MofGen! by Chris Wilmer'
_symmetry_space_group_name_H-M	'P1'
_symmetry_Int_Tables_number	1
_symmetry_cell_setting	triclinic
loop_
_symmetry_equiv_pos_as_xyz
  x,y,z
_cell_length_a	19.188930
_cell_length_b	16.992695
_cell_length_c	16.053802
_cell_angle_alpha	92.741074
_cell_angle_beta	87.413631
_cell_angle_gamma	86.906501
loop_
_atom_site_label
_atom_site_type_symbol
_atom_site_fract_x
_atom_site_fract_y
_atom_site_fract_z
O1	O	0.934644	0.094549	-0.069701
O2	O	1.267977	0.427882	0.263632
O3	O	1.601310	0.761216	0.596966
O4	O	0.732101	0.107727	-0.069644
O5	O	1.065434	0.441060	0.263689
O6	O	1.398768	0.774394	0.597023
O7	O	0.832560	-0.013002	-0.069666
O8	O	1.165893	0.320332	0.263668
O9	O	1.499227	0.653665	0.597001
O10	O	0.834185	0.215277	-0.069679
O11	O	1.167518	0.548611	0.263654
O12	O	1.500851	0.881944	0.596987
O13	O	0.827029	-0.006384	0.069194
O14	O	1.160362	0.326950	0.402528
O15	O	1.493696	0.660283	0.735861
O16	O	0.726570	0.114345	0.069216
O17	O	1.059903	0.447678	0.402549
O18	O	1.393237	0.781011	0.735883
O19	O	0.929113	0.101167	0.069159
O20	O	1.262446	0.434500	0.402492
O21	O	1.595779	0.767833	0.735826
Zn22	Zn	0.826963	0.108807	0.091235
Zn23	Zn	1.160296	0.442140	0.424568
Zn24	Zn	1.493630	0.775473	0.757901
Zn25	Zn	0.834250	0.100087	-0.091720
Zn26	Zn	1.167584	0.433420	0.241614
Zn27	Zn	1.500917	0.766754	0.574947
O28	O	0.828653	0.221895	0.069181
O29	O	1.161987	0.555229	0.402514
O30	O	1.495320	0.888562	0.735847
C31	C	0.827705	-0.038898	-0.000235
C32	C	1.161039	0.294435	0.333098
C33	C	1.494372	0.627769	0.666432
C34	C	0.821472	-0.125921	-0.000234
C35	C	1.154806	0.207413	0.333100
C36	C	1.488139	0.540746	0.666433
C37	C	0.703299	0.110610	-0.000207
C38	C	1.036633	0.443943	0.333127
C39	C	1.369966	0.777276	0.666460
C40	C	0.625719	0.109330	-0.000185
C41	C	0.959052	0.442663	0.333149
C42	C	1.292386	0.775996	0.666482
C43	C	0.881613	-0.176368	-0.000250
C44	C	1.214946	0.156965	0.333084
C45	C	1.548279	0.490298	0.666417
C46	C	0.875752	-0.258135	-0.000256
C47	C	1.209086	0.075198	0.333077
C48	C	1.542419	0.408532	0.666411
C49	C	0.809751	-0.289453	-0.000240
C50	C	1.143084	0.043881	0.333093
C51	C	1.476417	0.377214	0.666426
C52	C	0.749606	-0.238999	-0.000227
C53	C	1.082940	0.094335	0.333107
C54	C	1.416273	0.427668	0.666440
C55	C	0.755467	-0.157234	-0.000226
C56	C	1.088801	0.176100	0.333107
C57	C	1.422134	0.509433	0.666440
C58	C	0.785458	-0.532967	-0.000245
C59	C	1.118791	-0.199634	0.333088
C60	C	1.452125	0.133700	0.666422
C61	C	0.779601	-0.614738	-0.000243
C62	C	1.112934	-0.281405	0.333091
C63	C	1.446268	0.051928	0.666424
C64	C	0.905748	-0.633869	-0.000273
C65	C	1.239081	-0.300536	0.333060
C66	C	1.572415	0.032797	0.666393
C67	C	0.911603	-0.552102	-0.000268
C68	C	1.244937	-0.218768	0.333065
C69	C	1.578270	0.114565	0.666399
C70	C	0.851459	-0.501655	-0.000259
C71	C	1.184792	-0.168322	0.333074
C72	C	1.518125	0.165011	0.666408
N73	N	0.803759	-0.373031	-0.000244
N74	N	1.137092	-0.039698	0.333089
N75	N	1.470425	0.293636	0.666423
N76	N	0.857452	-0.418079	-0.000261
N77	N	1.190785	-0.084745	0.333072
N78	N	1.524118	0.248588	0.666405
C79	C	0.584941	0.180168	-0.000202
C80	C	0.918274	0.513501	0.333131
C81	C	1.251608	0.846835	0.666465
C82	C	0.512047	0.178964	-0.000211
C83	C	0.845380	0.512298	0.333122
C84	C	1.178714	0.845631	0.666456
C85	C	0.479935	0.106918	-0.000220
C86	C	0.813268	0.440251	0.333114
C87	C	1.146601	0.773584	0.666447
C88	C	0.520722	0.036070	-0.000198
C89	C	0.854055	0.369404	0.333136
C90	C	1.187389	0.702737	0.666469
C91	C	0.593614	0.037276	-0.000180
C92	C	0.926947	0.370610	0.333153
C93	C	1.260281	0.703943	0.666487
N94	N	0.370616	0.049593	-0.047510
N95	N	0.703949	0.382927	0.285823
N96	N	1.037282	0.716260	0.619157
N97	N	0.301371	0.048452	-0.047528
N98	N	0.634705	0.381786	0.285805
N99	N	0.968038	0.715119	0.619138
C100	C	0.260316	0.103279	-0.000271
C101	C	0.593649	0.436613	0.333063
C102	C	0.926982	0.769946	0.666396
N103	N	0.291120	0.159302	0.046996
N104	N	0.624453	0.492635	0.380329
N105	N	0.957787	0.825969	0.713663
N106	N	0.360371	0.160445	0.047011
N107	N	0.693704	0.493778	0.380344
N108	N	1.027038	0.827112	0.713677
C109	C	0.400896	0.105602	-0.000238
C110	C	0.734229	0.438935	0.333095
C111	C	1.067563	0.772268	0.666429
C112	C	0.140497	0.172817	-0.000297
C113	C	0.473831	0.506151	0.333037
C114	C	0.807164	0.839484	0.666370
C115	C	0.067602	0.171611	-0.000300
C116	C	0.400935	0.504944	0.333033
C117	C	0.734269	0.838277	0.666366
C118	C	0.076279	0.028714	-0.000295
C119	C	0.409612	0.362048	0.333038
C120	C	0.742946	0.695381	0.666371
C121	C	0.149172	0.029923	-0.000283
C122	C	0.482506	0.363257	0.333050
C123	C	0.815839	0.696590	0.666384
C124	C	0.181277	0.101977	-0.000288
C125	C	0.514610	0.435310	0.333046
C126	C	0.847944	0.768643	0.666379
C127	C	0.957914	0.098284	-0.000280
C128	C	1.291248	0.431617	0.333053
C129	C	1.624581	0.764951	0.666387
C130	C	1.035495	0.099564	-0.000308
C131	C	1.368828	0.432897	0.333026
C132	C	1.702162	0.766230	0.666359
C133	C	0.833508	0.247792	-0.000252
C134	C	1.166841	0.581125	0.333082
C135	C	1.500175	0.914458	0.666415
C136	C	0.839741	0.334814	-0.000259
C137	C	1.173075	0.668147	0.333075
C138	C	1.506408	1.001481	0.666408
N139	N	0.821995	0.114757	0.216096
N140	N	1.155328	0.448090	0.549429
N141	N	1.488661	0.781423	0.882763
N142	N	0.839224	0.094131	-0.216581
N143	N	1.172557	0.427464	0.116752
N144	N	1.505891	0.760797	0.450086
C145	C	0.864758	0.063405	0.259781
C146	C	1.198091	0.396738	0.593114
C147	C	1.531424	0.730071	0.926447
C148	C	0.861289	0.067575	0.347188
C149	C	1.194623	0.400908	0.680522
C150	C	1.527956	0.734241	1.013855
C151	C	0.815061	0.123101	0.390909
C152	C	1.148394	0.456434	0.724243
C153	C	1.481727	0.789767	1.057576
C154	C	0.772293	0.174455	0.347219
C155	C	1.105626	0.507788	0.680552
C156	C	1.438959	0.841122	1.013885
C157	C	0.775758	0.170281	0.259813
C158	C	1.109092	0.503614	0.593146
C159	C	1.442425	0.836947	0.926479
C160	C	0.799922	0.141311	0.652322
C161	C	1.133255	0.474644	0.985656
C162	C	1.466588	0.807978	1.318989
C163	C	0.796461	0.145483	0.739734
C164	C	1.129794	0.478816	1.073068
C165	C	1.463128	0.812149	1.406401
C166	C	0.885457	0.038601	0.739698
C167	C	1.218790	0.371934	1.073031
C168	C	1.552123	0.705267	1.406365
C169	C	0.888921	0.034435	0.652290
C170	C	1.222255	0.367768	0.985624
C171	C	1.555588	0.701102	1.318957
C172	C	0.846151	0.085786	0.608607
C173	C	1.179484	0.419120	0.941940
C174	C	1.512817	0.752453	1.275274
N175	N	0.811516	0.127366	0.480254
N176	N	1.144849	0.460699	0.813587
N177	N	1.478182	0.794032	1.146921
N178	N	0.849693	0.081517	0.519264
N179	N	1.183026	0.414850	0.852598
N180	N	1.516359	0.748184	1.185931
H181	H	0.935358	-0.150876	-0.000257
H182	H	1.268691	0.182457	0.333076
H183	H	1.602025	0.515790	0.666409
H184	H	0.611076	0.238839	-0.000207
H185	H	0.944409	0.572173	0.333126
H186	H	1.277743	0.905506	0.666459
H187	H	0.920278	-0.003208	0.775273
H188	H	1.253611	0.330125	1.108606
H189	H	1.586944	0.663459	1.441939
H190	H	0.765098	0.183125	0.616762
H191	H	1.098431	0.516458	0.950096
H192	H	1.431764	0.849792	1.283429
H193	H	0.166638	0.231488	-0.000288
H194	H	0.499971	0.564821	0.333045
H195	H	0.833305	0.898155	0.666379
H196	H	0.902405	0.018193	0.224189
H197	H	1.235738	0.351526	0.557522
H198	H	1.569072	0.684860	0.890855
H199	H	0.965348	-0.526610	-0.000281
H200	H	1.298682	-0.193276	0.333053
H201	H	1.632015	0.140057	0.666386
H202	H	0.896110	0.025759	0.382756
H203	H	1.229443	0.359093	0.716089
H204	H	1.562776	0.692426	1.049423
H205	H	0.926564	-0.010779	0.616694
H206	H	1.259897	0.322555	0.950028
H207	H	1.593231	0.655888	1.283361
H208	H	0.494572	-0.022591	-0.000216
H209	H	0.827905	0.310742	0.333117
H210	H	1.161239	0.644075	0.666451
H211	H	0.034401	0.229298	-0.000310
H212	H	0.367734	0.562632	0.333024
H213	H	0.701068	0.895965	0.666357
H214	H	0.740935	0.212096	0.224245
H215	H	1.074268	0.545429	0.557579
H216	H	1.407602	0.878763	0.890912
H217	H	0.182375	-0.027761	-0.000273
H218	H	0.515708	0.305572	0.333060
H219	H	0.849041	0.638906	0.666393
H220	H	0.736484	-0.491903	-0.000237
H221	H	1.069817	-0.158570	0.333096
H222	H	1.403151	0.174764	0.666429
H223	H	0.734649	0.219663	0.382821
H224	H	1.067982	0.552996	0.716155
H225	H	1.401315	0.886330	1.049488
H226	H	0.706495	-0.116159	-0.000213
H227	H	1.039828	0.217174	0.333120
H228	H	1.373161	0.550507	0.666453
H229	H	0.954714	-0.674951	-0.000282
H230	H	1.288047	-0.341618	0.333051
H231	H	1.621381	-0.008284	0.666384
H232	H	0.626816	-0.020410	-0.000166
H233	H	0.960149	0.312923	0.333167
H234	H	1.293482	0.646256	0.666500
H235	H	0.695866	-0.264504	-0.000219
H236	H	1.029200	0.068829	0.333114
H237	H	1.362533	0.402163	0.666448
H238	H	0.924725	-0.299207	-0.000267
H239	H	1.258058	0.034127	0.333066
H240	H	1.591392	0.367460	0.666400
H241	H	0.758814	0.190702	0.775328
H242	H	1.092147	0.524035	1.108661
H243	H	1.425481	0.857369	1.441995
H244	H	0.725852	-0.640233	-0.000216
H245	H	1.059185	-0.306899	0.333117
H246	H	1.392518	0.026434	0.666450
H247	H	0.478839	0.236651	-0.000223
H248	H	0.812172	0.569984	0.333110
H249	H	1.145506	0.903318	0.666444
H250	H	0.050136	-0.029950	-0.000354
H251	H	0.383469	0.303383	0.332979
H252	H	0.716803	0.636717	0.666313
