data_functionalizedCrystal
_audit_creation_method	'MofGen! by Chris Wilmer'
_symmetry_space_group_name_H-M	'P1'
_symmetry_Int_Tables_number	1
_symmetry_cell_setting	triclinic
loop_
_symmetry_equiv_pos_as_xyz
  x,y,z
_cell_length_a	19.805407
_cell_length_b	16.120444
_cell_length_c	19.805399
_cell_angle_alpha	92.871785
_cell_angle_beta	89.975799
_cell_angle_gamma	92.926126
loop_
_atom_site_label
_atom_site_type_symbol
_atom_site_fract_x
_atom_site_fract_y
_atom_site_fract_z
Zn1	Zn	1.021070	-0.331945	-0.396464
Zn2	Zn	1.354403	0.001388	-0.063130
Zn3	Zn	1.687736	0.334721	0.270203
Zn4	Zn	1.015245	-0.471364	-0.289013
Zn5	Zn	1.348578	-0.138031	0.044320
Zn6	Zn	1.681911	0.195302	0.377654
Zn7	Zn	0.907883	-0.331966	-0.283280
Zn8	Zn	1.241217	0.001367	0.050053
Zn9	Zn	1.574550	0.334700	0.383387
Zn10	Zn	0.902110	-0.471318	-0.402149
Zn11	Zn	1.235443	-0.137985	-0.068815
Zn12	Zn	1.568777	0.195349	0.264518
O13	O	0.961577	-0.401649	-0.342726
O14	O	1.294910	-0.068315	-0.009393
O15	O	1.628244	0.265018	0.323940
O16	O	1.115013	-0.350450	-0.382230
O17	O	1.448346	-0.017117	-0.048897
O18	O	1.781680	0.316217	0.284436
O19	O	1.000982	-0.452901	-0.193537
O20	O	1.334315	-0.119568	0.139796
O21	O	1.667648	0.213766	0.473130
O22	O	0.927752	-0.215297	-0.293516
O23	O	1.261085	0.118036	0.039818
O24	O	1.594419	0.451369	0.373151
O25	O	1.110734	-0.452880	-0.303287
O26	O	1.444067	-0.119547	0.030047
O27	O	1.777400	0.213786	0.363380
O28	O	1.010909	-0.215282	-0.376671
O29	O	1.344243	0.118052	-0.043338
O30	O	1.677576	0.451385	0.289995
O31	O	0.922104	-0.350486	-0.189325
O32	O	1.255437	-0.017153	0.144008
O33	O	1.588770	0.316181	0.477342
O34	O	0.812401	-0.350441	-0.299028
O35	O	1.145735	-0.017108	0.034305
O36	O	1.479068	0.316225	0.367639
O37	O	0.917912	-0.452802	-0.496110
O38	O	1.251245	-0.119468	-0.162777
O39	O	1.584578	0.213865	0.170557
O40	O	0.808160	-0.452822	-0.386360
O41	O	1.141493	-0.119489	-0.053027
O42	O	1.474826	0.213844	0.280306
O43	O	1.005311	-0.350405	-0.491933
O44	O	1.338644	-0.017072	-0.158600
O45	O	1.671978	0.316261	0.174733
O46	O	0.995383	-0.588025	-0.308799
O47	O	1.328717	-0.254691	0.024534
O48	O	1.662050	0.078642	0.357868
O49	O	0.912264	-0.587991	-0.391919
O50	O	1.245597	-0.254657	-0.058586
O51	O	1.578930	0.078676	0.274747
C52	C	0.785722	-0.401630	-0.342689
C53	C	1.119055	-0.068296	-0.009356
C54	C	1.452388	0.265037	0.323977
C55	C	0.710489	-0.401642	-0.342691
C56	C	1.043823	-0.068308	-0.009357
C57	C	1.377156	0.265025	0.323976
C58	C	0.246503	-0.455059	-0.388180
C59	C	0.579836	-0.121725	-0.054846
C60	C	0.913170	0.211608	0.278487
C61	C	0.317191	-0.455057	-0.388165
C62	C	0.650525	-0.121724	-0.054832
C63	C	0.983858	0.211610	0.278501
C64	C	0.354726	-0.401669	-0.342754
C65	C	0.688060	-0.068335	-0.009420
C66	C	1.021393	0.264998	0.323913
C67	C	0.321569	-0.348284	-0.297349
C68	C	0.654903	-0.014951	0.035985
C69	C	0.988236	0.318383	0.369318
C70	C	0.250882	-0.348290	-0.297360
C71	C	0.584215	-0.014957	0.035973
C72	C	0.917548	0.318376	0.369306
C73	C	0.606644	-0.348259	-0.297300
C74	C	0.939977	-0.014925	0.036033
C75	C	1.273310	0.318408	0.369367
C76	C	0.677336	-0.348255	-0.297293
C77	C	1.010669	-0.014921	0.036040
C78	C	1.344002	0.318412	0.369373
C79	C	0.672953	-0.455025	-0.388105
C80	C	1.006286	-0.121692	-0.054772
C81	C	1.339620	0.211641	0.278562
C82	C	0.602266	-0.455032	-0.388117
C83	C	0.935599	-0.121698	-0.054783
C84	C	1.268932	0.211635	0.278550
C85	C	0.569115	-0.401651	-0.342710
C86	C	0.902448	-0.068317	-0.009376
C87	C	1.235781	0.265016	0.323957
C88	C	0.492466	-0.401654	-0.342725
C89	C	0.825799	-0.068320	-0.009392
C90	C	1.159133	0.265013	0.323942
C91	C	0.431374	-0.401661	-0.342741
C92	C	0.764707	-0.068327	-0.009408
C93	C	1.098041	0.265006	0.323926
C94	C	0.952583	-0.618258	-0.351613
C95	C	1.285916	-0.284925	-0.018280
C96	C	1.619250	0.048409	0.315054
C97	C	0.948797	-0.710924	-0.355437
C98	C	1.282131	-0.377591	-0.022104
C99	C	1.615464	-0.044258	0.311229
C100	C	0.981381	-0.921864	-0.323033
C101	C	1.314714	-0.588531	0.010300
C102	C	1.648048	-0.255198	0.343634
C103	C	0.941898	-0.880582	-0.362427
C104	C	1.275232	-0.547248	-0.029093
C105	C	1.608565	-0.213915	0.304240
C106	C	0.945738	-0.786175	-0.358537
C107	C	1.279071	-0.452842	-0.025203
C108	C	1.612405	-0.119509	0.308130
C109	C	0.977542	-1.016279	-0.326922
C110	C	1.310875	-0.682946	0.006411
C111	C	1.644209	-0.349612	0.339745
C112	C	1.138119	-0.401668	-0.342764
C113	C	1.471452	-0.068335	-0.009430
C114	C	1.804786	0.264999	0.323903
C115	C	1.213351	-0.401676	-0.342780
C116	C	1.546684	-0.068343	-0.009446
C117	C	1.880017	0.264990	0.323887
C118	C	0.961617	-0.401596	-0.519267
C119	C	1.294950	-0.068263	-0.185934
C120	C	1.628284	0.265071	0.147400
C121	C	0.961634	-0.401574	-0.594498
C122	C	1.294968	-0.068240	-0.261165
C123	C	1.628301	0.265093	0.072169
C124	C	0.970624	-0.184193	-0.333820
C125	C	1.303958	0.149140	-0.000486
C126	C	1.637291	0.482473	0.332847
C127	C	0.974480	-0.091527	-0.330024
C128	C	1.307813	0.241806	0.003309
C129	C	1.641147	0.575140	0.336642
C130	C	1.007144	-0.348253	-0.627668
C131	C	1.340477	-0.014920	-0.294335
C132	C	1.673811	0.318414	0.038998
C133	C	1.007152	-0.348229	-0.698356
C134	C	1.340485	-0.014896	-0.365023
C135	C	1.673819	0.318438	-0.031689
C136	C	0.961653	-0.401530	-0.735872
C137	C	1.294986	-0.068197	-0.402539
C138	C	1.628319	0.265137	-0.069205
C139	C	0.916138	-0.454853	-0.702697
C140	C	1.249471	-0.121520	-0.369363
C141	C	1.582805	0.211814	-0.036030
C142	C	0.916127	-0.454872	-0.632010
C143	C	1.249461	-0.121539	-0.298677
C144	C	1.582794	0.211794	0.034656
C145	C	0.916179	-0.454775	-0.987767
C146	C	1.249513	-0.121442	-0.654434
C147	C	1.582846	0.211891	-0.321100
C148	C	0.916195	-0.454754	-1.058458
C149	C	1.249528	-0.121420	-0.725125
C150	C	1.582862	0.211913	-0.391792
C151	C	1.007204	-0.348132	-1.054113
C152	C	1.340537	-0.014798	-0.720779
C153	C	1.673871	0.318535	-0.387446
C154	C	1.007193	-0.348151	-0.983426
C155	C	1.340527	-0.014818	-0.650093
C156	C	1.673860	0.318515	-0.316759
C157	C	0.961677	-0.401471	-0.950257
C158	C	1.295010	-0.068137	-0.616924
C159	C	1.628343	0.265196	-0.283590
C160	C	0.961668	-0.401495	-0.873610
C161	C	1.295001	-0.068162	-0.540276
C162	C	1.628334	0.265172	-0.206943
C163	C	0.961664	-0.401510	-0.812518
C164	C	1.294998	-0.068177	-0.479185
C165	C	1.628331	0.265156	-0.145852
C166	C	0.961578	-0.401641	-0.166870
C167	C	1.294912	-0.068307	0.166463
C168	C	1.628245	0.265026	0.499797
C169	C	0.961702	-0.401428	-0.091630
C170	C	1.295035	-0.068095	0.241704
C171	C	1.628369	0.265238	0.575037
H172	H	0.223890	-0.304819	-0.260393
H173	H	0.557224	0.028515	0.072941
H174	H	0.890557	0.361848	0.406274
H175	H	0.879090	-0.498249	-0.733248
H176	H	1.212423	-0.164915	-0.399915
H177	H	1.545756	0.168418	-0.066581
Cl178	Cl	0.858959	-0.521806	-0.946078
Cl179	Cl	1.192292	-0.188473	-0.612745
Cl180	Cl	1.525625	0.144861	-0.279411
Cl181	Cl	1.038017	-0.866968	-0.266453
Cl182	Cl	1.371350	-0.533635	0.066881
Cl183	Cl	1.704683	-0.200302	0.400214
H184	H	0.879062	-0.498283	-0.605004
H185	H	1.212395	-0.164950	-0.271671
H186	H	1.545729	0.168384	0.061663
Cl187	Cl	1.064350	-0.281246	-0.580512
Cl188	Cl	1.397683	0.052087	-0.247179
Cl189	Cl	1.731016	0.385421	0.086154
H190	H	0.352136	-0.304818	-0.260371
H191	H	0.685469	0.028515	0.072963
H192	H	1.018802	0.361849	0.406296
Cl193	Cl	0.564977	-0.281141	-0.240224
Cl194	Cl	0.898311	0.052192	0.093110
Cl195	Cl	1.231644	0.385525	0.426443
Cl196	Cl	0.885254	-0.935477	-0.419006
Cl197	Cl	1.218588	-0.602143	-0.085673
Cl198	Cl	1.551921	-0.268810	0.247661
H199	H	0.215947	-0.498529	-0.425163
H200	H	0.549280	-0.165196	-0.091829
H201	H	0.882613	0.168137	0.241504
Cl202	Cl	1.064396	-0.281231	-0.740054
Cl203	Cl	1.397729	0.052102	-0.406721
Cl204	Cl	1.731062	0.385436	-0.073388
H205	H	0.344181	-0.498528	-0.425133
H206	H	0.677514	-0.165195	-0.091800
H207	H	1.010847	0.168138	0.241534
H208	H	1.044246	-0.304751	-0.952884
H209	H	1.377579	0.028583	-0.619551
H210	H	1.710912	0.361916	-0.286217
H211	H	1.044264	-0.304714	-1.081127
H212	H	1.377597	0.028620	-0.747794
H213	H	1.710930	0.361953	-0.414460
H214	H	0.571708	-0.498503	-0.425098
H215	H	0.905041	-0.165170	-0.091765
H216	H	1.238375	0.168164	0.241569
H217	H	0.879141	-0.498159	-1.089002
H218	H	1.212474	-0.164826	-0.755669
H219	H	1.545808	0.168507	-0.422336
H220	H	0.699953	-0.498493	-0.425076
H221	H	1.033286	-0.165160	-0.091743
H222	H	1.366620	0.168173	0.241591
H223	H	0.707895	-0.304776	-0.260312
H224	H	1.041229	0.028558	0.073021
H225	H	1.374562	0.361891	0.406355
