data_functionalizedCrystal
_audit_creation_method	'MofGen! by Chris Wilmer'
_symmetry_space_group_name_H-M	'P1'
_symmetry_Int_Tables_number	1
_symmetry_cell_setting	triclinic
loop_
_symmetry_equiv_pos_as_xyz
  x,y,z
_cell_length_a	14.628931
_cell_length_b	14.628931
_cell_length_c	14.628931
_cell_angle_alpha	90.000118
_cell_angle_beta	60.000028
_cell_angle_gamma	60.000000
loop_
_atom_site_label
_atom_site_type_symbol
_atom_site_fract_x
_atom_site_fract_y
_atom_site_fract_z
Zr1	Zr	1.000580	0.880616	-0.119961
O2	O	1.191286	0.734655	-0.265922
O3	O	0.809874	0.925361	-0.075216
O4	O	1.000580	0.925361	-0.265921
O5	O	1.000581	0.734655	0.075215
O6	O	1.000580	1.075793	-0.265921
O7	O	1.000580	0.734655	-0.075216
O8	O	0.659443	1.075793	0.075217
O9	O	1.341718	0.734655	-0.265922
O10	O	0.888315	1.056710	-0.056132
O11	O	0.888315	0.944444	0.056133
O12	O	1.112846	0.944444	-0.168399
O13	O	1.112846	0.832178	-0.056133
Zr14	Zr	1.000581	1.120537	0.119961
Zr15	Zr	1.000580	1.120537	-0.119960
Zr16	Zr	1.000581	0.880615	0.119960
Zr17	Zr	1.240502	0.880615	-0.119961
Zr18	Zr	0.760659	1.120537	0.119961
O19	O	1.191287	1.075792	0.075216
O20	O	1.191286	1.075792	-0.265921
O21	O	1.191287	0.734654	0.075215
O22	O	0.809875	1.266498	0.265922
O23	O	0.809874	1.266498	-0.075215
O24	O	0.809875	0.925360	0.265921
O25	O	1.000580	1.266498	-0.075215
O26	O	1.000581	1.075792	0.265921
O27	O	1.000581	0.925360	0.265921
O28	O	1.000581	1.266498	0.075216
O29	O	1.341718	0.925360	-0.265922
O30	O	0.659443	1.075793	0.265922
O31	O	0.659443	1.266498	0.265922
O32	O	0.659443	1.266499	0.075217
O33	O	1.341719	0.734654	-0.075217
O34	O	1.341719	0.925360	-0.075217
O35	O	0.888315	1.056709	0.168399
O36	O	0.888315	1.168975	0.056133
O37	O	1.112846	1.056709	-0.056133
O38	O	1.112847	0.944443	0.056132
C39	C	0.700475	1.000577	0.000001
C40	C	0.598622	1.000577	0.000001
C41	C	0.631972	0.921818	-0.078759
C42	C	0.526703	0.921816	-0.078760
C43	C	1.000581	0.700471	-0.000001
C44	C	1.000581	0.598618	-0.000001
C45	C	1.000580	0.447944	-0.078758
C46	C	1.000580	0.553214	-0.078760
C47	C	1.300686	1.000576	-0.000001
C48	C	1.402540	1.000576	-0.000001
C49	C	1.000580	1.000577	-0.300105
C50	C	1.000579	1.000577	-0.401958
C51	C	1.000581	1.300682	0.000001
C52	C	1.000581	1.402535	0.000001
C53	C	1.111962	0.944886	-0.503058
C54	C	1.111964	0.944884	-0.608330
C55	C	1.000581	1.000576	0.300105
C56	C	1.000582	1.000576	0.401958
C57	C	0.700475	1.300682	0.000001
C58	C	0.598622	1.402535	0.000002
C59	C	0.700476	1.000577	0.300105
C60	C	0.598623	1.000577	0.401958
C61	C	0.700476	1.300682	0.300106
C62	C	0.598623	1.402535	0.401959
C63	C	1.300686	0.700471	-0.300106
C64	C	1.402538	0.598618	-0.401959
C65	C	1.300686	0.700471	-0.000001
C66	C	1.402540	0.598617	-0.000002
C67	C	1.300686	1.000576	-0.300105
C68	C	1.402538	1.000576	-0.401958
C69	C	0.553212	1.392253	-0.055690
C70	C	0.447941	1.497523	-0.055690
C71	C	0.553214	1.056268	0.503059
C72	C	0.447943	1.056269	0.608331
C73	C	0.553213	1.503636	0.391677
C74	C	0.447943	1.608907	0.496947
H75	H	0.555081	0.854385	-0.146187
H76	H	0.441578	0.952902	0.511317
O77	O	1.225700	0.888179	-0.711818
C78	C	1.232599	0.963459	-0.770648
H79	H	1.166136	1.051725	-0.708518
H80	H	1.336259	0.938061	-0.823657
H81	H	1.200981	0.961464	-0.827340
O82	O	0.471572	1.080884	0.080537
C83	C	0.411315	1.030089	0.141082
H84	H	0.487210	0.944179	0.133004
H85	H	0.336833	1.084698	0.233072
H86	H	0.361176	1.020318	0.106133
O87	O	0.599533	1.514010	0.288240
C88	C	0.497414	1.572933	0.275950
H89	H	0.401690	1.625908	0.362086
H90	H	0.511929	1.629662	0.225412
H91	H	0.496046	1.510879	0.230414
H92	H	1.000587	0.408885	-0.146191
H93	H	1.207319	0.897212	-0.511679
O94	O	0.552240	1.392183	0.505406
C95	C	0.654309	1.333164	0.517747
H96	H	0.735716	1.341056	0.457107
H97	H	0.617758	1.369626	0.607255
H98	H	0.691986	1.241090	0.498859
H99	H	0.408886	1.488894	-0.103366
H100	H	0.441574	1.607255	0.047691
O101	O	0.448933	1.495243	0.608555
C102	C	0.386295	1.506126	0.722998
H103	H	0.289262	1.591494	0.774129
H104	H	0.369881	1.437439	0.736238
H105	H	0.449091	1.498244	0.751170
O106	O	0.368504	1.081169	0.080423
C107	C	0.294763	1.187296	0.075176
H108	H	0.248727	1.182383	0.033134
H109	H	0.215762	1.250596	0.163522
H110	H	0.360168	1.214726	0.024632
O111	O	0.759047	0.841517	-0.159231
C112	C	0.819291	0.892304	-0.219817
H113	H	0.761557	0.982844	-0.166405
H114	H	0.921621	0.844794	-0.242281
H115	H	0.823412	0.890341	-0.299753
O116	O	0.552249	0.943508	0.391595
C117	C	0.654327	0.829102	0.332572
H118	H	0.735727	0.808339	0.340473
H119	H	0.617784	0.776136	0.369021
H120	H	0.692012	0.810317	0.240496
O121	O	0.599935	1.112996	0.513407
C122	C	0.655329	1.069938	0.572421
H123	H	0.683976	0.980642	0.564533
H124	H	0.744755	1.070016	0.535954
H125	H	0.582051	1.124337	0.664495
H126	H	0.408888	1.695637	0.488317
O127	O	0.552235	1.505981	0.056743
C128	C	0.654300	1.518327	0.013700
H129	H	0.735708	1.457694	-0.075603
H130	H	0.617743	1.607838	0.013798
H131	H	0.691979	1.499434	0.068095
O132	O	0.886888	1.057296	-0.494524
C133	C	0.879961	0.982002	-0.435720
H134	H	0.981752	0.904859	-0.472368
H135	H	0.830469	1.024451	-0.343634
H136	H	0.822063	0.955814	-0.443608
O137	O	1.000405	0.599981	-0.159061
C138	C	0.889029	0.711012	-0.108273
H139	H	0.851904	0.743821	-0.017735
H140	H	0.914069	0.765833	-0.155786
H141	H	0.811053	0.713167	-0.110229
H142	H	0.905222	1.048259	-0.393337
O143	O	1.000811	0.551889	0.080311
C144	C	1.112151	0.440838	0.029518
H145	H	1.189982	0.430821	-0.056393
H146	H	1.149532	0.420969	0.084127
H147	H	1.086973	0.380926	0.019751
H148	H	0.592275	1.305517	-0.103373
O149	O	0.401264	1.113054	0.711878
C150	C	0.306535	1.100429	0.793934
H151	H	0.322335	1.021271	0.756538
H152	H	0.314238	1.093681	0.867766
H153	H	0.206433	1.176124	0.823852
O154	O	1.000418	0.449100	0.080588
C155	C	0.889048	0.481485	0.186718
H156	H	0.851912	0.430542	0.181809
H157	H	0.914102	0.465777	0.250012
H158	H	0.811076	0.574322	0.214152
