data_functionalizedCrystal
_audit_creation_method	'MofGen! by Chris Wilmer'
_symmetry_space_group_name_H-M	'P1'
_symmetry_Int_Tables_number	1
_symmetry_cell_setting	triclinic
loop_
_symmetry_equiv_pos_as_xyz
  x,y,z
_cell_length_a	17.640280
_cell_length_b	18.215407
_cell_length_c	18.215399
_cell_angle_alpha	90.018561
_cell_angle_beta	78.775397
_cell_angle_gamma	101.207578
loop_
_atom_site_label
_atom_site_type_symbol
_atom_site_fract_x
_atom_site_fract_y
_atom_site_fract_z
Zn1	Zn	-0.314854	-1.184402	-0.356900
Zn2	Zn	0.185146	-0.684402	0.143100
Zn3	Zn	-0.447036	-1.209218	-0.208984
Zn4	Zn	0.052964	-0.709218	0.291016
Zn5	Zn	-0.314860	-1.061336	-0.233849
Zn6	Zn	0.185140	-0.561336	0.266151
Zn7	Zn	-0.446972	-1.086196	-0.332024
Zn8	Zn	0.053028	-0.586196	0.167976
O9	O	-0.380930	-1.135288	-0.282939
O10	O	0.119070	-0.635288	0.217061
O11	O	-0.332413	-1.290683	-0.337283
O12	O	0.167587	-0.790683	0.162717
O13	O	-0.429531	-1.189583	-0.109293
O14	O	0.070469	-0.689583	0.390707
O15	O	-0.204252	-1.056871	-0.270989
O16	O	0.295748	-0.556871	0.229011
O17	O	-0.429526	-1.308915	-0.228610
O18	O	0.070474	-0.808915	0.271390
O19	O	-0.204248	-1.147287	-0.361394
O20	O	0.295752	-0.647287	0.138606
O21	O	-0.332423	-1.080934	-0.127561
O22	O	0.167577	-0.580934	0.372439
O23	O	-0.332360	-0.961645	-0.246867
O24	O	0.167640	-0.461645	0.253133
O25	O	-0.429417	-1.099242	-0.438314
O26	O	0.070583	-0.599242	0.061686
O27	O	-0.429422	-0.979909	-0.318996
O28	O	0.070578	-0.479909	0.181004
O29	O	-0.332351	-1.171393	-0.456590
O30	O	0.167649	-0.671393	0.043410
O31	O	-0.557635	-1.213689	-0.204489
O32	O	-0.057635	-0.713689	0.295511
O33	O	-0.557587	-1.123305	-0.294886
O34	O	-0.057587	-0.623305	0.205114
C35	C	-0.380886	-0.944073	-0.282931
C36	C	0.119114	-0.444073	0.217069
C37	C	-0.380885	-0.862274	-0.282941
C38	C	0.119115	-0.362274	0.217059
C39	C	-0.330433	-0.587739	-0.339580
C40	C	0.169567	-0.087739	0.160420
C41	C	-0.330424	-0.664596	-0.339581
C42	C	0.169576	-0.164596	0.160419
C43	C	-0.431401	-0.683573	-0.226306
C44	C	0.068599	-0.183573	0.273694
C45	C	-0.431413	-0.606718	-0.226310
C46	C	0.068587	-0.106718	0.273690
C47	C	-0.380925	-0.558802	-0.282946
C48	C	0.119075	-0.058802	0.217054
C49	C	-0.380904	-0.712514	-0.282943
C50	C	0.119096	-0.212514	0.217057
C51	C	-0.380895	-0.795846	-0.282943
C52	C	0.119105	-0.295846	0.217057
C53	C	-0.380935	-0.475465	-0.282947
C54	C	0.119065	0.024535	0.217053
C55	C	-0.586290	-1.173908	-0.244306
C56	C	-0.086290	-0.673908	0.255694
C57	C	-0.674144	-1.190496	-0.227803
C58	C	-0.174144	-0.690496	0.272197
C59	C	-0.963099	-1.009565	-0.408577
C60	C	-0.463099	-0.509565	0.091423
C61	C	-1.045651	-1.025155	-0.393047
C62	C	-0.545651	-0.525155	0.106953
C63	C	-1.045635	-1.119330	-0.299012
C64	C	-0.545635	-0.619330	0.200988
C65	C	-0.963081	-1.103751	-0.314537
C66	C	-0.463081	-0.603751	0.185463
C67	C	-0.921820	-1.048867	-0.369320
C68	C	-0.421820	-0.548867	0.130680
C69	C	-0.921802	-1.143053	-0.275280
C70	C	-0.421802	-0.643053	0.224720
C71	C	-0.839255	-1.127472	-0.290801
C72	C	-0.339255	-0.627472	0.209199
C73	C	-0.797988	-1.072590	-0.345580
C74	C	-0.297988	-0.572590	0.154420
C75	C	-0.839273	-1.033287	-0.384841
C76	C	-0.339273	-0.533287	0.115159
C77	C	-0.963065	-1.197932	-0.220493
C78	C	-0.463065	-0.697932	0.279507
C79	C	-0.921785	-1.237234	-0.181236
C80	C	-0.421785	-0.737234	0.318764
C81	C	-0.839237	-1.221658	-0.196761
C82	C	-0.339237	-0.721658	0.303239
C83	C	-0.797970	-1.166775	-0.251539
C84	C	-0.297970	-0.666775	0.248461
C85	C	-0.797952	-1.260961	-0.157499
C86	C	-0.297952	-0.760961	0.342501
C87	C	-0.715406	-1.245380	-0.173020
C88	C	-0.215406	-0.745380	0.326980
C89	C	-0.715424	-1.151195	-0.267061
C90	C	-0.215424	-0.651195	0.232939
C91	C	-0.174768	-1.096538	-0.321740
C92	C	0.325232	-0.596538	0.178260
C93	C	-0.086915	-1.080024	-0.338274
C94	C	0.413085	-0.580024	0.161726
C95	C	-0.380876	-1.135323	-0.474903
C96	C	0.119124	-0.635323	0.025097
C97	C	-0.380853	-1.135337	-0.556706
C98	C	0.119147	-0.635337	-0.056706
C99	C	-0.380963	-0.327247	-0.282947
C100	C	0.119037	0.172753	0.217053
C101	C	-0.380943	-0.409042	-0.282949
C102	C	0.119057	0.090958	0.217051
C103	C	-0.330263	-1.172914	-0.754426
C104	C	0.169737	-0.672914	-0.254426
C105	C	-0.330240	-1.172919	-0.831290
C106	C	0.169760	-0.672919	-0.331290
C107	C	-0.431320	-1.097789	-0.812246
C108	C	0.068680	-0.597789	-0.312246
C109	C	-0.431338	-1.097781	-0.735385
C110	C	0.068662	-0.597781	-0.235385
C111	C	-0.380811	-1.135348	-0.706477
C112	C	0.119189	-0.635348	-0.206477
C113	C	-0.380770	-1.135361	-0.860201
C114	C	0.119230	-0.635361	-0.360201
C115	C	-0.380745	-1.135365	-0.943540
C116	C	0.119255	-0.635365	-0.443540
C117	C	-0.380834	-1.135342	-0.623134
C118	C	0.119166	-0.635342	-0.123134
C119	C	-0.380928	-1.135285	-0.091734
C120	C	0.119072	-0.635285	0.408266
C121	C	-0.380728	-1.135371	-0.009973
C122	C	0.119272	-0.635371	0.490027
H123	H	-0.472506	-0.722595	-0.180194
H124	H	0.027494	-0.222595	0.319806
H125	H	-0.289309	-0.688152	-0.385698
H126	H	0.210691	-0.188152	0.114302
H127	H	-0.472534	-0.583159	-0.180190
H128	H	0.027466	-0.083159	0.319810
F129	F	-0.485094	-1.057813	-0.843019
F130	F	0.014906	-0.557813	-0.343019
H131	H	-0.289118	-1.203502	-0.730893
H132	H	0.210882	-0.703502	-0.230893
H133	H	-0.929503	-0.964879	-0.453193
H134	H	-0.429503	-0.464879	0.046807
H135	H	-0.472500	-1.067184	-0.696343
H136	H	0.027500	-0.567184	-0.196343
F137	F	-0.671506	-1.092787	-0.325373
F138	F	-0.171506	-0.592787	0.174627
H139	H	-0.289322	-0.548728	-0.385697
H140	H	0.210678	-0.048728	0.114303
F141	F	-0.710134	-1.056140	-0.362232
F142	F	-0.210134	-0.556140	0.137768
H143	H	-0.805677	-0.988600	-0.429456
H144	H	-0.305677	-0.488600	0.070544
H145	H	-1.079258	-0.993155	-0.425028
H146	H	-0.579258	-0.493155	0.074972
F147	F	-0.965707	-1.295644	-0.122935
F148	F	-0.465707	-0.795644	0.377065
F149	F	-1.089557	-1.177740	-0.240711
F150	F	-0.589557	-0.677740	0.259289
F151	F	-1.050919	-1.214534	-0.203996
F152	F	-0.550919	-0.714534	0.296004
F153	F	-0.841876	-1.319365	-0.099193
F154	F	-0.341876	-0.819365	0.400807
F155	F	-0.671470	-1.287204	-0.131233
F156	F	-0.171470	-0.787204	0.368767
F157	F	-0.276445	-1.212909	-0.882317
F158	F	0.223555	-0.712909	-0.382317
