data_functionalizedCrystal
_audit_creation_method	'MofGen! by Chris Wilmer'
_symmetry_space_group_name_H-M	'P1'
_symmetry_Int_Tables_number	1
_symmetry_cell_setting	triclinic
loop_
_symmetry_equiv_pos_as_xyz
  x,y,z
_cell_length_a	12.645331
_cell_length_b	19.805405
_cell_length_c	19.805399
_cell_angle_alpha	90.029301
_cell_angle_beta	89.981181
_cell_angle_gamma	89.974611
loop_
_atom_site_label
_atom_site_type_symbol
_atom_site_fract_x
_atom_site_fract_y
_atom_site_fract_z
Zn1	Zn	1.620627	0.269497	-0.382698
Zn2	Zn	1.620493	0.382686	-0.269506
Zn3	Zn	1.443353	0.269514	-0.269524
Zn4	Zn	1.443296	0.382648	-0.382655
O5	O	1.531942	0.326086	-0.326096
O6	O	1.768956	0.284521	-0.367694
O7	O	1.596963	0.367696	-0.174792
O8	O	1.466949	0.174795	-0.284562
O9	O	1.768858	0.367680	-0.284532
O10	O	1.597191	0.174783	-0.367711
O11	O	1.466819	0.284549	-0.174805
O12	O	1.294998	0.284512	-0.284520
O13	O	1.466851	0.367615	-0.477377
O14	O	1.294956	0.367631	-0.367637
O15	O	1.597135	0.284484	-0.477409
O16	O	1.596908	0.477397	-0.284490
O17	O	1.466722	0.477369	-0.367620
C18	C	1.256513	0.326070	-0.326076
C19	C	1.138683	0.326079	-0.326084
C20	C	1.531823	0.501942	-0.326063
C21	C	1.531869	0.577174	-0.326072
C22	C	1.532002	0.326044	-0.502638
C23	C	1.532027	0.326025	-0.577871
C24	C	0.971110	0.273549	-0.274084
C25	C	1.093669	0.273685	-0.273855
C26	C	1.094147	0.397380	-0.306591
C27	C	0.971549	0.397093	-0.306236
C28	C	0.971530	0.307988	-0.397777
C29	C	1.094136	0.306395	-0.397379
C30	C	1.808447	0.326103	-0.326116
C31	C	1.926278	0.326110	-0.326124
C32	C	1.532091	0.149543	-0.326143
C33	C	1.532154	0.074311	-0.326164
C34	C	1.599723	0.612510	-0.282831
C35	C	1.599768	0.683199	-0.282846
C36	C	1.531953	0.718550	-0.326099
C37	C	1.464096	0.683209	-0.369344
C38	C	1.464057	0.612521	-0.369332
C39	C	1.464253	0.968282	-0.369394
C40	C	1.464294	1.038974	-0.369401
C41	C	1.599963	1.038959	-0.282909
C42	C	1.599924	0.968272	-0.282896
C43	C	1.532072	0.932937	-0.326144
C44	C	1.532025	0.856289	-0.326128
C45	C	1.531993	0.795197	-0.326111
C46	C	1.599867	0.282737	-0.613232
C47	C	1.599878	0.282717	-0.683921
C48	C	1.532053	0.325990	-0.719246
C49	C	1.464205	0.369280	-0.683879
C50	C	1.464190	0.369296	-0.613192
C51	C	1.464265	0.369217	-0.968953
C52	C	1.464288	0.369200	-1.039645
C53	C	1.599954	0.282638	-1.039681
C54	C	1.599938	0.282654	-0.968994
C55	C	1.532087	0.325942	-0.933634
C56	C	1.532074	0.325962	-0.856985
C57	C	1.532070	0.325974	-0.795893
C58	C	1.531944	0.326080	-0.150240
C59	C	1.532124	0.325907	-0.075008
H60	H	1.123781	0.220813	-0.286073
C61	C	1.135552	0.418497	-0.236581
N62	N	1.166735	0.434398	-0.183848
C63	C	1.389695	1.077859	-0.416988
N64	N	1.333509	1.107146	-0.452828
H65	H	1.408885	0.711997	-0.404563
C66	C	0.932850	0.417847	-0.235468
N67	N	0.903707	0.433475	-0.182163
H68	H	1.655216	1.067737	-0.247697
H69	H	1.654941	0.583732	-0.247607
C70	C	1.674510	0.235098	-0.722816
N71	N	1.730726	0.199228	-0.752111
H72	H	0.941891	0.437580	-0.342487
H73	H	1.123303	0.437588	-0.343305
C74	C	1.133231	0.289869	-0.202122
N75	N	1.163027	0.302062	-0.148091
C76	C	1.389562	0.416918	-0.574295
N77	N	1.333348	0.452787	-0.544998
H78	H	1.409052	0.404439	-1.068405
C79	C	0.929814	0.238972	-0.421720
N80	N	0.898397	0.186984	-0.439746
H81	H	1.655172	0.247419	-0.940236
H82	H	1.655020	0.711966	-0.247635
C83	C	1.674579	0.235012	-1.078584
N84	N	1.730785	0.199141	-1.107885
C85	C	0.932357	0.359704	-0.450161
N86	N	0.902845	0.398658	-0.489612
H87	H	1.123251	0.253926	-0.412077
C88	C	1.389667	0.929422	-0.417002
N89	N	1.333506	0.900151	-0.452875
H90	H	1.655141	0.939492	-0.247674
C91	C	1.389413	0.573652	-0.416900
N92	N	1.333192	0.544376	-0.452731
C93	C	1.389623	0.416833	-0.930065
N94	N	1.333398	0.452698	-0.900773
H95	H	1.408977	0.404511	-0.712647
H96	H	1.655102	0.247501	-0.584476
H97	H	1.124781	0.341886	-0.438228
H98	H	0.941657	0.220518	-0.286171
H99	H	0.940264	0.285393	-0.221299
