data_functionalizedCrystal
_audit_creation_method	'MofGen! by Chris Wilmer'
_symmetry_space_group_name_H-M	'P1'
_symmetry_Int_Tables_number	1
_symmetry_cell_setting	triclinic
loop_
_symmetry_equiv_pos_as_xyz
  x,y,z
_cell_length_a	11.169417
_cell_length_b	16.959453
_cell_length_c	16.959447
_cell_angle_alpha	89.972501
_cell_angle_beta	89.985041
_cell_angle_gamma	90.021237
loop_
_atom_site_label
_atom_site_type_symbol
_atom_site_fract_x
_atom_site_fract_y
_atom_site_fract_z
Zn1	Zn	1.834828	-0.314667	-0.446851
Zn2	Zn	1.834699	-0.446852	-0.314671
Zn3	Zn	1.634130	-0.314694	-0.314695
Zn4	Zn	1.634087	-0.446811	-0.446815
O5	O	1.734436	-0.380756	-0.380758
O6	O	2.002761	-0.332208	-0.429322
O7	O	1.808057	-0.429349	-0.204063
O8	O	1.660824	-0.204080	-0.332250
O9	O	2.002666	-0.429323	-0.332210
O10	O	1.808276	-0.204060	-0.429345
O11	O	1.660700	-0.332253	-0.204080
O12	O	1.466174	-0.332213	-0.332216
O13	O	1.660752	-0.429253	-0.557431
O14	O	1.466143	-0.429279	-0.429284
O15	O	1.808235	-0.332168	-0.557457
O16	O	1.808016	-0.557457	-0.332175
O17	O	1.660628	-0.557427	-0.429261
C18	C	1.422611	-0.380745	-0.380749
C19	C	1.289211	-0.380760	-0.380764
C20	C	1.734336	-0.586122	-0.380729
C21	C	1.734403	-0.673979	-0.380743
C22	C	1.811313	-1.045386	-0.431411
C23	C	1.657895	-1.045523	-0.330223
C24	C	1.657850	-0.962977	-0.330204
C25	C	1.734537	-0.921632	-0.380791
C26	C	1.811268	-0.962832	-0.431396
C27	C	1.581112	-0.921770	-0.279606
C28	C	1.581063	-0.839220	-0.279587
C29	C	1.657757	-0.797873	-0.330170
C30	C	1.734492	-0.839078	-0.380776
C31	C	1.811179	-0.797733	-0.431363
C32	C	1.887921	-0.838937	-0.481966
C33	C	1.887962	-0.921485	-0.481979
C34	C	1.657716	-0.715324	-0.330157
C35	C	1.811134	-0.715179	-0.431348
C36	C	2.047478	-0.380767	-0.380768
C37	C	2.180878	-0.380772	-0.380772
C38	C	1.734503	-0.380703	-0.586926
C39	C	1.734532	-0.380681	-0.674783
C40	C	1.734569	-0.174588	-0.380804
C41	C	1.734626	-0.086731	-0.380824
C42	C	1.657759	-0.431219	-0.716045
C43	C	1.811325	-0.330117	-0.716075
C44	C	1.811350	-0.330091	-0.798621
C45	C	1.734577	-0.380629	-0.839882
C46	C	1.657779	-0.431193	-0.798598
C47	C	1.888137	-0.279522	-0.839911
C48	C	1.888164	-0.279494	-0.922462
C49	C	1.811397	-0.330036	-0.963725
C50	C	1.734597	-0.380603	-0.922436
C51	C	1.657824	-0.431141	-0.963698
C52	C	1.581030	-0.481712	-0.922410
C53	C	1.581012	-0.481736	-0.839862
C54	C	1.811415	-0.330013	-1.046274
C55	C	1.657844	-0.431115	-1.046252
C56	C	1.734438	-0.380751	-0.175392
C57	C	1.734642	-0.380551	-0.087536
H58	H	1.873587	-0.681521	-0.472539
Br59	Br	1.477015	-0.977884	-0.210976
Br60	Br	1.476792	-0.550356	-0.783824
Br61	Br	1.476911	-0.783307	-0.210917
Br62	Br	1.991977	-0.782816	-0.550626
Br63	Br	1.553547	-0.499851	-0.660016
H64	H	1.873824	-0.288968	-0.682474
Br65	Br	1.992246	-0.210889	-0.783910
H66	H	1.595228	-0.681780	-0.288960
Br67	Br	1.992098	-0.977409	-0.550650
H68	H	1.873930	-0.288833	-1.079887
Br69	Br	1.915465	-1.101301	-0.500078
H70	H	1.595330	-0.472273	-1.079841
Br71	Br	1.553804	-1.101635	-0.261587
H72	H	1.518515	-0.522856	-0.956016
H73	H	1.950697	-0.238317	-0.956071
