data_functionalizedCrystal
_audit_creation_method	'MofGen! by Chris Wilmer'
_symmetry_space_group_name_H-M	'P1'
_symmetry_Int_Tables_number	1
_symmetry_cell_setting	triclinic
loop_
_symmetry_equiv_pos_as_xyz
  x,y,z
_cell_length_a	16.974803
_cell_length_b	10.654559
_cell_length_c	9.130313
_cell_angle_alpha	89.999532
_cell_angle_beta	86.343055
_cell_angle_gamma	96.061060
loop_
_atom_site_label
_atom_site_type_symbol
_atom_site_fract_x
_atom_site_fract_y
_atom_site_fract_z
O1	O	-0.111087	1.666092	-0.108630
O2	O	-0.121660	1.300450	-0.107377
O3	O	-0.001326	1.493471	-0.121641
O4	O	-0.231421	1.473071	-0.094366
O5	O	-0.001329	1.493469	0.121958
O6	O	-0.121664	1.300448	0.136222
O7	O	-0.111090	1.666090	0.134969
Cu8	Cu	-0.116377	1.483268	0.157838
Cu9	Cu	-0.116373	1.483271	-0.130246
O10	O	-0.231425	1.473068	0.149233
C11	C	-0.120884	1.253663	0.014330
C12	C	-0.118557	1.114257	0.014054
C13	C	-0.045519	1.063858	0.005400
C14	C	-0.043337	0.932870	0.005130
C15	C	-0.187238	0.902690	0.022176
C16	C	-0.189419	1.033676	0.022435
C17	C	0.037562	1.081281	-0.004435
C18	C	0.039744	0.950293	-0.004704
C19	C	-0.260886	1.473843	0.030926
C20	C	-0.348676	1.476164	0.041332
C21	C	-0.389915	1.477257	-0.086566
C22	C	-0.472401	1.479453	-0.076788
C23	C	-0.513648	1.480548	0.060889
C24	C	-0.472403	1.479459	0.188797
C25	C	-0.389917	1.477272	0.179018
C26	C	-0.760344	1.487099	0.104376
C27	C	-0.842836	1.489283	0.114145
C28	C	-0.842829	1.489279	-0.151441
C29	C	-0.760342	1.487084	-0.161208
C30	C	-0.719103	1.486002	-0.033300
N31	N	-0.597963	1.482789	0.070887
N32	N	-0.634789	1.483770	-0.043300
C33	C	0.028135	1.492696	-0.003337
C34	C	0.115925	1.490376	-0.013753
C35	C	-0.111867	1.712876	0.013259
C36	C	-0.114194	1.852283	0.013525
N37	N	-0.116380	1.483276	0.360461
N38	N	-0.116365	1.483274	-0.332870
C39	C	-0.063114	1.568767	0.430799
C40	C	-0.063104	1.568764	0.584135
C41	C	-0.169633	1.397773	0.596782
C42	C	-0.169638	1.397772	0.443449
C43	C	-0.001612	1.667491	0.423499
C44	C	-0.001603	1.667487	0.576835
H45	H	0.062660	1.127314	0.097772
H46	H	-0.020872	1.758373	0.378224
H47	H	-0.356341	1.476381	0.283166
H48	H	-0.213004	1.328147	0.386180
O49	O	-0.887311	1.490458	-0.289387
H50	H	-0.878062	1.404481	-0.354151
H51	H	-0.876420	1.490137	0.226265
O52	O	-0.516890	1.480648	0.337291
H53	H	-0.474353	1.479535	0.424584
O54	O	-0.268198	1.088030	0.031747
H55	H	-0.257813	1.192650	0.030504
H56	H	-0.212994	1.328158	0.664366
H57	H	-0.356339	1.476354	-0.198678
H58	H	0.055829	1.637872	0.617574
H59	H	0.066206	0.915078	-0.113022
H60	H	-0.726777	1.486219	0.208527
O61	O	0.082765	0.912040	0.125235
H62	H	0.102089	0.997191	0.189072
O63	O	-0.516886	1.480608	-0.214733
H64	H	-0.474349	1.479455	-0.312111
O65	O	0.078883	1.640332	0.358804
H66	H	0.118294	1.627024	0.448735
H67	H	-0.244931	0.837065	0.028999
H68	H	-0.726764	1.486202	-0.273320
O69	O	-0.019556	1.795035	0.634111
H70	H	-0.028361	1.857478	0.540550
H71	H	0.068872	1.123519	-0.110086
