data_functionalizedCrystal
_audit_creation_method	'MofGen! by Chris Wilmer'
_symmetry_space_group_name_H-M	'P1'
_symmetry_Int_Tables_number	1
_symmetry_cell_setting	triclinic
loop_
_symmetry_equiv_pos_as_xyz
  x,y,z
_cell_length_a	8.559649
_cell_length_b	15.625429
_cell_length_c	7.681481
_cell_angle_alpha	66.294962
_cell_angle_beta	94.913240
_cell_angle_gamma	77.372564
loop_
_atom_site_label
_atom_site_type_symbol
_atom_site_fract_x
_atom_site_fract_y
_atom_site_fract_z
O1	O	2.106418	-0.021917	-0.132408
O2	O	1.638120	0.026665	-0.163433
O3	O	1.893764	-0.135482	-0.059898
O4	O	1.850775	0.140230	-0.235943
O5	O	1.925232	-0.155480	0.245729
O6	O	1.669589	0.006667	0.142193
O7	O	2.137887	-0.041915	0.173219
Zn8	Zn	1.908734	-0.020799	0.206231
Zn9	Zn	1.867273	0.005549	-0.196445
O10	O	1.882243	0.120232	0.069684
C11	C	1.594090	0.020347	-0.012972
C12	C	1.416012	0.031306	-0.019972
C13	C	1.910673	-0.180451	0.115240
C14	C	1.914155	-0.284650	0.181761
C15	C	1.839801	-0.572845	-0.432382
C16	C	1.843071	-0.670758	-0.369819
C17	C	1.877376	-0.692544	-0.036646
C18	C	1.874117	-0.594632	-0.099180
C19	C	1.855327	-0.534789	-0.297051
C20	C	1.889642	-0.556577	0.036151
C21	C	1.886375	-0.458672	-0.026380
C22	C	1.867581	-0.398822	-0.224242
C23	C	1.852059	-0.436884	-0.359581
C24	C	1.908420	-0.616420	0.234019
C25	C	1.923946	-0.578364	0.369351
C26	C	1.920690	-0.480460	0.306822
C27	C	1.901897	-0.420610	0.108960
C28	C	1.936212	-0.442398	0.442162
C29	C	1.932945	-0.344493	0.379631
C30	C	1.898629	-0.322705	0.046429
C31	C	2.181916	-0.035597	0.022753
C32	C	2.359993	-0.046555	0.029741
C33	C	1.865333	0.165202	-0.105459
C34	C	1.861850	0.269401	-0.171991
N35	N	1.937041	-0.038782	0.481048
N36	N	1.838979	0.023524	-0.471257
H37	H	1.883343	-0.273979	-0.114695
N38	N	1.299115	0.130725	-0.083401
H39	H	1.305731	0.174452	-0.219868
H40	H	1.184258	0.124659	-0.079450
H41	H	1.892668	-0.741280	0.124460
H42	H	1.738878	0.087120	0.412938
H43	H	1.945553	-0.313503	0.489829
H44	H	1.836773	-0.388158	-0.520705
H45	H	1.830412	-0.701735	-0.480040
N46	N	2.069667	-0.123020	0.634439
H47	H	2.019050	-0.165403	0.738010
H48	H	2.132059	-0.162617	0.573359
N49	N	1.476909	-0.145965	0.093206
H50	H	1.591816	-0.139966	0.089379
H51	H	1.470152	-0.189628	0.229652
H52	H	1.864903	-0.319100	-0.275152
H53	H	1.824515	-0.524119	-0.593506
H54	H	1.911063	-0.696137	0.284924
H55	H	1.939239	-0.627101	0.530457
H56	H	1.951495	-0.491134	0.603266
