data_functionalizedCrystal
_audit_creation_method	'MofGen! by Chris Wilmer'
_symmetry_space_group_name_H-M	'P1'
_symmetry_Int_Tables_number	1
_symmetry_cell_setting	triclinic
loop_
_symmetry_equiv_pos_as_xyz
  x,y,z
_cell_length_a	10.489741
_cell_length_b	23.532407
_cell_length_c	8.965430
_cell_angle_alpha	89.995773
_cell_angle_beta	89.998843
_cell_angle_gamma	83.693926
loop_
_atom_site_label
_atom_site_type_symbol
_atom_site_fract_x
_atom_site_fract_y
_atom_site_fract_z
O1	O	1.691383	0.080340	-0.123964
O2	O	1.319936	0.087881	-0.123989
O3	O	1.516860	0.001253	-0.123949
O4	O	1.494458	0.166968	-0.124005
O5	O	1.516844	0.001259	0.124130
O6	O	1.319920	0.087887	0.124090
O7	O	1.691366	0.080346	0.124115
Cu8	Cu	1.505641	0.084117	0.146754
Cu9	Cu	1.505661	0.084110	-0.146628
O10	O	1.494442	0.166974	0.124074
C11	C	1.272415	0.087315	0.000048
C12	C	1.130842	0.085611	0.000039
C13	C	1.516282	-0.019964	0.000095
C14	C	1.514566	-0.083192	0.000106
C15	C	1.064535	0.030491	0.000072
C16	C	0.971550	0.056526	-0.122250
C17	C	0.971568	0.056545	0.122337
C18	C	1.039723	0.111668	-0.122383
C19	C	1.039750	0.111679	0.122313
C20	C	0.946792	0.137754	-0.000039
C21	C	1.620344	-0.481594	0.000031
C22	C	1.618751	-0.541005	0.000020
O23	O	1.716808	-0.577100	-0.000029
N24	N	1.501680	-0.564407	0.000013
C25	C	1.386194	-0.528395	0.000003
O26	O	1.286470	-0.553755	-0.000006
C27	C	1.387789	-0.468985	0.000003
C28	C	1.504868	-0.445587	0.000025
C29	C	1.737414	-0.458195	0.000051
C30	C	1.739007	-0.398788	0.000066
C31	C	1.623530	-0.362781	0.000060
C32	C	1.506460	-0.386180	0.000039
C33	C	1.272305	-0.432974	-0.000018
C34	C	1.273909	-0.373561	-0.000018
C35	C	1.390988	-0.350162	0.000004
C36	C	1.392576	-0.290766	0.000048
N37	N	1.509648	-0.267364	0.000054
C38	C	1.625125	-0.303371	0.000060
C39	C	1.382854	-0.653160	-0.000002
C40	C	1.381258	-0.712568	0.000008
C41	C	1.613816	-0.725174	0.000023
C42	C	1.615410	-0.665765	0.000023
C43	C	1.499926	-0.629758	0.000005
C44	C	1.628461	-0.178612	0.000092
C45	C	1.630043	-0.119200	0.000112
C46	C	1.397486	-0.106599	0.000090
C47	C	1.395903	-0.166006	0.000077
C48	C	1.511401	-0.202012	0.000073
O49	O	1.294571	-0.254636	0.000090
O50	O	1.724833	-0.278003	0.000049
C51	C	1.738887	0.080912	0.000075
C52	C	1.880460	0.082616	0.000073
C53	C	1.495021	0.188191	0.000028
C54	C	1.496736	0.251419	0.000006
N55	N	1.505637	0.084121	0.353103
N56	N	1.505676	0.084101	-0.352977
C57	C	1.414538	0.124171	0.450390
C58	C	1.529652	0.135693	0.549807
C59	C	1.390572	0.072603	0.549813
C60	C	1.620808	0.095670	0.450331
C61	C	1.481652	0.032557	0.450328
C62	C	1.596850	0.044059	0.549701
H63	H	0.941318	0.033202	-0.225650
H64	H	1.293247	0.062871	0.593516
C65	C	1.080317	0.143158	-0.262227
H66	H	1.170645	0.144036	-0.261405
H67	H	1.038927	0.181145	-0.262555
H68	H	1.056441	0.123713	-0.348996
C69	C	1.146876	-0.333954	-0.000037
H70	H	1.164584	-0.295219	-0.000040
H71	H	1.098827	-0.341105	0.086462
H72	H	1.098856	-0.341098	-0.086570
H73	H	0.895860	0.183113	-0.000121
C74	C	1.701050	-0.001706	0.608255
H75	H	1.782713	0.006564	0.574006
H76	H	1.684693	-0.038232	0.572688
H77	H	1.700043	-0.001674	0.714211
C78	C	1.080651	0.143161	0.261999
H79	H	1.057601	0.123525	0.348837
H80	H	1.038718	0.181049	0.262868
H81	H	1.170886	0.144316	0.260489
H82	H	0.941358	0.033215	0.225751
H83	H	1.725387	-0.100152	0.000134
C84	C	1.755505	-0.218210	0.000100
H85	H	1.825446	-0.195759	0.000128
H86	H	1.759741	-0.241646	-0.086411
H87	H	1.759712	-0.241650	0.086621
H88	H	1.834344	-0.379743	0.000077
H89	H	1.461303	-0.011027	0.406598
C90	C	1.864450	-0.497795	0.000070
H91	H	1.934389	-0.475342	0.000094
H92	H	1.868691	-0.521234	-0.086434
H93	H	1.868657	-0.521231	0.086598
H94	H	1.710746	-0.646718	0.000040
H95	H	1.337569	0.158070	0.406786
C96	C	1.752309	0.108895	0.391559
H97	H	1.751476	0.108843	0.285597
H98	H	1.817062	0.080611	0.426353
H99	H	1.769499	0.145403	0.426449
C100	C	1.133686	-0.030720	-0.000095
H101	H	1.110529	-0.050211	-0.087113
H102	H	1.109404	-0.050509	0.085917
H103	H	1.223810	-0.029199	0.000769
C104	C	1.740839	-0.764790	0.000001
H105	H	1.723112	-0.803522	-0.000023
H106	H	1.788888	-0.757655	0.086508
H107	H	1.788869	-0.757640	-0.086524
C108	C	1.143519	-0.458702	-0.000060
H109	H	1.159088	-0.499242	-0.000055
H110	H	1.096028	-0.446366	-0.086581
H111	H	1.095992	-0.446377	0.086451
C112	C	1.252472	-0.738300	-0.000004
H113	H	1.183933	-0.708342	-0.000016
H114	H	1.247000	-0.761219	0.086498
H115	H	1.247020	-0.761206	-0.086534
C116	C	1.557086	0.194586	0.608859
H117	H	1.492269	0.223008	0.574869
H118	H	1.638214	0.203040	0.573341
H119	H	1.557669	0.194045	0.714812
C120	C	1.267121	-0.191746	0.000050
H121	H	1.198576	-0.161790	0.000038
H122	H	1.261646	-0.214670	0.086543
H123	H	1.261681	-0.214649	-0.086490
H124	H	1.303468	-0.077271	0.000090
C125	C	1.255812	-0.613556	0.000006
H126	H	1.185869	-0.636007	0.000016
H127	H	1.251591	-0.590113	-0.086500
H128	H	1.251594	-0.590124	0.086532
