data_functionalizedCrystal
_audit_creation_method	'MofGen! by Chris Wilmer'
_symmetry_space_group_name_H-M	'P1'
_symmetry_Int_Tables_number	1
_symmetry_cell_setting	triclinic
loop_
_symmetry_equiv_pos_as_xyz
  x,y,z
_cell_length_a	23.532407
_cell_length_b	22.010155
_cell_length_c	10.654545
_cell_angle_alpha	89.986727
_cell_angle_beta	83.667052
_cell_angle_gamma	89.996412
loop_
_atom_site_label
_atom_site_type_symbol
_atom_site_fract_x
_atom_site_fract_y
_atom_site_fract_z
O1	O	0.756252	0.050446	0.152410
O2	O	0.590533	0.050464	0.174467
O3	O	0.677202	0.050454	-0.019421
O4	O	0.669583	0.050456	0.346298
O5	O	0.677196	-0.050596	-0.019371
O6	O	0.590527	-0.050587	0.174518
O7	O	0.756246	-0.050604	0.152461
Cu8	Cu	0.673386	-0.059822	0.163494
Cu9	Cu	0.673393	0.059682	0.163434
O10	O	0.669577	-0.050594	0.346349
C11	C	0.569310	-0.000059	0.173931
C12	C	0.506082	-0.000052	0.172242
N13	N	0.673385	-0.143874	0.163535
C14	C	0.676640	-0.000070	-0.066176
C15	C	0.674965	-0.000066	-0.205566
C16	C	0.107658	-0.000079	0.276389
C17	C	0.048247	-0.000083	0.274820
O18	O	0.012132	-0.000105	0.371366
N19	N	0.024870	-0.000083	0.159554
C20	C	0.060906	-0.000085	0.045849
O21	O	0.035567	-0.000085	-0.052339
C22	C	0.120316	-0.000085	0.047419
C23	C	0.143689	-0.000080	0.162693
C24	C	0.131032	-0.000074	0.391654
C25	C	0.190438	-0.000070	0.393222
C26	C	0.226470	-0.000070	0.279525
C27	C	0.203096	-0.000075	0.164261
C28	C	0.156351	-0.000092	-0.066285
C29	C	0.215764	-0.000093	-0.064705
C30	C	0.239138	-0.000087	0.050569
C31	C	0.298534	-0.000070	0.052133
N32	N	0.321911	-0.000070	0.167399
C33	C	0.285880	-0.000070	0.281096
C34	C	-0.063858	-0.000084	0.042560
C35	C	-0.123266	-0.000079	0.040989
C36	C	-0.135921	-0.000079	0.269961
C37	C	-0.076512	-0.000080	0.271531
C38	C	-0.040480	-0.000085	0.157827
C39	C	0.410638	-0.000060	0.284380
C40	C	0.470050	-0.000052	0.285938
C41	C	0.482700	-0.000056	0.056967
C42	C	0.423293	-0.000060	0.055408
C43	C	0.387263	-0.000064	0.169125
O44	O	0.334684	-0.000051	-0.044362
O45	O	0.311227	-0.000078	0.379267
C46	C	0.777469	-0.000080	0.152997
C47	C	0.840697	-0.000082	0.154686
C48	C	0.634994	-0.436482	0.249289
C49	C	0.634993	-0.372875	0.249301
O50	O	0.602335	-0.339980	0.322263
N51	N	0.673381	-0.341059	0.163488
C52	C	0.711768	-0.372854	0.077649
O53	O	0.744420	-0.339951	0.004659
C54	C	0.711766	-0.436460	0.077633
C55	C	0.673380	-0.468273	0.163460
C56	C	0.596610	-0.468295	0.335108
C57	C	0.596613	-0.531898	0.335098
C58	C	0.634999	-0.563689	0.249269
C59	C	0.673382	-0.531876	0.163450
C60	C	0.750151	-0.468254	-0.008210
C61	C	0.750146	-0.531865	-0.008220
C62	C	0.711759	-0.563677	0.077607
C63	C	0.711771	-0.627270	0.077611
N64	N	0.673383	-0.659086	0.163424
C65	C	0.634997	-0.627295	0.249253
C66	C	0.711768	-0.239276	0.077689
C67	C	0.711773	-0.175671	0.077710
C68	C	0.634997	-0.175696	0.249360
C69	C	0.634995	-0.239302	0.249344
C70	C	0.673381	-0.271092	0.163502
C71	C	0.635005	-0.760866	0.249226
C72	C	0.635012	-0.824475	0.249212
C73	C	0.711786	-0.824444	0.077558
C74	C	0.711781	-0.760841	0.077576
C75	C	0.673386	-0.729054	0.163415
O76	O	0.744410	-0.660205	0.004682
O77	O	0.602346	-0.660205	0.322220
N78	N	0.673398	0.143734	0.163382
C79	C	0.674979	0.110102	-0.205631
C80	C	0.674201	0.165186	-0.271148
C81	C	0.672628	0.165187	-0.402117
C82	C	0.671831	0.110098	-0.467571
C83	C	0.672609	0.055014	-0.402054
C84	C	0.674183	0.055019	-0.271082
C85	C	0.672591	-0.055153	-0.401989
C86	C	0.674168	-0.055155	-0.271021
C87	C	0.671794	-0.110242	-0.467443
C88	C	0.672576	-0.165327	-0.401927
C89	C	0.674150	-0.165326	-0.270950
C90	C	0.674946	-0.110239	-0.205504
C91	C	0.670139	-0.000069	0.393104
C92	C	0.671814	-0.000069	0.532494
H93	H	0.381308	-0.000065	0.376980
H94	H	0.603753	-0.850375	0.319107
H95	H	-0.165269	-0.000082	0.362539
H96	H	0.603740	-0.149801	0.319245
N97	N	0.595781	-0.728412	0.336913
N98	N	0.561516	-0.756834	0.413525
H99	H	0.533815	-0.733914	0.475459
N100	N	0.557399	-0.564380	0.422782
N101	N	0.523133	-0.535977	0.499403
H102	H	0.495436	-0.558913	0.561334
H103	H	0.674775	-0.210182	-0.217611
H104	H	-0.142291	-0.000075	-0.052879
H105	H	0.781403	-0.557744	-0.078127
N106	N	0.132473	-0.000100	-0.184022
N107	N	0.100730	0.042488	-0.210492
H108	H	0.083866	0.042480	-0.293649
H109	H	0.674849	0.210038	-0.217840
H110	H	0.209464	-0.000065	0.487090
H111	H	0.101700	-0.000077	0.484244
N112	N	0.671827	0.221458	-0.469026
N113	N	0.672535	0.270639	-0.410579
H114	H	0.671969	0.310381	-0.457832
H115	H	0.489077	-0.000047	0.379812
N116	N	0.252560	-0.000104	-0.180867
N117	N	0.231677	-0.000112	-0.283771
H118	H	0.257663	-0.000120	-0.365812
N119	N	0.670203	0.110093	-0.601345
N120	N	0.629419	0.085508	-0.647685
H121	H	0.628265	0.085505	-0.742164
N122	N	0.750939	-0.728285	-0.010104
N123	N	0.732484	-0.692786	-0.087751
H124	H	0.760118	-0.669775	-0.149686
H125	H	-0.057485	-0.000079	0.365397
H126	H	0.743041	-0.850338	0.007680
N127	N	0.557407	-0.435829	0.422813
N128	N	0.575783	-0.400360	0.500583
H129	H	0.548096	-0.377435	0.562539
N130	N	0.676585	0.110113	-0.071850
N131	N	0.637224	0.134718	-0.001327
H132	H	0.638358	0.134727	0.093158
H133	H	0.670510	-0.110237	-0.574084
N134	N	0.750988	-0.271749	-0.009981
N135	N	0.786493	-0.307254	0.029447
H136	H	0.814189	-0.330188	-0.032472
N137	N	0.789351	-0.435759	-0.095891
N138	N	0.789352	-0.378968	-0.095894
H139	H	0.817037	-0.356019	-0.157826
N140	N	0.671772	-0.221593	-0.468786
N141	N	0.712014	-0.258484	-0.466228
H142	H	0.711447	-0.298223	-0.513451
N143	N	-0.027063	-0.000087	-0.073606
N144	N	-0.047949	-0.000088	-0.176506
H145	H	-0.021965	-0.000091	-0.258550
H146	H	0.743037	-0.149773	0.007835
N147	N	0.676547	-0.110224	-0.071721
N148	N	0.637181	-0.085617	-0.001214
H149	H	0.638310	-0.085603	0.093272
N150	N	0.595781	-0.271786	0.337020
N151	N	0.561514	-0.243386	0.413646
H152	H	0.533815	-0.266324	0.475570
H153	H	0.512048	-0.000054	-0.035602
H154	H	0.404261	-0.000056	-0.038457
