data_functionalizedCrystal
_audit_creation_method	'MofGen! by Chris Wilmer'
_symmetry_space_group_name_H-M	'P1'
_symmetry_Int_Tables_number	1
_symmetry_cell_setting	triclinic
loop_
_symmetry_equiv_pos_as_xyz
  x,y,z
_cell_length_a	13.897449
_cell_length_b	12.759400
_cell_length_c	12.759393
_cell_angle_alpha	89.968436
_cell_angle_beta	90.020530
_cell_angle_gamma	89.984036
loop_
_atom_site_label
_atom_site_type_symbol
_atom_site_fract_x
_atom_site_fract_y
_atom_site_fract_z
Zn1	Zn	1.474721	0.418168	0.594038
Zn2	Zn	1.974721	0.918168	1.094038
Zn3	Zn	1.474624	0.593887	0.418359
Zn4	Zn	1.974624	1.093887	0.918359
Zn5	Zn	1.313411	0.418227	0.418372
Zn6	Zn	1.813411	0.918227	0.918372
Zn7	Zn	1.313400	0.593810	0.593994
Zn8	Zn	1.813400	1.093810	1.093994
O9	O	1.394039	0.506023	0.506191
O10	O	1.894039	1.006023	1.006191
O11	O	1.609690	0.441486	0.570747
O12	O	2.109690	0.941486	1.070747
O13	O	1.453202	0.570642	0.271339
O14	O	1.953202	1.070642	0.771339
O15	O	1.334854	0.271198	0.441698
O16	O	1.834854	0.771198	0.941698
O17	O	1.609618	0.570586	0.441676
O18	O	2.109618	1.070586	0.941676
O19	O	1.453368	0.271155	0.570760
O20	O	1.953368	0.771155	1.070760
O21	O	1.334760	0.441585	0.271349
O22	O	1.834760	0.941585	0.771349
O23	O	1.178428	0.441510	0.441655
O24	O	1.678428	0.941510	0.941655
O25	O	1.334836	0.570454	0.741021
O26	O	1.834836	1.070454	1.241021
O27	O	1.178420	0.570510	0.570684
O28	O	1.678420	1.070510	1.070684
O29	O	1.453358	0.441411	0.741054
O30	O	1.953358	0.941411	1.241054
O31	O	1.453192	0.740898	0.441633
O32	O	1.953192	1.240898	0.941633
O33	O	1.334742	0.740841	0.570671
O34	O	1.834742	1.240841	1.070671
C35	C	1.393982	0.778991	0.506169
C36	C	1.893982	1.278991	1.006169
C37	C	1.394045	0.895767	0.506194
C38	C	1.894045	1.395767	1.006194
C39	C	1.143425	0.506009	0.506167
C40	C	1.643425	1.006009	1.006167
C41	C	1.036211	0.506028	0.506181
C42	C	1.536211	1.006028	1.006181
C43	C	1.394106	0.505917	0.780224
C44	C	1.894106	1.005917	1.280224
C45	C	1.394135	0.505872	0.897001
C46	C	1.894135	1.005872	1.397001
C47	C	0.839915	0.506032	0.506209
C48	C	1.339915	1.006032	1.006209
C49	C	0.949148	0.506027	0.506191
C50	C	1.449148	1.006027	1.006191
C51	C	1.645632	0.506038	0.506215
C52	C	2.145632	1.006038	1.006215
C53	C	1.752846	0.506044	0.506226
C54	C	2.252846	1.006044	1.006226
C55	C	1.394123	0.231990	0.506236
C56	C	1.894123	0.731990	1.006236
C57	C	1.394158	0.115213	0.506255
C58	C	1.894158	0.615213	1.006255
C59	C	1.455791	0.950624	0.439078
C60	C	1.955791	1.450624	0.939078
C61	C	1.455850	1.060348	0.439111
C62	C	1.955850	1.560348	0.939111
C63	C	1.332410	1.060349	0.573378
C64	C	1.832410	1.560349	1.073378
C65	C	1.332356	0.950627	0.573350
C66	C	1.832356	1.450627	1.073350
C67	C	1.527055	0.950624	0.361557
C68	C	2.027055	1.450624	0.861557
C69	C	1.527114	1.060348	0.361589
C70	C	2.027114	1.560348	0.861589
C71	C	1.394027	0.506053	0.233223
C72	C	1.894027	1.006053	0.733223
C73	C	1.394185	0.505802	0.116447
C74	C	1.894185	1.005802	0.616447
C75	C	1.455858	0.438673	0.951882
C76	C	1.955858	0.938673	1.451882
C77	C	1.455881	0.438635	1.061606
C78	C	1.955881	0.938635	1.561606
C79	C	1.332456	0.573004	1.061559
C80	C	1.832456	1.073004	1.561559
C81	C	1.332429	0.573036	0.951836
C82	C	1.832429	1.073036	1.451836
C83	C	1.527119	0.361099	0.951910
C84	C	2.027119	0.861099	1.451910
C85	C	1.527142	0.361061	1.061634
C86	C	2.027142	0.861061	1.561634
H87	H	1.282087	0.905963	0.628011
H88	H	1.782087	1.405963	1.128011
C89	C	1.319009	1.183640	0.714720
C90	C	1.819009	1.683640	1.214720
C91	C	1.264601	1.120657	0.647188
C92	C	1.764601	1.620657	1.147188
H93	H	1.277143	1.220874	0.760282
H94	H	1.777143	1.720874	1.260282
H95	H	1.360984	1.140763	0.754933
H96	H	1.860984	1.640763	1.254933
H97	H	1.355788	1.232011	0.674741
H98	H	1.855788	1.732011	1.174741
H99	H	1.227827	1.072280	0.687167
H100	H	1.727827	1.572280	1.187167
H101	H	1.222609	1.163538	0.606971
H102	H	1.722609	1.663538	1.106971
H103	H	1.598088	1.094291	0.390804
H104	H	2.098088	1.594291	0.890804
H105	H	1.601850	0.382852	1.091415
H106	H	2.101850	0.882852	1.591415
C107	C	1.664446	0.849379	0.308980
C108	C	2.164446	1.349379	0.808980
C109	C	1.627868	0.910305	0.391062
C110	C	2.127868	1.410305	0.891062
H111	H	1.726684	0.824494	0.327195
H112	H	2.226684	1.324494	0.827195
H113	H	1.622923	0.791532	0.296824
H114	H	2.122923	1.291532	0.796824
H115	H	1.668553	0.890800	0.247258
H116	H	2.168553	1.390800	0.747258
H117	H	1.623755	0.868881	0.452783
H118	H	2.123755	1.368881	0.952783
H119	H	1.669402	0.968161	0.403232
H120	H	2.169402	1.468161	0.903232
H121	H	1.598064	0.390266	0.917876
H122	H	2.098064	0.890266	1.417876
C123	C	1.483753	1.015384	0.185077
C124	C	1.983753	1.515384	0.685077
C125	C	1.500164	1.100673	0.251736
C126	C	2.000164	1.600673	0.751736
H127	H	1.467109	1.040281	0.117265
H128	H	1.967109	1.540281	0.617265
H129	H	1.540417	0.973983	0.180688
H130	H	2.040417	1.473983	0.680688
H131	H	1.432591	0.974056	0.212067
H132	H	1.932591	1.474056	0.712067
H133	H	1.551332	1.141997	0.224750
H134	H	2.051332	1.641997	0.724750
H135	H	1.443493	1.142091	0.256121
H136	H	1.943493	1.642091	0.756121
C137	C	1.467367	0.188190	1.025890
C138	C	1.967367	0.688190	1.525890
C139	C	1.491078	0.256695	1.107607
C140	C	1.991078	0.756695	1.607607
H141	H	1.445108	0.123761	1.054276
H142	H	1.945108	0.623761	1.554276
H143	H	1.418231	0.218601	0.983983
H144	H	1.918231	0.718601	1.483983
H145	H	1.522692	0.175736	0.984001
H146	H	2.022692	0.675736	1.484001
H147	H	1.435751	0.269156	1.149492
H148	H	1.935751	0.769156	1.649492
H149	H	1.540218	0.226278	1.149531
H150	H	2.040218	0.726278	1.649531
H151	H	1.507133	0.279735	0.922153
H152	H	2.007133	0.779735	1.422153
C153	C	1.210412	0.705827	0.962816
C154	C	1.710412	1.205827	1.462816
C155	C	1.264566	0.646886	0.891510
C156	C	1.764566	1.146886	1.391510
H157	H	1.168516	0.751421	0.925571
H158	H	1.668516	1.251421	1.425571
H159	H	1.173557	0.660028	1.005623
H160	H	1.673557	1.160028	1.505623
H161	H	1.252440	0.746018	1.005601
H162	H	1.752440	1.246018	1.505601
H163	H	1.222538	0.606689	0.848730
H164	H	1.722538	1.106689	1.348730
H165	H	1.301424	0.692691	0.848685
H166	H	1.801424	1.192691	1.348685
H167	H	1.500315	0.916678	0.284230
H168	H	2.000315	1.416678	0.784230
H169	H	1.282214	0.627684	1.106219
H170	H	1.782214	1.127684	1.606219
