data_functionalizedCrystal
_audit_creation_method	'MofGen! by Chris Wilmer'
_symmetry_space_group_name_H-M	'P1'
_symmetry_Int_Tables_number	1
_symmetry_cell_setting	triclinic
loop_
_symmetry_equiv_pos_as_xyz
  x,y,z
_cell_length_a	10.654549
_cell_length_b	9.730223
_cell_length_c	10.654550
_cell_angle_alpha	89.999877
_cell_angle_beta	84.484854
_cell_angle_gamma	90.001837
loop_
_atom_site_label
_atom_site_type_symbol
_atom_site_fract_x
_atom_site_fract_y
_atom_site_fract_z
O1	O	1.667839	0.114258	0.176388
O2	O	1.302361	0.114268	0.193195
O3	O	1.493503	0.114254	0.002052
O4	O	1.476697	0.114272	0.367531
O5	O	1.493491	-0.114326	0.002063
O6	O	1.302348	-0.114312	0.193206
O7	O	1.667827	-0.114322	0.176399
Zn8	Zn	1.485086	-0.150609	0.184804
Zn9	Zn	1.485102	0.150555	0.184790
O10	O	1.476685	-0.114308	0.367542
C11	C	1.255557	-0.000021	0.191966
C12	C	1.116113	-0.000018	0.188275
C13	C	0.905599	-0.000018	0.297338
C14	C	1.036619	-0.000010	0.300816
C15	C	1.064581	-0.000020	0.072247
C16	C	0.933563	-0.000019	0.068770
N17	N	1.485084	-0.356146	0.184813
C18	C	1.561913	-0.428083	0.261687
C19	C	1.561932	-0.571966	0.261664
C20	C	1.408281	-0.571961	0.107888
C21	C	1.408270	-0.428081	0.107906
C22	C	1.650619	-0.428087	0.350473
C23	C	1.650638	-0.571970	0.350449
C24	C	1.714631	-0.000030	0.177628
C25	C	1.854074	-0.000025	0.181319
C26	C	1.492263	-0.000035	-0.044740
C27	C	1.488571	-0.000033	-0.184183
N28	N	1.485114	0.356091	0.184771
C29	C	1.601113	-0.000036	-0.263669
C30	C	1.597636	-0.000019	-0.394690
C31	C	1.369067	-0.000003	-0.366727
C32	C	1.372544	-0.000010	-0.235708
C33	C	1.477925	-0.000016	0.414334
C34	C	1.481617	-0.000009	0.553777
H35	H	0.840882	-0.000022	0.388983
F36	F	1.717419	-0.000018	-0.479280
F37	F	1.610209	-0.623041	0.479890
F38	F	1.774279	-0.630282	0.298872
H39	H	1.129316	-0.000019	-0.019386
F40	F	1.598865	-0.369772	0.474051
H41	H	1.695589	-0.000052	-0.221722
H42	H	0.891613	-0.000020	-0.025712
H43	H	1.274601	0.000014	-0.408694
F44	F	1.252756	0.000003	-0.151108
H45	H	1.078563	-0.000003	0.395290
H46	H	1.345721	-0.369515	0.045294
H47	H	1.749670	-0.389026	0.319616
F48	F	1.326534	-0.648532	0.026043
