data_functionalizedCrystal
_audit_creation_method	'MofGen! by Chris Wilmer'
_symmetry_space_group_name_H-M	'P1'
_symmetry_Int_Tables_number	1
_symmetry_cell_setting	triclinic
loop_
_symmetry_equiv_pos_as_xyz
  x,y,z
_cell_length_a	18.050591
_cell_length_b	18.050582
_cell_length_c	18.050589
_cell_angle_alpha	90.018205
_cell_angle_beta	89.975773
_cell_angle_gamma	89.979078
loop_
_atom_site_label
_atom_site_type_symbol
_atom_site_fract_x
_atom_site_fract_y
_atom_site_fract_z
Zn1	Zn	1.135293	-0.420054	0.295786
Zn2	Zn	1.468626	-0.086721	0.629119
Zn3	Zn	1.801959	0.246613	0.962452
Zn4	Zn	1.135203	-0.295873	0.419969
Zn5	Zn	1.468537	0.037460	0.753302
Zn6	Zn	1.801870	0.370793	1.086636
Zn7	Zn	1.011112	-0.295865	0.295789
Zn8	Zn	1.344445	0.037468	0.629122
Zn9	Zn	1.677778	0.370802	0.962455
Zn10	Zn	1.011060	-0.420009	0.419930
Zn11	Zn	1.344393	-0.086676	0.753263
Zn12	Zn	1.677726	0.246658	1.086596
O13	O	1.073167	-0.357950	0.357868
O14	O	1.406500	-0.024617	0.691202
O15	O	1.739833	0.308716	1.024535
O16	O	1.239205	-0.403603	0.312274
O17	O	1.572539	-0.070270	0.645607
O18	O	1.905872	0.263063	0.978941
O19	O	1.118727	-0.191948	0.403514
O20	O	1.452060	0.141386	0.736847
O21	O	1.785393	0.474719	1.070181
O22	O	1.027644	-0.312354	0.191864
O23	O	1.360977	0.020979	0.525197
O24	O	1.694310	0.354312	0.858530
O25	O	1.239140	-0.312369	0.403511
O26	O	1.572473	0.020965	0.736844
O27	O	1.905806	0.354298	1.070178
O28	O	1.118879	-0.403595	0.191862
O29	O	1.452212	-0.070262	0.525195
O30	O	1.785545	0.263071	0.858528
O31	O	1.027557	-0.191942	0.312279
O32	O	1.360890	0.141392	0.645613
O33	O	1.694224	0.474725	0.978946
O34	O	0.907180	-0.312311	0.312241
O35	O	1.240514	0.021023	0.645574
O36	O	1.573847	0.354356	0.978908
O37	O	1.027555	-0.523940	0.403444
O38	O	1.360888	-0.190606	0.736777
O39	O	1.694222	0.142727	1.070111
O40	O	0.907142	-0.403519	0.403447
O41	O	1.240475	-0.070185	0.736780
O42	O	1.573809	0.263148	1.070114
O43	O	1.118828	-0.523973	0.312236
O44	O	1.452162	-0.190639	0.645569
O45	O	1.785495	0.142694	0.978903
O46	O	1.118676	-0.312325	0.523888
O47	O	1.452010	0.021008	0.857222
O48	O	1.785343	0.354342	1.190555
O49	O	1.027468	-0.403527	0.523860
O50	O	1.360802	-0.070193	0.857193
O51	O	1.694135	0.263140	1.190526
C52	C	0.880215	-0.357909	0.357841
C53	C	1.213548	-0.024576	0.691174
C54	C	1.546881	0.308757	1.024507
C55	C	0.797669	-0.357909	0.357847
C56	C	1.131002	-0.024576	0.691180
C57	C	1.464336	0.308757	1.024513
C58	C	1.073196	-0.551656	0.357835
C59	C	1.406529	-0.218323	0.691169
C60	C	1.739863	0.115011	1.024502
C61	C	1.073208	-0.634202	0.357821
C62	C	1.406542	-0.300868	0.691155
C63	C	1.739875	0.032465	1.024488
C64	C	0.598217	-0.308425	0.308191
C65	C	0.931551	0.024909	0.641525
C66	C	1.264884	0.358242	0.974858
C67	C	0.548798	-0.290154	0.375927
C68	C	0.882131	0.043180	0.709261
C69	C	1.215464	0.376513	1.042594
C70	C	0.646539	-0.357943	0.357869
C71	C	0.979872	-0.024610	0.691203
C72	C	1.313205	0.308724	1.024536
C73	C	0.548877	-0.376212	0.290157
C74	C	0.882210	-0.042879	0.623490
C75	C	1.215543	0.290455	0.956824
C76	C	0.500553	-0.357974	0.357885
C77	C	0.833887	-0.024641	0.691218
C78	C	1.167220	0.308693	1.024552
C79	C	0.598206	-0.339637	0.425641
C80	C	0.931539	-0.006303	0.758974
C81	C	1.264873	0.327030	1.092307
C82	C	0.598289	-0.425726	0.339825
C83	C	0.931622	-0.092393	0.673158
C84	C	1.264956	0.240940	1.006491
C85	C	0.548892	-0.407481	0.407607
C86	C	0.882225	-0.074148	0.740941
C87	C	1.215558	0.259186	1.074274
C88	C	0.730637	-0.357923	0.357859
C89	C	1.063970	-0.024590	0.691192
C90	C	1.397303	0.308744	1.024526
C91	C	0.416457	-0.357994	0.357903
C92	C	0.749790	-0.024660	0.691236
C93	C	1.083124	0.308673	1.024569
C94	C	1.023612	-0.833635	0.407353
C95	C	1.356945	-0.500301	0.740686
C96	C	1.690278	-0.166968	1.074019
C97	C	1.091367	-0.883034	0.425511
C98	C	1.424700	-0.549701	0.758844
C99	C	1.758034	-0.216368	1.092177
C100	C	1.073245	-0.785332	0.357765
C101	C	1.406578	-0.451999	0.691098
C102	C	1.739912	-0.118666	1.024431
C103	C	1.005527	-0.883014	0.339586
C104	C	1.338860	-0.549681	0.672919
C105	C	1.672194	-0.216348	1.006253
C106	C	1.073274	-0.931317	0.357711
C107	C	1.406608	-0.597984	0.691045
C108	C	1.739941	-0.264651	1.024378
C109	C	1.141036	-0.833645	0.375958
C110	C	1.474369	-0.500312	0.709292
C111	C	1.807702	-0.166978	1.042625
C112	C	1.055150	-0.833620	0.290002
C113	C	1.388483	-0.500287	0.623335
C114	C	1.721816	-0.166954	0.956669
C115	C	1.122952	-0.882998	0.308134
C116	C	1.456285	-0.549665	0.641468
C117	C	1.789619	-0.216331	0.974801
C118	C	1.073227	-0.701234	0.357797
C119	C	1.406560	-0.367901	0.691131
C120	C	1.739894	-0.034567	1.024464
C121	C	1.073300	-1.015414	0.357679
C122	C	1.406633	-0.682081	0.691012
C123	C	1.739967	-0.348747	1.024345
C124	C	1.266872	-0.357992	0.357897
C125	C	1.600206	-0.024659	0.691230
C126	C	1.933539	0.308675	1.024563
C127	C	1.349418	-0.358010	0.357909
C128	C	1.682751	-0.024676	0.691242
C129	C	2.016085	0.308657	1.024575
C130	C	1.073077	-0.357938	0.550820
C131	C	1.406410	-0.024605	0.884154
C132	C	1.739744	0.308729	1.217487
C133	C	1.073107	-0.357958	0.633366
C134	C	1.406440	-0.024624	0.966700
C135	C	1.739773	0.308709	1.300033
C136	C	1.073181	-0.164998	0.357848
C137	C	1.406514	0.168335	0.691181
C138	C	1.739847	0.501668	1.024514
C139	C	1.073312	-0.082453	0.357652
C140	C	1.406645	0.250880	0.690986
C141	C	1.739979	0.584214	1.024319
C142	C	1.073277	-0.357979	0.164163
C143	C	1.406610	-0.024646	0.497496
C144	C	1.739944	0.308688	0.830829
C145	C	1.073324	-0.357991	0.081617
C146	C	1.406657	-0.024658	0.414950
C147	C	1.739991	0.308675	0.748284
C148	C	1.023557	-0.407536	0.832828
C149	C	1.356890	-0.074202	1.166161
C150	C	1.690223	0.259131	1.499495
C151	C	1.005459	-0.339767	0.882261
C152	C	1.338792	-0.006433	1.215594
C153	C	1.672126	0.326900	1.548928
C154	C	1.073180	-0.357967	0.784497
C155	C	1.406513	-0.024634	1.117830
C156	C	1.739846	0.308699	1.451163
C157	C	1.091314	-0.425744	0.882146
C158	C	1.424647	-0.092411	1.215479
C159	C	1.757981	0.240922	1.548812
C160	C	1.073249	-0.357983	0.930482
C161	C	1.406582	-0.024649	1.263815
C162	C	1.739915	0.308684	1.597148
C163	C	1.055046	-0.290162	0.832842
C164	C	1.388380	0.043171	1.166175
C165	C	1.721713	0.376505	1.499509
C166	C	1.140933	-0.376186	0.832722
C167	C	1.474266	-0.042852	1.166056
C168	C	1.807600	0.290481	1.499389
C169	C	1.122861	-0.308370	0.882133
C170	C	1.456194	0.024964	1.215466
C171	C	1.789527	0.358297	1.548799
C172	C	1.073138	-0.357959	0.700398
C173	C	1.406471	-0.024626	1.033732
C174	C	1.739805	0.308707	1.367065
C175	C	1.073291	-0.357983	1.014578
C176	C	1.406624	-0.024649	1.347911
C177	C	1.739957	0.308684	1.681245
H178	H	0.619875	-0.266503	0.266226
H179	H	0.953209	0.066830	0.599559
H180	H	1.286542	0.400163	0.932892
H181	H	1.039807	-0.811899	0.232736
H182	H	1.373141	-0.478566	0.566069
H183	H	1.706474	-0.145232	0.899402
H184	H	0.620045	-0.483019	0.324530
H185	H	0.953378	-0.149686	0.657863
H186	H	1.286711	0.183648	0.991196
H187	H	0.527370	-0.449370	0.449673
H188	H	0.860704	-0.116037	0.783007
H189	H	1.194037	0.217296	1.116340
N190	N	0.520001	-0.214244	0.396167
N191	N	0.853335	0.119089	0.729500
N192	N	1.186668	0.452422	1.062833
H193	H	0.537587	-0.176931	0.358371
H194	H	0.870920	0.156402	0.691705
H195	H	1.204253	0.489735	1.025038
H196	H	0.464062	-0.215117	0.396923
H197	H	0.797395	0.118217	0.730257
H198	H	1.130728	0.451550	1.063590
N199	N	0.967887	-0.462975	0.804142
N200	N	1.301220	-0.129642	1.137475
N201	N	1.634554	0.203692	1.470808
H202	H	0.968588	-0.462909	0.748192
H203	H	1.301921	-0.129575	1.081525
H204	H	1.635254	0.203758	1.414859
H205	H	0.981061	-0.514013	0.822897
H206	H	1.314394	-0.180680	1.156231
H207	H	1.647727	0.152653	1.489564
H208	H	0.619785	-0.324134	0.482928
H209	H	0.953118	0.009199	0.816261
H210	H	1.286451	0.342533	1.149595
N211	N	0.929657	-0.911745	0.319244
N212	N	1.262990	-0.578412	0.652577
N213	N	1.596323	-0.245079	0.985910
H214	H	0.892198	-0.893788	0.356758
H215	H	1.225532	-0.560455	0.690092
H216	H	1.558865	-0.227122	1.023425
H217	H	0.915657	-0.892993	0.268431
H218	H	1.248990	-0.559659	0.601765
H219	H	1.582324	-0.226326	0.935098
N220	N	0.520167	-0.396667	0.214301
N221	N	0.853500	-0.063333	0.547634
N222	N	1.186834	0.270000	0.880967
H223	H	0.538109	-0.359213	0.176814
H224	H	0.871443	-0.025880	0.510147
H225	H	1.204776	0.307454	0.843480
H226	H	0.538948	-0.447504	0.200343
H227	H	0.872281	-0.114170	0.533676
H228	H	1.205615	0.219163	0.867010
H229	H	0.948195	-0.324371	0.904037
H230	H	1.281528	0.008962	1.237370
H231	H	1.614861	0.342295	1.570704
N232	N	1.034681	-0.214222	0.804283
N233	N	1.368014	0.119111	1.137616
N234	N	1.701348	0.452445	1.470949
H235	H	1.034759	-0.214690	0.748331
H236	H	1.368092	0.118644	1.081664
H237	H	1.701425	0.451977	1.414998
H238	H	0.983708	-0.200399	0.822795
H239	H	1.317041	0.132934	1.156128
H240	H	1.650374	0.466267	1.489461
H241	H	1.106690	-0.904739	0.482794
H242	H	1.440023	-0.571406	0.816127
H243	H	1.773357	-0.238073	1.149460
H244	H	1.164855	-0.266409	0.903645
H245	H	1.498188	0.066924	1.236979
H246	H	1.831522	0.400257	1.570312
N247	N	0.968066	-0.804916	0.462966
N248	N	1.301399	-0.471583	0.796299
N249	N	1.634732	-0.138250	1.129632
H250	H	0.981847	-0.822891	0.514120
H251	H	1.315180	-0.489558	0.847454
H252	H	1.648513	-0.156225	1.180787
H253	H	0.968139	-0.748970	0.462194
H254	H	1.301472	-0.415637	0.795527
H255	H	1.634806	-0.082304	1.128860
N256	N	1.216934	-0.805049	0.396383
N257	N	1.550268	-0.471715	0.729716
N258	N	1.883601	-0.138382	1.063049
H259	H	1.216450	-0.749097	0.396298
H260	H	1.549783	-0.415764	0.729632
H261	H	1.883116	-0.082430	1.062965
H262	H	1.230681	-0.823514	0.447369
H263	H	1.564014	-0.490181	0.780703
H264	H	1.897347	-0.156847	1.114036
H265	H	1.164986	-0.904535	0.266177
H266	H	1.498319	-0.571202	0.599510
H267	H	1.831653	-0.237869	0.932843
H268	H	1.198184	-0.391613	0.810948
H269	H	1.531518	-0.058280	1.144282
H270	H	1.864851	0.275053	1.477615
N271	N	1.111597	-0.501655	0.910841
N272	N	1.444930	-0.168322	1.244174
N273	N	1.778264	0.165011	1.577508
H274	H	1.074050	-0.539048	0.892906
H275	H	1.407383	-0.205715	1.226240
H276	H	1.740717	0.127618	1.559573
H277	H	1.162396	-0.515732	0.892042
H278	H	1.495729	-0.182398	1.225375
H279	H	1.829063	0.150935	1.558709
