data_functionalizedCrystal
_audit_creation_method	'MofGen! by Chris Wilmer'
_symmetry_space_group_name_H-M	'P1'
_symmetry_Int_Tables_number	1
_symmetry_cell_setting	triclinic
loop_
_symmetry_equiv_pos_as_xyz
  x,y,z
_cell_length_a	25.639242
_cell_length_b	16.959454
_cell_length_c	16.959447
_cell_angle_alpha	90.026818
_cell_angle_beta	89.973163
_cell_angle_gamma	89.984397
loop_
_atom_site_label
_atom_site_type_symbol
_atom_site_fract_x
_atom_site_fract_y
_atom_site_fract_z
Zn1	Zn	0.799317	0.314760	-0.447137
Zn2	Zn	0.799262	0.446952	-0.314967
Zn3	Zn	0.711886	0.314781	-0.314952
Zn4	Zn	0.711867	0.446890	-0.447082
O5	O	0.755583	0.380846	-0.381034
O6	O	0.872475	0.332312	-0.429633
O7	O	0.787656	0.429455	-0.204354
O8	O	0.723515	0.204167	-0.332503
O9	O	0.872434	0.429434	-0.332528
O10	O	0.787750	0.204152	-0.429619
O11	O	0.723462	0.332349	-0.204343
O12	O	0.638718	0.332289	-0.332450
O13	O	0.723482	0.429327	-0.557701
O14	O	0.638704	0.429348	-0.429526
O15	O	0.787731	0.332252	-0.557741
O16	O	0.787637	0.557555	-0.332476
O17	O	0.723429	0.557509	-0.429541
C18	C	0.755539	0.586212	-0.381021
C19	C	0.755568	0.674068	-0.381042
C20	C	0.619740	0.380814	-0.380981
C21	C	0.561626	0.380820	-0.380977
C22	C	0.755611	0.380780	-0.587203
C23	C	0.755623	0.380752	-0.675059
C24	C	0.201265	0.431469	-0.431534
C25	C	0.146660	0.431474	-0.431546
O26	O	0.118425	0.474499	-0.474487
N27	N	0.119344	0.380867	-0.381086
C28	C	0.146634	0.330247	-0.330616
O29	O	0.118385	0.287202	-0.287697
C30	C	0.201238	0.330239	-0.330608
C31	C	0.228551	0.380854	-0.381066
C32	C	0.228578	0.482080	-0.481989
C33	C	0.283179	0.482076	-0.481975
C34	C	0.310466	0.431461	-0.431507
C35	C	0.283152	0.380850	-0.381052
C36	C	0.228527	0.279615	-0.280142
C37	C	0.283134	0.279611	-0.280139
C38	C	0.310448	0.330226	-0.330597
C39	C	0.365039	0.330232	-0.330570
N40	N	0.392356	0.380838	-0.381030
C41	C	0.365069	0.431453	-0.431499
C42	C	0.031964	0.330267	-0.330637
C43	C	-0.022639	0.330279	-0.330640
C44	C	-0.022609	0.431505	-0.431572
C45	C	0.031994	0.431497	-0.431565
C46	C	0.059280	0.380874	-0.381097
C47	C	0.479734	0.431441	-0.431466
C48	C	0.534339	0.431435	-0.431445
C49	C	0.534305	0.330206	-0.330516
C50	C	0.479704	0.330215	-0.330533
C51	C	0.452420	0.380835	-0.381014
O52	O	0.393309	0.287227	-0.287654
O53	O	0.393325	0.474483	-0.474418
C54	C	0.891956	0.380877	-0.381089
C55	C	0.950070	0.380891	-0.381112
C56	C	0.755641	0.174677	-0.381065
C57	C	0.755666	0.086821	-0.381078
C58	C	0.722198	1.045550	-0.431571
C59	C	0.789113	1.045538	-0.330579
C60	C	0.789095	0.962992	-0.330571
C61	C	0.755627	0.921721	-0.381064
C62	C	0.722177	0.962997	-0.431563
C63	C	0.822540	0.921711	-0.280067
C64	C	0.822523	0.839160	-0.280057
C65	C	0.789057	0.797888	-0.330554
C66	C	0.755607	0.839168	-0.381056
C67	C	0.722139	0.797897	-0.431549
C68	C	0.688690	0.839176	-0.482056
C69	C	0.688712	0.921724	-0.482060
C70	C	0.789036	0.715339	-0.330549
C71	C	0.722118	0.715344	-0.431541
C72	C	0.722246	0.330110	-1.046536
C73	C	0.789092	0.431227	-1.046535
C74	C	0.789083	0.431245	-0.963989
C75	C	0.755654	0.380696	-0.922713
C76	C	0.722234	0.330129	-0.963982
C77	C	0.822498	0.481818	-0.922713
C78	C	0.822490	0.481839	-0.840162
C79	C	0.789063	0.431285	-0.798884
C80	C	0.755643	0.380715	-0.840159
C81	C	0.722214	0.330166	-0.798883
C82	C	0.688796	0.279591	-0.840156
C83	C	0.688808	0.279575	-0.922704
C84	C	0.789051	0.431301	-0.716336
C85	C	0.722203	0.330184	-0.716329
C86	C	0.755585	0.380854	-0.175668
C87	C	0.755674	0.380659	-0.087812
H88	H	0.556576	0.472655	-0.472535
C89	C	0.198494	0.223925	-0.224641
N90	N	0.175874	0.181971	-0.182839
C91	C	0.685487	0.274480	-1.091936
N92	N	0.657801	0.232580	-1.126133
H93	H	0.849708	0.522981	-0.956326
H94	H	0.816358	1.079146	-0.289465
C95	C	0.685306	0.669952	-0.487098
N96	N	0.657581	0.635764	-0.528945
H97	H	0.661438	0.805564	-0.523163
H98	H	-0.044836	0.472716	-0.472669
H99	H	-0.044873	0.289071	-0.289544
C100	C	0.825828	0.669937	-0.274996
N101	N	0.853543	0.635740	-0.233153
H102	H	0.054230	0.472711	-0.472653
C103	C	0.652049	0.223952	-0.968111
N104	N	0.624361	0.182058	-1.002314
H105	H	0.206367	0.523296	-0.523090
C106	C	0.825707	0.487060	-1.091941
N107	N	0.853232	0.529198	-1.126144
C108	C	0.859267	0.537446	-0.794769
N109	N	0.886975	0.579320	-0.760578
H110	H	0.054176	0.289045	-0.289535
H111	H	0.305413	0.523290	-0.523065
H112	H	0.305347	0.238382	-0.239046
C113	C	0.825807	0.486933	-0.670939
N114	N	0.853494	0.528837	-0.636747
C115	C	0.449730	0.487131	-0.486992
N116	N	0.427130	0.529082	-0.528809
C117	C	0.449658	0.274542	-0.275021
N118	N	0.427031	0.232603	-0.233213
C119	C	0.859313	0.793761	-0.224494
N120	N	0.887024	0.759566	-0.182643
H121	H	0.556532	0.289000	-0.289424
H122	H	0.661479	0.955341	-0.523179
C123	C	0.685404	1.090957	-0.487122
N124	N	0.657690	1.125158	-0.528962
C125	C	0.859345	0.967113	-0.224518
N126	N	0.887066	1.001314	-0.182674
C127	C	0.685428	0.274575	-0.670932
N128	N	0.657728	0.232691	-0.636739
C129	C	0.652028	0.223985	-0.794741
N130	N	0.624337	0.182102	-0.760532
