data_functionalizedCrystal
_audit_creation_method	'MofGen! by Chris Wilmer'
_symmetry_space_group_name_H-M	'P1'
_symmetry_Int_Tables_number	1
_symmetry_cell_setting	triclinic
loop_
_symmetry_equiv_pos_as_xyz
  x,y,z
_cell_length_a	29.839131
_cell_length_b	12.759401
_cell_length_c	12.759393
_cell_angle_alpha	89.980324
_cell_angle_beta	89.963184
_cell_angle_gamma	90.041847
loop_
_atom_site_label
_atom_site_type_symbol
_atom_site_fract_x
_atom_site_fract_y
_atom_site_fract_z
Zn1	Zn	-0.178827	1.606071	-0.593939
Zn2	Zn	-0.253964	1.605880	-0.418239
Zn3	Zn	-0.178849	1.430370	-0.418278
Zn4	Zn	-0.253931	1.430280	-0.593880
O5	O	-0.216392	1.518150	-0.506084
O6	O	-0.188798	1.753067	-0.570640
O7	O	-0.244023	1.582556	-0.271223
O8	O	-0.115979	1.453795	-0.441620
O9	O	-0.244001	1.752927	-0.441554
O10	O	-0.115962	1.582882	-0.570677
O11	O	-0.188836	1.453610	-0.271251
O12	O	-0.188804	1.283337	-0.441563
O13	O	-0.243945	1.453641	-0.740909
O14	O	-0.243967	1.283271	-0.570578
O15	O	-0.188766	1.582794	-0.740952
O16	O	-0.316826	1.582469	-0.441498
O17	O	-0.316802	1.453456	-0.570541
C18	C	-0.216385	1.245183	-0.506069
C19	C	-0.216392	1.128406	-0.506088
C20	C	-0.187700	1.073618	-0.573406
C21	C	-0.187705	0.963894	-0.573413
C22	C	-0.245097	0.963756	-0.438780
C23	C	-0.245090	1.073478	-0.438769
C24	C	-0.333115	1.517961	-0.506032
C25	C	-0.383049	1.517976	-0.506045
C26	C	-0.692693	1.585450	-0.438990
C27	C	-0.880366	1.585579	-0.439030
O28	O	-0.904630	1.642798	-0.381978
N29	N	-0.903834	1.518368	-0.506163
C30	C	-0.880382	1.451125	-0.573295
O31	O	-0.904650	1.393968	-0.630405
C32	C	-0.692710	1.451001	-0.573259
C33	C	-0.669244	1.518209	-0.506114
C34	C	-0.669226	1.652653	-0.371851
C35	C	-0.622311	1.652616	-0.371838
C36	C	-0.598862	1.585375	-0.438962
C37	C	-0.622328	1.518172	-0.506101
C38	C	-0.669258	1.383764	-0.640396
C39	C	-0.622337	1.383741	-0.640383
C40	C	-0.598871	1.450949	-0.573238
C41	C	-0.551964	1.450895	-0.573212
N42	N	-0.528495	1.518106	-0.506079
C43	C	-0.551944	1.585346	-0.438954
C44	C	-0.978913	1.451193	-0.573308
C45	C	-1.025830	1.451223	-0.573316
C46	C	-1.025811	1.585679	-0.439052
C47	C	-0.978892	1.585643	-0.439040
C48	C	-0.955444	1.518404	-0.506175
C49	C	-0.453418	1.585262	-0.438930
C50	C	-0.406499	1.585216	-0.438920
C51	C	-0.406522	1.450764	-0.573187
C52	C	-0.453438	1.450806	-0.573194
C53	C	-0.476885	1.518064	-0.506063
O54	O	-0.527670	1.393715	-0.630243
O55	O	-0.527668	1.642510	-0.381870
C56	C	-0.739608	1.585487	-0.439003
C57	C	-0.763075	1.518283	-0.506142
C58	C	-0.739625	1.451043	-0.573266
C59	C	-0.809992	1.518313	-0.506149
C60	C	-0.833441	1.585553	-0.439025
C61	C	-0.809973	1.652764	-0.371892
C62	C	-0.763057	1.652727	-0.371878
C63	C	-0.763094	1.383832	-0.640399
C64	C	-0.810010	1.383874	-0.640407
C65	C	-0.833459	1.451114	-0.573282
C66	C	-0.099214	1.518370	-0.506159
C67	C	-0.049280	1.518463	-0.506191
C68	C	-0.216349	1.518229	-0.780117
C69	C	-0.216331	1.518263	-0.896894
C70	C	-0.216401	1.792184	-0.506099
C71	C	-0.216404	1.908960	-0.506106
C72	C	-0.187595	1.585518	-0.951780
C73	C	-0.187575	1.585535	-1.061504
C74	C	-0.245032	1.451040	-1.061447
C75	C	-0.245049	1.451018	-0.951725
C76	C	-0.216403	1.518133	-0.233117
C77	C	-0.216295	1.518303	-0.116340
H78	H	-0.268463	0.919021	-0.383973
H79	H	-1.044911	1.640429	-0.384397
C80	C	-0.127121	1.600270	-1.184917
C81	C	-0.155985	1.659463	-1.121830
H82	H	-0.107615	1.645912	-1.222153
H83	H	-0.144221	1.560244	-1.233277
H84	H	-0.109946	1.554522	-1.142102
H85	H	-0.173163	1.705206	-1.164647
H86	H	-0.138884	1.699507	-1.073465
H87	H	-0.268415	1.396294	-1.106103
C88	C	-0.127271	1.197102	-0.588254
C89	C	-0.156153	1.133998	-0.647394
H90	H	-0.107796	1.234379	-0.633934
H91	H	-0.110068	1.154301	-0.542567
H92	H	-0.144363	1.245435	-0.548167
H93	H	-0.139061	1.085660	-0.687476
H94	H	-0.173358	1.176802	-0.693100
C95	C	-0.181373	1.726831	-0.828413
C96	C	-0.156024	1.659421	-0.891508
H97	H	-0.161880	1.772457	-0.791211
H98	H	-0.198486	1.686776	-0.780024
H99	H	-0.200939	1.766991	-0.871220
H100	H	-0.136460	1.619255	-0.848700
H101	H	-0.138903	1.699480	-0.939902
C102	C	-0.301828	1.062330	-0.305694
C103	C	-0.276633	1.133710	-0.364769
H104	H	-0.321300	1.099517	-0.260016
H105	H	-0.282237	1.019545	-0.265595
H106	H	-0.319038	1.019530	-0.351409
H107	H	-0.259419	1.176506	-0.319054
H108	H	-0.296226	1.176513	-0.404871
C109	C	-0.983597	1.718545	-0.306327
C110	C	-0.953100	1.659526	-0.365239
H111	H	-0.967674	1.764163	-0.260770
H112	H	-1.001926	1.672797	-0.266108
H113	H	-1.001867	1.758713	-0.352154
H114	H	-0.934832	1.619351	-0.319413
H115	H	-0.934764	1.705279	-0.405462
C116	C	-0.411199	1.718130	-0.306207
C117	C	-0.380705	1.659101	-0.365114
H118	H	-0.395276	1.763746	-0.260650
H119	H	-0.429531	1.672390	-0.265987
H120	H	-0.429467	1.758302	-0.352037
H121	H	-0.362440	1.618923	-0.319284
H122	H	-0.362365	1.704847	-0.405336
C123	C	-0.721887	1.794110	-0.357455
C124	C	-0.694978	1.726645	-0.298097
H125	H	-0.737775	1.839814	-0.311925
H126	H	-0.742596	1.754098	-0.397384
H127	H	-0.703538	1.834183	-0.403301
H128	H	-0.713328	1.686566	-0.252256
H129	H	-0.674267	1.766661	-0.258150
C130	C	-0.130979	0.975059	-0.706500
C131	C	-0.156167	0.903671	-0.647417
H132	H	-0.111511	0.937877	-0.752192
H133	H	-0.113769	1.017856	-0.660798
H134	H	-0.150578	1.017846	-0.746593
H135	H	-0.136569	0.860888	-0.607318
H136	H	-0.173379	0.860855	-0.693125
C137	C	-0.506102	1.726676	-0.424470
C138	C	-0.479181	1.659208	-0.365145
H139	H	-0.522003	1.772332	-0.378916
H140	H	-0.526799	1.686665	-0.464431
H141	H	-0.487759	1.766801	-0.470284
H142	H	-0.497525	1.619077	-0.319336
H143	H	-0.458481	1.699224	-0.325166
C144	C	-0.627019	1.785535	-0.239145
C145	C	-0.596521	1.726509	-0.298045
H146	H	-0.611098	1.831163	-0.193595
H147	H	-0.645348	1.739792	-0.198919
H148	H	-0.645289	1.825693	-0.284980
H149	H	-0.578252	1.686345	-0.252210
H150	H	-0.578185	1.772258	-0.338274
H151	H	-1.044933	1.396485	-0.627982
H152	H	-0.688357	1.329031	-0.695068
C153	C	-0.983655	1.318279	-0.706010
C154	C	-0.953142	1.377264	-0.647098
H155	H	-0.967746	1.272631	-0.751555
H156	H	-1.001920	1.364046	-0.746241
H157	H	-1.001988	1.278144	-0.660182
H158	H	-0.934811	1.417406	-0.692926
H159	H	-0.934870	1.331492	-0.606864
C160	C	-0.627073	1.250852	-0.773113
C161	C	-0.596564	1.309828	-0.714183
H162	H	-0.611161	1.205219	-0.818668
H163	H	-0.645338	1.296625	-0.813335
H164	H	-0.645406	1.210701	-0.727298
H165	H	-0.578233	1.349985	-0.759999
H166	H	-0.578291	1.264049	-0.673958
H167	H	-0.472545	1.396083	-0.627872
C168	C	-0.334605	1.391037	-0.632782
C169	C	-0.380741	1.376861	-0.646974
H170	H	-0.318689	1.345420	-0.678344
H171	H	-0.326949	1.375683	-0.562185
H172	H	-0.326888	1.461622	-0.648208
H173	H	-0.388458	1.306278	-0.631540
H174	H	-0.388400	1.392208	-0.717587
H175	H	-0.268449	1.396243	-0.907035
H176	H	-0.743954	1.707454	-0.317203
C177	C	-0.862664	1.794156	-0.357485
C178	C	-0.835746	1.726711	-0.298125
H179	H	-0.878572	1.839819	-0.311953
H180	H	-0.883355	1.754128	-0.397448
H181	H	-0.844317	1.834274	-0.403298
H182	H	-0.854093	1.686587	-0.252317
H183	H	-0.815053	1.766743	-0.258144
C184	C	-0.805304	1.250977	-0.773136
C185	C	-0.835800	1.309994	-0.714222
H186	H	-0.821226	1.205379	-0.818714
H187	H	-0.787042	1.210797	-0.727320
H188	H	-0.786968	1.296735	-0.813344
H189	H	-0.854135	1.264236	-0.674008
H190	H	-0.854071	1.350177	-0.760044
C191	C	-0.710299	1.369096	-0.781711
C192	C	-0.737324	1.309910	-0.714187
H193	H	-0.694394	1.323451	-0.827268
H194	H	-0.689605	1.409101	-0.741733
H195	H	-0.728572	1.414864	-0.821939
H196	H	-0.719051	1.264147	-0.673953
H197	H	-0.758021	1.269888	-0.754169
