data_functionalizedCrystal
_audit_creation_method	'MofGen! by Chris Wilmer'
_symmetry_space_group_name_H-M	'P1'
_symmetry_Int_Tables_number	1
_symmetry_cell_setting	triclinic
loop_
_symmetry_equiv_pos_as_xyz
  x,y,z
_cell_length_a	12.827893
_cell_length_b	12.827892
_cell_length_c	19.805398
_cell_angle_alpha	90.023552
_cell_angle_beta	90.010002
_cell_angle_gamma	90.015553
loop_
_atom_site_label
_atom_site_type_symbol
_atom_site_fract_x
_atom_site_fract_y
_atom_site_fract_z
Zn1	Zn	1.597576	-0.416042	0.382687
Zn2	Zn	1.597498	-0.590801	0.269509
Zn3	Zn	1.422845	-0.416075	0.269518
Zn4	Zn	1.422803	-0.590742	0.382662
O5	O	1.510180	-0.503415	0.326094
O6	O	1.743802	-0.439235	0.367681
O7	O	1.574315	-0.567661	0.174793
O8	O	1.446074	-0.269834	0.284544
O9	O	1.743744	-0.567629	0.284529
O10	O	1.574448	-0.269811	0.367689
O11	O	1.445998	-0.439290	0.174800
O12	O	1.276603	-0.439234	0.284520
O13	O	1.446002	-0.567530	0.477382
O14	O	1.276572	-0.567562	0.367646
O15	O	1.574407	-0.439179	0.477400
O16	O	1.574274	-0.737029	0.284504
O17	O	1.445926	-0.736986	0.367637
C18	C	1.238670	-0.503396	0.326082
C19	C	1.122517	-0.503413	0.326092
C20	C	0.950700	-0.567028	0.367173
C21	C	1.070751	-0.567012	0.367162
C22	C	1.510115	-0.774925	0.326082
C23	C	1.510183	-0.891078	0.326099
C24	C	1.573769	-0.942849	0.285008
C25	C	1.573840	-1.062900	0.285025
C26	C	1.782750	-0.503435	0.326107
C27	C	1.898904	-0.503444	0.326112
C28	C	1.510208	-0.503344	0.502637
C29	C	1.510220	-0.503314	0.577869
C30	C	1.510274	-0.230845	0.326121
C31	C	1.510315	-0.114692	0.326132
C32	C	1.510213	-0.503410	0.150238
C33	C	1.510403	-0.503146	0.075006
C34	C	1.577199	-0.569991	1.039654
C35	C	1.577170	-0.570019	0.968966
C36	C	1.510350	-0.503196	0.933631
C37	C	1.443546	-0.436349	0.968988
C38	C	1.443571	-0.436326	1.039675
C39	C	1.443446	-0.436438	0.683914
C40	C	1.443429	-0.436463	0.613222
C41	C	1.577045	-0.570131	0.613205
C42	C	1.577070	-0.570108	0.683892
C43	C	1.510263	-0.503265	0.719243
C44	C	1.510293	-0.503236	0.795892
C45	C	1.510324	-0.503219	0.856983
H46	H	0.906169	-0.621482	0.402331
H47	H	1.455869	-1.070177	0.361311
C48	C	1.369915	-0.362960	0.574352
C49	C	1.378469	-0.244158	0.584086
C50	C	1.304961	-0.170659	0.545215
C51	C	1.222898	-0.215962	0.496611
C52	C	1.214340	-0.334770	0.486876
C53	C	1.287848	-0.408269	0.525746
H54	H	1.439221	-0.210616	0.620067
H55	H	1.311297	-0.082709	0.552422
H56	H	1.168483	-0.161553	0.467837
H57	H	1.153589	-0.368312	0.450894
H58	H	1.281512	-0.496220	0.518539
H59	H	1.631550	-0.624463	0.940185
H60	H	1.631485	-0.624518	0.712658
H61	H	1.389180	-0.381893	1.068458
C62	C	1.436706	-0.951255	0.373645
C63	C	1.445126	-0.936268	0.450602
C64	C	1.371648	-0.996442	0.498150
C65	C	1.289749	-1.071603	0.468740
C66	C	1.281325	-1.086594	0.391780
C67	C	1.354804	-1.026420	0.344232
H68	H	1.505756	-0.880626	0.472376
H69	H	1.377884	-0.985344	0.555121
H70	H	1.235355	-1.116148	0.503938
H71	H	1.220696	-1.142236	0.370005
H72	H	1.348568	-1.037518	0.287260
H73	H	1.631617	-0.624400	1.068419
H74	H	1.115295	-0.621445	0.402319
H75	H	1.631439	-0.624561	0.584414
C76	C	1.647388	-1.123036	0.237497
C77	C	1.647354	-1.243082	0.237582
C78	C	1.720905	-1.303221	0.190051
C79	C	1.794489	-1.243314	0.142436
C80	C	1.794525	-1.123262	0.142349
C81	C	1.720974	-1.063123	0.189880
H82	H	1.592881	-1.287434	0.272831
H83	H	1.720878	-1.392092	0.190116
H84	H	1.848935	-1.287833	0.107251
H85	H	1.848999	-1.078910	0.107100
H86	H	1.721002	-0.974252	0.189815
C87	C	1.062358	-0.429863	0.278597
C88	C	0.987321	-0.347956	0.308066
C89	C	0.927153	-0.274407	0.260571
C90	C	0.942021	-0.282765	0.183606
C91	C	1.017061	-0.364676	0.154133
C92	C	1.077229	-0.438225	0.201628
H93	H	0.976312	-0.341765	0.365044
H94	H	0.871603	-0.213771	0.282390
H95	H	0.897481	-0.228320	0.148448
H96	H	1.028070	-0.370867	0.097156
H97	H	1.132779	-0.498861	0.179810
H98	H	1.389046	-0.382012	0.712689
H99	H	0.943435	-0.448998	0.290949
C100	C	1.370041	-0.362844	0.930120
C101	C	1.415335	-0.280816	0.881536
C102	C	1.341830	-0.207309	0.842670
C103	C	1.223031	-0.215829	0.852387
C104	C	1.177732	-0.297860	0.900974
C105	C	1.251237	-0.371368	0.939840
H106	H	1.503282	-0.274506	0.874340
H107	H	1.375364	-0.146584	0.806703
H108	H	1.168619	-0.161414	0.823616
H109	H	1.089785	-0.304171	0.908170
H110	H	1.217702	-0.432093	0.975807
C111	C	1.647247	-0.882669	0.237465
C112	C	1.601914	-0.807695	0.184334
C113	C	1.675396	-0.747517	0.136790
C114	C	1.794210	-0.762313	0.142378
C115	C	1.839549	-0.837291	0.195512
C116	C	1.766067	-0.897469	0.243055
H117	H	1.513955	-0.796739	0.180195
H118	H	1.641833	-0.692013	0.097457
H119	H	1.848606	-0.717766	0.107184
H120	H	1.927508	-0.848247	0.199651
H121	H	1.799631	-0.952973	0.282388
