data_functionalizedCrystal
_audit_creation_method	'MofGen! by Chris Wilmer'
_symmetry_space_group_name_H-M	'P1'
_symmetry_Int_Tables_number	1
_symmetry_cell_setting	triclinic
loop_
_symmetry_equiv_pos_as_xyz
  x,y,z
_cell_length_a	10.967926
_cell_length_b	15.995292
_cell_length_c	9.482900
_cell_angle_alpha	99.335510
_cell_angle_beta	92.549900
_cell_angle_gamma	84.103094
loop_
_atom_site_label
_atom_site_type_symbol
_atom_site_fract_x
_atom_site_fract_y
_atom_site_fract_z
O1	O	1.610161	0.147806	0.282517
O2	O	1.260947	0.149642	0.195025
O3	O	1.445137	0.027148	0.241169
O4	O	1.425972	0.270300	0.236372
O5	O	1.407724	0.052134	0.473589
O6	O	1.223534	0.174628	0.427444
O7	O	1.572748	0.172792	0.514936
Cu8	Cu	1.394725	0.175991	0.492412
Cu9	Cu	1.438971	0.146443	0.217549
O10	O	1.388559	0.295286	0.468792
C11	C	1.197554	0.160114	0.300039
C12	C	1.064403	0.154080	0.266678
C13	C	0.985658	0.164333	0.372205
C14	C	0.848039	0.158098	0.337728
C15	C	1.425651	0.008420	0.357180
C16	C	1.423314	-0.084611	0.356584
C17	C	1.414716	-0.422631	0.354443
C18	C	1.547575	-0.394888	0.388270
C19	C	1.550187	-0.298187	0.388374
C20	C	1.418982	-0.254936	0.355506
C21	C	1.373881	-0.300492	0.206135
C22	C	1.372298	-0.397346	0.205628
C23	C	1.327037	-0.368879	0.469252
C24	C	1.331682	-0.272036	0.472236
C25	C	1.421387	-0.160161	0.356100
C26	C	1.412308	-0.517407	0.353838
C27	C	1.636142	0.162320	0.409919
C28	C	1.769295	0.168353	0.443271
C29	C	1.408045	0.314014	0.352778
C30	C	1.410383	0.407044	0.353365
N31	N	1.363614	0.196774	0.685738
N32	N	1.470091	0.125653	0.024226
C33	C	1.429786	0.152568	0.774515
C34	C	1.403910	0.169866	0.935450
H35	H	0.803756	0.181746	0.559149
H36	H	1.020127	0.177724	0.488075
C37	C	1.301484	0.238299	0.993713
N38	N	1.224338	0.289841	1.037600
H39	H	1.545901	0.074993	0.981093
H40	H	1.364274	-0.241323	0.582545
C41	C	1.637001	-0.445566	0.277655
N42	N	1.704354	-0.483739	0.194337
H43	H	1.029935	0.140683	0.150809
C44	C	1.261193	0.265203	0.744008
N45	N	1.184047	0.316745	0.787895
H46	H	1.617889	-0.288305	0.306188
C47	C	1.200559	-0.230593	0.450652
N48	N	1.101792	-0.199381	0.434382
C49	C	0.801487	0.140000	0.181182
N50	N	0.766422	0.126370	0.063273
H51	H	1.505591	0.101911	0.731378
H52	H	1.586926	-0.267221	0.496551
H53	H	1.229037	-0.385993	0.445633
H54	H	1.583496	-0.410967	0.496286
H55	H	1.434299	-0.433314	0.117948
C56	C	1.244525	-0.262444	0.166783
N57	N	1.147094	-0.233783	0.137144
C58	C	1.457721	-0.285694	0.088321
N59	N	1.520877	-0.274551	-0.000412
C60	C	1.241931	-0.422216	0.164476
N61	N	1.143743	-0.440946	0.133468
C62	C	1.361428	-0.390587	0.619251
N63	N	1.387348	-0.406938	0.732226
