data_functionalizedCrystal
_audit_creation_method	'MofGen! by Chris Wilmer'
_symmetry_space_group_name_H-M	'P1'
_symmetry_Int_Tables_number	1
_symmetry_cell_setting	triclinic
loop_
_symmetry_equiv_pos_as_xyz
  x,y,z
_cell_length_a	25.639239
_cell_length_b	21.395362
_cell_length_c	21.395355
_cell_angle_alpha	90.043940
_cell_angle_beta	89.980666
_cell_angle_gamma	89.945436
loop_
_atom_site_label
_atom_site_type_symbol
_atom_site_fract_x
_atom_site_fract_y
_atom_site_fract_z
Zn1	Zn	-0.207990	-0.957825	-0.354582
Zn2	Zn	0.292010	-0.457825	0.145418
Zn3	Zn	-0.295409	-0.957713	-0.249803
Zn4	Zn	0.204591	-0.457713	0.250197
Zn5	Zn	-0.208014	-0.853040	-0.249783
Zn6	Zn	0.291986	-0.353040	0.250217
Zn7	Zn	-0.295420	-0.852994	-0.354508
Zn8	Zn	0.204580	-0.352994	0.145492
O9	O	-0.251708	-0.905393	-0.302169
O10	O	0.248292	-0.405393	0.197831
O11	O	-0.219571	-1.045488	-0.340722
O12	O	0.280429	-0.545488	0.159278
O13	O	-0.283822	-0.943800	-0.162122
O14	O	0.216178	-0.443800	0.337878
O15	O	-0.134846	-0.867006	-0.263708
O16	O	0.365154	-0.367006	0.236292
O17	O	-0.283798	-1.045405	-0.263742
O18	O	0.216202	-0.545405	0.236258
O19	O	-0.134828	-0.943991	-0.340703
O20	O	0.365172	-0.443991	0.159297
O21	O	-0.219613	-0.866897	-0.162108
O22	O	0.280387	-0.366897	0.337892
O23	O	-0.219623	-0.765356	-0.263636
O24	O	0.280377	-0.265356	0.236364
O25	O	-0.283817	-0.866928	-0.442196
O26	O	0.216183	-0.366928	0.057804
O27	O	-0.283840	-0.765322	-0.340576
O28	O	0.216160	-0.265322	0.159424
O29	O	-0.219582	-0.943947	-0.442250
O30	O	0.280418	-0.443947	0.057750
O31	O	-0.368576	-0.943756	-0.263669
O32	O	0.131424	-0.443756	0.236331
O33	O	-0.368584	-0.866820	-0.340596
O34	O	0.131416	-0.366820	0.159404
C35	C	-0.251736	-0.742605	-0.302096
C36	C	0.248264	-0.242605	0.197904
C37	C	-0.251760	-0.672964	-0.302080
C38	C	0.248240	-0.172964	0.197920
C39	C	-0.387551	-0.905288	-0.302140
C40	C	0.112449	-0.405288	0.197860
C41	C	-0.445665	-0.905300	-0.302149
C42	C	0.054335	-0.405300	0.197851
C43	C	-0.251698	-0.905445	-0.465592
C44	C	0.248302	-0.405445	0.034408
C45	C	-0.251693	-0.905467	-0.535234
C46	C	0.248307	-0.405467	-0.035234
C47	C	-0.806011	-0.945558	-0.262182
C48	C	-0.306011	-0.445558	0.237818
C49	C	-0.860616	-0.945582	-0.262190
C50	C	-0.360616	-0.445582	0.237810
O51	O	-0.888838	-0.979702	-0.228177
O52	O	-0.388838	-0.479702	0.271823
N53	N	-0.887947	-0.905503	-0.302211
N54	N	-0.387947	-0.405503	0.197789
C55	C	-0.860672	-0.865401	-0.342230
C56	C	-0.360672	-0.365401	0.157770
O57	O	-0.888934	-0.831313	-0.376271
O58	O	-0.388934	-0.331313	0.123729
C59	C	-0.806069	-0.865381	-0.342224
C60	C	-0.306069	-0.365381	0.157776
C61	C	-0.778740	-0.905458	-0.302196
C62	C	-0.278740	-0.405458	0.197804
C63	C	-0.778682	-0.985633	-0.222158
C64	C	-0.278682	-0.485633	0.277842
C65	C	-0.724082	-0.985608	-0.222149
C66	C	-0.224082	-0.485608	0.277851
C67	C	-0.696810	-0.945508	-0.262164
C68	C	-0.196810	-0.445508	0.237836
C69	C	-0.724139	-0.905433	-0.302187
C70	C	-0.224139	-0.405433	0.197813
C71	C	-0.778794	-0.825282	-0.382246
C72	C	-0.278794	-0.325282	0.117754
C73	C	-0.724187	-0.825266	-0.382237
C74	C	-0.224187	-0.325266	0.117763
C75	C	-0.696858	-0.865343	-0.342209
C76	C	-0.196858	-0.365343	0.157791
C77	C	-0.642267	-0.865308	-0.342193
C78	C	-0.142267	-0.365308	0.157807
N79	N	-0.614935	-0.905387	-0.302173
N80	N	-0.114935	-0.405387	0.197827
C81	C	-0.642207	-0.945487	-0.262158
C82	C	-0.142207	-0.445487	0.237842
C83	C	-0.975343	-0.865448	-0.342239
C84	C	-0.475343	-0.365448	0.157761
C85	C	-1.029945	-0.865465	-0.342242
C86	C	-0.529945	-0.365465	0.157758
C87	C	-1.029885	-0.945648	-0.262204
C88	C	-0.529885	-0.445648	0.237796
C89	C	-0.975281	-0.945627	-0.262198
C90	C	-0.475281	-0.445627	0.237802
C91	C	-0.948011	-0.905528	-0.302219
C92	C	-0.448011	-0.405528	0.197781
C93	C	-0.527542	-0.945430	-0.262142
C94	C	-0.027542	-0.445430	0.237858
C95	C	-0.472937	-0.945400	-0.262134
C96	C	0.027063	-0.445400	0.237866
C97	C	-0.473002	-0.865220	-0.342175
C98	C	0.026998	-0.365220	0.157825
C99	C	-0.527602	-0.865248	-0.342180
C100	C	-0.027602	-0.365248	0.157820
C101	C	-0.554871	-0.905358	-0.302162
C102	C	-0.054871	-0.405358	0.197838
O103	O	-0.614010	-0.831207	-0.376190
O104	O	-0.114010	-0.331207	0.123810
O105	O	-0.613939	-0.979575	-0.228128
O106	O	-0.113939	-0.479575	0.271872
C107	C	-0.115335	-0.905516	-0.302212
C108	C	0.384665	-0.405516	0.197788
C109	C	-0.057221	-0.905568	-0.302230
C110	C	0.442779	-0.405568	0.197770
C111	C	-0.251681	-1.068816	-0.302242
C112	C	0.248319	-0.568816	0.197758
C113	C	-0.251669	-1.138458	-0.302274
C114	C	0.248331	-0.638458	0.197726
C115	C	-0.285243	-0.640250	-0.342083
C116	C	0.214757	-0.140250	0.157917
C117	C	-0.285230	-0.574814	-0.342111
C118	C	0.214770	-0.074814	0.157889
C119	C	-0.251740	-0.542096	-0.302125
C120	C	0.248260	-0.042096	0.197875
C121	C	-0.218252	-0.574818	-0.262119
C122	C	0.281748	-0.074818	0.237881
C123	C	-0.218262	-0.640252	-0.262097
C124	C	0.281738	-0.140252	0.237903
C125	C	-0.247528	-0.438372	-0.245720
C126	C	0.252472	0.061628	0.254280
C127	C	-0.247522	-0.372939	-0.245741
C128	C	0.252478	0.127061	0.254259
C129	C	-0.251706	-0.340275	-0.302194
C130	C	0.248294	0.159725	0.197806
C131	C	-0.255908	-0.373052	-0.358627
C132	C	0.244092	0.126948	0.141373
C133	C	-0.255918	-0.438486	-0.358605
C134	C	0.244082	0.061514	0.141395
C135	C	-0.251725	-0.471143	-0.302145
C136	C	0.248275	0.028857	0.197855
C137	C	-0.285176	-0.236608	-0.342231
C138	C	0.214824	0.263392	0.157769
C139	C	-0.285160	-0.171172	-0.342260
C140	C	0.214840	0.328828	0.157740
C141	C	-0.218185	-0.171176	-0.262262
C142	C	0.281815	0.328824	0.237738
C143	C	-0.218198	-0.236612	-0.262239
C144	C	0.281802	0.263388	0.237761
C145	C	-0.251697	-0.269324	-0.302222
C146	C	0.248303	0.230676	0.197778
C147	C	-0.218245	-0.945569	-0.567976
C148	C	0.281755	-0.445569	-0.067976
C149	C	-0.218222	-0.945568	-0.633412
C150	C	0.281778	-0.445568	-0.133412
C151	C	-0.251658	-0.905472	-0.666102
C152	C	0.248342	-0.405472	-0.166102
C153	C	-0.285108	-0.865362	-0.633352
C154	C	0.214892	-0.365362	-0.133352
C155	C	-0.285126	-0.865360	-0.567917
C156	C	0.214874	-0.365360	-0.067917
C157	C	-0.298736	-0.900488	-0.769765
C158	C	0.201264	-0.400488	-0.269765
C159	C	-0.298719	-0.900495	-0.835198
C160	C	0.201281	-0.400495	-0.335198
C161	C	-0.251602	-0.905476	-0.867923
C162	C	0.248398	-0.405476	-0.367923
C163	C	-0.204501	-0.910463	-0.835207
C164	C	0.295499	-0.410463	-0.335207
C165	C	-0.204519	-0.910461	-0.769773
C166	C	0.295481	-0.410461	-0.269773
C167	C	-0.251642	-0.905470	-0.737054
C168	C	0.248358	-0.405470	-0.237054
C169	C	-0.218127	-0.945579	-0.971618
C170	C	0.281873	-0.445579	-0.471618
C171	C	-0.218103	-0.945574	-1.037055
C172	C	0.281897	-0.445574	-0.537055
C173	C	-0.284994	-0.865371	-1.036993
C174	C	0.215006	-0.365371	-0.536993
C175	C	-0.285013	-0.865373	-0.971558
C176	C	0.214987	-0.365373	-0.471558
C177	C	-0.251580	-0.905480	-0.938874
C178	C	0.248420	-0.405480	-0.438874
C179	C	-0.251681	-0.905377	-0.139381
C180	C	0.248319	-0.405377	0.360619
C181	C	-0.251538	-0.905476	-0.069741
C182	C	0.248462	-0.405476	0.430259
H183	H	-0.450687	-0.978036	-0.229537
H184	H	0.049313	-0.478036	0.270463
H185	H	-0.190984	-0.548174	-0.229563
H186	H	0.309016	-0.048174	0.270437
H187	H	-0.312450	-0.263244	-0.374791
H188	H	0.187550	0.236756	0.125209
C189	C	-0.442998	-0.821119	-0.386195
C190	C	0.057002	-0.321119	0.113805
H191	H	-0.467092	-0.797251	-0.410035
H192	H	0.032908	-0.297251	0.089965
H193	H	-0.421663	-0.845074	-0.413515
H194	H	0.078337	-0.345074	0.086485
H195	H	-0.421734	-0.793818	-0.362191
H196	H	0.078266	-0.293818	0.137809
C197	C	-1.059890	-0.989756	-0.218186
C198	C	-0.559890	-0.489756	0.281814
H199	H	-1.096323	-0.984028	-0.223928
H200	H	-0.596323	-0.484028	0.276072
H201	H	-1.050969	-0.980602	-0.176076
H202	H	-0.550969	-0.480602	0.323924
H203	H	-1.050897	-1.031849	-0.227408
H204	H	-0.550897	-0.531849	0.272592
C205	C	-0.181344	-0.989683	-0.935663
C206	C	0.318656	-0.489683	-0.435663
H207	H	-0.161413	-1.013559	-0.964538
H208	H	0.338587	-0.513559	-0.464538
H209	H	-0.201343	-1.016967	-0.910156
H210	H	0.298657	-0.516967	-0.410156
H211	H	-0.158575	-0.965727	-0.910122
H212	H	0.341425	-0.465727	-0.410122
H213	H	-0.549855	-0.832616	-0.374776
H214	H	-0.049855	-0.332616	0.125224
C215	C	-0.152713	-0.915938	-0.733784
C216	C	0.347287	-0.415938	-0.233784
H217	H	-0.159475	-0.915227	-0.690128
H218	H	0.340525	-0.415227	-0.190128
H219	H	-0.130723	-0.881875	-0.744482
H220	H	0.369277	-0.381875	-0.244482
H221	H	-0.135985	-0.954101	-0.744533
H222	H	0.364015	-0.454101	-0.244533
H223	H	-0.166134	-0.914520	-0.861850
H224	H	0.333866	-0.414520	-0.361850
C225	C	-0.181466	-0.989680	-0.532028
C226	C	0.318534	-0.489680	-0.032028
H227	H	-0.161539	-1.013559	-0.560903
H228	H	0.338461	-0.513559	-0.060903
H229	H	-0.201467	-1.016960	-0.506519
H230	H	0.298533	-0.516960	-0.006519
H231	H	-0.158692	-0.965728	-0.506487
H232	H	0.341308	-0.465728	-0.006487
H233	H	-0.549738	-0.978093	-0.229556
H234	H	-0.049738	-0.478093	0.270444
C235	C	-0.808675	-1.029737	-0.178131
C236	C	-0.308675	-0.529737	0.321869
H237	H	-0.845111	-1.024018	-0.183860
H238	H	-0.345111	-0.524018	0.316140
H239	H	-0.799743	-1.020575	-0.136026
H240	H	-0.299743	-0.520575	0.363974
H241	H	-0.799678	-1.071831	-0.187350
H242	H	-0.299678	-0.571831	0.312650
H243	H	-0.312519	-0.666880	-0.374642
H244	H	0.187481	-0.166880	0.125358
C245	C	-0.322031	-0.538821	-0.386152
C246	C	0.177969	-0.038821	0.113848
H247	H	-0.341975	-0.567675	-0.409971
H248	H	0.158025	-0.067675	0.090029
H249	H	-0.302032	-0.513371	-0.413491
H250	H	0.197968	-0.013371	0.086509
H251	H	-0.344789	-0.513220	-0.362171
H252	H	0.155211	-0.013220	0.137829
H253	H	-0.701834	-1.018244	-0.189557
H254	H	-0.201834	-0.518244	0.310443
H255	H	-1.052192	-0.832824	-0.374831
H256	H	-0.552192	-0.332824	0.125169
H257	H	-0.953033	-0.978262	-0.229605
H258	H	-0.453033	-0.478262	0.270395
C259	C	-0.321888	-0.821257	-0.669305
C260	C	0.178112	-0.321257	-0.169305
H261	H	-0.341809	-0.797369	-0.640430
H262	H	0.158191	-0.297369	-0.140430
H263	H	-0.344658	-0.845204	-0.694848
H264	H	0.155342	-0.345204	-0.194848
H265	H	-0.301881	-0.793975	-0.694811
H266	H	0.198119	-0.293975	-0.194811
C267	C	-0.321929	-0.821255	-0.531899
C268	C	0.178071	-0.321255	-0.031899
H269	H	-0.341842	-0.797377	-0.560738
H270	H	0.158158	-0.297377	-0.060738
H271	H	-0.301945	-0.793973	-0.506348
H272	H	0.198055	-0.293973	-0.006348
H273	H	-0.344714	-0.845212	-0.506397
H274	H	0.155286	-0.345212	-0.006397
H275	H	-0.953142	-0.832790	-0.374827
H276	H	-0.453142	-0.332790	0.125173
H277	H	-0.312424	-0.144537	-0.374839
H278	H	0.187576	0.355463	0.125161
H279	H	-0.190982	-0.978222	-0.660076
H280	H	0.309018	-0.478222	-0.160076
C281	C	-0.181308	-0.989688	-1.073072
C282	C	0.318692	-0.489688	-0.573072
H283	H	-0.161405	-1.013577	-1.044232
H284	H	0.338595	-0.513577	-0.544232
H285	H	-0.158522	-0.965746	-1.098580
H286	H	0.341478	-0.465746	-0.598580
H287	H	-0.201303	-1.016970	-1.098618
H288	H	0.298697	-0.516970	-0.598618
C289	C	-0.181433	-0.676242	-0.218091
C290	C	0.318567	-0.176242	0.281909
H291	H	-0.186234	-0.719897	-0.223806
H292	H	0.313766	-0.219897	0.276194
H293	H	-0.189028	-0.665460	-0.175980
H294	H	0.310972	-0.165460	0.324020
H295	H	-0.146311	-0.665578	-0.227347
H296	H	0.353689	-0.165578	0.272653
C297	C	-0.350567	-0.895009	-0.733771
C298	C	0.149433	-0.395009	-0.233771
H299	H	-0.343832	-0.895716	-0.690116
H300	H	0.156168	-0.395716	-0.190116
H301	H	-0.372551	-0.929073	-0.744519
H302	H	0.127449	-0.429073	-0.244519
H303	H	-0.367288	-0.856847	-0.744467
H304	H	0.132712	-0.356847	-0.244467
C305	C	-0.808844	-0.781201	-0.426281
C306	C	-0.308844	-0.281201	0.073719
H307	H	-0.784775	-0.757326	-0.450113
H308	H	-0.284775	-0.257326	0.049887
H309	H	-0.830186	-0.753916	-0.402292
H310	H	-0.330186	-0.253916	0.097708
H311	H	-0.830106	-0.805170	-0.453617
H312	H	-0.330106	-0.305170	0.046383
C313	C	-0.321776	-0.821270	-1.072945
C314	C	0.178224	-0.321270	-0.572945
H315	H	-0.316978	-0.827018	-1.116605
H316	H	0.183022	-0.327018	-0.616605
H317	H	-0.314139	-0.779178	-1.062192
H318	H	0.185861	-0.279178	-0.562192
H319	H	-0.356908	-0.830417	-1.062226
H320	H	0.143092	-0.330417	-0.562226
C321	C	-0.181372	-0.272602	-0.218231
C322	C	0.318628	0.227398	0.281769
H323	H	-0.186172	-0.316257	-0.223948
H324	H	0.313828	0.183743	0.276052
H325	H	-0.188969	-0.261822	-0.176121
H326	H	0.311031	0.238178	0.323879
H327	H	-0.146251	-0.261936	-0.227486
H328	H	0.353749	0.238064	0.272514
H329	H	-0.259338	-0.465171	-0.404555
H330	H	0.240662	0.034829	0.095445
C331	C	-0.181340	-0.135194	-0.218285
C332	C	0.318660	0.364806	0.281715
H333	H	-0.186129	-0.091537	-0.224027
H334	H	0.313871	0.408463	0.275973
H335	H	-0.146226	-0.145980	-0.227533
H336	H	0.353774	0.354020	0.272467
H337	H	-0.188940	-0.145855	-0.176163
H338	H	0.311060	0.354145	0.323837
C339	C	-0.321811	-0.821265	-0.935539
C340	C	0.178189	-0.321265	-0.435539
H341	H	-0.341723	-0.797388	-0.964379
H342	H	0.158277	-0.297388	-0.464379
H343	H	-0.301822	-0.793984	-0.909993
H344	H	0.198178	-0.293984	-0.409993
H345	H	-0.344597	-0.845215	-0.910032
H346	H	0.155403	-0.345215	-0.410032
C347	C	-0.260509	-0.337131	-0.420729
C348	C	0.239491	0.162869	0.079271
H349	H	-0.259895	-0.293467	-0.412664
H350	H	0.240105	0.206533	0.087336
H351	H	-0.292365	-0.347831	-0.440692
H352	H	0.207635	0.152169	0.059308
H353	H	-0.232097	-0.347927	-0.447141
H354	H	0.267903	0.152073	0.052859
H355	H	-0.337072	-0.896438	-0.861831
H356	H	0.162928	-0.396438	-0.361831
H357	H	-0.701986	-0.792613	-0.414829
H358	H	-0.201986	-0.292613	0.085171
C359	C	-0.242899	-0.336890	-0.183668
C360	C	0.257101	0.163110	0.316332
H361	H	-0.240399	-0.365713	-0.150044
H362	H	0.259601	0.134287	0.349956
H363	H	-0.272852	-0.311317	-0.178099
H364	H	0.227148	0.188683	0.321901
H365	H	-0.212586	-0.311407	-0.184562
H366	H	0.287414	0.188593	0.315438
H367	H	-0.244119	-0.464961	-0.199746
H368	H	0.255881	0.035039	0.300254
