data_functionalizedCrystal
_audit_creation_method	'MofGen! by Chris Wilmer'
_symmetry_space_group_name_H-M	'P1'
_symmetry_Int_Tables_number	1
_symmetry_cell_setting	triclinic
loop_
_symmetry_equiv_pos_as_xyz
  x,y,z
_cell_length_a	16.120566
_cell_length_b	12.759399
_cell_length_c	16.120256
_cell_angle_alpha	87.123291
_cell_angle_beta	89.874858
_cell_angle_gamma	87.111367
loop_
_atom_site_label
_atom_site_type_symbol
_atom_site_fract_x
_atom_site_fract_y
_atom_site_fract_z
Zn1	Zn	-1.247498	0.532288	-0.534652
Zn2	Zn	-0.747498	1.032288	-0.034652
Zn3	Zn	-1.254467	0.699536	-0.395599
Zn4	Zn	-0.754467	1.199536	0.104401
Zn5	Zn	-1.115486	0.514530	-0.388561
Zn6	Zn	-0.615486	1.014530	0.111439
Zn7	Zn	-1.108424	0.698575	-0.527561
Zn8	Zn	-0.608424	1.198575	-0.027561
O9	O	-1.181469	0.611232	-0.461593
O10	O	-0.681469	1.111232	0.038407
O11	O	-1.364789	0.562308	-0.522119
O12	O	-0.864789	1.062308	-0.022119
O13	O	-1.241904	0.667965	-0.278300
O14	O	-0.741904	1.167965	0.221700
O15	O	-1.133036	0.369869	-0.407963
O16	O	-0.633036	0.869869	0.092037
O17	O	-1.369910	0.685184	-0.419958
O18	O	-0.869910	1.185184	0.080042
O19	O	-1.230025	0.382915	-0.515295
O20	O	-0.730025	0.882915	-0.015295
O21	O	-1.139795	0.532042	-0.273129
O22	O	-0.639795	1.032042	0.226871
O23	O	-0.998183	0.531110	-0.401087
O24	O	-0.498183	1.031110	0.098913
O25	O	-1.121000	0.683546	-0.644868
O26	O	-0.621000	1.183546	-0.144868
O27	O	-0.992994	0.666327	-0.503210
O28	O	-0.492994	1.166327	-0.003210
O29	O	-1.223177	0.561376	-0.650077
O30	O	-0.723177	1.061376	-0.150077
O31	O	-1.235056	0.846426	-0.413082
O32	O	-0.735056	1.346426	0.086918
O33	O	-1.127758	0.845720	-0.510034
O34	O	-0.627758	1.345720	-0.010034
C35	C	-0.965416	0.596688	-0.450616
C36	C	-0.465416	1.096688	0.049384
C37	C	-0.872986	0.590492	-0.445939
C38	C	-0.372986	1.090492	0.054061
C39	C	-1.181419	0.884195	-0.461572
C40	C	-0.681419	1.384195	0.038428
C41	C	-1.181472	1.000977	-0.461594
C42	C	-0.681472	1.500977	0.038406
C43	C	-1.170523	0.624335	-0.678488
C44	C	-0.670523	1.124335	-0.178488
C45	C	-1.165859	0.629918	-0.770916
C46	C	-0.665859	1.129918	-0.270916
C47	C	-0.703756	0.579157	-0.437408
C48	C	-0.203756	1.079157	0.062592
C49	C	-0.660022	0.643399	-0.485785
C50	C	-0.160022	1.143399	0.014215
C51	C	-0.565856	0.637092	-0.481038
C52	C	-0.065856	1.137092	0.018962
C53	C	-0.797930	0.585463	-0.442154
C54	C	-0.297930	1.085463	0.057846
C55	C	-0.398366	0.625837	-0.472601
C56	C	0.101634	1.125837	0.027399
C57	C	-0.490797	0.632066	-0.477257
C58	C	0.009203	1.132066	0.022743
C59	C	-1.181541	0.337206	-0.461634
C60	C	-0.681541	0.837206	0.038366
C61	C	-1.181571	0.220433	-0.461652
C62	C	-0.681571	0.720433	0.038348
C63	C	-1.237399	1.056179	-0.411175
C64	C	-0.737399	1.556179	0.088825
C65	C	-1.237451	1.165908	-0.411206
C66	C	-0.737451	1.665908	0.088794
C67	C	-1.125641	1.165223	-0.512077
C68	C	-0.625641	1.665223	-0.012077
C69	C	-1.125594	1.055496	-0.512050
C70	C	-0.625594	1.555496	-0.012050
C71	C	-1.205792	0.582088	-0.983901
C72	C	-0.705792	1.082088	-0.483901
C73	C	-1.157315	0.640067	-0.940136
C74	C	-0.657315	1.140067	-0.440136
C75	C	-1.162070	0.634419	-0.845973
C76	C	-0.662070	1.134419	-0.345973
C77	C	-1.201038	0.587735	-1.078072
C78	C	-0.701038	1.087735	-0.578072
C79	C	-1.192420	0.598108	-0.245545
C80	C	-0.692420	1.098108	0.254455
C81	C	-1.197245	0.592240	-0.153126
C82	C	-0.697245	1.092240	0.346874
H83	H	-0.670479	0.519426	-0.392430
H84	H	-0.170479	1.019426	0.107570
H85	H	-1.282900	1.011792	-0.370092
H86	H	-0.782900	1.511792	0.129908
N87	N	-0.704104	0.722535	-0.545359
N88	N	-0.204104	1.222535	-0.045359
H89	H	-0.689680	0.795796	-0.531589
H90	H	-0.189680	1.295796	-0.031589
H91	H	-0.686050	0.708857	-0.604032
H92	H	-0.186050	1.208857	-0.104032
N93	N	-1.297775	1.225450	-0.356827
N94	N	-0.797775	1.725450	0.143173
H95	H	-1.333163	1.174258	-0.324862
H96	H	-0.833163	1.674258	0.175138
H97	H	-1.265919	1.266437	-0.316612
H98	H	-0.765919	1.766437	0.183388
H99	H	-1.250863	0.528213	-0.950652
H100	H	-0.750863	1.028213	-0.450652
N101	N	-1.097615	0.711453	-0.984168
N102	N	-0.597615	1.211453	-0.484168
H103	H	-1.038949	0.690259	-0.966080
H104	H	-0.538949	1.190259	-0.466080
H105	H	-1.102710	0.705399	-1.046157
H106	H	-0.602710	1.205399	-0.546157
H107	H	-1.080051	1.010547	-0.553112
H108	H	-0.580051	1.510547	-0.053112
N109	N	-1.065372	1.224025	-0.566491
N110	N	-0.565372	1.724025	-0.066491
H111	H	-1.073885	1.301914	-0.558856
H112	H	-0.573885	1.801914	-0.058856
H113	H	-1.006641	1.200135	-0.550477
H114	H	-0.506641	1.700135	-0.050477
