data_functionalizedCrystal
_audit_creation_method	'MofGen! by Chris Wilmer'
_symmetry_space_group_name_H-M	'P1'
_symmetry_Int_Tables_number	1
_symmetry_cell_setting	triclinic
loop_
_symmetry_equiv_pos_as_xyz
  x,y,z
_cell_length_a	14.044220
_cell_length_b	14.519709
_cell_length_c	12.996460
_cell_angle_alpha	89.992910
_cell_angle_beta	89.999501
_cell_angle_gamma	88.434511
loop_
_atom_site_label
_atom_site_type_symbol
_atom_site_fract_x
_atom_site_fract_y
_atom_site_fract_z
O1	O	1.258085	0.222370	-0.085462
O2	O	1.508085	0.472370	0.164538
O3	O	1.758085	0.722370	0.414538
O4	O	2.008085	0.972370	0.664538
O5	O	0.982102	0.214346	-0.085488
O6	O	1.232102	0.464346	0.164512
O7	O	1.482102	0.714346	0.414512
O8	O	1.732102	0.964346	0.664512
O9	O	1.127411	0.084710	-0.085465
O10	O	1.377411	0.334710	0.164535
O11	O	1.627411	0.584710	0.414535
O12	O	1.877411	0.834710	0.664535
O13	O	1.112776	0.352006	-0.085485
O14	O	1.362776	0.602006	0.164515
O15	O	1.612776	0.852006	0.414515
O16	O	1.862776	1.102006	0.664515
O17	O	1.127396	0.084701	0.085669
O18	O	1.377396	0.334701	0.335669
O19	O	1.627396	0.584701	0.585669
O20	O	1.877396	0.834701	0.835669
O21	O	0.982087	0.214337	0.085646
O22	O	1.232087	0.464337	0.335646
O23	O	1.482087	0.714337	0.585646
O24	O	1.732087	0.964337	0.835646
O25	O	1.258070	0.222361	0.085672
O26	O	1.508070	0.472361	0.335672
O27	O	1.758070	0.722361	0.585672
O28	O	2.008070	0.972361	0.835672
Cu29	Cu	1.120077	0.218348	0.101285
Cu30	Cu	1.370077	0.468348	0.351285
Cu31	Cu	1.620077	0.718348	0.601285
Cu32	Cu	1.870077	0.968348	0.851285
Cu33	Cu	1.120095	0.218359	-0.101101
Cu34	Cu	1.370095	0.468359	0.148899
Cu35	Cu	1.620095	0.718359	0.398899
Cu36	Cu	1.870095	0.968359	0.648899
O37	O	1.112761	0.351997	0.085649
O38	O	1.362761	0.601997	0.335649
O39	O	1.612761	0.851997	0.585649
O40	O	1.862761	1.101997	0.835649
C41	C	1.126721	0.050290	0.000102
C42	C	1.376721	0.300290	0.250102
C43	C	1.626721	0.550290	0.500102
C44	C	1.876721	0.800290	0.750102
C45	C	1.124677	-0.052256	0.000103
C46	C	1.374677	0.197744	0.250103
C47	C	1.624677	0.447744	0.500103
C48	C	1.874677	0.697744	0.750103
C49	C	0.946774	0.210829	0.000076
C50	C	1.196774	0.460829	0.250076
C51	C	1.446774	0.710829	0.500076
C52	C	1.696774	0.960829	0.750076
C53	C	0.841531	0.200352	0.000066
C54	C	1.091531	0.450352	0.250066
C55	C	1.341531	0.700352	0.500066
C56	C	1.591531	0.950352	0.750066
C57	C	1.117153	-0.427758	0.000075
C58	C	1.367153	-0.177758	0.250075
C59	C	1.617153	0.072242	0.500075
C60	C	1.867153	0.322242	0.750075
C61	C	1.119243	-0.323282	0.000083
C62	C	1.369243	-0.073282	0.250083
C63	C	1.619243	0.176718	0.500083
C64	C	1.869243	0.426718	0.750083
C65	C	1.120915	-0.240010	0.000090
C66	C	1.370915	0.009990	0.250090
C67	C	1.620915	0.259990	0.500090
C68	C	1.870915	0.509990	0.750090
C69	C	1.123005	-0.135527	0.000096
C70	C	1.373005	0.114473	0.250096
C71	C	1.623005	0.364473	0.500096
C72	C	1.873005	0.614473	0.750096
C73	C	0.648837	0.181197	0.000088
C74	C	0.898837	0.431197	0.250088
C75	C	1.148837	0.681197	0.500088
C76	C	1.398837	0.931197	0.750088
C77	C	0.591329	0.255505	0.000087
C78	C	0.841329	0.505505	0.250087
C79	C	1.091329	0.755505	0.500087
C80	C	1.341329	1.005505	0.750087
C81	C	0.484108	0.244848	0.000099
C82	C	0.734108	0.494848	0.250099
C83	C	0.984108	0.744848	0.500099
C84	C	1.234108	0.994848	0.750099
C85	C	0.756068	0.191854	0.000076
C86	C	1.006068	0.441854	0.250076
C87	C	1.256068	0.691854	0.500076
C88	C	1.506068	0.941854	0.750076
C89	C	1.293398	0.225878	0.000106
C90	C	1.543398	0.475878	0.250106
C91	C	1.793398	0.725878	0.500106
C92	C	2.043398	0.975878	0.750106
C93	C	1.398641	0.236355	0.000109
C94	C	1.648641	0.486355	0.250109
C95	C	1.898641	0.736355	0.500109
C96	C	2.148641	0.986355	0.750109
C97	C	1.113451	0.386416	0.000080
C98	C	1.363451	0.636416	0.250080
C99	C	1.613451	0.886416	0.500080
C100	C	1.863451	1.136416	0.750080
C101	C	1.115494	0.488963	0.000073
C102	C	1.365494	0.738963	0.250073
C103	C	1.615494	0.988963	0.500073
C104	C	1.865494	1.238963	0.750073
N105	N	1.120071	0.218341	0.243632
N106	N	1.370071	0.468341	0.493632
N107	N	1.620071	0.718341	0.743632
N108	N	1.870071	0.968341	0.993632
N109	N	1.120108	0.218360	-0.243448
N110	N	1.370108	0.468360	0.006552
N111	N	1.620108	0.718360	0.256552
N112	N	1.870108	0.968360	0.506552
C113	C	1.120094	0.218360	0.663446
C114	C	1.370094	0.468360	0.913446
C115	C	1.620094	0.718360	1.163446
C116	C	1.870094	0.968360	1.413446
C117	C	1.120085	0.218357	0.546641
C118	C	1.370085	0.468357	0.796641
C119	C	1.620085	0.718357	1.046641
C120	C	1.870085	0.968357	1.296641
C121	C	1.120083	0.218351	0.453543
C122	C	1.370083	0.468351	0.703543
C123	C	1.620083	0.718351	0.953543
C124	C	1.870083	0.968351	1.203543
C125	C	1.120073	0.218347	0.336730
C126	C	1.370073	0.468347	0.586730
C127	C	1.620073	0.718347	0.836730
C128	C	1.870073	0.968347	1.086730
H129	H	0.617546	0.109582	0.000099
H130	H	0.867546	0.359582	0.250099
H131	H	1.117546	0.609582	0.500099
H132	H	1.367546	0.859582	0.750099
H133	H	0.622622	0.327127	0.000077
H134	H	0.872622	0.577127	0.250077
H135	H	1.122622	0.827127	0.500077
H136	H	1.372622	1.077127	0.750077
