data_functionalizedCrystal
_audit_creation_method	'MofGen! by Chris Wilmer'
_symmetry_space_group_name_H-M	'P1'
_symmetry_Int_Tables_number	1
_symmetry_cell_setting	triclinic
loop_
_symmetry_equiv_pos_as_xyz
  x,y,z
_cell_length_a	18.101389
_cell_length_b	12.759401
_cell_length_c	12.759399
_cell_angle_alpha	89.983359
_cell_angle_beta	89.984625
_cell_angle_gamma	90.017197
loop_
_atom_site_label
_atom_site_type_symbol
_atom_site_fract_x
_atom_site_fract_y
_atom_site_fract_z
Zn1	Zn	-0.418714	-1.606224	-0.418334
Zn2	Zn	-0.294879	-1.606126	-0.594002
Zn3	Zn	-0.294890	-1.430535	-0.418342
Zn4	Zn	-0.418683	-1.430514	-0.593976
O5	O	-0.356791	-1.518350	-0.506163
O6	O	-0.402295	-1.753232	-0.441644
O7	O	-0.191247	-1.582801	-0.570714
O8	O	-0.311333	-1.453890	-0.271320
O9	O	-0.311314	-1.753160	-0.570706
O10	O	-0.402306	-1.582969	-0.271314
O11	O	-0.191256	-1.453795	-0.441658
O12	O	-0.311303	-1.283511	-0.441633
O13	O	-0.522320	-1.453855	-0.570662
O14	O	-0.402253	-1.283496	-0.570670
O15	O	-0.522342	-1.582949	-0.441619
O16	O	-0.311284	-1.582780	-0.741019
O17	O	-0.402242	-1.453759	-0.741000
C18	C	-0.356777	-1.245382	-0.506150
C19	C	-0.356788	-1.128606	-0.506170
C20	C	-0.549953	-1.518410	-0.506137
C21	C	-0.632267	-1.518436	-0.506125
C22	C	-0.356774	-1.518285	-0.779131
C23	C	-0.356792	-1.518354	-0.895907
C24	C	-0.931358	-1.518497	-0.505929
C25	C	-0.900019	-1.436995	-0.586861
C26	C	-0.814401	-1.437216	-0.587236
C27	C	-0.782976	-1.518466	-0.506026
C28	C	-0.814073	-1.629167	-0.536076
C29	C	-0.899718	-1.628713	-0.536608
C30	C	-0.899781	-1.490261	-0.394766
C31	C	-0.814130	-1.487798	-0.395408
C32	C	-0.699116	-1.518455	-0.506080
C33	C	-1.015218	-1.518516	-0.505878
C34	C	-0.164381	-1.518350	-0.506114
C35	C	-0.082067	-1.518527	-0.505829
C36	C	-0.356806	-1.792383	-0.506177
C37	C	-0.356813	-1.909160	-0.506183
C38	C	-0.404071	-1.073763	-0.573462
C39	C	-0.404086	-0.964039	-0.573466
C40	C	-0.309528	-0.964010	-0.438883
C41	C	-0.309517	-1.073732	-0.438875
C42	C	-0.491393	-0.814135	-0.611198
C43	C	-0.538669	-0.759289	-0.678507
C44	C	-0.549910	-0.794885	-0.781042
C45	C	-0.513864	-0.885325	-0.816290
C46	C	-0.466582	-0.940166	-0.748987
C47	C	-0.455355	-0.904571	-0.646437
C48	C	-0.222209	-1.223638	-0.401154
C49	C	-0.174923	-1.278481	-0.333855
C50	C	-0.163674	-1.242887	-0.231318
C51	C	-0.199708	-1.152443	-0.196074
C52	C	-0.246994	-1.097600	-0.263373
C53	C	-0.258244	-1.133202	-0.365909
C54	C	-0.309484	-1.585612	-0.950744
C55	C	-0.309509	-1.585679	-1.060468
C56	C	-0.404152	-1.451222	-1.060509
C57	C	-0.404130	-1.451160	-0.950787
C58	C	-0.283155	-1.709690	-1.210334
C59	C	-0.235835	-1.776939	-1.265174
C60	C	-0.163577	-1.793109	-1.229606
C61	C	-0.138624	-1.742014	-1.139199
C62	C	-0.185940	-1.674757	-1.084364
C63	C	-0.258208	-1.658608	-1.119930
C64	C	-0.430476	-1.327148	-0.800919
C65	C	-0.477789	-1.259885	-0.746082
C66	C	-0.550048	-1.243705	-0.781649
C67	C	-0.574998	-1.294781	-0.872059
C68	C	-0.527686	-1.362044	-0.926896
C69	C	-0.455427	-1.378226	-0.891323
C70	C	-0.356824	-1.518443	-0.232130
C71	C	-0.356838	-1.518483	-0.115353
H72	H	-0.793375	-1.355128	-0.568432
O73	O	-0.789835	-1.459444	-0.685474
C74	C	-0.711946	-1.459757	-0.686197
H75	H	-0.690546	-1.410537	-0.618109
H76	H	-0.691093	-1.543642	-0.677820
C77	C	-0.710224	-1.473725	-0.873905
C78	C	-0.683940	-1.413264	-0.790283
H79	H	-0.692948	-1.445051	-0.938111
H80	H	-0.762700	-1.473518	-0.873418
H81	H	-0.692845	-1.543626	-0.866910
H82	H	-0.701327	-1.343369	-0.797272
H83	H	-0.631467	-1.413458	-0.790773
H84	H	-0.165624	-1.633159	-1.010755
H85	H	-0.125049	-1.847866	-1.274264
O86	O	-0.925780	-1.458862	-0.684553
C87	C	-0.966181	-1.372424	-0.722656
H88	H	-0.986691	-1.323365	-0.653900
H89	H	-0.929096	-1.322412	-0.774797
C90	C	-1.007512	-1.472087	-0.871169
C91	C	-1.032708	-1.411837	-0.786721
H92	H	-1.048548	-1.496397	-0.910691
H93	H	-0.980292	-1.530321	-0.845501
H94	H	-0.976608	-1.430401	-0.914608
H95	H	-1.063605	-1.453527	-0.743277
H96	H	-1.059936	-1.353610	-0.812384
O97	O	-0.450059	-1.385980	-1.113983
C98	C	-0.439946	-1.400470	-1.222586
H99	H	-0.382819	-1.434936	-1.237587
H100	H	-0.483914	-1.456398	-1.253645
C101	C	-0.516840	-1.251861	-1.260578
C102	C	-0.446673	-1.294184	-1.279002
H103	H	-0.520993	-1.186301	-1.295379
H104	H	-0.523656	-1.242101	-1.187410
H105	H	-0.553473	-1.298478	-1.286460
H106	H	-0.410043	-1.247574	-1.253108
H107	H	-0.439851	-1.303935	-1.352167
O108	O	-0.068416	-1.757866	-1.104772
C109	C	-0.031999	-1.828162	-1.172572
H110	H	-0.074634	-1.877715	-1.215789
H111	H	0.002290	-1.782158	-1.231776
C112	C	0.071421	-1.839297	-1.055197
C113	C	0.019056	-1.900164	-1.108271
H114	H	0.102917	-1.883708	-1.015535
H115	H	0.046888	-1.791934	-1.009520
H116	H	0.099987	-1.800963	-1.104543
H117	H	-0.009515	-1.938486	-1.058924
H118	H	0.043586	-1.947536	-1.153938
H119	H	-0.588405	-0.750222	-0.835845
O120	O	-0.360292	-1.342711	-0.766253
C121	C	-0.348419	-1.283215	-0.674690
H122	H	-0.389069	-1.215029	-0.672464
H123	H	-0.357064	-1.334954	-0.602864
C124	C	-0.218931	-1.324191	-0.677439
C125	C	-0.268854	-1.240438	-0.674709
H126	H	-0.169851	-1.297807	-0.677447
H127	H	-0.226930	-1.364278	-0.739125
H128	H	-0.226145	-1.367300	-0.617583
H129	H	-0.261646	-1.197339	-0.734571
H130	H	-0.260852	-1.200343	-0.613033
H131	H	-0.919702	-1.652646	-0.617869
O132	O	-0.480556	-0.779709	-0.511521
C133	C	-0.502899	-0.857966	-0.440193
H134	H	-0.544333	-0.912347	-0.479807
H135	H	-0.452667	-0.905094	-0.414087
C136	C	-0.488299	-0.739535	-0.295376
C137	C	-0.539194	-0.806322	-0.344028
H138	H	-0.510685	-0.707681	-0.236055
H139	H	-0.473243	-0.686813	-0.343430
H140	H	-0.446442	-0.778819	-0.273631
H141	H	-0.581045	-0.767036	-0.365785
H142	H	-0.554258	-0.859037	-0.295975
O143	O	-0.263609	-1.650939	-0.897319
C144	C	-0.305801	-1.718744	-0.833780
H145	H	-0.361896	-1.681633	-0.817326
H146	H	-0.313996	-1.796618	-0.875994
C147	C	-0.196146	-1.783325	-0.749782
C148	C	-0.265041	-1.737741	-0.729566
H149	H	-0.171002	-1.795048	-0.685499
H150	H	-0.167719	-1.737647	-0.792592
H151	H	-0.202985	-1.848215	-0.784963
H152	H	-0.258200	-1.672847	-0.694397
H153	H	-0.293465	-1.783409	-0.686747
H154	H	-0.256159	-1.818541	-1.338784
H155	H	-0.920611	-1.354660	-0.568249
H156	H	-0.568019	-0.685652	-0.649798
H157	H	-0.588569	-1.188931	-0.736991
O158	O	-0.281970	-1.009790	-0.228955
C159	C	-0.261890	-0.990113	-0.124029
H160	H	-0.242446	-1.066063	-0.085910
H161	H	-0.215319	-0.929980	-0.121895
C162	C	-0.353011	-0.853970	-0.110608
C163	C	-0.329135	-0.947255	-0.063787
H164	H	-0.394489	-0.827529	-0.073447
H165	H	-0.366538	-0.867224	-0.181299
H166	H	-0.314196	-0.803871	-0.108826
H167	H	-0.367946	-0.997356	-0.065581
H168	H	-0.315616	-0.934009	0.006907
H169	H	-0.190537	-1.123449	-0.112587
H170	H	-0.341995	-1.696542	-1.239295
H171	H	-0.145582	-1.352124	-0.362560
O172	O	-0.788577	-1.553572	-0.319784
C173	C	-0.741713	-1.629083	-0.365446
H174	H	-0.755452	-1.637328	-0.452241
H175	H	-0.681754	-1.603277	-0.356368
C176	C	-0.736085	-1.725166	-0.203740
C177	C	-0.752963	-1.735298	-0.310342
H178	H	-0.743021	-1.790683	-0.169747
H179	H	-0.767655	-1.674290	-0.172974
H180	H	-0.686119	-1.703657	-0.196189
H181	H	-0.802930	-1.756793	-0.317891
H182	H	-0.721401	-1.786180	-0.341107
O183	O	-0.788544	-1.658397	-0.631961
C184	C	-0.817012	-1.757965	-0.657773
H185	H	-0.832982	-1.801256	-0.582951
H186	H	-0.867858	-1.748332	-0.709591
C187	C	-0.738236	-1.768087	-0.808942
C188	C	-0.757845	-1.821262	-0.717043
H189	H	-0.701741	-1.807132	-0.845507
H190	H	-0.719058	-1.701005	-0.791554
H191	H	-0.780613	-1.760063	-0.852111
H192	H	-0.715471	-1.829274	-0.673870
H193	H	-0.777015	-1.888348	-0.734425
H194	H	-0.920451	-1.691498	-0.480219
H195	H	-0.793719	-1.691524	-0.478981
H196	H	-0.921373	-1.410940	-0.367387
O197	O	-0.923992	-1.560927	-0.322702
C198	C	-0.964882	-1.508639	-0.244537
H199	H	-0.947877	-1.422641	-0.242110
H200	H	-1.026340	-1.514618	-0.263117
C201	C	-0.970387	-1.665240	-0.140314
C202	C	-0.949496	-1.559618	-0.137327
H203	H	-0.960899	-1.696688	-0.074182
H204	H	-0.942841	-1.700469	-0.192977
H205	H	-1.021600	-1.670208	-0.155801
H206	H	-0.898282	-1.554652	-0.121853
H207	H	-0.977033	-1.524389	-0.084659
O208	O	-0.552053	-1.411629	-1.014668
C209	C	-0.625972	-1.382911	-1.034319
H210	H	-0.652773	-1.355196	-0.958369
H211	H	-0.627386	-1.316873	-1.094488
C212	C	-0.635687	-1.512228	-1.170384
C213	C	-0.668606	-1.478196	-1.077099
H214	H	-0.661985	-1.571002	-1.196778
H215	H	-0.585885	-1.531574	-1.157149
H216	H	-0.636867	-1.457187	-1.220514
H217	H	-0.667417	-1.533232	-1.026968
H218	H	-0.718409	-1.458862	-1.090328
O219	O	-0.524672	-0.920015	-0.915882
C220	C	-0.482735	-1.011610	-0.932547
H221	H	-0.434768	-1.013845	-0.874715
H222	H	-0.519248	-1.083409	-0.920377
C223	C	-0.511313	-1.008912	-1.116346
C224	C	-0.452395	-1.011652	-1.045321
H225	H	-0.492601	-1.008942	-1.185911
H226	H	-0.539569	-0.947205	-1.105118
H227	H	-0.541736	-1.068745	-1.106191
H228	H	-0.421980	-0.951813	-1.055468
H229	H	-0.424133	-1.073350	-1.056553
O230	O	-0.645224	-1.278990	-0.906445
C231	C	-0.681628	-1.208653	-0.838672
H232	H	-0.653644	-1.209831	-0.758652
H233	H	-0.678793	-1.126130	-0.872715
C234	C	-0.797396	-1.240259	-0.925031
C235	C	-0.763029	-1.241713	-0.826746
H236	H	-0.847609	-1.260648	-0.917677
H237	H	-0.772870	-1.287643	-0.970694
H238	H	-0.795026	-1.171488	-0.953390
H239	H	-0.765392	-1.310486	-0.798395
H240	H	-0.787558	-1.194341	-0.781078
O241	O	-0.789786	-1.390623	-0.368502
C242	C	-0.744814	-1.350469	-0.449334
H243	H	-0.721579	-1.418037	-0.497584
H244	H	-0.779112	-1.297206	-0.502036
C245	C	-0.709281	-1.204292	-0.342001
C246	C	-0.680738	-1.287282	-0.401257
H247	H	-0.669757	-1.165312	-0.312347
H248	H	-0.739582	-1.231342	-0.287544
H249	H	-0.737862	-1.159919	-0.385929
H250	H	-0.652165	-1.331661	-0.357327
H251	H	-0.650431	-1.260238	-0.455706
O252	O	-0.431447	-1.027915	-0.783216
C253	C	-0.354394	-1.013122	-0.776647
H254	H	-0.341459	-0.925681	-0.777606
H255	H	-0.332971	-1.049118	-0.700729
C256	C	-0.332526	-1.173850	-0.869548
C257	C	-0.316639	-1.066454	-0.870735
H258	H	-0.309236	-1.206751	-0.927583
H259	H	-0.384438	-1.183819	-0.873971
H260	H	-0.314673	-1.203833	-0.806278
H261	H	-0.334500	-1.036470	-0.933998
H262	H	-0.264729	-1.056480	-0.866325
H263	H	-0.271041	-0.919318	-0.384096
H264	H	-0.125163	-1.287545	-0.176528
H265	H	-0.457470	-1.218302	-0.672461
H266	H	-0.231371	-1.252634	-0.484645
H267	H	-0.442563	-1.118438	-0.628256
