data_functionalizedCrystal
_audit_creation_method	'MofGen! by Chris Wilmer'
_symmetry_space_group_name_H-M	'P1'
_symmetry_Int_Tables_number	1
_symmetry_cell_setting	triclinic
loop_
_symmetry_equiv_pos_as_xyz
  x,y,z
_cell_length_a	13.897441
_cell_length_b	11.169417
_cell_length_c	13.897449
_cell_angle_alpha	89.994686
_cell_angle_beta	89.977085
_cell_angle_gamma	90.018542
loop_
_atom_site_label
_atom_site_type_symbol
_atom_site_fract_x
_atom_site_fract_y
_atom_site_fract_z
Zn1	Zn	-0.545376	-1.834996	-0.383961
Zn2	Zn	-0.384099	-1.834911	-0.545283
Zn3	Zn	-0.384101	-1.634287	-0.384006
Zn4	Zn	-0.545358	-1.634310	-0.545219
O5	O	-0.464734	-1.734626	-0.464617
O6	O	-0.523990	-2.002935	-0.405369
O7	O	-0.249118	-1.808252	-0.523935
O8	O	-0.405503	-1.660937	-0.249019
O9	O	-0.405500	-2.002872	-0.523892
O10	O	-0.523991	-1.808398	-0.248986
O11	O	-0.249119	-1.660854	-0.405446
O12	O	-0.405485	-1.466340	-0.405383
O13	O	-0.680342	-1.660978	-0.523782
O14	O	-0.523960	-1.466358	-0.523825
O15	O	-0.680356	-1.808421	-0.405307
O16	O	-0.405482	-1.808275	-0.680256
O17	O	-0.523959	-1.660895	-0.680209
C18	C	-0.464739	-1.734611	-0.715232
C19	C	-0.464774	-1.734714	-0.822446
C20	C	-0.464721	-1.422801	-0.464603
C21	C	-0.464739	-1.289401	-0.464620
C22	C	-0.716327	-1.734711	-0.464532
C23	C	-0.823541	-1.734747	-0.464496
C24	C	-1.019836	-1.734780	-0.464431
C25	C	-0.910603	-1.734758	-0.464470
C26	C	-0.214119	-1.734610	-0.464633
C27	C	-0.106906	-1.734807	-0.464397
C28	C	-0.464747	-2.047668	-0.464633
C29	C	-0.464752	-2.181068	-0.464639
C30	C	-0.464749	-1.734674	-0.213024
C31	C	-0.464756	-1.734695	-0.105811
C32	C	-0.464764	-1.734709	-0.018741
C33	C	-0.464772	-1.734715	0.090492
