data_functionalizedCrystal
_audit_creation_method	'MofGen! by Chris Wilmer'
_symmetry_space_group_name_H-M	'P1'
_symmetry_Int_Tables_number	1
_symmetry_cell_setting	triclinic
loop_
_symmetry_equiv_pos_as_xyz
  x,y,z
_cell_length_a	15.995300
_cell_length_b	14.853569
_cell_length_c	14.472310
_cell_angle_alpha	89.997037
_cell_angle_beta	90.014612
_cell_angle_gamma	83.553686
loop_
_atom_site_label
_atom_site_type_symbol
_atom_site_fract_x
_atom_site_fract_y
_atom_site_fract_z
O1	O	1.111158	0.115984	0.076866
O2	O	1.611158	0.615984	0.576866
O3	O	0.867394	0.130381	0.076860
O4	O	1.367394	0.630381	0.576860
O5	O	0.995787	-0.008057	0.076867
O6	O	1.495787	0.491943	0.576867
O7	O	0.982766	0.254422	0.076860
O8	O	1.482766	0.754422	0.576860
O9	O	0.995754	-0.008049	-0.076815
O10	O	1.495754	0.491951	0.423185
O11	O	0.867361	0.130389	-0.076822
O12	O	1.367361	0.630389	0.423178
O13	O	1.111125	0.115992	-0.076816
O14	O	1.611125	0.615992	0.423184
Cu15	Cu	0.989240	0.123192	-0.090851
Cu16	Cu	1.489240	0.623192	0.409149
Cu17	Cu	0.989279	0.123182	0.090896
Cu18	Cu	1.489279	0.623182	0.590896
O19	O	0.982732	0.254430	-0.076822
O20	O	1.482732	0.754430	0.423178
C21	C	0.836181	0.129798	0.000018
C22	C	1.336181	0.629798	0.500018
C23	C	0.743227	0.128038	0.000016
C24	C	1.243227	0.628038	0.500016
C25	C	0.573040	0.124787	0.000023
C26	C	1.073040	0.624787	0.500023
C27	C	0.525689	0.223358	0.000018
C28	C	1.025689	0.723358	0.500018
C29	C	0.428999	0.221559	0.000370
C30	C	0.928999	0.721559	0.500370
C31	C	0.405479	0.121587	0.000029
C32	C	0.905479	0.621587	0.500029
C33	C	0.446574	0.072678	0.087617
C34	C	0.946574	0.572678	0.587617
C35	C	0.543210	0.075172	0.087688
C36	C	1.043210	0.575172	0.587688
C37	C	0.543450	0.073722	-0.087083
C38	C	1.043450	0.573722	0.412917
C39	C	0.446505	0.073731	-0.088232
C40	C	0.946505	0.573731	0.411768
C41	C	0.310782	0.119773	0.000036
C42	C	0.810782	0.619773	0.500036
C43	C	0.667738	0.126597	0.000023
C44	C	1.167738	0.626597	0.500023
C45	C	0.995180	-0.041641	0.000028
C46	C	1.495180	0.458359	0.500028
C47	C	0.993411	-0.141722	0.000037
C48	C	1.493411	0.358278	0.500037
C49	C	1.142338	0.116575	0.000028
C50	C	1.642338	0.616575	0.500028
C51	C	1.235293	0.118336	0.000036
C52	C	1.735293	0.618336	0.500036
C53	C	0.983339	0.288014	0.000018
C54	C	1.483339	0.788014	0.500018
C55	C	0.985108	0.388095	0.000016
C56	C	1.485108	0.888095	0.500016
N57	N	0.989219	0.123198	-0.218682
N58	N	1.489219	0.623198	0.281318
C59	C	1.062206	0.424353	0.000015
C60	C	1.562206	0.924353	0.500015
C61	C	0.909672	0.445877	0.000021
C62	C	1.409672	0.945877	0.500021
C63	C	0.911331	0.539909	0.000024
C64	C	1.411331	1.039909	0.500024
C65	C	0.988429	0.576167	0.000024
C66	C	1.488429	1.076167	0.500024
C67	C	1.063868	0.518393	0.000020
C68	C	1.563868	1.018393	0.500020
C69	C	0.835894	0.597690	0.000037
C70	C	1.335894	1.097690	0.500037
C71	C	0.837550	0.691728	0.000040
C72	C	1.337550	1.191728	0.500040
C73	C	0.914649	0.727987	0.000033
C74	C	1.414649	1.227987	0.500033
C75	C	0.990090	0.670207	0.000029
C76	C	1.490090	1.170207	0.500029
C77	C	1.067188	0.706464	0.000028
C78	C	1.567188	1.206464	0.500028
C79	C	1.142631	0.648686	0.000018
C80	C	1.642631	1.148686	0.500018
C81	C	1.140966	0.554652	0.000013
C82	C	1.640966	1.054652	0.500013
C83	C	0.916313	0.822021	0.000037
C84	C	1.416313	1.322021	0.500037
C85	C	1.068850	0.800504	0.000034
C86	C	1.568850	1.300504	0.500034
C87	C	0.989278	0.123178	-0.592773
C88	C	1.489278	0.623178	-0.092773
C89	C	0.920347	0.197006	-0.553611
C90	C	1.420347	0.697006	-0.053611
C91	C	0.920506	0.197275	-0.446523
C92	C	1.420506	0.697275	0.053477
C93	C	0.989248	0.123188	-0.407182
C94	C	1.489248	0.623188	0.092818
C95	C	1.076638	0.143717	-0.446018
C96	C	1.576638	0.643717	0.053982
C97	C	1.076251	0.144241	-0.553139
C98	C	1.576251	0.644241	-0.053139
C99	C	0.971598	0.028603	-0.553301
C100	C	1.471598	0.528603	-0.053301
C101	C	0.969595	0.029234	-0.446173
C102	C	1.469595	0.529234	0.053827
C103	C	0.989236	0.123192	-0.302294
C104	C	1.489236	0.623192	0.197706
C105	C	0.989295	0.123177	-0.697661
C106	C	1.489295	0.623177	-0.197661
N107	N	0.989307	0.123169	0.218726
N108	N	1.489307	0.623169	0.718726
H109	H	0.419193	0.109447	-0.153030
H110	H	0.919193	0.609447	0.346970
H111	H	0.418242	0.106202	0.153044
H112	H	0.918242	0.606202	0.653044
H113	H	0.855181	0.184979	-0.579400
H114	H	1.355181	0.684979	-0.079400
H115	H	0.855551	0.185046	-0.420268
H116	H	1.355551	0.685046	0.079732
H117	H	1.129163	0.091374	-0.420532
H118	H	1.629163	0.591374	0.079468
H119	H	1.092571	0.211903	-0.419182
H120	H	1.592571	0.711903	0.080818
H121	H	1.202388	0.507601	0.000005
H122	H	1.702388	1.007601	0.500005
H123	H	0.545357	0.262377	0.062732
H124	H	1.045357	0.762377	0.562732
H125	H	0.575400	0.002790	0.091433
H126	H	1.075400	0.502790	0.591433
O127	O	1.152007	0.839611	0.000043
O128	O	1.652007	1.339611	0.500043
H129	H	1.204182	0.783635	0.000044
H130	H	1.704182	1.283635	0.500044
O131	O	1.031762	-0.046959	-0.410715
O132	O	1.531762	0.453041	0.089285
H133	H	1.065337	-0.082015	-0.469951
H134	H	1.565337	0.417985	0.030049
H135	H	0.909251	0.008859	-0.580369
H136	H	1.409251	0.508859	-0.080369
O137	O	0.427785	-0.024625	0.091625
O138	O	0.927785	0.475375	0.591625
H139	H	0.388861	-0.039190	0.031089
H140	H	0.888861	0.460810	0.531089
H141	H	0.905309	0.013655	-0.420792
H142	H	1.405309	0.513655	0.079208
H143	H	1.205404	0.678219	0.000035
H144	H	1.705404	1.178219	0.500035
O145	O	1.038170	-0.044179	-0.586850
O146	O	1.538170	0.455821	-0.086850
H147	H	1.083636	-0.013204	-0.631421
H148	H	1.583636	0.486796	-0.131421
O149	O	1.096865	0.235599	-0.586237
O150	O	1.596865	0.735599	-0.086237
H151	H	1.107011	0.278991	-0.525731
H152	H	1.607011	0.778991	-0.025731
O153	O	0.756182	0.754038	0.000031
O154	O	1.256182	1.254038	0.500031
H155	H	0.719300	0.741142	0.062664
H156	H	1.219300	1.241142	0.562664
O157	O	0.391326	0.272468	-0.082773
O158	O	0.891326	0.772468	0.417227
H159	H	0.442164	0.298600	-0.123593
H160	H	0.942164	0.798600	0.376407
H161	H	0.563974	0.106178	-0.153491
H162	H	1.063974	0.606178	0.346509
H163	H	0.431081	0.000844	-0.093777
H164	H	0.931081	0.500844	0.406223
H165	H	1.129153	0.092589	-0.579043
H166	H	1.629153	0.592589	-0.079043
H167	H	0.544213	0.262974	-0.062782
H168	H	1.044213	0.762974	0.437218
H169	H	0.401210	0.259818	0.063521
H170	H	0.901210	0.759818	0.563521
H171	H	0.561585	0.110414	0.153408
H172	H	1.061585	0.610414	0.653408
O173	O	0.935106	0.289454	-0.589243
O174	O	1.435106	0.789454	-0.089243
H175	H	0.991324	0.283050	-0.634723
H176	H	1.491324	0.783050	-0.134723
H177	H	0.575146	0.001047	-0.087923
H178	H	1.075146	0.501047	0.412077
O179	O	0.935481	0.290235	-0.412556
O180	O	1.435481	0.790235	0.087444
H181	H	0.942646	0.335171	-0.472642
H182	H	1.442646	0.835171	0.027358
O183	O	1.143575	0.362045	0.000000
O184	O	1.643575	0.862045	0.500000
H185	H	1.129473	0.290564	-0.000002
H186	H	1.629473	0.790564	0.499998
H187	H	0.846902	0.416350	0.000029
H188	H	1.346902	0.916350	0.500029
H189	H	0.773125	0.568161	0.000044
H190	H	1.273125	1.068161	0.500044
H191	H	0.854889	0.869060	0.000050
H192	H	1.354889	1.369060	0.500050
