data_functionalizedCrystal
_audit_creation_method	'MofGen! by Chris Wilmer'
_symmetry_space_group_name_H-M	'P1'
_symmetry_Int_Tables_number	1
_symmetry_cell_setting	triclinic
loop_
_symmetry_equiv_pos_as_xyz
  x,y,z
_cell_length_a	25.639243
_cell_length_b	25.639239
_cell_length_c	16.625539
_cell_angle_alpha	89.968745
_cell_angle_beta	89.976850
_cell_angle_gamma	90.041410
loop_
_atom_site_label
_atom_site_type_symbol
_atom_site_fract_x
_atom_site_fract_y
_atom_site_fract_z
Zn1	Zn	0.799262	-0.208112	-0.455948
Zn2	Zn	1.299262	0.291888	0.044052
Zn3	Zn	0.799175	-0.295550	-0.321109
Zn4	Zn	1.299175	0.204450	0.178891
Zn5	Zn	0.711828	-0.208134	-0.321123
Zn6	Zn	1.211828	0.291866	0.178877
Zn7	Zn	0.711784	-0.295522	-0.455892
Zn8	Zn	1.211784	0.204478	0.044108
O9	O	0.755512	-0.251830	-0.388518
O10	O	1.255512	0.248170	0.111482
O11	O	0.872416	-0.219713	-0.438079
O12	O	1.372416	0.280287	0.061921
O13	O	0.787570	-0.283975	-0.208278
O14	O	1.287570	0.216025	0.291722
O15	O	0.723481	-0.134966	-0.339037
O16	O	1.223481	0.365034	0.160963
O17	O	0.872351	-0.283953	-0.339013
O18	O	1.372351	0.216047	0.160987
O19	O	0.787719	-0.134950	-0.438093
O20	O	1.287719	0.365050	0.061907
O21	O	0.723396	-0.219751	-0.208288
O22	O	1.223396	0.280249	0.291712
O23	O	0.638657	-0.219724	-0.338983
O24	O	1.138657	0.280276	0.161017
O25	O	0.723406	-0.283906	-0.568732
O26	O	1.223406	0.216094	-0.068732
O27	O	0.638624	-0.283928	-0.437997
O28	O	1.138624	0.216072	0.062003
O29	O	0.787676	-0.219686	-0.568773
O30	O	1.287676	0.280314	-0.068773
O31	O	0.787527	-0.368711	-0.338959
O32	O	1.287527	0.131289	0.161041
O33	O	0.723321	-0.368691	-0.437984
O34	O	1.223321	0.131309	0.062016
C35	C	0.619669	-0.251826	-0.388486
C36	C	1.119669	0.248174	0.111514
C37	C	0.561555	-0.251837	-0.388491
C38	C	1.061555	0.248163	0.111509
C39	C	0.201220	-0.218432	-0.440188
C40	C	0.701220	0.281568	0.059812
C41	C	0.146616	-0.218432	-0.440193
C42	C	0.646616	0.281568	0.059807
O43	O	0.118403	-0.190020	-0.484107
O44	O	0.618403	0.309980	0.015893
N45	N	0.119273	-0.251828	-0.388540
N46	N	0.619273	0.248172	0.111460
C47	C	0.146537	-0.285223	-0.336873
C48	C	0.646537	0.214777	0.163127
O49	O	0.118266	-0.313629	-0.292939
O50	O	0.618266	0.186371	0.207061
C51	C	0.201140	-0.285221	-0.336865
C52	C	0.701140	0.214779	0.163135
C53	C	0.228481	-0.251826	-0.388527
C54	C	0.728481	0.248174	0.111473
C55	C	0.228560	-0.185040	-0.491845
C56	C	0.728560	0.314960	0.008155
C57	C	0.283161	-0.185041	-0.491841
C58	C	0.783161	0.314959	0.008159
C59	C	0.310421	-0.218435	-0.440179
C60	C	0.810421	0.281565	0.059821
C61	C	0.283081	-0.251827	-0.388523
C62	C	0.783081	0.248173	0.111477
C63	C	0.228404	-0.318613	-0.285195
C64	C	0.728404	0.181387	0.214805
C65	C	0.283011	-0.318607	-0.285190
C66	C	0.783011	0.181393	0.214810
C67	C	0.310351	-0.285212	-0.336852
C68	C	0.810351	0.214788	0.163148
C69	C	0.364942	-0.285222	-0.336857
C70	C	0.864942	0.214778	0.163143
N71	N	0.392285	-0.251826	-0.388510
N72	N	0.892285	0.248174	0.111490
C73	C	0.365025	-0.218432	-0.440171
C74	C	0.865025	0.281568	0.059829
C75	C	0.031866	-0.285225	-0.336894
C76	C	0.531866	0.214775	0.163106
C77	C	-0.022736	-0.285231	-0.336906
C78	C	0.477264	0.214769	0.163094
C79	C	-0.022653	-0.218439	-0.440225
C80	C	0.477347	0.281561	0.059775
C81	C	0.031950	-0.218436	-0.440216
C82	C	0.531950	0.281564	0.059784
C83	C	0.059209	-0.251829	-0.388547
C84	C	0.559209	0.248171	0.111453
C85	C	0.479690	-0.218438	-0.440159
C86	C	0.979690	0.281562	0.059841
C87	C	0.534295	-0.218443	-0.440153
C88	C	1.034295	0.281557	0.059847
C89	C	0.534208	-0.285233	-0.336831
C90	C	1.034208	0.214767	0.163169
C91	C	0.479607	-0.285230	-0.336840
C92	C	0.979607	0.214770	0.163160
C93	C	0.452349	-0.251828	-0.388507
C94	C	0.952349	0.248172	0.111493
O95	O	0.393190	-0.313618	-0.292963
O96	O	0.893190	0.186382	0.207037
O97	O	0.393303	-0.190026	-0.484091
O98	O	0.893303	0.309974	0.015909
C99	C	0.755424	-0.387672	-0.388481
C100	C	1.255424	0.112328	0.111519
C101	C	0.755434	-0.445786	-0.388492
C102	C	1.255434	0.054214	0.111508
C103	C	0.789031	-0.806147	-0.337044
C104	C	1.289031	-0.306147	0.162956
C105	C	0.789052	-0.860751	-0.337054
C106	C	1.289052	-0.360751	0.162946
O107	O	0.817526	-0.888986	-0.293270
O108	O	1.317526	-0.388986	0.206730
N109	N	0.755604	-0.888069	-0.388571
N110	N	1.255604	-0.388069	0.111429
C111	C	0.722138	-0.860779	-0.440087
C112	C	1.222138	-0.360779	0.059913
O113	O	0.693690	-0.889028	-0.483908
O114	O	1.193690	-0.389028	0.016092
C115	C	0.722120	-0.806175	-0.440080
C116	C	1.222120	-0.306175	0.059920
C117	C	0.755566	-0.778861	-0.388553
C118	C	1.255566	-0.278861	0.111447
C119	C	0.822475	-0.778833	-0.285522
C120	C	1.322475	-0.278833	0.214478
C121	C	0.822454	-0.724232	-0.285510
C122	C	1.322454	-0.224232	0.214490
C123	C	0.788989	-0.696946	-0.337020
C124	C	1.288989	-0.196946	0.162980
C125	C	0.755545	-0.724260	-0.388542
C126	C	1.255545	-0.224260	0.111458
C127	C	0.688657	-0.778886	-0.491599
C128	C	1.188657	-0.278886	0.008401
C129	C	0.688643	-0.724279	-0.491587
C130	C	1.188643	-0.224279	0.008413
C131	C	0.722089	-0.696965	-0.440061
C132	C	1.222089	-0.196965	0.059939
C133	C	0.722059	-0.642374	-0.440040
C134	C	1.222059	-0.142374	0.059960
N135	N	0.755507	-0.615057	-0.388523
N136	N	1.255507	-0.115057	0.111477
C137	C	0.788972	-0.642343	-0.337013
C138	C	1.288972	-0.142343	0.162987
C139	C	0.722177	-0.975449	-0.440099
C140	C	1.222177	-0.475449	0.059901
C141	C	0.722191	-1.030051	-0.440103
C142	C	1.222191	-0.530051	0.059897
C143	C	0.789106	-1.030021	-0.337071
C144	C	1.289106	-0.530021	0.162929
C145	C	0.789089	-0.975417	-0.337064
C146	C	1.289089	-0.475417	0.162936
C147	C	0.755625	-0.948132	-0.388582
C148	C	1.255625	-0.448132	0.111418
C149	C	0.788925	-0.527678	-0.336992
C150	C	1.288925	-0.027678	0.163008
C151	C	0.788899	-0.473072	-0.336982
C152	C	1.288899	0.026928	0.163018
C153	C	0.721987	-0.473108	-0.440017
C154	C	1.221987	0.026892	0.059983
C155	C	0.722010	-0.527709	-0.440024
C156	C	1.222010	-0.027709	0.059976
C157	C	0.755483	-0.554992	-0.388508
C158	C	1.255483	-0.054992	0.111492
O159	O	0.693601	-0.614104	-0.483804
O160	O	1.193601	-0.114104	0.016196
O161	O	0.817419	-0.614087	-0.293207
O162	O	1.317419	-0.114087	0.206793
C163	C	0.891885	-0.251833	-0.388551
C164	C	1.391885	0.248167	0.111449
C165	C	0.949999	-0.251835	-0.388564
C166	C	1.449999	0.248165	0.111436
C167	C	0.755546	-0.251791	-0.598827
C168	C	1.255546	0.248209	-0.098827
C169	C	0.755561	-0.251774	-0.688448
C170	C	1.255561	0.248226	-0.188448
C171	C	0.755615	-0.115456	-0.388573
C172	C	1.255615	0.384544	0.111427
C173	C	0.755658	-0.057342	-0.388596
C174	C	1.255658	0.442658	0.111404
C175	C	0.755585	-0.251715	-1.016624
C176	C	1.255585	0.248285	-0.516624
C177	C	0.755576	-0.251733	-0.925316
C178	C	1.255576	0.248267	-0.425316
C179	C	0.755573	-0.251745	-0.852539
C180	C	1.255573	0.248255	-0.352539
C181	C	0.755564	-0.251762	-0.761225
C182	C	1.255564	0.248238	-0.261225
C183	C	0.755508	-0.251831	-0.179027
C184	C	1.255508	0.248169	0.320973
C185	C	0.755595	-0.251700	-0.089407
C186	C	1.255595	0.248300	0.410593
H187	H	0.305417	-0.157847	-0.533908
H188	H	0.805417	0.342153	-0.033908
H189	H	-0.044992	-0.312430	-0.294847
H190	H	0.455008	0.187570	0.205153
H191	H	0.206153	-0.345806	-0.243125
H192	H	0.706153	0.154194	0.256875
N193	N	-0.052055	-0.182414	-0.495945
N194	N	0.447945	0.317586	0.004055
H195	H	-0.074716	-0.203690	-0.533254
H196	H	0.425284	0.296310	-0.033254
H197	H	-0.074671	-0.158166	-0.463185
H198	H	0.425329	0.341834	0.036815
N199	N	0.563781	-0.182425	-0.495880
N200	N	1.063781	0.317575	0.004120
H201	H	0.554303	-0.145057	-0.483462
H202	H	1.054303	0.354943	0.016538
H203	H	0.602500	-0.187536	-0.488018
H204	H	1.102500	0.312464	0.011982
N205	N	0.061435	-0.182419	-0.495939
N206	N	0.561435	0.317581	0.004061
H207	H	0.084098	-0.158159	-0.463243
H208	H	0.584098	0.341841	0.036757
H209	H	0.084056	-0.203737	-0.533228
H210	H	0.584056	0.296263	-0.033228
H211	H	0.849729	-0.801043	-0.243576
H212	H	1.349729	-0.301043	0.256424
N213	N	0.825164	-0.945959	-0.281493
N214	N	1.325164	-0.445959	0.218507
H215	H	0.846364	-0.971535	-0.248865
H216	H	1.346364	-0.471535	0.251135
H217	H	0.849343	-0.923267	-0.314347
H218	H	1.349343	-0.423267	0.185653
N219	N	0.652590	-0.808342	-0.547180
N220	N	1.152590	-0.308342	-0.047180
H221	H	0.628375	-0.831038	-0.514392
H222	H	1.128375	-0.331038	-0.014392
H223	H	0.631427	-0.782733	-0.579801
H224	H	1.131427	-0.282733	-0.079801
N225	N	0.825201	-1.059456	-0.281512
N226	N	1.325201	-0.559456	0.218488
H227	H	0.820136	-1.098191	-0.289341
H228	H	1.320136	-0.598191	0.210659
H229	H	0.862535	-1.049869	-0.294116
H230	H	1.362535	-0.549869	0.205884
N231	N	0.450295	-0.182410	-0.495879
N232	N	0.950295	0.317590	0.004121
H233	H	0.475907	-0.161259	-0.528599
H234	H	0.975907	0.338741	-0.028599
H235	H	0.427635	-0.203720	-0.533140
H236	H	0.927635	0.296280	-0.033140
H237	H	0.661393	-0.702066	-0.533542
H238	H	1.161393	-0.202066	-0.033542
N239	N	0.312412	-0.354622	-0.229457
N240	N	0.812412	0.145378	0.270543
H241	H	0.286803	-0.375775	-0.196734
H242	H	0.786803	0.124225	0.303266
H243	H	0.335059	-0.378848	-0.262203
H244	H	0.835059	0.121152	0.237797
H245	H	0.054058	-0.312423	-0.294821
H246	H	0.554058	0.187577	0.205179
N247	N	0.199163	-0.149014	-0.547561
N248	N	0.699163	0.350986	-0.047561
H249	H	0.224777	-0.127861	-0.580276
H250	H	0.724777	0.372139	-0.080276
H251	H	0.176505	-0.170322	-0.584825
H252	H	0.676505	0.329678	-0.084825
H253	H	0.694738	-0.450883	-0.481953
H254	H	1.194738	0.049117	0.018047
H255	H	0.556413	-0.312423	-0.294772
H256	H	1.056413	0.187577	0.205228
H257	H	0.694951	-1.052286	-0.482054
H258	H	1.194951	-0.552286	0.017946
H259	H	0.694777	-0.549949	-0.481983
H260	H	1.194777	-0.049949	0.018017
N261	N	0.450111	-0.321244	-0.281122
N262	N	0.950111	0.178756	0.218878
H263	H	0.427443	-0.345499	-0.313818
H264	H	0.927443	0.154501	0.186182
H265	H	0.475698	-0.342366	-0.248404
H266	H	0.975698	0.157634	0.251596
N267	N	0.858537	-0.694777	-0.229949
N268	N	1.358537	-0.194777	0.270051
H269	H	0.837305	-0.672158	-0.192538
H270	H	1.337305	-0.172158	0.307462
H271	H	0.879732	-0.720389	-0.197383
H272	H	1.379732	-0.220389	0.302617
H273	H	0.816183	-0.549885	-0.295045
H274	H	1.316183	-0.049885	0.204955
N275	N	0.824976	-0.443612	-0.281408
N276	N	1.324976	0.056388	0.218592
H277	H	0.846180	-0.469187	-0.248783
H278	H	1.346180	0.030813	0.251217
H279	H	0.849151	-0.420917	-0.314263
H280	H	1.349151	0.079083	0.185737
H281	H	0.694922	-0.953236	-0.482049
H282	H	1.194922	-0.453236	0.017951
