data_functionalizedCrystal
_audit_creation_method	'MofGen! by Chris Wilmer'
_symmetry_space_group_name_H-M	'P1'
_symmetry_Int_Tables_number	1
_symmetry_cell_setting	triclinic
loop_
_symmetry_equiv_pos_as_xyz
  x,y,z
_cell_length_a	16.704494
_cell_length_b	14.628931
_cell_length_c	14.628931
_cell_angle_alpha	60.000000
_cell_angle_beta	90.000492
_cell_angle_gamma	56.632323
loop_
_atom_site_label
_atom_site_type_symbol
_atom_site_fract_x
_atom_site_fract_y
_atom_site_fract_z
Zr1	Zr	0.815200	0.905007	-0.072169
O2	O	0.680083	1.111553	-0.226051
O3	O	0.856620	0.709446	-0.024995
O4	O	0.856621	0.900151	-0.215701
O5	O	0.680082	0.920849	0.115086
O6	O	0.995877	0.883825	-0.207536
O7	O	0.680082	0.920848	-0.035346
O8	O	0.995876	0.542689	0.133601
O9	O	0.680083	1.261985	-0.226051
O10	O	0.978211	0.773631	0.001216
O11	O	0.874286	0.785815	0.107389
O12	O	0.874286	1.010346	-0.117142
O13	O	0.770360	1.022530	-0.010970
Zr14	Zr	1.037298	0.878970	0.180774
Zr15	Zr	1.037298	0.878969	-0.059147
Zr16	Zr	0.815199	0.905008	0.167753
Zr17	Zr	0.815200	1.144929	-0.072169
Zr18	Zr	1.037297	0.639049	0.180774
O19	O	0.995877	1.074532	0.133600
O20	O	0.995878	1.074531	-0.207537
O21	O	0.680082	1.111554	0.115086
O22	O	1.172415	0.672424	0.334656
O23	O	1.172415	0.672423	-0.006481
O24	O	0.856620	0.709447	0.316142
O25	O	1.172416	0.863129	-0.006481
O26	O	0.995877	0.883827	0.324306
O27	O	0.856620	0.900152	0.316141
O28	O	1.172415	0.863129	0.143951
O29	O	0.856621	1.241288	-0.215701
O30	O	0.995876	0.542689	0.324306
O31	O	1.172415	0.521992	0.334656
O32	O	1.172415	0.521992	0.143951
O33	O	0.680083	1.261986	-0.035346
O34	O	0.856621	1.241289	-0.024996
O35	O	0.978211	0.773632	0.225747
O36	O	1.082137	0.761448	0.119575
O37	O	0.978212	0.998162	0.001216
O38	O	0.874286	1.010346	0.107389
C39	C	0.926248	0.591884	0.054303
C40	C	0.926248	0.490031	0.054303
C41	C	0.648438	0.924558	0.038015
C42	C	0.554151	0.935612	0.032487
C43	C	0.977802	0.438577	0.001634
C44	C	0.977803	0.333307	0.001633
C45	C	0.485483	0.709231	0.145694
C46	C	0.396895	0.719611	0.140503
C47	C	0.288387	0.966750	0.016922
C48	C	0.376975	0.956370	0.022113
C49	C	0.475522	0.827606	0.086499
C50	C	0.564110	0.817228	0.091683
C51	C	0.455601	1.064366	-0.031891
C52	C	0.367014	1.074745	-0.037081
C53	C	1.204060	0.859419	0.070590
C54	C	1.298346	0.848365	0.076118
C55	C	0.926249	0.891988	-0.245802
C56	C	0.926249	0.891987	-0.347655
C57	C	0.926249	1.192094	0.054302
C58	C	0.926249	1.293947	0.054302
C59	C	0.874695	1.009414	-0.451778
C60	C	0.874694	1.009416	-0.557050
C61	C	0.926248	0.891990	0.354407
C62	C	0.926248	0.891990	0.456260
C63	C	1.204059	0.559314	0.070590
C64	C	1.298346	0.446407	0.076118
C65	C	0.926248	0.591884	0.354408
C66	C	0.926248	0.490032	0.456261
C67	C	1.204059	0.559315	0.370695
C68	C	1.298345	0.446409	0.478076
C69	C	0.648439	1.224662	-0.262090
C70	C	0.554152	1.337569	-0.369471
C71	C	0.648438	1.224663	0.038015
C72	C	0.554152	1.337570	0.032487
C73	C	0.926250	1.192093	-0.245803
C74	C	0.926250	1.293946	-0.347656
C75	C	1.288376	0.399745	0.016922
C76	C	1.376959	0.293671	0.022094
C77	C	1.475512	0.234255	0.086468
C78	C	1.485480	0.280928	0.145665
C79	C	1.396897	0.387006	0.140487
C80	C	1.396880	0.387025	0.473083
C81	C	1.485481	0.280950	0.573970
C82	C	1.475544	0.234254	0.679849
C83	C	1.376998	0.293647	0.684839
C84	C	1.288400	0.399727	0.583953
C85	C	0.455617	1.396964	-0.364478
C86	C	0.367017	1.503069	-0.465365
C87	C	0.376954	1.549770	-0.571244
C88	C	0.475499	1.490370	-0.576234
C89	C	0.564098	1.384274	-0.475348
C90	C	0.564122	1.384243	0.091673
C91	C	0.475538	1.490343	0.086475
C92	C	0.376986	1.549762	0.022097
C93	C	0.367018	1.503085	-0.037096
C94	C	0.455600	1.396993	-0.031904
C95	C	0.977802	0.438579	0.560384
C96	C	0.977802	0.333309	0.665655
H97	H	1.021944	0.472453	-0.043452
F98	F	1.183533	0.462911	0.589285
H99	H	0.208139	1.071582	-0.035483
F100	F	0.983937	0.760576	-0.426999
H101	H	0.447506	1.358947	-0.278275
F102	F	1.590350	0.217753	0.568634
H103	H	1.021937	0.289088	-0.043464
F104	F	0.407503	0.593619	0.203508
F105	F	0.590365	0.572194	0.214205
F106	F	1.183496	0.462964	-0.051600
F107	F	0.868548	0.351751	0.113238
F108	F	0.868560	0.351738	0.535605
F109	F	0.486169	1.539996	0.149484
H110	H	1.547694	0.147875	0.761988
F111	F	0.868550	0.445756	0.441603
H112	H	0.286767	1.179580	-0.089499
F113	F	0.282716	1.662673	0.016584
F114	F	1.366438	0.243934	0.797534
H115	H	0.882114	0.456144	0.099397
F116	F	0.262122	1.566335	-0.105605
F117	F	0.262147	1.566265	-0.460029
F118	F	0.282650	1.662689	-0.678607
F119	F	0.486059	1.540086	-0.688929
H120	H	0.644327	1.335915	-0.479427
H121	H	0.447468	1.358997	-0.080098
H122	H	0.830551	1.109950	-0.646368
H123	H	1.021934	0.472468	0.571591
F124	F	1.035501	0.275499	0.782400
F125	F	0.669001	1.321026	0.160193
F126	F	0.983947	0.760580	-0.332998
F127	F	0.445002	1.190357	-0.094918
F128	F	0.668990	0.680188	0.160204
F129	F	0.817009	1.140820	-0.466435
F130	F	1.366328	0.244015	-0.040912
H131	H	1.547633	0.147880	0.090676
H132	H	1.565733	0.232536	0.198077
H133	H	1.405030	0.424985	0.188699
H134	H	1.404991	0.425029	0.386880
