data_functionalizedCrystal
_audit_creation_method	'MofGen! by Chris Wilmer'
_symmetry_space_group_name_H-M	'P1'
_symmetry_Int_Tables_number	1
_symmetry_cell_setting	triclinic
loop_
_symmetry_equiv_pos_as_xyz
  x,y,z
_cell_length_a	9.130313
_cell_length_b	15.995363
_cell_length_c	10.654550
_cell_angle_alpha	96.008837
_cell_angle_beta	89.995873
_cell_angle_gamma	90.000871
loop_
_atom_site_label
_atom_site_type_symbol
_atom_site_fract_x
_atom_site_fract_y
_atom_site_fract_z
O1	O	-0.121692	-1.111919	0.161946
O2	O	-0.121718	-0.868261	0.181919
O3	O	-0.121695	-0.995692	-0.010880
O4	O	-0.121715	-0.984488	0.354744
O5	O	0.121904	-0.995682	-0.010884
O6	O	0.121881	-0.868251	0.181914
O7	O	0.121907	-1.111909	0.161941
Cu8	Cu	0.144136	-0.990079	0.171928
Cu9	Cu	-0.143947	-0.990091	0.171933
O10	O	0.121884	-0.984478	0.354740
C11	C	0.000078	-0.837057	0.181088
C12	C	0.000068	-0.744092	0.178605
C13	C	0.000104	-0.406295	0.169685
C14	C	0.000654	-0.452932	0.032374
C15	C	0.000094	-0.549636	0.034859
C16	C	0.000087	-0.573880	0.174109
C17	C	-0.139017	-0.533193	0.241837
C18	C	-0.139122	-0.436537	0.238381
C19	C	0.137896	-0.436203	0.241213
C20	C	0.139723	-0.533148	0.241187
C21	C	0.000073	-0.668592	0.176617
C22	C	0.000109	-0.311583	0.167181
N23	N	0.346759	-0.990077	0.171923
C24	C	0.423421	-1.046522	0.086588
C25	C	0.576758	-1.046529	0.086589
C26	C	0.576757	-0.933643	0.257271
C27	C	0.423423	-0.933633	0.257263
N28	N	0.653430	-0.990095	0.171932
C29	C	0.000103	-0.994865	-0.057669
C30	C	0.000101	-0.992403	-0.197080
C31	C	0.000112	-0.143115	0.162755
C32	C	0.000123	-0.236083	0.165190
C33	C	0.000108	-1.067433	-0.277541
C34	C	0.000090	-1.065115	-0.408532
C35	C	0.000063	-0.912732	-0.378588
C36	C	0.000071	-0.915050	-0.247600
C37	C	0.000082	-0.985306	0.401529
C38	C	0.000075	-0.987767	0.540941
H39	H	0.148120	-0.549102	0.342732
O40	O	0.651005	-0.878738	0.340216
C41	C	0.550454	-0.828927	0.415551
H42	H	0.441161	-0.827680	0.364056
H43	H	0.534126	-0.856644	0.508873
C44	C	0.744550	-0.740289	0.504590
C45	C	0.610317	-0.738752	0.441338
H46	H	0.781477	-0.684666	0.520502
H47	H	0.812294	-0.773850	0.453839
H48	H	0.730924	-0.763391	0.582351
H49	H	0.623948	-0.715661	0.363572
H50	H	0.542576	-0.705186	0.492076
O51	O	0.651000	-1.101443	0.003649
C52	C	0.550447	-1.151240	-0.071693
H53	H	0.441140	-1.152474	-0.020204
H54	H	0.534156	-1.123519	-0.165014
C55	C	0.744527	-1.239900	-0.160724
C56	C	0.610277	-1.241422	-0.097479
H57	H	0.781433	-1.295528	-0.176636
H58	H	0.812273	-1.206349	-0.109969
H59	H	0.730932	-1.216795	-0.238485
H60	H	0.623876	-1.264517	-0.019714
H61	H	0.542534	-1.274979	-0.148223
H62	H	0.000060	-0.853948	-0.182085
H63	H	0.243334	-0.415403	0.196319
O64	O	0.139216	-0.399114	0.362043
C65	C	0.263241	-0.426364	0.425284
H66	H	0.301991	-0.489287	0.376410
H67	H	0.354576	-0.377930	0.423189
C68	C	0.175404	-0.359276	0.623242
C69	C	0.222989	-0.436563	0.563221
H70	H	0.150579	-0.365564	0.708330
H71	H	0.091848	-0.340914	0.580636
H72	H	0.251525	-0.318923	0.621484
H73	H	0.146863	-0.476912	0.564966
H74	H	0.306532	-0.454932	0.605831
H75	H	0.000130	-1.130418	-0.236413
O76	O	-0.119128	-0.582594	-0.028890
C77	C	-0.207411	-0.624653	0.053078
H78	H	-0.137846	-0.643447	0.134422
H79	H	-0.299340	-0.581165	0.091969
C80	C	-0.359079	-0.680872	-0.119711
C81	C	-0.273634	-0.703962	-0.019808
H82	H	-0.399934	-0.729791	-0.164670
H83	H	-0.299605	-0.652533	-0.174934
H84	H	-0.435675	-0.644630	-0.087286
H85	H	-0.197030	-0.740194	-0.052235
H86	H	-0.333097	-0.732308	0.035408
H87	H	0.361001	-0.887664	0.326754
H88	H	0.000093	-1.126212	-0.474039
H89	H	0.361005	-1.092481	0.017097
O90	O	0.000113	-0.837667	-0.427875
C91	C	0.000076	-0.851707	-0.560742
H92	H	0.046202	-0.916867	-0.591503
H93	H	-0.116792	-0.847442	-0.597197
C94	C	0.038946	-0.704752	-0.577302
C95	C	0.095610	-0.784781	-0.615083
H96	H	0.097869	-0.663467	-0.610824
H97	H	0.038965	-0.695292	-0.487787
H98	H	-0.058443	-0.701210	-0.607684
H99	H	0.192989	-0.788325	-0.584689
H100	H	0.095609	-0.794240	-0.704595
O101	O	0.119705	-0.430329	-0.032954
C102	C	0.204359	-0.372027	0.044557
H103	H	0.132280	-0.339365	0.122184
H104	H	0.297362	-0.406340	0.088887
C105	C	0.357093	-0.346228	-0.130860
C106	C	0.268562	-0.306107	-0.035524
H107	H	0.396703	-0.305567	-0.180257
H108	H	0.300065	-0.385509	-0.183080
H109	H	0.434584	-0.374820	-0.093904
H110	H	0.191063	-0.277525	-0.072481
H111	H	0.325579	-0.266819	0.016689
O112	O	0.118930	-0.583157	-0.028862
C113	C	0.113602	-0.563782	-0.154868
H114	H	-0.004423	-0.550237	-0.181187
H115	H	0.184108	-0.506080	-0.165217
C116	C	0.316930	-0.655497	-0.210652
C117	C	0.171968	-0.638868	-0.242981
H118	H	0.352939	-0.701811	-0.265006
H119	H	0.320524	-0.668548	-0.125759
H120	H	0.375667	-0.607406	-0.219276
H121	H	0.113231	-0.686954	-0.234342
H122	H	0.168366	-0.625826	-0.327876
H123	H	-0.098547	-0.433025	-0.022260
O124	O	-0.262670	-0.566660	0.185916
C125	C	-0.386582	-0.529422	0.247859
H126	H	-0.355399	-0.503195	0.347898
H127	H	-0.428325	-0.476266	0.193997
C128	C	-0.545974	-0.628191	0.130272
C129	C	-0.507677	-0.595985	0.253147
H130	H	-0.620674	-0.669248	0.133530
H131	H	-0.462493	-0.653277	0.088536
H132	H	-0.580751	-0.583887	0.085401
H133	H	-0.472884	-0.640286	0.298010
H134	H	-0.591155	-0.570908	0.294890
O135	O	-0.146864	-0.398659	0.358575
C136	C	-0.274251	-0.348723	0.372471
H137	H	-0.310475	-0.331396	0.276125
H138	H	-0.365249	-0.385421	0.415355
C139	C	-0.197057	-0.289291	0.578203
C140	C	-0.241540	-0.268003	0.459870
H141	H	-0.176884	-0.239500	0.632119
H142	H	-0.111236	-0.322936	0.568844
H143	H	-0.272896	-0.319874	0.613922
H144	H	-0.165695	-0.237430	0.424146
H145	H	-0.327348	-0.234351	0.469225
O146	O	-0.263117	-0.414203	0.179533
C147	C	-0.264806	-0.326375	0.175603
H148	H	-0.192075	-0.295159	0.253930
H149	H	-0.222018	-0.310848	0.080228
C150	C	-0.512031	-0.331916	0.098135
C151	C	-0.422710	-0.293576	0.194345
H152	H	-0.609433	-0.311683	0.109690
H153	H	-0.510892	-0.391088	0.100779
H154	H	-0.476356	-0.318973	0.018665
H155	H	-0.458375	-0.306527	0.273811
H156	H	-0.423859	-0.234405	0.191715
O157	O	-0.145471	-0.550791	0.363856
C158	C	-0.275616	-0.595142	0.383137
H159	H	-0.359949	-0.581595	0.309008
H160	H	-0.251561	-0.665444	0.374754
C161	C	-0.232777	-0.583564	0.606708
C162	C	-0.336360	-0.566919	0.515667
H163	H	-0.270244	-0.566158	0.688459
H164	H	-0.145092	-0.553686	0.593718
H165	H	-0.212740	-0.642149	0.599706
H166	H	-0.356381	-0.508334	0.522659
H167	H	-0.424050	-0.596786	0.528661
H168	H	0.242631	-0.560173	0.191746
