data_functionalizedCrystal
_audit_creation_method	'MofGen! by Chris Wilmer'
_symmetry_space_group_name_H-M	'P1'
_symmetry_Int_Tables_number	1
_symmetry_cell_setting	triclinic
loop_
_symmetry_equiv_pos_as_xyz
  x,y,z
_cell_length_a	20.299480
_cell_length_b	20.298645
_cell_length_c	20.294903
_cell_angle_alpha	60.007695
_cell_angle_beta	60.015306
_cell_angle_gamma	59.991039
loop_
_atom_site_label
_atom_site_type_symbol
_atom_site_fract_x
_atom_site_fract_y
_atom_site_fract_z
O1	O	0.091305	-0.962534	0.804873
O2	O	0.034397	-0.749399	0.648508
O3	O	0.169355	-0.884263	0.648401
O4	O	-0.043654	-0.827670	0.804979
O5	O	0.214132	-0.839502	0.693072
O6	O	0.079173	-0.704639	0.693178
O7	O	0.136081	-0.917774	0.849544
Zn8	Zn	0.114736	-0.804099	0.778453
Zn9	Zn	0.055742	-0.863073	0.719598
O10	O	0.001122	-0.782910	0.849650
N11	N	0.155000	-0.763857	0.818624
N12	N	0.015485	-0.903322	0.679427
C13	C	0.179343	-0.615641	0.842971
C14	C	0.179443	-0.739552	0.966834
C15	C	0.303264	-0.739536	0.842917
C16	C	0.179356	-0.739528	0.842952
C17	C	0.210353	-0.708565	0.873918
C18	C	-0.132622	-0.927446	0.654695
C19	C	-0.008595	-0.927622	0.530981
C20	C	-0.008820	-1.051459	0.654914
C21	C	-0.008800	-0.927618	0.654995
C22	C	-0.039709	-0.958538	0.623897
N23	N	0.376268	-0.763873	0.818558
O24	O	0.652281	-0.777347	0.619856
O25	O	0.652556	-0.934198	0.832777
O26	O	0.652445	-0.933836	0.697731
O27	O	0.652392	-0.777709	0.754902
O28	O	0.518259	-0.889182	0.742556
O29	O	0.518369	-0.889544	0.877602
O30	O	0.518095	-0.732693	0.664680
Zn31	Zn	0.496927	-0.804029	0.778258
Zn32	Zn	0.673724	-0.862862	0.719200
O33	O	0.518205	-0.733055	0.799726
N34	N	0.794383	-0.903019	0.678891
N35	N	0.154981	-0.542636	0.818657
O36	O	-0.043628	-0.266455	0.805024
O37	O	0.169291	-0.266451	0.648191
O38	O	0.034217	-0.266468	0.648577
O39	O	0.091446	-0.266438	0.804638
O40	O	0.078998	-0.400670	0.693303
O41	O	0.214071	-0.400653	0.692918
O42	O	0.001152	-0.400657	0.849750
Zn43	Zn	0.114722	-0.421963	0.778435
Zn44	Zn	0.055722	-0.245145	0.719506
O45	O	0.136226	-0.400640	0.849364
N46	N	0.015453	-0.124472	0.679286
N47	N	0.155155	-0.763898	1.039838
O48	O	0.141555	-0.962488	1.315987
O49	O	-0.015254	-0.749480	1.316022
O50	O	-0.014890	-0.884527	1.315962
O51	O	0.141192	-0.827441	1.316047
O52	O	0.029815	-0.839777	1.181768
O53	O	0.029452	-0.704730	1.181828
O54	O	0.186261	-0.917739	1.181793
Zn55	Zn	0.114954	-0.804130	1.160504
Zn56	Zn	0.056053	-0.863089	1.337311
O57	O	0.185897	-0.782692	1.181853
N58	N	0.015850	-0.903330	1.457977
C59	C	0.051451	-0.700162	0.649301
C60	C	0.218580	-0.867175	0.649169
C61	C	0.119026	-0.967011	0.848750
C62	C	-0.048103	-0.799998	0.848882
C63	C	0.585495	-0.933471	0.882014
C64	C	0.585361	-0.933023	0.714775
C65	C	0.585151	-0.733419	0.615444
C66	C	0.585291	-0.733869	0.782682
C67	C	0.218449	-0.333386	0.648902
C68	C	0.051232	-0.333573	0.649435
C69	C	-0.048061	-0.333556	0.848984
C70	C	0.119212	-0.333537	0.848507
C71	C	-0.014496	-0.700269	1.248929
C72	C	-0.014037	-0.867500	1.248828
C73	C	0.185503	-0.966949	1.248886
C74	C	0.185054	-0.799709	1.248957
H75	H	0.039295	-0.638935	0.600193
C76	C	0.585596	-0.999998	0.964624
C77	C	0.655321	-1.031760	0.995255
C78	C	0.655422	-1.098287	1.077865
C79	C	0.585799	-1.133051	1.129843
C80	C	0.516069	-1.101289	1.099213
C81	C	0.515968	-1.034762	1.016603
H82	H	0.706865	-1.006026	0.956777
H83	H	0.707041	-1.121799	1.100540
H84	H	0.585873	-1.182298	1.190996
H85	H	0.464525	-1.127023	1.137691
H86	H	0.464349	-1.011249	0.993929
C87	C	0.034685	-0.333583	0.583197
C88	C	0.012424	-0.403277	0.598127
C89	C	-0.004122	-0.403287	0.531889
C90	C	0.001592	-0.333603	0.450721
C91	C	0.023854	-0.263904	0.435788
C92	C	0.040400	-0.263894	0.502026
H93	H	0.008194	-0.454865	0.658215
H94	H	-0.020602	-0.454883	0.542944
H95	H	-0.010657	-0.333611	0.401688
H96	H	0.028085	-0.212316	0.375699
H97	H	0.056880	-0.212298	0.490970
H98	H	0.234089	-0.787495	1.248972
C99	C	0.585037	-0.666888	0.532839
C100	C	0.654665	-0.681501	0.455661
C101	C	0.654551	-0.614970	0.373056
C102	C	0.584809	-0.533825	0.367628
C103	C	0.515176	-0.519209	0.444809
C104	C	0.515290	-0.585740	0.527415
H105	H	0.706297	-0.741572	0.459676
H106	H	0.706098	-0.625790	0.315921
H107	H	0.584724	-0.484575	0.306479
H108	H	0.463544	-0.459138	0.440794
H109	H	0.463742	-0.574919	0.584549
H110	H	0.131184	-1.028235	0.897860
H111	H	0.585383	-0.982069	0.702538
H112	H	0.131466	-0.333527	0.897533
H113	H	0.279471	-0.333012	0.599542
H114	H	0.585279	-0.684826	0.794916
C115	C	0.301227	-0.883465	0.582738
C116	C	0.367657	-0.966148	0.598999
C117	C	0.450304	-0.982438	0.532569
C118	C	0.466522	-0.916045	0.449878
C119	C	0.400090	-0.833356	0.433614
C120	C	0.317443	-0.817066	0.500044
H121	H	0.355653	-1.015301	0.660214
H122	H	0.499480	-1.043649	0.544609
H123	H	0.527702	-0.928103	0.400703
H124	H	0.412094	-0.784203	0.372399
H125	H	0.268267	-0.755854	0.488004
H126	H	0.234736	-1.028122	1.248866
C127	C	-0.130666	-0.333554	0.915504
C128	C	-0.197182	-0.333564	0.899400
C129	C	-0.279787	-0.333563	0.965919
C130	C	-0.295876	-0.333551	1.048543
C131	C	-0.229358	-0.333542	1.064652
C132	C	-0.146754	-0.333543	0.998132
H133	H	-0.185273	-0.333572	0.838233
H134	H	-0.329027	-0.333570	0.953994
H135	H	-0.357025	-0.333550	1.097785
H136	H	-0.241267	-0.333533	1.125818
H137	H	-0.097513	-0.333536	1.010057
H138	H	-0.063726	-0.639093	1.248939
H139	H	-0.063051	-0.879692	1.248749
C140	C	-0.130752	-0.783710	0.915310
C141	C	-0.146971	-0.850104	0.998000
C142	C	-0.229620	-0.833816	1.064428
C143	C	-0.296050	-0.751134	1.048167
C144	C	-0.279833	-0.684734	0.965474
C145	C	-0.197184	-0.701022	0.899045
H146	H	-0.097794	-0.911315	1.010041
H147	H	-0.241624	-0.882969	1.125643
H148	H	-0.357232	-0.739076	1.097341
H149	H	-0.329010	-0.623523	0.953433
H150	H	-0.185180	-0.651869	0.837830
