data_functionalizedCrystal
_audit_creation_method	'MofGen! by Chris Wilmer'
_symmetry_space_group_name_H-M	'P1'
_symmetry_Int_Tables_number	1
_symmetry_cell_setting	triclinic
loop_
_symmetry_equiv_pos_as_xyz
  x,y,z
_cell_length_a	19.188905
_cell_length_b	19.188930
_cell_length_c	18.266242
_cell_angle_alpha	89.993204
_cell_angle_beta	89.986531
_cell_angle_gamma	83.139668
loop_
_atom_site_label
_atom_site_type_symbol
_atom_site_fract_x
_atom_site_fract_y
_atom_site_fract_z
O1	O	0.926158	0.087081	-0.061010
O2	O	1.426158	0.587081	0.438990
O3	O	0.722844	0.098834	-0.060986
O4	O	1.222844	0.598834	0.439014
O5	O	0.830369	-0.008699	-0.060984
O6	O	1.330369	0.491301	0.439016
O7	O	0.818634	0.194613	-0.061011
O8	O	1.318634	0.694613	0.438989
O9	O	0.830355	-0.008695	0.060778
O10	O	1.330355	0.491305	0.560778
O11	O	0.722831	0.098837	0.060776
O12	O	1.222831	0.598837	0.560776
O13	O	0.926144	0.087084	0.060752
O14	O	1.426144	0.587084	0.560752
Zn15	Zn	0.824485	0.092961	0.080097
Zn16	Zn	1.324485	0.592961	0.580097
Zn17	Zn	0.824504	0.092957	-0.080330
Zn18	Zn	1.324504	0.592957	0.419670
O19	O	0.818620	0.194617	0.060751
O20	O	1.318620	0.694617	0.560751
C21	C	0.696826	0.098458	-0.000102
C22	C	1.196826	0.598458	0.499898
C23	C	0.619321	0.097324	-0.000092
C24	C	1.119321	0.597324	0.499908
C25	C	0.582937	0.096777	-0.066466
C26	C	1.082937	0.596777	0.433534
C27	C	0.510113	0.095704	-0.066475
C28	C	1.010113	0.595704	0.433525
C29	C	0.473678	0.095164	-0.000106
C30	C	0.973678	0.595164	0.499894
C31	C	0.510071	0.095714	0.066277
C32	C	1.010071	0.595714	0.566277
C33	C	0.582892	0.096794	0.066284
C34	C	1.082892	0.596794	0.566284
N35	N	0.364652	0.053737	0.049292
N36	N	0.864652	0.553737	0.549292
N37	N	0.295475	0.052709	0.049280
N38	N	0.795475	0.552709	0.549280
C39	C	0.254272	0.091911	-0.000123
C40	C	0.754272	0.591911	0.499877
N41	N	0.284859	0.132171	-0.049526
N42	N	0.784859	0.632171	0.450474
N43	N	0.354043	0.133195	-0.049517
N44	N	0.854043	0.633195	0.450483
C45	C	0.394716	0.093993	-0.000106
C46	C	0.894716	0.593993	0.499894
C47	C	0.138923	0.090202	-0.066512
C48	C	0.638923	0.590202	0.433488
C49	C	0.066098	0.089133	-0.066518
C50	C	0.566098	0.589133	0.433482
C51	C	0.066058	0.089136	0.066236
C52	C	0.566058	0.589136	0.566236
C53	C	0.138881	0.090212	0.066240
C54	C	0.638881	0.590212	0.566240
C55	C	0.175310	0.090742	-0.000136
C56	C	0.675310	0.590742	0.499864
C57	C	0.829982	-0.034708	-0.000101
C58	C	1.329982	0.465292	0.499899
C59	C	0.828841	-0.112213	-0.000095
C60	C	1.328841	0.387787	0.499905
C61	C	0.891933	-0.157142	-0.000099
C62	C	1.391933	0.342858	0.499901
C63	C	0.890861	-0.229966	-0.000110
C64	C	1.390861	0.270034	0.499890
C65	C	0.826694	-0.257857	-0.000103
C66	C	1.326694	0.242143	0.499897
C67	C	0.763594	-0.212917	-0.000103
C68	C	1.263594	0.287083	0.499897
C69	C	0.764668	-0.140095	-0.000099
C70	C	1.264668	0.359905	0.499901
N71	N	0.777641	-0.365856	0.041341
N72	N	1.277641	0.134144	0.541341
N73	N	0.776626	-0.435035	0.041338
N74	N	1.276626	0.064965	0.541338
C75	C	0.823456	-0.477265	-0.000118
C76	C	1.323456	0.022735	0.499882
N77	N	0.871350	-0.447705	-0.041561
N78	N	1.371350	0.052295	0.458439
N79	N	0.872368	-0.378520	-0.041556
N80	N	1.372368	0.121480	0.458444
C81	C	0.825523	-0.336819	-0.000108
C82	C	1.325523	0.163181	0.499892
C83	C	0.885390	-0.601159	-0.000135
C84	C	1.385390	-0.101159	0.499865
C85	C	0.884315	-0.673984	-0.000151
C86	C	1.384315	-0.173984	0.499849
C87	C	0.757047	-0.656933	-0.000137
C88	C	1.257047	-0.156933	0.499863
C89	C	0.758123	-0.584110	-0.000128
C90	C	1.258123	-0.084110	0.499872
C91	C	0.822296	-0.556228	-0.000124
C92	C	1.322296	-0.056228	0.499876
C93	C	0.952163	0.087460	-0.000134
C94	C	1.452163	0.587460	0.499866
C95	C	1.029668	0.088594	-0.000148
C96	C	1.529668	0.588594	0.499852
C97	C	0.819007	0.220626	-0.000134
C98	C	1.319007	0.720626	0.499866
C99	C	0.820148	0.298131	-0.000145
C100	C	1.320148	0.798131	0.499855
N101	N	0.824478	0.092964	0.189583
N102	N	1.324478	0.592964	0.689583
N103	N	0.824516	0.092948	-0.189817
N104	N	1.324516	0.592948	0.310183
C105	C	0.866731	0.135180	0.771849
C106	C	1.366731	0.635180	1.271849
C107	C	0.866724	0.135187	0.695204
C108	C	1.366724	0.635187	1.195204
C109	C	0.824510	0.092950	0.656896
C110	C	1.324510	0.592950	1.156896
C111	C	0.782287	0.050715	0.695240
C112	C	1.282287	0.550715	1.195240
C113	C	0.782290	0.050715	0.771883
C114	C	1.282290	0.550715	1.271883
N115	N	0.822819	0.031789	0.536567
N116	N	1.322819	0.531789	1.036567
N117	N	0.822820	0.031792	0.463759
N118	N	1.322820	0.531792	0.963759
C119	C	0.824497	0.092950	0.425974
C120	C	1.324497	0.592950	0.925974
N121	N	0.826186	0.154106	0.463747
N122	N	1.326186	0.654106	0.963747
N123	N	0.826189	0.154103	0.536562
N124	N	1.326189	0.654103	1.036562
C125	C	0.824501	0.092946	0.573789
C126	C	1.324501	0.592946	1.073789
C127	C	0.866705	0.135193	0.304532
C128	C	1.366705	0.635193	0.804532
C129	C	0.866693	0.135201	0.227886
C130	C	1.366693	0.635201	0.727886
C131	C	0.782260	0.050723	0.227923
C132	C	1.282260	0.550723	0.727923
C133	C	0.782269	0.050721	0.304568
C134	C	1.282269	0.550721	0.804568
C135	C	0.824495	0.092954	0.342868
C136	C	1.324495	0.592954	0.842868
H137	H	0.168506	0.090652	0.120290
H138	H	0.668506	0.590652	0.620290
H139	H	0.942239	-0.266555	-0.000116
H140	H	1.442239	0.233445	0.499884
H141	H	0.747885	0.016336	0.196734
H142	H	1.247885	0.516336	0.696734
H143	H	0.480401	0.095276	0.120315
H144	H	0.980401	0.595276	0.620315
H145	H	0.704801	-0.679641	-0.000135
H146	H	1.204801	-0.179641	0.499865
H147	H	0.901099	0.169581	0.663986
H148	H	1.401099	0.669581	1.163986
H149	H	0.711349	-0.235631	-0.000099
H150	H	1.211349	0.264369	0.499901
H151	H	0.747896	0.016327	0.335780
H152	H	1.247896	0.516327	0.835780
H153	H	0.713289	-0.103513	-0.000096
H154	H	1.213289	0.396487	0.499904
H155	H	0.944187	-0.134445	-0.000097
H156	H	1.444187	0.365555	0.499903
H157	H	0.901114	0.169572	0.803028
H158	H	1.401114	0.669572	1.303028
H159	H	0.937644	-0.578456	-0.000135
H160	H	1.437644	-0.078456	0.499865
H161	H	0.935694	-0.710565	-0.000158
H162	H	1.435694	-0.210565	0.499842
H163	H	0.612592	0.097209	-0.120515
H164	H	1.112592	0.597209	0.379485
H165	H	0.706747	-0.547527	-0.000121
H166	H	1.206747	-0.047527	0.499879
H167	H	0.747915	0.016326	0.664044
H168	H	1.247915	0.516326	1.164044
H169	H	0.747912	0.016324	0.803094
H170	H	1.247912	0.516324	1.303094
H171	H	0.901085	0.169586	0.335718
H172	H	1.401085	0.669586	0.835718
H173	H	0.901068	0.169596	0.196675
H174	H	1.401068	0.669596	0.696675
H175	H	0.480483	0.095260	-0.120527
H176	H	0.980483	0.595260	0.379473
H177	H	0.168584	0.090641	-0.120559
H178	H	0.668584	0.590641	0.379441
H179	H	0.612516	0.097240	0.120336
H180	H	1.112516	0.597240	0.620336
H181	H	0.036474	0.088693	-0.120570
H182	H	0.536474	0.588693	0.379430
H183	H	0.036393	0.088701	0.120275
H184	H	0.536393	0.588701	0.620275
