data_functionalizedCrystal
_audit_creation_method	'MofGen! by Chris Wilmer'
_symmetry_space_group_name_H-M	'P1'
_symmetry_Int_Tables_number	1
_symmetry_cell_setting	triclinic
loop_
_symmetry_equiv_pos_as_xyz
  x,y,z
_cell_length_a	10.654550
_cell_length_b	10.654550
_cell_length_c	9.730223
_cell_angle_alpha	89.995747
_cell_angle_beta	89.999957
_cell_angle_gamma	84.484931
loop_
_atom_site_label
_atom_site_type_symbol
_atom_site_fract_x
_atom_site_fract_y
_atom_site_fract_z
O1	O	1.667839	0.176399	-0.114187
O2	O	1.302361	0.193205	-0.114212
O3	O	1.493503	0.002062	-0.114190
O4	O	1.476697	0.367541	-0.114209
O5	O	1.493490	0.002057	0.114390
O6	O	1.302348	0.193199	0.114368
O7	O	1.667827	0.176393	0.114393
Zn8	Zn	1.485085	0.184796	0.150672
Zn9	Zn	1.485102	0.184802	-0.150492
O10	O	1.476684	0.367536	0.114371
C11	C	1.255556	0.191968	0.000075
C12	C	1.116113	0.188276	0.000065
C13	C	1.036628	0.300818	0.000064
C14	C	0.905607	0.297341	0.000088
C15	C	0.933570	0.068772	0.000109
C16	C	1.064588	0.072250	0.000095
C17	C	1.492263	-0.044738	0.000099
C18	C	1.488571	-0.184181	0.000096
C19	C	1.601112	-0.263667	0.000104
C20	C	1.597636	-0.394688	0.000087
C21	C	1.369066	-0.366725	0.000061
C22	C	1.372544	-0.235706	0.000068
C23	C	1.714631	0.177630	0.000103
C24	C	1.854074	0.181322	0.000104
C25	C	1.477925	0.414336	0.000079
C26	C	1.481617	0.553779	0.000072
N27	N	1.485083	0.184790	0.356209
N28	N	1.485114	0.184798	-0.356028
C29	C	1.569750	0.100188	0.428144
C30	C	1.569763	0.100189	0.572027
C31	C	1.400438	0.269404	0.572026
C32	C	1.400420	0.269396	0.428146
H33	H	1.129309	-0.019401	0.000100
H34	H	0.891602	-0.025693	0.000142
C35	C	1.728735	-0.206993	0.000119
H36	H	1.795262	-0.273101	0.000109
H37	H	1.734842	-0.156471	0.079832
H38	H	1.734846	-0.156458	-0.079600
H39	H	0.840894	0.388984	0.000089
C40	C	1.093302	0.428441	0.000045
H41	H	1.027193	0.494967	0.000060
H42	H	1.143824	0.434553	-0.079671
H43	H	1.143836	0.434546	0.079761
H44	H	1.689279	-0.459401	0.000090
H45	H	1.274601	-0.408693	0.000041
H46	H	1.638705	0.031297	0.630593
H47	H	1.280893	-0.170985	0.000058
C48	C	1.662864	0.007115	0.349018
H49	H	1.713281	-0.043278	0.412472
H50	H	1.715528	0.052772	0.292872
H51	H	1.617219	-0.045594	0.292909
C52	C	1.307327	0.362474	0.651162
H53	H	1.319472	0.350373	0.747155
H54	H	1.223390	0.348058	0.627601
H55	H	1.321699	0.446424	0.627562
H56	H	1.331468	0.338290	0.369572
