data_functionalizedCrystal
_audit_creation_method	'MofGen! by Chris Wilmer'
_symmetry_space_group_name_H-M	'P1'
_symmetry_Int_Tables_number	1
_symmetry_cell_setting	triclinic
loop_
_symmetry_equiv_pos_as_xyz
  x,y,z
_cell_length_a	15.297979
_cell_length_b	15.297327
_cell_length_c	12.759393
_cell_angle_alpha	80.358266
_cell_angle_beta	99.711079
_cell_angle_gamma	110.796881
loop_
_atom_site_label
_atom_site_type_symbol
_atom_site_fract_x
_atom_site_fract_y
_atom_site_fract_z
Zn1	Zn	1.357858	-0.124374	0.893281
Zn2	Zn	1.330812	-0.279936	0.743465
Zn3	Zn	1.202306	-0.151311	0.691627
Zn4	Zn	1.175364	-0.306739	0.893108
O5	O	1.266585	-0.215590	0.805370
O6	O	1.484425	-0.122519	0.895175
O7	O	1.313722	-0.262930	0.589570
O8	O	1.245534	-0.017587	0.696755
O9	O	1.464554	-0.236811	0.785106
O10	O	1.359818	0.002204	0.844909
O11	O	1.219309	-0.168430	0.551485
O12	O	1.068577	-0.194419	0.696587
O13	O	1.199616	-0.282491	1.040149
O14	O	1.048783	-0.308611	0.844614
O15	O	1.333693	-0.148508	1.040277
O16	O	1.287598	-0.413643	0.784938
O17	O	1.173391	-0.433334	0.894879
C18	C	1.024932	-0.257347	0.764957
C19	C	0.921549	-0.275233	0.747697
C20	C	0.862648	-0.343048	0.682158
C21	C	0.765514	-0.359855	0.665947
C22	C	0.727271	-0.308844	0.715266
C23	C	0.786172	-0.241024	0.780800
C24	C	0.883315	-0.224220	0.797020
C25	C	0.747937	-0.190017	0.830128
C26	C	0.806839	-0.122196	0.895662
C27	C	0.903972	-0.105395	0.911878
C28	C	0.942215	-0.156406	0.862559
C29	C	0.650794	-0.206820	0.813908
C30	C	0.671461	-0.087993	0.928770
C31	C	0.768596	-0.071185	0.944982
C32	C	1.224661	-0.457231	0.845542
C33	C	1.206811	-0.560591	0.862777
C34	C	1.394546	-0.810775	0.682612
C35	C	1.411317	-0.713663	0.666414
C36	C	1.360192	-0.675390	0.715504
C37	C	1.292293	-0.734239	0.780794
C38	C	1.275516	-0.831361	0.796987
C39	C	1.241162	-0.695976	0.829878
C40	C	1.173263	-0.754825	0.895169
C41	C	1.156489	-0.851937	0.911360
C42	C	1.207614	-0.890211	0.862270
C43	C	1.257939	-0.598854	0.813685
C44	C	1.138909	-0.619440	0.928060
C45	C	1.122138	-0.716552	0.944258
C46	C	1.509181	-0.173670	0.845942
C47	C	1.612561	-0.155807	0.863231
C48	C	1.266666	-0.215485	1.079399
C49	C	1.266701	-0.215440	1.196174
C50	C	1.308698	0.026999	0.765069
C51	C	1.326644	0.130375	0.747895
C52	C	1.266569	-0.215618	0.532406
C53	C	1.266760	-0.215370	0.415618
C54	C	1.336524	-0.145668	1.251104
C55	C	1.336552	-0.145631	1.360827
C56	C	1.196930	-0.285146	1.360679
C57	C	1.196899	-0.285178	1.250957
C58	C	1.417137	-0.065122	1.251191
C59	C	1.417165	-0.065085	1.360914
H60	H	0.951927	-0.050180	0.965252
C61	C	0.904056	-0.398398	0.628424
C62	C	0.883900	-0.382158	0.517174
C63	C	0.922017	-0.433148	0.467639
H64	H	0.970347	-0.378738	0.647342
H65	H	0.877278	-0.463673	0.651359
H66	H	0.910682	-0.316897	0.494248
H67	H	0.817617	-0.401822	0.498225
H68	H	0.895239	-0.498424	0.490574
H69	H	0.988306	-0.413484	0.486565
H70	H	0.908339	-0.422143	0.392152
C71	C	0.586691	-0.280439	0.742837
C72	C	0.493432	-0.284259	0.739206
C73	C	0.434353	-0.352078	0.673751
H74	H	0.604833	-0.264084	0.672598
H75	H	0.591722	-0.340218	0.771154
H76	H	0.488405	-0.224494	0.710885
H77	H	0.475261	-0.300626	0.809427
H78	H	0.439385	-0.411856	0.702068
H79	H	0.452503	-0.335716	0.603518
H80	H	0.371070	-0.354685	0.671287
H81	H	1.410345	0.003570	1.206231
H82	H	1.485859	-0.071923	1.405943
C83	C	1.121137	-0.360819	1.191115
C84	C	1.136032	-0.345910	1.083293
C85	C	1.066249	-0.415566	1.028131
H86	H	1.123831	-0.421003	1.221616
H87	H	1.060998	-0.357985	1.196320
H88	H	1.196156	-0.348753	1.078094
H89	H	1.133329	-0.285739	1.052762
H90	H	1.006110	-0.412732	1.033336
H91	H	1.068949	-0.475746	1.058641
H92	H	1.076341	-0.405455	0.954966
H93	H	1.436159	-0.841948	0.642644
H94	H	0.640324	-0.046456	0.968932
C95	C	1.502477	-0.083737	1.226984
C96	C	1.559040	-0.096046	1.322793
C97	C	1.637668	-0.113185	1.300534
H98	H	1.482275	-0.139012	1.192128
H99	H	1.537660	-0.031725	1.181759
H100	H	1.523863	-0.148054	1.368001
H101	H	1.579266	-0.040782	1.357663
H102	H	1.672850	-0.061172	1.255309
H103	H	1.617456	-0.168458	1.265676
H104	H	1.676059	-0.121530	1.365534
C105	C	1.378227	-0.569984	0.697781
C106	C	1.295229	-0.553245	0.650731
C107	C	1.311816	-0.456152	0.634375
H108	H	1.398052	-0.545070	0.764539
H109	H	1.425950	-0.540390	0.651822
H110	H	1.247522	-0.582828	0.696689
H111	H	1.275391	-0.578137	0.583966
H112	H	1.359538	-0.426558	0.588416
H113	H	1.331641	-0.431246	0.701136
H114	H	1.255507	-0.444782	0.602441
H115	H	0.816567	-0.015966	0.998341
C116	C	1.485110	-0.649923	0.595547
C117	C	1.526313	-0.704220	0.556048
C118	C	1.594310	-0.645531	0.490772
H119	H	1.456193	-0.618222	0.537407
H120	H	1.532217	-0.604988	0.636212
H121	H	1.479214	-0.749138	0.515384
H122	H	1.555248	-0.735920	0.614163
H123	H	1.641417	-0.600596	0.531438
H124	H	1.565385	-0.613833	0.432639
H125	H	1.622280	-0.682362	0.463972
H126	H	1.021310	-0.142722	0.875751
H127	H	1.140097	-0.341922	1.405296
C128	C	1.048423	-0.780612	1.015056
C129	C	1.044662	-0.873854	1.018705
C130	C	0.976759	-0.932894	1.083901
H131	H	1.064681	-0.762415	1.085319
H132	H	0.988644	-0.775620	0.986527
H133	H	1.104427	-0.878842	1.047238
H134	H	1.028392	-0.892081	0.948460
H135	H	0.916980	-0.927902	1.055372
H136	H	0.993023	-0.914688	1.154159
H137	H	0.974192	-0.996166	1.086378
H138	H	1.313223	-0.550948	0.760525
C139	C	1.083268	-0.578083	0.981417
C140	C	1.020192	-0.650408	1.042030
C141	C	0.968915	-0.612341	1.091179
H142	H	1.125279	-0.534006	1.026920
H143	H	1.049242	-0.547287	0.928128
H144	H	1.054215	-0.681189	1.095313
H145	H	0.978162	-0.694490	0.996552
H146	H	0.934889	-0.581545	1.037890
H147	H	1.010933	-0.568264	1.136677
H148	H	0.926106	-0.661408	1.132303
H149	H	0.648179	-0.322532	0.702063
C150	C	0.701471	-0.433352	0.594696
C151	C	0.654796	-0.390281	0.509389
C152	C	0.595780	-0.457963	0.443737
H153	H	0.738043	-0.461367	0.567528
H154	H	0.656512	-0.480461	0.635197
H155	H	0.699749	-0.343189	0.468895
H156	H	0.618207	-0.362270	0.536526
H157	H	0.550821	-0.505071	0.484238
H158	H	0.632359	-0.485974	0.416577
H159	H	0.564098	-0.428750	0.385855
H160	H	1.193965	-0.969286	0.875458
C161	C	1.398658	0.020315	1.385187
C162	C	1.386359	0.076850	1.289423
C163	C	1.369319	0.155530	1.311745
H164	H	1.343395	0.000186	1.419960
H165	H	1.450718	0.055479	1.430506
H166	H	1.334304	0.041692	1.244122
H167	H	1.441612	0.097004	1.254637
H168	H	1.421379	0.190694	1.357064
H169	H	1.314058	0.135392	1.346519
H170	H	1.360981	0.193903	1.246775
H171	H	1.101190	-0.899852	0.964509
