data_functionalizedCrystal
_audit_creation_method	'MofGen! by Chris Wilmer'
_symmetry_space_group_name_H-M	'P1'
_symmetry_Int_Tables_number	1
_symmetry_cell_setting	triclinic
loop_
_symmetry_equiv_pos_as_xyz
  x,y,z
_cell_length_a	15.297327
_cell_length_b	19.805407
_cell_length_c	19.805399
_cell_angle_alpha	90.018378
_cell_angle_beta	99.647572
_cell_angle_gamma	80.293654
loop_
_atom_site_label
_atom_site_type_symbol
_atom_site_fract_x
_atom_site_fract_y
_atom_site_fract_z
Zn1	Zn	-0.359199	-0.988076	-0.429363
Zn2	Zn	0.140801	-0.488076	0.070637
Zn3	Zn	-0.510070	-0.968406	-0.335755
Zn4	Zn	-0.010070	-0.468406	0.164245
Zn5	Zn	-0.359224	-0.874893	-0.316188
Zn6	Zn	0.140776	-0.374893	0.183812
Zn7	Zn	-0.510016	-0.855271	-0.448892
Zn8	Zn	-0.010016	-0.355271	0.051108
O9	O	-0.434627	-0.921662	-0.382549
O10	O	0.065373	-0.421662	0.117451
O11	O	-0.379224	-1.080182	-0.416962
O12	O	0.120776	-0.580182	0.083038
O13	O	-0.490094	-0.955981	-0.238447
O14	O	0.009906	-0.455981	0.261553
O15	O	-0.232974	-0.906351	-0.314840
O16	O	0.267026	-0.406351	0.185160
O17	O	-0.490069	-1.065730	-0.348188
O18	O	0.009931	-0.565730	0.151812
O19	O	-0.232955	-0.989506	-0.397989
O20	O	0.267045	-0.489506	0.102011
O21	O	-0.379268	-0.887277	-0.224071
O22	O	0.120732	-0.387277	0.275929
O23	O	-0.379215	-0.777575	-0.333776
O24	O	0.120785	-0.277575	0.166224
O25	O	-0.489976	-0.872908	-0.541013
O26	O	0.010024	-0.372908	-0.041013
O27	O	-0.490001	-0.763159	-0.431272
O28	O	0.009999	-0.263159	0.068728
O29	O	-0.379171	-0.970480	-0.526666
O30	O	0.120829	-0.470480	-0.026666
O31	O	-0.636310	-0.936955	-0.367124
O32	O	-0.136310	-0.436955	0.132876
O33	O	-0.636270	-0.853835	-0.450245
O34	O	-0.136270	-0.353835	0.049755
C35	C	-0.434606	-0.745808	-0.382520
C36	C	0.065394	-0.245808	0.117480
C37	C	-0.434618	-0.670575	-0.382527
C38	C	0.065382	-0.170575	0.117473
C39	C	-0.669025	-0.891149	-0.412942
C40	C	-0.169025	-0.391149	0.087058
C41	C	-0.769301	-0.878158	-0.425967
C42	C	-0.269301	-0.378158	0.074033
C43	C	-0.492391	-0.627731	-0.433233
C44	C	0.007609	-0.127731	0.066767
C45	C	-0.492391	-0.557042	-0.433241
C46	C	0.007609	-0.057042	0.066759
C47	C	-0.434622	-0.529199	-0.382539
C48	C	0.065378	-0.029199	0.117461
C49	C	-0.376844	-0.572049	-0.331829
C50	C	0.123156	-0.072049	0.168171
C51	C	-0.376840	-0.642736	-0.331825
C52	C	0.123160	-0.142736	0.168175
C53	C	-0.376857	-0.286974	-0.331846
C54	C	0.123143	0.213026	0.168154
C55	C	-0.376867	-0.216280	-0.331853
C56	C	0.123133	0.283720	0.168147
C57	C	-0.492408	-0.201280	-0.433262
C58	C	0.007592	0.298720	0.066738
C59	C	-0.492404	-0.271967	-0.433258
C60	C	0.007596	0.228033	0.066742
C61	C	-0.434622	-0.314811	-0.382551
C62	C	0.065378	0.185189	0.117449
C63	C	-0.434622	-0.391460	-0.382544
C64	C	0.065378	0.108540	0.117456
C65	C	-0.434626	-0.452551	-0.382542
C66	C	0.065374	0.047449	0.117458
C67	C	-1.051921	-1.014792	-0.289691
C68	C	-0.551921	-0.514792	0.210309
C69	C	-0.957706	-1.026997	-0.277450
C70	C	-0.457706	-0.526997	0.222550
C71	C	-0.910600	-0.989789	-0.314578
C72	C	-0.410600	-0.489789	0.185422
C73	C	-0.957718	-0.940372	-0.363949
C74	C	-0.457718	-0.440372	0.136051
C75	C	-1.051942	-0.928162	-0.376187
C76	C	-0.551942	-0.428162	0.123813
C77	C	-0.910621	-0.903159	-0.401075
C78	C	-0.410621	-0.403159	0.098925
C79	C	-0.957739	-0.853742	-0.450446
C80	C	-0.457739	-0.353742	0.049554
C81	C	-1.051954	-0.841534	-0.462682
C82	C	-0.551954	-0.341534	0.037318
C83	C	-1.099059	-0.878742	-0.425554
C84	C	-0.599059	-0.378742	0.074446
C85	C	-0.816398	-0.915369	-0.388837
C86	C	-0.316398	-0.415369	0.111163
C87	C	-0.816419	-0.828739	-0.475333
C88	C	-0.316419	-0.328739	0.024667
C89	C	-0.910633	-0.816533	-0.487574
C90	C	-0.410633	-0.316533	0.012426
C91	C	-0.199315	-0.952312	-0.352053
C92	C	0.300685	-0.452312	0.147947
C93	C	-0.099038	-0.965373	-0.339057
C94	C	0.400962	-0.465373	0.160943
C95	C	-0.434565	-0.921700	-0.559084
C96	C	0.065435	-0.421700	-0.059084
C97	C	-0.434538	-0.921716	-0.634313
C98	C	0.065462	-0.421716	-0.134313
C99	C	-0.434644	-0.098202	-0.382572
C100	C	0.065356	0.401798	0.117428
C101	C	-0.434635	-0.173435	-0.382563
C102	C	0.065365	0.326565	0.117437
C103	C	-0.376826	-0.885955	-0.662170
C104	C	0.123174	-0.385955	-0.162170
C105	C	-0.376808	-0.885966	-0.732856
C106	C	0.123192	-0.385966	-0.232856
C107	C	-0.434499	-0.921743	-0.775683
C108	C	0.065501	-0.421743	-0.275683
C109	C	-0.492218	-0.957505	-0.747822
C110	C	0.007782	-0.457505	-0.247822
C111	C	-0.492239	-0.957489	-0.677137
C112	C	0.007761	-0.457489	-0.177137
C113	C	-0.492133	-0.957570	-1.032884
C114	C	0.007867	-0.457570	-0.532884
C115	C	-0.492106	-0.957585	-1.103573
C116	C	0.007894	-0.457585	-0.603573
C117	C	-0.376702	-0.886047	-1.088603
C118	C	0.123298	-0.386047	-0.588603
C119	C	-0.376724	-0.886031	-1.017919
C120	C	0.123276	-0.386031	-0.517919
C121	C	-0.434445	-0.921790	-0.990064
C122	C	0.065555	-0.421790	-0.490064
C123	C	-0.434465	-0.921776	-0.913418
C124	C	0.065535	-0.421776	-0.413418
C125	C	-0.434476	-0.921762	-0.852327
C126	C	0.065524	-0.421762	-0.352327
C127	C	-0.434625	-0.921671	-0.206693
C128	C	0.065375	-0.421671	0.293307
C129	C	-0.434397	-0.921819	-0.131432
C130	C	0.065603	-0.421819	0.368568
H131	H	-0.539436	-0.650395	-0.474519
H132	H	-0.039436	-0.150395	0.025481
H133	H	-0.949010	-0.776297	-0.527772
H134	H	-0.449010	-0.276297	-0.027772
O135	O	-0.819081	-1.001537	-0.302629
O136	O	-0.319081	-0.501537	0.197371
C137	C	-0.787686	-0.940741	-0.281128
C138	C	-0.287686	-0.440741	0.218872
H139	H	-0.842038	-0.905732	-0.258657
H140	H	-0.342038	-0.405732	0.241343
H141	H	-0.724678	-0.953771	-0.240491
H142	H	-0.224678	-0.453771	0.259509
H143	H	-0.770953	-0.913561	-0.326848
H144	H	-0.270953	-0.413561	0.173152
O145	O	-0.770630	-0.792694	-0.511471
O146	O	-0.270630	-0.292694	-0.011471
C147	C	-0.716037	-0.838278	-0.548122
C148	C	-0.216037	-0.338278	-0.048122
H149	H	-0.744373	-0.887911	-0.556034
H150	H	-0.244373	-0.387911	-0.056034
H151	H	-0.714946	-0.813906	-0.600046
H152	H	-0.214946	-0.313906	-0.100046
H153	H	-0.644646	-0.849876	-0.517924
H154	H	-0.144646	-0.349876	-0.017924
O155	O	-0.320766	-0.851213	-1.115710
O156	O	0.179234	-0.351213	-0.615710
C157	C	-0.372108	-0.800824	-1.163255
C158	C	0.127892	-0.300824	-0.663255
H159	H	-0.443169	-0.787383	-1.151160
H160	H	0.056831	-0.287383	-0.651160
H161	H	-0.339470	-0.752986	-1.159816
H162	H	0.160530	-0.252986	-0.659816
H163	H	-0.375202	-0.821354	-1.217233
H164	H	0.124798	-0.321354	-0.717233
H165	H	-0.539195	-0.986632	-0.782698
H166	H	-0.039195	-0.486632	-0.282698
H167	H	-1.175777	-0.868809	-0.435519
H168	H	-0.675777	-0.368809	0.064481
O169	O	-0.912078	-1.075047	-0.229497
O170	O	-0.412078	-0.575047	0.270503
C171	C	-0.973855	-1.105260	-0.199340
C172	C	-0.473855	-0.605260	0.300660
H173	H	-1.040991	-1.098885	-0.235786
H174	H	-0.540991	-0.598885	0.264214
H175	H	-0.946583	-1.162128	-0.188631
H176	H	-0.446583	-0.662128	0.311369
H177	H	-0.983945	-1.079201	-0.149221
H178	H	-0.483945	-0.579201	0.350779
O179	O	-0.548195	-0.992239	-1.145258
O180	O	-0.048195	-0.492239	-0.645258
C181	C	-0.606452	-0.946119	-1.193682
C182	C	-0.106452	-0.446119	-0.693682
H183	H	-0.574619	-0.898974	-1.200135
H184	H	-0.074619	-0.398974	-0.700135
H185	H	-0.618522	-0.972124	-1.244959
H186	H	-0.118522	-0.472124	-0.744959
H187	H	-0.673321	-0.929967	-1.175110
H188	H	-0.173321	-0.429967	-0.675110
O189	O	-0.548219	-0.992375	-1.005938
O190	O	-0.048219	-0.492375	-0.505938
C191	C	-0.599140	-1.023946	-1.058899
C192	C	-0.099140	-0.523946	-0.558899
H193	H	-0.562171	-1.031106	-1.104497
H194	H	-0.062171	-0.531106	-0.604497
H195	H	-0.608767	-1.076020	-1.039735
H196	H	-0.108767	-0.576020	-0.539735
H197	H	-0.667658	-0.990244	-1.075290
H198	H	-0.167658	-0.490244	-0.575290
H199	H	-0.329842	-0.856825	-0.627304
H200	H	0.170158	-0.356825	-0.127304
O201	O	-0.548332	-0.992286	-0.650183
O202	O	-0.048332	-0.492286	-0.150183
C203	C	-0.599265	-1.023853	-0.703140
C204	C	-0.099265	-0.523853	-0.203140
H205	H	-0.562295	-1.031027	-0.748737
H206	H	-0.062295	-0.531027	-0.248737
H207	H	-0.608911	-1.075919	-0.683971
H208	H	-0.108911	-0.575919	-0.183971
H209	H	-0.667773	-0.990139	-0.719535
H210	H	-0.167773	-0.490139	-0.219535
H211	H	-1.090283	-1.045078	-0.259463
H212	H	-0.590283	-0.545078	0.240537
O213	O	-1.097682	-0.793605	-0.510728
O214	O	-0.597682	-0.293605	-0.010728
C215	C	-1.074568	-0.811340	-0.575198
C216	C	-0.574568	-0.311340	-0.075198
H217	H	-1.048609	-0.868775	-0.575295
H218	H	-0.548609	-0.368775	-0.075295
H219	H	-1.136507	-0.797462	-0.616677
H220	H	-0.636507	-0.297462	-0.116677
H221	H	-1.019900	-0.782126	-0.585756
H222	H	-0.519900	-0.282126	-0.085756
O223	O	-0.320838	-0.189116	-0.282626
O224	O	0.179162	0.310884	0.217374
C225	C	-0.333227	-0.117539	-0.293511
C226	C	0.166773	0.382461	0.206489
H227	H	-0.402888	-0.098834	-0.324632
H228	H	0.097112	0.401166	0.175368
H229	H	-0.327037	-0.091463	-0.242017
H230	H	0.172963	0.408537	0.257983
H231	H	-0.279777	-0.104440	-0.322686
H232	H	0.220223	0.395560	0.177314
H233	H	-0.329791	-0.677620	-0.290537
H234	H	0.170209	-0.177620	0.209463
H235	H	-0.539435	-0.522161	-0.474531
H236	H	-0.039435	-0.022161	0.025469
O237	O	-0.320807	-0.544889	-0.282612
O238	O	0.179193	-0.044889	0.217388
C239	C	-0.333180	-0.473312	-0.293497
C240	C	0.166820	0.026688	0.206503
H241	H	-0.402845	-0.454599	-0.324608
H242	H	0.097155	0.045401	0.175392
H243	H	-0.326969	-0.447236	-0.242003
H244	H	0.173031	0.052764	0.257997
H245	H	-0.279735	-0.460224	-0.322683
H246	H	0.220265	0.039776	0.177317
O247	O	-0.548612	-0.159755	-0.482560
O248	O	-0.048612	0.340245	0.017440
C249	C	-0.599582	-0.199492	-0.527319
C250	C	-0.099582	0.300508	-0.027319
H251	H	-0.602659	-0.249466	-0.499983
H252	H	-0.102659	0.250534	0.000017
H253	H	-0.670675	-0.169817	-0.543676
H254	H	-0.170675	0.330183	-0.043676
H255	H	-0.566629	-0.211324	-0.574489
H256	H	-0.066629	0.288676	-0.074489
H257	H	-0.329816	-0.856843	-0.755535
H258	H	0.170184	-0.356843	-0.255535
H259	H	-0.329742	-0.856900	-0.983052
H260	H	0.170258	-0.356900	-0.483052
H261	H	-0.539448	-0.294633	-0.474543
H262	H	-0.039448	0.205367	0.025457
O263	O	-0.320701	-0.328485	-0.282524
O264	O	0.179299	0.171515	0.217476
C265	C	-0.269701	-0.288751	-0.237786
C266	C	0.230299	0.211249	0.262214
H267	H	-0.306661	-0.233555	-0.240188
H268	H	0.193339	0.266445	0.259812
H269	H	-0.259974	-0.310420	-0.183208
H270	H	0.240026	0.189580	0.316792
H271	H	-0.201231	-0.290147	-0.253784
H272	H	0.298769	0.209853	0.246216
O273	O	-0.770535	-0.963418	-0.340965
O274	O	-0.270535	-0.463418	0.159035
C275	C	-0.715974	-1.014195	-0.372453
C276	C	-0.215974	-0.514195	0.127547
H277	H	-0.701835	-0.992125	-0.421888
H278	H	-0.201835	-0.492125	0.078112
H279	H	-0.649736	-1.031869	-0.336286
H280	H	-0.149736	-0.531869	0.163714
H281	H	-0.752229	-1.059650	-0.384646
H282	H	-0.252229	-0.559650	0.115354
