data_functionalizedCrystal
_audit_creation_method	'MofGen! by Chris Wilmer'
_symmetry_space_group_name_H-M	'P1'
_symmetry_Int_Tables_number	1
_symmetry_cell_setting	triclinic
loop_
_symmetry_equiv_pos_as_xyz
  x,y,z
_cell_length_a	18.101398
_cell_length_b	18.101397
_cell_length_c	18.101389
_cell_angle_alpha	89.975007
_cell_angle_beta	89.977624
_cell_angle_gamma	90.015732
loop_
_atom_site_label
_atom_site_type_symbol
_atom_site_fract_x
_atom_site_fract_y
_atom_site_fract_z
Zn1	Zn	1.132162	-0.294972	-0.418825
Zn2	Zn	1.632162	0.205028	0.081175
Zn3	Zn	1.132085	-0.418806	-0.294978
Zn4	Zn	1.632085	0.081194	0.205022
Zn5	Zn	1.008325	-0.294973	-0.294986
Zn6	Zn	1.508325	0.205027	0.205014
Zn7	Zn	1.008294	-0.418766	-0.418767
Zn8	Zn	1.508294	0.081234	0.081233
O9	O	1.070216	-0.356879	-0.356889
O10	O	1.570216	0.143121	0.143111
O11	O	1.235784	-0.311415	-0.402418
O12	O	1.735784	0.188585	0.097582
O13	O	1.115648	-0.402397	-0.191346
O14	O	1.615648	0.097603	0.308654
O15	O	1.024797	-0.191340	-0.311442
O16	O	1.524797	0.308660	0.188558
O17	O	1.235728	-0.402396	-0.311428
O18	O	1.735728	0.097604	0.188572
O19	O	1.115779	-0.191339	-0.402426
O20	O	1.615779	0.308661	0.097574
O21	O	1.024722	-0.311417	-0.191352
O22	O	1.524722	0.188583	0.308648
O23	O	0.904688	-0.311378	-0.311385
O24	O	1.404688	0.188622	0.188615
O25	O	1.024745	-0.402327	-0.522407
O26	O	1.524745	0.097673	-0.022407
O27	O	0.904665	-0.402328	-0.402326
O28	O	1.404665	0.097672	0.097674
O29	O	1.115750	-0.311376	-0.522450
O30	O	1.615750	0.188624	-0.022450
O31	O	1.115619	-0.522434	-0.311371
O32	O	1.615619	-0.022434	0.188629
O33	O	1.024670	-0.522404	-0.402318
O34	O	1.524670	-0.022404	0.097682
C35	C	0.877806	-0.356849	-0.356850
C36	C	1.377806	0.143151	0.143150
C37	C	0.795492	-0.356854	-0.356851
C38	C	1.295492	0.143146	0.143149
C39	C	0.496401	-0.356900	-0.356914
C40	C	0.996401	0.143100	0.143086
C41	C	0.527715	-0.299391	-0.299975
C42	C	1.027715	0.200609	0.200025
C43	C	0.613333	-0.299545	-0.299732
C44	C	1.113333	0.200455	0.200268
C45	C	0.644783	-0.356877	-0.356883
C46	C	1.144783	0.143123	0.143117
C47	C	0.613680	-0.434886	-0.335555
C48	C	1.113680	0.065114	0.164445
C49	C	0.528035	-0.434567	-0.335159
C50	C	1.028035	0.065433	0.164841
C51	C	0.528009	-0.337079	-0.435314
C52	C	1.028009	0.162921	0.064686
C53	C	0.613659	-0.335341	-0.434886
C54	C	1.113659	0.164659	0.065114
C55	C	0.728643	-0.356868	-0.356867
C56	C	1.228643	0.143132	0.143133
C57	C	0.412541	-0.356914	-0.356928
C58	C	0.912541	0.143086	0.143072
C59	C	1.070153	-0.549290	-0.356853
C60	C	1.570153	-0.049290	0.143147
C61	C	1.070194	-0.631604	-0.356863
C62	C	1.570194	-0.131604	0.143137
C63	C	1.070288	-0.930695	-0.356930
C64	C	1.570288	-0.430695	0.143070
C65	C	1.127351	-0.899357	-0.299555
C66	C	1.627351	-0.399357	0.200445
C67	C	1.127548	-0.813739	-0.299704
C68	C	1.627548	-0.313739	0.200296
C69	C	1.070241	-0.782312	-0.356896
C70	C	1.570241	-0.282312	0.143104
C71	C	1.091394	-0.813329	-0.434959
C72	C	1.591394	-0.313329	0.065041
C73	C	1.091836	-0.898974	-0.434646
C74	C	1.591836	-0.398974	0.065354
C75	C	0.991920	-0.899195	-0.336918
C76	C	1.491920	-0.399195	0.163082
C77	C	0.992307	-0.813546	-0.335175
C78	C	1.492307	-0.313546	0.164825
C79	C	1.070213	-0.698453	-0.356881
C80	C	1.570213	-0.198453	0.143119
C81	C	1.070318	-1.014554	-0.356950
C82	C	1.570318	-0.514554	0.143050
C83	C	1.263378	-0.356910	-0.356928
C84	C	1.763378	0.143090	0.143072
C85	C	1.345692	-0.356923	-0.356945
C86	C	1.845692	0.143077	0.143055
C87	C	1.070252	-0.356847	-0.550051
C88	C	1.570252	0.143153	-0.050051
C89	C	1.070268	-0.356833	-0.632365
C90	C	1.570268	0.143167	-0.132365
C91	C	1.070300	-0.163717	-0.356941
C92	C	1.570300	0.336283	0.143059
C93	C	1.070336	-0.081403	-0.356964
C94	C	1.570336	0.418597	0.143036
C95	C	1.070296	-0.356776	-0.783074
C96	C	1.570296	0.143224	-0.283074
C97	C	1.013047	-0.413988	-0.814400
C98	C	1.513047	0.086012	-0.314400
C99	C	1.012839	-0.413787	-0.900019
C100	C	1.512839	0.086213	-0.400019
C101	C	1.070323	-0.356720	-0.931456
C102	C	1.570323	0.143280	-0.431456
C103	C	1.049422	-0.278624	-0.900376
C104	C	1.549422	0.221376	-0.400376
C105	C	1.048990	-0.278987	-0.814731
C106	C	1.548990	0.221013	-0.314731
C107	C	1.148596	-0.376966	-0.814648
C108	C	1.648596	0.123034	-0.314648
C109	C	1.148192	-0.378655	-0.900298
C110	C	1.648192	0.121345	-0.400298
C111	C	1.070340	-0.356684	-1.015316
C112	C	1.570340	0.143316	-0.515316
C113	C	1.070277	-0.356807	-0.699214
C114	C	1.570277	0.143193	-0.199214
C115	C	1.070223	-0.356858	-0.164479
C116	C	1.570223	0.143142	0.335521
C117	C	1.070351	-0.356663	-0.082165
C118	C	1.570351	0.143337	0.417835
H119	H	0.507759	-0.378966	-0.477738
H120	H	1.007759	0.121034	0.022262
C121	C	0.641210	-0.494328	-0.389818
C122	C	1.141210	0.005672	0.110182
N123	N	0.661950	-0.539099	-0.430688
N124	N	1.161950	-0.039099	0.069312
C125	C	0.498858	-0.261564	-0.461506
C126	C	0.998858	0.238436	0.038494
N127	N	0.476904	-0.204682	-0.481225
N128	N	0.976904	0.295318	0.018775
C129	C	0.498598	-0.316881	-0.221951
C130	C	0.998598	0.183119	0.278049
N131	N	0.476664	-0.330057	-0.163184
N132	N	0.976664	0.169943	0.336816
C133	C	1.169226	-0.925894	-0.457537
C134	C	1.669226	-0.425894	0.042463
N135	N	1.227519	-0.946166	-0.474776
N136	N	1.727519	-0.446166	0.025224
C137	C	1.104018	-0.219432	-0.927910
C138	C	1.604018	0.280568	-0.427910
N139	N	1.145135	-0.174847	-0.948659
N140	N	1.645135	0.325153	-0.448659
H141	H	0.507320	-0.478866	-0.374821
H142	H	1.007320	0.021134	0.125179
C143	C	1.208882	-0.326466	-0.929200
C144	C	1.708882	0.173534	-0.429200
N145	N	1.254591	-0.287150	-0.950966
N146	N	1.754591	0.212850	-0.450966
H147	H	0.635100	-0.451989	-0.278859
H148	H	1.135100	0.048011	0.221141
C149	C	1.167919	-0.784290	-0.458244
C150	C	1.667919	-0.284290	0.041756
N151	N	1.225560	-0.762419	-0.475778
N152	N	1.725560	-0.262419	0.024222
H153	H	0.954827	-0.400388	-0.920502
H154	H	1.454827	0.099612	-0.420502
H155	H	0.633992	-0.277935	-0.450968
H156	H	1.133992	0.222065	0.049032
H157	H	1.051103	-0.792970	-0.478857
H158	H	1.551103	-0.292970	0.021143
H159	H	1.185599	-0.793201	-0.312946
H160	H	1.685599	-0.293201	0.187054
H161	H	0.955358	-0.400767	-0.792872
H162	H	1.455358	0.099233	-0.292872
H163	H	1.052094	-0.919701	-0.478868
H164	H	1.552094	-0.419701	0.021132
C165	C	0.642578	-0.387811	-0.495271
C166	C	1.142578	0.112189	0.004729
N167	N	0.664357	-0.427338	-0.540750
N168	N	1.164357	0.072662	-0.040750
C169	C	0.965925	-0.928441	-0.261346
C170	C	1.465925	-0.428441	0.238654
N171	N	0.946354	-0.950469	-0.204422
N172	N	1.446354	-0.450469	0.295578
H173	H	1.114315	-0.792770	-0.241822
H174	H	1.614315	-0.292770	0.258178
H175	H	1.114277	-0.919994	-0.241500
H176	H	1.614277	-0.419994	0.258500
H177	H	0.991763	-0.261905	-0.794749
H178	H	1.491763	0.238095	-0.294749
H179	H	0.507134	-0.241367	-0.313197
H180	H	1.007134	0.258633	0.186803
H181	H	0.992831	-0.261232	-0.921821
H182	H	1.492831	0.238768	-0.421821
C183	C	1.206217	-0.320678	-0.787274
C184	C	1.706217	0.179322	-0.287274
N185	N	1.249612	-0.278280	-0.766651
N186	N	1.749612	0.221720	-0.266651
H187	H	1.025934	-0.472087	-0.793802
H188	H	1.525934	0.027913	-0.293802
C189	C	1.102889	-0.219414	-0.786733
C190	C	1.602889	0.280586	-0.286733
N191	N	1.143482	-0.174541	-0.765648
N192	N	1.643482	0.325459	-0.265648
C193	C	1.174354	-0.452621	-0.785469
C194	C	1.674354	0.047379	-0.285469
N195	N	1.193747	-0.509607	-0.763492
N196	N	1.693747	-0.009607	-0.263492
C197	C	0.640974	-0.317251	-0.221251
C198	C	1.140974	0.182749	0.278749
N199	N	0.661793	-0.330591	-0.162135
N200	N	1.161793	0.169409	0.337865
H201	H	1.185084	-0.920831	-0.312645
H202	H	1.685084	-0.420831	0.187355
H203	H	0.508028	-0.451377	-0.277844
H204	H	1.008028	0.048623	0.222156
C205	C	0.931778	-0.784654	-0.387494
C206	C	1.431778	-0.284654	0.112506
N207	N	0.886190	-0.762894	-0.426907
N208	N	1.386190	-0.262894	0.073093
C209	C	0.641745	-0.221393	-0.317783
C210	C	1.141745	0.278607	0.182217
N211	N	0.663141	-0.162524	-0.331375
N212	N	1.163141	0.337476	0.168625
C213	C	0.970752	-0.786159	-0.257570
C214	C	1.470752	-0.286159	0.242430
N215	N	0.954517	-0.765523	-0.199119
N216	N	1.454517	-0.265523	0.300881
H217	H	0.949404	-0.919462	-0.378706
H218	H	1.449404	-0.419462	0.121294
H219	H	1.163956	-0.436131	-0.920609
H220	H	1.663956	0.063869	-0.420609
H221	H	1.025887	-0.471689	-0.921032
H222	H	1.525887	0.028311	-0.421032
