data_functionalizedCrystal
_audit_creation_method	'MofGen! by Chris Wilmer'
_symmetry_space_group_name_H-M	'P1'
_symmetry_Int_Tables_number	1
_symmetry_cell_setting	triclinic
loop_
_symmetry_equiv_pos_as_xyz
  x,y,z
_cell_length_a	10.686220
_cell_length_b	12.594516
_cell_length_c	10.686551
_cell_angle_alpha	94.402830
_cell_angle_beta	90.308082
_cell_angle_gamma	85.591823
loop_
_atom_site_label
_atom_site_type_symbol
_atom_site_fract_x
_atom_site_fract_y
_atom_site_fract_z
Zn1	Zn	1.972226	0.259495	-0.562401
Zn2	Zn	1.955950	0.452146	-0.352654
Zn3	Zn	1.746338	0.286723	-0.368720
Zn4	Zn	1.762381	0.449989	-0.578431
O5	O	1.859224	0.362088	-0.465552
O6	O	2.145611	0.274558	-0.521145
O7	O	1.914619	0.442500	-0.179240
O8	O	1.776399	0.134158	-0.394428
O9	O	2.133654	0.416098	-0.367045
O10	O	1.942358	0.114153	-0.536724
O11	O	1.760618	0.320964	-0.191044
O12	O	1.572921	0.318873	-0.409972
O13	O	1.803743	0.412422	-0.751850
O14	O	1.584708	0.438824	-0.564045
O15	O	1.957915	0.272466	-0.740073
O16	O	1.930176	0.600813	-0.382589
O17	O	1.787961	0.599228	-0.548467
C18	C	1.533298	0.381570	-0.490492
C19	C	1.393868	0.389927	-0.501191
C20	C	1.859080	0.638639	-0.465548
C21	C	1.859136	0.756938	-0.465580
C22	C	1.781757	0.825374	-0.555743
C23	C	1.742387	0.906053	-0.443617
C24	C	1.898575	0.887053	-0.577720
C25	C	1.819701	0.836068	-0.353397
C26	C	1.975948	0.817052	-0.487574
C27	C	1.936615	0.897702	-0.375365
C28	C	2.186422	0.342531	-0.440515
C29	C	2.325854	0.334198	-0.429846
C30	C	1.884434	0.339166	-0.792751
C31	C	1.895177	0.329398	-0.932183
C32	C	1.859349	1.084457	-0.465582
C33	C	1.859261	0.966156	-0.465602
C34	C	1.834184	0.384840	-0.139620
C35	C	1.823684	0.394293	-0.000170
H36	H	1.374292	0.280092	-0.360577
H37	H	1.754260	0.457328	-0.951705
Br38	Br	1.672510	0.772501	-0.682676
Br39	Br	1.313135	0.480132	-0.616636
H40	H	1.643662	0.944873	-0.425035
H41	H	2.074656	0.778233	-0.506212
Br42	Br	1.764003	0.798431	-0.195313
H43	H	1.931882	0.909776	-0.672546
H44	H	1.964614	0.266366	-0.980653
H45	H	2.002099	0.929241	-0.299044
