data_functionalizedCrystal
_audit_creation_method	'MofGen! by Chris Wilmer'
_symmetry_space_group_name_H-M	'P1'
_symmetry_Int_Tables_number	1
_symmetry_cell_setting	triclinic
loop_
_symmetry_equiv_pos_as_xyz
  x,y,z
_cell_length_a	15.995350
_cell_length_b	10.723024
_cell_length_c	9.798715
_cell_angle_alpha	90.001978
_cell_angle_beta	90.000039
_cell_angle_gamma	83.980122
loop_
_atom_site_label
_atom_site_type_symbol
_atom_site_fract_x
_atom_site_fract_y
_atom_site_fract_z
O1	O	-1.111909	-0.160839	-0.113372
O2	O	-0.611909	0.339161	0.386628
O3	O	-0.868247	-0.180701	-0.113399
O4	O	-0.368247	0.319299	0.386601
O5	O	-0.995698	0.010878	-0.113380
O6	O	-0.495698	0.510878	0.386620
O7	O	-0.984458	-0.352418	-0.113391
O8	O	-0.484458	0.147582	0.386609
O9	O	-0.995689	0.010878	0.113602
O10	O	-0.495689	0.510878	0.613602
O11	O	-0.868238	-0.180701	0.113583
O12	O	-0.368238	0.319299	0.613583
O13	O	-1.111899	-0.160839	0.113610
O14	O	-0.611899	0.339161	0.613610
Zn15	Zn	-0.990067	-0.170770	0.149635
Zn16	Zn	-0.490067	0.329230	0.649635
Zn17	Zn	-0.990080	-0.170770	-0.149424
Zn18	Zn	-0.490080	0.329230	0.350576
O19	O	-0.984448	-0.352418	0.113591
O20	O	-0.484448	0.147582	0.613591
C21	C	-0.837043	-0.179880	0.000088
C22	C	-0.337043	0.320120	0.500088
C23	C	-0.744079	-0.177418	0.000077
C24	C	-0.244079	0.322582	0.500077
C25	C	-0.994876	0.057367	0.000109
C26	C	-0.494876	0.557367	0.500109
C27	C	-0.992428	0.195890	0.000104
C28	C	-0.492428	0.695890	0.500104
C29	C	-1.143103	-0.161660	0.000120
C30	C	-0.643103	0.338340	0.500120
C31	C	-1.236068	-0.164122	0.000121
C32	C	-0.736068	0.335878	0.500121
C33	C	-0.406280	-0.168577	0.000106
C34	C	0.093720	0.331423	0.500106
C35	C	-0.452931	-0.032138	0.000617
C36	C	0.047069	0.467862	0.500617
C37	C	-0.549635	-0.034601	0.000096
C38	C	-0.049635	0.465399	0.500096
C39	C	-0.573866	-0.172962	0.000093
C40	C	-0.073866	0.327038	0.500093
C41	C	-0.533171	-0.240259	-0.129522
C42	C	-0.033171	0.259741	0.370478
C43	C	-0.436516	-0.236831	-0.129621
C44	C	0.063484	0.263169	0.370379
C45	C	-0.436182	-0.239650	0.128500
C46	C	0.063818	0.260350	0.628500
C47	C	-0.533127	-0.239618	0.130204
C48	C	-0.033127	0.260382	0.630204
C49	C	-0.668578	-0.175448	0.000081
C50	C	-0.168578	0.324552	0.500081
C51	C	-0.311568	-0.166096	0.000109
C52	C	0.188432	0.333904	0.500109
C53	C	-0.985271	-0.398907	0.000098
C54	C	-0.485271	0.101093	0.500098
C55	C	-0.987718	-0.537430	0.000095
C56	C	-0.487718	-0.037430	0.500095
N57	N	-0.990064	-0.170768	0.353735
N58	N	-0.490064	0.329232	0.853735
C59	C	-1.063743	0.271783	0.000111
C60	C	-0.563743	0.771783	0.500111
C61	C	-1.061215	0.414954	0.000105
C62	C	-0.561215	0.914954	0.500105
N63	N	-0.990089	-0.170761	-0.353524
N64	N	-0.490089	0.329239	0.146476
C65	C	-1.043578	-0.089978	0.421520
C66	C	-0.543578	0.410022	0.921520
C67	C	-1.043591	-0.089974	0.578682
C68	C	-0.543591	0.410026	1.078682
H69	H	-0.577756	0.018298	0.093009
H70	H	-0.077756	0.518298	0.593009
H71	H	-1.089380	-0.020809	0.363204
H72	H	-0.589380	0.479191	0.863204
H73	H	-0.549072	-0.340515	0.138031
H74	H	-0.049072	0.159485	0.638031
H75	H	-0.561281	-0.193518	-0.225982
H76	H	-0.061281	0.306482	0.274018
H77	H	-1.089409	-0.020810	0.636975
H78	H	-0.589409	0.479190	1.136975
H79	H	-0.926664	0.397366	0.000099
H80	H	-0.426664	0.897366	0.500099
H81	H	-0.944256	-0.239928	0.412052
H82	H	-0.444256	0.260072	0.912052
H83	H	-0.929501	0.236910	0.000088
H84	H	-0.429501	0.736910	0.500088
H85	H	-0.434091	0.022400	0.093569
H86	H	0.065909	0.522400	0.593569
H87	H	-0.944274	-0.239937	0.588193
H88	H	-0.444274	0.260063	1.088193
H89	H	-0.560157	-0.190492	0.226092
H90	H	-0.060157	0.309508	0.726092
H91	H	-0.577191	0.018655	-0.092976
H92	H	-0.077191	0.518655	0.407024
H93	H	-0.417929	-0.187756	-0.226509
H94	H	0.082071	0.312244	0.273491
H95	H	-0.433029	0.022148	-0.091819
H96	H	0.066971	0.522148	0.408181
H97	H	-0.404998	-0.340245	0.129375
H98	H	0.095002	0.159755	0.629375
H99	H	-0.404843	-0.337003	-0.135505
H100	H	0.095157	0.162997	0.364495
H101	H	-1.126670	0.230763	0.000126
H102	H	-0.626670	0.730763	0.500126
H103	H	-0.547880	-0.341910	-0.134344
H104	H	-0.047880	0.158090	0.365656
H105	H	-1.122266	0.480165	0.000117
H106	H	-0.622266	0.980165	0.500117
H107	H	-0.415386	-0.195045	0.226745
H108	H	0.084614	0.304955	0.726745
