data_functionalizedCrystal
_audit_creation_method	'MofGen! by Chris Wilmer'
_symmetry_space_group_name_H-M	'P1'
_symmetry_Int_Tables_number	1
_symmetry_cell_setting	triclinic
loop_
_symmetry_equiv_pos_as_xyz
  x,y,z
_cell_length_a	12.811438
_cell_length_b	12.811415
_cell_length_c	16.776229
_cell_angle_alpha	84.562504
_cell_angle_beta	95.425543
_cell_angle_gamma	84.560771
loop_
_atom_site_label
_atom_site_type_symbol
_atom_site_fract_x
_atom_site_fract_y
_atom_site_fract_z
O1	O	1.393275	0.141393	0.024227
O2	O	1.893275	0.641393	0.524227
O3	O	1.087763	0.156763	0.001026
O4	O	1.587763	0.656763	0.501026
O5	O	1.248204	-0.003681	0.024228
O6	O	1.748204	0.496319	0.524228
O7	O	1.232834	0.301838	0.001025
O8	O	1.732834	0.801838	0.501025
O9	O	1.248183	-0.003691	0.156804
O10	O	1.748183	0.496309	0.656804
O11	O	1.087742	0.156753	0.133602
O12	O	1.587742	0.656753	0.633602
O13	O	1.393254	0.141383	0.156803
O14	O	1.893254	0.641383	0.656803
Zn15	Zn	1.240494	0.149067	0.166251
Zn16	Zn	1.740494	0.649067	0.666251
Zn17	Zn	1.240523	0.149080	-0.008423
Zn18	Zn	1.740523	0.649080	0.491577
O19	O	1.232813	0.301828	0.133600
O20	O	1.732813	0.801828	0.633600
C21	C	1.048645	0.155896	0.064548
C22	C	1.548645	0.655896	0.564548
C23	C	0.932118	0.153315	0.056309
C24	C	1.432118	0.653315	0.556309
C25	C	0.767886	0.149683	-0.027561
C26	C	1.267886	0.649683	0.472439
C27	C	0.877374	0.152107	-0.019826
C28	C	1.377374	0.652107	0.480174
C29	C	0.877366	0.152096	0.124716
C30	C	1.377366	0.652096	0.624716
C31	C	0.767878	0.149672	0.116981
C32	C	1.267878	0.649672	0.616981
C33	C	0.713142	0.148467	0.040840
C34	C	1.213142	0.648467	0.540840
C35	C	0.603651	0.146050	0.033106
C36	C	1.103651	0.646050	0.533106
C37	C	0.603646	0.146032	0.177648
C38	C	1.103646	0.646032	0.677648
C39	C	0.713133	0.148456	0.185383
C40	C	1.213133	0.648456	0.685383
C41	C	1.247332	-0.042794	0.093280
C42	C	1.747332	0.457206	0.593280
C43	C	1.244751	-0.159324	0.101515
C44	C	1.744751	0.340676	0.601515
C45	C	1.239907	-0.378274	-0.027563
C46	C	1.739907	0.121726	0.472437
C47	C	1.237482	-0.487764	-0.019829
C48	C	1.737482	0.012236	0.480171
C49	C	1.237470	-0.487796	0.124714
C50	C	1.737470	0.012204	0.624714
C51	C	1.239895	-0.378306	0.116981
C52	C	1.739895	0.121694	0.616981
C53	C	1.241115	-0.323549	0.040840
C54	C	1.741115	0.176451	0.540840
C55	C	1.243547	-0.214058	0.033108
C56	C	1.743547	0.285942	0.533108
C57	C	1.243527	-0.214090	0.177650
C58	C	1.743527	0.285910	0.677650
C59	C	1.241102	-0.323581	0.185383
C60	C	1.741102	0.176419	0.685383
C61	C	1.432372	0.142250	0.093279
C62	C	1.932372	0.642250	0.593279
C63	C	1.548899	0.144831	0.101512
C64	C	2.048899	0.644831	0.601512
C65	C	1.233685	0.340941	0.064547
C66	C	1.733685	0.840941	0.564547
C67	C	1.236266	0.457471	0.056307
C68	C	1.736266	0.957471	0.556307
N69	N	1.240483	0.149057	0.285463
N70	N	1.740483	0.649057	0.785463
N71	N	1.240542	0.149081	-0.127633
N72	N	1.740542	0.649081	0.372367
C73	C	1.311548	0.078042	0.337453
C74	C	1.811548	0.578042	0.837453
C75	C	1.311554	0.078041	0.420906
C76	C	1.811554	0.578041	0.920906
C77	C	1.240499	0.149061	0.452366
C78	C	1.740499	0.649061	0.952366
C79	C	1.169426	0.220080	0.400369
C80	C	1.669426	0.720080	0.900369
C81	C	1.169416	0.220075	0.316918
C82	C	1.669416	0.720075	0.816918
C83	C	1.169464	0.220101	0.736917
C84	C	1.669464	0.720101	1.236917
C85	C	1.169481	0.220102	0.820375
C86	C	1.669481	0.720102	1.320375
C87	C	1.311602	0.078067	0.840905
C88	C	1.811602	0.578067	1.340905
C89	C	1.311592	0.078062	0.757454
C90	C	1.811592	0.578062	1.257454
C91	C	1.240516	0.149076	0.705464
C92	C	1.740516	0.649076	1.205464
C93	C	1.240509	0.149075	0.614976
C94	C	1.740509	0.649075	1.114976
C95	C	1.240510	0.149068	0.542853
C96	C	1.740510	0.649068	1.042853
H97	H	0.559060	0.145046	0.233345
H98	H	1.059060	0.645046	0.733345
H99	H	1.240909	-0.333691	-0.089559
H100	H	1.740909	0.166309	0.410441
H101	H	0.757715	0.149433	0.247375
H102	H	1.257715	0.649433	0.747375
Br103	Br	1.408063	-0.018314	0.911467
Br104	Br	1.908063	0.481686	1.411467
H105	H	0.723318	0.148714	-0.089559
H106	H	1.223318	0.648714	0.410441
Br107	Br	0.951670	0.153750	-0.112660
Br108	Br	1.451670	0.653750	0.387340
H109	H	1.369414	0.020213	0.311845
H110	H	1.869414	0.520213	0.811845
Br111	Br	0.529366	0.144422	-0.070227
Br112	Br	1.029366	0.644422	0.429773
Br113	Br	1.072959	0.316450	0.246359
Br114	Br	1.572959	0.816450	0.746359
Br115	Br	1.235836	-0.562031	-0.112666
Br116	Br	1.735836	-0.062031	0.387334
H117	H	0.921953	0.153065	0.186707
H118	H	1.421953	0.653065	0.686707
H119	H	1.244543	-0.169476	-0.028890
H120	H	1.744543	0.330524	0.471110
H121	H	1.236468	-0.532397	0.186704
H122	H	1.736468	-0.032397	0.686704
H123	H	1.111566	0.277902	0.425989
H124	H	1.611566	0.777902	0.925989
Br125	Br	1.073044	0.316494	0.863071
Br126	Br	1.573044	0.816494	1.363071
Br127	Br	1.073009	0.316476	0.666365
Br128	Br	1.573009	0.816476	1.166365
Br129	Br	1.239434	-0.397901	0.288711
Br130	Br	1.739434	0.102099	0.788711
Br131	Br	1.407997	-0.018342	0.491468
Br132	Br	1.907997	0.481658	0.991468
Br133	Br	1.245182	-0.139817	0.270489
Br134	Br	1.745182	0.360183	0.770489
H135	H	1.369455	0.020234	0.731843
H136	H	1.869455	0.520234	1.231843
