data_functionalizedCrystal
_audit_creation_method	'MofGen! by Chris Wilmer'
_symmetry_space_group_name_H-M	'P1'
_symmetry_Int_Tables_number	1
_symmetry_cell_setting	triclinic
loop_
_symmetry_equiv_pos_as_xyz
  x,y,z
_cell_length_a	14.628931
_cell_length_b	14.628931
_cell_length_c	14.628931
_cell_angle_alpha	60.000164
_cell_angle_beta	90.000000
_cell_angle_gamma	59.999972
loop_
_atom_site_label
_atom_site_type_symbol
_atom_site_fract_x
_atom_site_fract_y
_atom_site_fract_z
Zr1	Zr	0.880621	1.000574	-0.119957
O2	O	0.734661	1.191279	-0.265918
O3	O	0.925366	0.809868	-0.075213
O4	O	0.925366	1.000573	-0.265918
O5	O	0.734660	1.000574	0.075219
O6	O	1.075798	1.000573	-0.265918
O7	O	0.734660	1.000574	-0.075213
O8	O	1.075797	0.659437	0.075219
O9	O	0.734661	1.341710	-0.265917
O10	O	1.056715	0.888308	-0.056129
O11	O	0.944449	0.888308	0.056136
O12	O	0.944450	1.112839	-0.168395
O13	O	0.832184	1.112839	-0.056129
Zr14	Zr	1.120543	1.000574	0.119964
Zr15	Zr	1.120543	1.000573	-0.119957
Zr16	Zr	0.880621	1.000574	0.119964
Zr17	Zr	0.880622	1.240495	-0.119957
Zr18	Zr	1.120542	0.760652	0.119964
O19	O	1.075798	1.191279	0.075220
O20	O	1.075799	1.191278	-0.265917
O21	O	0.734660	1.191280	0.075219
O22	O	1.266503	0.809868	0.265925
O23	O	1.266504	0.809867	-0.075212
O24	O	0.925365	0.809869	0.265924
O25	O	1.266504	1.000573	-0.075212
O26	O	1.075798	1.000574	0.265925
O27	O	0.925366	1.000574	0.265925
O28	O	1.266504	1.000573	0.075220
O29	O	0.925367	1.341710	-0.265917
O30	O	1.075797	0.659437	0.265924
O31	O	1.266503	0.659437	0.265924
O32	O	1.266503	0.659436	0.075219
O33	O	0.734661	1.341711	-0.075212
O34	O	0.925367	1.341710	-0.075212
O35	O	1.056714	0.888308	0.168402
O36	O	1.168980	0.888308	0.056136
O37	O	1.056715	1.112839	-0.056129
O38	O	0.944449	1.112839	0.056136
C39	C	1.000581	0.700469	0.000003
C40	C	1.000581	0.598616	0.000003
C41	C	0.700476	1.000574	0.000003
C42	C	0.598623	1.000575	0.000003
C43	C	1.079340	0.474448	0.078762
C44	C	1.079342	0.369176	0.078764
C45	C	0.392259	1.111955	-0.055687
C46	C	0.497528	1.111957	-0.055688
C47	C	1.300688	1.000573	0.000004
C48	C	1.402541	1.000572	0.000004
C49	C	1.000582	1.000573	-0.300101
C50	C	1.000583	1.000572	-0.401954
C51	C	1.000583	1.300678	0.000004
C52	C	1.000583	1.402531	0.000004
C53	C	0.944892	1.111955	-0.503054
C54	C	0.944890	1.111957	-0.608326
C55	C	1.000582	1.000574	0.300108
C56	C	1.000581	1.000575	0.401961
C57	C	1.300687	0.700468	0.000003
C58	C	1.402540	0.598615	0.000003
C59	C	1.000581	0.700470	0.300108
C60	C	1.000581	0.598617	0.401960
C61	C	1.300687	0.700469	0.300108
C62	C	1.402539	0.598616	0.401961
C63	C	0.700477	1.300678	-0.300101
C64	C	0.598625	1.402531	-0.401954
C65	C	0.700477	1.300679	0.000004
C66	C	0.598624	1.402532	0.000004
C67	C	1.000583	1.300677	-0.300101
C68	C	1.000583	1.402530	-0.401953
C69	C	1.392258	0.553206	-0.055688
C70	C	1.497527	0.447935	-0.055689
C71	C	1.056272	0.553208	0.503061
C72	C	1.056273	0.447938	0.608332
C73	C	1.503640	0.553207	0.391679
C74	C	1.608911	0.447937	0.496948
H75	H	1.146764	0.446078	0.146193
H76	H	0.488900	1.207315	-0.103372
H77	H	0.952906	0.441574	0.511318
H78	H	1.393919	0.559563	0.488697
C79	C	1.120688	0.605967	0.514714
N80	N	1.169211	0.645702	0.523493
C81	C	1.485865	0.395178	-0.120101
N82	N	1.477081	0.355440	-0.168619
C83	C	1.519715	0.545853	0.064417
N84	N	1.607973	0.506113	0.112938
C85	C	1.064995	0.871744	-0.390302
N86	N	1.113511	0.774707	-0.381522
C87	C	1.275082	0.605959	-0.120094
N88	N	1.186825	0.645686	-0.168601
H89	H	1.103953	0.408886	0.695062
C90	C	0.936166	0.545857	0.390308
N91	N	0.887648	0.506117	0.381528
H92	H	1.512264	0.592267	0.304944
C93	C	1.726080	0.395181	0.485286
N94	N	1.814336	0.355444	0.476502
C95	C	1.481459	0.455281	0.609713
N96	N	1.393203	0.495020	0.618497
C97	C	0.880475	1.240787	-0.725494
N98	N	0.831958	1.337826	-0.813750
H99	H	0.933154	0.509008	-0.067431
C100	C	0.909486	0.636950	-0.091092
N101	N	0.840872	0.665827	-0.159709
C102	C	1.170439	0.225326	0.169860
N103	N	1.239054	0.116973	0.238478
C104	C	0.519716	0.871744	0.064415
N105	N	0.607973	0.774707	0.112929
C106	C	0.275084	1.240783	-0.120105
N107	N	0.186827	1.337820	-0.168630
H108	H	0.607260	0.905211	0.047677
H109	H	0.897218	1.207311	-0.511674
H110	H	1.048257	0.905211	-0.511312
H111	H	1.607259	0.441568	0.047692
