data_functionalizedCrystal
_audit_creation_method	'MofGen! by Chris Wilmer'
_symmetry_space_group_name_H-M	'P1'
_symmetry_Int_Tables_number	1
_symmetry_cell_setting	triclinic
loop_
_symmetry_equiv_pos_as_xyz
  x,y,z
_cell_length_a	18.050591
_cell_length_b	18.050589
_cell_length_c	18.050583
_cell_angle_alpha	90.031910
_cell_angle_beta	90.022021
_cell_angle_gamma	90.024227
loop_
_atom_site_label
_atom_site_type_symbol
_atom_site_fract_x
_atom_site_fract_y
_atom_site_fract_z
Zn1	Zn	1.135301	-0.295685	0.420054
Zn2	Zn	1.468634	0.037648	0.753387
Zn3	Zn	1.801967	0.370981	1.086721
Zn4	Zn	1.135209	-0.419898	0.295873
Zn5	Zn	1.468542	-0.086565	0.629207
Zn6	Zn	1.801876	0.246768	0.962540
Zn7	Zn	1.011117	-0.295718	0.295865
Zn8	Zn	1.344451	0.037615	0.629198
Zn9	Zn	1.677784	0.370949	0.962532
Zn10	Zn	1.011068	-0.419829	0.420009
Zn11	Zn	1.344401	-0.086496	0.753342
Zn12	Zn	1.677734	0.246837	1.086676
O13	O	1.073174	-0.357783	0.357950
O14	O	1.406507	-0.024449	0.691284
O15	O	1.739840	0.308884	1.024617
O16	O	1.239213	-0.312178	0.403604
O17	O	1.572546	0.021156	0.736937
O18	O	1.905880	0.354489	1.070270
O19	O	1.118730	-0.403468	0.191948
O20	O	1.452064	-0.070135	0.525281
O21	O	1.785397	0.263199	0.858614
O22	O	1.027650	-0.191789	0.312354
O23	O	1.360983	0.141544	0.645688
O24	O	1.694316	0.474878	0.979021
O25	O	1.239146	-0.403436	0.312369
O26	O	1.572479	-0.070103	0.645702
O27	O	1.905812	0.263230	0.979035
O28	O	1.118887	-0.191765	0.403595
O29	O	1.452220	0.141568	0.736929
O30	O	1.785553	0.474902	1.070262
O31	O	1.027561	-0.312233	0.191942
O32	O	1.360894	0.021100	0.525275
O33	O	1.694227	0.354433	0.858608
O34	O	0.907186	-0.312166	0.312311
O35	O	1.240520	0.021167	0.645644
O36	O	1.573853	0.354500	0.978977
O37	O	1.027565	-0.403319	0.523940
O38	O	1.360899	-0.069985	0.857273
O39	O	1.694232	0.263348	1.190606
O40	O	0.907150	-0.403350	0.403519
O41	O	1.240483	-0.070017	0.736852
O42	O	1.573816	0.263316	1.070185
O43	O	1.118838	-0.312111	0.523973
O44	O	1.452172	0.021223	0.857306
O45	O	1.785505	0.354556	1.190639
O46	O	1.118682	-0.523814	0.312325
O47	O	1.452016	-0.190480	0.645658
O48	O	1.785349	0.142853	0.978992
O49	O	1.027476	-0.523763	0.403527
O50	O	1.360810	-0.190430	0.736860
O51	O	1.694143	0.142904	1.070193
C52	C	0.880222	-0.357755	0.357909
C53	C	1.213555	-0.024422	0.691243
C54	C	1.546888	0.308912	1.024576
C55	C	0.797676	-0.357761	0.357909
C56	C	1.131009	-0.024428	0.691243
C57	C	1.464342	0.308906	1.024576
C58	C	1.073084	-0.550735	0.357938
C59	C	1.406417	-0.217402	0.691271
C60	C	1.739751	0.115932	1.024605
C61	C	1.073114	-0.633281	0.357958
C62	C	1.406447	-0.299947	0.691291
C63	C	1.739780	0.033386	1.024624
C64	C	0.598223	-0.308118	0.308425
C65	C	0.931557	0.025216	0.641758
C66	C	1.264890	0.358549	0.975091
C67	C	0.548803	-0.375858	0.290154
C68	C	0.882137	-0.042525	0.623487
C69	C	1.215470	0.290809	0.956820
C70	C	0.646545	-0.357784	0.357943
C71	C	0.979879	-0.024450	0.691276
C72	C	1.313212	0.308883	1.024610
C73	C	0.548884	-0.290067	0.376212
C74	C	0.882217	0.043266	0.709545
C75	C	1.215550	0.376600	1.042879
C76	C	0.500560	-0.357799	0.357974
C77	C	0.833894	-0.024466	0.691307
C78	C	1.167227	0.308867	1.024641
C79	C	0.598213	-0.425559	0.339637
C80	C	0.931546	-0.092226	0.672970
C81	C	1.264879	0.241107	1.006303
C82	C	0.598297	-0.339723	0.425726
C83	C	0.931631	-0.006389	0.759060
C84	C	1.264964	0.326944	1.092393
C85	C	0.548900	-0.407510	0.407481
C86	C	0.882233	-0.074176	0.740814
C87	C	1.215566	0.259157	1.074148
C88	C	0.730644	-0.357774	0.357923
C89	C	1.063977	-0.024440	0.691256
C90	C	1.397310	0.308893	1.024590
C91	C	0.416464	-0.357817	0.357994
C92	C	0.749797	-0.024484	0.691327
C93	C	1.083130	0.308850	1.024660
C94	C	1.023565	-0.832731	0.407536
C95	C	1.356898	-0.499397	0.740869
C96	C	1.690231	-0.166064	1.074202
C97	C	1.005465	-0.882180	0.339767
C98	C	1.338799	-0.548846	0.673100
C99	C	1.672132	-0.215513	1.006433
C100	C	1.073187	-0.784411	0.357967
C101	C	1.406520	-0.451078	0.691301
C102	C	1.739853	-0.117744	1.024634
C103	C	1.091322	-0.882044	0.425744
C104	C	1.424656	-0.548710	0.759078
C105	C	1.757989	-0.215377	1.092411
C106	C	1.073256	-0.930396	0.357983
C107	C	1.406589	-0.597063	0.691316
C108	C	1.739922	-0.263729	1.024649
C109	C	1.055052	-0.832773	0.290162
C110	C	1.388385	-0.499439	0.623495
C111	C	1.721718	-0.166106	0.956829
C112	C	1.140940	-0.832632	0.376186
C113	C	1.474273	-0.499299	0.709519
C114	C	1.807607	-0.165966	1.042852
C115	C	1.122867	-0.882059	0.308370
C116	C	1.456200	-0.548726	0.641703
C117	C	1.789533	-0.215392	0.975036
C118	C	1.073145	-0.700313	0.357959
C119	C	1.406478	-0.366979	0.691293
C120	C	1.739812	-0.033646	1.024626
C121	C	1.073297	-1.014493	0.357983
C122	C	1.406631	-0.681159	0.691316
C123	C	1.739964	-0.347826	1.024649
C124	C	1.266879	-0.357811	0.357992
C125	C	1.600213	-0.024478	0.691325
C126	C	1.933546	0.308856	1.024659
C127	C	1.349425	-0.357823	0.358010
C128	C	1.682758	-0.024490	0.691343
C129	C	2.016092	0.308844	1.024676
C130	C	1.073207	-0.357703	0.551656
C131	C	1.406540	-0.024370	0.884989
C132	C	1.739873	0.308963	1.218323
C133	C	1.073221	-0.357670	0.634202
C134	C	1.406554	-0.024336	0.967535
C135	C	1.739887	0.308997	1.300869
C136	C	1.073284	-0.164077	0.357979
C137	C	1.406617	0.169256	0.691312
C138	C	1.739951	0.502590	1.024646
C139	C	1.073331	-0.081531	0.357991
C140	C	1.406664	0.251802	0.691325
C141	C	1.739998	0.585135	1.024658
C142	C	1.073184	-0.357808	0.164998
C143	C	1.406517	-0.024475	0.498332
C144	C	1.739850	0.308859	0.831665
C145	C	1.073314	-0.357633	0.082453
C146	C	1.406647	-0.024299	0.415786
C147	C	1.739980	0.309034	0.749120
C148	C	1.122905	-0.308047	0.833671
C149	C	1.456238	0.025287	1.167004
C150	C	1.789571	0.358620	1.500337
C151	C	1.055171	-0.289866	0.883057
C152	C	1.388504	0.043467	1.216390
C153	C	1.721838	0.376801	1.549724
C154	C	1.073250	-0.357657	0.785332
C155	C	1.406584	-0.024324	1.118666
C156	C	1.739917	0.309010	1.451999
C157	C	1.141011	-0.375791	0.883028
C158	C	1.474345	-0.042457	1.216361
C159	C	1.807678	0.290876	1.549694
C160	C	1.073285	-0.357643	0.931317
C161	C	1.406618	-0.024310	1.264651
C162	C	1.739952	0.309024	1.597984
C163	C	1.005481	-0.339441	0.833631
C164	C	1.338814	-0.006108	1.166965
C165	C	1.672147	0.327226	1.500298
C166	C	1.091367	-0.425397	0.833598
C167	C	1.424700	-0.092064	1.166931
C168	C	1.758033	0.241269	1.500265
C169	C	1.023586	-0.407242	0.882962
C170	C	1.356920	-0.073909	1.216295
C171	C	1.690253	0.259424	1.549629
C172	C	1.073231	-0.357663	0.701234
C173	C	1.406565	-0.024330	1.034567
C174	C	1.739898	0.309004	1.367901
C175	C	1.073296	-0.357637	1.015414
C176	C	1.406630	-0.024304	1.348747
C177	C	1.739963	0.309029	1.682081
H178	H	0.527065	-0.391146	0.232844
H179	H	0.860398	-0.057812	0.566177
H180	H	1.193731	0.275521	0.899511
O181	O	0.929571	-0.319019	0.805022
O182	O	1.262904	0.014314	1.138355
O183	O	1.596238	0.347648	1.471688
H184	H	0.930161	-0.319155	0.743534
H185	H	1.263494	0.014179	1.076867
H186	H	1.596827	0.347512	1.410201
O187	O	1.111611	-0.910711	0.501659
O188	O	1.444945	-0.577378	0.834992
O189	O	1.778278	-0.244044	1.168325
H190	H	1.070302	-0.890953	0.542686
H191	H	1.403636	-0.557620	0.876019
H192	H	1.736969	-0.224287	1.209353
H193	H	1.164827	-0.266067	0.812025
H194	H	1.498160	0.067267	1.145358
H195	H	1.831494	0.400600	1.478691
H196	H	1.039674	-0.811219	0.232834
H197	H	1.373007	-0.477886	0.566168
H198	H	1.706341	-0.144552	0.899501
H199	H	0.619791	-0.482850	0.324134
H200	H	0.953124	-0.149517	0.657467
H201	H	1.286457	0.183816	0.990801
O202	O	1.111683	-0.501262	0.804792
O203	O	1.445016	-0.167929	1.138125
O204	O	1.778350	0.165404	1.471458
H205	H	1.071038	-0.542545	0.825399
H206	H	1.404371	-0.209211	1.158732
H207	H	1.737704	0.124122	1.492066
H208	H	0.527379	-0.449566	0.449370
H209	H	0.860712	-0.116233	0.782704
H210	H	1.194046	0.217101	1.116037
H211	H	0.981562	-0.449190	0.904469
H212	H	1.314895	-0.115857	1.237802
H213	H	1.648228	0.217477	1.571135
H214	H	1.198192	-0.810855	0.391613
H215	H	1.531525	-0.477521	0.724947
H216	H	1.864858	-0.144188	1.058280
H217	H	0.620054	-0.324414	0.483019
H218	H	0.953387	0.008919	0.816352
H219	H	1.286721	0.342252	1.149686
H220	H	0.527176	-0.232801	0.391625
H221	H	0.860510	0.100533	0.724959
H222	H	1.193843	0.433866	1.058292
O223	O	0.967904	-0.804025	0.462981
O224	O	1.301238	-0.470691	0.796315
O225	O	1.634571	-0.137358	1.129648
H226	H	0.911733	-0.823869	0.447682
H227	H	1.245067	-0.490536	0.781015
H228	H	1.578400	-0.157203	1.114349
O229	O	0.929611	-0.911010	0.319350
O230	O	1.262945	-0.577676	0.652683
O231	O	1.596278	-0.244343	0.986016
H232	H	0.888489	-0.891258	0.360567
H233	H	1.221822	-0.557925	0.693900
H234	H	1.555156	-0.224592	1.027234
O235	O	0.626927	-0.252546	0.252902
O236	O	0.960261	0.080788	0.586235
O237	O	1.293594	0.414121	0.919569
H238	H	0.607105	-0.267727	0.196690
H239	H	0.940438	0.065606	0.530023
H240	H	1.273772	0.398940	0.863357
O241	O	1.216893	-0.396125	0.911775
O242	O	1.550226	-0.062792	1.245108
O243	O	1.883560	0.270541	1.578441
H244	H	1.254811	-0.405744	0.864344
H245	H	1.588144	-0.072411	1.197677
H246	H	1.921477	0.260923	1.531011
O247	O	1.178495	-0.910576	0.252797
O248	O	1.511829	-0.577242	0.586130
O249	O	1.845162	-0.243909	0.919463
H250	H	1.163296	-0.890736	0.196621
H251	H	1.496629	-0.557402	0.529955
H252	H	1.829963	-0.224069	0.863288
O253	O	1.034883	-0.213981	0.911843
O254	O	1.368216	0.119353	1.245177
O255	O	1.701550	0.452686	1.578510
H256	H	1.076165	-0.172902	0.892110
H257	H	1.409498	0.160431	1.225443
H258	H	1.742832	0.493764	1.558776
