data_functionalizedCrystal
_audit_creation_method	'MofGen! by Chris Wilmer'
_symmetry_space_group_name_H-M	'P1'
_symmetry_Int_Tables_number	1
_symmetry_cell_setting	triclinic
loop_
_symmetry_equiv_pos_as_xyz
  x,y,z
_cell_length_a	16.992694
_cell_length_b	14.044220
_cell_length_c	16.053802
_cell_angle_alpha	92.799619
_cell_angle_beta	87.249047
_cell_angle_gamma	91.928550
loop_
_atom_site_label
_atom_site_type_symbol
_atom_site_fract_x
_atom_site_fract_y
_atom_site_fract_z
O1	O	1.057564	0.198305	-0.069327
O2	O	0.829125	0.196087	-0.069352
O3	O	0.939916	0.058952	-0.069331
O4	O	0.946774	0.335440	-0.069347
O5	O	0.933815	0.066468	0.069526
O6	O	0.823025	0.203602	0.069506
O7	O	1.051464	0.205821	0.069531
Zn8	Zn	0.936276	0.205905	0.091565
Zn9	Zn	0.944313	0.196003	-0.091386
O10	O	0.940673	0.342955	0.069511
C11	C	0.796663	0.196993	0.000074
C12	C	0.709024	0.188484	0.000065
C13	C	0.933863	0.027168	0.000098
C14	C	0.924909	-0.078736	0.000098
C15	C	0.664526	0.270580	0.000061
C16	C	0.582179	0.262581	0.000073
C17	C	0.544333	0.172483	0.000083
C18	C	0.588837	0.090381	0.000090
C19	C	0.671182	0.098382	0.000084
C20	C	0.298414	0.139322	0.000107
C21	C	0.216063	0.131327	0.000111
C22	C	0.209412	0.303528	0.000096
C23	C	0.291759	0.311521	0.000085
C24	C	0.336255	0.229419	0.000096
N25	N	0.460161	0.164304	0.000093
N26	N	0.420425	0.237599	0.000092
C27	C	0.908540	-0.272638	0.000084
C28	C	0.972046	-0.325460	0.000088
C29	C	0.962938	-0.433354	0.000080
C30	C	0.917647	-0.164734	0.000091
C31	C	1.083926	0.204915	0.000103
C32	C	1.171565	0.213424	0.000107
C33	C	0.946726	0.374740	0.000080
C34	C	0.955680	0.480643	0.000074
N35	N	0.930796	0.212662	0.216425
N36	N	0.949799	0.189239	-0.216245
C37	C	0.977958	0.154335	0.260127
C38	C	0.974132	0.159071	0.347533
C39	C	0.923149	0.222140	0.391235
C40	C	0.875982	0.280470	0.347526
C41	C	0.879804	0.275728	0.260122
C42	C	0.906453	0.242827	0.652642
C43	C	0.902637	0.247566	0.740052
C44	C	1.000787	0.126165	0.740053
C45	C	1.004608	0.121433	0.652647
C46	C	0.957438	0.179759	0.608946
N47	N	0.919240	0.226985	0.480578
N48	N	0.961343	0.174909	0.519604
H49	H	0.545952	0.329433	0.000069
H50	H	0.847335	-0.308444	0.000075
H51	H	1.019477	0.102981	0.224551
C52	C	0.855212	0.306269	0.605353
C53	C	0.809765	0.362536	0.662336
C54	C	0.762559	0.421003	0.618801
H55	H	0.821423	0.267739	0.571265
H56	H	0.887814	0.346309	0.571263
H57	H	0.777167	0.322501	0.696412
H58	H	0.843534	0.401086	0.696426
H59	H	0.795160	0.461042	0.584711
H60	H	0.728774	0.382465	0.584715
H61	H	0.731723	0.459193	0.657457
H62	H	1.033258	-0.289655	0.000039
C63	C	0.719361	0.009132	0.000041
C64	C	0.668595	-0.071487	0.000027
C65	C	0.712949	-0.153723	-0.000021
H66	H	0.749511	0.011159	0.048448
H67	H	0.753728	0.005999	-0.048404
H68	H	0.634242	-0.068355	0.048466
H69	H	0.638444	-0.073545	-0.048377
H70	H	0.747315	-0.156856	-0.048466
H71	H	0.743097	-0.151686	0.048387
H72	H	0.678511	-0.208432	-0.000039
H73	H	1.012535	0.111576	0.383115
H74	H	1.046122	0.070077	0.617066
H75	H	1.039190	0.078678	0.775642
H76	H	0.861118	0.298929	0.775630
C77	C	0.161007	0.392576	-0.000038
C78	C	0.116650	0.389139	-0.071462
C79	C	0.072042	0.471151	-0.071604
H80	H	0.195249	0.447449	-0.000086
H81	H	0.126582	0.395657	0.048363
H82	H	0.151071	0.386067	-0.119850
H83	H	0.082393	0.334284	-0.071429
H84	H	0.037617	0.474232	-0.023204
H85	H	0.106290	0.526017	-0.071651
H86	H	0.041935	0.468825	-0.120061
H87	H	0.185251	0.057955	0.000118
H88	H	0.834466	0.331819	0.383114
H89	H	0.841398	0.323224	0.224540
C90	C	0.332699	0.409431	0.000122
C91	C	0.276102	0.479619	0.000143
C92	C	0.313787	0.569825	0.000185
H93	H	0.366801	0.413646	-0.048290
H94	H	0.362543	0.418802	0.048562
H95	H	0.246271	0.470252	-0.048292
H96	H	0.241998	0.475435	0.048551
H97	H	0.343631	0.579196	0.048625
H98	H	0.347888	0.574030	-0.048227
H99	H	0.275392	0.617459	0.000208
H100	H	0.334634	0.072468	0.000117
H101	H	0.558015	0.017022	0.000110
C102	C	0.705465	0.368491	0.000092
C103	C	0.648865	0.438675	0.000114
C104	C	0.686545	0.528884	0.000157
H105	H	0.739566	0.372708	-0.048320
H106	H	0.735310	0.377864	0.048532
H107	H	0.619033	0.429306	-0.048321
H108	H	0.614761	0.434489	0.048523
H109	H	0.716390	0.538256	0.048596
H110	H	0.720645	0.533091	-0.048256
H111	H	0.648148	0.576515	0.000180
