data_functionalizedCrystal
_audit_creation_method	'MofGen! by Chris Wilmer'
_symmetry_space_group_name_H-M	'P1'
_symmetry_Int_Tables_number	1
_symmetry_cell_setting	triclinic
loop_
_symmetry_equiv_pos_as_xyz
  x,y,z
_cell_length_a	18.215407
_cell_length_b	19.121063
_cell_length_c	18.215399
_cell_angle_alpha	87.590157
_cell_angle_beta	90.019833
_cell_angle_gamma	92.469446
loop_
_atom_site_label
_atom_site_type_symbol
_atom_site_fract_x
_atom_site_fract_y
_atom_site_fract_z
Zn1	Zn	1.112559	-0.279613	0.428596
Zn2	Zn	1.445893	0.053720	0.761929
Zn3	Zn	1.779226	0.387054	1.095263
Zn4	Zn	1.107212	-0.397068	0.310772
Zn5	Zn	1.440545	-0.063735	0.644105
Zn6	Zn	1.773878	0.269599	0.977439
Zn7	Zn	0.989491	-0.279636	0.305544
Zn8	Zn	1.322824	0.053697	0.638878
Zn9	Zn	1.656157	0.387031	0.972211
Zn10	Zn	0.984203	-0.397029	0.433795
Zn11	Zn	1.317537	-0.063696	0.767129
Zn12	Zn	1.650870	0.269638	1.100462
O13	O	1.048366	-0.338336	0.369677
O14	O	1.381700	-0.005003	0.703010
O15	O	1.715033	0.328330	1.036344
O16	O	1.214834	-0.295200	0.412978
O17	O	1.548167	0.038133	0.746312
O18	O	1.881500	0.371466	1.079645
O19	O	1.091570	-0.381516	0.207095
O20	O	1.424904	-0.048183	0.540429
O21	O	1.758237	0.285150	0.873762
O22	O	1.010267	-0.181348	0.317504
O23	O	1.343600	0.151985	0.650837
O24	O	1.676934	0.485318	0.984170
O25	O	1.210905	-0.381494	0.326414
O26	O	1.544238	-0.048161	0.659747
O27	O	1.877572	0.285173	0.993080
O28	O	1.100685	-0.181331	0.407909
O29	O	1.434018	0.152002	0.741242
O30	O	1.767351	0.485335	1.074576
O31	O	1.005081	-0.295240	0.203255
O32	O	1.338415	0.038094	0.536588
O33	O	1.671748	0.371427	0.869921
O34	O	0.885805	-0.295202	0.322545
O35	O	1.219139	0.038132	0.655879
O36	O	1.552472	0.371465	0.989212
O37	O	1.001255	-0.381427	0.536089
O38	O	1.334589	-0.048094	0.869422
O39	O	1.667922	0.285239	1.202755
O40	O	0.881921	-0.381450	0.416771
O41	O	1.215254	-0.048116	0.750104
O42	O	1.548587	0.285217	1.083437
O43	O	1.095558	-0.295162	0.532269
O44	O	1.428891	0.038171	0.865602
O45	O	1.762224	0.371504	1.198935
O46	O	1.086443	-0.495348	0.331455
O47	O	1.419777	-0.162014	0.664788
O48	O	1.753110	0.171319	0.998122
O49	O	0.996070	-0.495319	0.421840
O50	O	1.329403	-0.161985	0.755173
O51	O	1.662736	0.171348	1.088506
C52	C	0.857160	-0.338324	0.369655
C53	C	1.190494	-0.004991	0.702989
C54	C	1.523827	0.328342	1.036322
C55	C	0.775361	-0.338336	0.369664
C56	C	1.108694	-0.005003	0.702998
C57	C	1.442028	0.328330	1.036331
C58	C	0.585160	-0.383316	0.418671
C59	C	0.918494	-0.049983	0.752005
C60	C	1.251827	0.283350	1.085338
C61	C	0.508302	-0.383318	0.418681
C62	C	0.841635	-0.049985	0.752014
C63	C	1.174968	0.283348	1.085347
C64	C	0.512323	-0.293369	0.320699
C65	C	0.845657	0.039964	0.654032
C66	C	1.178990	0.373297	0.987366
C67	C	0.589181	-0.293364	0.320694
C68	C	0.922514	0.039969	0.654027
C69	C	1.255848	0.373302	0.987361
C70	C	0.625597	-0.338342	0.369679
C71	C	0.958931	-0.005008	0.703013
C72	C	1.292264	0.328325	1.036346
C73	C	0.471881	-0.338349	0.369694
C74	C	0.805214	-0.005016	0.703027
C75	C	1.138548	0.328318	1.036360
C76	C	0.388547	-0.338351	0.369703
C77	C	0.721881	-0.005018	0.703037
C78	C	1.055214	0.328316	1.036370
C79	C	0.708936	-0.338339	0.369671
C80	C	1.042270	-0.005005	0.703004
C81	C	1.375603	0.328328	1.036337
C82	C	1.040122	-0.520817	0.377795
C83	C	1.373456	-0.187484	0.711128
C84	C	1.706789	0.145849	1.044462
C85	C	1.036663	-0.598883	0.381293
C86	C	1.369996	-0.265550	0.714626
C87	C	1.703330	0.067783	1.047959
C88	C	1.082127	-0.635551	0.335916
C89	C	1.415460	-0.302217	0.669250
C90	C	1.748794	0.031116	1.002583
C91	C	1.078878	-0.708902	0.339210
C92	C	1.412211	-0.375569	0.672543
C93	C	1.745545	-0.042235	1.005877
C94	C	1.030161	-0.745585	0.387877
C95	C	1.363494	-0.412251	0.721210
C96	C	1.696827	-0.078918	1.054543
C97	C	0.984695	-0.708912	0.433258
C98	C	1.318028	-0.375579	0.766591
C99	C	1.651361	-0.042246	1.099925
C100	C	0.987948	-0.635562	0.429968
C101	C	1.321281	-0.302229	0.763301
C102	C	1.654615	0.031104	1.096634
C103	C	1.017985	-0.967055	0.400168
C104	C	1.351318	-0.633721	0.733501
C105	C	1.684652	-0.300388	1.066835
C106	C	1.014733	-1.040410	0.403454
C107	C	1.348067	-0.707076	0.736787
C108	C	1.681400	-0.373743	1.070120
C109	C	1.108918	-1.040394	0.309406
C110	C	1.442251	-0.707061	0.642739
C111	C	1.775585	-0.373728	0.976073
C112	C	1.112164	-0.967043	0.306117
C113	C	1.445497	-0.633710	0.639450
C114	C	1.778831	-0.300376	0.972783
C115	C	1.066701	-0.930377	0.351501
C116	C	1.400034	-0.597044	0.684834
C117	C	1.733368	-0.263710	1.018167
C118	C	1.026837	-0.820561	0.391243
C119	C	1.360170	-0.487228	0.724576
C120	C	1.693503	-0.153895	1.057910
C121	C	1.070029	-0.855401	0.348138
C122	C	1.403362	-0.522068	0.681471
C123	C	1.736696	-0.188735	1.014804
C124	C	1.240319	-0.338349	0.369699
C125	C	1.573652	-0.005016	0.703032
C126	C	1.906985	0.328318	1.036366
C127	C	1.322117	-0.338354	0.369709
C128	C	1.655451	-0.005021	0.703042
C129	C	1.988784	0.328312	1.036375
C130	C	1.048413	-0.338288	0.561628
C131	C	1.381747	-0.004955	0.894961
C132	C	1.715080	0.328379	1.228294
C133	C	1.048433	-0.338267	0.643426
C134	C	1.381767	-0.004934	0.976759
C135	C	1.715100	0.328399	1.310092
C136	C	1.056662	-0.155143	0.361543
C137	C	1.389996	0.178190	0.694877
C138	C	1.723329	0.511524	1.028210
C139	C	1.060197	-0.077077	0.358077
C140	C	1.393531	0.256256	0.691411
C141	C	1.726864	0.589590	1.024744
C142	C	1.048364	-0.338334	0.178471
C143	C	1.381697	-0.005001	0.511804
C144	C	1.715031	0.328333	0.845137
C145	C	1.048495	-0.338157	0.096664
C146	C	1.381829	-0.004823	0.429998
C147	C	1.715162	0.328510	0.763331
C148	C	1.097555	-0.293307	0.829630
C149	C	1.430889	0.040026	1.162963
C150	C	1.764222	0.373359	1.496297
C151	C	1.097565	-0.293287	0.906488
C152	C	1.430898	0.040047	1.239821
C153	C	1.764232	0.373380	1.573155
C154	C	0.999368	-0.383119	0.910455
C155	C	1.332701	-0.049786	1.243788
C156	C	1.666035	0.283548	1.577121
C157	C	0.999355	-0.383135	0.833598
C158	C	1.332689	-0.049802	1.166931
C159	C	1.666022	0.283531	1.500265
C160	C	1.048453	-0.338231	0.793188
C161	C	1.381786	-0.004897	1.126521
C162	C	1.715120	0.328436	1.459854
C163	C	1.048476	-0.338194	0.946902
C164	C	1.381809	-0.004860	1.280236
C165	C	1.715142	0.328473	1.613569
C166	C	1.048486	-0.338172	1.030235
C167	C	1.381819	-0.004838	1.363568
C168	C	1.715152	0.328495	1.696902
C169	C	1.048442	-0.338251	0.709850
C170	C	1.381776	-0.004918	1.043183
C171	C	1.715109	0.328415	1.376516
H172	H	0.475381	-0.419940	0.458576
H173	H	0.808715	-0.086607	0.791910
H174	H	1.142048	0.246726	1.125243
H175	H	0.987169	-0.850437	0.430866
H176	H	1.320503	-0.517103	0.764200
H177	H	1.653836	-0.183770	1.097533
H178	H	1.137532	-0.256741	0.796730
H179	H	1.470865	0.076592	1.130064
H180	H	1.804199	0.409926	1.463397
C181	C	0.625216	-0.432787	0.472562
C182	C	0.958549	-0.099454	0.805895
C183	C	1.291883	0.233879	1.139229
N184	N	0.655384	-0.470048	0.513156
N185	N	0.988717	-0.136715	0.846489
N186	N	1.322050	0.196618	1.179823
C187	C	1.151583	-0.243869	0.946571
C188	C	1.484916	0.089464	1.279904
C189	C	1.818250	0.422798	1.613238
N190	N	1.192272	-0.206646	0.976761
N191	N	1.525605	0.126688	1.310094
N192	N	1.858939	0.460021	1.643428
C193	C	0.945362	-0.432510	0.954913
C194	C	1.278695	-0.099177	1.288246
C195	C	1.612029	0.234156	1.621579
N196	N	0.904683	-0.469713	0.988398
N197	N	1.238017	-0.136379	1.321731
N198	N	1.571350	0.196954	1.655065
C199	C	0.945334	-0.432555	0.793509
C200	C	1.278667	-0.099222	1.126842
C201	C	1.612001	0.234112	1.460176
N202	N	0.904645	-0.469774	0.763314
N203	N	1.237978	-0.136441	1.096647
N204	N	1.571312	0.196892	1.429980
C205	C	0.633664	-0.243886	0.266795
C206	C	0.966998	0.089447	0.600129
C207	C	1.300331	0.422780	0.933462
N208	N	0.667169	-0.206620	0.226202
N209	N	1.000502	0.126713	0.559535
N210	N	1.333836	0.460047	0.892869
H211	H	0.980966	-0.937207	0.437120
H212	H	1.314299	-0.603874	0.770453
H213	H	1.647632	-0.270540	1.103787
C214	C	0.472258	-0.243901	0.266814
C215	C	0.805591	0.089433	0.600148
C216	C	1.138925	0.422766	0.933481
N217	N	0.442081	-0.206642	0.226225
N218	N	0.775415	0.126692	0.559559
N219	N	1.108748	0.460025	0.892892
C220	C	1.165738	-0.926697	0.252560
C221	C	1.499071	-0.593364	0.585894
C222	C	1.832405	-0.260031	0.919227
N223	N	1.206082	-0.896309	0.212212
N224	N	1.539416	-0.562976	0.545546
N225	N	1.872749	-0.229642	0.878879
H226	H	1.121795	-0.605688	0.296283
H227	H	1.455128	-0.272355	0.629617
H228	H	1.788461	0.060978	0.962950
C229	C	0.931102	-0.749266	0.486790
C230	C	1.264436	-0.415933	0.820123
C231	C	1.597769	-0.082599	1.153456
N232	N	0.890732	-0.779660	0.527108
N233	N	1.224066	-0.446326	0.860441
N234	N	1.557399	-0.112993	1.193775
H235	H	1.115899	-0.738753	0.302259
H236	H	1.449232	-0.405420	0.635593
H237	H	1.782566	-0.072086	0.968926
C238	C	1.158926	-1.080733	0.259489
C239	C	1.492260	-0.747399	0.592823
C240	C	1.825593	-0.414066	0.926156
N241	N	1.196596	-1.111116	0.221892
N242	N	1.529930	-0.777783	0.555225
N243	N	1.863263	-0.444449	0.888558
H244	H	0.975071	-1.070275	0.443097
H245	H	1.308404	-0.736942	0.776430
H246	H	1.641737	-0.403608	1.109763
C247	C	1.123615	-0.815048	0.294604
C248	C	1.456949	-0.481715	0.627937
C249	C	1.790282	-0.148381	0.961271
N250	N	1.163974	-0.784648	0.254279
N251	N	1.497307	-0.451314	0.587613
N252	N	1.830640	-0.117981	0.920946
C253	C	0.937934	-0.595229	0.479886
C254	C	1.271268	-0.261895	0.813219
C255	C	1.604601	0.071438	1.146552
N256	N	0.900264	-0.564850	0.517487
N257	N	1.233597	-0.231517	0.850821
N258	N	1.566931	0.101816	1.184154
