data_functionalizedCrystal
_audit_creation_method	'MofGen! by Chris Wilmer'
_symmetry_space_group_name_H-M	'P1'
_symmetry_Int_Tables_number	1
_symmetry_cell_setting	triclinic
loop_
_symmetry_equiv_pos_as_xyz
  x,y,z
_cell_length_a	23.532407
_cell_length_b	23.532407
_cell_length_c	7.088929
_cell_angle_alpha	83.810936
_cell_angle_beta	96.167054
_cell_angle_gamma	82.848712
loop_
_atom_site_label
_atom_site_type_symbol
_atom_site_fract_x
_atom_site_fract_y
_atom_site_fract_z
O1	O	0.749384	0.075019	-0.158890
O2	O	0.999384	0.325019	0.091110
O3	O	1.249384	0.575019	0.341110
O4	O	1.499384	0.825019	0.591110
O5	O	0.583519	0.085024	-0.158923
O6	O	0.833519	0.335024	0.091077
O7	O	1.083519	0.585024	0.341077
O8	O	1.333519	0.835024	0.591077
O9	O	0.671454	-0.002912	-0.158870
O10	O	0.921454	0.247088	0.091130
O11	O	1.171454	0.497088	0.341130
O12	O	1.421454	0.747088	0.591130
O13	O	0.661448	0.162954	-0.158942
O14	O	0.911448	0.412954	0.091058
O15	O	1.161448	0.662954	0.341058
O16	O	1.411448	0.912954	0.591058
O17	O	0.683206	-0.014690	0.159112
O18	O	0.933206	0.235310	0.409112
O19	O	1.183206	0.485310	0.659112
O20	O	1.433206	0.735310	0.909112
O21	O	0.595271	0.073245	0.159060
O22	O	0.845271	0.323245	0.409060
O23	O	1.095271	0.573245	0.659060
O24	O	1.345271	0.823245	0.909060
O25	O	0.761135	0.063241	0.159093
O26	O	1.011135	0.313241	0.409093
O27	O	1.261135	0.563241	0.659093
O28	O	1.511135	0.813241	0.909093
Cu29	Cu	0.679276	0.067168	0.188110
Cu30	Cu	0.929276	0.317168	0.438110
Cu31	Cu	1.179276	0.567168	0.688110
Cu32	Cu	1.429276	0.817168	0.938110
Cu33	Cu	0.665378	0.081097	-0.187940
Cu34	Cu	0.915378	0.331097	0.062060
Cu35	Cu	1.165378	0.581097	0.312060
Cu36	Cu	1.415378	0.831097	0.562060
O37	O	0.673200	0.151176	0.159040
O38	O	0.923200	0.401176	0.409040
O39	O	1.173200	0.651176	0.659040
O40	O	1.423200	0.901176	0.909040
C41	C	0.568179	0.078880	0.000065
C42	C	0.818179	0.328880	0.250065
C43	C	1.068179	0.578880	0.500065
C44	C	1.318179	0.828880	0.750065
C45	C	0.504961	0.078114	0.000054
C46	C	0.754961	0.328114	0.250054
C47	C	1.004961	0.578114	0.500054
C48	C	1.254961	0.828114	0.750054
C49	C	0.238797	0.022916	0.000130
C50	C	0.488797	0.272916	0.250130
C51	C	0.738797	0.522916	0.500130
C52	C	0.988797	0.772916	0.750130
C53	C	0.298197	0.023628	0.000129
C54	C	0.548197	0.273628	0.250129
C55	C	0.798197	0.523628	0.500129
C56	C	1.048197	0.773628	0.750129
O57	O	0.334944	-0.020161	0.000214
O58	O	0.584944	0.229839	0.250214
O59	O	0.834944	0.479839	0.500214
O60	O	1.084944	0.729839	0.750214
N61	N	0.320822	0.075905	0.000093
N62	N	0.570822	0.325905	0.250093
N63	N	0.820822	0.575905	0.500093
N64	N	1.070822	0.825905	0.750093
C65	C	0.284044	0.127474	0.000078
C66	C	0.534044	0.377474	0.250078
C67	C	0.784044	0.627474	0.500078
C68	C	1.034044	0.877474	0.750078
O69	O	0.308742	0.172006	0.000049
O70	O	0.558742	0.422006	0.250049
O71	O	0.808742	0.672006	0.500049
O72	O	1.058742	0.922006	0.750049
C73	C	0.224645	0.126761	0.000092
C74	C	0.474645	0.376761	0.250092
C75	C	0.724645	0.626761	0.500092
C76	C	0.974645	0.876761	0.750092
C77	C	0.202023	0.074481	0.000109
C78	C	0.452023	0.324481	0.250109
C79	C	0.702023	0.574481	0.500109
C80	C	0.952023	0.824481	0.750109
C81	C	0.216174	-0.029360	0.000148
C82	C	0.466174	0.220640	0.250148
C83	C	0.716174	0.470640	0.500148
C84	C	0.966174	0.720640	0.750148
C85	C	0.156778	-0.030071	0.000145
C86	C	0.406778	0.219929	0.250145
C87	C	0.656778	0.469929	0.500145
C88	C	0.906778	0.719929	0.750145
C89	C	0.120004	0.021494	0.000124
C90	C	0.370004	0.271494	0.250124
C91	C	0.620004	0.521494	0.500124
C92	C	0.870004	0.771494	0.750124
C93	C	0.142627	0.073770	0.000106
C94	C	0.392627	0.323770	0.250106
C95	C	0.642627	0.573770	0.500106
C96	C	0.892627	0.823770	0.750106
C97	C	0.187869	0.178329	0.000091
C98	C	0.437869	0.428329	0.250091
C99	C	0.687869	0.678329	0.500091
C100	C	0.937869	0.928329	0.750091
C101	C	0.128467	0.177612	0.000107
C102	C	0.378467	0.427612	0.250107
C103	C	0.628467	0.677612	0.500107
C104	C	0.878467	0.927612	0.750107
C105	C	0.105845	0.125332	0.000123
C106	C	0.355845	0.375332	0.250123
C107	C	0.605845	0.625332	0.500123
C108	C	0.855845	0.875332	0.750123
C109	C	0.046457	0.124624	0.000082
C110	C	0.296457	0.374624	0.250082
C111	C	0.546457	0.624624	0.500082
C112	C	0.796457	0.874624	0.750082
N113	N	0.023832	0.072346	0.000118
N114	N	0.273832	0.322346	0.250118
N115	N	0.523832	0.572346	0.500118
N116	N	0.773832	0.822346	0.750118
C117	C	0.060606	0.020781	0.000139
C118	C	0.310606	0.270781	0.250139
C119	C	0.560606	0.520781	0.500139
C120	C	0.810606	0.770781	0.750139
C121	C	0.408785	0.128966	0.000051
C122	C	0.658785	0.378966	0.250051
C123	C	0.908785	0.628966	0.500051
C124	C	1.158785	0.878966	0.750051
C125	C	0.468182	0.129680	0.000023
C126	C	0.718182	0.379680	0.250023
C127	C	0.968182	0.629680	0.500023
C128	C	1.218182	0.879680	0.750023
C129	C	0.482331	0.025833	0.000077
C130	C	0.732331	0.275833	0.250077
C131	C	0.982331	0.525833	0.500077
C132	C	1.232331	0.775833	0.750077
C133	C	0.422933	0.025121	0.000092
C134	C	0.672933	0.275121	0.250092
C135	C	0.922933	0.525121	0.500092
C136	C	1.172933	0.775121	0.750092
C137	C	0.386160	0.076689	0.000086
C138	C	0.636160	0.326689	0.250086
C139	C	0.886160	0.576689	0.500086
C140	C	1.136160	0.826689	0.750086
C141	C	-0.064131	0.019292	0.000131
C142	C	0.185869	0.269292	0.250131
C143	C	0.435869	0.519292	0.500131
C144	C	0.685869	0.769292	0.750131
C145	C	-0.123534	0.018586	0.000121
C146	C	0.126466	0.268586	0.250121
C147	C	0.376466	0.518586	0.500121
C148	C	0.626466	0.768586	0.750121
C149	C	-0.137678	0.122432	0.000076
C150	C	0.112322	0.372432	0.250076
C151	C	0.362322	0.622432	0.500076
C152	C	0.612322	0.872432	0.750076
C153	C	-0.078281	0.123139	0.000077
C154	C	0.171719	0.373139	0.250077
C155	C	0.421719	0.623139	0.500077
C156	C	0.671719	0.873139	0.750077
C157	C	-0.041508	0.071564	0.000111
C158	C	0.208492	0.321564	0.250111
C159	C	0.458492	0.571564	0.500111
C160	C	0.708492	0.821564	0.750111
O161	O	0.009675	0.168390	0.000004
O162	O	0.259675	0.418390	0.250004
O163	O	0.509675	0.668390	0.500004
O164	O	0.759675	0.918390	0.750004
O165	O	0.035900	-0.023744	0.000193
O166	O	0.285900	0.226256	0.250193
O167	O	0.535900	0.476256	0.500193
O168	O	0.785900	0.726256	0.750193
C169	C	0.677076	-0.030017	0.000126
C170	C	0.927076	0.219983	0.250126
C171	C	1.177076	0.469983	0.500126
C172	C	1.427076	0.719983	0.750126
C173	C	0.676310	-0.093234	0.000140
C174	C	0.926310	0.156766	0.250140
C175	C	1.176310	0.406766	0.500140
C176	C	1.426310	0.656766	0.750140
C177	C	0.723540	-0.492334	0.000045
C178	C	0.973540	-0.242334	0.250045
C179	C	1.223540	0.007666	0.500045
C180	C	1.473540	0.257666	0.750045
C181	C	0.722828	-0.551734	0.000030
C182	C	0.972828	-0.301734	0.250030
C183	C	1.222828	-0.051734	0.500030
C184	C	1.472828	0.198266	0.750030
O185	O	0.766612	-0.588476	-0.000032
O186	O	1.016612	-0.338476	0.249968
O187	O	1.266612	-0.088476	0.499968
O188	O	1.516612	0.161524	0.749968
N189	N	0.670551	-0.574360	0.000021
N190	N	0.920551	-0.324360	0.250021
N191	N	1.170551	-0.074360	0.500021
N192	N	1.420551	0.175640	0.750021
C193	C	0.618983	-0.537581	0.000008
C194	C	0.868983	-0.287581	0.250008
C195	C	1.118983	-0.037581	0.500008
C196	C	1.368983	0.212419	0.750008
O197	O	0.574452	-0.562281	-0.000003
O198	O	0.824452	-0.312281	0.249997
O199	O	1.074452	-0.062281	0.499997
O200	O	1.324452	0.187719	0.749997
C201	C	0.619695	-0.478182	0.000009
C202	C	0.869695	-0.228182	0.250009
C203	C	1.119695	0.021818	0.500009
C204	C	1.369695	0.271818	0.750009
C205	C	0.671976	-0.455561	0.000037
C206	C	0.921976	-0.205561	0.250037
C207	C	1.171976	0.044439	0.500037
C208	C	1.421976	0.294439	0.750037
C209	C	0.775817	-0.469712	0.000071
C210	C	1.025817	-0.219712	0.250071
C211	C	1.275817	0.030288	0.500071
C212	C	1.525817	0.280288	0.750071
C213	C	0.776528	-0.410316	0.000089
C214	C	1.026528	-0.160316	0.250089
C215	C	1.276528	0.089684	0.500089
C216	C	1.526528	0.339684	0.750089
C217	C	0.724964	-0.373543	0.000081
C218	C	0.974964	-0.123543	0.250081
C219	C	1.224964	0.126457	0.500081
C220	C	1.474964	0.376457	0.750081
C221	C	0.672687	-0.396165	0.000055
C222	C	0.922687	-0.146165	0.250055
C223	C	1.172687	0.103835	0.500055
C224	C	1.422687	0.353835	0.750055
C225	C	0.568126	-0.441405	-0.000019
C226	C	0.818126	-0.191405	0.249981
C227	C	1.068126	0.058595	0.499981
C228	C	1.318126	0.308595	0.749981
C229	C	0.568843	-0.382002	-0.000019
C230	C	0.818843	-0.132002	0.249981
C231	C	1.068843	0.117998	0.499981
C232	C	1.318843	0.367998	0.749981
C233	C	0.621124	-0.359381	0.000009
C234	C	0.871124	-0.109381	0.250009
C235	C	1.121124	0.140619	0.500009
C236	C	1.371124	0.390619	0.750009
C237	C	0.621835	-0.299997	0.000065
C238	C	0.871835	-0.049997	0.250065
C239	C	1.121835	0.200003	0.500065
C240	C	1.371835	0.450003	0.750065
N241	N	0.674111	-0.277371	0.000074
N242	N	0.924111	-0.027371	0.250074
N243	N	1.174111	0.222629	0.500074
N244	N	1.424111	0.472629	0.750074
C245	C	0.725676	-0.314144	0.000082
C246	C	0.975676	-0.064144	0.250082
C247	C	1.225676	0.185856	0.500082
C248	C	1.475676	0.435856	0.750082
C249	C	0.617491	-0.662324	0.000002
C250	C	0.867491	-0.412324	0.250002
C251	C	1.117491	-0.162324	0.500002
C252	C	1.367491	0.087676	0.750002
C253	C	0.616779	-0.721722	0.000015
C254	C	0.866779	-0.471722	0.250015
C255	C	1.116779	-0.221722	0.500015
C256	C	1.366779	0.028278	0.750015
C257	C	0.720624	-0.735870	0.000034
C258	C	0.970624	-0.485870	0.250034
C259	C	1.220624	-0.235870	0.500034
C260	C	1.470624	0.014130	0.750034
C261	C	0.721337	-0.676471	0.000035
C262	C	0.971337	-0.426471	0.250035
C263	C	1.221337	-0.176471	0.500035
C264	C	1.471337	0.073529	0.750035
C265	C	0.669768	-0.639698	0.000011
C266	C	0.919768	-0.389698	0.250011
C267	C	1.169768	-0.139698	0.500011
C268	C	1.419768	0.110302	0.750011
C269	C	0.727167	-0.189409	0.000122
C270	C	0.977167	0.060591	0.250122
C271	C	1.227167	0.310591	0.500122
C272	C	1.477167	0.560591	0.750122
C273	C	0.727875	-0.130008	0.000148
C274	C	0.977875	0.119992	0.250148
C275	C	1.227875	0.369992	0.500148
C276	C	1.477875	0.619992	0.750148
C277	C	0.624029	-0.115864	0.000119
C278	C	0.874029	0.134136	0.250119
C279	C	1.124029	0.384136	0.500119
C280	C	1.374029	0.634136	0.750119
C281	C	0.623322	-0.175261	0.000103
C282	C	0.873322	0.074739	0.250103
C283	C	1.123322	0.324739	0.500103
C284	C	1.373322	0.574739	0.750103
C285	C	0.674895	-0.212032	0.000098
C286	C	0.924895	0.037968	0.250098
C287	C	1.174895	0.287968	0.500098
C288	C	1.424895	0.537968	0.750098
O289	O	0.578074	-0.263220	0.000119
O290	O	0.828074	-0.013220	0.250119
O291	O	1.078074	0.236780	0.500119
O292	O	1.328074	0.486780	0.750119
O293	O	0.770199	-0.289436	0.000068
O294	O	1.020199	-0.039436	0.250068
O295	O	1.270199	0.210564	0.500068
O296	O	1.520199	0.460564	0.750068
C297	C	0.776475	0.069385	0.000101
C298	C	1.026475	0.319385	0.250101
C299	C	1.276475	0.569385	0.500101
C300	C	1.526475	0.819385	0.750101
C301	C	0.839692	0.070151	0.000099
C302	C	1.089692	0.320151	0.250099
C303	C	1.339692	0.570151	0.500099
C304	C	1.589692	0.820151	0.750099
C305	C	0.667579	0.178282	0.000040
C306	C	0.917579	0.428282	0.250040
C307	C	1.167579	0.678282	0.500040
C308	C	1.417579	0.928282	0.750040
C309	C	0.668343	0.241500	0.000013
C310	C	0.918343	0.491500	0.250013
C311	C	1.168343	0.741500	0.500013
C312	C	1.418343	0.991500	0.750013
N313	N	0.689055	0.057371	0.452604
N314	N	0.939055	0.307371	0.702604
N315	N	1.189055	0.557371	0.952604
N316	N	1.439055	0.807371	1.202604
N317	N	0.655604	0.090890	-0.452434
N318	N	0.905604	0.340890	-0.202434
N319	N	1.155604	0.590890	0.047566
N320	N	1.405604	0.840890	0.297566
H321	H	-0.034198	-0.022705	0.000158
H322	H	0.215802	0.227295	0.250158
H323	H	0.465802	0.477295	0.500158
H324	H	0.715802	0.727295	0.750158
F325	F	0.132709	-0.085715	0.000148
F326	F	0.382709	0.164285	0.250148
F327	F	0.632709	0.414285	0.500148
F328	F	0.882709	0.664285	0.750148
H329	H	0.526848	-0.352064	-0.000042
H330	H	0.776848	-0.102064	0.249958
H331	H	1.026848	0.147936	0.499958
H332	H	1.276848	0.397936	0.749958
F333	F	-0.147606	-0.037060	0.000126
F334	F	0.102394	0.212940	0.250126
F335	F	0.352394	0.462940	0.500126
F336	F	0.602394	0.712940	0.750126
F337	F	0.610288	0.136292	0.440823
F338	F	0.860288	0.386292	0.690823
F339	F	1.110288	0.636292	0.940823
F340	F	1.360288	0.886292	1.190823
H341	H	0.206276	0.220902	0.000069
H342	H	0.456276	0.470902	0.250069
H343	H	0.706276	0.720902	0.500069
H344	H	0.956276	0.970902	0.750069
H345	H	0.723730	0.022637	0.534281
H346	H	0.973730	0.272637	0.784281
H347	H	1.223730	0.522637	1.034281
H348	H	1.473730	0.772637	1.284281
F349	F	0.775504	-0.775017	0.000033
F350	F	1.025504	-0.525017	0.250033
F351	F	1.275504	-0.275017	0.500033
F352	F	1.525504	-0.025017	0.750033
F353	F	0.492250	0.185325	-0.000031
F354	F	0.742250	0.435325	0.249969
F355	F	0.992250	0.685325	0.499969
F356	F	1.242250	0.935325	0.749969
F357	F	0.089334	0.232499	0.000109
F358	F	0.339334	0.482499	0.250109
F359	F	0.589334	0.732499	0.500109
F360	F	0.839334	0.982499	0.750109
F361	F	0.255304	-0.084248	0.000176
F362	F	0.505304	0.165752	0.250176
F363	F	0.755304	0.415752	0.500176
F364	F	1.005304	0.665752	0.750176
H365	H	0.404518	-0.017450	0.000106
H366	H	0.654518	0.232550	0.250106
H367	H	0.904518	0.482550	0.500106
H368	H	1.154518	0.732550	0.750106
F369	F	0.561136	-0.745792	0.000019
F370	F	0.811136	-0.495792	0.250019
F371	F	1.061136	-0.245792	0.500019
F372	F	1.311136	0.004208	0.750019
H373	H	-0.059861	0.165710	0.000061
H374	H	0.190139	0.415710	0.250061
H375	H	0.440139	0.665710	0.500061
H376	H	0.690139	0.915710	0.750061
H377	H	0.512284	-0.016154	0.000095
H378	H	0.762284	0.233846	0.250095
H379	H	1.012284	0.483846	0.500095
H380	H	1.262284	0.733846	0.750095
H381	H	0.378847	0.170963	0.000032
H382	H	0.628847	0.420963	0.250032
H383	H	0.878847	0.670963	0.500032
H384	H	1.128847	0.920963	0.750032
H385	H	-0.167630	0.164415	0.000049
H386	H	0.082370	0.414415	0.250049
H387	H	0.332370	0.664415	0.500049
H388	H	0.582370	0.914415	0.750049
H389	H	0.763908	-0.658057	0.000057
H390	H	1.013908	-0.408057	0.250057
H391	H	1.263908	-0.158057	0.500057
H392	H	1.513908	0.091943	0.750057
H393	H	0.770450	-0.111593	0.000177
H394	H	1.020450	0.138407	0.250177
H395	H	1.270450	0.388407	0.500177
H396	H	1.520450	0.638407	0.750177
H397	H	0.819100	-0.391903	0.000105
H398	H	1.069100	-0.141903	0.250105
H399	H	1.319100	0.108097	0.500105
H400	H	1.569100	0.358097	0.750105
H401	H	0.769163	-0.219341	0.000111
H402	H	1.019163	0.030659	0.250111
H403	H	1.269163	0.280659	0.500111
H404	H	1.519163	0.530659	0.750111
H405	H	0.582047	-0.085913	0.000119
H406	H	0.832047	0.164087	0.250119
H407	H	1.082047	0.414087	0.500119
H408	H	1.332047	0.664087	0.750119
F409	F	0.830704	-0.508841	0.000079
F410	F	1.080704	-0.258841	0.250079
F411	F	1.330704	-0.008841	0.500079
F412	F	1.580704	0.241159	0.750079
H413	H	0.575496	-0.632386	-0.000001
H414	H	0.825496	-0.382386	0.249999
H415	H	1.075496	-0.132386	0.499999
H416	H	1.325496	0.117614	0.749999
F417	F	0.512481	-0.465467	-0.000057
F418	F	0.762481	-0.215467	0.249943
F419	F	1.012481	0.034533	0.499943
F420	F	1.262481	0.284533	0.749943
H421	H	0.580752	-0.193682	0.000133
H422	H	0.830752	0.056318	0.250133
H423	H	1.080752	0.306318	0.500133
H424	H	1.330752	0.556318	0.750133
