data_functionalizedCrystal
_audit_creation_method	'MofGen! by Chris Wilmer'
_symmetry_space_group_name_H-M	'P1'
_symmetry_Int_Tables_number	1
_symmetry_cell_setting	triclinic
loop_
_symmetry_equiv_pos_as_xyz
  x,y,z
_cell_length_a	10.723024
_cell_length_b	10.723024
_cell_length_c	9.198806
_cell_angle_alpha	90.003648
_cell_angle_beta	89.997988
_cell_angle_gamma	95.532131
loop_
_atom_site_label
_atom_site_type_symbol
_atom_site_fract_x
_atom_site_fract_y
_atom_site_fract_z
O1	O	0.175024	-1.657188	-0.120879
O2	O	0.675024	-1.157188	0.379121
O3	O	0.191778	-1.294035	-0.120884
O4	O	0.691778	-0.794035	0.379116
O5	O	0.001825	-1.483988	-0.120876
O6	O	0.501825	-0.983988	0.379124
O7	O	0.364977	-1.467235	-0.120887
O8	O	0.864977	-0.967235	0.379113
O9	O	0.001824	-1.483973	0.120909
O10	O	0.501824	-0.983973	0.620909
O11	O	0.191777	-1.294020	0.120901
O12	O	0.691777	-0.794020	0.620901
O13	O	0.175024	-1.657173	0.120906
O14	O	0.675024	-1.157173	0.620906
Cu15	Cu	0.183401	-1.475595	0.142981
Cu16	Cu	0.683401	-0.975595	0.642981
Cu17	Cu	0.183401	-1.475613	-0.142958
Cu18	Cu	0.683401	-0.975613	0.357042
O19	O	0.364977	-1.467220	0.120898
O20	O	0.864977	-0.967220	0.620898
C21	C	0.190558	-1.247528	0.000008
C22	C	0.690558	-0.747528	0.500008
C23	C	0.186911	-1.108974	0.000007
C24	C	0.686911	-0.608974	0.500007
C25	C	-0.044675	-1.482762	0.000015
C26	C	0.455325	-0.982762	0.500015
C27	C	-0.183229	-1.479114	0.000010
C28	C	0.316771	-0.979114	0.500010
N29	N	0.183399	-1.475592	0.344095
N30	N	0.683399	-0.975592	0.844095
C31	C	-0.258212	-1.585401	0.000009
C32	C	0.241788	-1.085401	0.500009
C33	C	-0.401415	-1.581634	0.000004
C34	C	0.098585	-1.081634	0.500004
C35	C	0.411477	-1.468447	0.000004
C36	C	0.911477	-0.968447	0.500004
C37	C	0.550031	-1.472094	-0.000000
C38	C	1.050031	-0.972094	0.500000
C39	C	0.176243	-1.703680	0.000011
C40	C	0.676243	-1.203680	0.500011
C41	C	0.179891	-1.842234	0.000003
C42	C	0.679891	-1.342234	0.500003
C43	C	0.293198	-1.033991	0.000002
C44	C	0.793198	-0.533991	0.500002
C45	C	0.289431	-0.890788	0.000001
C46	C	0.789431	-0.390788	0.500001
N47	N	0.183393	-1.475626	-0.344072
N48	N	0.683393	-0.975626	0.155928
C49	C	0.103292	-1.555347	0.416295
C50	C	0.603292	-1.055347	0.916295
C51	C	0.103288	-1.555367	0.583707
C52	C	0.603288	-1.055367	1.083707
H53	H	-0.216390	-1.679187	0.000019
H54	H	0.283610	-1.179187	0.500019
Br55	Br	-0.252921	-1.322788	-0.000013
Br56	Br	0.247079	-0.822788	0.499987
H57	H	0.380421	-0.826355	-0.000009
H58	H	0.880421	-0.326355	0.499991
Br59	Br	0.030585	-1.039282	0.000028
Br60	Br	0.530585	-0.539282	0.500028
Br61	Br	-0.011335	-1.668820	0.312762
Br62	Br	0.488665	-1.168820	0.812762
Br63	Br	0.449524	-1.103683	0.000007
Br64	Br	0.949524	-0.603683	0.500007
Br65	Br	-0.508799	-1.733301	0.000020
Br66	Br	-0.008799	-1.233301	0.500020
Br67	Br	-0.011019	-1.669192	0.687185
Br68	Br	0.488981	-1.169192	1.187185
H69	H	0.251984	-1.407345	0.593848
H70	H	0.751984	-0.907345	1.093848
Br71	Br	0.297701	-1.361791	0.447628
Br72	Br	0.797701	-0.861791	0.947628
H73	H	-0.385544	-1.381099	0.000010
H74	H	0.114456	-0.881099	0.500010
H75	H	0.088896	-0.906659	-0.000003
H76	H	0.588896	-0.406659	0.499997
