data_functionalizedCrystal
_audit_creation_method	'MofGen! by Chris Wilmer'
_symmetry_space_group_name_H-M	'P1'
_symmetry_Int_Tables_number	1
_symmetry_cell_setting	triclinic
loop_
_symmetry_equiv_pos_as_xyz
  x,y,z
_cell_length_a	19.805407
_cell_length_b	12.645330
_cell_length_c	19.805398
_cell_angle_alpha	89.979943
_cell_angle_beta	89.984135
_cell_angle_gamma	90.017692
loop_
_atom_site_label
_atom_site_type_symbol
_atom_site_fract_x
_atom_site_fract_y
_atom_site_fract_z
Zn1	Zn	1.034752	-0.422081	-0.382747
Zn2	Zn	1.034691	-0.599354	-0.269571
Zn3	Zn	0.921574	-0.422105	-0.269572
Zn4	Zn	0.921547	-0.599303	-0.382717
O5	O	0.978141	-0.510711	-0.326152
O6	O	1.129460	-0.445608	-0.367746
O7	O	1.019672	-0.575873	-0.174854
O8	O	0.936624	-0.273755	-0.284598
O9	O	1.129416	-0.575850	-0.284596
O10	O	1.019775	-0.273737	-0.367747
O11	O	0.936565	-0.445649	-0.174855
O12	O	0.826854	-0.445600	-0.284569
O13	O	0.936578	-0.575763	-0.477438
O14	O	0.826834	-0.575786	-0.367696
O15	O	1.019749	-0.445559	-0.477460
O16	O	1.019646	-0.747695	-0.284567
O17	O	0.936520	-0.747657	-0.367695
C18	C	0.802285	-0.510691	-0.326130
C19	C	0.727053	-0.510708	-0.326137
C20	C	0.978092	-0.786141	-0.326142
C21	C	0.978132	-0.903971	-0.326161
C22	C	0.691716	-0.578598	-0.369351
C23	C	0.621028	-0.578600	-0.369361
C24	C	0.585678	-0.510716	-0.326152
C25	C	0.621019	-0.442818	-0.282935
C26	C	0.691706	-0.442812	-0.282930
C27	C	0.335946	-0.442842	-0.282958
C28	C	0.265254	-0.442856	-0.282965
C29	C	0.265268	-0.578629	-0.369388
C30	C	0.335955	-0.578623	-0.369383
C31	C	0.371290	-0.510722	-0.326169
C32	C	0.447939	-0.510719	-0.326160
C33	C	0.509030	-0.510723	-0.326157
C34	C	0.926053	-1.071555	-0.378618
C35	C	0.925787	-0.948996	-0.378450
C36	C	0.958831	-0.948556	-0.254828
C37	C	0.958513	-1.071154	-0.255147
C38	C	1.049832	-1.071063	-0.344457
C39	C	1.049392	-0.948456	-0.346017
C40	C	1.154684	-0.510732	-0.326174
C41	C	1.229916	-0.510741	-0.326184
C42	C	0.978168	-0.510652	-0.502695
C43	C	0.978179	-0.510627	-0.577927
C44	C	0.978209	-0.234206	-0.326176
C45	C	0.978238	-0.116376	-0.326186
C46	C	1.021568	-0.442642	-1.039730
C47	C	1.021557	-0.442675	-0.969042
C48	C	0.978248	-0.510480	-0.933688
C49	C	0.934952	-0.578264	-0.969027
C50	C	0.934967	-0.578237	-1.039714
C51	C	0.934893	-0.578379	-0.683954
C52	C	0.934881	-0.578400	-0.613262
C53	C	1.021484	-0.442818	-0.613281
C54	C	1.021498	-0.442790	-0.683968
C55	C	0.978205	-0.510578	-0.719301
C56	C	0.978218	-0.510543	-0.795949
C57	C	0.978232	-0.510510	-0.857041
C58	C	0.978154	-0.510693	-0.150296
C59	C	0.978273	-0.510419	-0.075064
H60	H	0.720494	-0.633880	-0.404534
H61	H	0.364734	-0.633905	-0.404566
H62	H	0.720476	-0.387523	-0.247744
N63	N	0.582892	-0.369608	-0.236327
H64	H	0.616006	-0.326598	-0.208950
H65	H	0.553579	-0.320610	-0.263932
H66	H	0.236489	-0.633914	-0.404578
N67	N	0.888159	-0.651534	-0.575137
H68	H	0.898656	-0.727276	-0.587430
H69	H	0.894734	-0.641173	-0.525007
N70	N	0.888235	-0.651395	-0.930903
H71	H	0.898732	-0.727136	-0.943199
H72	H	0.894812	-0.641039	-0.880772
N73	N	0.941776	-0.909052	-0.448510
H74	H	0.949062	-0.971084	-0.479782
H75	H	0.902894	-0.864845	-0.465575
N76	N	0.941891	-1.110526	-0.448912
H77	H	0.983046	-1.157615	-0.447456
H78	H	0.902151	-1.151887	-0.466903
N79	N	1.073172	-1.111925	-0.412181
H80	H	1.040052	-1.089636	-0.448244
H81	H	1.119206	-1.081850	-0.422836
N82	N	0.856184	-1.112476	-0.362795
H83	H	0.858188	-1.159921	-0.321810
H84	H	0.825102	-1.050913	-0.353391
N85	N	0.888274	-0.651343	-1.077828
H86	H	0.860835	-0.694301	-1.044707
H87	H	0.856967	-0.608180	-1.107159
N88	N	0.582914	-0.651839	-0.415960
H89	H	0.616035	-0.694852	-0.443325
H90	H	0.553572	-0.700833	-0.388346
N91	N	0.227123	-0.369636	-0.236359
H92	H	0.260233	-0.326617	-0.208983
H93	H	0.197809	-0.320646	-0.263969
N94	N	0.374052	-0.369593	-0.236362
H95	H	0.340930	-0.326590	-0.208993
H96	H	0.403371	-0.412654	-0.204985
N97	N	0.855486	-0.910254	-0.362408
H98	H	0.822933	-0.937106	-0.397710
H99	H	0.841462	-0.937324	-0.316516
H100	H	0.899641	-0.633575	-0.712713
H101	H	1.056762	-0.387572	-0.712750
N102	N	1.007578	-0.909933	-0.201662
H103	H	1.042726	-0.863049	-0.223356
H104	H	0.982136	-0.868439	-0.166298
N105	N	0.889188	-1.109156	-0.234650
H106	H	0.869135	-1.152981	-0.272262
H107	H	0.892909	-1.153630	-0.192449
N108	N	1.006671	-1.110443	-0.201636
H109	H	1.028010	-1.048118	-0.177943
H110	H	0.981142	-1.154792	-0.167746
H111	H	0.907041	-0.917942	-0.239071
H112	H	1.063948	-0.919312	-0.398514
H113	H	1.090319	-0.917801	-0.310610
H114	H	1.088711	-1.100046	-0.306269
N115	N	1.068273	-0.369498	-1.077859
H116	H	1.095698	-0.326567	-1.044746
H117	H	1.099593	-0.412637	-1.107189
H118	H	1.056813	-0.387487	-0.940276
H119	H	1.056737	-0.387624	-0.584505
