data_functionalizedCrystal
_audit_creation_method	'MofGen! by Chris Wilmer'
_symmetry_space_group_name_H-M	'P1'
_symmetry_Int_Tables_number	1
_symmetry_cell_setting	triclinic
loop_
_symmetry_equiv_pos_as_xyz
  x,y,z
_cell_length_a	10.654549
_cell_length_b	17.038272
_cell_length_c	15.500368
_cell_angle_alpha	93.035241
_cell_angle_beta	87.148763
_cell_angle_gamma	87.799237
loop_
_atom_site_label
_atom_site_type_symbol
_atom_site_fract_x
_atom_site_fract_y
_atom_site_fract_z
O1	O	0.267439	1.042486	0.071831
O2	O	0.263105	0.814832	0.071856
O3	O	0.083019	0.933891	0.071839
O4	O	0.447525	0.923427	0.071847
O5	O	0.093880	0.926686	-0.072045
O6	O	0.273965	0.807627	-0.072028
O7	O	0.278300	1.035281	-0.072054
Cu8	Cu	0.277124	0.920796	-0.085179
Cu9	Cu	0.264280	0.929317	0.084981
O10	O	0.458385	0.916222	-0.072037
C11	C	0.041580	0.929519	-0.000102
C12	C	-0.098077	0.927218	-0.000099
C13	C	0.264594	0.782079	-0.000083
C14	C	0.252836	0.695221	-0.000073
C15	C	-0.375242	1.065265	-0.000118
C16	C	-0.316994	1.137532	-0.000128
C17	C	-0.185775	1.139697	-0.000127
C18	C	-0.112800	1.069587	-0.000119
C19	C	-0.171048	0.997320	-0.000109
C20	C	-0.302271	0.995163	-0.000108
C21	C	-0.156325	0.854951	-0.000089
C22	C	-0.287544	0.852785	-0.000083
C23	C	-0.083350	0.784841	-0.000081
C24	C	-0.141599	0.712573	-0.000064
C25	C	-0.272826	0.710411	-0.000064
C26	C	-0.345792	0.780518	-0.000074
C27	C	0.360780	0.645711	-0.000072
C28	C	0.349726	0.564098	-0.000084
C29	C	0.230727	0.531997	-0.000091
C30	C	0.122775	0.581513	-0.000096
C31	C	0.133831	0.663124	-0.000090
C32	C	0.191671	0.286019	-0.000115
C33	C	0.180624	0.204402	-0.000119
C34	C	0.407576	0.186992	-0.000108
C35	C	0.418621	0.268606	-0.000097
C36	C	0.310669	0.318115	-0.000106
C37	C	0.219426	0.448576	-0.000101
C38	C	0.321972	0.401534	-0.000102
C39	C	0.499824	0.920593	-0.000094
C40	C	0.639481	0.922895	-0.000092
C41	C	0.276810	1.068033	-0.000113
C42	C	0.288568	1.154892	-0.000117
N43	N	0.255238	0.935310	0.204663
N44	N	0.286158	0.914808	-0.204860
C45	C	0.210024	0.965351	0.749833
C46	C	0.216870	0.960796	0.659263
C47	C	0.299856	0.905702	0.614001
C48	C	0.375992	0.855155	0.659313
C49	C	0.369139	0.859706	0.749882
C50	C	0.324521	0.889314	0.340544
C51	C	0.331371	0.884768	0.249969
C52	C	0.172246	0.990409	0.249925
C53	C	0.165406	0.994959	0.340495
C54	C	0.241538	0.944408	0.385800
C55	C	0.306858	0.901047	0.521424
C56	C	0.234528	0.949060	0.478375
H57	H	-0.482089	1.063510	-0.000108
H58	H	0.398953	0.839902	0.213120
H59	H	0.418861	0.427674	-0.000101
H60	H	0.431133	0.818548	0.786770
H61	H	-0.376424	1.194614	-0.000138
H62	H	0.122538	0.422429	-0.000132
H63	H	-0.138349	1.198543	-0.000140
H64	H	0.142454	1.010217	0.786680
H65	H	0.154875	1.001951	0.622375
H66	H	0.097832	1.039820	0.377346
H67	H	-0.005954	1.071356	-0.000129
H68	H	0.443556	0.810292	0.622456
H69	H	-0.082172	0.655495	-0.000064
H70	H	0.023495	0.786609	-0.000085
H71	H	-0.320242	0.651562	-0.000066
H72	H	-0.452639	0.778765	-0.000069
H73	H	0.457682	0.671841	-0.000065
H74	H	0.110262	1.031564	0.213029
H75	H	0.437626	0.523790	-0.000081
H76	H	0.083716	0.178269	-0.000124
H77	H	0.515521	0.294737	-0.000081
H78	H	0.495464	0.146674	-0.000103
H79	H	0.166956	0.993915	0.515230
H80	H	0.103769	0.326320	-0.000123
H81	H	0.386513	0.848155	0.377424
H82	H	0.025884	0.555369	-0.000114
H83	H	0.374429	0.856190	0.484564
H84	H	0.045931	0.703435	-0.000090
