data_functionalizedCrystal
_audit_creation_method	'MofGen! by Chris Wilmer'
_symmetry_space_group_name_H-M	'P1'
_symmetry_Int_Tables_number	1
_symmetry_cell_setting	triclinic
loop_
_symmetry_equiv_pos_as_xyz
  x,y,z
_cell_length_a	10.654545
_cell_length_b	15.995350
_cell_length_c	15.072220
_cell_angle_alpha	89.998899
_cell_angle_beta	90.012078
_cell_angle_gamma	83.987727
loop_
_atom_site_label
_atom_site_type_symbol
_atom_site_fract_x
_atom_site_fract_y
_atom_site_fract_z
O1	O	1.666324	0.117579	0.073769
O2	O	1.300698	0.128787	0.073772
O3	O	1.493506	0.001354	0.073770
O4	O	1.473516	0.245013	0.073771
O5	O	1.493458	0.001361	-0.073796
O6	O	1.300651	0.128794	-0.073793
O7	O	1.666276	0.117586	-0.073796
Zn8	Zn	1.483456	0.123191	-0.097224
Zn9	Zn	1.483519	0.123182	0.097200
O10	O	1.473469	0.245020	-0.073794
C11	C	1.253887	0.127969	-0.000010
C12	C	1.114476	0.125509	-0.000009
C13	C	1.048960	0.124355	-0.080447
C14	C	0.917971	0.122030	-0.080447
C15	C	0.918024	0.122016	0.080437
C16	C	1.049012	0.124336	0.080436
C17	C	0.748554	0.069898	-0.177087
C18	C	0.683032	0.068758	-0.257530
C19	C	0.715893	0.118493	-0.328550
C20	C	0.814270	0.169389	-0.319130
C21	C	0.879784	0.170536	-0.238687
C22	C	0.846929	0.120781	-0.167670
C23	C	1.218429	0.176474	0.177071
C24	C	1.283945	0.177627	0.257516
C25	C	1.251086	0.127897	0.328543
C26	C	1.152702	0.077015	0.319132
C27	C	1.087186	0.075861	0.238687
C28	C	1.120055	0.125590	0.167660
C29	C	1.492655	-0.029842	-0.000011
C30	C	1.490178	-0.122807	-0.000006
C31	C	1.481281	-0.460606	-0.000009
C32	C	1.343967	-0.413968	0.000323
C33	C	1.346445	-0.317264	-0.000010
C34	C	1.485694	-0.293020	-0.000007
C35	C	1.553395	-0.333701	-0.084273
C36	C	1.549945	-0.430357	-0.084344
C37	C	1.552836	-0.430706	0.083465
C38	C	1.552804	-0.333761	0.084579
C39	C	1.488195	-0.198308	-0.000009
C40	C	1.478783	-0.555319	-0.000013
C41	C	1.713087	0.118405	-0.000012
C42	C	1.852499	0.120865	-0.000008
C43	C	1.474319	0.276216	-0.000011
C44	C	1.476797	0.369181	-0.000010
N45	N	1.483422	0.123197	-0.229913
C46	C	1.483516	0.123179	-0.589114
C47	C	1.380002	0.191134	-0.551506
C48	C	1.380240	0.191385	-0.448680
C49	C	1.483468	0.123188	-0.410910
C50	C	1.614502	0.143029	-0.448202
C51	C	1.613922	0.143513	-0.551060
C52	C	1.457165	0.035187	-0.551215
C53	C	1.454158	0.035755	-0.448351
C54	C	1.483450	0.123191	-0.310197
C55	C	1.483543	0.123177	-0.689827
N56	N	1.483562	0.123170	0.229888
H57	H	0.864707	0.121062	0.145932
Cl58	Cl	1.651216	0.241020	-0.408420
Cl59	Cl	1.333416	0.129376	0.429687
Cl60	Cl	1.407631	0.241595	0.269345
Cl61	Cl	0.963503	0.011892	0.226856
Cl62	Cl	1.480738	-0.290304	-0.181094
H63	H	1.654352	-0.317811	0.089669
H64	H	1.289308	-0.433876	-0.059768
Cl65	Cl	1.259757	0.238989	0.087773
Cl66	Cl	1.477011	-0.291646	0.180840
H67	H	1.507962	-0.451509	0.147334
H68	H	0.959877	0.211977	-0.231016
Cl69	Cl	1.736274	0.068696	-0.410431
H70	H	1.650758	-0.462020	-0.088165
H71	H	1.363690	0.016296	-0.577204
Cl72	Cl	1.473657	-0.459054	-0.181595
Cl73	Cl	0.855558	0.231927	-0.408414
H74	H	1.357768	0.020715	-0.423978
Cl75	Cl	1.563012	-0.046070	-0.408675
Cl76	Cl	1.263661	-0.274711	-0.093427
H77	H	1.125942	0.036524	0.376970
Cl78	Cl	1.649771	0.242625	-0.588090
Cl79	Cl	1.711342	-0.310979	-0.089114
H80	H	1.693356	0.096010	-0.575936
Cl81	Cl	0.707234	0.007369	-0.087805
Cl82	Cl	1.131255	0.125824	-0.181577
Cl83	Cl	0.559363	0.004777	-0.269370
H84	H	1.532652	-0.015392	-0.575534
H85	H	0.662535	0.117564	-0.394048
Cl86	Cl	1.709142	-0.478838	0.084346
H87	H	1.396597	0.256047	-0.577344
Cl88	Cl	1.229838	0.173016	-0.409751
H89	H	1.293226	-0.289153	0.060396
Cl90	Cl	1.259254	-0.443073	0.093621
Cl91	Cl	1.229127	0.172985	-0.589713
Cl92	Cl	1.406169	0.292185	-0.410671
