data_functionalizedCrystal
_audit_creation_method	'MofGen! by Chris Wilmer'
_symmetry_space_group_name_H-M	'P1'
_symmetry_Int_Tables_number	1
_symmetry_cell_setting	triclinic
loop_
_symmetry_equiv_pos_as_xyz
  x,y,z
_cell_length_a	16.974800
_cell_length_b	10.723024
_cell_length_c	15.455313
_cell_angle_alpha	92.691723
_cell_angle_beta	90.973911
_cell_angle_gamma	83.927745
loop_
_atom_site_label
_atom_site_type_symbol
_atom_site_fract_x
_atom_site_fract_y
_atom_site_fract_z
O1	O	1.049934	0.159071	0.001601
O2	O	0.820605	0.178127	-0.014504
O3	O	0.940559	-0.013030	-0.006077
O4	O	0.929980	0.350228	-0.006826
O5	O	0.933699	-0.002144	0.137703
O6	O	0.813745	0.189013	0.129276
O7	O	1.043075	0.169957	0.145381
Cu8	Cu	0.927783	0.180479	0.150457
Cu9	Cu	0.935896	0.167605	-0.019580
O10	O	0.923120	0.361114	0.136954
C11	C	0.787810	0.182646	0.055323
C12	C	0.700314	0.179877	0.049178
C13	C	0.655473	0.184507	0.124668
C14	C	0.573262	0.181886	0.118897
C15	C	0.535893	0.174643	0.037635
C16	C	0.580740	0.170009	-0.037860
C17	C	0.662950	0.172621	-0.032088
C18	C	0.290423	0.166185	0.011968
C19	C	0.208206	0.163576	0.006201
C20	C	0.200735	0.175451	0.162959
C21	C	0.282946	0.178071	0.168724
C22	C	0.327786	0.173429	0.093229
N23	N	0.451860	0.171967	0.031734
N24	N	0.411818	0.176096	0.099131
C25	C	0.936359	-0.054079	0.065758
C26	C	0.934056	-0.192611	0.065593
C27	C	1.001176	-0.268267	0.070306
C28	C	0.998797	-0.411447	0.070136
C29	C	1.075869	0.165438	0.075552
C30	C	1.163366	0.168206	0.081691
C31	C	0.927320	0.402163	0.065117
C32	C	0.929624	0.540694	0.065276
N33	N	0.922083	0.189533	0.270052
N34	N	0.941602	0.158541	-0.139174
C35	C	0.973062	0.108353	0.319028
C36	C	0.968759	0.115212	0.409533
C37	C	0.913480	0.203258	0.451062
C38	C	0.862495	0.284442	0.402079
C39	C	0.866795	0.277576	0.311575
C40	C	0.894918	0.232859	0.721339
C41	C	0.890623	0.239721	0.811850
C42	C	0.996886	0.070489	0.819298
C43	C	1.001185	0.063636	0.728792
C44	C	0.950198	0.144815	0.679817
N45	N	0.909081	0.210273	0.543573
N46	N	0.954593	0.137793	0.587307
H47	H	1.060402	-0.227040	0.074471
O48	O	0.333851	0.161724	-0.061452
C49	C	0.332585	0.149585	-0.217542
C50	C	0.283301	0.154662	-0.134460
H51	H	0.291739	0.143847	-0.276590
H52	H	0.364501	0.237768	-0.219302
H53	H	0.378018	0.063283	-0.218234
H54	H	0.237827	0.240908	-0.133713
H55	H	0.251441	0.066420	-0.132732
H56	H	0.177783	0.157682	-0.059975
H57	H	0.536758	0.185635	0.180369
O58	O	0.544386	0.163196	-0.116779
C59	C	0.447524	0.261335	-0.214834
C60	C	0.488644	0.269215	-0.125439
H61	H	0.402436	0.347026	-0.221858
H62	H	0.493655	0.258549	-0.267837
H63	H	0.416001	0.172533	-0.220965
H64	H	0.520165	0.358009	-0.119224
H65	H	0.442477	0.271931	-0.072480
H66	H	0.853404	0.298961	0.681471
O67	O	1.067365	-0.488931	0.075102
C68	C	1.185722	-0.548305	0.158121
C69	C	1.108083	-0.460492	0.152616
H70	H	1.218673	-0.525326	0.220777
H71	H	1.171633	-0.649982	0.157185
H72	H	1.224367	-0.534559	0.100433
H73	H	1.069401	-0.474126	0.210291
H74	H	1.122229	-0.358847	0.153511
H75	H	0.872160	-0.394304	0.061247
O76	O	1.018371	0.036310	0.456980
C77	C	1.124211	-0.132287	0.454815
C78	C	1.068079	-0.042989	0.400979
H79	H	1.164403	-0.196441	0.409560
H80	H	1.161903	-0.075072	0.499932
H81	H	1.087837	-0.191517	0.494816
H82	H	1.104391	0.016260	0.360926
H83	H	1.030385	-0.100278	0.355916
H84	H	0.699458	0.168853	-0.093560
H85	H	0.874831	-0.233838	0.061428
H86	H	1.018080	0.036662	0.285222
H87	H	0.164217	0.179227	0.224423
O88	O	1.054903	-0.022007	0.688590
C89	C	1.159878	-0.189090	0.705533
C90	C	1.099064	-0.092182	0.751171
H91	H	1.195609	-0.245834	0.756110
H92	H	1.127573	-0.254877	0.660789
H93	H	1.201512	-0.138230	0.665905
H94	H	1.057414	-0.142937	0.790845
H95	H	1.131421	-0.026400	0.795863
H96	H	0.817482	0.356127	0.435896
H97	H	0.685892	0.190415	0.190840
O98	O	0.836844	0.325278	0.852052
C99	C	0.731913	0.492431	0.835120
C100	C	0.792765	0.395589	0.789480
H101	H	0.696270	0.549321	0.784553
H102	H	0.690200	0.441638	0.874695
H103	H	0.764263	0.558088	0.879916
H104	H	0.760481	0.329905	0.744642
H105	H	0.834475	0.446464	0.749960
H106	H	1.038397	0.004395	0.859181
H107	H	0.825282	0.343680	0.271699
H108	H	0.313367	0.183962	0.234896
