data_functionalizedCrystal
_audit_creation_method	'MofGen! by Chris Wilmer'
_symmetry_space_group_name_H-M	'P1'
_symmetry_Int_Tables_number	1
_symmetry_cell_setting	triclinic
loop_
_symmetry_equiv_pos_as_xyz
  x,y,z
_cell_length_a	10.686220
_cell_length_b	18.050589
_cell_length_c	10.686551
_cell_angle_alpha	85.596139
_cell_angle_beta	90.308082
_cell_angle_gamma	94.409750
loop_
_atom_site_label
_atom_site_type_symbol
_atom_site_fract_x
_atom_site_fract_y
_atom_site_fract_z
Zn1	Zn	1.972217	-0.181059	-0.562396
Zn2	Zn	1.955936	-0.315479	-0.352644
Zn3	Zn	1.746328	-0.200057	-0.368714
Zn4	Zn	1.762366	-0.313974	-0.578422
O5	O	1.859212	-0.252642	-0.465544
O6	O	2.145602	-0.191569	-0.521139
O7	O	1.914605	-0.308749	-0.179231
O8	O	1.776395	-0.093607	-0.394425
O9	O	2.133640	-0.290327	-0.367036
O10	O	1.942354	-0.079649	-0.536722
O11	O	1.760607	-0.223949	-0.191038
O12	O	1.572911	-0.222489	-0.409965
O13	O	1.803729	-0.287762	-0.751841
O14	O	1.584694	-0.306184	-0.564036
O15	O	1.957906	-0.190110	-0.740067
O16	O	1.930156	-0.419209	-0.382576
O17	O	1.787942	-0.418104	-0.548454
C18	C	1.533286	-0.266235	-0.490484
C19	C	1.393856	-0.272067	-0.501183
C20	C	1.859059	-0.445602	-0.465535
C21	C	1.859111	-0.528144	-0.465564
C22	C	1.781855	-0.727018	-0.555733
C23	C	1.742482	-0.783311	-0.443604
C24	C	1.859236	-0.679268	-0.465571
C25	C	1.898671	-0.770054	-0.577708
C26	C	1.859354	-0.825247	-0.465588
C27	C	1.819798	-0.734480	-0.353387
C28	C	1.976046	-0.721212	-0.487563
C29	C	1.936711	-0.777484	-0.375352
C30	C	1.859164	-0.595174	-0.465563
C31	C	1.859425	-0.909341	-0.465583
C32	C	2.186411	-0.238997	-0.440508
C33	C	2.325843	-0.233182	-0.429838
C34	C	1.884423	-0.236649	-0.792743
C35	C	1.895166	-0.229833	-0.932176
C36	C	1.859402	-0.058926	-0.465578
C37	C	1.859483	0.023624	-0.465593
C38	C	1.834171	-0.268517	-0.139612
C39	C	1.823671	-0.275113	-0.000161
H40	H	1.374283	-0.195430	-0.360571
H41	H	1.345409	-0.309826	-0.570447
H42	H	1.716305	-0.704886	-0.631887
O43	O	1.740983	-0.327682	-0.942394
C44	C	1.770745	-0.399016	-0.972237
H45	H	1.873704	-0.396837	-1.000678
H46	H	1.709250	-0.417568	-1.053336
C47	C	1.620788	-0.457493	-0.821936
C48	C	1.747247	-0.454819	-0.856857
H49	H	1.606289	-0.491916	-0.750768
H50	H	1.600733	-0.409435	-0.801833
H51	H	1.569557	-0.472951	-0.889528
H52	H	1.798475	-0.439352	-0.789272
H53	H	1.767311	-0.502876	-0.876947
H54	H	1.964605	-0.185853	-0.980647
O55	O	1.624637	-0.815568	-0.421620
C56	C	1.543283	-0.789805	-0.516861
H57	H	1.600125	-0.769358	-0.604432
H58	H	1.491700	-0.742025	-0.483231
C59	C	1.377500	-0.878941	-0.440474
C60	C	1.447313	-0.853834	-0.548035
H61	H	1.318297	-0.918435	-0.459701
H62	H	1.432307	-0.896296	-0.376305
H63	H	1.334525	-0.839118	-0.412461
H64	H	1.490299	-0.893654	-0.576037
H65	H	1.392511	-0.836486	-0.612209
H66	H	1.786378	-0.718720	-0.258543
O67	O	2.014668	-0.803844	-0.284242
C68	C	1.945812	-0.854811	-0.199227
H69	H	1.857735	-0.878439	-0.247400
H70	H	1.917957	-0.825068	-0.114455
C71	C	2.135378	-0.889726	-0.096636
C72	C	2.027206	-0.918750	-0.155806
H73	H	2.185587	-0.929165	-0.069846
H74	H	2.181769	-0.855387	-0.153908
H75	H	2.112150	-0.864941	-0.026000
H76	H	2.050435	-0.943527	-0.226449
H77	H	1.980821	-0.953095	-0.098544
O78	O	2.093782	-0.688918	-0.510017
C79	C	2.134958	-0.706784	-0.628376
H80	H	2.050196	-0.721769	-0.689232
H81	H	2.195260	-0.756252	-0.615857
C82	C	2.317087	-0.620826	-0.617627
C83	C	2.212980	-0.639225	-0.692375
H84	H	2.365219	-0.579155	-0.657104
H85	H	2.289349	-0.608791	-0.537884
H86	H	2.367323	-0.662055	-0.607201
H87	H	2.162737	-0.598000	-0.702787
H88	H	2.240711	-0.651252	-0.772122
O89	O	1.938274	-0.788883	-0.690936
C90	C	1.856336	-0.763193	-0.785693
H91	H	1.805672	-0.715040	-0.752133
H92	H	1.784561	-0.810470	-0.807638
C93	C	1.994454	-0.795456	-0.946111
C94	C	1.932235	-0.736309	-0.904895
H95	H	2.041269	-0.778876	-1.019643
H96	H	2.049655	-0.812766	-0.882272
H97	H	1.934630	-0.834848	-0.964389
H98	H	1.992060	-0.696922	-0.886603
H99	H	1.877045	-0.718991	-0.968734
