data_functionalizedCrystal
_audit_creation_method	'MofGen! by Chris Wilmer'
_symmetry_space_group_name_H-M	'P1'
_symmetry_Int_Tables_number	1
_symmetry_cell_setting	triclinic
loop_
_symmetry_equiv_pos_as_xyz
  x,y,z
_cell_length_a	16.109301
_cell_length_b	16.776229
_cell_length_c	16.109301
_cell_angle_alpha	90.004839
_cell_angle_beta	83.461481
_cell_angle_gamma	90.003040
loop_
_atom_site_label
_atom_site_type_symbol
_atom_site_fract_x
_atom_site_fract_y
_atom_site_fract_z
O1	O	1.103134	0.066240	0.106865
O2	O	1.603134	0.566240	0.606865
O3	O	0.861072	0.066253	0.120165
O4	O	1.361072	0.566253	0.620165
O5	O	0.988752	0.066238	-0.007516
O6	O	1.488752	0.566238	0.492484
O7	O	0.975453	0.066255	0.234546
O8	O	1.475453	0.566255	0.734546
O9	O	0.988738	-0.066338	-0.007516
O10	O	1.488738	0.433662	0.492484
O11	O	0.861057	-0.066323	0.120164
O12	O	1.361057	0.433677	0.620164
O13	O	1.103119	-0.066336	0.106865
O14	O	1.603119	0.433664	0.606865
Zn15	Zn	0.982086	-0.087379	0.113515
Zn16	Zn	1.482086	0.412621	0.613515
Zn17	Zn	0.982105	0.087296	0.113515
Zn18	Zn	1.482105	0.587296	0.613515
O19	O	0.975438	-0.066321	0.234546
O20	O	1.475438	0.433679	0.734546
C21	C	0.830090	-0.000033	0.119626
C22	C	1.330090	0.499967	0.619626
C23	C	0.737794	-0.000029	0.118011
C24	C	1.237794	0.499971	0.618011
C25	C	0.515522	-0.000033	0.190018
C26	C	1.015522	0.499967	0.690018
C27	C	0.428801	-0.000038	0.188494
C28	C	0.928801	0.499962	0.688494
C29	C	0.448676	-0.000045	0.037006
C30	C	0.948676	0.499955	0.537006
C31	C	0.535394	-0.000046	0.038530
C32	C	1.035394	0.499954	0.538530
C33	C	0.568815	-0.000036	0.115039
C34	C	1.068815	0.499964	0.615039
C35	C	0.395376	-0.000040	0.111990
C36	C	0.895376	0.499960	0.611990
C37	C	0.301350	-0.000046	0.110337
C38	C	0.801350	0.499954	0.610337
C39	C	0.662847	-0.000031	0.116693
C40	C	1.162847	0.499969	0.616693
N41	N	0.982079	-0.206590	0.113514
N42	N	1.482079	0.293410	0.613514
C43	C	1.032485	-0.248303	0.163957
C44	C	1.532485	0.251697	0.663957
C45	C	1.032494	-0.331755	0.163954
C46	C	1.532494	0.168245	0.663954
C47	C	0.982092	-0.373493	0.113511
C48	C	1.482092	0.126507	0.613511
C49	C	0.931684	-0.331775	0.063062
C50	C	1.431684	0.168225	0.563062
C51	C	0.931680	-0.248324	0.063062
C52	C	1.431680	0.251676	0.563062
C53	C	0.931701	-0.668322	0.063063
C54	C	1.431701	-0.168322	0.563063
C55	C	0.931707	-0.751778	0.063070
C56	C	1.431707	-0.251778	0.563070
C57	C	1.032515	-0.751753	0.163956
C58	C	1.532515	-0.251753	0.663956
C59	C	1.032511	-0.668302	0.163955
C60	C	1.532511	-0.168302	0.663955
C61	C	0.982107	-0.626591	0.113503
C62	C	1.482107	-0.126591	0.613503
C63	C	0.982098	-0.536103	0.113506
C64	C	1.482098	-0.036103	0.613506
C65	C	0.982096	-0.463980	0.113512
C66	C	1.482096	0.036020	0.613512
C67	C	1.134101	-0.000048	0.107404
C68	C	1.634101	0.499952	0.607404
C69	C	1.226397	-0.000047	0.109019
C70	C	1.726397	0.499953	0.609019
C71	C	0.988206	-0.000050	-0.038491
C72	C	1.488206	0.499950	0.461509
C73	C	0.986591	-0.000051	-0.130786
C74	C	1.486591	0.499949	0.369214
N75	N	0.982118	0.206507	0.113509
N76	N	1.482118	0.706507	0.613509
C77	C	1.058599	-0.000043	-0.353059
C78	C	1.558599	0.499957	0.146941
C79	C	1.057075	-0.000036	-0.439779
C80	C	1.557075	0.499964	0.060221
C81	C	0.905586	-0.000031	-0.419905
C82	C	1.405586	0.499969	0.080095
C83	C	0.907111	-0.000032	-0.333186
C84	C	1.407111	0.499968	0.166814
C85	C	0.983620	-0.000042	-0.299766
C86	C	1.483620	0.499958	0.200234
C87	C	0.980571	-0.000034	-0.473205
C88	C	1.480571	0.499966	0.026795
C89	C	0.978918	-0.000027	-0.567231
C90	C	1.478918	0.499973	-0.067231
C91	C	0.985273	-0.000047	-0.205734
C92	C	1.485273	0.499953	0.294266
C93	C	0.975984	-0.000031	0.265521
C94	C	1.475984	0.499969	0.765521
C95	C	0.977600	-0.000025	0.357816
C96	C	1.477600	0.499975	0.857816
H97	H	1.073523	-0.214326	0.205038
H98	H	1.573523	0.285674	0.705038
H99	H	0.890634	-0.214362	0.021986
H100	H	1.390634	0.285638	0.521986
H101	H	0.890650	-0.365764	0.021987
H102	H	1.390650	0.134236	0.521987
F103	F	1.136878	-0.000035	-0.496495
F104	F	1.636878	0.499965	0.003505
F105	F	1.140026	-0.000052	-0.317493
F106	F	1.640026	0.499948	0.182507
H107	H	1.073542	-0.365714	0.205028
H108	H	1.573542	0.134286	0.705028
H109	H	0.843295	-0.000024	-0.447127
H110	H	1.343295	0.499976	0.052873
F111	F	0.372086	-0.000036	0.268298
F112	F	0.872086	0.499964	0.768298
F113	F	0.413100	-0.000053	-0.044416
F114	F	0.913100	0.499947	0.455584
F115	F	0.827304	-0.000025	-0.276464
F116	F	1.327304	0.499975	0.223536
H117	H	0.578788	-0.000050	-0.022530
H118	H	1.078788	0.499950	0.477470
F119	F	1.086146	-0.623886	0.217652
F120	F	1.586146	-0.123886	0.717652
F121	F	0.551087	-0.000025	0.271446
F122	F	1.051087	0.499975	0.771446
F123	F	0.878060	-0.796197	0.009379
F124	F	1.378060	-0.296197	0.509379
F125	F	1.086163	-0.796152	0.217649
F126	F	1.586163	-0.296152	0.717649
H127	H	0.890659	-0.634370	0.021982
H128	H	1.390659	-0.134370	0.521982
