data_functionalizedCrystal
_audit_creation_method	'MofGen! by Chris Wilmer'
_symmetry_space_group_name_H-M	'P1'
_symmetry_Int_Tables_number	1
_symmetry_cell_setting	triclinic
loop_
_symmetry_equiv_pos_as_xyz
  x,y,z
_cell_length_a	10.686220
_cell_length_b	19.120786
_cell_length_c	10.686551
_cell_angle_alpha	96.651844
_cell_angle_beta	89.691918
_cell_angle_gamma	97.023231
loop_
_atom_site_label
_atom_site_type_symbol
_atom_site_fract_x
_atom_site_fract_y
_atom_site_fract_z
Zn1	Zn	1.958087	-0.172367	0.550230
Zn2	Zn	1.931315	-0.300335	0.331447
Zn3	Zn	1.730716	-0.190454	0.355272
Zn4	Zn	1.737864	-0.298902	0.557326
O5	O	1.839496	-0.240515	0.448569
O6	O	2.130652	-0.182373	0.508268
O7	O	1.890510	-0.293928	0.158486
O8	O	1.769090	-0.089113	0.388135
O9	O	2.110983	-0.276390	0.347529
O10	O	1.936139	-0.075826	0.531370
O11	O	1.743130	-0.213198	0.175990
O12	O	1.555548	-0.211809	0.395016
O13	O	1.781272	-0.273948	0.732506
O14	O	1.560799	-0.291486	0.543463
O15	O	1.943070	-0.180984	0.727293
O16	O	1.897441	-0.399086	0.354409
O17	O	1.755313	-0.398033	0.520361
C18	C	1.512509	-0.253455	0.472596
C19	C	1.372623	-0.259007	0.482903
C20	C	1.824284	-0.424211	0.435595
C21	C	1.817895	-0.502791	0.430078
C22	C	1.901812	-0.532729	0.502131
C23	C	1.895804	-0.606563	0.496949
C24	C	1.805883	-0.650458	0.419708
C25	C	1.721958	-0.620516	0.347653
C26	C	1.727961	-0.546683	0.352842
C27	C	1.783404	-0.873735	0.400313
C28	C	1.777409	-0.947573	0.395127
C29	C	1.951255	-0.933615	0.544426
C30	C	1.957255	-0.859781	0.549602
C31	C	1.873325	-0.829845	0.477552
C32	C	1.799742	-0.725929	0.414407
C33	C	1.879461	-0.754376	0.482861
C34	C	2.167759	-0.227524	0.424449
C35	C	2.307646	-0.221988	0.414171
C36	C	1.865955	-0.225289	0.776843
C37	C	1.877230	-0.218801	0.916734
C38	C	1.854803	-0.056098	0.461619
C39	C	1.861326	0.022490	0.467180
C40	C	1.813216	-0.255627	0.121570
C41	C	1.802201	-0.261907	-0.018324
H42	H	1.321230	-0.294953	0.549630
H43	H	1.952670	-0.718634	0.545756
H44	H	1.359032	-0.186049	0.347440
Br45	Br	2.023862	-0.473163	0.606953
Br46	Br	1.677700	-0.785507	0.309594
H47	H	1.715067	-0.849367	0.341645
Br48	Br	2.009676	-0.647190	0.594763
Br49	Br	1.998693	-0.149017	1.002436
H50	H	2.030475	-0.824042	0.612498
H51	H	1.729343	-0.303777	0.930256
H52	H	2.019584	-0.957997	0.603087
Br53	Br	1.599906	-0.680087	0.242842
Br54	Br	1.655374	-1.007146	0.290284
H55	H	1.659625	-0.522309	0.294170
