data_functionalizedCrystal
_audit_creation_method	'MofGen! by Chris Wilmer'
_symmetry_space_group_name_H-M	'P1'
_symmetry_Int_Tables_number	1
_symmetry_cell_setting	triclinic
loop_
_symmetry_equiv_pos_as_xyz
  x,y,z
_cell_length_a	16.109301
_cell_length_b	9.065218
_cell_length_c	8.140239
_cell_angle_alpha	90.001686
_cell_angle_beta	90.000002
_cell_angle_gamma	84.238683
loop_
_atom_site_label
_atom_site_type_symbol
_atom_site_fract_x
_atom_site_fract_y
_atom_site_fract_z
O1	O	-1.104587	-0.189628	-0.136503
O2	O	-0.604587	0.310372	0.363497
O3	O	-0.862706	-0.213227	-0.136528
O4	O	-0.362706	0.286773	0.363472
O5	O	-0.988646	0.013336	-0.136512
O6	O	-0.488646	0.513336	0.363488
O7	O	-0.978647	-0.416191	-0.136519
O8	O	-0.478647	0.083809	0.363481
O9	O	-0.988639	0.013338	0.136716
O10	O	-0.488639	0.513338	0.636716
O11	O	-0.862699	-0.213225	0.136699
O12	O	-0.362699	0.286775	0.636699
O13	O	-1.104580	-0.189626	0.136724
O14	O	-0.604580	0.310374	0.636724
Zn15	Zn	-0.983638	-0.201425	0.180092
Zn16	Zn	-0.483638	0.298575	0.680092
Zn17	Zn	-0.983648	-0.201428	-0.179896
Zn18	Zn	-0.483648	0.298572	0.320104
O19	O	-0.978640	-0.416188	0.136708
O20	O	-0.478640	0.083812	0.636708
C21	C	-0.987682	0.068300	0.000099
C22	C	-0.487682	0.568300	0.500099
C23	C	-0.984808	0.232074	0.000091
C24	C	-0.484808	0.732074	0.500091
C25	C	-0.831720	-0.212270	0.000082
C26	C	-0.331720	0.287730	0.500082
C27	C	-0.739403	-0.209404	0.000072
C28	C	-0.239403	0.290596	0.500072
C29	C	-1.135565	-0.190583	0.000110
C30	C	-0.635565	0.309417	0.500110
C31	C	-1.227883	-0.193449	0.000109
C32	C	-0.727883	0.306551	0.500109
C33	C	-0.518112	-0.337178	0.000089
C34	C	-0.018112	0.162822	0.500089
C35	C	-0.431371	-0.334474	0.000100
C36	C	0.068629	0.165526	0.500100
C37	C	-0.449180	-0.065664	0.000098
C38	C	0.050820	0.434336	0.500098
C39	C	-0.535920	-0.068370	0.000099
C40	C	-0.035920	0.431630	0.500099
C41	C	-0.570383	-0.204131	0.000086
C42	C	-0.070383	0.295869	0.500086
C43	C	-0.396903	-0.198721	0.000096
C44	C	0.103097	0.301279	0.500096
C45	C	-0.302854	-0.195788	0.000107
C46	C	0.197146	0.304212	0.500107
C47	C	-0.664438	-0.207065	0.000078
C48	C	-0.164438	0.292935	0.500078
C49	C	-0.979604	-0.471153	0.000093
C50	C	-0.479604	0.028847	0.500093
C51	C	-0.982478	-0.634926	0.000091
C52	C	-0.482478	-0.134926	0.500091
N53	N	-0.983638	-0.201421	0.425775
N54	N	-0.483638	0.298579	0.925775
N55	N	-0.983654	-0.201419	-0.425579
N56	N	-0.483654	0.298581	0.074421
H57	H	-0.546169	-0.447723	0.000091
H58	H	-0.046169	0.052277	0.500091
C59	C	-0.593422	0.077999	0.000096
C60	C	-0.093422	0.577999	0.500096
N61	N	-0.636732	0.188240	0.000098
N62	N	-0.136732	0.688240	0.500098
C63	C	-0.411262	0.083665	0.000096
C64	C	0.088738	0.583665	0.500096
N65	N	-0.382703	0.196143	0.000089
N66	N	0.117297	0.696143	0.500089
H67	H	-0.388815	-0.442814	0.000105
H68	H	0.111185	0.057186	0.500105
