data_functionalizedCrystal
_audit_creation_method	'MofGen! by Chris Wilmer'
_symmetry_space_group_name_H-M	'P1'
_symmetry_Int_Tables_number	1
_symmetry_cell_setting	triclinic
loop_
_symmetry_equiv_pos_as_xyz
  x,y,z
_cell_length_a	25.639242
_cell_length_b	29.839125
_cell_length_c	25.639239
_cell_angle_alpha	89.983129
_cell_angle_beta	90.033587
_cell_angle_gamma	89.979564
loop_
_atom_site_label
_atom_site_type_symbol
_atom_site_fract_x
_atom_site_fract_y
_atom_site_fract_z
Zn1	Zn	0.799219	-0.254109	-0.208295
Zn2	Zn	1.132552	0.079224	0.125038
Zn3	Zn	1.465886	0.412558	0.458371
Zn4	Zn	0.799144	-0.178980	-0.295711
Zn5	Zn	1.132478	0.154353	0.037622
Zn6	Zn	1.465811	0.487686	0.370956
Zn7	Zn	0.711797	-0.178981	-0.208284
Zn8	Zn	1.045131	0.154353	0.125050
Zn9	Zn	1.378464	0.487686	0.458383
Zn10	Zn	0.711741	-0.254071	-0.295694
Zn11	Zn	1.045074	0.079263	0.037640
Zn12	Zn	1.378407	0.412596	0.370973
O13	O	0.755475	-0.216535	-0.251996
O14	O	1.088809	0.116798	0.081337
O15	O	1.422142	0.450131	0.414671
O16	O	0.872374	-0.244159	-0.219903
O17	O	1.205708	0.089174	0.113430
O18	O	1.539041	0.422508	0.446763
O19	O	0.787550	-0.116113	-0.284116
O20	O	1.120883	0.217220	0.049217
O21	O	1.454217	0.550554	0.382550
O22	O	0.723449	-0.188963	-0.135120
O23	O	1.056782	0.144370	0.198213
O24	O	1.390116	0.477704	0.531547
O25	O	0.872319	-0.188962	-0.284127
O26	O	1.205653	0.144371	0.049206
O27	O	1.538986	0.477705	0.382539
O28	O	0.787677	-0.244160	-0.135128
O29	O	1.121011	0.089174	0.198205
O30	O	1.454344	0.422507	0.531538
O31	O	0.723376	-0.116114	-0.219884
O32	O	1.056710	0.217220	0.113450
O33	O	1.390043	0.550553	0.446783
O34	O	0.638624	-0.188926	-0.219867
O35	O	0.971958	0.144408	0.113467
O36	O	1.305291	0.477741	0.446800
O37	O	0.723352	-0.316943	-0.284098
O38	O	1.056686	0.016390	0.049236
O39	O	1.390019	0.349724	0.382569
O40	O	0.638583	-0.244094	-0.284086
O41	O	0.971916	0.089239	0.049247
O42	O	1.305250	0.422573	0.382580
O43	O	0.787622	-0.316971	-0.219886
O44	O	1.120956	0.016362	0.113447
O45	O	1.454289	0.349695	0.446780
O46	O	0.787495	-0.188925	-0.368874
O47	O	1.120828	0.144409	-0.035541
O48	O	1.454162	0.477742	0.297793
O49	O	0.723280	-0.244093	-0.368861
O50	O	1.056613	0.089240	-0.035528
O51	O	1.389947	0.422573	0.297805
C52	C	0.619633	-0.216506	-0.251974
C53	C	0.952966	0.116827	0.081360
C54	C	1.286299	0.450161	0.414693
C55	C	0.561519	-0.216504	-0.251977
C56	C	0.894852	0.116829	0.081356
C57	C	1.228185	0.450163	0.414690
C58	C	0.755489	-0.333714	-0.251991
C59	C	1.088823	-0.000380	0.081342
C60	C	1.422156	0.332953	0.414675
C61	C	0.755495	-0.383648	-0.251989
C62	C	1.088829	-0.050315	0.081344
C63	C	1.422162	0.283019	0.414677
C64	C	0.310338	-0.187859	-0.218501
C65	C	0.643671	0.145475	0.114832
C66	C	0.977005	0.478808	0.448166
C67	C	0.364942	-0.187853	-0.218496
C68	C	0.698276	0.145480	0.114837
C69	C	1.031609	0.478814	0.448171
O70	O	0.393190	-0.163473	-0.190003
O71	O	0.726523	0.169861	0.143331
O72	O	1.059857	0.503194	0.476664
N73	N	0.392245	-0.216527	-0.251983
N74	N	0.725578	0.116807	0.081350
N75	N	1.058911	0.450140	0.414683
C76	C	0.364940	-0.245211	-0.285474
C77	C	0.698273	0.088122	0.047859
C78	C	1.031607	0.421456	0.381193
O79	O	0.393177	-0.269600	-0.313957
O80	O	0.726510	0.063733	0.019376
O81	O	1.059843	0.397067	0.352710
C82	C	0.310337	-0.245219	-0.285476
C83	C	0.643670	0.088115	0.047857
C84	C	0.977003	0.421448	0.381191
C85	C	0.283037	-0.216540	-0.251990
C86	C	0.616371	0.116793	0.081343
C87	C	0.949704	0.450127	0.414677
C88	C	0.283039	-0.159183	-0.185017
C89	C	0.616372	0.174151	0.148316
C90	C	0.949705	0.507484	0.481649
C91	C	0.228438	-0.159188	-0.185023
C92	C	0.561771	0.174145	0.148310
C93	C	0.895105	0.507479	0.481644
C94	C	0.201137	-0.187869	-0.218512
C95	C	0.534470	0.145464	0.114821
C96	C	0.867804	0.478797	0.448154
C97	C	0.228437	-0.216545	-0.251996
C98	C	0.561770	0.116788	0.081338
C99	C	0.895103	0.450121	0.414671
C100	C	0.283033	-0.273905	-0.318964
C101	C	0.616366	0.059428	0.014370
C102	C	0.949700	0.392762	0.347703
C103	C	0.228426	-0.273911	-0.318962
C104	C	0.561759	0.059423	0.014371
C105	C	0.895093	0.392756	0.347705
C106	C	0.201126	-0.245232	-0.285476
C107	C	0.534460	0.088102	0.047857
C108	C	0.867793	0.421435	0.381190
C109	C	0.146535	-0.245232	-0.285491
C110	C	0.479868	0.088102	0.047843
C111	C	0.813202	0.421435	0.381176
N112	N	0.119233	-0.216558	-0.252003
N113	N	0.452566	0.116775	0.081330
N114	N	0.785899	0.450109	0.414663
C115	C	0.146534	-0.187877	-0.218514
C116	C	0.479867	0.145456	0.114819
C117	C	0.813200	0.478790	0.448153
C118	C	0.479611	-0.245193	-0.285467
C119	C	0.812944	0.088140	0.047866
C120	C	1.146277	0.421473	0.381200
C121	C	0.534213	-0.245184	-0.285468
C122	C	0.867546	0.088149	0.047865
C123	C	1.200880	0.421483	0.381198
C124	C	0.534212	-0.187826	-0.218490
C125	C	0.867545	0.145507	0.114844
C126	C	1.200878	0.478840	0.448177
C127	C	0.479608	-0.187834	-0.218491
C128	C	0.812942	0.145499	0.114842
C129	C	1.146275	0.478833	0.448175
C130	C	0.452308	-0.216520	-0.251980
C131	C	0.785642	0.116814	0.081354
C132	C	1.118975	0.450147	0.414687
C133	C	0.031869	-0.187890	-0.218529
C134	C	0.365202	0.145444	0.114805
C135	C	0.698535	0.478777	0.448138
C136	C	-0.022737	-0.187896	-0.218539
C137	C	0.310597	0.145437	0.114794
C138	C	0.643930	0.478770	0.448128
C139	C	-0.022731	-0.245255	-0.285516
C140	C	0.310603	0.088078	0.047818
C141	C	0.643936	0.421411	0.381151
C142	C	0.031870	-0.245247	-0.285508
C143	C	0.365203	0.088086	0.047826
C144	C	0.698537	0.421419	0.381159
C145	C	0.059168	-0.216563	-0.252010
C146	C	0.392502	0.116770	0.081323
C147	C	0.725835	0.450104	0.414657
O148	O	0.118253	-0.269601	-0.313968
O149	O	0.451586	0.063732	0.019365
O150	O	0.784920	0.397066	0.352699
O151	O	0.118290	-0.163496	-0.190031
O152	O	0.451624	0.169837	0.143302
O153	O	0.784957	0.503170	0.476635
C154	C	0.788996	-0.693309	-0.218467
C155	C	1.122329	-0.359976	0.114866
C156	C	1.455663	-0.026643	0.448200
C157	C	0.789022	-0.880982	-0.218422
C158	C	1.122355	-0.547649	0.114911
C159	C	1.455689	-0.214316	0.448244
O160	O	0.817467	-0.905262	-0.189970
O161	O	1.150800	-0.571929	0.143363
O162	O	1.484133	-0.238596	0.476697
N163	N	0.755565	-0.904433	-0.251849
N164	N	1.088898	-0.571100	0.081484
N165	N	1.422231	-0.237767	0.414817
C166	C	0.722096	-0.880963	-0.285287
C167	C	1.055430	-0.547630	0.048046
C168	C	1.388763	-0.214296	0.381379
O169	O	0.693636	-0.905216	-0.313714
O170	O	1.026969	-0.571882	0.019619
O171	O	1.360302	-0.238549	0.352953
C172	C	0.722068	-0.693291	-0.285329
C173	C	1.055401	-0.359957	0.048005
C174	C	1.388735	-0.026624	0.381338
C175	C	0.755531	-0.669842	-0.251903
C176	C	1.088865	-0.336509	0.081430
C177	C	1.422198	-0.003176	0.414763
C178	C	0.822456	-0.669861	-0.185044
C179	C	1.155790	-0.336527	0.148290
C180	C	1.489123	-0.003194	0.481623
C181	C	0.822451	-0.622945	-0.185057
C182	C	1.155785	-0.289612	0.148276
C183	C	1.489118	0.043721	0.481609
C184	C	0.788987	-0.599478	-0.218494
C185	C	1.122320	-0.266145	0.114839
C186	C	1.455653	0.067188	0.448173
C187	C	0.755526	-0.622927	-0.251917
C188	C	1.088860	-0.289593	0.081416
C189	C	1.422193	0.043740	0.414750
C190	C	0.688597	-0.669821	-0.318764
C191	C	1.021931	-0.336488	0.014570
C192	C	1.355264	-0.003155	0.347903
C193	C	0.688592	-0.622900	-0.318770
C194	C	1.021926	-0.289567	0.014563
C195	C	1.355259	0.043766	0.347896
C196	C	0.722055	-0.599452	-0.285345
C197	C	1.055389	-0.266119	0.047988
C198	C	1.388722	0.067215	0.381322
C199	C	0.722057	-0.552544	-0.285367
C200	C	1.055390	-0.219211	0.047966
C201	C	1.388723	0.114122	0.381300
N202	N	0.755514	-0.529093	-0.251940
N203	N	1.088847	-0.195760	0.081393
N204	N	1.422181	0.137573	0.414727
C205	C	0.788979	-0.552560	-0.218503
C206	C	1.122312	-0.219227	0.114830
C207	C	1.455646	0.114106	0.448163
C208	C	0.722114	-0.979494	-0.285264
C209	C	1.055447	-0.646160	0.048070
C210	C	1.388781	-0.312827	0.381403
C211	C	0.722122	-1.026412	-0.285254
C212	C	1.055455	-0.693078	0.048079
C213	C	1.388788	-0.359745	0.381413
C214	C	0.789047	-1.026428	-0.218388
C215	C	1.122380	-0.693094	0.114945
C216	C	1.455714	-0.359761	0.448278
C217	C	0.789042	-0.979509	-0.218401
C218	C	1.122375	-0.646176	0.114932
C219	C	1.455708	-0.312842	0.448266
C220	C	0.755571	-0.956043	-0.251837
C221	C	1.088905	-0.622709	0.081496
C222	C	1.422238	-0.289376	0.414830
C223	C	0.788967	-0.454035	-0.218535
C224	C	1.122300	-0.120701	0.114799
C225	C	1.455633	0.212632	0.448132
C226	C	0.788960	-0.407115	-0.218553
C227	C	1.122294	-0.073782	0.114781
C228	C	1.455627	0.259552	0.448114
C229	C	0.722033	-0.407103	-0.285416
C230	C	1.055367	-0.073770	0.047917
C231	C	1.388700	0.259564	0.381250
C232	C	0.722041	-0.454018	-0.285400
C233	C	1.055375	-0.120685	0.047933
C234	C	1.388708	0.212648	0.381266
C235	C	0.755510	-0.477483	-0.251955
C236	C	1.088843	-0.144150	0.081378
C237	C	1.422176	0.189184	0.414711
O238	O	0.693623	-0.528236	-0.313800
O239	O	1.026956	-0.194902	0.019533
O240	O	1.360290	0.138431	0.352866
O241	O	0.817427	-0.528300	-0.190073
O242	O	1.150760	-0.194966	0.143261
O243	O	1.484094	0.138367	0.476594
C244	C	0.789001	-0.740225	-0.218453
C245	C	1.122334	-0.406891	0.114880
C246	C	1.455668	-0.073558	0.448213
C247	C	0.755541	-0.763673	-0.251876
C248	C	1.088874	-0.430340	0.081457
C249	C	1.422208	-0.097007	0.414790
C250	C	0.722076	-0.740206	-0.285313
C251	C	1.055409	-0.406873	0.048020
C252	C	1.388743	-0.073540	0.381354
C253	C	0.755549	-0.810591	-0.251867
C254	C	1.088882	-0.477258	0.081467
C255	C	1.422215	-0.143924	0.414800
C256	C	0.789013	-0.834058	-0.218430
C257	C	1.122347	-0.500725	0.114903
C258	C	1.455680	-0.167391	0.448236
C259	C	0.822471	-0.810607	-0.185003
C260	C	1.155804	-0.477274	0.148330
C261	C	1.489137	-0.143940	0.481663
C262	C	0.822466	-0.763692	-0.185017
C263	C	1.155799	-0.430358	0.148317
C264	C	1.489132	-0.097025	0.481650
C265	C	0.688619	-0.763657	-0.318740
C266	C	1.021952	-0.430324	0.014593
C267	C	1.355285	-0.096991	0.347927
C268	C	0.688627	-0.810573	-0.318724
C269	C	1.021960	-0.477239	0.014609
C270	C	1.355293	-0.143906	0.347943
C271	C	0.722092	-0.834040	-0.285288
C272	C	1.055425	-0.500706	0.048046
C273	C	1.388758	-0.167373	0.381379
C274	C	0.891848	-0.216565	-0.252018
C275	C	1.225182	0.116769	0.081315
C276	C	1.558515	0.450102	0.414648
C277	C	0.949962	-0.216577	-0.252028
C278	C	1.283296	0.116756	0.081305
C279	C	1.616629	0.450089	0.414639
C280	C	0.755387	-0.216515	-0.387839
C281	C	1.088721	0.116819	-0.054505
C282	C	1.422054	0.450152	0.278828
C283	C	0.755398	-0.216521	-0.445953
C284	C	1.088731	0.116813	-0.112619
C285	C	1.422064	0.450146	0.220714
C286	C	0.755491	-0.099813	-0.251963
C287	C	1.088825	0.233521	0.081370
C288	C	1.422158	0.566854	0.414704
C289	C	0.755587	-0.049879	-0.251818
C290	C	1.088920	0.283455	0.081516
C291	C	1.422253	0.616788	0.414849
C292	C	0.788999	-0.187858	-0.806310
C293	C	1.122333	0.145475	-0.472976
C294	C	1.455666	0.478809	-0.139643
C295	C	0.789020	-0.187864	-0.860914
C296	C	1.122353	0.145469	-0.527581
C297	C	1.455686	0.478803	-0.194247
O298	O	0.817498	-0.163471	-0.889146
O299	O	1.150831	0.169862	-0.555812
O300	O	1.484165	0.503196	-0.222479
N301	N	0.755567	-0.216565	-0.888235
N302	N	1.088901	0.116768	-0.554902
N303	N	1.422234	0.450102	-0.221568
C304	C	0.722096	-0.245265	-0.860949
C305	C	1.055429	0.088068	-0.527615
C306	C	1.388763	0.421402	-0.194282
O307	O	0.693644	-0.269679	-0.889201
O308	O	1.026978	0.063655	-0.555868
O309	O	1.360311	0.396988	-0.222535
C310	C	0.722079	-0.245261	-0.806345
C311	C	1.055412	0.088072	-0.473012
C312	C	1.388745	0.421406	-0.139679
C313	C	0.755530	-0.216555	-0.779027
C314	C	1.088863	0.116778	-0.445694
C315	C	1.422196	0.450112	-0.112361
C316	C	0.822448	-0.159154	-0.778991
C317	C	1.155781	0.174179	-0.445658
C318	C	1.489115	0.507512	-0.112325
C319	C	0.822427	-0.159148	-0.724391
C320	C	1.155760	0.174185	-0.391058
C321	C	1.489094	0.507519	-0.057724
C322	C	0.788957	-0.187845	-0.697109
C323	C	1.122291	0.145488	-0.363775
C324	C	1.455624	0.478822	-0.030442
C325	C	0.755509	-0.216548	-0.724427
C326	C	1.088842	0.116785	-0.391093
C327	C	1.422175	0.450118	-0.057760
C328	C	0.688611	-0.273963	-0.779060
C329	C	1.021944	0.059370	-0.445727
C330	C	1.355277	0.392703	-0.112394
C331	C	0.688597	-0.273957	-0.724453
C332	C	1.021930	0.059376	-0.391120
C333	C	1.355263	0.392710	-0.057787
C334	C	0.722047	-0.245251	-0.697135
C335	C	1.055381	0.088083	-0.363802
C336	C	1.388714	0.421416	-0.030468
C337	C	0.722018	-0.245239	-0.642544
C338	C	1.055351	0.088094	-0.309211
C339	C	1.388685	0.421428	0.024123
N340	N	0.755470	-0.216538	-0.615223
N341	N	1.088804	0.116796	-0.281890
N342	N	1.422137	0.450129	0.051444
C343	C	0.788940	-0.187841	-0.642505
C344	C	1.122273	0.145493	-0.309172
C345	C	1.455607	0.478826	0.024161
C346	C	0.722135	-0.245272	-0.975619
C347	C	1.055469	0.088061	-0.642286
C348	C	1.388802	0.421395	-0.308953
C349	C	0.722150	-0.245274	-1.030222
C350	C	1.055483	0.088059	-0.696888
C351	C	1.388816	0.421392	-0.363555
C352	C	0.789074	-0.187873	-1.030183
C353	C	1.122407	0.145460	-0.696850
C354	C	1.455741	0.478793	-0.363516
C355	C	0.789057	-0.187869	-0.975580
C356	C	1.122390	0.145464	-0.642247
C357	C	1.455724	0.478797	-0.308913
C358	C	0.755588	-0.216571	-0.948298
C359	C	1.088921	0.116762	-0.614965
C360	C	1.422255	0.450096	-0.281632
C361	C	0.788893	-0.187829	-0.527840
C362	C	1.122226	0.145504	-0.194507
C363	C	1.455560	0.478838	0.138826
C364	C	0.788867	-0.187824	-0.473235
C365	C	1.122201	0.145510	-0.139902
C366	C	1.455534	0.478843	0.193432
C367	C	0.721945	-0.245226	-0.473278
C368	C	1.055278	0.088107	-0.139945
C369	C	1.388612	0.421441	0.193388
C370	C	0.721968	-0.245230	-0.527879
C371	C	1.055302	0.088103	-0.194545
C372	C	1.388635	0.421437	0.138788
C373	C	0.755447	-0.216530	-0.555158
C374	C	1.088780	0.116803	-0.221825
C375	C	1.422113	0.450137	0.111508
O376	O	0.693556	-0.269621	-0.614278
O377	O	1.026889	0.063713	-0.280944
O378	O	1.360222	0.397046	0.052389
O379	O	0.817392	-0.163436	-0.614246
O380	O	1.150725	0.169898	-0.280913
O381	O	1.484058	0.503231	0.052421
C382	C	0.755578	-0.216566	-0.115623
C383	C	1.088911	0.116768	0.217710
C384	C	1.422244	0.450101	0.551044
C385	C	0.755621	-0.216579	-0.057509
C386	C	1.088955	0.116755	0.275824
C387	C	1.422288	0.450088	0.609158
H388	H	-0.044962	-0.164541	-0.191270
H389	H	0.288372	0.168792	0.142063
H390	H	0.621705	0.502125	0.475397
Cl391	Cl	0.317350	-0.123122	-0.142910
Cl392	Cl	0.650683	0.210212	0.190423
Cl393	Cl	0.984017	0.543545	0.523757
Cl394	Cl	0.066178	-0.151828	-0.176418
Cl395	Cl	0.399511	0.181505	0.156915
Cl396	Cl	0.732845	0.514839	0.490248
Cl397	Cl	0.194127	-0.123138	-0.142918
Cl398	Cl	0.527460	0.210196	0.190415
Cl399	Cl	0.860793	0.543529	0.523748
Cl400	Cl	0.831110	-0.950036	-0.176378
Cl401	Cl	1.164443	-0.616702	0.156955
Cl402	Cl	1.497777	-0.283369	0.490289
Cl403	Cl	0.194109	-0.309976	-0.361064
Cl404	Cl	0.527443	0.023357	-0.027730
Cl405	Cl	0.860776	0.356691	0.305603
H406	H	0.457385	-0.164483	-0.191222
H407	H	0.790718	0.168851	0.142111
H408	H	1.124051	0.502184	0.475444
Cl409	Cl	0.864535	-0.734221	-0.142993
Cl410	Cl	1.197869	-0.400887	0.190340
Cl411	Cl	1.531202	-0.067554	0.523674
Cl412	Cl	0.646561	-0.310059	-0.813390
Cl413	Cl	0.979895	0.023275	-0.480056
Cl414	Cl	1.313228	0.356608	-0.146723
Cl415	Cl	0.680089	-0.281358	-1.064558
Cl416	Cl	1.013422	0.051975	-0.731224
Cl417	Cl	1.346756	0.385308	-0.397891
H418	H	0.849721	-0.829722	-0.157780
H419	H	1.183054	-0.496389	0.175554
H420	H	1.516387	-0.163055	0.508887
H421	H	0.054098	-0.268596	-0.312778
H422	H	0.387432	0.064737	0.020555
H423	H	0.720765	0.398070	0.353888
H424	H	0.694859	-0.960392	-0.312495
H425	H	1.028192	-0.627059	0.020839
H426	H	1.361526	-0.293725	0.354172
Cl427	Cl	0.317339	-0.309962	-0.361062
Cl428	Cl	0.650672	0.023372	-0.027729
Cl429	Cl	0.984006	0.356705	0.305605
Cl430	Cl	0.680051	-0.281354	-0.941328
Cl431	Cl	1.013385	0.051979	-0.607995
Cl432	Cl	1.346718	0.385312	-0.274662
H433	H	0.556450	-0.164473	-0.191220
H434	H	0.889783	0.168860	0.142114
H435	H	1.223117	0.502193	0.475447
H436	H	0.849707	-0.688963	-0.157813
H437	H	1.183041	-0.355629	0.175520
H438	H	1.516374	-0.022296	0.508854
H439	H	0.816296	-0.164495	-0.953341
H440	H	1.149629	0.168839	-0.620007
H441	H	1.482962	0.502172	-0.286674
Cl442	Cl	0.680060	-1.055884	-0.327285
Cl443	Cl	1.013393	-0.722551	0.006049
Cl444	Cl	1.346727	-0.389217	0.339382
Cl445	Cl	0.568526	-0.281232	-0.327574
Cl446	Cl	0.901859	0.052101	0.005759
Cl447	Cl	1.235192	0.385434	0.339093
H448	H	0.661348	-0.688905	-0.345982
H449	H	0.994681	-0.355572	-0.012649
H450	H	1.328014	-0.022238	0.320684
H451	H	0.661343	-0.297331	-0.702243
H452	H	0.994676	0.036003	-0.368910
H453	H	1.328009	0.369336	-0.035577
H454	H	0.816296	-1.045542	-0.191163
H455	H	1.149629	-0.712209	0.142170
H456	H	1.482962	-0.378876	0.475503
Cl457	Cl	0.679964	-0.377593	-0.327447
Cl458	Cl	1.013297	-0.044260	0.005886
Cl459	Cl	1.346631	0.289074	0.339220
H460	H	0.661331	-0.603797	-0.345993
H461	H	0.994664	-0.270463	-0.012660
H462	H	1.327997	0.062870	0.320674
Cl463	Cl	-0.057062	-0.281304	-0.327620
Cl464	Cl	0.276271	0.052029	0.005713
Cl465	Cl	0.609605	0.385363	0.339046
Cl466	Cl	0.445296	-0.281256	-0.327576
Cl467	Cl	0.778629	0.052078	0.005758
Cl468	Cl	1.111963	0.385411	0.339091
H469	H	0.661378	-0.829660	-0.345948
H470	H	0.994711	-0.496327	-0.012615
H471	H	1.328044	-0.162994	0.320719
Cl472	Cl	0.831032	-0.377640	-0.176530
Cl473	Cl	1.164366	-0.044306	0.156804
Cl474	Cl	1.497699	0.289027	0.490137
Cl475	Cl	0.646544	-0.734163	-0.360779
Cl476	Cl	0.979877	-0.400830	-0.027445
Cl477	Cl	1.313211	-0.067496	0.305888
Cl478	Cl	0.830923	-0.151733	-0.438895
Cl479	Cl	1.164257	0.181600	-0.105562
Cl480	Cl	1.497590	0.514933	0.227771
Cl481	Cl	0.830979	-0.151748	-0.562126
Cl482	Cl	1.164313	0.181586	-0.228793
Cl483	Cl	1.497646	0.514919	0.104540
Cl484	Cl	0.864490	-0.123065	-0.690056
Cl485	Cl	1.197823	0.210268	-0.356723
Cl486	Cl	1.531157	0.543602	-0.023390
H487	H	0.816329	-0.164508	-1.052406
H488	H	1.149662	0.168825	-0.719073
H489	H	1.482995	0.502158	-0.385740
H490	H	0.849706	-0.135786	-0.801199
H491	H	1.183039	0.197548	-0.467866
H492	H	1.516373	0.530881	-0.134532
H493	H	0.816218	-0.473134	-0.191299
H494	H	1.149551	-0.139801	0.142034
H495	H	1.482885	0.193533	0.475368
Cl496	Cl	0.679874	-0.281303	-0.438970
Cl497	Cl	1.013207	0.052031	-0.105637
Cl498	Cl	1.346541	0.385364	0.227696
Cl499	Cl	0.864518	-0.593474	-0.143031
Cl500	Cl	1.197851	-0.260141	0.190303
Cl501	Cl	1.531185	0.073192	0.523636
Cl502	Cl	0.679976	-0.483497	-0.327424
Cl503	Cl	1.013309	-0.150164	0.005909
Cl504	Cl	1.346642	0.183169	0.339243
Cl505	Cl	0.679905	-0.281309	-0.562223
Cl506	Cl	1.013238	0.052025	-0.228889
Cl507	Cl	1.346571	0.385358	0.104444
