data_functionalizedCrystal
_audit_creation_method	'MofGen! by Chris Wilmer'
_symmetry_space_group_name_H-M	'P1'
_symmetry_Int_Tables_number	1
_symmetry_cell_setting	triclinic
loop_
_symmetry_equiv_pos_as_xyz
  x,y,z
_cell_length_a	18.101395
_cell_length_b	13.032951
_cell_length_c	13.034296
_cell_angle_alpha	105.187268
_cell_angle_beta	82.790450
_cell_angle_gamma	97.166904
loop_
_atom_site_label
_atom_site_type_symbol
_atom_site_fract_x
_atom_site_fract_y
_atom_site_fract_z
Zn1	Zn	-0.375478	-1.700078	-0.806483
Zn2	Zn	-0.042144	-1.366745	-0.473150
Zn3	Zn	0.291189	-1.033412	-0.139817
Zn4	Zn	-0.513277	-1.677345	-0.628847
Zn5	Zn	-0.179944	-1.344012	-0.295514
Zn6	Zn	0.153389	-1.010678	0.037820
Zn7	Zn	-0.375478	-1.499881	-0.606359
Zn8	Zn	-0.042145	-1.166547	-0.273025
Zn9	Zn	0.291189	-0.833214	0.060308
Zn10	Zn	-0.485294	-1.522385	-0.783897
Zn11	Zn	-0.151961	-1.189052	-0.450564
Zn12	Zn	0.181373	-0.855719	-0.117231
O13	O	-0.437382	-1.599922	-0.706397
O14	O	-0.104048	-1.266589	-0.373063
O15	O	0.229285	-0.933256	-0.039730
O16	O	-0.405468	-1.845698	-0.801783
O17	O	-0.072135	-1.512364	-0.468450
O18	O	0.261199	-1.179031	-0.135116
O19	O	-0.506709	-1.634872	-0.477222
O20	O	-0.173376	-1.301539	-0.143888
O21	O	0.159957	-0.968205	0.189445
O22	O	-0.271850	-1.526533	-0.632947
O23	O	0.061483	-1.193200	-0.299613
O24	O	0.394817	-0.859867	0.033720
O25	O	-0.506709	-1.828995	-0.671274
O26	O	-0.173375	-1.495662	-0.337941
O27	O	0.159958	-1.162329	-0.004608
O28	O	-0.271850	-1.673618	-0.779977
O29	O	0.061484	-1.340284	-0.446644
O30	O	0.394817	-1.006951	-0.113311
O31	O	-0.405469	-1.504490	-0.460700
O32	O	-0.072136	-1.171156	-0.127367
O33	O	0.261198	-0.837823	0.205967
O34	O	-0.378335	-1.354231	-0.611046
O35	O	-0.045001	-1.020898	-0.277713
O36	O	0.288332	-0.687565	0.055621
O37	O	-0.459015	-1.564889	-0.935536
O38	O	-0.125682	-1.231555	-0.602202
O39	O	0.207652	-0.898222	-0.268869
O40	O	-0.459016	-1.370765	-0.741483
O41	O	-0.125682	-1.037432	-0.408150
O42	O	0.207651	-0.704099	-0.074816
O43	O	-0.378333	-1.695439	-0.952129
O44	O	-0.045000	-1.362106	-0.618796
O45	O	0.288333	-1.028773	-0.285463
O46	O	-0.613193	-1.656694	-0.649374
O47	O	-0.279860	-1.323360	-0.316040
O48	O	0.053473	-0.990027	0.017293
O49	O	-0.592634	-1.542845	-0.763289
O50	O	-0.259301	-1.209512	-0.429955
O51	O	0.074033	-0.876179	-0.096622
C52	C	-0.415639	-1.323959	-0.671374
C53	C	-0.082306	-0.990626	-0.338041
C54	C	0.251028	-0.657292	-0.004707
C55	C	-0.406353	-1.205904	-0.656416
C56	C	-0.073020	-0.872571	-0.323083
C57	C	0.260313	-0.539237	0.010250
C58	C	-0.442213	-1.161467	-0.714189
C59	C	-0.108879	-0.828134	-0.380855
C60	C	0.224454	-0.494800	-0.047522
C61	C	-0.432616	-1.039451	-0.698731
C62	C	-0.099283	-0.706118	-0.365397
C63	C	0.234050	-0.372785	-0.032064
C64	C	-0.629784	-1.599776	-0.706347
C65	C	-0.296450	-1.266443	-0.373014
C66	C	0.036883	-0.933110	-0.039681
C67	C	-0.712099	-1.599815	-0.706374
C68	C	-0.378765	-1.266482	-0.373041
C69	C	-0.045432	-0.933149	-0.039707
C70	C	-1.011204	-1.600056	-0.706461
C71	C	-0.677870	-1.266723	-0.373128
C72	C	-0.344537	-0.933389	-0.039794
C73	C	-0.966973	-1.528642	-0.778361
C74	C	-0.633639	-1.195308	-0.445028
C75	C	-0.300306	-0.861975	-0.111694
C76	C	-0.881344	-1.528220	-0.778054
C77	C	-0.548011	-1.194887	-0.444721
C78	C	-0.214678	-0.861553	-0.111388
C79	C	-0.862814	-1.599937	-0.706419
C80	C	-0.529481	-1.266603	-0.373085
C81	C	-0.196147	-0.933270	-0.039752
C82	C	-0.900379	-1.555399	-0.590632
C83	C	-0.567046	-1.222066	-0.257299
C84	C	-0.233713	-0.888732	0.076035
C85	C	-0.985944	-1.554934	-0.591057
C86	C	-0.652611	-1.221601	-0.257724
C87	C	-0.319278	-0.888267	0.075609
C88	C	-0.986141	-1.716061	-0.749385
C89	C	-0.652807	-1.382728	-0.416052
C90	C	-0.319474	-1.049395	-0.082718
C91	C	-0.900245	-1.715713	-0.751756
C92	C	-0.566911	-1.382380	-0.418423
C93	C	-0.233578	-1.049046	-0.085090
C94	C	-0.778951	-1.599870	-0.706388
C95	C	-0.445618	-1.266537	-0.373055
C96	C	-0.112285	-0.933204	-0.039722
C97	C	-1.095067	-1.600119	-0.706484
C98	C	-0.761733	-1.266785	-0.373150
C99	C	-0.428400	-0.933452	-0.039817
C100	C	-0.244229	-1.600101	-0.706473
C101	C	0.089104	-1.266768	-0.373140
C102	C	0.422438	-0.933434	-0.039806
C103	C	-0.161919	-1.600177	-0.706506
C104	C	0.171415	-1.266844	-0.373172
C105	C	0.504748	-0.933510	-0.039839
C106	C	-0.415553	-1.635210	-0.983451
C107	C	-0.082219	-1.301877	-0.650118
C108	C	0.251114	-0.968544	-0.316785
C109	C	-0.406251	-1.650248	-1.101516
C110	C	-0.072917	-1.316914	-0.768182
C111	C	0.260416	-0.983581	-0.434849
C112	C	-0.459202	-0.876962	-0.741549
C113	C	-0.125869	-0.543629	-0.408216
C114	C	0.207465	-0.210296	-0.074883
C115	C	-0.468481	-0.995018	-0.756511
C116	C	-0.135147	-0.661685	-0.423178
C117	C	0.198186	-0.328351	-0.089844
C118	C	-0.442023	-1.592358	-1.145942
C119	C	-0.108690	-1.259025	-0.812609
C120	C	0.224644	-0.925692	-0.479275
C121	C	-0.432410	-1.607899	-1.267967
C122	C	-0.099076	-1.274566	-0.934634
C123	C	0.234257	-0.941232	-0.601301
C124	C	-0.459077	-1.564833	-0.430428
C125	C	-0.125744	-1.231500	-0.097094
C126	C	0.207589	-0.898166	0.236239
C127	C	-0.468187	-1.550001	-0.312390
C128	C	-0.134854	-1.216668	0.020943
C129	C	0.198480	-0.883335	0.354277
H130	H	-0.394805	-0.987167	-0.637826
H131	H	-0.061472	-0.653834	-0.304492
H132	H	0.271861	-0.320501	0.028841
H133	H	-0.505936	-1.488934	-1.260092
H134	H	-0.172603	-1.155601	-0.926758
H135	H	0.160731	-0.822267	-0.593425
H136	H	-0.506284	-1.047302	-0.817427
H137	H	-0.172950	-0.713969	-0.484094
H138	H	0.160383	-0.380635	-0.150760
Br139	Br	-0.858513	-1.771266	-0.893902
Br140	Br	-0.525180	-1.437933	-0.560569
Br141	Br	-0.191846	-1.104600	-0.227236
H142	H	-0.368545	-1.153616	-0.595516
H143	H	-0.035212	-0.820283	-0.262182
H144	H	0.298122	-0.486950	0.071151
H145	H	-0.855248	-1.557734	-0.863464
H146	H	-0.521915	-1.224400	-0.530131
H147	H	-0.188581	-0.891067	-0.196797
Br148	Br	-0.992772	-1.577569	-0.921130
Br149	Br	-0.659439	-1.244236	-0.587796
Br150	Br	-0.326106	-0.910903	-0.254463
H151	H	-1.001429	-1.469711	-0.556351
H152	H	-0.668096	-1.136378	-0.223017
H153	H	-0.334763	-0.803044	0.110316
H154	H	-0.889508	-1.605150	-0.534978
H155	H	-0.556175	-1.271817	-0.201644
H156	H	-0.222842	-0.938483	0.131689
H157	H	-0.368510	-1.711318	-1.153820
H158	H	-0.035177	-1.377984	-0.820486
H159	H	0.298157	-1.044651	-0.487153
H160	H	-0.888258	-1.772877	-0.704339
H161	H	-0.554925	-1.439544	-0.371005
H162	H	-0.221591	-1.106211	-0.037672
H163	H	-0.983515	-1.443480	-0.749108
H164	H	-0.650182	-1.110146	-0.415775
H165	H	-0.316849	-0.776813	-0.082442
Br166	Br	-0.857317	-1.414710	-0.532239
Br167	Br	-0.523983	-1.081377	-0.198905
Br168	Br	-0.190650	-0.748044	0.134428
H169	H	-0.855856	-1.442521	-0.748498
H170	H	-0.522523	-1.109188	-0.415165
H171	H	-0.189190	-0.775855	-0.081832
H172	H	-1.016138	-1.603921	-0.534894
H173	H	-0.682805	-1.270588	-0.201561
H174	H	-0.349471	-0.937254	0.131773
Br175	Br	-0.505229	-1.248606	-0.815703
Br176	Br	-0.171895	-0.915273	-0.482369
Br177	Br	0.161438	-0.581940	-0.149036
H178	H	-1.003556	-1.753892	-0.833127
H179	H	-0.670223	-1.420559	-0.499794
H180	H	-0.336890	-1.087226	-0.166460
Br181	Br	-1.035764	-1.805041	-0.662410
Br182	Br	-0.702431	-1.471708	-0.329077
Br183	Br	-0.369097	-1.138375	0.004256
Br184	Br	-0.504937	-1.490577	-1.058777
Br185	Br	-0.171604	-1.157244	-0.725443
Br186	Br	0.161729	-0.823911	-0.392110
H187	H	-0.394666	-1.668973	-1.320268
H188	H	-0.061333	-1.335640	-0.986935
H189	H	0.272000	-1.002307	-0.653601
