data_functionalizedCrystal
_audit_creation_method	'MofGen! by Chris Wilmer'
_symmetry_space_group_name_H-M	'P1'
_symmetry_Int_Tables_number	1
_symmetry_cell_setting	triclinic
loop_
_symmetry_equiv_pos_as_xyz
  x,y,z
_cell_length_a	19.805407
_cell_length_b	19.805405
_cell_length_c	21.395355
_cell_angle_alpha	89.980090
_cell_angle_beta	89.973672
_cell_angle_gamma	90.028350
loop_
_atom_site_label
_atom_site_type_symbol
_atom_site_fract_x
_atom_site_fract_y
_atom_site_fract_z
Zn1	Zn	1.034775	-0.269507	-0.354285
Zn2	Zn	1.368109	0.063827	-0.020952
Zn3	Zn	1.701442	0.397160	0.312382
Zn4	Zn	1.034678	-0.382676	-0.249505
Zn5	Zn	1.368012	-0.049343	0.083828
Zn6	Zn	1.701345	0.283990	0.417162
Zn7	Zn	0.921578	-0.269510	-0.249519
Zn8	Zn	1.254911	0.063823	0.083815
Zn9	Zn	1.588245	0.397156	0.417148
Zn10	Zn	0.921553	-0.382663	-0.354242
Zn11	Zn	1.254887	-0.049329	-0.020909
Zn12	Zn	1.588220	0.284004	0.312425
O13	O	0.978146	-0.326089	-0.301888
O14	O	1.311480	0.007244	0.031446
O15	O	1.644813	0.340578	0.364779
O16	O	1.129479	-0.284523	-0.340398
O17	O	1.462812	0.048811	-0.007065
O18	O	1.796146	0.382144	0.326269
O19	O	1.019645	-0.367672	-0.161829
O20	O	1.352979	-0.034339	0.171504
O21	O	1.686312	0.298995	0.504838
O22	O	0.936645	-0.174793	-0.263440
O23	O	1.269978	0.158540	0.069894
O24	O	1.603312	0.491873	0.403227
O25	O	1.129408	-0.367668	-0.263417
O26	O	1.462741	-0.034335	0.069917
O27	O	1.796074	0.298998	0.403250
O28	O	1.019810	-0.174790	-0.340411
O29	O	1.353144	0.158543	-0.007078
O30	O	1.686477	0.491876	0.326255
O31	O	0.936551	-0.284530	-0.161839
O32	O	1.269884	0.048804	0.171495
O33	O	1.603218	0.382137	0.504828
O34	O	0.826858	-0.284516	-0.263398
O35	O	1.160192	0.048817	0.069935
O36	O	1.493525	0.382150	0.403269
O37	O	0.936603	-0.367645	-0.441926
O38	O	1.269936	-0.034312	-0.108592
O39	O	1.603269	0.299022	0.224741
O40	O	0.826840	-0.367649	-0.340338
O41	O	1.160173	-0.034316	-0.007004
O42	O	1.493507	0.299018	0.326329
O43	O	1.019786	-0.284510	-0.441957
O44	O	1.353120	0.048824	-0.108624
O45	O	1.686453	0.382157	0.224709
O46	O	1.019621	-0.477391	-0.263375
O47	O	1.352954	-0.144058	0.069958
O48	O	1.686288	0.189276	0.403292
O49	O	0.936509	-0.477381	-0.340325
O50	O	1.269842	-0.144048	-0.006991
O51	O	1.603175	0.189286	0.326342
C52	C	0.802290	-0.326082	-0.301865
C53	C	1.135624	0.007251	0.031468
C54	C	1.468957	0.340585	0.364802
C55	C	0.727058	-0.326095	-0.301870
C56	C	1.060392	0.007238	0.031463
C57	C	1.393725	0.340571	0.364796
C58	C	0.265308	-0.282876	-0.342057
C59	C	0.598641	0.050457	-0.008724
C60	C	0.931974	0.383790	0.324609
C61	C	0.335996	-0.282877	-0.342053
C62	C	0.669330	0.050456	-0.008720
C63	C	1.002663	0.383789	0.324614
C64	C	0.371297	-0.326099	-0.301908
C65	C	0.704630	0.007234	0.031425
C66	C	1.037963	0.340567	0.364759
C67	C	0.335905	-0.369328	-0.261769
C68	C	0.669238	-0.035994	0.071564
C69	C	1.002571	0.297339	0.404898
C70	C	0.265218	-0.369329	-0.261777
C71	C	0.598551	-0.035996	0.071556
C72	C	0.931884	0.297337	0.404889
C73	C	0.620978	-0.369322	-0.261736
C74	C	0.954311	-0.035989	0.071597
C75	C	1.287645	0.297344	0.404931
C76	C	0.691670	-0.369316	-0.261730
C77	C	1.025003	-0.035983	0.071604
C78	C	1.358337	0.297351	0.404937
C79	C	0.691757	-0.282871	-0.342012
C80	C	1.025090	0.050463	-0.008678
C81	C	1.358423	0.383796	0.324655
C82	C	0.621069	-0.282872	-0.342020
C83	C	0.954403	0.050461	-0.008686
C84	C	1.287736	0.383794	0.324647
C85	C	0.585684	-0.326103	-0.301884
C86	C	0.919017	0.007231	0.031450
C87	C	1.252351	0.340564	0.364783
C88	C	0.509035	-0.326102	-0.301890
C89	C	0.842369	0.007232	0.031443
C90	C	1.175702	0.340565	0.364777
C91	C	0.447944	-0.326097	-0.301898
C92	C	0.781277	0.007236	0.031435
C93	C	1.114610	0.340569	0.364769
C94	C	0.978070	-0.501945	-0.301857
C95	C	1.311403	-0.168612	0.031476
C96	C	1.644737	0.164722	0.364809
C97	C	0.978099	-0.577177	-0.301865
C98	C	1.311433	-0.243844	0.031468
C99	C	1.644766	0.089490	0.364801
C100	C	1.021418	-0.612504	-0.261840
C101	C	1.354751	-0.279171	0.071494
C102	C	1.688085	0.054163	0.404827
C103	C	1.021447	-0.683192	-0.261853
C104	C	1.354780	-0.349859	0.071480
C105	C	1.688114	-0.016526	0.404813
C106	C	0.978153	-0.718553	-0.301890
C107	C	1.311486	-0.385219	0.031443
C108	C	1.644820	-0.051886	0.364776
C109	C	0.934832	-0.683221	-0.341921
C110	C	1.268166	-0.349887	-0.008587
C111	C	1.601499	-0.016554	0.324746
C112	C	0.934808	-0.612534	-0.341909
C113	C	1.268141	-0.279200	-0.008576
C114	C	1.601474	0.054133	0.324757
C115	C	0.934932	-0.968294	-0.341967
C116	C	1.268266	-0.634961	-0.008634
C117	C	1.601599	-0.301627	0.324700
C118	C	0.934959	-1.038986	-0.341974
C119	C	1.268292	-0.705653	-0.008640
C120	C	1.601626	-0.372319	0.324693
C121	C	1.021572	-1.038953	-0.261911
C122	C	1.354905	-0.705619	0.071422
C123	C	1.688238	-0.372286	0.404756
C124	C	1.021547	-0.968266	-0.261900
C125	C	1.354880	-0.634932	0.071434
C126	C	1.688213	-0.301599	0.404767
C127	C	0.978229	-0.932940	-0.301932
C128	C	1.311562	-0.599607	0.031401
C129	C	1.644896	-0.266273	0.364735
C130	C	0.978199	-0.856292	-0.301917
C131	C	1.311533	-0.522958	0.031416
C132	C	1.644866	-0.189625	0.364749
C133	C	0.978179	-0.795200	-0.301902
C134	C	1.311512	-0.461866	0.031431
C135	C	1.644846	-0.128533	0.364764
C136	C	1.154689	-0.326097	-0.301911
C137	C	1.488022	0.007237	0.031423
C138	C	1.821356	0.340570	0.364756
C139	C	1.229921	-0.326100	-0.301921
C140	C	1.563254	0.007234	0.031413
C141	C	1.896588	0.340567	0.364746
C142	C	0.978202	-0.326075	-0.465311
C143	C	1.311536	0.007258	-0.131978
C144	C	1.644869	0.340591	0.201356
C145	C	0.978226	-0.326069	-0.534952
C146	C	1.311560	0.007264	-0.201619
C147	C	1.644893	0.340597	0.131714
C148	C	0.978241	-0.149546	-0.301932
C149	C	1.311574	0.183787	0.031402
C150	C	1.644908	0.517120	0.364735
C151	C	0.978282	-0.074314	-0.301951
C152	C	1.311615	0.259019	0.031383
C153	C	1.644948	0.592352	0.364716
C154	C	1.021538	-0.282779	-0.567683
C155	C	1.354872	0.050554	-0.234350
C156	C	1.688205	0.383888	0.098984
C157	C	1.021537	-0.282750	-0.633118
C158	C	1.354871	0.050583	-0.299785
C159	C	1.688204	0.383917	0.033548
C160	C	0.978232	-0.326023	-0.665821
C161	C	1.311565	0.007310	-0.332487
C162	C	1.644898	0.340643	0.000846
C163	C	0.934911	-0.369317	-0.633082
C164	C	1.268245	-0.035983	-0.299749
C165	C	1.601578	0.297350	0.033585
C166	C	0.934909	-0.369340	-0.567648
C167	C	1.268242	-0.036007	-0.234315
C168	C	1.601575	0.297327	0.099019
C169	C	0.972861	-0.386968	-0.769485
C170	C	1.306194	-0.053635	-0.436151
C171	C	1.639528	0.279699	-0.102818
C172	C	0.972868	-0.386946	-0.834918
C173	C	1.306202	-0.053613	-0.501584
C174	C	1.639535	0.279721	-0.168251
C175	C	0.978236	-0.325952	-0.867642
C176	C	1.311569	0.007381	-0.534308
C177	C	1.644903	0.340715	-0.200975
C178	C	0.983610	-0.264978	-0.834924
C179	C	1.316944	0.068355	-0.501591
C180	C	1.650277	0.401689	-0.168258
C181	C	0.983608	-0.265001	-0.769490
C182	C	1.316941	0.068332	-0.436157
C183	C	1.650274	0.401666	-0.102823
C184	C	0.978229	-0.326003	-0.736773
C185	C	1.311563	0.007330	-0.403440
C186	C	1.644896	0.340664	-0.070106
C187	C	1.021549	-0.282626	-0.971325
C188	C	1.354882	0.050707	-0.637991
C189	C	1.688216	0.384040	-0.304658
C190	C	1.021543	-0.282596	-1.036761
C191	C	1.354877	0.050737	-0.703428
C192	C	1.688210	0.384071	-0.370095
C193	C	0.934921	-0.369169	-1.036724
C194	C	1.268254	-0.035836	-0.703391
C195	C	1.601588	0.297498	-0.370057
C196	C	0.934923	-0.369193	-0.971289
C197	C	1.268256	-0.035860	-0.637955
C198	C	1.601590	0.297474	-0.304622
C199	C	0.978241	-0.325923	-0.938593
C200	C	1.311574	0.007411	-0.605260
C201	C	1.644907	0.340744	-0.271926
C202	C	0.978129	-0.326054	-0.139100
C203	C	1.311463	0.007279	0.194233
C204	C	1.644796	0.340613	0.527567
C205	C	0.978236	-0.325869	-0.069459
C206	C	1.311570	0.007464	0.263874
C207	C	1.644903	0.340798	0.597208
H208	H	0.236571	-0.247676	-0.374745
H209	H	0.569905	0.085658	-0.041411
H210	H	0.903238	0.418991	0.291922
H211	H	1.056810	-0.247544	-0.541066
H212	H	1.390143	0.085789	-0.207733
H213	H	1.723477	0.419123	0.125601
C214	C	0.887290	-0.416773	-1.072688
C215	C	1.220623	-0.083440	-0.739355
C216	C	1.553957	0.249893	-0.406022
H217	H	0.893498	-0.410564	-1.116347
H218	H	1.226831	-0.077231	-0.783014
H219	H	1.560164	0.256103	-0.449680
H220	H	0.841816	-0.406876	-1.061948
H221	H	1.175150	-0.073542	-0.728615
H222	H	1.508483	0.259791	-0.395282
H223	H	0.897181	-0.462256	-1.061966
H224	H	1.230514	-0.128922	-0.728633
H225	H	1.563847	0.204411	-0.395300
H226	H	0.364805	-0.247683	-0.374739
H227	H	0.698138	0.085651	-0.041405
H228	H	1.031472	0.418984	0.291928
C229	C	0.582063	-0.416866	-0.217581
C230	C	0.915396	-0.083532	0.115752
C231	C	1.248729	0.249801	0.449086
H232	H	0.613212	-0.442599	-0.193666
H233	H	0.946545	-0.109265	0.139667
H234	H	1.279879	0.224068	0.473000
H235	H	0.554488	-0.446399	-0.241497
H236	H	0.887821	-0.113066	0.091837
H237	H	1.221154	0.220268	0.425170
H238	H	0.554485	-0.390925	-0.190326
H239	H	0.887818	-0.057592	0.143007
H240	H	1.221151	0.275741	0.476341
H241	H	0.987982	-0.215354	-0.742854
H242	H	1.321315	0.117980	-0.409521
H243	H	1.654649	0.451313	-0.076188
C244	C	0.730503	-0.416864	-0.217573
C245	C	1.063836	-0.083531	0.115761
C246	C	1.397169	0.249802	0.449094
H247	H	0.777669	-0.410665	-0.223313
H248	H	1.111002	-0.077332	0.110020
H249	H	1.444336	0.256002	0.443354
H250	H	0.718906	-0.462357	-0.226670
H251	H	1.052240	-0.129023	0.106664
H252	H	1.385573	0.204310	0.439997
H253	H	0.718897	-0.406893	-0.175490
H254	H	1.052230	-0.073560	0.157844
H255	H	1.385563	0.259774	0.491177
H256	H	1.056817	-0.247389	-0.944702
H257	H	1.390150	0.085944	-0.611369
H258	H	1.723484	0.419278	-0.278036
C259	C	0.374733	-0.416869	-0.217609
C260	C	0.708066	-0.083536	0.115724
C261	C	1.041400	0.249797	0.449057
H262	H	0.421900	-0.410673	-0.223347
H263	H	0.755234	-0.077340	0.109986
H264	H	1.088567	0.255993	0.443319
H265	H	0.363135	-0.462362	-0.226702
H266	H	0.696468	-0.129029	0.106632
H267	H	1.029802	0.204305	0.439965
H268	H	0.363125	-0.406891	-0.175528
H269	H	0.696458	-0.073558	0.157805
H270	H	1.029791	0.259775	0.491138
H271	H	0.968496	-0.436595	-0.861551
H272	H	1.301829	-0.103261	-0.528218
H273	H	1.635163	0.230072	-0.194884
C274	C	0.226292	-0.416874	-0.217625
C275	C	0.559625	-0.083540	0.115708
C276	C	0.892959	0.249793	0.449041
H277	H	0.257438	-0.442611	-0.193711
H278	H	0.590772	-0.109278	0.139622
H279	H	0.924105	0.224056	0.472956
H280	H	0.198718	-0.446403	-0.241547
H281	H	0.532052	-0.113069	0.091786
H282	H	0.865385	0.220264	0.425120
H283	H	0.198712	-0.390936	-0.190370
H284	H	0.532046	-0.057603	0.142963
H285	H	0.865379	0.275731	0.476297
C286	C	0.887285	-0.416818	-0.935283
C287	C	1.220618	-0.083485	-0.601950
C288	C	1.553951	0.249848	-0.268616
H289	H	0.861496	-0.442590	-0.964129
H290	H	1.194829	-0.109257	-0.630796
H291	H	1.528162	0.224076	-0.297463
H292	H	0.857807	-0.390935	-0.909745
H293	H	1.191141	-0.057601	-0.576412
H294	H	1.524474	0.275732	-0.243079
H295	H	0.913164	-0.446323	-0.909768
H296	H	1.246497	-0.112989	-0.576435
H297	H	1.579830	0.220344	-0.243101
C298	C	1.069043	-0.573614	-0.217799
C299	C	1.402376	-0.240280	0.115534
C300	C	1.735710	0.093053	0.448868
H301	H	1.094851	-0.604780	-0.193968
H302	H	1.428184	-0.271447	0.139365
H303	H	1.761517	0.061887	0.472699
H304	H	1.043159	-0.546075	-0.190471
H305	H	1.376493	-0.212741	0.142862
H306	H	1.709826	0.120592	0.476195
H307	H	1.098514	-0.546002	-0.241793
H308	H	1.431848	-0.212669	0.091540
H309	H	1.765181	0.120664	0.424873
H310	H	1.056721	-0.711952	-0.229260
H311	H	1.390054	-0.378619	0.104073
H312	H	1.723387	-0.045286	0.437407
H313	H	0.899660	-0.939537	-0.374561
H314	H	1.232994	-0.606204	-0.041228
H315	H	1.566327	-0.272871	0.292105
H316	H	1.056812	-0.247340	-1.063410
H317	H	1.390145	0.085994	-0.730076
H318	H	1.723479	0.419327	-0.396743
H319	H	0.968309	-0.436624	-0.742846
H320	H	1.301642	-0.103291	-0.409513
H321	H	1.634975	0.230043	-0.076180
H322	H	0.899650	-0.404548	-0.659713
H323	H	1.232983	-0.071215	-0.326379
H324	H	1.566316	0.262118	0.006954
C325	C	0.887273	-0.416971	-0.531643
C326	C	1.220607	-0.083638	-0.198309
C327	C	1.553940	0.249696	0.135024
H328	H	0.861484	-0.442744	-0.560488
H329	H	1.194818	-0.109411	-0.227155
H330	H	1.528151	0.223923	0.106178
H331	H	0.857795	-0.391094	-0.506100
H332	H	1.191129	-0.057761	-0.172766
H333	H	1.524462	0.275573	0.160567
H334	H	0.913160	-0.446474	-0.506133
H335	H	1.246493	-0.113141	-0.172800
H336	H	1.579826	0.220193	0.160534
H337	H	1.056798	-0.939477	-0.229296
H338	H	1.390131	-0.606144	0.104037
H339	H	1.723465	-0.272811	0.437371
H340	H	1.056846	-1.067723	-0.229317
H341	H	1.390179	-0.734390	0.104016
H342	H	1.723512	-0.401057	0.437350
H343	H	0.899705	-1.067774	-0.374581
H344	H	1.233038	-0.734441	-0.041248
H345	H	1.566371	-0.401108	0.292085
C346	C	0.887211	-0.722112	-0.385964
C347	C	1.220544	-0.388779	-0.052630
C348	C	1.553878	-0.055445	0.280703
H349	H	0.861413	-0.690947	-0.409805
H350	H	1.194747	-0.357613	-0.076471
H351	H	1.528080	-0.024280	0.256862
H352	H	0.857741	-0.749726	-0.361977
H353	H	1.191075	-0.416393	-0.028643
H354	H	1.524408	-0.083059	0.304690
H355	H	0.913104	-0.749649	-0.413292
H356	H	1.246437	-0.416315	-0.079958
H357	H	1.579770	-0.082982	0.253375
C358	C	0.582243	-0.235331	-0.386181
C359	C	0.915576	0.098003	-0.052848
C360	C	1.248909	0.431336	0.280485
H361	H	0.613443	-0.209593	-0.410090
H362	H	0.946776	0.123741	-0.076757
H363	H	1.280109	0.457074	0.256577
H364	H	0.554664	-0.205802	-0.362269
H365	H	0.887997	0.127531	-0.028936
H366	H	1.221331	0.460864	0.304397
H367	H	0.554675	-0.261274	-0.413441
H368	H	0.888009	0.072059	-0.080108
H369	H	1.221342	0.405392	0.253225
C370	C	0.989514	-0.197879	-0.870908
C371	C	1.322848	0.135454	-0.537575
C372	C	1.656181	0.468788	-0.204242
H373	H	0.992719	-0.161572	-0.842052
H374	H	1.326052	0.171762	-0.508719
H375	H	1.659386	0.505095	-0.175386
H376	H	0.950727	-0.191917	-0.896418
H377	H	1.284061	0.141417	-0.563084
H378	H	1.617394	0.474750	-0.229751
H379	H	1.028753	-0.198751	-0.896451
H380	H	1.362086	0.134582	-0.563117
H381	H	1.695419	0.467915	-0.229784
C382	C	0.887158	-0.573674	-0.385939
C383	C	1.220492	-0.240341	-0.052605
C384	C	1.553825	0.092993	0.280728
H385	H	0.861374	-0.604856	-0.409782
H386	H	1.194707	-0.271523	-0.076449
H387	H	1.528041	0.061811	0.256885
H388	H	0.913029	-0.546063	-0.413255
H389	H	1.246362	-0.212730	-0.079922
H390	H	1.579695	0.120603	0.253411
H391	H	0.857666	-0.546136	-0.361940
H392	H	1.191000	-0.212803	-0.028607
H393	H	1.524333	0.120530	0.304727
H394	H	1.056806	-0.247494	-0.659773
H395	H	1.390139	0.085839	-0.326439
H396	H	1.723472	0.419173	0.006894
C397	C	0.730683	-0.235325	-0.386168
C398	C	1.064016	0.098009	-0.052835
C399	C	1.397349	0.431342	0.280498
H400	H	0.777837	-0.241517	-0.380421
H401	H	1.111170	0.091816	-0.047088
H402	H	1.444504	0.425150	0.286245
H403	H	0.719115	-0.189833	-0.377077
H404	H	1.052448	0.143500	-0.043743
H405	H	1.385781	0.476833	0.289590
H406	H	0.719116	-0.245302	-0.428252
H407	H	1.052449	0.088031	-0.094918
H408	H	1.385783	0.421365	0.238415
