data_functionalizedCrystal
_audit_creation_method	'MofGen! by Chris Wilmer'
_symmetry_space_group_name_H-M	'P1'
_symmetry_Int_Tables_number	1
_symmetry_cell_setting	triclinic
loop_
_symmetry_equiv_pos_as_xyz
  x,y,z
_cell_length_a	11.169416
_cell_length_b	21.395362
_cell_length_c	21.395355
_cell_angle_alpha	90.043940
_cell_angle_beta	90.010927
_cell_angle_gamma	90.026221
loop_
_atom_site_label
_atom_site_type_symbol
_atom_site_fract_x
_atom_site_fract_y
_atom_site_fract_z
Zn1	Zn	-0.477437	0.957948	0.354619
Zn2	Zn	-0.678108	0.957888	0.249855
Zn3	Zn	-0.477493	0.853163	0.249820
Zn4	Zn	-0.678133	0.853169	0.354560
O5	O	-0.577793	0.905542	0.302213
O6	O	-0.504023	1.045618	0.340761
O7	O	-0.651509	0.943968	0.162172
O8	O	-0.309536	0.867086	0.263732
O9	O	-0.651455	1.045574	0.263792
O10	O	-0.309495	0.944071	0.340727
O11	O	-0.504118	0.867027	0.162147
O12	O	-0.504142	0.765486	0.263675
O13	O	-0.651497	0.867096	0.442246
O14	O	-0.651551	0.765491	0.340627
O15	O	-0.504047	0.944077	0.442289
O16	O	-0.846061	0.943974	0.263734
O17	O	-0.846079	0.867038	0.340661
C18	C	-0.577856	0.742754	0.302141
C19	C	-0.577912	0.673113	0.302124
C20	C	-0.889618	0.905517	0.302209
C21	C	-1.023018	0.905564	0.302228
C22	C	-0.654770	0.640419	0.342133
C23	C	-0.654741	0.574984	0.342161
C24	C	-0.577866	0.542245	0.302169
C25	C	-0.500994	0.574947	0.262157
C26	C	-0.501017	0.640381	0.262135
C27	C	-0.568198	0.438518	0.245763
C28	C	-0.568183	0.373085	0.245784
C29	C	-0.577788	0.340424	0.302238
C30	C	-0.587433	0.373204	0.358673
C31	C	-0.587456	0.438638	0.358650
C32	C	-0.577832	0.471293	0.302189
C33	C	-0.654618	0.236777	0.342281
C34	C	-0.654580	0.171341	0.342310
C35	C	-0.500839	0.171306	0.262300
C36	C	-0.500871	0.236741	0.262277
C37	C	-0.577766	0.269473	0.302266
C38	C	-0.264751	0.905584	0.302232
C39	C	-0.131351	0.905602	0.302240
C40	C	-0.577769	0.905594	0.465637
C41	C	-0.577758	0.905616	0.535278
C42	C	-0.577730	1.068965	0.302287
C43	C	-0.577703	1.138607	0.302318
C44	C	-0.577731	0.905526	0.139426
C45	C	-0.577403	0.905626	0.069785
C46	C	-0.500978	0.945698	0.568015
C47	C	-0.500926	0.945697	0.633450
C48	C	-0.577676	0.905621	0.666146
C49	C	-0.654462	0.865531	0.633402
C50	C	-0.654503	0.865529	0.567968
C51	C	-0.685744	0.900665	0.769818
C52	C	-0.685705	0.900672	0.835251
C53	C	-0.577550	0.905625	0.867967
C54	C	-0.469429	0.910584	0.835243
C55	C	-0.469470	0.910582	0.769809
C56	C	-0.577640	0.905619	0.737099
C57	C	-0.500707	0.945708	0.971656
C58	C	-0.500653	0.945703	1.037093
C59	C	-0.654200	0.865540	1.037044
C60	C	-0.654243	0.865542	0.971608
C61	C	-0.577498	0.905630	0.938919
H62	H	-0.717383	0.667065	0.374697
H63	H	-0.560371	0.465106	0.199789
N64	N	-0.417913	0.136004	0.219169
H65	H	-0.429557	0.089590	0.225255
H66	H	-0.436469	0.147385	0.174401
H67	H	-0.717327	0.548359	0.374744
H68	H	-0.438427	0.667001	0.229555
N69	N	-0.417813	0.988931	1.072397
H70	H	-0.436444	1.033696	1.061047
H71	H	-0.429451	0.982798	1.118800
H72	H	-0.438396	0.978336	0.660110
H73	H	-0.717026	0.832887	0.541314
H74	H	-0.595306	0.465325	0.404601
H75	H	-0.381435	0.914618	0.743167
N76	N	-0.597885	0.337985	0.419562
H77	H	-0.604032	0.368679	0.455305
H78	H	-0.671847	0.310829	0.418568
H79	H	-0.560337	0.346401	0.199832
N80	N	-0.802407	0.895329	0.734534
H81	H	-0.813652	0.933497	0.707416
H82	H	-0.800755	0.856697	0.707392
H83	H	-0.438485	0.978340	0.541403
H84	H	-0.381359	0.914618	0.861879
N85	N	-0.737225	0.822296	0.668662
H86	H	-0.725547	0.828378	0.715083
H87	H	-0.822949	0.832026	0.657241
H88	H	-0.716679	0.832903	1.063664
H89	H	-0.717225	0.263429	0.374846
N90	N	-0.737485	0.136074	0.385462
H91	H	-0.786202	0.166741	0.410787
H92	H	-0.792933	0.108879	0.359911
N93	N	-0.802318	0.895325	0.870540
H94	H	-0.800694	0.856719	0.897663
H95	H	-0.813482	0.933523	0.897679
H96	H	-0.438291	0.263361	0.229694
H97	H	-0.438400	0.548287	0.229597
N98	N	-0.417934	0.988940	0.936392
H99	H	-0.369277	1.014329	0.967063
H100	H	-0.362423	0.963444	0.909218
N101	N	-0.737054	0.822300	0.936306
H102	H	-0.822799	0.832013	0.947705
H103	H	-0.725339	0.828389	0.889902
