data_functionalizedCrystal
_audit_creation_method	'MofGen! by Chris Wilmer'
_symmetry_space_group_name_H-M	'P1'
_symmetry_Int_Tables_number	1
_symmetry_cell_setting	triclinic
loop_
_symmetry_equiv_pos_as_xyz
  x,y,z
_cell_length_a	19.188905
_cell_length_b	19.188930
_cell_length_c	9.565339
_cell_angle_alpha	89.995116
_cell_angle_beta	89.989339
_cell_angle_gamma	83.139668
loop_
_atom_site_label
_atom_site_type_symbol
_atom_site_fract_x
_atom_site_fract_y
_atom_site_fract_z
O1	O	0.926156	0.087079	-0.116506
O2	O	0.722842	0.098832	-0.116460
O3	O	0.830366	-0.008701	-0.116457
O4	O	0.818631	0.194612	-0.116509
O5	O	0.830357	-0.008694	0.116063
O6	O	0.722833	0.098839	0.116060
O7	O	0.926147	0.087086	0.116014
Zn8	Zn	0.824489	0.092963	0.152955
Zn9	Zn	0.824500	0.092955	-0.153401
O10	O	0.818623	0.194619	0.116011
C11	C	0.696826	0.098458	-0.000194
C12	C	0.619321	0.097324	-0.000175
C13	C	0.582934	0.096776	-0.126926
C14	C	0.510110	0.095703	-0.126943
C15	C	0.473678	0.095164	-0.000202
C16	C	0.510074	0.095716	0.126565
C17	C	0.582895	0.096796	0.126578
N18	N	0.364654	0.053738	0.094129
N19	N	0.295477	0.052710	0.094107
C20	C	0.254272	0.091911	-0.000235
N21	N	0.284857	0.132169	-0.094577
N22	N	0.354041	0.133194	-0.094560
C23	C	0.394716	0.093993	-0.000203
C24	C	0.138921	0.090200	-0.127013
C25	C	0.066095	0.089132	-0.127025
C26	C	0.066061	0.089138	0.126486
C27	C	0.138884	0.090214	0.126495
C28	C	0.175310	0.090742	-0.000259
C29	C	0.829982	-0.034708	-0.000193
C30	C	0.828841	-0.112213	-0.000181
C31	C	0.891933	-0.157142	-0.000188
C32	C	0.890861	-0.229966	-0.000210
C33	C	0.826694	-0.257857	-0.000197
C34	C	0.763594	-0.212917	-0.000197
C35	C	0.764668	-0.140095	-0.000189
N36	N	0.777643	-0.365855	0.078945
N37	N	0.776628	-0.435034	0.078940
C38	C	0.823456	-0.477265	-0.000224
N39	N	0.871348	-0.447706	-0.079367
N40	N	0.872366	-0.378522	-0.079356
C41	C	0.825523	-0.336819	-0.000207
C42	C	0.885390	-0.601159	-0.000258
C43	C	0.884315	-0.673984	-0.000289
C44	C	0.757047	-0.656933	-0.000262
C45	C	0.758123	-0.584110	-0.000245
C46	C	0.822296	-0.556228	-0.000236
C47	C	0.952163	0.087460	-0.000255
C48	C	1.029668	0.088594	-0.000283
C49	C	0.819007	0.220626	-0.000256
C50	C	0.820148	0.298131	-0.000278
N51	N	0.824486	0.092969	0.362034
N52	N	0.824508	0.092943	-0.362480
C53	C	0.774745	0.142683	0.453236
C54	C	0.837798	0.156032	0.546396
C55	C	0.761461	0.079625	0.546429
C56	C	0.887571	0.106350	0.453143
C57	C	0.811192	0.029915	0.453167
C58	C	0.874291	0.043237	0.546286
H59	H	0.168579	0.090638	-0.230223
H60	H	0.168512	0.090656	0.229709
C61	C	0.962525	-0.126476	-0.000191
N62	N	1.015696	-0.103377	-0.000196
H63	H	0.708153	0.068349	0.587409
H64	H	0.732718	0.184762	0.412380
C65	C	0.795953	-0.042083	0.397791
N66	N	0.784467	-0.096312	0.356078
C67	C	0.931192	-0.013571	0.601159
N68	N	0.974053	-0.056354	0.642498
C69	C	0.622998	0.097355	-0.266359
N70	N	0.653176	0.097790	-0.371381
H71	H	0.036469	0.088690	-0.230244
H72	H	0.706747	-0.547527	-0.000231
H73	H	0.940891	0.117689	0.412339
H74	H	0.612521	0.097243	0.229797
H75	H	0.036398	0.088704	0.229681
C76	C	0.960269	-0.279398	-0.000210
N77	N	1.012548	-0.316627	-0.000205
H78	H	0.711349	-0.235631	-0.000189
H79	H	0.937644	-0.578456	-0.000257
C80	C	0.695259	-0.090670	-0.000177
N81	N	0.642979	-0.053442	-0.000165
C82	C	0.470077	0.095095	-0.266383
N83	N	0.439926	0.094635	-0.371410
H84	H	0.480406	0.095279	0.229758
H85	H	0.935694	-0.710565	-0.000303
H86	H	0.704801	-0.679641	-0.000258
H87	H	0.849057	0.209345	0.587346
