data_functionalizedCrystal
_audit_creation_method	'MofGen! by Chris Wilmer'
_symmetry_space_group_name_H-M	'P1'
_symmetry_Int_Tables_number	1
_symmetry_cell_setting	triclinic
loop_
_symmetry_equiv_pos_as_xyz
  x,y,z
_cell_length_a	10.540539
_cell_length_b	8.559649
_cell_length_c	7.088899
_cell_angle_alpha	97.661974
_cell_angle_beta	83.094332
_cell_angle_gamma	102.847922
loop_
_atom_site_label
_atom_site_type_symbol
_atom_site_fract_x
_atom_site_fract_y
_atom_site_fract_z
O1	O	-0.053206	-2.104866	0.158958
O2	O	0.012276	-1.640409	0.158965
O3	O	-0.206281	-1.883234	0.158959
O4	O	0.165351	-1.862041	0.158964
O5	O	-0.185898	-1.912761	-0.159017
O6	O	0.032658	-1.669935	-0.159011
O7	O	-0.032823	-2.134393	-0.159018
Cu8	Cu	0.001778	-1.904860	-0.188048
Cu9	Cu	-0.022326	-1.869941	0.187995
O10	O	0.185733	-1.891567	-0.159012
C11	C	-0.243226	-1.896408	-0.000025
C12	C	-0.383677	-1.891652	-0.000015
C13	C	0.027429	-1.595699	-0.000022
C14	C	0.042200	-1.418487	-0.000019
C15	C	-0.047977	-2.179102	-0.000027
C16	C	-0.062749	-2.356313	-0.000017
C17	C	-0.548074	-1.709383	0.000701
C18	C	-0.401915	-1.714270	-0.000014
C19	C	-0.442633	-1.993877	-0.181596
C20	C	-0.588534	-1.987837	-0.181749
C21	C	-0.612608	-1.957868	0.179849
C22	C	-0.465951	-1.959279	0.182249
C23	C	0.222679	-1.878393	-0.000023
C24	C	0.363129	-1.883148	-0.000021
N25	N	0.018730	-1.929431	-0.452536
N26	N	-0.039289	-1.845382	0.452484
H27	H	-0.360623	-1.635014	0.130150
H28	H	0.078851	-2.016537	-0.534186
H29	H	-0.099399	-1.758255	-0.465857
N30	N	-0.196744	-1.465370	-0.000010
H31	H	-0.188659	-1.580751	-0.000013
H32	H	-0.238049	-1.455028	-0.117888
N33	N	0.176192	-1.309394	-0.000064
H34	H	0.232660	-1.341498	-0.117955
H35	H	0.217487	-1.319615	0.117871
N36	N	-0.567395	-1.632871	-0.170822
H37	H	-0.510002	-1.521293	-0.169270
H38	H	-0.661978	-1.625209	-0.166254
H39	H	-0.649330	-2.116173	-0.189989
N40	N	-0.587291	-1.600533	0.173175
H41	H	-0.663001	-1.662795	0.252519
H42	H	-0.614216	-1.506001	0.129685
H43	H	-0.433484	-2.124768	-0.188350
H44	H	-0.344720	-1.658737	-0.130394
H45	H	-0.427164	-1.884345	0.316578
N46	N	-0.605615	-1.920963	-0.361539
H47	H	-0.549672	-1.808838	-0.364603
H48	H	-0.700399	-1.916482	-0.363335
N49	N	-0.366503	-1.931983	-0.360595
H50	H	-0.293818	-1.837780	-0.324480
H51	H	-0.426833	-1.896050	-0.438429
H52	H	-0.646972	-1.887678	0.317475
H53	H	-0.455972	-2.087585	0.193212
H54	H	-0.673326	-2.085877	0.181068
