data_functionalizedCrystal
_audit_creation_method	'MofGen! by Chris Wilmer'
_symmetry_space_group_name_H-M	'P1'
_symmetry_Int_Tables_number	1
_symmetry_cell_setting	triclinic
loop_
_symmetry_equiv_pos_as_xyz
  x,y,z
_cell_length_a	17.699077
_cell_length_b	14.044190
_cell_length_c	16.176319
_cell_angle_alpha	89.988653
_cell_angle_beta	89.993140
_cell_angle_gamma	88.236177
loop_
_atom_site_label
_atom_site_type_symbol
_atom_site_fract_x
_atom_site_fract_y
_atom_site_fract_z
O1	O	1.012350	0.119823	-0.068745
O2	O	1.345683	0.453157	0.264589
O3	O	1.679016	0.786490	0.597922
O4	O	0.793047	0.135422	-0.068750
O5	O	1.126380	0.468755	0.264583
O6	O	1.459714	0.802089	0.597917
O7	O	0.899404	-0.010354	-0.068731
O8	O	1.232737	0.322979	0.264602
O9	O	1.566071	0.656312	0.597935
O10	O	0.905993	0.265600	-0.068764
O11	O	1.239326	0.598933	0.264570
O12	O	1.572660	0.932266	0.597903
O13	O	0.899387	-0.010364	0.068762
O14	O	1.232721	0.322970	0.402095
O15	O	1.566054	0.656303	0.735429
O16	O	0.793030	0.135413	0.068743
O17	O	1.126364	0.468746	0.402076
O18	O	1.459697	0.802079	0.735410
O19	O	1.012333	0.119814	0.068748
O20	O	1.345666	0.453147	0.402082
O21	O	1.679000	0.786481	0.735415
Cu22	Cu	0.902680	0.127613	0.081300
Cu23	Cu	1.236014	0.460946	0.414633
Cu24	Cu	1.569347	0.794279	0.747967
Cu25	Cu	0.902700	0.127624	-0.081302
Cu26	Cu	1.236033	0.460957	0.252032
Cu27	Cu	1.569367	0.794290	0.585365
O28	O	0.905976	0.265591	0.068730
O29	O	1.239310	0.598924	0.402063
O30	O	1.572643	0.932257	0.735396
C31	C	0.764803	0.134859	-0.000004
C32	C	1.098137	0.468193	0.333329
C33	C	1.431470	0.801526	0.666663
C34	C	0.680669	0.133185	-0.000005
C35	C	1.014003	0.466519	0.333328
C36	C	1.347336	0.799852	0.666661
C37	C	0.641138	0.132392	0.074943
C38	C	0.974472	0.465725	0.408277
C39	C	1.307805	0.799058	0.741610
C40	C	0.562086	0.130804	0.074944
C41	C	0.895420	0.464137	0.408278
C42	C	1.228753	0.797470	0.741611
C43	C	0.522566	0.130016	-0.000004
C44	C	0.855900	0.463350	0.333329
C45	C	1.189233	0.796683	0.666663
C46	C	0.562103	0.130807	-0.074958
C47	C	0.895436	0.464141	0.258375
C48	C	1.228769	0.797474	0.591708
C49	C	0.641154	0.132389	-0.074958
C50	C	0.974487	0.465722	0.258375
C51	C	1.307820	0.799055	0.591708
C52	C	0.243299	0.124430	-0.074959
C53	C	0.576633	0.457763	0.258374
C54	C	0.909966	0.791096	0.591708
C55	C	0.164243	0.122851	-0.074953
C56	C	0.497576	0.456185	0.258380
C57	C	0.830910	0.789518	0.591714
C58	C	0.164232	0.122845	0.074944
C59	C	0.497565	0.456178	0.408277
C60	C	0.830899	0.789511	0.741610
C61	C	0.243283	0.124426	0.074944
C62	C	0.576616	0.457759	0.408277
C63	C	0.909950	0.791093	0.741610
C64	C	0.282813	0.125212	-0.000010
C65	C	0.616146	0.458545	0.333323
C66	C	0.949479	0.791878	0.666656
C67	C	0.368530	0.126932	-0.000010
C68	C	0.701863	0.460265	0.333323
C69	C	1.035197	0.793599	0.666656
C70	C	0.436850	0.128303	-0.000005
C71	C	0.770184	0.461636	0.333329
C72	C	1.103517	0.794970	0.666662
C73	C	0.896513	-0.045667	0.000018
C74	C	1.229846	0.287666	0.333351
C75	C	1.563180	0.621000	0.666684
C76	C	0.887915	-0.150873	0.000025
C77	C	1.221248	0.182461	0.333358
C78	C	1.554582	0.515794	0.666691
C79	C	0.933175	-0.401265	-0.000007
C80	C	1.266509	-0.067931	0.333327
C81	C	1.599842	0.265402	0.666660
C82	C	0.872208	-0.343494	-0.000002
C83	C	1.205541	-0.010160	0.333331
C84	C	1.538875	0.323173	0.666664
C85	C	0.880950	-0.236310	0.000013
C86	C	1.214283	0.097024	0.333346
C87	C	1.547616	0.430357	0.666679
C88	C	0.924435	-0.508459	-0.000022
C89	C	1.257769	-0.175125	0.333312
C90	C	1.591102	0.158208	0.666645
C91	C	1.040577	0.120377	0.000000
C92	C	1.373910	0.453710	0.333334
C93	C	1.707244	0.787043	0.666667
C94	C	1.124711	0.122051	-0.000004
C95	C	1.458044	0.455384	0.333330
C96	C	1.791377	0.788717	0.666663
C97	C	0.908867	0.300903	-0.000021
C98	C	1.242200	0.634236	0.333312
C99	C	1.575534	0.967570	0.666645
C100	C	0.917465	0.406109	-0.000034
C101	C	1.250798	0.739442	0.333300
C102	C	1.584132	1.072776	0.666633
N103	N	0.902672	0.127604	0.195665
N104	N	1.236005	0.460938	0.528999
N105	N	1.569339	0.794271	0.862332
N106	N	0.902714	0.127624	-0.195667
N107	N	1.236047	0.460958	0.137666
N108	N	1.569380	0.794291	0.471000
C109	C	0.949784	0.063081	0.238938
C110	C	1.283117	0.396414	0.572271
C111	C	1.616451	0.729747	0.905604
C112	C	0.949788	0.063080	0.325485
C113	C	1.283121	0.396413	0.658818
C114	C	1.616454	0.729746	0.992151
C115	C	0.902683	0.127608	0.368758
C116	C	1.236016	0.460941	0.702091
C117	C	1.569350	0.794274	1.035424
C118	C	0.855565	0.192134	0.325479
C119	C	1.188899	0.525467	0.658813
C120	C	1.522232	0.858801	0.992146
C121	C	0.855558	0.192130	0.238934
C122	C	1.188892	0.525463	0.572267
C123	C	1.522225	0.858796	0.905600
C124	C	0.855593	0.192152	0.674507
C125	C	1.188926	0.525485	1.007841
C126	C	1.522259	0.858819	1.341174
C127	C	0.855605	0.192153	0.761059
C128	C	1.188938	0.525486	1.094392
C129	C	1.522272	0.858820	1.427726
C130	C	0.949822	0.063102	0.761059
C131	C	1.283155	0.396435	1.094392
C132	C	1.616489	0.729768	1.427725
C133	C	0.949815	0.063098	0.674513
C134	C	1.283148	0.396431	1.007846
C135	C	1.616482	0.729764	1.341180
C136	C	0.902695	0.127620	0.631242
C137	C	1.236028	0.460954	0.964575
C138	C	1.569362	0.794287	1.297909
C139	C	0.902690	0.127619	0.537398
C140	C	1.236024	0.460953	0.870731
C141	C	1.569357	0.794286	1.204065
C142	C	0.902691	0.127614	0.462600
C143	C	1.236024	0.460947	0.795934
C144	C	1.569357	0.794280	1.129267
H145	H	0.132038	0.122200	0.135975
H146	H	0.465371	0.455534	0.469308
H147	H	0.798704	0.788867	0.802641
F148	F	0.520042	0.129940	-0.154724
F149	F	0.853375	0.463274	0.178609
F150	F	1.186708	0.796607	0.511942
H151	H	0.813447	-0.374532	-0.000008
H152	H	1.146781	-0.041199	0.333325
H153	H	1.480114	0.292135	0.666658
F154	F	0.683191	0.133236	0.154715
F155	F	1.016525	0.466569	0.488048
F156	F	1.349858	0.799903	0.821382
F157	F	1.009975	-0.360698	0.000005
F158	F	1.343309	-0.027364	0.333338
F159	F	1.676642	0.305969	0.666672
H160	H	0.275475	0.125067	-0.135991
H161	H	0.608809	0.458400	0.197342
H162	H	0.942142	0.791733	0.530676
F163	F	0.999925	-0.005596	0.192891
F164	F	1.333258	0.327738	0.526225
F165	F	1.666591	0.661071	0.859558
F166	F	0.999929	-0.005594	0.371539
F167	F	1.333262	0.327739	0.704872
F168	F	1.666595	0.661072	1.038206
F169	F	0.999953	-0.005578	0.628462
F170	F	1.333286	0.327756	0.961796
F171	F	1.666619	0.661089	1.295129
H172	H	0.673339	0.133037	-0.135989
H173	H	1.006672	0.466370	0.197344
H174	H	1.340005	0.799703	0.530677
F175	F	0.805413	0.260802	0.192881
F176	F	1.138746	0.594136	0.526214
F177	F	1.472079	0.927469	0.859548
H178	H	0.275456	0.125072	0.135974
H179	H	0.608789	0.458405	0.469308
H180	H	0.942123	0.791738	0.802641
H181	H	0.988187	0.010561	0.796299
H182	H	1.321521	0.343894	1.129632
H183	H	1.654854	0.677227	1.462966
F184	F	0.805466	0.260835	0.807112
F185	F	1.138800	0.594168	1.140445
F186	F	1.472133	0.927502	1.473779
H187	H	0.817227	0.244690	0.639283
H188	H	1.150561	0.578024	0.972616
H189	H	1.483894	0.911357	1.305950
F190	F	0.805428	0.260806	0.371534
F191	F	1.138761	0.594139	0.704868
F192	F	1.472095	0.927473	1.038201
H193	H	0.529904	0.130141	0.135975
H194	H	0.863238	0.463475	0.469308
H195	H	1.196571	0.796808	0.802642
H196	H	0.132068	0.122209	-0.135989
H197	H	0.465401	0.455543	0.197345
H198	H	0.798735	0.788876	0.530678
