data_functionalizedCrystal
_audit_creation_method	'MofGen! by Chris Wilmer'
_symmetry_space_group_name_H-M	'P1'
_symmetry_Int_Tables_number	1
_symmetry_cell_setting	triclinic
loop_
_symmetry_equiv_pos_as_xyz
  x,y,z
_cell_length_a	10.654550
_cell_length_b	16.109301
_cell_length_c	9.730223
_cell_angle_alpha	89.994178
_cell_angle_beta	89.999957
_cell_angle_gamma	83.973206
loop_
_atom_site_label
_atom_site_type_symbol
_atom_site_fract_x
_atom_site_fract_y
_atom_site_fract_z
O1	O	1.666255	0.116774	-0.114192
O2	O	1.300625	0.127899	-0.114218
O3	O	1.493484	0.001365	-0.114190
O4	O	1.473396	0.243308	-0.114220
O5	O	1.493472	0.001362	0.114390
O6	O	1.300613	0.127896	0.114362
O7	O	1.666243	0.116770	0.114388
Zn8	Zn	1.483426	0.122333	0.150667
Zn9	Zn	1.483442	0.122337	-0.150497
O10	O	1.473384	0.243304	0.114360
C11	C	1.253832	0.127081	0.000069
C12	C	1.114422	0.124637	0.000060
C13	C	1.492664	-0.029616	0.000100
C14	C	1.490225	-0.121926	0.000102
C15	C	1.033926	0.199138	0.000054
C16	C	0.902936	0.196836	0.000079
C17	C	0.932952	0.045526	0.000107
C18	C	1.063939	0.047828	0.000093
C19	C	1.598991	-0.343552	0.000088
C20	C	1.596689	-0.430286	0.000076
C21	C	1.367868	-0.411772	0.000066
C22	C	1.370172	-0.325039	0.000067
C23	C	1.485737	-0.290932	0.000085
C24	C	1.481131	-0.464398	0.000072
C25	C	1.478634	-0.558439	0.000060
C26	C	1.488234	-0.196885	0.000095
C27	C	1.713036	0.117589	0.000098
C28	C	1.852446	0.120033	0.000098
C29	C	1.474203	0.274286	0.000067
C30	C	1.476643	0.366596	0.000056
N31	N	1.483424	0.122329	0.356203
N32	N	1.483454	0.122334	-0.356033
C33	C	1.568851	0.066324	0.428141
C34	C	1.568863	0.066324	0.572024
C35	C	1.398018	0.178342	0.572018
C36	C	1.398001	0.178337	0.428138
H37	H	1.075024	0.261680	0.000038
O38	O	0.883701	-0.029010	0.000068
C39	C	0.750827	-0.015069	0.000110
H40	H	0.720036	0.049635	-0.043174
H41	H	0.710625	-0.064260	-0.066241
H42	H	0.714374	-0.019309	0.109775
O43	O	1.706788	-0.481314	-0.000100
C44	C	1.776943	-0.465753	-0.118493
H45	H	1.746081	-0.400145	-0.157958
H46	H	1.881683	-0.471253	-0.091860
H47	H	1.759794	-0.513277	-0.201396
H48	H	1.638424	0.020718	0.630592
O49	O	1.711215	-0.310380	0.000334
C50	C	1.719389	-0.260756	0.118699
H51	H	1.653773	-0.281644	0.201446
H52	H	1.820605	-0.267964	0.158432
H53	H	1.690401	-0.192534	0.091936
H54	H	1.328430	0.223944	0.369562
O55	O	1.142269	-0.024491	-0.000089
C56	C	1.218905	-0.027695	-0.118496
H57	H	1.225490	0.038336	-0.157978
H58	H	1.317371	-0.058091	-0.091874
H59	H	1.175826	-0.065918	-0.201382
O60	O	1.255724	-0.445044	0.000122
C61	C	1.277973	-0.532880	0.000092
H62	H	1.375983	-0.552683	0.043368
H63	H	1.204031	-0.559934	0.066455
H64	H	1.271896	-0.557049	-0.109569
O65	O	1.315097	0.232864	0.641744
C66	C	1.335479	0.315293	0.606581
H67	H	1.383874	0.315484	0.502109
H68	H	1.241063	0.355652	0.601656
H69	H	1.397977	0.341396	0.687543
O70	O	1.260033	-0.274038	0.000127
C71	C	1.157539	-0.322738	0.000088
H72	H	1.189429	-0.387281	0.043366
H73	H	1.078187	-0.291204	0.066444
H74	H	1.122120	-0.329109	-0.109576
O75	O	1.651694	0.011782	0.358355
C76	C	1.631311	-0.070632	0.393612
H77	H	1.530765	-0.071632	0.433158
H78	H	1.645773	-0.112296	0.299029
H79	H	1.700911	-0.094610	0.477155
O80	O	0.824922	0.269285	0.000008
C81	C	0.897574	0.337567	0.000013
H82	H	0.995340	0.317026	-0.043272
H83	H	0.849226	0.389812	-0.066357
H84	H	0.906905	0.361076	0.109666
