data_functionalizedCrystal
_audit_creation_method	'MofGen! by Chris Wilmer'
_symmetry_space_group_name_H-M	'P1'
_symmetry_Int_Tables_number	1
_symmetry_cell_setting	triclinic
loop_
_symmetry_equiv_pos_as_xyz
  x,y,z
_cell_length_a	19.188929
_cell_length_b	19.188930
_cell_length_c	9.130307
_cell_angle_alpha	89.984606
_cell_angle_beta	90.025066
_cell_angle_gamma	96.855224
loop_
_atom_site_label
_atom_site_type_symbol
_atom_site_fract_x
_atom_site_fract_y
_atom_site_fract_z
O1	O	-0.087166	0.926142	-0.122340
O2	O	0.412834	1.426142	0.377660
O3	O	-0.098901	0.722831	-0.122249
O4	O	0.401099	1.222831	0.377751
O5	O	0.008622	0.830353	-0.122206
O6	O	0.508622	1.330353	0.377794
O7	O	-0.194689	0.818619	-0.122382
O8	O	0.305311	1.318619	0.377618
O9	O	0.008623	0.830350	0.121393
O10	O	0.508623	1.330350	0.621393
O11	O	-0.098900	0.722827	0.121350
O12	O	0.401100	1.222827	0.621350
O13	O	-0.087165	0.926138	0.121259
O14	O	0.412835	1.426138	0.621259
Cu15	Cu	-0.093033	0.824482	0.143547
Cu16	Cu	0.406967	1.324482	0.643547
Cu17	Cu	-0.093034	0.824487	-0.144537
Cu18	Cu	0.406966	1.324487	0.355463
O19	O	-0.194688	0.818616	0.121217
O20	O	0.305312	1.318616	0.621217
C21	C	-0.098520	0.696818	-0.000436
C22	C	0.401480	1.196818	0.499564
C23	C	-0.097380	0.619313	-0.000397
C24	C	0.402620	1.119313	0.499603
C25	C	-0.160470	0.574389	-0.000474
C26	C	0.339530	1.074389	0.499526
C27	C	-0.159399	0.501566	-0.000489
C28	C	0.340601	1.001566	0.499511
C29	C	-0.095233	0.473669	-0.000456
C30	C	0.404767	0.973669	0.499544
C31	C	-0.032133	0.518603	-0.000371
C32	C	0.467867	1.018603	0.499629
C33	C	-0.033207	0.591425	-0.000341
C34	C	0.466793	1.091425	0.499659
N35	N	-0.046186	0.365690	-0.083380
N36	N	0.453814	0.865690	0.416620
N37	N	-0.045171	0.296511	-0.083412
N38	N	0.454829	0.796511	0.416588
C39	C	-0.091994	0.254260	-0.000543
C40	C	0.408006	0.754260	0.499457
N41	N	-0.139883	0.283800	0.082340
N42	N	0.360117	0.783800	0.582340
N43	N	-0.140900	0.352985	0.082365
N44	N	0.359100	0.852985	0.582365
C45	C	-0.094062	0.394707	-0.000488
C46	C	0.405938	0.894707	0.499512
C47	C	-0.153928	0.130372	-0.000635
C48	C	0.346072	0.630372	0.499365
C49	C	-0.152853	0.057547	-0.000641
C50	C	0.347147	0.557547	0.499359
C51	C	-0.025586	0.074586	-0.000537
C52	C	0.474414	0.574586	0.499463
C53	C	-0.026662	0.147409	-0.000516
C54	C	0.473338	0.647409	0.499484
C55	C	-0.090835	0.175298	-0.000572
C56	C	0.409165	0.675298	0.499428
C57	C	-0.220700	0.818997	-0.000606
C58	C	0.279300	1.318997	0.499394
C59	C	-0.298204	0.820138	-0.000676
C60	C	0.201796	1.320138	0.499324
C61	C	-0.343128	0.757047	-0.000619
C62	C	0.156872	1.257047	0.499381
C63	C	-0.415952	0.758119	-0.000586
C64	C	0.084048	1.258119	0.499414
C65	C	-0.443849	0.822285	-0.000582
C66	C	0.056151	1.322285	0.499418
C67	C	-0.398915	0.885384	-0.000648
C68	C	0.101085	1.385384	0.499352
C69	C	-0.326093	0.884311	-0.000695
C70	C	0.173907	1.384311	0.499305
N71	N	-0.551817	0.871331	0.082391
N72	N	-0.051817	1.371331	0.582391
N73	N	-0.620995	0.872346	0.082439
N74	N	-0.120995	1.372346	0.582439
C75	C	-0.663257	0.825523	-0.000442
C76	C	-0.163257	1.325523	0.499558
N77	N	-0.633729	0.777636	-0.083355
N78	N	-0.133729	1.277636	0.416645
N79	N	-0.564544	0.776618	-0.083397
N80	N	-0.064544	1.276618	0.416603
C81	C	-0.522811	0.823456	-0.000531
C82	C	-0.022811	1.323456	0.499469
C83	C	-0.787146	0.763590	-0.000351
C84	C	-0.287146	1.263590	0.499649
C85	C	-0.859970	0.764664	-0.000328
C86	C	-0.359970	1.264664	0.499672
C87	C	-0.842932	0.891931	-0.000375
C88	C	-0.342932	1.391931	0.499625
C89	C	-0.770108	0.890855	-0.000413
C90	C	-0.270108	1.390855	0.499587
C91	C	-0.742220	0.826683	-0.000394
C92	C	-0.242220	1.326683	0.499606
C93	C	0.034634	0.829972	-0.000387
C94	C	0.534634	1.329972	0.499613
C95	C	0.112138	0.828831	-0.000326
C96	C	0.612138	1.328831	0.499674
C97	C	-0.087546	0.952151	-0.000557
C98	C	0.412454	1.452151	0.499443
C99	C	-0.088687	1.029656	-0.000606
C100	C	0.411313	1.529656	0.499394
N101	N	-0.093031	0.824485	0.346170
N102	N	0.406969	1.324485	0.846170
N103	N	-0.093029	0.824490	-0.347160
N104	N	0.406971	1.324490	0.152840
C105	C	0.002153	0.919735	0.346198
C106	C	0.502153	1.419735	0.846198
C107	C	0.049743	0.967364	0.422878
C108	C	0.549743	1.467364	0.922878
C109	C	0.049744	0.967371	0.576211
C110	C	0.549744	1.467371	1.076211
C111	C	0.002150	0.919742	0.652868
C112	C	0.502150	1.419742	1.152868
C113	C	-0.045440	0.872112	0.576187
C114	C	0.454560	1.372112	1.076187
C115	C	-0.045437	0.872112	0.422850
C116	C	0.454563	1.372112	0.922850
C117	C	-0.140620	0.776860	0.576160
C118	C	0.359380	1.276860	1.076160
C119	C	-0.140625	0.776856	0.422826
C120	C	0.359375	1.276856	0.922826
C121	C	-0.188213	0.729231	0.652816
C122	C	0.311787	1.229231	1.152816
C123	C	-0.235808	0.681604	0.576136
C124	C	0.264192	1.181604	1.076136
C125	C	-0.235807	0.681600	0.422793
C126	C	0.264193	1.181600	0.922793
C127	C	-0.188215	0.729226	0.346146
C128	C	0.311785	1.229226	0.846146
H129	H	-0.212725	0.597091	-0.000523
H130	H	0.287275	1.097091	0.499477
H131	H	-0.274558	0.642811	0.360368
H132	H	0.225442	1.142811	0.860368
H133	H	0.002152	0.919739	0.221345
H134	H	0.502152	1.419739	0.721345
H135	H	-0.289515	0.935689	-0.000744
H136	H	0.210485	1.435689	0.499256
H137	H	-0.452536	0.706741	-0.000536
H138	H	0.047464	1.206741	0.499464
H139	H	-0.274552	0.642825	0.638559
H140	H	0.225448	1.142825	1.138559
H141	H	-0.764438	0.711337	-0.000328
H142	H	-0.264438	1.211337	0.499672
H143	H	0.088495	1.006142	0.360451
H144	H	0.588495	1.506142	0.860451
H145	H	0.024713	0.183988	-0.000461
H146	H	0.524713	0.683988	0.499539
H147	H	-0.320427	0.704793	-0.000616
H148	H	0.179573	1.204793	0.499384
H149	H	-0.188212	0.729229	0.221294
H150	H	0.311788	1.229229	0.721294
H151	H	-0.210776	0.464982	-0.000548
H152	H	0.289224	0.964982	0.499452
H153	H	-0.896548	0.713286	-0.000291
H154	H	-0.396548	1.213286	0.499709
H155	H	-0.421633	0.937629	-0.000671
H156	H	0.078367	1.437629	0.499329
H157	H	-0.865644	0.944177	-0.000478
H158	H	-0.365644	1.444177	0.499522
H159	H	-0.733530	0.942231	-0.000451
H160	H	-0.233530	1.442231	0.499549
H161	H	0.088498	1.006153	0.638645
H162	H	0.588498	1.506153	1.138645
H163	H	0.020111	0.495885	-0.000364
H164	H	0.520111	0.995885	0.499636
H165	H	0.002159	0.919745	0.777720
H166	H	0.502159	1.419745	1.277720
H167	H	0.026659	0.051874	-0.000601
H168	H	0.526659	0.551874	0.499399
H169	H	-0.204232	0.020970	-0.000696
H170	H	0.295768	0.520970	0.499304
H171	H	-0.206181	0.153080	-0.000659
H172	H	0.293819	0.653080	0.499341
H173	H	0.018171	0.628003	-0.000278
H174	H	0.518171	1.128003	0.499722
H175	H	-0.188208	0.729236	0.777669
H176	H	0.311792	1.229236	1.277669
