data_functionalizedCrystal
_audit_creation_method	'MofGen! by Chris Wilmer'
_symmetry_space_group_name_H-M	'P1'
_symmetry_Int_Tables_number	1
_symmetry_cell_setting	triclinic
loop_
_symmetry_equiv_pos_as_xyz
  x,y,z
_cell_length_a	29.839135
_cell_length_b	15.296598
_cell_length_c	15.298431
_cell_angle_alpha	69.176180
_cell_angle_beta	80.345887
_cell_angle_gamma	80.294708
loop_
_atom_site_label
_atom_site_type_symbol
_atom_site_fract_x
_atom_site_fract_y
_atom_site_fract_z
Zn1	Zn	0.622952	0.279225	0.461805
Zn2	Zn	1.122952	0.779225	0.961805
Zn3	Zn	0.622878	0.461738	0.279332
Zn4	Zn	1.122878	0.961738	0.779332
Zn5	Zn	0.558896	0.306195	0.306282
Zn6	Zn	1.058896	0.806195	0.806282
Zn7	Zn	0.536719	0.434767	0.434805
Zn8	Zn	1.036719	0.934767	0.934805
O9	O	0.585361	0.370481	0.370556
O10	O	1.085361	0.870481	0.870556
O11	O	0.685807	0.303436	0.437620
O12	O	1.185807	0.803436	0.937620
O13	O	0.623641	0.463680	0.152754
O14	O	1.123641	0.963680	0.652754
O15	O	0.576705	0.172428	0.349490
O16	O	1.076705	0.672428	0.849490
O17	O	0.685753	0.437528	0.303558
O18	O	1.185753	0.937528	0.803558
O19	O	0.623767	0.152612	0.463752
O20	O	1.123767	0.652612	0.963752
O21	O	0.576633	0.349404	0.172554
O22	O	1.076633	0.849404	0.672554
O23	O	0.493089	0.323250	0.323310
O24	O	0.993089	0.823250	0.823310
O25	O	0.538908	0.391558	0.568540
O26	O	1.038908	0.891558	1.068540
O27	O	0.476796	0.417711	0.417735
O28	O	0.976796	0.917711	0.917735
O29	O	0.602263	0.277282	0.588376
O30	O	1.102263	0.777282	1.088376
O31	O	0.602137	0.588351	0.277378
O32	O	1.102137	1.088351	0.777378
O33	O	0.538837	0.568534	0.391603
O34	O	1.038837	1.068534	0.891603
C35	C	0.468642	0.370481	0.370517
C36	C	0.968642	0.870481	0.870517
C37	C	0.418706	0.370499	0.370519
C38	C	0.918706	0.870499	0.870519
C39	C	0.109074	0.300734	0.440434
C40	C	0.609074	0.800734	0.940434
C41	C	-0.078602	0.300736	0.440459
C42	C	0.421398	0.800736	0.940459
O43	O	-0.102853	0.241406	0.499863
O44	O	0.397147	0.741406	0.999863
N45	N	-0.102083	0.370476	0.370590
N46	N	0.397917	0.870476	0.870590
C47	C	-0.078642	0.440217	0.300705
C48	C	0.421358	0.940217	0.800705
O49	O	-0.102920	0.499530	0.241272
O50	O	0.397080	0.999530	0.741272
C51	C	0.109033	0.440211	0.300677
C52	C	0.609033	0.940211	0.800677
C53	C	0.132511	0.370472	0.370557
C54	C	0.632511	0.870472	0.870557
C55	C	0.132552	0.231001	0.510307
C56	C	0.632552	0.731001	1.010307
C57	C	0.179467	0.231004	0.510303
C58	C	0.679467	0.731004	1.010303
C59	C	0.202905	0.300741	0.440426
C60	C	0.702905	0.800741	0.940426
C61	C	0.179426	0.370475	0.370553
C62	C	0.679426	0.870475	0.870553
C63	C	0.132474	0.509947	0.230790
C64	C	0.632474	1.009947	0.730790
C65	C	0.179396	0.509938	0.230787
C66	C	0.679396	1.009938	0.730787
C67	C	0.202874	0.440199	0.300667
C68	C	0.702874	0.940199	0.800667
C69	C	0.249779	0.440215	0.300671
C70	C	0.749779	0.940215	0.800671
N71	N	0.273261	0.370475	0.370541
N72	N	0.773261	0.870475	0.870541
C73	C	0.249823	0.300738	0.440418
C74	C	0.749823	0.800738	0.940418
C75	C	-0.177175	0.440217	0.300726
C76	C	0.322825	0.940217	0.800726
C77	C	-0.224094	0.440220	0.300734
C78	C	0.275906	0.940220	0.800734
C79	C	-0.224050	0.300737	0.440487
C80	C	0.275950	0.800737	0.940487
C81	C	-0.177131	0.300739	0.440483
C82	C	0.322869	0.800739	0.940483
C83	C	-0.153693	0.370477	0.370596
C84	C	0.346307	0.870477	0.870596
C85	C	0.348349	0.300751	0.440405
C86	C	0.848349	0.800751	0.940405
C87	C	0.395269	0.300762	0.440396
C88	C	0.895269	0.800762	0.940396
C89	C	0.395221	0.440241	0.300641
C90	C	0.895221	0.940241	0.800641
C91	C	0.348305	0.440233	0.300651
C92	C	0.848305	0.940233	0.800651
C93	C	0.324871	0.370479	0.370538
C94	C	0.824871	0.870479	0.870538
O95	O	0.274060	0.499508	0.241292
O96	O	0.774060	0.999508	0.741292
O97	O	0.274111	0.241422	0.499830
O98	O	0.774111	0.741422	0.999830
C99	C	0.062158	0.300731	0.440438
C100	C	0.562158	0.800731	0.940438
C101	C	0.038680	0.370465	0.370565
C102	C	0.538680	0.870465	0.870565
C103	C	0.062117	0.440202	0.300687
C104	C	0.562117	0.940202	0.800687
C105	C	-0.008239	0.370468	0.370573
C106	C	0.491761	0.870468	0.870573
C107	C	-0.031676	0.300731	0.440450
C108	C	0.468324	0.800731	0.940450
C109	C	-0.008195	0.230991	0.510320
C110	C	0.491805	0.730991	1.010320
C111	C	0.038721	0.230994	0.510315
C112	C	0.538721	0.730994	1.010315
C113	C	0.038636	0.509942	0.230818
C114	C	0.538636	1.009942	0.730818
C115	C	-0.008280	0.509934	0.230828
C116	C	0.491720	1.009934	0.730828
C117	C	-0.031717	0.440197	0.300706
C118	C	0.468283	0.940197	0.800706
C119	C	0.568083	0.612196	0.328657
C120	C	1.068083	1.112196	0.828657
C121	C	0.560730	0.715597	0.310763
C122	C	1.060730	1.215597	0.810763
C123	C	0.532793	0.774582	0.242809
C124	C	1.032793	1.274582	0.742809
C125	C	0.525886	0.871732	0.226001
C126	C	1.025886	1.371732	0.726001
C127	C	0.546913	0.909905	0.277152
C128	C	1.046913	1.409905	0.777152
C129	C	0.574849	0.850919	0.345112
C130	C	1.074849	1.350919	0.845112
C131	C	0.581759	0.753760	0.361916
C132	C	1.081759	1.253760	0.861916
C133	C	0.595880	0.889083	0.396259
C134	C	1.095880	1.389083	0.896259
C135	C	0.623816	0.830097	0.464219
C136	C	1.123816	1.330097	0.964219
C137	C	0.630724	0.732949	0.481020
C138	C	1.130724	1.232949	0.981020
C139	C	0.609697	0.694775	0.429870
C140	C	1.109697	1.194775	0.929870
C141	C	0.588969	0.986242	0.379455
C142	C	1.088969	1.486242	0.879455
C143	C	0.637936	0.965420	0.498562
C144	C	1.137936	1.465420	0.998562
C145	C	0.644843	0.868270	0.515369
C146	C	1.144843	1.368270	1.015369
C147	C	0.702536	0.370482	0.370595
C148	C	1.202536	0.870482	0.870595
C149	C	0.752469	0.370482	0.370612
C150	C	1.252469	0.870482	0.870612
C151	C	0.568120	0.328403	0.613149
C152	C	1.068120	0.828403	1.113149
C153	C	0.560773	0.310472	0.716528
C154	C	1.060773	0.810472	1.216528
C155	C	0.602689	1.127818	0.412648
C156	C	1.102689	1.627818	0.912648
C157	C	0.609998	1.024405	0.430608
C158	C	1.109998	1.524405	0.930608
C159	C	0.602566	0.412328	0.128918
C160	C	1.102566	0.912328	0.628918
C161	C	0.610019	0.429997	0.025586
C162	C	1.110019	0.929997	0.525586
C163	C	0.532847	0.242547	0.775398
C164	C	1.032847	0.742547	1.275398
C165	C	0.525938	0.225701	0.872527
C166	C	1.025938	0.725701	1.372527
C167	C	0.546957	0.276773	0.910796
C168	C	1.046957	0.776773	1.410796
C169	C	0.574887	0.344695	0.851927
C170	C	1.074887	0.844695	1.351927
C171	C	0.581794	0.361548	0.754787
C172	C	1.081794	0.861548	1.254787
C173	C	0.595905	0.395774	0.890186
C174	C	1.095905	0.895774	1.390186
C175	C	0.623834	0.463696	0.831317
C176	C	1.123834	0.963696	1.331317
C177	C	0.630740	0.480545	0.734187
C178	C	1.130740	0.980545	1.234187
C179	C	0.609720	0.429473	0.695917
C180	C	1.109720	0.929473	1.195917
C181	C	0.588998	0.378921	0.987326
C182	C	1.088998	0.878921	1.487326
C183	C	0.637945	0.497922	0.966716
C184	C	1.137945	0.997922	1.466716
C185	C	0.644854	0.514768	0.869586
C186	C	1.144854	1.014768	1.369586
H187	H	-0.158018	0.243950	0.497383
H188	H	0.341982	0.743950	0.997383
Br189	Br	0.504331	0.173229	0.723459
Br190	Br	1.004331	0.673229	1.223459
H191	H	0.667589	0.820232	0.570703
H192	H	1.167589	1.320232	1.070703
Br193	Br	0.070438	0.604586	0.135964
Br194	Br	0.570438	1.104586	0.635964
H195	H	0.655063	0.539508	0.997874
H196	H	1.155063	1.039508	1.497874
Br197	Br	0.316553	0.206084	0.535250
Br198	Br	0.816553	0.706084	1.035250
Br199	Br	0.211201	0.604588	0.135936
Br200	Br	0.711201	1.104588	0.635936
H201	H	0.515677	0.743495	0.201163
H202	H	1.015677	1.243495	0.701163
Br203	Br	0.551059	1.066283	0.287225
Br204	Br	1.051059	1.566283	0.787225
H205	H	0.667595	0.570071	0.821641
H206	H	1.167595	1.070071	1.321641
H207	H	0.655059	0.996500	0.540211
H208	H	1.155059	1.496500	1.040211
H209	H	0.198579	0.174214	0.567205
H210	H	0.698579	0.674214	1.067205
H211	H	0.615346	0.443182	0.616828
H212	H	1.115346	0.943182	1.116828
H213	H	0.503196	0.170402	0.920451
H214	H	1.003196	0.670402	1.420451
H215	H	0.329187	0.497029	0.243759
H216	H	0.829187	0.997029	0.743759
Br217	Br	0.070576	0.136344	0.605159
Br218	Br	0.570576	0.636344	1.105159
H219	H	0.414382	0.243971	0.497304
H220	H	0.914382	0.743971	0.997304
H221	H	0.541288	0.989009	0.263463
H222	H	1.041288	1.489009	0.763463
Br223	Br	0.668638	0.572737	0.654292
Br224	Br	1.168638	1.072737	1.154292
H225	H	0.541331	0.263052	0.989884
H226	H	1.041331	0.763052	1.489884
Br227	Br	-0.255952	0.534879	0.205903
Br228	Br	0.244048	1.034879	0.705903
Br229	Br	-0.255866	0.206093	0.535320
Br230	Br	0.244134	0.706093	1.035320
H231	H	0.566258	0.323617	1.035249
H232	H	1.066258	0.823617	1.535249
H233	H	0.113474	0.174207	0.567211
H234	H	0.613474	0.674207	1.067211
Br235	Br	0.618860	0.562860	0.453055
Br236	Br	1.118860	1.062860	0.953055
H237	H	0.653475	0.684923	0.536350
H238	H	1.153475	1.184923	1.036350
H239	H	0.113366	0.566735	0.173885
H240	H	0.613366	1.066735	0.673885
Br241	Br	-0.145372	0.534861	0.205862
Br242	Br	0.354628	1.034861	0.705862
H243	H	0.414312	0.497021	0.243750
H244	H	0.914312	0.997021	0.743750
H245	H	-0.027286	0.174211	0.567219
H246	H	0.472714	0.674211	1.067219
Br247	Br	0.487975	0.951778	0.133773
Br248	Br	0.987975	1.451778	0.633773
H249	H	-0.027393	0.566733	0.173924
H250	H	0.472607	1.066733	0.673924
