data_functionalizedCrystal
_audit_creation_method	'MofGen! by Chris Wilmer'
_symmetry_space_group_name_H-M	'P1'
_symmetry_Int_Tables_number	1
_symmetry_cell_setting	triclinic
loop_
_symmetry_equiv_pos_as_xyz
  x,y,z
_cell_length_a	16.956984
_cell_length_b	27.732048
_cell_length_c	16.053802
_cell_angle_alpha	92.539157
_cell_angle_beta	87.610701
_cell_angle_gamma	79.348037
loop_
_atom_site_label
_atom_site_type_symbol
_atom_site_fract_x
_atom_site_fract_y
_atom_site_fract_z
O1	O	1.061184	0.017866	-0.069436
O2	O	0.828817	0.034845	-0.069439
O3	O	0.952216	-0.044297	-0.069421
O4	O	0.937784	0.097007	-0.069453
O5	O	0.945424	-0.039957	0.069437
O6	O	0.822025	0.039184	0.069419
O7	O	1.054392	0.022205	0.069422
Zn8	Zn	0.937130	0.031384	0.091467
Zn9	Zn	0.946079	0.025666	-0.091484
O10	O	0.930992	0.101347	0.069405
C11	C	0.795702	0.037884	-0.000010
C12	C	0.707150	0.040469	-0.000011
C13	C	0.948517	-0.060123	0.000010
C14	C	0.947604	-0.113745	0.000017
C15	C	0.675597	-0.002750	0.000000
C16	C	0.592392	-0.000318	-0.000006
C17	C	0.540741	0.045332	-0.000018
C18	C	0.572298	0.088554	-0.000032
C19	C	0.655502	0.086122	-0.000031
C20	C	0.290820	0.057371	-0.000027
C21	C	0.207611	0.059800	-0.000025
C22	C	0.227711	-0.029073	-0.000000
C23	C	0.310916	-0.031501	0.000005
C24	C	0.342466	0.011721	-0.000013
N25	N	0.455692	0.047819	-0.000022
N26	N	0.427514	0.009233	-0.000015
C27	C	1.014784	-0.454942	-0.000025
C28	C	1.011400	-0.656482	-0.000037
O29	O	1.072831	-0.689915	-0.000073
N30	N	0.938229	-0.673013	-0.000037
C31	C	0.865899	-0.639156	-0.000040
O32	O	0.803585	-0.657841	-0.000049
C33	C	0.869284	-0.437617	-0.000034
C34	C	0.942460	-0.421089	-0.000026
C35	C	1.087954	-0.438413	-0.000017
C36	C	1.088799	-0.388031	-0.000010
C37	C	1.016475	-0.354178	-0.000010
C38	C	0.943305	-0.370706	-0.000018
C39	C	0.796955	-0.403761	-0.000043
C40	C	0.797808	-0.353374	-0.000044
C41	C	0.870984	-0.336845	-0.000035
C42	C	0.871825	-0.286471	-0.000011
N43	N	0.944997	-0.269940	-0.000011
C44	C	1.017321	-0.303793	-0.000010
C45	C	0.864126	-0.744967	-0.000041
C46	C	0.863280	-0.795351	-0.000041
C47	C	1.008781	-0.812674	-0.000040
C48	C	1.009627	-0.762289	-0.000034
C49	C	0.937298	-0.728436	-0.000041
C50	C	1.019091	-0.197986	0.000006
C51	C	1.019929	-0.147599	0.000017
C52	C	0.874428	-0.130280	0.000011
C53	C	0.873589	-0.180663	0.000005
C54	C	0.945927	-0.214516	-0.000001
O55	O	0.810428	-0.253011	0.000015
O56	O	1.079627	-0.285098	-0.000020
C57	C	1.013939	-0.505324	-0.000033
C58	C	0.940770	-0.521853	-0.000040
C59	C	0.868445	-0.488000	-0.000041
C60	C	0.939923	-0.572238	-0.000040
C61	C	1.012248	-0.606091	-0.000040
C62	C	1.085419	-0.589560	-0.000040
C63	C	1.086264	-0.539177	-0.000032
C64	C	0.795274	-0.504531	-0.000041
C65	C	0.794435	-0.554914	-0.000048
C66	C	0.866759	-0.588767	-0.000047
C67	C	1.087506	0.019166	-0.000008
C68	C	1.176059	0.016581	-0.000013
C69	C	0.934691	0.117173	-0.000029
C70	C	0.935604	0.170795	-0.000041
N71	N	0.931028	0.035285	0.216327
N72	N	0.952186	0.021761	-0.216344
C73	C	0.983554	0.001621	0.260028
C74	C	0.979293	0.004354	0.347434
C75	C	0.922510	0.040754	0.391137
C76	C	0.869979	0.074420	0.347430
C77	C	0.874237	0.071684	0.260025
C78	C	0.903913	0.052691	0.652544
C79	C	0.899661	0.055425	0.739955
C80	C	1.008974	-0.014642	0.739953
C81	C	1.013230	-0.017372	0.652547
C82	C	0.960696	0.016292	0.608847
N83	N	0.918155	0.043550	0.480481
N84	N	0.965048	0.013494	0.519506
H85	H	0.717647	-0.039923	0.000014
C86	C	0.718246	-0.316136	-0.000051
H87	H	0.729224	-0.283760	-0.000053
H88	H	0.685844	-0.319327	0.048367
H89	H	0.690592	-0.322345	-0.048485
C90	C	0.557684	-0.047857	-0.000000
H91	H	0.500735	-0.039873	-0.000015
H92	H	0.573076	-0.065002	0.048426
H93	H	0.577823	-0.068024	-0.048426
H94	H	1.029796	-0.028018	0.224451
H95	H	0.831464	0.099097	0.224444
C96	C	1.090119	-0.744112	-0.000032
H97	H	1.133068	-0.771494	-0.000036
H98	H	1.091110	-0.723307	0.048388
H99	H	1.095845	-0.726330	-0.048463
C100	C	0.716461	-0.421931	-0.000060
H101	H	0.673517	-0.394547	-0.000071
H102	H	0.710723	-0.439717	0.048359
H103	H	0.715477	-0.442732	-0.048493
C104	C	0.150792	0.110016	-0.000037
H105	H	0.096721	0.105273	-0.000024
H106	H	0.162661	0.126363	-0.048465
H107	H	0.157933	0.129388	0.048386
H108	H	0.861139	0.080103	0.616971
C109	C	1.075687	-0.057415	0.604480
H110	H	1.106355	-0.077076	0.643026
H111	H	1.110340	-0.042402	0.570366
H112	H	1.048892	-0.077478	0.570401
H113	H	0.352965	-0.068674	0.000018
C114	C	1.066751	-0.051674	0.788021
H115	H	1.101180	-0.073742	0.749474
H116	H	1.036641	-0.069601	0.822132
H117	H	1.098088	-0.034525	0.822102
H118	H	0.853419	0.085069	0.775534
H119	H	1.022063	-0.023058	0.383016
H120	H	0.202014	-0.064261	0.000005
C121	C	0.807520	0.114460	0.395501
H122	H	0.812512	0.111272	0.453815
H123	H	0.755040	0.110870	0.381194
H124	H	0.816489	0.145945	0.381157
C125	C	0.325520	0.104911	-0.000045
H126	H	0.382471	0.096927	-0.000053
H127	H	0.305388	0.125082	0.048372
H128	H	0.310120	0.122050	-0.048479
C129	C	0.515488	0.138769	-0.000051
H130	H	0.546199	0.164160	-0.000066
H131	H	0.480242	0.143081	0.048370
H132	H	0.484984	0.140049	-0.048482
C133	C	0.690210	0.133662	-0.000042
H134	H	0.647532	0.161198	-0.000043
H135	H	0.724618	0.133046	-0.048466
H136	H	0.719881	0.136074	0.048386
H137	H	1.079520	-0.134145	0.000026
H138	H	1.145851	-0.525726	-0.000025
H139	H	1.077995	-0.225544	-0.000001
H140	H	1.148386	-0.374579	-0.000006
H141	H	1.146853	-0.465973	-0.000020
H142	H	1.067671	-0.840247	-0.000039
H143	H	0.805224	-0.717407	-0.000047
C144	C	0.782787	-0.813527	-0.000044
H145	H	0.739838	-0.786145	-0.000053
H146	H	0.777056	-0.831313	0.048376
H147	H	0.781801	-0.834329	-0.048476
C148	C	0.793099	-0.198846	-0.000007
H149	H	0.750147	-0.171466	-0.000012
H150	H	0.787368	-0.216638	0.048406
H151	H	0.792120	-0.219644	-0.048445
C152	C	0.794876	-0.093038	0.000005
H153	H	0.751171	-0.110095	0.000004
H154	H	0.794560	-0.074533	-0.048417
H155	H	0.789811	-0.071514	0.048434
C156	C	1.164976	-0.626803	-0.000041
H157	H	1.208681	-0.609747	-0.000032
H158	H	1.170032	-0.648325	-0.048466
H159	H	1.165297	-0.645309	0.048386
C160	C	0.713936	-0.573089	-0.000060
H161	H	0.670988	-0.545707	-0.000068
H162	H	0.708201	-0.590878	0.048356
H163	H	0.712955	-0.593888	-0.048496
H164	H	0.736377	-0.476972	-0.000043
