data_functionalizedCrystal
_audit_creation_method	'MofGen! by Chris Wilmer'
_symmetry_space_group_name_H-M	'P1'
_symmetry_Int_Tables_number	1
_symmetry_cell_setting	triclinic
loop_
_symmetry_equiv_pos_as_xyz
  x,y,z
_cell_length_a	12.759401
_cell_length_b	16.625546
_cell_length_c	16.625539
_cell_angle_alpha	89.971468
_cell_angle_beta	89.984732
_cell_angle_gamma	90.023993
loop_
_atom_site_label
_atom_site_type_symbol
_atom_site_fract_x
_atom_site_fract_y
_atom_site_fract_z
Zn1	Zn	1.606151	-0.320982	-0.455859
Zn2	Zn	2.106151	0.179018	0.044141
Zn3	Zn	1.606036	-0.455821	-0.321021
Zn4	Zn	2.106036	0.044179	0.178979
Zn5	Zn	1.430467	-0.321010	-0.321044
Zn6	Zn	1.930467	0.178990	0.178956
Zn7	Zn	1.430418	-0.455780	-0.455816
Zn8	Zn	1.930418	0.044220	0.044184
O9	O	1.518268	-0.388398	-0.388435
O10	O	2.018268	0.111602	0.111565
O11	O	1.753157	-0.338875	-0.437982
O12	O	2.253157	0.161125	0.062018
O13	O	1.582718	-0.437967	-0.208192
O14	O	2.082718	0.062033	0.291808
O15	O	1.453841	-0.208174	-0.338955
O16	O	1.953841	0.291826	0.161045
O17	O	1.753072	-0.437940	-0.338917
O18	O	2.253072	0.062060	0.161083
O19	O	1.582915	-0.208153	-0.438003
O20	O	2.082915	0.291847	0.061997
O21	O	1.453729	-0.338921	-0.208208
O22	O	1.953729	0.161079	0.291792
O23	O	1.283439	-0.338882	-0.338913
O24	O	1.783439	0.161118	0.161087
O25	O	1.453757	-0.437870	-0.568654
O26	O	1.953757	0.062130	-0.068654
O27	O	1.283403	-0.437897	-0.437929
O28	O	1.783403	0.062103	0.062071
O29	O	1.582867	-0.338835	-0.568686
O30	O	2.082867	0.161165	-0.068686
O31	O	1.582671	-0.568648	-0.338875
O32	O	2.082671	-0.068648	0.161125
O33	O	1.453645	-0.568618	-0.437907
O34	O	1.953645	-0.068618	0.062093
C35	C	1.245300	-0.388388	-0.388419
C36	C	1.745300	0.111612	0.111581
C37	C	1.128524	-0.388404	-0.388431
C38	C	1.628524	0.111596	0.111569
C39	C	1.073670	-0.440039	-0.439908
C40	C	1.573670	0.059961	0.060092
C41	C	0.963946	-0.440042	-0.439924
C42	C	1.463946	0.059958	0.060076
C43	C	0.963939	-0.336772	-0.336980
C44	C	1.463939	0.163228	0.163020
C45	C	1.073661	-0.336765	-0.336968
C46	C	1.573661	0.163235	0.163032
C47	C	1.518168	-0.597889	-0.388401
C48	C	2.018168	-0.097889	0.111599
C49	C	1.518222	-0.687510	-0.388414
C50	C	2.018222	-0.187510	0.111586
C51	C	1.518405	-1.015686	-0.388498
C52	C	2.018405	-0.515686	0.111502
C53	C	1.518351	-0.924377	-0.388477
C54	C	2.018351	-0.424377	0.111523
C55	C	1.518313	-0.851601	-0.388455
C56	C	2.018313	-0.351601	0.111545
C57	C	1.518260	-0.760287	-0.388435
C58	C	2.018260	-0.260287	0.111565
C59	C	1.792301	-0.388409	-0.388452
C60	C	2.292301	0.111591	0.111548
C61	C	1.909078	-0.388413	-0.388459
C62	C	2.409078	0.111587	0.111541
C63	C	1.518319	-0.388345	-0.598744
C64	C	2.018319	0.111655	-0.098744
C65	C	1.518341	-0.388322	-0.688365
C66	C	2.018341	0.111678	-0.188365
C67	C	1.518396	-0.178089	-0.388487
C68	C	2.018396	0.321911	0.111513
C69	C	1.518451	-0.088468	-0.388509
C70	C	2.018451	0.411532	0.111491
C71	C	1.518358	-0.388305	-0.761148
C72	C	2.018358	0.111695	-0.261148
C73	C	1.518383	-0.388275	-0.852456
C74	C	2.018383	0.111725	-0.352456
C75	C	1.518408	-0.388246	-0.925233
C76	C	2.018408	0.111754	-0.425233
C77	C	1.518434	-0.388217	-1.016547
C78	C	2.018434	0.111783	-0.516547
C79	C	1.518277	-0.388393	-0.178944
C80	C	2.018277	0.111607	0.321056
C81	C	1.518459	-0.388189	-0.089324
C82	C	2.018459	0.111811	0.410676
H83	H	1.118337	-0.482085	-0.481814
H84	H	1.618337	0.017915	0.018186
N85	N	1.129683	-0.284006	-0.284384
N86	N	1.629683	0.215994	0.215616
N87	N	1.080689	-0.237908	-0.238437
N88	N	1.580689	0.262092	0.261563
H89	H	1.120254	-0.200646	-0.201303
H90	H	1.620254	0.299354	0.298697
H91	H	0.919290	-0.482088	-0.481842
H92	H	1.419290	0.017912	0.018158
H93	H	0.919256	-0.294731	-0.295079
H94	H	1.419256	0.205269	0.204921
