data_functionalizedCrystal
_audit_creation_method	'MofGen! by Chris Wilmer'
_symmetry_space_group_name_H-M	'P1'
_symmetry_Int_Tables_number	1
_symmetry_cell_setting	triclinic
loop_
_symmetry_equiv_pos_as_xyz
  x,y,z
_cell_length_a	16.974829
_cell_length_b	16.053802
_cell_length_c	10.654551
_cell_angle_alpha	87.402457
_cell_angle_beta	83.940793
_cell_angle_gamma	88.924488
loop_
_atom_site_label
_atom_site_type_symbol
_atom_site_fract_x
_atom_site_fract_y
_atom_site_fract_z
O1	O	1.043346	-0.139920	0.170772
O2	O	0.813991	-0.124425	0.189967
O3	O	0.933942	-0.132527	-0.002425
O4	O	0.923396	-0.131818	0.363163
O5	O	0.940537	0.005886	-0.012983
O6	O	0.820587	0.013988	0.179409
O7	O	1.049942	-0.001507	0.160214
Zn8	Zn	0.936311	0.028217	0.168135
Zn9	Zn	0.927622	-0.154149	0.182045
O10	O	0.929991	0.006595	0.352606
C11	C	0.787921	-0.053234	0.183760
C12	C	0.700414	-0.047323	0.180980
C13	C	0.208223	-0.005946	0.164753
C14	C	0.290446	-0.011502	0.167366
C15	C	0.327962	-0.089731	0.174417
C16	C	0.283252	-0.162408	0.178870
C17	C	0.201030	-0.156850	0.176267
C18	C	0.573482	-0.114442	0.182829
C19	C	0.655709	-0.119994	0.185428
C20	C	0.662898	0.030912	0.173926
C21	C	0.580675	0.036463	0.171315
C22	C	0.535971	-0.036214	0.175775
N23	N	0.412007	-0.095412	0.177084
N24	N	0.451927	-0.030532	0.173117
N25	N	0.921692	-0.278609	0.191530
C26	C	0.972830	-0.325757	0.109824
C27	C	0.968681	-0.412883	0.116456
C28	C	0.913388	-0.452860	0.204788
C29	C	0.862247	-0.405705	0.286503
C30	C	0.866401	-0.318581	0.279876
C31	C	0.895261	-0.713045	0.233729
C32	C	0.891109	-0.800176	0.240347
C33	C	0.997544	-0.807348	0.070301
C34	C	1.001690	-0.720221	0.063677
C35	C	0.950552	-0.673074	0.145396
N36	N	0.909143	-0.541917	0.211566
N37	N	0.954801	-0.584019	0.138623
C38	C	1.076012	-0.072700	0.166421
C39	C	1.163519	-0.078617	0.169202
C40	C	0.936465	-0.063270	-0.054494
C41	C	0.934147	-0.063117	-0.193912
N42	N	0.942247	0.152676	0.158641
C43	C	0.929465	-0.138493	-0.253650
C44	C	0.927281	-0.138347	-0.384647
C45	C	0.934466	0.012560	-0.396160
C46	C	0.936644	0.012412	-0.265163
C47	C	0.927468	-0.062665	0.404674
C48	C	0.929785	-0.062823	0.544094
H49	H	0.550137	0.100165	0.165546
H50	H	0.537094	-0.173621	0.186455
H51	H	0.326841	0.047675	0.163740
Br52	Br	0.797001	-0.254594	0.390776
Br53	Br	1.038087	-0.476873	0.005573
H54	H	0.936500	0.074053	-0.454188
H55	H	0.699304	0.090082	0.170298
H56	H	0.940453	0.073797	-0.216524
Br57	Br	0.157317	0.100227	0.155166
Br58	Br	0.334166	-0.268577	0.188445
Br59	Br	0.706625	-0.226169	0.194995
Br60	Br	0.140357	-0.255480	0.182316
H61	H	0.927429	-0.199994	-0.195640
H62	H	1.046714	-0.687674	-0.008250
Br63	Br	1.067123	-0.871348	-0.040308
Br64	Br	1.047869	-0.271512	-0.010071
Br65	Br	0.920921	-0.240647	-0.465714
Br66	Br	0.816058	-0.854424	0.360232
Br67	Br	0.825860	-0.649065	0.344627
H68	H	0.817229	-0.438259	0.358431
