data_functionalizedCrystal
_audit_creation_method	'MofGen! by Chris Wilmer'
_symmetry_space_group_name_H-M	'P1'
_symmetry_Int_Tables_number	1
_symmetry_cell_setting	triclinic
loop_
_symmetry_equiv_pos_as_xyz
  x,y,z
_cell_length_a	27.732048
_cell_length_b	10.540539
_cell_length_c	9.616153
_cell_angle_alpha	89.999847
_cell_angle_beta	89.988528
_cell_angle_gamma	96.415927
loop_
_atom_site_label
_atom_site_type_symbol
_atom_site_fract_x
_atom_site_fract_y
_atom_site_fract_z
O1	O	0.068115	-1.682924	-0.115597
O2	O	0.074533	-1.313232	-0.115616
O3	O	0.001000	-1.509560	-0.115579
O4	O	0.141649	-1.486597	-0.115634
O5	O	0.000994	-1.509554	0.115712
O6	O	0.074528	-1.313226	0.115676
O7	O	0.068110	-1.682918	0.115694
Zn8	Zn	0.071318	-1.498071	0.152407
Zn9	Zn	0.071325	-1.498079	-0.152329
O10	O	0.141643	-1.486590	0.115658
C11	C	0.074049	-1.265947	0.000028
C12	C	0.072609	-1.125062	0.000022
C13	C	-0.017013	-1.509075	0.000070
C14	C	-0.070677	-1.507623	0.000081
C15	C	0.068594	-1.730203	0.000048
C16	C	0.070034	-1.871089	0.000044
C17	C	-0.408819	-1.614502	0.000015
C18	C	-0.610513	-1.609117	-0.000004
O19	O	-0.641153	-1.706850	-0.000060
N20	N	-0.630369	-1.492703	-0.000009
C21	C	-0.599799	-1.377627	-0.000018
O22	O	-0.621317	-1.278486	-0.000036
C23	C	-0.398107	-1.383013	-0.000008
C24	C	-0.378253	-1.499435	0.000011
C25	C	-0.388965	-1.730915	0.000033
C26	C	-0.338544	-1.732260	0.000045
C27	C	-0.307978	-1.617193	0.000040
C28	C	-0.327832	-1.500780	0.000023
C29	C	-0.367538	-1.267939	-0.000027
C30	C	-0.317112	-1.269296	-0.000028
C31	C	-0.297258	-1.385718	-0.000009
C32	C	-0.246846	-1.387058	0.000031
N33	N	-0.226989	-1.503472	0.000036
C34	C	-0.257555	-1.618540	0.000040
C35	C	-0.705691	-1.374807	-0.000020
C36	C	-0.756114	-1.373460	-0.000020
C37	C	-0.766824	-1.604950	-0.000009
C38	C	-0.716400	-1.606296	0.000001
C39	C	-0.685834	-1.491221	-0.000015
C40	C	-0.151668	-1.621356	0.000068
C41	C	-0.101243	-1.622691	0.000086
C42	C	-0.090538	-1.391201	0.000068
C43	C	-0.140959	-1.389865	0.000057
C44	C	-0.171523	-1.504953	0.000052
O45	O	-0.216177	-1.289377	0.000071
O46	O	-0.236029	-1.717666	0.000028
C47	C	-0.459239	-1.613157	0.000003
C48	C	-0.479094	-1.496745	-0.000014
C49	C	-0.448528	-1.381678	-0.000019
C50	C	-0.529517	-1.495398	-0.000014
C51	C	-0.560083	-1.610465	-0.000009
C52	C	-0.540226	-1.726879	-0.000005
C53	C	-0.489806	-1.728224	0.000008
C54	C	-0.468384	-1.265264	-0.000023
C55	C	-0.518805	-1.263928	-0.000034
C56	C	-0.549371	-1.378995	-0.000030
C57	C	0.159656	-1.487075	0.000005
C58	C	0.213320	-1.488527	-0.000015
N59	N	0.071313	-1.498074	0.360382
C60	C	0.017434	-0.944031	0.000583
C61	C	0.018894	-1.090586	0.000047
C62	C	0.098462	-1.062270	-0.132062
C63	C	0.096629	-0.915805	-0.132157
C64	C	0.097716	-0.915262	0.130864
C65	C	0.098211	-1.062223	0.132595
C66	C	0.032113	-1.603478	0.580728
C67	C	0.031964	-1.603204	0.419561
C68	C	0.059841	-1.365868	0.418911
C69	C	0.059566	-1.366497	0.580129
C70	C	0.122122	-1.523712	0.580238
C71	C	0.121790	-1.526720	0.419010
N72	N	0.071326	-1.498091	0.639697
H73	H	-0.085081	-1.717499	0.000105
H74	H	-0.565122	-1.820571	0.000005
H75	H	-0.176549	-1.715071	0.000059
H76	H	0.079324	-1.104002	0.230310
Br77	Br	0.163486	-1.099755	0.145863
H78	H	-0.003695	-0.914744	-0.093599
H79	H	0.023200	-1.342548	0.378561
Br80	Br	0.105316	-1.231950	0.645156
H81	H	-0.003789	-0.916364	0.095309
Br82	Br	0.140310	-1.680881	0.647971
Br83	Br	-0.808316	-1.761112	-0.000006
H84	H	-0.292227	-1.175585	-0.000043
H85	H	-0.157124	-1.295065	0.000081
Br86	Br	0.136287	-1.688805	0.355240
H87	H	0.038909	-1.702120	0.619491
Br88	Br	-0.049046	-1.235046	0.000062
H89	H	0.038863	-1.701511	0.379988
H90	H	0.151308	-1.446849	0.618378
H91	H	-0.322384	-1.827062	0.000055
H92	H	0.152370	-1.454857	0.378722
H93	H	-0.534965	-1.169116	-0.000037
H94	H	-0.005359	-1.587456	0.621272
H95	H	-0.443502	-1.171560	-0.000030
H96	H	-0.413847	-1.824622	0.000031
H97	H	-0.700239	-1.701097	0.000015
H98	H	0.080330	-0.884468	0.230982
H99	H	-0.772274	-1.278658	-0.000011
Br100	Br	-0.015091	-1.161607	-0.158288
H101	H	-0.680808	-1.281093	-0.000033
H102	H	-0.001449	-1.134080	0.094731
H103	H	-0.473646	-1.823027	0.000022
Br104	Br	0.162382	-0.833745	0.132327
Br105	Br	-0.394469	-1.109928	-0.000057
Br106	Br	0.064790	-0.870166	-0.296695
H107	H	0.137910	-1.082910	-0.136991
Br108	Br	0.161015	-0.833050	-0.142173
H109	H	0.080507	-1.105641	-0.230347
H110	H	-0.005724	-1.586935	0.381021
Br111	Br	-0.002201	-1.328605	0.642857
H112	H	0.087620	-1.285595	0.380579
