data_functionalizedCrystal
_audit_creation_method	'MofGen! by Chris Wilmer'
_symmetry_space_group_name_H-M	'P1'
_symmetry_Int_Tables_number	1
_symmetry_cell_setting	triclinic
loop_
_symmetry_equiv_pos_as_xyz
  x,y,z
_cell_length_a	19.805407
_cell_length_b	19.805405
_cell_length_c	19.805399
_cell_angle_alpha	89.973385
_cell_angle_beta	89.982197
_cell_angle_gamma	90.024042
loop_
_atom_site_label
_atom_site_type_symbol
_atom_site_fract_x
_atom_site_fract_y
_atom_site_fract_z
Zn1	Zn	1.034734	-0.269527	-0.382692
Zn2	Zn	1.534734	0.230473	0.117308
Zn3	Zn	1.034648	-0.382716	-0.269506
Zn4	Zn	1.534648	0.117284	0.230494
Zn5	Zn	0.921549	-0.269541	-0.269520
Zn6	Zn	1.421549	0.230459	0.230480
Zn7	Zn	0.921512	-0.382674	-0.382656
Zn8	Zn	1.421512	0.117326	0.117344
O9	O	0.978111	-0.326115	-0.326094
O10	O	1.478111	0.173885	0.173906
O11	O	1.129439	-0.284554	-0.367687
O12	O	1.629439	0.215446	0.132313
O13	O	1.019625	-0.367726	-0.174791
O14	O	1.519625	0.132274	0.325209
O15	O	0.936615	-0.174822	-0.284554
O16	O	1.436615	0.325178	0.215446
O17	O	1.129376	-0.367713	-0.284529
O18	O	1.629376	0.132287	0.215471
O19	O	1.019771	-0.174813	-0.367701
O20	O	1.519771	0.325187	0.132299
O21	O	0.936531	-0.284576	-0.174802
O22	O	1.436531	0.215424	0.325198
O23	O	0.826827	-0.284536	-0.284519
O24	O	1.326827	0.215464	0.215481
O25	O	0.936551	-0.367642	-0.477378
O26	O	1.436551	0.132358	0.022622
O27	O	0.826800	-0.367655	-0.367639
O28	O	1.326800	0.132345	0.132361
O29	O	1.019735	-0.284514	-0.477404
O30	O	1.519735	0.215486	0.022596
O31	O	1.019589	-0.477427	-0.284494
O32	O	1.519589	0.022573	0.215506
O33	O	0.936468	-0.477396	-0.367625
O34	O	1.436468	0.022604	0.132375
C35	C	0.802255	-0.326093	-0.326077
C36	C	1.302255	0.173907	0.173923
C37	C	0.727023	-0.326101	-0.326086
C38	C	1.227023	0.173899	0.173914
C39	C	0.691712	-0.282876	-0.369452
C40	C	1.191712	0.217124	0.130548
C41	C	0.621024	-0.282880	-0.369455
C42	C	1.121024	0.217120	0.130545
C43	C	0.585647	-0.326112	-0.326094
C44	C	1.085647	0.173888	0.173906
C45	C	0.620963	-0.369338	-0.282724
C46	C	1.120963	0.130662	0.217276
C47	C	0.691650	-0.369330	-0.282718
C48	C	1.191650	0.130670	0.217282
C49	C	0.335890	-0.369368	-0.282744
C50	C	0.835890	0.130632	0.217256
C51	C	0.265197	-0.369374	-0.282755
C52	C	0.765197	0.130626	0.217245
C53	C	0.265263	-0.282918	-0.369481
C54	C	0.765263	0.217082	0.130519
C55	C	0.335950	-0.282910	-0.369476
C56	C	0.835950	0.217090	0.130524
C57	C	0.371260	-0.326134	-0.326103
C58	C	0.871260	0.173866	0.173897
C59	C	0.447908	-0.326128	-0.326099
C60	C	0.947908	0.173872	0.173901
C61	C	0.509000	-0.326121	-0.326100
C62	C	1.009000	0.173879	0.173900
C63	C	0.978034	-0.501971	-0.326069
C64	C	1.478034	-0.001971	0.173931
C65	C	0.978063	-0.577203	-0.326081
C66	C	1.478063	-0.077203	0.173919
C67	C	1.021337	-0.612483	-0.369410
C68	C	1.521337	-0.112483	0.130590
C69	C	1.021361	-0.683172	-0.369422
C70	C	1.521361	-0.183172	0.130578
C71	C	0.978114	-0.718578	-0.326103
C72	C	1.478114	-0.218578	0.173897
C73	C	0.934835	-0.683292	-0.282772
C74	C	1.434835	-0.183292	0.217228
C75	C	0.934808	-0.612605	-0.282763
C76	C	1.434808	-0.112605	0.217237
C77	C	0.934944	-0.968366	-0.282807
C78	C	1.434944	-0.468366	0.217193
C79	C	0.934976	-1.039058	-0.282817
C80	C	1.434976	-0.539058	0.217183
C81	C	1.021497	-1.038932	-0.369466
C82	C	1.521497	-0.538932	0.130534
C83	C	1.021470	-0.968245	-0.369457
C84	C	1.521470	-0.468245	0.130543
C85	C	0.978189	-0.932965	-0.326129
C86	C	1.478189	-0.432965	0.173871
C87	C	0.978162	-0.856317	-0.326117
C88	C	1.478162	-0.356317	0.173883
C89	C	0.978144	-0.795225	-0.326111
C90	C	1.478144	-0.295225	0.173889
C91	C	1.154653	-0.326136	-0.326111
C92	C	1.654653	0.173864	0.173889
C93	C	1.229885	-0.326146	-0.326118
C94	C	1.729885	0.173854	0.173882
C95	C	0.978149	-0.326072	-0.502636
C96	C	1.478149	0.173928	-0.002636
C97	C	0.978165	-0.326054	-0.577868
C98	C	1.478165	0.173946	-0.077868
C99	C	0.978207	-0.149572	-0.326133
C100	C	1.478207	0.350428	0.173867
C101	C	0.978247	-0.074340	-0.326150
C102	C	1.478247	0.425660	0.173850
C103	C	1.021480	-0.282766	-0.613227
C104	C	1.521480	0.217234	-0.113227
C105	C	1.021487	-0.282747	-0.683916
C106	C	1.521487	0.217253	-0.183916
C107	C	0.978182	-0.326018	-0.719244
C108	C	1.478182	0.173982	-0.219244
C109	C	0.934862	-0.369308	-0.683880
C110	C	1.434862	0.130692	-0.183880
C111	C	0.934852	-0.369323	-0.613193
C112	C	1.434852	0.130677	-0.113193
C113	C	0.934900	-0.369244	-0.968954
C114	C	1.434900	0.130756	-0.468954
C115	C	0.934915	-0.369227	-1.039646
C116	C	1.434915	0.130773	-0.539646
C117	C	1.021535	-0.282668	-1.039677
C118	C	1.521535	0.217332	-0.539677
C119	C	1.021525	-0.282684	-0.968989
C120	C	1.521525	0.217316	-0.468989
C121	C	0.978203	-0.325970	-0.933632
C122	C	1.478203	0.174030	-0.433632
C123	C	0.978195	-0.325990	-0.856983
C124	C	1.478195	0.174010	-0.356983
C125	C	0.978193	-0.326002	-0.795891
C126	C	1.478193	0.173998	-0.295891
C127	C	0.978112	-0.326108	-0.150238
C128	C	1.478112	0.173892	0.349762
C129	C	0.978227	-0.325936	-0.075006
C130	C	1.478227	0.174064	0.424994
H131	H	0.364630	-0.404564	-0.247428
H132	H	0.864630	0.095436	0.252572
H133	H	0.899635	-0.404501	-0.940174
H134	H	1.399635	0.095499	-0.440174
C135	C	0.415481	-0.273617	-0.460534
C136	C	0.915481	0.226383	0.039466
C137	C	0.374834	-0.235389	-0.417140
C138	C	0.874834	0.264611	0.082860
H139	H	0.439481	-0.244277	-0.489962
H140	H	0.939481	0.255723	0.010038
H141	H	0.446626	-0.299353	-0.434707
H142	H	0.946626	0.200647	0.065293
H143	H	0.387899	-0.303141	-0.486373
H144	H	0.887899	0.196859	0.013627
H145	H	0.402417	-0.205868	-0.391297
H146	H	0.902417	0.294132	0.108703
H147	H	0.343686	-0.209642	-0.442970
H148	H	0.843686	0.290358	0.057030
H149	H	0.899600	-0.404538	-0.712650
H150	H	1.399600	0.095462	-0.212650
C151	C	0.849249	-0.454902	-0.620258
C152	C	1.349249	0.045098	-0.120258
C153	C	0.887251	-0.416918	-0.574323
C154	C	1.387251	0.083082	-0.074323
H155	H	0.819865	-0.484290	-0.596260
H156	H	1.319865	0.015710	-0.096260
H157	H	0.823371	-0.425406	-0.647825
H158	H	1.323371	0.074594	-0.147825
H159	H	0.878739	-0.480781	-0.647833
H160	H	1.378739	0.019219	-0.147833
H161	H	0.857761	-0.391035	-0.546752
H162	H	1.357761	0.108965	-0.046752
H163	H	0.913130	-0.446418	-0.546745
H164	H	1.413130	0.053582	-0.046745
C165	C	0.896472	-0.860069	-0.244319
C166	C	1.396472	-0.360069	0.255681
C167	C	0.887373	-0.929591	-0.235180
C168	C	1.387373	-0.429591	0.264820
H169	H	0.867099	-0.836131	-0.214917
H170	H	1.367099	-0.336131	0.285083
H171	H	0.941944	-0.848454	-0.234451
H172	H	1.441944	-0.348454	0.265549
H173	H	0.886534	-0.848474	-0.289788
H174	H	1.386534	-0.348474	0.210212
H175	H	0.897317	-0.941188	-0.189712
H176	H	1.397317	-0.441188	0.310288
H177	H	0.841891	-0.941211	-0.245043
H178	H	1.341891	-0.441211	0.254957
C179	C	1.054504	-0.168163	-0.591498
C180	C	1.554504	0.331837	-0.091498
C181	C	1.069081	-0.235198	-0.574398
C182	C	1.569081	0.264802	-0.074398
H183	H	1.083889	-0.138796	-0.567525
H184	H	1.583889	0.361204	-0.067525
H185	H	1.060710	-0.161965	-0.638652
H186	H	1.560710	0.338035	-0.138652
H187	H	1.009029	-0.158265	-0.579904
H188	H	1.509029	0.341735	-0.079904
H189	H	1.114555	-0.245098	-0.585997
H190	H	1.614555	0.254902	-0.085997
H191	H	1.062881	-0.241399	-0.527234
H192	H	1.562881	0.258601	-0.027234
C193	C	0.684669	-0.197414	-0.455178
C194	C	1.184669	0.302586	0.044822
C195	C	0.730594	-0.235354	-0.417117
C196	C	1.230594	0.264646	0.082883
H197	H	0.708674	-0.168072	-0.484601
H198	H	1.208674	0.331928	0.015399
H199	H	0.657101	-0.226941	-0.481016
H200	H	1.157101	0.273059	0.018984
H201	H	0.657095	-0.171489	-0.425728
H202	H	1.157095	0.328511	0.074272
H203	H	0.758166	-0.261283	-0.446567
H204	H	1.258166	0.238717	0.053433
H205	H	0.758175	-0.205823	-0.391277
H206	H	1.258175	0.294177	0.108723
H207	H	0.592277	-0.247684	-0.404769
H208	H	1.092277	0.252316	0.095231
C209	C	0.771117	-0.460351	-0.273147
C210	C	1.271117	0.039649	0.226853
C211	C	0.730469	-0.416844	-0.235052
C212	C	1.230469	0.083156	0.264948
H213	H	0.795085	-0.489680	-0.243716
H214	H	1.295085	0.010320	0.256284
H215	H	0.743545	-0.486283	-0.302586
H216	H	1.243545	0.013717	0.197414
H217	H	0.802297	-0.434594	-0.298968
H218	H	1.302297	0.065406	0.201032
H219	H	0.699286	-0.442602	-0.209235
H220	H	1.199286	0.057398	0.290765
H221	H	0.758044	-0.390910	-0.205602
H222	H	1.258044	0.109090	0.294398
C223	C	0.849274	-0.454784	-1.032519
C224	C	1.349274	0.045216	-0.532519
C225	C	0.887305	-0.416789	-1.078480
C226	C	1.387305	0.083211	-0.578480
H227	H	0.819882	-0.484142	-1.056495
H228	H	1.319882	0.015858	-0.556495
H229	H	0.878740	-0.480688	-1.004948
H230	H	1.378740	0.019312	-0.504948
H231	H	0.823399	-0.425287	-1.004950
H232	H	1.323399	0.074713	-0.504950
H233	H	0.913184	-0.446286	-1.106045
H234	H	1.413184	0.053714	-0.606045
H235	H	0.857835	-0.390883	-1.106063
H236	H	1.357835	0.109117	-0.606063
H237	H	0.592154	-0.404535	-0.247416
H238	H	1.092154	0.095465	0.252584
C239	C	1.059958	-1.147235	-0.407968
C240	C	1.559958	-0.647235	0.092032
C241	C	1.069067	-1.077714	-0.417101
C242	C	1.569067	-0.577714	0.082899
H243	H	1.089323	-1.171174	-0.437378
H244	H	1.589323	-0.671174	0.062622
H245	H	1.069896	-1.158838	-0.362508
H246	H	1.569896	-0.658838	0.137492
H247	H	1.014478	-1.158843	-0.417838
H248	H	1.514478	-0.658843	0.082162
H249	H	1.114546	-1.066105	-0.407227
H250	H	1.614546	-0.566105	0.092773
H251	H	1.059134	-1.066107	-0.462572
H252	H	1.559134	-0.566107	0.037428
C253	C	0.843831	-0.762872	-0.273294
C254	C	1.343831	-0.262872	0.226706
C255	C	0.887299	-0.722212	-0.235153
C256	C	1.387299	-0.222212	0.264847
H257	H	0.814488	-0.786901	-0.243893
H258	H	1.314488	-0.286901	0.256107
H259	H	0.817912	-0.735301	-0.302750
H260	H	1.317912	-0.235301	0.197250
H261	H	0.869616	-0.793999	-0.299098
H262	H	1.369616	-0.293999	0.200902
H263	H	0.861514	-0.691082	-0.209353
H264	H	1.361514	-0.191082	0.290647
H265	H	0.913221	-0.749785	-0.205686
H266	H	1.413221	-0.249785	0.294314
H267	H	1.056807	-0.247420	-1.068473
H268	H	1.556807	0.252580	-0.568473
C269	C	0.156933	-0.244526	-0.408000
C270	C	0.656933	0.255474	0.092000
C271	C	0.226449	-0.235398	-0.417152
C272	C	0.726449	0.264602	0.082848
H273	H	0.132974	-0.215187	-0.437428
H274	H	0.632974	0.284813	0.062572
H275	H	0.145340	-0.290011	-0.417826
H276	H	0.645340	0.209989	0.082174
H277	H	0.145342	-0.234558	-0.362540
H278	H	0.645342	0.265442	0.137460
H279	H	0.238041	-0.245370	-0.462611
H280	H	0.738041	0.254630	0.037389
H281	H	0.238047	-0.189902	-0.407331
H282	H	0.738047	0.310098	0.092669
C283	C	1.106856	-0.619467	-0.455070
C284	C	1.606856	-0.119467	0.044930
C285	C	1.068872	-0.573568	-0.417033
C286	C	1.568872	-0.073568	0.082967
H287	H	1.136197	-0.595442	-0.484476
H288	H	1.636197	-0.095442	0.015524
H289	H	1.132776	-0.647030	-0.425608
H290	H	1.632776	-0.147030	0.074392
H291	H	1.077351	-0.647049	-0.480931
H292	H	1.577351	-0.147049	0.019069
H293	H	1.098376	-0.545989	-0.391168
H294	H	1.598376	-0.045989	0.108832
H295	H	1.042949	-0.545993	-0.446499
H296	H	1.542949	-0.045993	0.053501
C297	C	0.849287	-0.619825	-0.197112
C298	C	1.349287	-0.119825	0.302888
C299	C	0.887240	-0.573822	-0.235135
C300	C	1.387240	-0.073822	0.264865
H301	H	0.819920	-0.595881	-0.167708
H302	H	1.319920	-0.095881	0.332292
H303	H	0.823394	-0.647399	-0.226583
H304	H	1.323394	-0.147399	0.273417
H305	H	0.878809	-0.647386	-0.171250
H306	H	1.378809	-0.147386	0.328750
H307	H	0.857717	-0.546264	-0.261002
H308	H	1.357717	-0.046264	0.238998
H309	H	0.913134	-0.546236	-0.205661
H310	H	1.413134	-0.046236	0.294339
C311	C	0.849431	-1.032085	-0.197173
C312	C	1.349431	-0.532085	0.302827
C313	C	0.887430	-1.077978	-0.235202
C314	C	1.387430	-0.577978	0.264798
H315	H	0.820078	-1.056115	-0.167783
H316	H	1.320078	-0.556115	0.332217
H317	H	0.878920	-1.004507	-0.171302
H318	H	1.378920	-0.504507	0.328698
H319	H	0.823516	-1.004518	-0.226646
H320	H	1.323516	-0.504518	0.273354
H321	H	0.913349	-1.105543	-0.205730
H322	H	1.413349	-0.605543	0.294270
H323	H	0.857937	-1.105568	-0.261075
H324	H	1.357937	-0.605568	0.238925
C325	C	1.030946	-0.191671	-0.763413
C326	C	1.530946	0.308329	-0.263413
C327	C	1.069097	-0.235155	-0.722776
C328	C	1.569097	0.264845	-0.222776
H329	H	1.060339	-0.162283	-0.787397
H330	H	1.560339	0.337717	-0.287397
H331	H	1.005167	-0.217436	-0.794571
H332	H	1.505167	0.282564	-0.294571
H333	H	1.001465	-0.165795	-0.735826
H334	H	1.501465	0.334205	-0.235826
H335	H	1.098574	-0.261035	-0.750364
H336	H	1.598574	0.238965	-0.250364
H337	H	1.094887	-0.209387	-0.691614
H338	H	1.594887	0.290613	-0.191614
C339	C	1.030950	-0.191652	-0.889528
C340	C	1.530950	0.308348	-0.389528
C341	C	1.069119	-0.235108	-0.930161
C342	C	1.569119	0.264892	-0.430161
H343	H	1.060331	-0.162279	-0.865557
H344	H	1.560331	0.337721	-0.365557
H345	H	1.001479	-0.165765	-0.917110
H346	H	1.501479	0.334235	-0.417110
H347	H	1.005160	-0.217444	-0.858351
H348	H	1.505160	0.282556	-0.358351
H349	H	1.094906	-0.209316	-0.961342
H350	H	1.594906	0.290684	-0.461342
H351	H	1.098602	-0.260998	-0.902577
H352	H	1.598602	0.239002	-0.402577
C353	C	0.272229	-0.454827	-0.197010
C354	C	0.772229	0.045173	0.302990
C355	C	0.226310	-0.416893	-0.235084
C356	C	0.726310	0.083107	0.264916
H357	H	0.248220	-0.484159	-0.167580
H358	H	0.748220	0.015841	0.332420
H359	H	0.299802	-0.480757	-0.226446
H360	H	0.799802	0.019243	0.273554
H361	H	0.299799	-0.425291	-0.171172
H362	H	0.799799	0.074709	0.328828
H363	H	0.198743	-0.446429	-0.260926
H364	H	0.698743	0.053571	0.239074
H365	H	0.198725	-0.390961	-0.205644
H366	H	0.698725	0.109039	0.294356
C367	C	1.059819	-0.791475	-0.407916
C368	C	1.559819	-0.291475	0.092084
C369	C	1.068930	-0.721953	-0.417050
C370	C	1.568930	-0.221953	0.082950
H371	H	1.089184	-0.815415	-0.437325
H372	H	1.589184	-0.315415	0.062675
H373	H	1.069756	-0.803076	-0.362455
H374	H	1.569756	-0.303076	0.137545
H375	H	1.014339	-0.803081	-0.417786
H376	H	1.514339	-0.303081	0.082214
H377	H	1.114409	-0.710346	-0.407175
H378	H	1.614409	-0.210346	0.092825
H379	H	1.058998	-0.710347	-0.462521
H380	H	1.558998	-0.210347	0.037479
C381	C	1.106992	-0.975223	-0.455115
C382	C	1.606992	-0.475223	0.044885
C383	C	1.069006	-0.929327	-0.417078
C384	C	1.569006	-0.429327	0.082922
H385	H	1.136334	-0.951196	-0.484519
H386	H	1.636334	-0.451196	0.015481
H387	H	1.132913	-1.002787	-0.425654
H388	H	1.632913	-0.502787	0.074346
H389	H	1.077490	-1.002805	-0.480979
H390	H	1.577490	-0.502805	0.019021
H391	H	1.098508	-0.901749	-0.391210
H392	H	1.598508	-0.401749	0.108790
H393	H	1.043083	-0.901752	-0.446543
H394	H	1.543083	-0.401752	0.053457
