data_functionalizedCrystal
_audit_creation_method	'MofGen! by Chris Wilmer'
_symmetry_space_group_name_H-M	'P1'
_symmetry_Int_Tables_number	1
_symmetry_cell_setting	triclinic
loop_
_symmetry_equiv_pos_as_xyz
  x,y,z
_cell_length_a	15.944545
_cell_length_b	15.944551
_cell_length_c	9.130307
_cell_angle_alpha	89.995755
_cell_angle_beta	90.001265
_cell_angle_gamma	83.497455
loop_
_atom_site_label
_atom_site_type_symbol
_atom_site_fract_x
_atom_site_fract_y
_atom_site_fract_z
O1	O	1.114524	0.108306	-0.121708
O2	O	0.869974	0.121667	-0.121732
O3	O	0.998927	-0.007289	-0.121706
O4	O	0.985571	0.237261	-0.121734
O5	O	0.998923	-0.007290	0.121893
O6	O	0.869969	0.121666	0.121867
O7	O	1.114520	0.108304	0.121891
Cu8	Cu	0.992244	0.114985	0.144122
Cu9	Cu	0.992249	0.114987	-0.143962
O10	O	0.985566	0.237260	0.121865
C11	C	0.838677	0.121113	0.000065
C12	C	0.745431	0.119453	0.000056
C13	C	0.474798	0.034559	0.000081
C14	C	0.525378	0.075487	0.120187
C15	C	0.409787	0.113532	0.000082
C16	C	0.525363	0.075510	-0.119983
C17	C	0.574701	0.116437	0.000066
C18	C	0.459139	0.154439	0.120287
C19	C	0.459120	0.154450	-0.119991
C20	C	0.509667	0.195436	0.000145
C21	C	0.314785	0.111856	0.000092
C22	C	0.669700	0.118119	0.000067
C23	C	0.998370	-0.038583	0.000094
C24	C	0.996708	-0.131829	0.000094
C25	C	0.912803	-0.346684	0.000066
C26	C	0.951764	-0.407703	0.120179
C27	C	0.993701	-0.302555	0.000083
C28	C	0.951787	-0.407685	-0.119991
C29	C	0.990790	-0.467468	0.000065
C30	C	1.032683	-0.362345	0.120295
C31	C	1.032695	-0.362321	-0.119983
C32	C	1.071715	-0.423322	0.000160
C33	C	0.995375	-0.207553	0.000094
C34	C	0.989122	-0.562469	0.000064
C35	C	1.145816	0.108859	0.000091
C36	C	1.239062	0.110519	0.000091
C37	C	0.986123	0.268555	0.000062
C38	C	0.987785	0.361801	0.000052
N39	N	0.992247	0.114984	0.346744
N40	N	0.992253	0.114981	-0.346585
C41	C	1.106481	0.000826	0.346757
C42	C	1.163604	-0.056250	0.423431
C43	C	1.163613	-0.056251	0.576764
C44	C	1.106490	0.000829	0.653428
C45	C	1.049368	0.057906	0.576755
C46	C	1.049367	0.057902	0.423418
C47	C	0.935130	0.172058	0.576742
C48	C	0.935125	0.172064	0.423408
C49	C	0.878008	0.229138	0.653405
C50	C	0.820888	0.286220	0.576732
C51	C	0.820883	0.286219	0.423389
C52	C	0.878002	0.229140	0.346735
H53	H	0.554307	0.042134	0.221735
H54	H	1.210124	-0.102730	0.639192
C55	C	0.758059	0.349002	0.661059
C56	C	0.758195	0.349134	0.829720
C57	C	0.695365	0.411918	0.914052
C58	C	0.632399	0.474571	0.829723
C59	C	0.632260	0.474441	0.661053
C60	C	0.695090	0.411656	0.576721
H61	H	0.804809	0.302753	0.892154
H62	H	0.695468	0.412014	1.038914
H63	H	0.585889	0.521047	0.892151
H64	H	0.585647	0.520822	0.598619
H65	H	0.694987	0.411561	0.451859
C66	C	0.905541	-0.434877	0.257348
C67	C	0.812533	-0.400682	0.283724
C68	C	0.766305	-0.427853	0.420886
C69	C	0.813085	-0.489219	0.531671
C70	C	0.906098	-0.523418	0.505298
C71	C	0.952327	-0.496247	0.368136
H72	H	0.777899	-0.355251	0.201712
H73	H	0.697450	-0.402536	0.440409
H74	H	0.778864	-0.509333	0.633207
H75	H	0.940733	-0.568849	0.587310
H76	H	1.021182	-0.521564	0.348613
H77	H	1.066869	-0.342356	0.221952
H78	H	0.459145	-0.033453	0.000205
H79	H	0.430327	0.187766	0.221936
H80	H	1.066884	-0.342191	-0.221527
C81	C	1.226439	-0.119036	0.339103
C82	C	1.226459	-0.119024	0.170442
C83	C	1.289293	-0.181812	0.086123
C84	C	1.352106	-0.244610	0.170465
C85	C	1.352088	-0.244624	0.339136
C86	C	1.289255	-0.181837	0.423455
H87	H	1.179959	-0.072535	0.107998
H88	H	1.289305	-0.181801	-0.038739
H89	H	1.398619	-0.291089	0.108047
H90	H	1.398588	-0.291114	0.401580
H91	H	1.289242	-0.181848	0.548317
H92	H	1.106494	0.000818	0.778280
H93	H	0.878014	0.229132	0.778258
C94	C	0.530604	0.287384	0.000223
C95	C	0.582768	0.319455	0.126142
C96	C	0.603707	0.411401	0.126229
C97	C	0.572481	0.471277	0.000398
C98	C	0.520314	0.439208	-0.125529
C99	C	0.499375	0.347261	-0.125617
H100	H	0.605886	0.275130	0.219298
H101	H	0.642325	0.435140	0.219450
H102	H	0.587981	0.539341	0.000463
H103	H	0.497196	0.483532	-0.218685
H104	H	0.460757	0.323522	-0.218838
H105	H	0.774363	0.332694	0.360970
C106	C	0.419997	0.199460	-0.257174
C107	C	0.446338	0.166271	-0.410712
C108	C	0.407209	0.211268	-0.547909
C109	C	0.341737	0.289454	-0.531570
C110	C	0.315392	0.322647	-0.378026
C111	C	0.354522	0.277649	-0.240828
H112	H	0.494807	0.108390	-0.422813
H113	H	0.426712	0.186696	-0.661572
H114	H	0.312771	0.322764	-0.633131
H115	H	0.266923	0.380528	-0.365925
H116	H	0.335019	0.302221	-0.127165
H117	H	0.554282	0.042144	-0.221517
H118	H	0.845655	-0.313375	0.000179
H119	H	1.138922	-0.456483	0.000234
H120	H	0.917562	-0.427760	-0.221544
H121	H	1.106487	0.000828	0.221905
H122	H	0.878005	0.229137	0.221883
