data_functionalizedCrystal
_audit_creation_method	'MofGen! by Chris Wilmer'
_symmetry_space_group_name_H-M	'P1'
_symmetry_Int_Tables_number	1
_symmetry_cell_setting	triclinic
loop_
_symmetry_equiv_pos_as_xyz
  x,y,z
_cell_length_a	27.731994
_cell_length_b	27.731996
_cell_length_c	26.809956
_cell_angle_alpha	89.998344
_cell_angle_beta	89.997334
_cell_angle_gamma	82.620961
loop_
_atom_site_label
_atom_site_type_symbol
_atom_site_fract_x
_atom_site_fract_y
_atom_site_fract_z
O1	O	0.640937	0.057387	-0.041415
O2	O	0.974271	0.390720	0.291919
O3	O	1.307604	0.724054	0.625252
O4	O	0.500139	0.066160	-0.041432
O5	O	0.833472	0.399493	0.291901
O6	O	1.166805	0.732827	0.625234
O7	O	0.574924	-0.008626	-0.041412
O8	O	0.908257	0.324707	0.291921
O9	O	1.241591	0.658041	0.625254
O10	O	0.566152	0.132173	-0.041435
O11	O	0.899485	0.465506	0.291898
O12	O	1.232819	0.798840	0.625232
O13	O	0.574910	-0.008615	0.041547
O14	O	0.908243	0.324719	0.374880
O15	O	1.241577	0.658052	0.708214
O16	O	0.500124	0.066171	0.041527
O17	O	0.833458	0.399505	0.374860
O18	O	1.166791	0.732838	0.708194
O19	O	0.640923	0.057398	0.041544
O20	O	0.974257	0.390732	0.374878
O21	O	1.307590	0.724065	0.708211
Zn22	Zn	0.570522	0.061787	0.054707
Zn23	Zn	0.903855	0.395120	0.388041
Zn24	Zn	1.237188	0.728453	0.721374
Zn25	Zn	0.570540	0.061772	-0.054595
Zn26	Zn	0.903874	0.395105	0.278738
Zn27	Zn	1.237207	0.728438	0.612072
O28	O	0.566138	0.132184	0.041524
O29	O	0.899471	0.465518	0.374858
O30	O	1.232805	0.798851	0.708191
C31	C	0.482124	0.065986	0.000045
C32	C	0.815458	0.399319	0.333379
C33	C	1.148791	0.732652	0.666712
C34	C	0.428468	0.065443	0.000039
C35	C	0.761801	0.398777	0.333372
C36	C	1.095135	0.732110	0.666706
C37	C	0.095742	0.062034	0.045280
C38	C	0.429076	0.395367	0.378613
C39	C	0.762409	0.728700	0.711947
C40	C	-0.105915	0.059972	0.045286
C41	C	0.227418	0.393305	0.378619
C42	C	0.560751	0.726639	0.711953
O43	O	-0.131994	0.059690	0.083745
O44	O	0.201339	0.393023	0.417078
O45	O	0.534672	0.726357	0.750411
N46	N	-0.131122	0.059710	0.000065
N47	N	0.202211	0.393043	0.333398
N48	N	0.535544	0.726376	0.666732
C49	C	-0.105912	0.059960	-0.045161
C50	C	0.227422	0.393293	0.288172
C51	C	0.560755	0.726626	0.621506
O52	O	-0.131978	0.059684	-0.083624
O53	O	0.201355	0.393018	0.249709
O54	O	0.534689	0.726351	0.583043
C55	C	0.095746	0.062018	-0.045166
C56	C	0.429079	0.395351	0.288167
C57	C	0.762412	0.728685	0.621500
C58	C	0.120950	0.062285	0.000058
C59	C	0.454283	0.395618	0.333391
C60	C	0.787616	0.728952	0.666724
C61	C	0.120946	0.062300	0.090500
C62	C	0.454280	0.395634	0.423833
C63	C	0.787613	0.728967	0.757167
C64	C	0.171357	0.062818	0.090498
C65	C	0.504691	0.396152	0.423832
C66	C	0.838024	0.729485	0.757165
C67	C	0.196565	0.063070	0.045276
C68	C	0.529898	0.396403	0.378609
C69	C	0.863231	0.729736	0.711943
C70	C	0.171361	0.062803	0.000056
C71	C	0.504694	0.396136	0.333389
C72	C	0.838027	0.729470	0.666722
C73	C	0.120956	0.062264	-0.090392
C74	C	0.454290	0.395598	0.242942
C75	C	0.787623	0.728931	0.576275
C76	C	0.171374	0.062778	-0.090389
C77	C	0.504707	0.396111	0.242944
C78	C	0.838041	0.729444	0.576278
C79	C	0.196578	0.063045	-0.045165
C80	C	0.529911	0.396378	0.288168
C81	C	0.863244	0.729712	0.621502
C82	C	0.246979	0.063573	-0.045168
C83	C	0.580312	0.396906	0.288165
C84	C	0.913646	0.730239	0.621498
N85	N	0.272186	0.063835	0.000053
N86	N	0.605519	0.397168	0.333386
N87	N	0.938853	0.730502	0.666719
C88	C	0.246979	0.063583	0.045275
C89	C	0.580312	0.396917	0.378608
C90	C	0.913645	0.730250	0.711941
C91	C	-0.211785	0.058880	-0.045155
C92	C	0.121549	0.392213	0.288179
C93	C	0.454882	0.725547	0.621512
C94	C	-0.262199	0.058366	-0.045154
C95	C	0.071134	0.391700	0.288180
C96	C	0.404468	0.725033	0.621513
C97	C	-0.262199	0.058378	0.045293
C98	C	0.071134	0.391711	0.378627
C99	C	0.404468	0.725044	0.711960
C100	C	-0.211784	0.058895	0.045292
C101	C	0.121549	0.392228	0.378625
C102	C	0.454882	0.725562	0.711958
C103	C	-0.186578	0.059142	0.000066
C104	C	0.146756	0.392476	0.333400
C105	C	0.480089	0.725809	0.666733
C106	C	0.352846	0.064672	0.045267
C107	C	0.686179	0.398005	0.378601
C108	C	1.019512	0.731338	0.711934
C109	C	0.403261	0.065192	0.045261
C110	C	0.736594	0.398525	0.378595
C111	C	1.069927	0.731859	0.711928
C112	C	0.403257	0.065178	-0.045185
C113	C	0.736590	0.398511	0.288148
C114	C	1.069924	0.731845	0.621481
C115	C	0.352846	0.064660	-0.045180
C116	C	0.686179	0.397994	0.288154
C117	C	1.019512	0.731327	0.621487
C118	C	0.327642	0.064406	0.000051
C119	C	0.660975	0.397739	0.333384
C120	C	0.994308	0.731072	0.666717
O121	O	0.273090	0.063850	-0.083607
O122	O	0.606423	0.397183	0.249726
O123	O	0.939756	0.730516	0.583060
O124	O	0.273056	0.063848	0.083732
O125	O	0.606389	0.397181	0.417065
O126	O	0.939722	0.730515	0.750399
C127	C	0.045331	0.061516	0.045282
C128	C	0.378665	0.394849	0.378615
C129	C	0.711998	0.728182	0.711949
C130	C	0.020127	0.061249	0.000062
C131	C	0.353461	0.394582	0.333395
C132	C	0.686794	0.727916	0.666728
C133	C	0.045335	0.061500	-0.045161
C134	C	0.378668	0.394834	0.288173
C135	C	0.712001	0.728167	0.621506
C136	C	-0.030287	0.060735	0.000063
C137	C	0.303047	0.394069	0.333396
C138	C	0.636380	0.727402	0.666729
C139	C	-0.055494	0.060484	0.045285
C140	C	0.277839	0.393817	0.378618
C141	C	0.611173	0.727151	0.711952
C142	C	-0.030287	0.060746	0.090506
C143	C	0.303047	0.394080	0.423839
C144	C	0.636380	0.727413	0.757173
C145	C	0.020124	0.061264	0.090504
C146	C	0.353458	0.394598	0.423837
C147	C	0.686791	0.727931	0.757171
C148	C	0.020128	0.061238	-0.090382
C149	C	0.353461	0.394572	0.242952
C150	C	0.686794	0.727905	0.576285
C151	C	-0.030284	0.060721	-0.090376
C152	C	0.303050	0.394054	0.242957
C153	C	0.636383	0.727387	0.576291
C154	C	-0.055491	0.060469	-0.045154
C155	C	0.277843	0.393803	0.288180
C156	C	0.611176	0.727136	0.621513
C157	C	0.574737	-0.026628	0.000069
C158	C	0.908070	0.306706	0.333402
C159	C	1.241403	0.640039	0.666736
C160	C	0.574194	-0.080284	0.000074
C161	C	0.907527	0.253050	0.333407
C162	C	1.240861	0.586383	0.666741
C163	C	0.570787	-0.413006	-0.045172
C164	C	0.904120	-0.079672	0.288162
C165	C	1.237454	0.253661	0.621495
C166	C	0.568726	-0.614663	-0.045181
C167	C	0.902059	-0.281330	0.288152
C168	C	1.235393	0.052003	0.621486
O169	O	0.568445	-0.640739	-0.083640
O170	O	0.901778	-0.307406	0.249693
O171	O	1.235112	0.025927	0.583027
N172	N	0.568462	-0.639874	0.000040
N173	N	0.901795	-0.306541	0.333373
N174	N	1.235129	0.026792	0.666706
C175	C	0.568711	-0.614667	0.045266
C176	C	0.902044	-0.281334	0.378599
C177	C	1.235377	0.052000	0.711933
O178	O	0.568434	-0.640737	0.083729
O179	O	0.901767	-0.307404	0.417062
O180	O	1.235101	0.025930	0.750395
C181	C	0.570768	-0.413010	0.045274
C182	C	0.904102	-0.079676	0.378608
C183	C	1.237435	0.253657	0.711941
C184	C	0.571037	-0.387802	0.000051
C185	C	0.904370	-0.054469	0.333384
C186	C	1.237703	0.278864	0.666717
C187	C	0.571055	-0.387798	-0.090392
C188	C	0.904388	-0.054465	0.242942
C189	C	1.237722	0.278869	0.576275
C190	C	0.571573	-0.337387	-0.090389
C191	C	0.904906	-0.004053	0.242944
C192	C	1.238240	0.329280	0.576278
C193	C	0.571823	-0.312183	-0.045166
C194	C	0.905156	0.021150	0.288167
C195	C	1.238489	0.354483	0.621500
C196	C	0.571555	-0.337391	0.000054
C197	C	0.904888	-0.004058	0.333387
C198	C	1.238221	0.329276	0.666720
C199	C	0.571013	-0.387803	0.090500
C200	C	0.904346	-0.054470	0.423833
C201	C	1.237680	0.278864	0.757167
C202	C	0.571526	-0.337385	0.090498
C203	C	0.904860	-0.004052	0.423831
C204	C	1.238193	0.329281	0.757165
C205	C	0.571795	-0.312178	0.045274
C206	C	0.905128	0.021156	0.378608
C207	C	1.238462	0.354489	0.711941
C208	C	0.572322	-0.261777	0.045279
C209	C	0.905656	0.071557	0.378612
C210	C	1.238989	0.404890	0.711946
N211	N	0.572586	-0.236566	0.000058
N212	N	0.905919	0.096768	0.333392
N213	N	1.239253	0.430101	0.666725
C214	C	0.572336	-0.261769	-0.045164
C215	C	0.905670	0.071564	0.288169
C216	C	1.239003	0.404897	0.621502
C217	C	0.567631	-0.720540	0.045258
C218	C	0.900965	-0.387207	0.378592
C219	C	1.234298	-0.053874	0.711925
C220	C	0.567118	-0.770955	0.045256
C221	C	0.900451	-0.437621	0.378590
C222	C	1.233784	-0.104288	0.711923
C223	C	0.567132	-0.770947	-0.045191
C224	C	0.900465	-0.437614	0.288143
C225	C	1.233799	-0.104281	0.621476
C226	C	0.567649	-0.720533	-0.045188
C227	C	0.900982	-0.387199	0.288145
C228	C	1.234316	-0.053866	0.621479
C229	C	0.567895	-0.695329	0.000038
C230	C	0.901228	-0.361996	0.333371
C231	C	1.234562	-0.028663	0.666704
C232	C	0.573424	-0.155902	-0.045155
C233	C	0.906758	0.177431	0.288178
C234	C	1.240091	0.510764	0.621511
C235	C	0.573944	-0.105487	-0.045149
C236	C	0.907278	0.227846	0.288185
C237	C	1.240611	0.561180	0.621518
C238	C	0.573927	-0.105499	0.045298
C239	C	0.907261	0.227835	0.378631
C240	C	1.240594	0.561168	0.711965
C241	C	0.573410	-0.155910	0.045292
C242	C	0.906743	0.177424	0.378625
C243	C	1.240077	0.510757	0.711958
C244	C	0.573157	-0.181110	0.000061
C245	C	0.906490	0.152223	0.333394
C246	C	1.239823	0.485556	0.666728
O247	O	0.572598	-0.235669	0.083718
O248	O	0.905931	0.097664	0.417051
O249	O	1.239265	0.430998	0.750384
O250	O	0.572602	-0.235689	-0.083621
O251	O	0.905935	0.097644	0.249712
O252	O	1.239269	0.430977	0.583045
C253	C	0.570269	-0.463417	-0.045175
C254	C	0.903602	-0.130083	0.288159
C255	C	1.236936	0.203250	0.621492
C256	C	0.570001	-0.488624	0.000045
C257	C	0.903334	-0.155291	0.333379
C258	C	1.236668	0.178042	0.666712
C259	C	0.570251	-0.463421	0.045268
C260	C	0.903584	-0.130088	0.378601
C261	C	1.236918	0.203246	0.711935
C262	C	0.569487	-0.539039	0.000043
C263	C	0.902821	-0.205705	0.333377
C264	C	1.236154	0.127628	0.666710
C265	C	0.569238	-0.564242	-0.045179
C266	C	0.902571	-0.230909	0.288154
C267	C	1.235904	0.102425	0.621487
C268	C	0.569501	-0.539031	-0.090400
C269	C	0.902835	-0.205698	0.242933
C270	C	1.236168	0.127636	0.576267
C271	C	0.570019	-0.488620	-0.090397
C272	C	0.903352	-0.155287	0.242936
C273	C	1.236686	0.178047	0.576270
C274	C	0.569987	-0.488632	0.090489
C275	C	0.903321	-0.155298	0.423822
C276	C	1.236654	0.178035	0.757155
C277	C	0.569470	-0.539043	0.090482
C278	C	0.902803	-0.205710	0.423816
C279	C	1.236136	0.127624	0.757149
C280	C	0.569220	-0.564246	0.045260
C281	C	0.902553	-0.230913	0.378593
C282	C	1.235887	0.102420	0.711926
C283	C	0.658938	0.057573	0.000066
C284	C	0.992271	0.390906	0.333399
C285	C	1.325604	0.724239	0.666732
C286	C	0.712594	0.058115	0.000069
C287	C	1.045927	0.391448	0.333402
C288	C	1.379261	0.724782	0.666735
C289	C	0.566325	0.150186	0.000042
C290	C	0.899658	0.483519	0.333375
C291	C	1.232992	0.816853	0.666709
C292	C	0.566868	0.203842	0.000034
C293	C	0.900201	0.537175	0.333367
C294	C	1.233535	0.870509	0.666700
N295	N	0.570513	0.061797	0.129303
N296	N	0.903846	0.395130	0.462637
N297	N	1.237179	0.728463	0.795970
N298	N	0.570553	0.061758	-0.129191
N299	N	0.903887	0.395091	0.204142
N300	N	1.237220	0.728425	0.537476
C301	C	0.603651	0.028665	0.473938
C302	C	0.936984	0.361998	0.807271
C303	C	1.270318	0.695331	1.140605
C304	C	0.603663	0.028657	0.682816
C305	C	0.936996	0.361990	1.016149
C306	C	1.270329	0.695324	1.349483
O307	O	0.631818	0.000490	0.709827
O308	O	0.965152	0.333823	1.043161
O309	O	1.298485	0.667157	1.376494
N310	N	0.570543	0.061761	0.708930
N311	N	0.903876	0.395094	1.042264
N312	N	1.237210	0.728428	1.375597
C313	C	0.537416	0.094867	0.682822
C314	C	0.870749	0.428200	1.016155
C315	C	1.204083	0.761534	1.349489
O316	O	0.509243	0.123020	0.709827
O317	O	0.842576	0.456354	1.043160
O318	O	1.175909	0.789687	1.376494
C319	C	0.537403	0.094872	0.473945
C320	C	0.870736	0.428205	0.807279
C321	C	1.204069	0.761538	1.140612
C322	C	0.570528	0.061769	0.447834
C323	C	0.903861	0.395102	0.781167
C324	C	1.237194	0.728436	1.114500
C325	C	0.636773	-0.004436	0.447826
C326	C	0.970106	0.328897	0.781160
C327	C	1.303440	0.662231	1.114493
C328	C	0.636771	-0.004432	0.395610
C329	C	0.970105	0.328901	0.728943
C330	C	1.303438	0.662235	1.062277
C331	C	0.603648	0.028672	0.369506
C332	C	0.936981	0.362006	0.702839
C333	C	1.270315	0.695339	1.036172
C334	C	0.570526	0.061773	0.395617
C335	C	0.903860	0.395106	0.728951
C336	C	1.237193	0.728440	1.062284
C337	C	0.504274	0.127975	0.447838
C338	C	0.837607	0.461308	0.781172
C339	C	1.170941	0.794642	1.114505
C340	C	0.504273	0.127972	0.395616
C341	C	0.837606	0.461306	0.728949
C342	C	1.170939	0.794639	1.062282
C343	C	0.537398	0.094870	0.369504
C344	C	0.870731	0.428203	0.702837
C345	C	1.204064	0.761536	1.036171
C346	C	0.537401	0.094881	0.317297
C347	C	0.870735	0.428215	0.650630
C348	C	1.204068	0.761548	0.983963
N349	N	0.570521	0.061777	0.291182
N350	N	0.903854	0.395111	0.624515
N351	N	1.237188	0.728444	0.957849
C352	C	0.603644	0.028673	0.317287
C353	C	0.936978	0.362006	0.650620
C354	C	1.270311	0.695340	0.983953
C355	C	0.537426	0.094863	0.792485
C356	C	0.870759	0.428196	1.125819
C357	C	1.204093	0.761529	1.459152
C358	C	0.537430	0.094862	0.844704
C359	C	0.870763	0.428196	1.178038
C360	C	1.204097	0.761529	1.511371
C361	C	0.603676	0.028652	0.844694
C362	C	0.937009	0.361985	1.178028
C363	C	1.270343	0.695318	1.511361
C364	C	0.603674	0.028655	0.792475
C365	C	0.937007	0.361988	1.125808
C366	C	1.270341	0.695322	1.459141
C367	C	0.570546	0.061759	0.766371
C368	C	0.903879	0.395092	1.099704
C369	C	1.237212	0.728426	1.433038
C370	C	0.603639	0.028684	0.207629
C371	C	0.936972	0.362017	0.540962
C372	C	1.270306	0.695351	0.874295
C373	C	0.603636	0.028692	0.155408
C374	C	0.936969	0.362026	0.488741
C375	C	1.270303	0.695359	0.822074
C376	C	0.537388	0.094901	0.155422
C377	C	0.870722	0.428234	0.488755
C378	C	1.204055	0.761568	0.822089
C379	C	0.537393	0.094895	0.207639
C380	C	0.870726	0.428228	0.540972
C381	C	1.204060	0.761561	0.874305
C382	C	0.570520	0.061782	0.233740
C383	C	0.903853	0.395115	0.567074
C384	C	1.237187	0.728449	0.900407
O385	O	0.509257	0.123030	0.290253
O386	O	0.842590	0.456363	0.623586
O387	O	1.175923	0.789696	0.956920
O388	O	0.631806	0.000517	0.290273
O389	O	0.965140	0.333850	0.623606
O390	O	1.298473	0.667183	0.956940
C391	C	0.603652	0.028661	0.526154
C392	C	0.936986	0.361994	0.859488
C393	C	1.270319	0.695327	1.192821
C394	C	0.570531	0.061761	0.552266
C395	C	0.903864	0.395094	0.885600
C396	C	1.237197	0.728428	1.218933
C397	C	0.537407	0.094865	0.526162
C398	C	0.870741	0.428199	0.859495
C399	C	1.204074	0.761532	1.192828
C400	C	0.570534	0.061761	0.604485
C401	C	0.903868	0.395094	0.937819
C402	C	1.237201	0.728427	1.271152
C403	C	0.603658	0.028656	0.630590
C404	C	0.936991	0.361989	0.963923
C405	C	1.270324	0.695323	1.297256
C406	C	0.636777	-0.004448	0.604475
C407	C	0.970111	0.328886	0.937809
C408	C	1.303444	0.662219	1.271142
C409	C	0.636776	-0.004444	0.552259
C410	C	0.970109	0.328890	0.885592
C411	C	1.303443	0.662223	1.218926
C412	C	0.504288	0.127969	0.552276
C413	C	0.837621	0.461303	0.885610
C414	C	1.170954	0.794636	1.218943
C415	C	0.504292	0.127963	0.604493
C416	C	0.837626	0.461296	0.937826
C417	C	1.170959	0.794630	1.271159
C418	C	0.537416	0.094859	0.630597
C419	C	0.870749	0.428192	0.963930
C420	C	1.204082	0.761525	1.297264
H421	H	0.191874	0.063033	0.127324
H422	H	0.525208	0.396366	0.460658
H423	H	0.858541	0.729700	0.793991
H424	H	0.663749	-0.031401	0.625738
H425	H	0.997083	0.301932	0.959071
H426	H	1.330416	0.635266	1.292405
N427	N	0.571774	-0.311633	0.136692
N428	N	0.905108	0.021700	0.470025
N429	N	1.238441	0.355033	0.803358
N430	N	0.537973	-0.278781	0.146777
N431	N	0.871306	0.054552	0.480110
N432	N	1.204640	0.387886	0.813444
H433	H	0.538148	-0.260593	0.179401
H434	H	0.871482	0.072740	0.512734
H435	H	1.204815	0.406073	0.846067
N436	N	0.503561	0.128713	0.128744
N437	N	0.836894	0.462047	0.462077
N438	N	1.170227	0.795380	0.795410
N439	N	0.503567	0.128706	0.082120
N440	N	0.836900	0.462040	0.415454
N441	N	1.170234	0.795373	0.748787
H442	H	0.479674	0.152585	0.063277
H443	H	0.813007	0.485918	0.396610
H444	H	1.146341	0.819252	0.729943
H445	H	0.630647	0.001700	0.771217
H446	H	0.963980	0.335033	1.104551
H447	H	1.297314	0.668366	1.437884
H448	H	0.477319	0.154923	0.625749
H449	H	0.810652	0.488257	0.959083
H450	H	1.143985	0.821590	1.292416
N451	N	0.637511	-0.005167	0.871362
N452	N	0.970845	0.328167	1.204695
N453	N	1.304178	0.661500	1.538028
N454	N	0.682187	-0.004832	0.865535
N455	N	1.015521	0.328501	1.198869
N456	N	1.348854	0.661834	1.532202
H457	H	0.706079	-0.028717	0.884372
H458	H	1.039413	0.304616	1.217706
H459	H	1.372746	0.637949	1.551039
H460	H	0.510448	0.121821	0.771235
H461	H	0.843782	0.455155	1.104569
H462	H	1.177115	0.788488	1.437902
N463	N	-0.287952	0.058108	0.091487
N464	N	0.045381	0.391442	0.424820
N465	N	0.378714	0.724775	0.758153
N466	N	-0.277608	0.024077	0.121767
N467	N	0.055725	0.357410	0.455100
N468	N	0.389059	0.690743	0.788433
H469	H	-0.295798	0.023882	0.154389
H470	H	0.037535	0.357216	0.487722
H471	H	0.370869	0.690549	0.821055
N472	N	-0.056041	0.060500	0.136700
N473	N	0.277292	0.393833	0.470034
N474	N	0.610625	0.727166	0.803367
N475	N	-0.088894	0.094301	0.146782
N476	N	0.244439	0.427634	0.480116
N477	N	0.577772	0.760968	0.813449
H478	H	-0.107085	0.094126	0.179405
H479	H	0.226248	0.427459	0.512739
H480	H	0.559581	0.760793	0.846072
H481	H	0.570238	-0.468100	-0.127223
H482	H	0.903571	-0.134767	0.206110
H483	H	1.236904	0.198566	0.539444
H484	H	-0.282717	0.058157	-0.081979
H485	H	0.050617	0.391490	0.251354
H486	H	0.383950	0.724823	0.584687
N487	N	0.637466	-0.005125	0.128728
N488	N	0.970799	0.328209	0.462062
N489	N	1.304132	0.661542	0.795395
N490	N	0.637462	-0.005121	0.082105
N491	N	0.970795	0.328212	0.415438
N492	N	1.304128	0.661546	0.748771
H493	H	0.661352	-0.029004	0.063263
H494	H	0.994685	0.304329	0.396596
H495	H	1.328019	0.637662	0.729929
H496	H	0.510462	0.121822	0.865961
H497	H	0.843795	0.455156	1.199294
H498	H	1.177128	0.788489	1.532628
H499	H	0.569300	-0.559561	-0.127222
H500	H	0.902633	-0.226227	0.206112
H501	H	1.235967	0.107106	0.539445
N502	N	-0.056019	0.060454	-0.136579
N503	N	0.277315	0.393787	0.196754
N504	N	0.610648	0.727120	0.530087
N505	N	-0.033500	0.060678	-0.176951
N506	N	0.299833	0.394011	0.156383
N507	N	0.633166	0.727345	0.489716
H508	H	-0.051673	0.060486	-0.209581
H509	H	0.281660	0.393820	0.123752
H510	H	0.614993	0.727153	0.457085
H511	H	0.574164	-0.084966	-0.081977
H512	H	0.907497	0.248368	0.251357
H513	H	1.240831	0.581701	0.584690
N514	N	0.095203	0.062059	0.136699
N515	N	0.428536	0.395392	0.470032
N516	N	0.761869	0.728725	0.803365
N517	N	0.062358	0.095867	0.146786
N518	N	0.395691	0.429200	0.480119
N519	N	0.729025	0.762534	0.813452
H520	H	0.044179	0.095702	0.179417
H521	H	0.377512	0.429035	0.512750
H522	H	0.710846	0.762368	0.846083
N523	N	0.327090	0.064396	-0.091370
N524	N	0.660424	0.397729	0.241963
N525	N	0.993757	0.731063	0.575297
N526	N	0.294235	0.098190	-0.101467
N527	N	0.627568	0.431524	0.231867
N528	N	0.960902	0.764857	0.565200
H529	H	0.276048	0.098000	-0.134090
H530	H	0.609382	0.431334	0.199244
H531	H	0.942715	0.764667	0.532577
H532	H	0.423779	0.065411	0.082090
H533	H	0.757113	0.398744	0.415423
H534	H	1.090446	0.732078	0.748756
H535	H	0.570191	-0.468116	0.127315
H536	H	0.903525	-0.134783	0.460648
H537	H	1.236858	0.198550	0.793982
H538	H	0.567834	-0.700025	0.082089
H539	H	0.901167	-0.366692	0.415422
H540	H	1.234500	-0.033358	0.748755
H541	H	0.510424	0.121854	0.228899
H542	H	0.843758	0.455188	0.562232
H543	H	1.177091	0.788521	0.895566
N544	N	0.470433	0.161797	0.368960
N545	N	0.803767	0.495130	0.702294
N546	N	1.137100	0.828463	1.035627
N547	N	0.470750	0.206473	0.374798
N548	N	0.804084	0.539807	0.708132
N549	N	1.137417	0.873140	1.041465
H550	H	0.446852	0.230363	0.355974
H551	H	0.780186	0.563697	0.689308
H552	H	1.113519	0.897030	1.022641
H553	H	0.570795	-0.408319	0.127326
H554	H	0.904129	-0.074985	0.460659
H555	H	1.237462	0.258348	0.793993
N556	N	0.197123	0.063022	-0.136587
N557	N	0.530456	0.396355	0.196746
N558	N	0.863789	0.729688	0.530080
N559	N	0.196213	0.028869	-0.166857
N560	N	0.529546	0.362202	0.166477
N561	N	0.862880	0.695536	0.499810
H562	H	0.214397	0.029041	-0.199484
H563	H	0.547731	0.362374	0.133849
H564	H	0.881064	0.695708	0.467183
N565	N	0.566888	-0.796696	-0.091387
N566	N	0.900221	-0.463363	0.241947
N567	N	1.233554	-0.130029	0.575280
N568	N	0.600692	-0.829545	-0.101473
N569	N	0.934025	-0.496212	0.231861
N570	N	1.267358	-0.162879	0.565194
H571	H	0.600518	-0.847732	-0.134097
H572	H	0.933852	-0.514398	0.199236
H573	H	1.267185	-0.181065	0.532569
N574	N	0.429021	0.065431	-0.091371
N575	N	0.762354	0.398764	0.241962
N576	N	1.095687	0.732098	0.575296
N577	N	0.461876	0.031629	-0.101447
N578	N	0.795209	0.364963	0.231886
N579	N	1.128542	0.698296	0.565220
H580	H	0.480074	0.031805	-0.134066
H581	H	0.813408	0.365139	0.199268
H582	H	1.146741	0.698472	0.532601
H583	H	0.630614	0.001720	0.228875
H584	H	0.963947	0.335054	0.562208
H585	H	1.297280	0.668387	0.895542
H586	H	0.477314	0.154926	0.531026
H587	H	0.810647	0.488260	0.864359
H588	H	1.143981	0.821593	1.197693
N589	N	0.470437	0.161796	0.474494
N590	N	0.803770	0.495129	0.807828
N591	N	1.137103	0.828462	1.141161
N592	N	0.440867	0.191347	0.451170
N593	N	0.774201	0.524680	0.784504
N594	N	1.107534	0.858013	1.117837
H595	H	0.416968	0.215236	0.469995
H596	H	0.750301	0.548569	0.803328
H597	H	1.083635	0.881902	1.136662
N598	N	0.569200	-0.564797	0.136676
N599	N	0.902533	-0.231464	0.470009
N600	N	1.235867	0.101869	0.803343
N601	N	0.602993	-0.597652	0.146776
N602	N	0.936327	-0.264319	0.480109
N603	N	1.269660	0.069014	0.813442
H604	H	0.602799	-0.615841	0.179399
H605	H	0.936133	-0.282507	0.512732
H606	H	1.269466	0.050826	0.846065
N607	N	0.045867	0.061523	0.136700
N608	N	0.379200	0.394857	0.470033
N609	N	0.712534	0.728190	0.803367
N610	N	0.078715	0.027723	0.146799
N611	N	0.412048	0.361056	0.480133
N612	N	0.745381	0.694389	0.813466
H613	H	0.096893	0.027904	0.179428
H614	H	0.430227	0.361237	0.512761
H615	H	0.763560	0.694570	0.846094
N616	N	0.670616	-0.038261	0.525598
N617	N	1.003949	0.295072	0.858932
N618	N	1.337282	0.628406	1.192265
N619	N	0.700185	-0.067814	0.548921
N620	N	1.033518	0.265519	0.882254
N621	N	1.366851	0.598853	1.215587
H622	H	0.724086	-0.091700	0.530095
H623	H	1.057419	0.241633	0.863428
H624	H	1.390752	0.574966	1.196762
H625	H	0.332330	0.064469	0.082098
H626	H	0.665663	0.397802	0.415431
H627	H	0.998996	0.731135	0.748765
N628	N	0.573164	-0.181631	-0.091361
N629	N	0.906497	0.151702	0.241972
N630	N	1.239830	0.485035	0.575306
N631	N	0.573403	-0.159110	-0.131729
N632	N	0.906736	0.174223	0.201604
N633	N	1.240070	0.507556	0.534938
H634	H	0.573221	-0.177281	-0.164362
H635	H	0.906555	0.156052	0.168971
H636	H	1.239888	0.489385	0.502304
N637	N	-0.186050	0.059174	0.091491
N638	N	0.147283	0.392508	0.424824
N639	N	0.480617	0.725841	0.758157
N640	N	-0.208569	0.058956	0.131862
N641	N	0.124764	0.392290	0.465195
N642	N	0.458097	0.725623	0.798529
H643	H	-0.190397	0.059155	0.164493
H644	H	0.142936	0.392488	0.497826
H645	H	0.476269	0.725822	0.831159
N646	N	0.566854	-0.796694	0.091456
N647	N	0.900188	-0.463361	0.424789
N648	N	1.233521	-0.130028	0.758122
N649	N	0.567077	-0.774179	0.131827
N650	N	0.900411	-0.440846	0.465160
N651	N	1.233744	-0.107512	0.798494
H652	H	0.566889	-0.792356	0.164458
H653	H	0.900223	-0.459022	0.497791
H654	H	1.233556	-0.125689	0.831124
N655	N	-0.186048	0.059132	-0.091359
N656	N	0.147286	0.392465	0.241974
N657	N	0.480619	0.725798	0.575307
N658	N	-0.208566	0.058898	-0.131728
N659	N	0.124768	0.392231	0.201605
N660	N	0.458101	0.725564	0.534939
H661	H	-0.190392	0.059077	-0.164361
H662	H	0.142942	0.392410	0.168973
H663	H	0.476275	0.725744	0.502306
N664	N	0.670646	-0.038215	0.368949
N665	N	1.003979	0.295118	0.702283
N666	N	1.337312	0.628452	1.035616
N667	N	0.700238	-0.067745	0.392272
N668	N	1.033571	0.265589	0.725605
N669	N	1.366904	0.598922	1.058938
H670	H	0.724176	-0.091593	0.373446
H671	H	1.057509	0.241740	0.706779
H672	H	1.390843	0.575073	1.040113
H673	H	0.571790	-0.316867	-0.127215
H674	H	0.905123	0.016466	0.206119
H675	H	1.238456	0.349800	0.539452
N676	N	0.095227	0.061995	-0.136592
N677	N	0.428560	0.395328	0.196741
N678	N	0.761893	0.728662	0.530075
N679	N	0.117749	0.062217	-0.176961
N680	N	0.451082	0.395551	0.156372
N681	N	0.784416	0.728884	0.489705
H682	H	0.099579	0.062027	-0.209594
H683	H	0.432912	0.395360	0.123740
H684	H	0.766245	0.728694	0.457073
H685	H	0.573196	-0.176435	0.082116
H686	H	0.906529	0.156898	0.415450
H687	H	1.239862	0.490231	0.748783
N688	N	0.045864	0.061492	-0.136582
N689	N	0.379198	0.394826	0.196751
N690	N	0.712531	0.728159	0.530084
N691	N	0.023347	0.061257	-0.176951
N692	N	0.356681	0.394590	0.156382
N693	N	0.690014	0.727923	0.489716
H694	H	0.041521	0.061438	-0.209584
H695	H	0.374855	0.394772	0.123750
H696	H	0.708188	0.728105	0.457083
H697	H	0.567867	-0.700012	-0.082013
H698	H	0.901200	-0.366678	0.251320
H699	H	1.234534	-0.033345	0.584653
N700	N	0.570797	-0.413529	-0.136594
N701	N	0.904130	-0.080196	0.196739
N702	N	1.237463	0.253137	0.530073
N703	N	0.571034	-0.391007	-0.176961
N704	N	0.904368	-0.057673	0.156372
N705	N	1.237701	0.275660	0.489705
H706	H	0.570855	-0.409177	-0.209595
H707	H	0.904188	-0.075843	0.123738
H708	H	1.237521	0.257490	0.457071
H709	H	0.574133	-0.084969	0.082117
H710	H	0.907466	0.248364	0.415450
H711	H	1.240800	0.581698	0.748784
N712	N	0.670612	-0.038260	0.474478
N713	N	1.003945	0.295074	0.807812
N714	N	1.337279	0.628407	1.141145
N715	N	0.700178	-0.067809	0.451148
N716	N	1.033512	0.265524	0.784481
N717	N	1.366845	0.598858	1.117815
H718	H	0.724081	-0.091698	0.469967
H719	H	1.057415	0.241635	0.803301
H720	H	1.390748	0.574969	1.136634
