data_functionalizedCrystal
_audit_creation_method	'MofGen! by Chris Wilmer'
_symmetry_space_group_name_H-M	'P1'
_symmetry_Int_Tables_number	1
_symmetry_cell_setting	triclinic
loop_
_symmetry_equiv_pos_as_xyz
  x,y,z
_cell_length_a	15.995292
_cell_length_b	16.109301
_cell_length_c	15.186229
_cell_angle_alpha	89.999362
_cell_angle_beta	90.006747
_cell_angle_gamma	96.534951
loop_
_atom_site_label
_atom_site_type_symbol
_atom_site_fract_x
_atom_site_fract_y
_atom_site_fract_z
O1	O	-0.107627	1.103137	-0.073179
O2	O	0.392373	1.603137	0.426821
O3	O	-0.121021	0.861076	-0.073194
O4	O	0.378979	1.361076	0.426806
O5	O	0.007569	0.988749	-0.073173
O6	O	0.507569	1.488749	0.426827
O7	O	-0.236217	0.975465	-0.073199
O8	O	0.263783	1.475465	0.426801
O9	O	0.007571	0.988740	0.073284
O10	O	0.507571	1.488740	0.573284
O11	O	-0.121019	0.861068	0.073264
O12	O	0.378981	1.361068	0.573264
O13	O	-0.107625	1.103129	0.073278
O14	O	0.392375	1.603129	0.573278
Zn15	Zn	-0.114322	0.982097	0.096524
Zn16	Zn	0.385678	1.482097	0.596524
Zn17	Zn	-0.114324	0.982108	-0.096439
Zn18	Zn	0.385676	1.482108	0.403561
O19	O	-0.236215	0.975456	0.073258
O20	O	0.263785	1.475456	0.573258
C21	C	-0.120478	0.830097	0.000033
C22	C	0.379522	1.330097	0.500033
C23	C	-0.118851	0.737802	0.000028
C24	C	0.381149	1.237802	0.500028
C25	C	-0.191371	0.515534	0.000031
C26	C	0.308629	1.015534	0.500031
C27	C	-0.189836	0.428813	0.000037
C28	C	0.310164	0.928813	0.500037
C29	C	-0.037269	0.448678	0.000049
C30	C	0.462731	0.948678	0.500049
C31	C	-0.038805	0.535397	0.000050
C32	C	0.461195	1.035397	0.500050
C33	C	-0.115858	0.568822	0.000036
C34	C	0.384142	1.068822	0.500036
C35	C	-0.112788	0.395383	0.000041
C36	C	0.387212	0.895383	0.500041
C37	C	-0.111123	0.301357	0.000048
C38	C	0.388877	0.801357	0.500048
C39	C	-0.117524	0.662854	0.000031
C40	C	0.382476	1.162854	0.500031
C41	C	-0.267411	0.976001	0.000026
C42	C	0.232589	1.476001	0.500026
C43	C	-0.360364	0.977622	0.000017
C44	C	0.139636	1.477622	0.500017
C45	C	-0.698101	0.983581	0.000045
C46	C	-0.198101	1.483581	0.500045
C47	C	-0.674813	0.891430	0.000364
C48	C	-0.174813	1.391430	0.500364
C49	C	-0.578138	0.889679	0.000025
C50	C	-0.078138	1.389679	0.500025
C51	C	-0.530546	0.980624	0.000032
C52	C	-0.030546	1.480624	0.500032
C53	C	-0.559646	1.026700	-0.083595
C54	C	-0.059646	1.526700	0.416405
C55	C	-0.656437	1.027809	-0.083656
C56	C	-0.156437	1.527809	0.416344
C57	C	-0.656268	1.029681	0.082894
C58	C	-0.156268	1.529681	0.582894
C59	C	-0.559777	1.026266	0.083990
C60	C	-0.059777	1.526266	0.583990
C61	C	-0.435850	0.978958	0.000021
C62	C	0.064150	1.478958	0.500021
C63	C	-0.792796	0.985250	0.000050
C64	C	-0.292796	1.485250	0.500050
C65	C	0.038765	0.988204	0.000057
C66	C	0.538765	1.488204	0.500057
C67	C	0.131718	0.986583	0.000061
C68	C	0.631718	1.486583	0.500061
C69	C	-0.108169	1.134108	0.000050
C70	C	0.391831	1.634108	0.500050
C71	C	-0.109795	1.226403	0.000049
C72	C	0.390205	1.726403	0.500049
N73	N	-0.114320	0.982095	0.228217
N74	N	0.385680	1.482095	0.728217
N75	N	-0.114320	0.982116	-0.228132
N76	N	0.385680	1.482116	0.271868
C77	C	-0.057399	1.038648	0.453949
C78	C	0.442601	1.538648	0.953949
C79	C	-0.057397	1.038651	0.546138
C80	C	0.442603	1.538651	1.046138
C81	C	-0.171243	0.925558	0.546130
C82	C	0.328757	1.425558	1.046130
C83	C	-0.171240	0.925552	0.453942
C84	C	0.328760	1.425552	0.953942
C85	C	-0.114319	0.982102	0.407854
C86	C	0.385681	1.482102	0.907854
C87	C	-0.114320	0.982110	0.592231
C88	C	0.385680	1.482110	1.092231
C89	C	-0.114318	0.982112	0.692187
C90	C	0.385682	1.482112	1.192187
C91	C	-0.114320	0.982098	0.307891
C92	C	0.385680	1.482098	0.807891
H93	H	-0.254113	0.542745	0.000026
H94	H	0.245887	1.042745	0.500026
O95	O	-0.673043	1.110569	0.083469
O96	O	-0.173043	1.610569	0.583469
C97	C	-0.722300	1.125498	0.009366
C98	C	-0.222300	1.625498	0.509366
H99	H	-0.756920	1.063919	-0.014734
H100	H	-0.256920	1.563919	0.485266
H101	H	-0.769979	1.169910	0.028210
H102	H	-0.269979	1.669910	0.528210
H103	H	-0.679835	1.154737	-0.045299
H104	H	-0.179835	1.654737	0.454701
H105	H	-0.011050	1.084693	0.416426
H106	H	0.488950	1.584693	0.916426
H107	H	-0.217592	0.879501	0.416408
H108	H	0.282408	1.379501	0.916408
H109	H	-0.011047	1.084695	0.583667
H110	H	0.488953	1.584695	1.083667
H111	H	-0.702816	0.855906	0.060336
H112	H	-0.202816	1.355906	0.560336
O113	O	-0.263267	0.377168	-0.000011
O114	O	0.236733	0.877168	0.499989
C115	C	-0.331601	0.425270	0.000001
C116	C	0.168399	0.925270	0.500001
H117	H	-0.310331	0.489997	-0.027726
H118	H	0.189669	0.989997	0.472274
H119	H	-0.384510	0.393268	-0.042524
H120	H	0.115490	0.893268	0.457476
H121	H	-0.355219	0.431441	0.070261
H122	H	0.144781	0.931441	0.570261
O123	O	0.037504	0.416068	0.000016
O124	O	0.537504	0.916068	0.500016
C125	C	0.022669	0.328101	0.000034
C126	C	0.522669	0.828101	0.500034
H127	H	-0.042681	0.307722	-0.027698
H128	H	0.457319	0.807722	0.472302
H129	H	0.071968	0.301488	-0.042484
H130	H	0.571968	0.801488	0.457516
H131	H	0.026725	0.303960	0.070297
H132	H	0.526725	0.803960	0.570297
O133	O	-0.226507	0.870714	0.591038
O134	O	0.273493	1.370714	1.091038
C135	C	-0.214293	0.882831	0.682290
C136	C	0.285707	1.382831	1.182290
H137	H	-0.183015	0.948935	0.694880
H138	H	0.316985	1.448935	1.194880
H139	H	-0.277704	0.873571	0.717315
H140	H	0.222296	1.373571	1.217315
H141	H	-0.172286	0.835785	0.708465
H142	H	0.327714	1.335785	1.208465
H143	H	-0.559115	0.853586	0.059965
H144	H	-0.059115	1.353586	0.559965
O145	O	0.034631	0.587049	0.000014
O146	O	0.534631	1.087049	0.500014
C147	C	0.102969	0.538954	0.000041
C148	C	0.602969	1.038954	0.500041
H149	H	0.081704	0.474226	-0.027691
H150	H	0.581704	0.974226	0.472309
H151	H	0.155874	0.570961	-0.042474
H152	H	0.655874	1.070961	0.457526
H153	H	0.126591	0.532784	0.070306
H154	H	0.626591	1.032784	0.570306
O155	O	-0.709465	0.849427	-0.070859
O156	O	-0.209465	1.349427	0.429141
C157	C	-0.754715	0.902947	-0.120958
C158	C	-0.254715	1.402947	0.379042
H159	H	-0.729565	0.970691	-0.106721
H160	H	-0.229565	1.470691	0.393279
H161	H	-0.746949	0.889415	-0.194002
H162	H	-0.246949	1.389415	0.305998
H163	H	-0.824220	0.892014	-0.102664
H164	H	-0.324220	1.392014	0.397336
H165	H	-0.684527	1.000812	0.146283
H166	H	-0.184527	1.500812	0.646283
H167	H	-0.541210	0.992717	0.145856
H168	H	-0.041210	1.492717	0.645856
H169	H	-0.527760	1.093624	-0.086700
H170	H	-0.027760	1.593624	0.413300
H171	H	-0.559752	0.853391	-0.060036
H172	H	-0.059752	1.353391	0.439964
O173	O	-0.688343	0.989826	-0.158323
O174	O	-0.188343	1.489826	0.341677
C175	C	-0.652844	1.033208	-0.232452
C176	C	-0.152844	1.533208	0.267548
H177	H	-0.590167	1.069645	-0.213370
H178	H	-0.090167	1.569645	0.286630
H179	H	-0.642150	0.986672	-0.286717
H180	H	-0.142150	1.486672	0.213283
H181	H	-0.697506	1.078386	-0.257212
H182	H	-0.197506	1.578386	0.242788
O183	O	-0.673891	1.108370	-0.088302
O184	O	-0.173891	1.608370	0.411698
C185	C	-0.721265	1.119280	-0.164889
C186	C	-0.221265	1.619280	0.335111
H187	H	-0.754746	1.056375	-0.186672
H188	H	-0.254746	1.556375	0.313328
H189	H	-0.769840	1.164024	-0.150326
H190	H	-0.269840	1.664024	0.349674
H191	H	-0.677520	1.146265	-0.219597
H192	H	-0.177520	1.646265	0.280403
H193	H	-0.526785	1.092645	0.089048
H194	H	-0.026785	1.592645	0.589048
O195	O	-0.535857	0.988420	-0.157828
O196	O	-0.035857	1.488420	0.342172
C197	C	-0.572917	0.904715	-0.158788
C198	C	-0.072917	1.404715	0.341212
H199	H	-0.631493	0.898240	-0.115460
H200	H	-0.131493	1.398240	0.384540
H201	H	-0.591197	0.885725	-0.229126
H202	H	-0.091197	1.385725	0.270874
H203	H	-0.526033	0.862495	-0.132557
H204	H	-0.026033	1.362495	0.367443
