data_functionalizedCrystal
_audit_creation_method	'MofGen! by Chris Wilmer'
_symmetry_space_group_name_H-M	'P1'
_symmetry_Int_Tables_number	1
_symmetry_cell_setting	triclinic
loop_
_symmetry_equiv_pos_as_xyz
  x,y,z
_cell_length_a	19.188930
_cell_length_b	15.995350
_cell_length_c	17.666332
_cell_angle_alpha	90.005705
_cell_angle_beta	89.988397
_cell_angle_gamma	96.681422
loop_
_atom_site_label
_atom_site_type_symbol
_atom_site_fract_x
_atom_site_fract_y
_atom_site_fract_z
O1	O	0.089997	-1.110662	-0.062893
O2	O	0.101111	-0.866846	-0.062910
O3	O	-0.006084	-0.995790	-0.062886
O4	O	0.197192	-0.981718	-0.062917
O5	O	-0.006089	-0.995767	0.063011
O6	O	0.101105	-0.866823	0.062987
O7	O	0.089992	-1.110639	0.063004
Cu8	Cu	0.095548	-0.988729	0.074491
Cu9	Cu	0.095554	-0.988756	-0.074397
O10	O	0.197186	-0.981695	0.062980
C11	C	0.100648	-0.835641	0.000037
C12	C	0.099271	-0.742696	0.000031
C13	C	-0.032099	-0.995323	0.000065
C14	C	-0.109607	-0.993955	0.000071
C15	C	0.090454	-1.141843	0.000056
C16	C	0.091831	-1.234789	0.000056
C17	C	-0.154338	-1.069615	0.000080
C18	C	-0.227165	-1.068330	0.000068
C19	C	-0.255258	-0.991380	0.000062
C20	C	-0.210517	-0.915710	0.000049
C21	C	-0.137691	-0.916997	0.000053
N22	N	-0.363414	-0.932554	0.042903
N23	N	-0.432596	-0.931336	0.042900
C24	C	-0.474676	-0.987497	0.000046
N25	N	-0.444962	-1.044934	-0.042795
N26	N	-0.375775	-1.046155	-0.042789
C27	C	-0.334224	-0.989976	0.000056
C28	C	-0.598375	-1.061769	0.000041
C29	C	-0.671204	-1.060480	0.000024
C30	C	-0.654553	-0.907859	0.000012
C31	C	-0.581727	-0.909149	0.000022
C32	C	-0.553643	-0.986106	0.000039
C33	C	0.223201	-0.982162	0.000028
C34	C	0.300709	-0.983530	0.000017
N35	N	0.095543	-0.988716	0.179210
C36	C	0.094324	-0.404967	0.000048
C37	C	0.017982	-0.452680	0.000340
C38	C	0.019360	-0.549365	0.000051
C39	C	0.096778	-0.572518	0.000040
C40	C	0.134436	-0.531306	-0.071856
C41	C	0.132518	-0.434677	-0.071911
C42	C	0.134089	-0.434307	0.071257
C43	C	0.134070	-0.531252	0.072202
C44	C	0.098169	-0.667211	0.000033
C45	C	0.092936	-0.310274	0.000049
N46	N	0.095554	-0.988775	-0.179116
C47	C	0.048100	-1.045831	0.218830
C48	C	0.048097	-1.045836	0.298078
C49	C	0.095548	-0.988734	0.337702
C50	C	0.142994	-0.931609	0.298073
C51	C	0.142991	-0.931600	0.218827
N52	N	0.157327	-0.977850	0.462111
N53	N	0.157328	-0.977863	0.537392
C54	C	0.095558	-0.988756	0.576466
N55	N	0.033785	-0.999652	0.537417
N56	N	0.033785	-0.999643	0.462129
C57	C	0.095556	-0.988737	0.423632
C58	C	0.048108	-1.045879	0.702016
C59	C	0.048103	-1.045878	0.781265
C60	C	0.143007	-0.931655	0.781258
C61	C	0.143005	-0.931652	0.702011
C62	C	0.095556	-0.988769	0.662394
H63	H	-0.131477	-1.132280	0.000092
O64	O	0.103346	-0.565218	-0.135759
C65	C	0.102434	-0.565975	-0.272153
C66	C	0.137719	-0.527508	-0.199848
H67	H	0.130201	-0.535490	-0.323987
H68	H	0.105975	-0.636621	-0.273104
H69	H	0.044963	-0.554251	-0.272892
H70	H	0.195202	-0.539169	-0.199062
H71	H	0.134122	-0.456874	-0.198925
O72	O	0.001937	-1.101270	0.663536
C73	C	-0.119423	-1.150844	0.639262
C74	C	-0.067227	-1.088056	0.682888
H75	H	-0.175354	-1.140194	0.654904
H76	H	-0.111303	-1.141007	0.575814
H77	H	-0.110249	-1.217864	0.654812
H78	H	-0.076370	-1.021011	0.667402
H79	H	-0.075359	-1.097966	0.746325
H80	H	-0.575508	-1.124432	0.000052
H81	H	-0.263592	-1.129943	0.000072
O82	O	0.201282	-0.396314	0.071803
C83	C	0.324096	-0.414925	0.070156
C84	C	0.248037	-0.458057	0.069521
H85	H	0.361918	-0.464825	0.068327
H86	H	0.333174	-0.372062	0.018679
H87	H	0.333502	-0.375947	0.123993
H88	H	0.238577	-0.497079	0.015718
H89	H	0.238996	-0.500870	0.121034
O90	O	-0.237885	-0.841014	-0.000057
C91	C	-0.310400	-0.750980	-0.065315
C92	C	-0.279466	-0.835614	-0.065276
H93	H	-0.344013	-0.746579	-0.118047
H94	H	-0.344134	-0.746538	-0.012664
H95	H	-0.265905	-0.697136	-0.065283
H96	H	-0.323917	-0.889507	-0.065334
H97	H	-0.245713	-0.839983	-0.117922
H98	H	-0.012536	-0.434261	0.051900
O99	O	0.189018	-0.876025	0.336527
C100	C	0.229882	-0.730292	0.360760
C101	C	0.177712	-0.793154	0.317178
H102	H	0.220769	-0.663277	0.345120
H103	H	0.221736	-0.740038	0.424214
H104	H	0.285804	-0.741031	0.345170
H105	H	0.121769	-0.782453	0.332704
H106	H	0.185919	-0.783393	0.253734
H107	H	0.181640	-0.885147	0.669750
O108	O	-0.681717	-0.833035	-0.000027
C109	C	-0.657517	-0.681794	0.000008
C110	C	-0.626657	-0.766474	0.000039
H111	H	-0.613016	-0.627958	0.000077
H112	H	-0.691157	-0.677328	-0.052695
H113	H	-0.691233	-0.677412	0.052680
H114	H	-0.592910	-0.770913	-0.052598
H115	H	-0.593057	-0.770905	0.052777
H116	H	-0.101270	-0.855384	0.000046
H117	H	0.188567	-0.402224	-0.075181
O118	O	-0.538243	-0.835673	-0.000113
C119	C	-0.446317	-0.748587	-0.065314
C120	C	-0.495532	-0.831824	-0.065262
H121	H	-0.411762	-0.745455	-0.117974
H122	H	-0.478868	-0.693334	-0.065369
H123	H	-0.411849	-0.745374	-0.012601
H124	H	-0.530010	-0.835118	-0.117966
H125	H	-0.462939	-0.887037	-0.065167
H126	H	0.191313	-0.545223	-0.074537
H127	H	-0.707624	-1.122095	0.000027
O128	O	0.104331	-0.410112	0.136354
C129	C	0.047113	-0.454355	0.253482
C130	C	0.080808	-0.481832	0.179786
H131	H	0.028073	-0.512326	0.288610
H132	H	0.087532	-0.411694	0.287234
H133	H	0.000741	-0.418695	0.239131
H134	H	0.127174	-0.517526	0.194069
H135	H	0.040345	-0.524452	0.146055
H136	H	-0.010241	-0.577893	0.051589
H137	H	0.190526	-0.546410	0.076537
H138	H	0.181625	-0.885089	0.186567
H139	H	-0.012390	-0.433207	-0.050926
H140	H	-0.010436	-0.577342	-0.051568
H141	H	0.105061	-0.416479	-0.125647
H142	H	0.009463	-1.092337	0.186577
O143	O	0.001980	-1.101397	0.336459
C144	C	-0.092180	-1.214652	0.328108
C145	C	-0.039978	-1.151793	0.284552
H146	H	-0.126127	-1.255402	0.286160
H147	H	-0.062051	-1.256426	0.365175
H148	H	-0.127043	-1.178617	0.365244
H149	H	-0.005102	-1.187759	0.247375
H150	H	-0.070151	-1.110020	0.247532
H151	H	0.106581	-0.558660	0.125391
O152	O	0.189032	-0.876069	0.819705
C153	C	0.229902	-0.730336	0.843928
C154	C	0.177729	-0.793199	0.800349
H155	H	0.220792	-0.663322	0.828283
H156	H	0.221756	-0.740076	0.907383
H157	H	0.285824	-0.741080	0.828339
H158	H	0.121787	-0.782493	0.815875
H159	H	0.185936	-0.783443	0.736905
H160	H	0.009466	-1.092386	0.813524
