data_functionalizedCrystal
_audit_creation_method	'MofGen! by Chris Wilmer'
_symmetry_space_group_name_H-M	'P1'
_symmetry_Int_Tables_number	1
_symmetry_cell_setting	triclinic
loop_
_symmetry_equiv_pos_as_xyz
  x,y,z
_cell_length_a	10.654550
_cell_length_b	15.944551
_cell_length_c	9.730223
_cell_angle_alpha	89.994648
_cell_angle_beta	89.999957
_cell_angle_gamma	83.991834
loop_
_atom_site_label
_atom_site_type_symbol
_atom_site_fract_x
_atom_site_fract_y
_atom_site_fract_z
O1	O	1.666313	0.117976	-0.114191
O2	O	2.166313	0.617976	0.385809
O3	O	1.300689	0.129216	-0.114216
O4	O	1.800689	0.629216	0.385784
O5	O	1.493485	0.001379	-0.114190
O6	O	1.993485	0.501379	0.385810
O7	O	1.473516	0.245813	-0.114216
O8	O	1.973516	0.745813	0.385784
O9	O	1.493473	0.001376	0.114390
O10	O	1.993473	0.501376	0.614390
O11	O	1.300676	0.129213	0.114364
O12	O	1.800676	0.629213	0.614364
O13	O	1.666300	0.117973	0.114389
O14	O	2.166300	0.617973	0.614389
Zn15	Zn	1.483486	0.123592	0.150669
Zn16	Zn	1.983486	0.623592	0.650669
Zn17	Zn	1.483503	0.123597	-0.150495
Zn18	Zn	1.983503	0.623597	0.349505
O19	O	1.473504	0.245810	0.114363
O20	O	1.973504	0.745810	0.614363
C21	C	1.253895	0.128389	0.000071
C22	C	1.753895	0.628389	0.500071
C23	C	1.114484	0.125920	0.000061
C24	C	1.614484	0.625920	0.500061
C25	C	1.034024	0.201189	0.000057
C26	C	1.534024	0.701189	0.500057
C27	C	0.903034	0.198863	0.000081
C28	C	1.403034	0.698863	0.500081
C29	C	0.932975	0.045995	0.000108
C30	C	1.432975	0.545995	0.500108
C31	C	1.063963	0.048321	0.000094
C32	C	1.563963	0.548321	0.500094
C33	C	1.492650	-0.029921	0.000100
C34	C	1.992650	0.470079	0.500100
C35	C	1.490165	-0.123182	0.000100
C36	C	1.990165	0.376818	0.500100
C37	C	1.364720	-0.338764	0.000073
C38	C	1.864720	0.161236	0.500073
C39	C	1.422966	-0.399446	0.112781
C40	C	1.922966	0.100554	0.612781
C41	C	1.485668	-0.293933	0.000090
C42	C	1.985668	0.206067	0.500090
C43	C	1.423007	-0.399426	-0.112581
C44	C	1.923007	0.100574	0.387419
C45	C	1.481317	-0.458871	0.000073
C46	C	1.981317	0.041129	0.500073
C47	C	1.543948	-0.353387	0.112890
C48	C	2.043948	0.146613	0.612890
C49	C	1.543972	-0.353360	-0.112573
C50	C	2.043972	0.146640	0.387427
C51	C	1.602306	-0.414024	0.000163
C52	C	2.102306	0.085976	0.500163
C53	C	1.488172	-0.198917	0.000100
C54	C	1.988172	0.301083	0.500100
C55	C	1.478822	-0.553887	0.000072
C56	C	1.978822	-0.053887	0.500072
C57	C	1.713094	0.118800	0.000099
C58	C	2.213094	0.618800	0.500099
C59	C	1.852505	0.121269	0.000100
C60	C	2.352505	0.621269	0.500100
C61	C	1.474339	0.277110	0.000070
C62	C	1.974339	0.777110	0.500070
C63	C	1.476824	0.370371	0.000061
C64	C	1.976824	0.870371	0.500061
N65	N	1.483484	0.123589	0.356205
N66	N	1.983484	0.623589	0.856205
N67	N	1.483514	0.123594	-0.356032
N68	N	1.983514	0.623594	0.143968
C69	C	1.568883	0.067007	0.428142
C70	C	2.068883	0.567007	0.928142
C71	C	1.568896	0.067007	0.572025
C72	C	2.068896	0.567007	1.072025
C73	C	1.398106	0.180179	0.572021
C74	C	1.898106	0.680179	1.072021
C75	C	1.398089	0.180174	0.428140
C76	C	1.898089	0.680174	0.928140
H77	H	1.075154	0.264375	0.000041
H78	H	1.575154	0.764375	0.500041
H79	H	1.638416	0.020930	0.369576
H80	H	2.138416	0.520930	0.869576
H81	H	1.638434	0.020932	0.630593
H82	H	2.138434	0.520932	1.130593
N83	N	0.816282	0.280059	0.000132
N84	N	1.316282	0.780059	0.500132
H85	H	0.832515	0.313894	-0.084596
H86	H	1.332515	0.813894	0.415404
H87	H	0.725660	0.266766	0.000222
H88	H	1.225660	0.766766	0.500222
N89	N	1.355232	-0.426433	-0.238789
N90	N	1.855232	0.073567	0.261211
H91	H	1.265502	-0.398787	-0.238689
H92	H	1.765502	0.101213	0.261311
H93	H	1.400106	-0.408860	-0.323843
H94	H	1.900106	0.091140	0.176157
H95	H	0.891824	-0.017184	0.000143
H96	H	1.391824	0.482816	0.500143
N97	N	1.305982	0.241211	0.350543
N98	N	1.805982	0.741211	0.850543
H99	H	1.318928	0.232618	0.248481
H100	H	1.818928	0.732618	0.748481
H101	H	1.216900	0.230954	0.375707
H102	H	1.716900	0.730954	0.875707
N103	N	1.306012	0.241206	0.649620
N104	N	1.806012	0.741206	1.149620
H105	H	1.354007	0.278700	0.709296
H106	H	1.854007	0.778700	1.209296
H107	H	1.251926	0.276993	0.582129
H108	H	1.751926	0.776993	1.082129
N109	N	1.150746	-0.032870	0.000109
N110	N	1.650746	0.467130	0.500109
H111	H	1.134495	-0.066693	-0.084616
H112	H	1.634495	0.433307	0.415384
H113	H	1.241357	-0.019554	0.000156
H114	H	1.741357	0.480446	0.500156
N115	N	1.231742	-0.295413	0.000195
N116	N	1.731742	0.204587	0.500195
H117	H	1.186213	-0.312056	0.085407
H118	H	1.686213	0.187944	0.585407
H119	H	1.234457	-0.232289	-0.000730
H120	H	1.734457	0.267711	0.499270
N121	N	1.355215	-0.426471	0.239000
N122	N	1.855215	0.073529	0.739000
H123	H	1.265483	-0.398827	0.238917
H124	H	1.765483	0.101173	0.738917
H125	H	1.354850	-0.489786	0.238460
H126	H	1.854850	0.010214	0.738460
N127	N	1.735392	-0.457192	0.000247
N128	N	2.235392	0.042808	0.500247
H129	H	1.781454	-0.439693	-0.084049
H130	H	2.281454	0.060307	0.415951
H131	H	1.780793	-0.440444	0.085470
H132	H	2.280793	0.059556	0.585470
N133	N	1.611653	-0.326528	0.239245
N134	N	2.111653	0.173472	0.739245
H135	H	1.612877	-0.263276	0.238493
H136	H	2.112877	0.236724	0.738493
H137	H	1.566271	-0.343737	0.324193
H138	H	2.066271	0.156263	0.824193
H139	H	1.595089	-0.332933	-0.207856
H140	H	2.095089	0.167067	0.292144
