data_functionalizedCrystal
_audit_creation_method	'MofGen! by Chris Wilmer'
_symmetry_space_group_name_H-M	'P1'
_symmetry_Int_Tables_number	1
_symmetry_cell_setting	triclinic
loop_
_symmetry_equiv_pos_as_xyz
  x,y,z
_cell_length_a	14.519709
_cell_length_b	17.019294
_cell_length_c	12.996460
_cell_angle_alpha	86.114884
_cell_angle_beta	90.000034
_cell_angle_gamma	83.537243
loop_
_atom_site_label
_atom_site_type_symbol
_atom_site_fract_x
_atom_site_fract_y
_atom_site_fract_z
O1	O	1.223534	0.103407	-0.094594
O2	O	1.556867	0.436740	0.238740
O3	O	1.890200	0.770074	0.572073
O4	O	0.955017	0.115585	-0.095704
O5	O	1.288350	0.448918	0.237629
O6	O	1.621684	0.782251	0.570963
O7	O	1.096766	-0.005327	-0.084969
O8	O	1.430099	0.328007	0.248364
O9	O	1.763433	0.661340	0.581698
O10	O	1.081785	0.224318	-0.105328
O11	O	1.415118	0.557652	0.228005
O12	O	1.748452	0.890985	0.561338
O13	O	1.096751	-0.005333	0.086165
O14	O	1.430084	0.328000	0.419499
O15	O	1.763418	0.661333	0.752832
O16	O	0.955002	0.115578	0.075431
O17	O	1.288336	0.448911	0.408764
O18	O	1.621669	0.782245	0.742097
O19	O	1.223519	0.103400	0.076541
O20	O	1.556852	0.436734	0.409874
O21	O	1.890185	0.770067	0.743207
Cu22	Cu	1.089259	0.109489	0.091612
Cu23	Cu	1.422593	0.442822	0.424945
Cu24	Cu	1.755926	0.776155	0.758278
Cu25	Cu	1.089277	0.109496	-0.110775
Cu26	Cu	1.422610	0.442830	0.222559
Cu27	Cu	1.755943	0.776163	0.555892
O28	O	1.081770	0.224312	0.065806
O29	O	1.415103	0.557645	0.399139
O30	O	1.748437	0.890978	0.732473
C31	C	0.920652	0.115014	-0.010090
C32	C	1.253985	0.448347	0.323243
C33	C	1.587319	0.781680	0.656576
C34	C	0.818276	0.113313	-0.009952
C35	C	1.151609	0.446646	0.323382
C36	C	1.484943	0.779980	0.656715
C37	C	1.096190	-0.034720	0.003201
C38	C	1.429524	0.298613	0.336535
C39	C	1.762857	0.631947	0.669868
C40	C	1.094486	-0.122293	0.010958
C41	C	1.427819	0.211040	0.344291
C42	C	1.761153	0.544374	0.677624
C43	C	0.443401	0.107052	-0.009350
C44	C	0.776734	0.440386	0.323984
C45	C	1.110067	0.773719	0.657317
C46	C	0.547703	0.108791	-0.009517
C47	C	0.881036	0.442124	0.323816
C48	C	1.214370	0.775458	0.657150
C49	C	0.630835	0.110182	-0.009652
C50	C	0.964168	0.443516	0.323682
C51	C	1.297502	0.776849	0.657015
C52	C	0.735144	0.111921	-0.009817
C53	C	1.068477	0.445255	0.323516
C54	C	1.401811	0.778588	0.656850
C55	C	1.093695	-0.163427	-0.078683
C56	C	1.427029	0.169907	0.254650
C57	C	1.760362	0.503240	0.587984
C58	C	1.092088	-0.245710	-0.071392
C59	C	1.425421	0.087623	0.261941
C60	C	1.758755	0.420956	0.595275
C61	C	1.091278	-0.286859	0.025541
C62	C	1.424611	0.046474	0.358874
C63	C	1.757945	0.379808	0.692208
C64	C	1.092066	-0.245719	0.115188
C65	C	1.425399	0.087614	0.448522
C66	C	1.758733	0.420947	0.781855
C67	C	1.093666	-0.163437	0.107896
C68	C	1.427000	0.169897	0.441229
C69	C	1.760333	0.503230	0.774563
C70	C	1.086439	-0.535299	0.052226
C71	C	1.419772	-0.201966	0.385559
C72	C	1.753105	0.131367	0.718892
C73	C	1.084841	-0.617588	0.059511
C74	C	1.418174	-0.284255	0.392844
C75	C	1.751507	0.049078	0.726178
C76	C	1.084861	-0.617573	-0.127070
C77	C	1.418195	-0.284240	0.206263
C78	C	1.751528	0.049093	0.539597
C79	C	1.086467	-0.535290	-0.134354
C80	C	1.419801	-0.201956	0.198980
C81	C	1.753134	0.131377	0.532313
C82	C	1.087250	-0.494156	-0.044706
C83	C	1.420584	-0.160823	0.288627
C84	C	1.753917	0.172510	0.621960
C85	C	1.089638	-0.370966	0.032996
C86	C	1.422971	-0.037633	0.366329
C87	C	1.756305	0.295700	0.699663
C88	C	1.088884	-0.410050	-0.052163
C89	C	1.422217	-0.076717	0.281171
C90	C	1.755550	0.256617	0.614504
C91	C	1.257884	0.103971	-0.009075
C92	C	1.591217	0.437305	0.324258
C93	C	1.924551	0.770638	0.657592
C94	C	1.360260	0.105672	-0.009221
C95	C	1.693593	0.439005	0.324113
C96	C	2.026927	0.772339	0.657446
C97	C	1.082346	0.253705	-0.022366
C98	C	1.415679	0.587038	0.310967
C99	C	1.749012	0.920372	0.644300
C100	C	1.084050	0.341278	-0.030130
C101	C	1.417383	0.674611	0.303204
C102	C	1.750717	1.007945	0.636537
N103	N	1.089254	0.109482	0.233959
N104	N	1.422587	0.442816	0.567293
N105	N	1.755920	0.776149	0.900626
N106	N	1.089290	0.109496	-0.253122
N107	N	1.422623	0.442830	0.080212
N108	N	1.755956	0.776163	0.413545
C109	C	1.089275	0.109497	0.653772
C110	C	1.422609	0.442831	0.987106
C111	C	1.755942	0.776164	1.320439
C112	C	1.089267	0.109496	0.536967
C113	C	1.422600	0.442829	0.870301
C114	C	1.755933	0.776162	1.203634
C115	C	1.089265	0.109490	0.443869
C116	C	1.422598	0.442824	0.777203
C117	C	1.755932	0.776157	1.110536
C118	C	1.089255	0.109488	0.327057
C119	C	1.422589	0.442821	0.660390
C120	C	1.755922	0.776154	0.993724
H121	H	1.091448	-0.279198	-0.144387
H122	H	1.424782	0.054135	0.188946
H123	H	1.758115	0.387468	0.522280
H124	H	1.087128	-0.501792	-0.213287
H125	H	1.420462	-0.168459	0.120047
H126	H	1.753795	0.164875	0.453380
H127	H	1.084222	-0.651073	-0.200056
H128	H	1.417555	-0.317739	0.133278
H129	H	1.750889	0.015594	0.466611
N130	N	1.094554	-0.119019	-0.183215
N131	N	1.427888	0.214315	0.150118
N132	N	1.761221	0.547648	0.483452
H133	H	1.151414	-0.139630	-0.222189
H134	H	1.484747	0.193704	0.111144
H135	H	1.818080	0.527037	0.444477
H136	H	1.037093	-0.127026	-0.223208
H137	H	1.370426	0.206307	0.110125
H138	H	1.703760	0.539640	0.443459
N139	N	1.083975	-0.661977	0.164063
N140	N	1.417308	-0.328644	0.497396
N141	N	1.750641	0.004689	0.830729
H142	H	1.027107	-0.641360	0.203018
H143	H	1.360440	-0.308027	0.536352
H144	H	1.693773	0.025307	0.869685
H145	H	1.082885	-0.720333	0.154979
H146	H	1.416218	-0.387000	0.488312
H147	H	1.749552	-0.053667	0.821645
N148	N	1.088781	-0.415351	0.137544
N149	N	1.422115	-0.082018	0.470877
N150	N	1.755448	0.251316	0.804210
H151	H	1.146202	-0.407346	0.177616
H152	H	1.479535	-0.074012	0.510950
H153	H	1.812869	0.259321	0.844283
H154	H	1.031882	-0.394701	0.176419
H155	H	1.365216	-0.061368	0.509753
H156	H	1.698549	0.271965	0.843086
H157	H	1.087094	-0.501821	0.125223
H158	H	1.420428	-0.168487	0.458557
H159	H	1.753761	0.164846	0.791890
H160	H	1.089537	-0.376542	-0.131085
H161	H	1.422870	-0.043209	0.202248
H162	H	1.756204	0.290124	0.535582
H163	H	1.091401	-0.279229	0.194113
H164	H	1.424734	0.054105	0.527447
H165	H	1.758067	0.387438	0.860780
N166	N	1.094515	-0.119066	0.204579
N167	N	1.427848	0.214267	0.537912
N168	N	1.761181	0.547601	0.871246
H169	H	1.093760	-0.157618	0.267093
H170	H	1.427093	0.175715	0.600426
H171	H	1.760427	0.509049	0.933760
H172	H	1.152320	-0.091238	0.206186
H173	H	1.485653	0.242095	0.539519
H174	H	1.818986	0.575429	0.872853
