data_functionalizedCrystal
_audit_creation_method	'MofGen! by Chris Wilmer'
_symmetry_space_group_name_H-M	'P1'
_symmetry_Int_Tables_number	1
_symmetry_cell_setting	triclinic
loop_
_symmetry_equiv_pos_as_xyz
  x,y,z
_cell_length_a	19.805407
_cell_length_b	21.295417
_cell_length_c	19.805398
_cell_angle_alpha	89.968132
_cell_angle_beta	89.986879
_cell_angle_gamma	90.030507
loop_
_atom_site_label
_atom_site_type_symbol
_atom_site_fract_x
_atom_site_fract_y
_atom_site_fract_z
Zn1	Zn	1.034673	-0.250617	-0.382704
Zn2	Zn	1.034593	-0.355888	-0.269510
Zn3	Zn	0.921501	-0.250637	-0.269529
Zn4	Zn	0.921443	-0.355853	-0.382656
O5	O	0.978053	-0.303249	-0.326100
O6	O	1.129379	-0.264589	-0.367701
O7	O	1.019581	-0.341949	-0.174796
O8	O	0.936571	-0.162545	-0.284570
O9	O	1.129320	-0.341930	-0.284537
O10	O	1.019718	-0.162531	-0.367719
O11	O	0.936493	-0.264621	-0.174810
O12	O	0.826777	-0.264587	-0.284523
O13	O	0.936473	-0.341870	-0.477379
O14	O	0.826734	-0.341889	-0.367638
O15	O	1.019663	-0.264554	-0.477415
O16	O	1.019526	-0.443973	-0.284491
O17	O	0.936395	-0.443947	-0.367619
C18	C	0.802197	-0.303237	-0.326078
C19	C	0.726965	-0.303247	-0.326085
C20	C	0.691616	-0.343558	-0.369292
C21	C	0.620928	-0.343559	-0.369302
C22	C	0.585589	-0.303252	-0.326100
C23	C	0.620942	-0.262936	-0.282890
C24	C	0.691629	-0.262932	-0.282885
C25	C	0.335869	-0.262949	-0.282913
C26	C	0.265177	-0.262958	-0.282920
C27	C	0.265167	-0.343577	-0.369330
C28	C	0.335854	-0.343573	-0.369324
C29	C	0.371202	-0.303255	-0.326117
C30	C	0.447850	-0.303254	-0.326109
C31	C	0.508942	-0.303256	-0.326105
C32	C	0.977964	-0.466800	-0.326062
C33	C	0.977988	-0.536768	-0.326069
C34	C	1.021312	-0.569628	-0.282828
C35	C	1.021344	-0.635370	-0.282844
C36	C	0.978039	-0.668251	-0.326092
C37	C	0.934712	-0.635384	-0.369341
C38	C	0.934686	-0.569643	-0.369330
N39	N	0.918828	-0.771517	-0.331245
N40	N	0.918854	-0.833968	-0.331252
C41	C	0.978115	-0.866326	-0.326131
N42	N	1.037349	-0.833872	-0.320989
N43	N	1.037322	-0.771415	-0.320979
C44	C	0.978062	-0.739536	-0.326110
C45	C	1.021477	-0.970470	-0.282905
C46	C	1.021510	-1.036214	-0.282925
C47	C	0.934872	-1.036226	-0.369419
C48	C	0.934845	-0.970484	-0.369402
C49	C	0.978147	-0.937610	-0.326142
C50	C	1.154595	-0.303261	-0.326122
C51	C	1.229827	-0.303267	-0.326132
C52	C	0.978071	-0.303206	-0.502643
C53	C	0.978078	-0.303188	-0.577875
C54	C	0.978160	-0.139058	-0.326152
C55	C	0.978206	-0.069090	-0.326175
C56	C	1.021449	-0.343352	-1.039656
C57	C	1.021430	-0.343370	-0.968968
C58	C	0.978162	-0.303117	-0.933637
C59	C	0.934905	-0.262849	-0.968998
C60	C	0.934921	-0.262836	-1.039685
C61	C	0.934840	-0.262903	-0.683924
C62	C	0.934829	-0.262918	-0.613232
C63	C	1.021349	-0.343437	-0.613207
C64	C	1.021365	-0.343423	-0.683894
C65	C	0.978106	-0.303158	-0.719249
C66	C	0.978126	-0.303141	-0.795898
C67	C	0.978145	-0.303131	-0.856989
C68	C	0.978073	-0.303246	-0.150244
C69	C	0.978197	-0.303087	-0.075012
H70	H	0.592164	-0.230113	-0.247718
H71	H	1.056626	-0.662129	-0.247632
Br72	Br	0.876107	-1.080843	-0.428122
Br73	Br	0.876043	-0.925886	-0.428088
H74	H	1.056739	-0.943703	-0.247681
H75	H	0.720409	-0.230103	-0.247704
Br76	Br	0.876096	-0.208291	-0.731897
Br77	Br	0.876222	-0.208185	-1.087669
H78	H	1.056794	-1.062967	-0.247714
Br79	Br	0.383831	-0.208228	-0.224279
Br80	Br	0.383811	-0.398282	-0.427953
Br81	Br	1.080088	-0.525016	-0.224127
H82	H	1.056571	-0.376225	-0.584412
H83	H	0.899593	-0.230138	-0.584467
H84	H	0.720384	-0.376384	-0.404470
Br85	Br	0.572957	-0.398269	-0.427945
Br86	Br	0.875946	-0.680006	-0.428042
H87	H	0.899673	-0.230078	-0.940225
Br88	Br	0.217193	-0.398297	-0.427967
H89	H	0.236406	-0.230130	-0.247740
H90	H	0.899405	-0.542888	-0.404542
H91	H	1.056686	-0.376128	-1.068418
H92	H	1.056642	-0.376166	-0.940184
H93	H	1.056601	-0.376199	-0.712657
