data_functionalizedCrystal
_audit_creation_method	'MofGen! by Chris Wilmer'
_symmetry_space_group_name_H-M	'P1'
_symmetry_Int_Tables_number	1
_symmetry_cell_setting	triclinic
loop_
_symmetry_equiv_pos_as_xyz
  x,y,z
_cell_length_a	17.038272
_cell_length_b	22.610064
_cell_length_c	17.038272
_cell_angle_alpha	89.995855
_cell_angle_beta	91.111556
_cell_angle_gamma	90.003146
loop_
_atom_site_label
_atom_site_type_symbol
_atom_site_fract_x
_atom_site_fract_y
_atom_site_fract_z
O1	O	1.048759	0.049111	0.170526
O2	O	0.820948	0.049128	0.167819
O3	O	0.933500	0.049115	0.055267
O4	O	0.936207	0.049124	0.283078
O5	O	0.933479	-0.049254	0.055283
O6	O	0.820928	-0.049241	0.167835
O7	O	1.048739	-0.049258	0.170543
Zn8	Zn	0.934830	-0.064868	0.169191
Zn9	Zn	0.934857	0.064738	0.169170
O10	O	0.936187	-0.049245	0.283094
C11	C	0.791645	-0.000054	0.165364
C12	C	0.704361	-0.000047	0.158016
C13	C	0.658752	-0.000045	0.225479
C14	C	0.576740	-0.000054	0.218570
C15	C	0.540339	-0.000060	0.144197
C16	C	0.585954	-0.000064	0.076728
C17	C	0.667965	-0.000060	0.083638
C18	C	0.292951	-0.000077	0.119787
C19	C	0.210935	-0.000079	0.112882
C20	C	0.201726	-0.000070	0.254725
C21	C	0.283739	-0.000062	0.261628
C22	C	0.329347	-0.000069	0.194159
C23	C	0.456510	-0.000067	0.137133
C24	C	0.413174	-0.000067	0.201224
N25	N	0.934818	-0.153320	0.169206
C26	C	0.984698	-0.561967	0.119340
C27	C	0.984701	-0.623887	0.119335
O28	O	1.027078	-0.655911	0.076947
N29	N	0.934855	-0.654857	0.169154
C30	C	0.884996	-0.623904	0.218975
O31	O	0.842598	-0.655932	0.261349
C32	C	0.884989	-0.561985	0.218976
C33	C	0.934844	-0.531019	0.169160
C34	C	1.034548	-0.531001	0.069528
C35	C	1.034545	-0.469085	0.069534
C36	C	0.984692	-0.438136	0.119354
C37	C	0.934842	-0.469103	0.169167
C38	C	0.835127	-0.531033	0.268793
C39	C	0.835124	-0.469110	0.268789
C40	C	0.884979	-0.438144	0.218973
C41	C	0.884986	-0.376238	0.218993
N42	N	0.934832	-0.345268	0.169174
C43	C	0.984685	-0.376217	0.119355
C44	C	0.885014	-0.753938	0.218969
C45	C	0.885024	-0.815855	0.218973
C46	C	0.984728	-0.815834	0.119331
C47	C	0.984721	-0.753915	0.119332
C48	C	0.934860	-0.722968	0.169150
C49	C	0.984676	-0.246190	0.119373
C50	C	0.984671	-0.184269	0.119386
C51	C	0.884964	-0.184295	0.219025
C52	C	0.884972	-0.246211	0.219014
C53	C	0.934830	-0.277157	0.169182
O54	O	0.842628	-0.344175	0.261357
O55	O	1.027069	-0.344182	0.076981
C56	C	1.078042	-0.000074	0.172997
C57	C	1.165326	-0.000077	0.180346
C58	C	0.931027	-0.000069	0.025982
C59	C	0.923679	-0.000068	-0.061301
N60	N	0.934875	0.153190	0.169150
C61	C	0.991142	-0.000074	-0.106911
C62	C	0.984233	-0.000068	-0.188923
C63	C	0.909860	-0.000060	-0.225324
C64	C	0.842391	-0.000053	-0.179708
C65	C	0.849301	-0.000055	-0.097698
C66	C	0.885449	-0.000050	-0.472712
C67	C	0.878545	-0.000050	-0.554728
C68	C	1.020387	-0.000064	-0.563937
C69	C	1.027291	-0.000070	-0.481924
C70	C	0.959822	-0.000059	-0.436316
C71	C	0.902796	-0.000056	-0.309153
C72	C	0.966886	-0.000059	-0.352488
C73	C	0.938660	-0.000059	0.312379
C74	C	0.946008	-0.000056	0.399663
H75	H	0.330076	-0.000083	0.064848
H76	H	0.705099	-0.000061	0.028702
H77	H	0.844377	-0.159087	0.259589
Br78	Br	1.111947	-0.000079	-0.625837
Br79	Br	0.161534	-0.000101	0.011940
H80	H	0.844413	-0.728743	0.259543
H81	H	0.844436	-0.841064	0.259546
Br82	Br	1.052387	-0.857849	0.051719
Br83	Br	0.801863	-0.000040	-0.358561
H84	H	1.087853	-0.000076	-0.452293
H85	H	1.051705	-0.000084	-0.077279
Br86	Br	1.067819	-0.000065	-0.303086
H87	H	0.442816	-0.000065	0.261778
H88	H	0.426863	-0.000089	0.076578
Br89	Br	0.767463	-0.573047	0.336404
Br90	Br	0.777603	-0.000046	-0.604129
H91	H	0.688384	-0.000039	0.286042
Br92	Br	0.767447	-0.427114	0.336401
Br93	Br	0.536554	-0.000079	-0.024208
Br94	Br	1.052339	-0.142246	0.051778
H95	H	1.025274	-0.271379	0.078794
Br96	Br	0.817320	-0.288236	0.286635
H97	H	0.830511	-0.000042	-0.435587
H98	H	0.781835	-0.000043	-0.209353
Br99	Br	0.333134	-0.000047	0.362567
Br100	Br	0.514844	-0.000049	0.310133
H101	H	0.164583	-0.000065	0.309653
Br102	Br	1.102204	-0.427065	0.001920
H103	H	1.075144	-0.556194	0.028955
Br104	Br	1.052384	-0.711896	0.051722
H105	H	1.039170	-0.000074	-0.226054
Br106	Br	0.757739	-0.000042	-0.035798
