data_functionalizedCrystal
_audit_creation_method	'MofGen! by Chris Wilmer'
_symmetry_space_group_name_H-M	'P1'
_symmetry_Int_Tables_number	1
_symmetry_cell_setting	triclinic
loop_
_symmetry_equiv_pos_as_xyz
  x,y,z
_cell_length_a	17.699083
_cell_length_b	10.654551
_cell_length_c	16.176319
_cell_angle_alpha	90.009262
_cell_angle_beta	90.002310
_cell_angle_gamma	83.884188
loop_
_atom_site_label
_atom_site_type_symbol
_atom_site_fract_x
_atom_site_fract_y
_atom_site_fract_z
O1	O	1.005086	0.158785	-0.068625
O2	O	0.784839	0.179447	-0.068652
O3	O	0.900026	-0.013712	-0.068638
O4	O	0.889899	0.351944	-0.068639
O5	O	0.900015	-0.013677	0.068855
O6	O	0.784828	0.179482	0.068841
O7	O	1.005075	0.158820	0.068868
Cu8	Cu	0.894951	0.169154	0.081409
Cu9	Cu	0.894964	0.169113	-0.081193
O10	O	0.889888	0.351979	0.068854
C11	C	0.756632	0.178724	0.000091
C12	C	0.672600	0.176503	0.000081
C13	C	0.899277	-0.060479	0.000106
C14	C	0.897052	-0.199884	0.000100
C15	C	0.624700	0.289883	0.000081
C16	C	0.545743	0.287788	0.000092
C17	C	0.514688	0.172313	0.000096
C18	C	0.562594	0.058924	0.000099
C19	C	0.641549	0.061020	0.000094
C20	C	0.244177	0.050470	0.000119
C21	C	0.165216	0.048383	0.000122
C22	C	0.148371	0.277238	0.000117
C23	C	0.227327	0.279334	0.000112
C24	C	0.275226	0.165946	0.000119
C25	C	0.360839	0.168218	0.000109
C26	C	0.429076	0.170039	0.000101
C27	C	0.896014	-0.265396	-0.074846
C28	C	0.893917	-0.396380	-0.074842
C29	C	0.893898	-0.396327	0.075060
C30	C	0.895990	-0.265345	0.075056
C31	C	0.897075	-0.199935	-0.149801
C32	C	0.896038	-0.265448	-0.224754
C33	C	0.893941	-0.396432	-0.224750
C34	C	0.892881	-0.461902	-0.149794
C35	C	1.033282	0.159543	0.000123
C36	C	1.117315	0.161764	0.000128
C37	C	0.890638	0.398746	0.000108
C38	C	0.892863	0.538150	0.000108
N39	N	0.894947	0.169182	0.195774
N40	N	0.894973	0.169074	-0.195558
C41	C	0.848672	0.093014	0.761158
C42	C	0.848670	0.093024	0.674611
C43	C	0.894967	0.169102	0.631349
C44	C	0.941274	0.245165	0.674639
C45	C	0.941279	0.245147	0.761185
C46	C	0.941255	0.245236	0.325611
C47	C	0.941245	0.245250	0.239059
C48	C	0.848647	0.093112	0.239037
C49	C	0.848652	0.093095	0.325583
C50	C	0.894961	0.169153	0.368865
C51	C	0.894964	0.169139	0.462709
C52	C	0.894961	0.169123	0.537507
H53	H	0.506746	0.380114	0.000091
N54	N	0.890608	-0.603175	-0.149788
H55	H	0.890108	-0.634746	-0.208640
H56	H	0.936937	-0.644948	-0.120316
N57	N	0.991185	0.327297	0.192391
H58	H	0.976744	0.418700	0.207469
H59	H	1.046103	0.302290	0.207461
H60	H	0.810969	0.031085	0.639373
N61	N	0.529109	-0.065632	0.000100
H62	H	0.546536	-0.115279	0.051069
H63	H	0.471828	-0.049661	0.000068
H64	H	0.139935	-0.045657	0.000126
N65	N	0.798724	0.011030	0.372242
H66	H	0.831363	-0.050505	0.408136
H67	H	0.761975	0.065859	0.408116
N68	N	0.260822	0.403881	0.000096
H69	H	0.218496	0.475392	0.000097
H70	H	0.293219	0.409753	0.051063
N71	N	0.897123	-0.194681	0.155890
H72	H	0.898608	-0.101771	0.144512
H73	H	0.849920	-0.207236	0.188618
N74	N	0.096709	0.399541	0.000112
H75	H	0.041978	0.380698	0.000119
H76	H	0.106837	0.449895	0.051079
N77	N	0.658193	0.414433	0.000066
H78	H	0.615864	0.485939	0.000069
H79	H	0.690590	0.420305	0.051033
N80	N	0.798705	0.011062	0.192355
H81	H	0.805727	0.022606	0.130964
H82	H	0.813184	-0.080303	0.207472
H83	H	0.978963	0.307167	0.360841
N84	N	0.892768	-0.466937	0.155901
H85	H	0.845070	-0.510966	0.159242
H86	H	0.938770	-0.531532	0.159194
N87	N	0.295834	-0.071821	0.000132
H88	H	0.264177	-0.145288	0.000134
H89	H	0.328961	-0.075961	-0.050837
N90	N	0.991215	0.327211	0.627983
H91	H	0.984186	0.315684	0.566588
H92	H	0.976743	0.418575	0.643129
H93	H	0.680549	-0.031306	0.000093
H94	H	0.898785	-0.093282	-0.149813
N95	N	0.897111	-0.194828	-0.305595
H96	H	0.898577	-0.101905	-0.294227
H97	H	0.943563	-0.228017	-0.338365
N98	N	0.798737	0.010959	0.807816
H99	H	0.769408	-0.037227	0.767260
H100	H	0.831420	-0.050507	0.843711
N101	N	0.892864	-0.467105	-0.305585
H102	H	0.893871	-0.405760	-0.353066
H103	H	0.938848	-0.531749	-0.308802
N104	N	0.991212	0.327186	0.807880
H105	H	1.027969	0.272418	0.843775
H106	H	1.020491	0.375378	0.767296
