data_functionalizedCrystal
_audit_creation_method	'MofGen! by Chris Wilmer'
_symmetry_space_group_name_H-M	'P1'
_symmetry_Int_Tables_number	1
_symmetry_cell_setting	triclinic
loop_
_symmetry_equiv_pos_as_xyz
  x,y,z
_cell_length_a	9.065218
_cell_length_b	9.065218
_cell_length_c	7.540329
_cell_angle_alpha	90.011032
_cell_angle_beta	89.995865
_cell_angle_gamma	94.984082
loop_
_atom_site_label
_atom_site_type_symbol
_atom_site_fract_x
_atom_site_fract_y
_atom_site_fract_z
O1	O	1.960399	-0.216355	-0.147566
O2	O	2.460399	0.283645	0.352434
O3	O	1.531114	-0.234101	-0.147562
O4	O	2.031114	0.265899	0.352438
O5	O	1.754629	-0.010585	-0.147519
O6	O	2.254629	0.489415	0.352481
O7	O	1.736883	-0.439870	-0.147609
O8	O	2.236883	0.060130	0.352391
O9	O	1.754616	-0.010583	0.147446
O10	O	2.254616	0.489417	0.647446
O11	O	1.531100	-0.234098	0.147403
O12	O	2.031100	0.265902	0.647403
O13	O	1.960385	-0.216352	0.147399
O14	O	2.460385	0.283648	0.647399
Cu15	Cu	1.745741	-0.225225	0.174334
Cu16	Cu	2.245741	0.274775	0.674334
Cu17	Cu	1.745757	-0.225228	-0.174497
Cu18	Cu	2.245757	0.274772	0.325503
O19	O	1.736870	-0.439867	0.147356
O20	O	2.236870	0.060133	0.647356
C21	C	1.752917	0.044403	-0.000028
C22	C	2.252917	0.544403	0.499972
C23	C	1.747817	0.208245	-0.000005
C24	C	2.247817	0.708245	0.499995
C25	C	1.476120	-0.232394	-0.000078
C26	C	1.976120	0.267606	0.499922
C27	C	1.312278	-0.227294	-0.000074
C28	C	1.812278	0.272706	0.499926
C29	C	2.015378	-0.218059	-0.000089
C30	C	2.515378	0.281941	0.499911
C31	C	2.179221	-0.223158	-0.000105
C32	C	2.679221	0.276842	0.499895
C33	C	1.738582	0.505145	-0.000090
C34	C	2.238582	1.005145	0.499910
C35	C	1.743681	0.341302	0.000021
C36	C	2.243681	0.841302	0.500021
N37	N	1.745741	-0.225222	0.419682
N38	N	2.245741	0.274778	0.919682
N39	N	1.745769	-0.225220	-0.419845
N40	N	2.245769	0.274780	0.080155
