data_functionalizedCrystal
_audit_creation_method	'MofGen! by Chris Wilmer'
_symmetry_space_group_name_H-M	'P1'
_symmetry_Int_Tables_number	1
_symmetry_cell_setting	triclinic
loop_
_symmetry_equiv_pos_as_xyz
  x,y,z
_cell_length_a	12.594517
_cell_length_b	12.594516
_cell_length_c	12.759387
_cell_angle_alpha	89.969834
_cell_angle_beta	89.983812
_cell_angle_gamma	90.011773
loop_
_atom_site_label
_atom_site_type_symbol
_atom_site_fract_x
_atom_site_fract_y
_atom_site_fract_z
Zn1	Zn	1.627318	-0.423687	-0.593889
Zn2	Zn	1.627216	-0.601705	-0.418211
Zn3	Zn	1.449316	-0.423740	-0.418239
Zn4	Zn	1.449317	-0.601624	-0.593863
O5	O	1.538292	-0.512689	-0.506050
O6	O	1.776250	-0.447313	-0.570584
O7	O	1.603574	-0.578153	-0.271193
O8	O	1.472970	-0.274788	-0.441561
O9	O	1.776175	-0.578102	-0.441514
O10	O	1.603748	-0.274749	-0.570610
O11	O	1.472872	-0.447404	-0.271214
O12	O	1.300370	-0.447326	-0.441537
O13	O	1.472973	-0.577964	-0.740888
O14	O	1.300371	-0.578016	-0.570567
O15	O	1.603749	-0.447235	-0.740906
O16	O	1.603575	-0.750640	-0.441489
O17	O	1.472874	-0.750580	-0.570540
C18	C	1.261751	-0.512668	-0.506053
C19	C	1.143445	-0.512685	-0.506079
C20	C	1.003460	-0.583897	-0.576129
C21	C	1.074229	-0.609808	-0.480242
C22	C	1.074248	-0.486821	-0.601954
C23	C	1.003429	-0.538682	-0.410111
C24	C	1.003441	-0.415649	-0.531887
C25	C	1.074179	-0.441524	-0.435935
C26	C	1.538243	-0.789230	-0.506032
C27	C	1.538319	-0.907535	-0.506059
C28	C	1.609490	-0.976782	-0.435943
C29	C	1.635504	-1.047475	-0.531834
C30	C	1.512438	-1.047642	-0.410230
C31	C	1.564382	-0.976670	-0.602001
C32	C	1.441272	-0.976831	-0.480331
C33	C	1.467248	-1.047491	-0.576288
C34	C	1.815913	-0.512710	-0.506048
C35	C	1.934218	-0.512720	-0.506048
C36	C	1.538372	-0.512585	-0.780084
C37	C	1.538406	-0.512540	-0.896861
C38	C	1.538370	-0.235068	-0.506092
C39	C	1.538404	-0.116763	-0.506109
C40	C	1.674593	-0.376421	-0.896900
C41	C	1.742701	-0.308345	-0.951780
C42	C	1.742727	-0.308306	-1.061502
C43	C	1.674635	-0.376348	-1.116346
C44	C	1.606527	-0.444424	-1.061465
C45	C	1.606511	-0.444458	-0.951741
C46	C	1.470337	-0.580536	-1.061426
C47	C	1.470315	-0.580582	-0.951705
C48	C	1.402245	-0.648578	-1.116270
C49	C	1.334140	-0.716661	-1.061390
C50	C	1.334118	-0.716698	-0.951661
C51	C	1.402206	-0.648658	-0.896824
C52	C	1.538273	-0.512716	-0.233083
C53	C	1.538445	-0.512461	-0.116307
H54	H	0.972324	-0.333597	-0.553764
H55	H	1.359188	-0.945774	-0.458513
H56	H	1.278700	-0.772050	-1.106052
C57	C	1.503433	-0.675848	-0.739661
C58	C	1.402194	-0.648691	-0.776216
H59	H	1.503428	-0.675857	-0.665203
H60	H	1.521800	-0.744527	-0.764462
H61	H	1.553729	-0.625565	-0.764516
H62	H	1.351899	-0.698979	-0.751368
H63	H	1.383815	-0.580002	-0.751405
H64	H	1.105322	-0.691884	-0.458392
H65	H	1.105355	-0.464930	-0.683048
C66	C	1.227018	-0.360275	-0.357131
C67	C	1.115847	-0.360244	-0.355865
H68	H	1.252741	-0.310095	-0.307702
H69	H	1.252320	-0.429003	-0.339360
H70	H	1.251386	-0.341730	-0.425187
H71	H	1.091479	-0.378797	-0.287810
H72	H	1.090534	-0.291502	-0.373630
C73	C	1.273601	-0.777199	-0.783450
C74	C	1.259248	-0.791528	-0.891339
H75	H	1.227372	-0.823392	-0.746215
H76	H	1.345096	-0.792802	-0.765477
H77	H	1.258049	-0.705684	-0.765488
H78	H	1.274808	-0.863041	-0.909303
H79	H	1.187737	-0.775932	-0.909320
H80	H	1.490513	-1.078815	-0.329167
C81	C	1.803224	-0.247815	-1.229721
C82	C	1.817588	-0.233476	-1.121834
H83	H	1.849435	-0.201613	-1.266965
H84	H	1.818781	-0.319319	-1.247679
H85	H	1.731714	-0.232221	-1.247686
H86	H	1.889097	-0.249078	-1.103868
H87	H	1.802038	-0.161956	-1.103868
H88	H	1.586226	-0.945628	-0.683133
C89	C	1.792368	-0.970516	-0.383201
C90	C	1.690747	-0.934855	-0.355971
H91	H	1.842532	-0.944624	-0.333836
H92	H	1.793401	-1.045924	-0.383108
H93	H	1.810096	-0.945167	-0.451122
H94	H	1.673016	-0.960210	-0.288052
H95	H	1.689711	-0.859431	-0.356053
H96	H	1.717611	-1.078509	-0.553624
C97	C	1.748718	-0.302374	-0.739744
C98	C	1.674572	-0.376467	-0.776292
H99	H	1.748700	-0.302399	-0.665285
H100	H	1.817390	-0.320790	-0.764568
H101	H	1.730337	-0.233678	-0.764580
H102	H	1.692958	-0.445164	-0.751462
H103	H	1.605885	-0.358056	-0.751457
H104	H	1.798139	-0.252945	-0.907114
H105	H	1.407098	-1.078343	-0.635673
H106	H	1.402267	-0.648538	-1.205611
C107	C	0.997265	-0.766813	-0.628710
C108	C	0.961528	-0.665229	-0.656014
H109	H	0.971370	-0.817023	-0.678021
H110	H	1.072673	-0.767802	-0.628831
H111	H	0.971970	-0.784511	-0.560763
H112	H	0.986829	-0.647527	-0.723958
H113	H	0.886104	-0.664237	-0.655903
C114	C	0.850448	-0.568177	-0.301596
C115	C	0.961621	-0.568379	-0.300607
H116	H	0.824639	-0.586521	-0.233997
H117	H	0.825628	-0.499455	-0.320040
H118	H	0.825683	-0.618432	-0.351414
H119	H	0.986387	-0.518117	-0.250795
H120	H	0.986452	-0.637111	-0.282150
H121	H	1.674654	-0.376302	-1.205687
