data_functionalizedCrystal
_audit_creation_method	'MofGen! by Chris Wilmer'
_symmetry_space_group_name_H-M	'P1'
_symmetry_Int_Tables_number	1
_symmetry_cell_setting	triclinic
loop_
_symmetry_equiv_pos_as_xyz
  x,y,z
_cell_length_a	19.188905
_cell_length_b	19.188929
_cell_length_c	18.266242
_cell_angle_alpha	89.971860
_cell_angle_beta	89.983837
_cell_angle_gamma	83.139666
loop_
_atom_site_label
_atom_site_type_symbol
_atom_site_fract_x
_atom_site_fract_y
_atom_site_fract_z
O1	O	0.926160	0.087085	-0.061036
O2	O	1.259494	0.420419	0.272297
O3	O	1.592827	0.753752	0.605630
O4	O	0.722847	0.098838	-0.061016
O5	O	1.056180	0.432171	0.272317
O6	O	1.389513	0.765505	0.605651
O7	O	0.830371	-0.008694	-0.060982
O8	O	1.163704	0.324639	0.272352
O9	O	1.497037	0.657972	0.605685
O10	O	0.818636	0.194618	-0.061071
O11	O	1.151970	0.527951	0.272262
O12	O	1.485303	0.861285	0.605596
O13	O	0.830353	-0.008700	0.060780
O14	O	1.163686	0.324633	0.394114
O15	O	1.497019	0.657967	0.727447
O16	O	0.722828	0.098833	0.060746
O17	O	1.056162	0.432166	0.394079
O18	O	1.389495	0.765499	0.727413
O19	O	0.926142	0.087080	0.060726
O20	O	1.259476	0.420413	0.394059
O21	O	1.592809	0.753747	0.727392
Zn22	Zn	0.824482	0.092955	0.080068
Zn23	Zn	1.157816	0.426289	0.413401
Zn24	Zn	1.491149	0.759622	0.746735
Zn25	Zn	0.824506	0.092963	-0.080359
Zn26	Zn	1.157840	0.426296	0.252975
Zn27	Zn	1.491173	0.759629	0.586308
O28	O	0.818618	0.194612	0.060691
O29	O	1.151952	0.527946	0.394024
O30	O	1.485285	0.861279	0.727358
C31	C	0.696826	0.098458	-0.000132
C32	C	1.030160	0.431791	0.333202
C33	C	1.363493	0.765124	0.666535
C34	C	0.619321	0.097324	-0.000122
C35	C	0.952654	0.430657	0.333212
C36	C	1.285987	0.763991	0.666545
C37	C	0.829982	-0.034708	-0.000090
C38	C	1.163315	0.298625	0.333243
C39	C	1.496648	0.631959	0.666576
C40	C	0.828841	-0.112213	-0.000060
C41	C	1.162174	0.221121	0.333273
C42	C	1.495508	0.554454	0.666606
C43	C	0.582939	0.096782	-0.066496
C44	C	0.916272	0.430116	0.266838
C45	C	1.249606	0.763449	0.600171
C46	C	0.510115	0.095709	-0.066504
C47	C	0.843449	0.429043	0.266829
C48	C	1.176782	0.762376	0.600162
C49	C	0.473678	0.095164	-0.000135
C50	C	0.807012	0.428497	0.333198
C51	C	1.140345	0.761830	0.666532
C52	C	0.510068	0.095709	0.066248
C53	C	0.843402	0.429043	0.399581
C54	C	1.176735	0.762376	0.732915
C55	C	0.582890	0.096790	0.066255
C56	C	0.916223	0.430123	0.399588
C57	C	1.249556	0.763456	0.732921
N58	N	0.364651	0.053733	0.049275
N59	N	0.697984	0.387066	0.382609
N60	N	1.031317	0.720400	0.715942
N61	N	0.295474	0.052705	0.049264
N62	N	0.628807	0.386039	0.382598
N63	N	0.962140	0.719372	0.715931
C64	C	0.254272	0.091911	-0.000151
C65	C	0.587605	0.425245	0.333182
C66	C	0.920938	0.758578	0.666515
N67	N	0.284861	0.132174	-0.049567
N68	N	0.618194	0.465508	0.283767
N69	N	0.951528	0.798841	0.617100
N70	N	0.354045	0.133199	-0.049558
N71	N	0.687378	0.466532	0.283775
N72	N	1.020711	0.799866	0.617109
C73	C	0.394716	0.093993	-0.000135
C74	C	0.728049	0.427326	0.333198
C75	C	1.061382	0.760660	0.666532
C76	C	0.138926	0.090207	-0.066539
C77	C	0.472259	0.423540	0.266794
C78	C	0.805593	0.756874	0.600127
C79	C	0.066100	0.089138	-0.066545
C80	C	0.399434	0.422472	0.266788
C81	C	0.732767	0.755805	0.600121
C82	C	0.066056	0.089132	0.066209
C83	C	0.399389	0.422465	0.399542
C84	C	0.732722	0.755798	0.732876
C85	C	0.138879	0.090207	0.066213
C86	C	0.472212	0.423541	0.399546
C87	C	0.805546	0.756874	0.732880
C88	C	0.175310	0.090742	-0.000163
C89	C	0.508643	0.424075	0.333170
C90	C	0.841977	0.757408	0.666503
C91	C	0.952163	0.087460	-0.000160
C92	C	1.285496	0.420794	0.333173
C93	C	1.618829	0.754127	0.666506
C94	C	1.029668	0.088594	-0.000175
C95	C	1.363001	0.421927	0.333158
C96	C	1.696335	0.755261	0.666491
N97	N	0.824471	0.092950	0.189555
N98	N	1.157805	0.426283	0.522888
N99	N	1.491138	0.759617	0.856222
C100	C	0.819007	0.220626	-0.000202
C101	C	1.152341	0.553960	0.333132
C102	C	1.485674	0.887293	0.666465
C103	C	0.820148	0.298131	-0.000237
C104	C	1.153481	0.631464	0.333097
C105	C	1.486815	0.964797	0.666430
C106	C	0.757056	0.343060	-0.000215
C107	C	1.090390	0.676394	0.333118
C108	C	1.423723	1.009727	0.666451
C109	C	0.758128	0.415884	-0.000199
C110	C	1.091461	0.749217	0.333134
C111	C	1.424795	1.082551	0.666468
C112	C	0.822295	0.443775	-0.000189
C113	C	1.155628	0.777108	0.333144
C114	C	1.488962	1.110441	0.666478
C115	C	0.885395	0.398835	-0.000214
C116	C	1.218728	0.732169	0.333119
C117	C	1.552061	1.065502	0.666452
C118	C	0.884321	0.326013	-0.000238
C119	C	1.217655	0.659347	0.333095
C120	C	1.550988	0.992680	0.666429
N121	N	0.871336	0.551737	0.041291
N122	N	1.204669	0.885070	0.374624
N123	N	1.538003	1.218404	0.707957
N124	N	0.872352	0.620915	0.041315
N125	N	1.205685	0.954249	0.374648
N126	N	1.539018	1.287582	0.707981
C127	C	0.825533	0.663183	-0.000119
C128	C	1.158866	0.996516	0.333214
C129	C	1.492200	1.329850	0.666548
N130	N	0.777650	0.633660	-0.041568
N131	N	1.110983	0.966994	0.291765
N132	N	1.444317	1.300327	0.625098
N133	N	0.776633	0.564476	-0.041589
N134	N	1.109966	0.897809	0.291744
N135	N	1.443299	1.231142	0.625077
C136	C	0.823466	0.522737	-0.000164
C137	C	1.156799	0.856070	0.333170
C138	C	1.490133	1.189404	0.666503
C139	C	0.763599	0.787077	-0.000081
C140	C	1.096932	1.120410	0.333252
C141	C	1.430266	1.453744	0.666586
C142	C	0.764673	0.859902	-0.000069
C143	C	1.098007	1.193235	0.333264
C144	C	1.431340	1.526568	0.666598
C145	C	0.891942	0.842851	-0.000077
C146	C	1.225275	1.176185	0.333256
C147	C	1.558609	1.509518	0.666590
C148	C	0.890866	0.770028	-0.000096
C149	C	1.224199	1.103362	0.333237
C150	C	1.557533	1.436695	0.666570
C151	C	0.826693	0.742146	-0.000095
C152	C	1.160026	1.075479	0.333239
C153	C	1.493359	1.408812	0.666572
N154	N	0.824523	0.092962	-0.189845
N155	N	1.157857	0.426296	0.143488
N156	N	1.491190	0.759629	0.476821
C157	C	0.872098	0.045358	0.227879
C158	C	1.205432	0.378691	0.561213
C159	C	1.538765	0.712025	0.894546
C160	C	0.872103	0.045355	0.304524
C161	C	1.205436	0.378688	0.637857
C162	C	1.538770	0.712021	0.971191
C163	C	0.824487	0.092956	0.342842
C164	C	1.157820	0.426289	0.676175
C165	C	1.491153	0.759622	1.009509
C166	C	0.776851	0.140551	0.304509
C167	C	1.110184	0.473885	0.637842
C168	C	1.443517	0.807218	0.971175
C169	C	0.776843	0.140549	0.227865
C170	C	1.110176	0.473882	0.561198
C171	C	1.443510	0.807215	0.894532
N172	N	0.815411	0.154764	0.463148
N173	N	1.148744	0.488097	0.796481
N174	N	1.482078	0.821431	1.129815
N175	N	0.815423	0.154764	0.535956
N176	N	1.148756	0.488098	0.869289
N177	N	1.482089	0.821431	1.202623
C178	C	0.824506	0.092966	0.573764
C179	C	1.157840	0.426299	0.907098
C180	C	1.491173	0.759632	1.240431
N181	N	0.833592	0.031165	0.536014
N182	N	1.166925	0.364498	0.869348
N183	N	1.500258	0.697831	1.202681
N184	N	0.833584	0.031165	0.463199
N185	N	1.166917	0.364498	0.796533
N186	N	1.500250	0.697831	1.129866
C187	C	0.824490	0.092964	0.425949
C188	C	1.157823	0.426297	0.759282
C189	C	1.491156	0.759630	1.092616
C190	C	0.872141	0.045366	0.695196
C191	C	1.205474	0.378699	1.028529
C192	C	1.538808	0.712033	1.361862
C193	C	0.872141	0.045362	0.771842
C194	C	1.205474	0.378695	1.105175
C195	C	1.538807	0.712029	1.438509
C196	C	0.776892	0.140565	0.771825
C197	C	1.110225	0.473898	1.105158
C198	C	1.443558	0.807231	1.438492
C199	C	0.776889	0.140563	0.695180
C200	C	1.110222	0.473896	1.028513
C201	C	1.443555	0.807229	1.361847
C202	C	0.824517	0.092964	0.656870
C203	C	1.157850	0.426298	0.990203
C204	C	1.491184	0.759631	1.323537
H205	H	0.612597	0.097218	-0.120544
H206	H	0.945930	0.430551	0.212789
H207	H	1.279263	0.763884	0.546122
H208	H	0.036389	0.088692	0.120248
H209	H	0.369722	0.422025	0.453581
H210	H	0.703055	0.755358	0.786915
Cl211	Cl	0.685351	0.916386	-0.000052
Cl212	Cl	1.018684	1.249720	0.333281
Cl213	Cl	1.352017	1.583053	0.666615
Cl214	Cl	0.932016	-0.014477	0.820024
Cl215	Cl	1.265349	0.318856	1.153357
Cl216	Cl	1.598682	0.652189	1.486691
H217	H	0.480487	0.095269	-0.120556
H218	H	0.813821	0.428603	0.212778
H219	H	1.147154	0.761936	0.546111
H220	H	0.036479	0.088702	-0.120597
H221	H	0.369812	0.422035	0.212736
H222	H	0.703145	0.755368	0.546069
H223	H	0.704801	0.320363	-0.000221
H224	H	1.038135	0.653697	0.333113
H225	H	1.371468	0.987030	0.666446
H226	H	0.910879	0.006599	0.196689
H227	H	1.244212	0.339932	0.530023
H228	H	1.577545	0.673266	0.863356
H229	H	0.910888	0.006598	0.335733
H230	H	1.244221	0.339931	0.669067
H231	H	1.577555	0.673265	1.002400
Cl232	Cl	0.464262	0.095028	0.149684
Cl233	Cl	0.797596	0.428362	0.483017
Cl234	Cl	1.130929	0.761695	0.816350
Cl235	Cl	0.932012	-0.014475	0.647033
Cl236	Cl	1.265346	0.318858	0.980367
Cl237	Cl	1.598679	0.652191	1.313700
Cl238	Cl	0.716987	0.200390	0.352678
Cl239	Cl	1.050321	0.533723	0.686011
Cl240	Cl	1.383654	0.867057	1.019344
H241	H	0.738109	0.179319	0.663975
H242	H	1.071442	0.512653	0.997308
H243	H	1.404776	0.845986	1.330641
H244	H	0.168502	0.090644	0.120262
H245	H	0.501835	0.423977	0.453595
H246	H	0.835169	0.757310	0.786929
Cl247	Cl	0.972610	0.877907	-0.000072
Cl248	Cl	1.305943	1.211241	0.333261
Cl249	Cl	1.639277	1.544574	0.666595
H250	H	0.612511	0.097231	0.120306
H251	H	0.945845	0.430564	0.453639
H252	H	1.279178	0.763898	0.786973
Cl253	Cl	0.966062	0.433897	-0.000206
Cl254	Cl	1.299395	0.767230	0.333127
Cl255	Cl	1.632729	1.100564	0.666460
Cl256	Cl	0.970186	0.713542	-0.000116
Cl257	Cl	1.303519	1.046876	0.333218
Cl258	Cl	1.636853	1.380209	0.666551
H259	H	0.706750	0.452473	-0.000180
H260	H	1.040083	0.785806	0.333153
H261	H	1.373416	1.119139	0.666486
H262	H	0.168589	0.090650	-0.120587
H263	H	0.501922	0.423983	0.212747
H264	H	0.835255	0.757316	0.546080
H265	H	0.711345	0.764374	-0.000076
H266	H	1.044679	1.097707	0.333258
H267	H	1.378012	1.431041	0.666591
H268	H	0.738119	0.179319	0.803023
H269	H	1.071452	0.512653	1.136356
H270	H	1.404786	0.845986	1.469689
Cl271	Cl	0.963643	0.269527	-0.000263
Cl272	Cl	1.296977	0.602860	0.333071
Cl273	Cl	1.630310	0.936194	0.666404
Cl274	Cl	0.716965	0.200384	0.179683
Cl275	Cl	1.050298	0.533718	0.513016
Cl276	Cl	1.383631	0.867051	0.846350
