data_functionalizedCrystal
_audit_creation_method	'MofGen! by Chris Wilmer'
_symmetry_space_group_name_H-M	'P1'
_symmetry_Int_Tables_number	1
_symmetry_cell_setting	triclinic
loop_
_symmetry_equiv_pos_as_xyz
  x,y,z
_cell_length_a	10.685980
_cell_length_b	12.827892
_cell_length_c	10.685971
_cell_angle_alpha	85.637411
_cell_angle_beta	90.339491
_cell_angle_gamma	94.382205
loop_
_atom_site_label
_atom_site_type_symbol
_atom_site_fract_x
_atom_site_fract_y
_atom_site_fract_z
Zn1	Zn	1.863281	-0.352393	0.856502
Zn2	Zn	1.879308	-0.512767	0.646741
Zn3	Zn	1.669647	-0.350320	0.630658
Zn4	Zn	1.653480	-0.539376	0.840344
O5	O	1.766429	-0.438714	0.743561
O6	O	2.040953	-0.363398	0.842169
O7	O	1.864969	-0.479215	0.469067
O8	O	1.695391	-0.204357	0.660648
O9	O	2.052728	-0.481225	0.688059
O10	O	1.837653	-0.205880	0.826574
O11	O	1.710932	-0.359866	0.457251
O12	O	1.491956	-0.385667	0.644980
O13	O	1.667837	-0.526575	1.018028
O14	O	1.480078	-0.524565	0.799036
O15	O	1.821977	-0.389199	1.029899
O16	O	1.849293	-0.662535	0.672391
O17	O	1.683378	-0.682084	0.814631
C18	C	1.440500	-0.457779	0.718510
C19	C	1.301064	-0.465963	0.707823
C20	C	1.766352	-0.710227	0.743533
C21	C	1.766431	-0.826377	0.743572
C22	C	1.848615	-0.868454	0.673279
C23	C	1.848698	-0.988502	0.673317
C24	C	2.093630	-0.419575	0.768710
C25	C	2.233064	-0.411419	0.779428
C26	C	1.741316	-0.461087	1.070751
C27	C	1.730614	-0.470621	1.210181
C28	C	1.766538	-0.166140	0.743619
C29	C	1.766584	-0.049986	0.743644
C30	C	1.791429	-0.416448	1.417642
C31	C	1.802114	-0.406901	1.278212
H32	H	1.918919	-0.815606	0.613074
H33	H	1.252603	-0.518923	0.638333
H34	H	1.871509	-0.345041	1.229782
C35	C	1.298514	-0.339871	0.873299
C36	C	1.442632	-0.331506	0.884224
C37	C	1.508090	-0.259956	0.978097
C38	C	1.429431	-0.196772	1.061045
C39	C	1.285305	-0.205134	1.050123
C40	C	1.219846	-0.276684	0.956250
H41	H	1.500867	-0.378281	0.822819
H42	H	1.614782	-0.253766	0.986182
H43	H	1.477888	-0.143807	1.130536
H44	H	1.227069	-0.158359	1.111528
H45	H	1.113154	-0.282874	0.948165
C46	C	1.943757	-1.037426	0.592011
C47	C	1.943705	-1.157484	0.592166
C48	C	2.038768	-1.206410	0.510857
C49	C	2.133883	-1.135277	0.429394
C50	C	2.133939	-1.015212	0.429237
C51	C	2.038876	-0.966286	0.510546
H52	H	1.873292	-1.210148	0.652472
H53	H	2.038726	-1.295291	0.510974
H54	H	2.204254	-1.171495	0.369205
H55	H	2.204352	-0.962548	0.368931
H56	H	2.038918	-0.877405	0.510429
H57	H	1.696215	-1.013772	0.803823
C58	C	1.671455	-0.897765	0.824916
C59	C	1.577330	-0.974944	0.762862
C60	C	1.482350	-1.046329	0.844208
C61	C	1.481496	-1.040533	0.987609
C62	C	1.575625	-0.963351	1.049671
C63	C	1.670605	-0.891966	0.968324
H64	H	1.577958	-0.979237	0.656701
H65	H	1.412670	-1.103464	0.798265
H66	H	1.411187	-1.093377	1.047827
H67	H	1.574996	-0.959058	1.155832
H68	H	1.740285	-0.834830	1.014267
C69	C	1.636861	-0.554182	1.275587
C70	C	1.625934	-0.563931	1.419699
C71	C	1.532179	-0.647494	1.485115
C72	C	1.449352	-0.721308	1.406419
C73	C	1.460277	-0.711561	1.262299
C74	C	1.554031	-0.627998	1.196883
H75	H	1.687250	-0.509288	1.477962
H76	H	1.524093	-0.654709	1.591802
H77	H	1.379949	-0.783166	1.454844
H78	H	1.398961	-0.766205	1.204036
H79	H	1.562118	-0.620784	1.090196
