data_functionalizedCrystal
_audit_creation_method	'MofGen! by Chris Wilmer'
_symmetry_space_group_name_H-M	'P1'
_symmetry_Int_Tables_number	1
_symmetry_cell_setting	triclinic
loop_
_symmetry_equiv_pos_as_xyz
  x,y,z
_cell_length_a	16.625547
_cell_length_b	16.625546
_cell_length_c	18.215385
_cell_angle_alpha	89.905583
_cell_angle_beta	89.930962
_cell_angle_gamma	90.022405
loop_
_atom_site_label
_atom_site_type_symbol
_atom_site_fract_x
_atom_site_fract_y
_atom_site_fract_z
Zn1	Zn	1.233033	-0.320492	-0.416191
Zn2	Zn	1.232832	-0.455486	-0.293122
Zn3	Zn	1.098090	-0.320671	-0.293129
Zn4	Zn	1.098165	-0.455286	-0.416138
O5	O	1.165530	-0.387984	-0.354645
O6	O	1.345838	-0.338408	-0.399885
O7	O	1.214843	-0.437760	-0.190138
O8	O	1.116044	-0.207814	-0.309479
O9	O	1.345691	-0.437587	-0.309466
O10	O	1.215185	-0.207683	-0.399892
O11	O	1.115849	-0.338712	-0.190144
O12	O	0.985268	-0.338519	-0.309428
O13	O	1.116171	-0.437247	-0.519130
O14	O	0.985322	-0.437420	-0.399802
O15	O	1.215257	-0.338214	-0.519169
O16	O	1.214915	-0.568292	-0.309415
O17	O	1.115976	-0.568145	-0.399795
C18	C	0.956039	-0.387968	-0.354610
C19	C	0.866418	-0.387981	-0.354613
C20	C	0.793635	-0.387982	-0.354622
C21	C	0.702327	-0.387986	-0.354640
C22	C	0.629551	-0.387994	-0.354659
C23	C	0.538236	-0.387999	-0.354677
C24	C	1.165454	-0.597474	-0.354614
C25	C	1.165495	-0.687096	-0.354626
C26	C	1.165635	-1.015271	-0.354702
C27	C	1.165594	-0.923963	-0.354683
C28	C	1.165564	-0.851186	-0.354664
C29	C	1.165524	-0.759872	-0.354645
C30	C	1.375839	-0.388000	-0.354680
C31	C	1.465460	-0.388007	-0.354695
C32	C	1.165745	-0.387688	-0.546599
C33	C	1.165836	-0.387563	-0.628398
C34	C	1.165628	-0.177675	-0.354692
C35	C	1.165670	-0.088053	-0.354712
C36	C	1.165362	-0.388219	-0.163438
C37	C	1.165427	-0.388118	-0.081640
C38	C	1.113685	-0.336693	0.106516
C39	C	1.113755	-0.336597	0.183375
C40	C	1.217584	-0.438990	0.183441
C41	C	1.217517	-0.439081	0.106584
C42	C	1.165563	-0.387934	0.068123
C43	C	1.165700	-0.387747	0.221839
C44	C	1.165777	-0.387643	0.305173
C45	C	1.165487	-0.388037	-0.015215
H46	H	1.071384	-0.295043	0.075204
N47	N	1.270633	-0.491251	0.222728
N48	N	1.265775	-0.565698	0.214336
H49	H	1.303240	-0.602612	0.242082
H50	H	1.071512	-0.294870	0.214631
H51	H	1.259767	-0.480808	0.075323
