data_functionalizedCrystal
_audit_creation_method	'MofGen! by Chris Wilmer'
_symmetry_space_group_name_H-M	'P1'
_symmetry_Int_Tables_number	1
_symmetry_cell_setting	triclinic
loop_
_symmetry_equiv_pos_as_xyz
  x,y,z
_cell_length_a	10.654534
_cell_length_b	10.654549
_cell_length_c	9.130313
_cell_angle_alpha	89.996463
_cell_angle_beta	90.004310
_cell_angle_gamma	95.518409
loop_
_atom_site_label
_atom_site_type_symbol
_atom_site_fract_x
_atom_site_fract_y
_atom_site_fract_z
O1	O	-1.667851	0.176303	-0.121824
O2	O	-1.302370	0.193130	-0.121820
O3	O	-1.493514	0.001977	-0.121816
O4	O	-1.476707	0.367457	-0.121828
O5	O	-1.493500	0.001972	0.121783
O6	O	-1.302357	0.193125	0.121779
O7	O	-1.667838	0.176298	0.121775
Cu8	Cu	-1.485096	0.184711	0.144019
Cu9	Cu	-1.485112	0.184717	-0.144064
O10	O	-1.476694	0.367451	0.121771
C11	C	-1.255565	0.191896	-0.000020
C12	C	-1.116121	0.188212	-0.000019
C13	C	-1.050609	0.186475	0.132769
C14	C	-0.919589	0.182993	0.132773
C15	C	-0.919603	0.182991	-0.132812
C16	C	-1.050622	0.186464	-0.132814
C17	C	-1.492273	-0.044824	-0.000018
C18	C	-1.488581	-0.184267	-0.000023
C19	C	-0.714641	0.177542	-0.000022
C20	C	-0.854082	0.181257	-0.000013
C21	C	-1.597646	-0.394788	-0.000034
C22	C	-1.601124	-0.263767	-0.000022
C23	C	-1.372553	-0.235792	-0.000020
C24	C	-1.369076	-0.366811	-0.000021
C25	C	-1.477934	0.414252	-0.000030
C26	C	-1.481626	0.553695	-0.000035
N27	N	-1.485094	0.184705	0.346642
N28	N	-1.485123	0.184713	-0.346687
C29	C	-1.569761	0.100099	0.423296
C30	C	-1.569774	0.100099	0.576633
C31	C	-1.400447	0.269324	0.576648
C32	C	-1.400430	0.269316	0.423314
H33	H	-0.866254	0.181579	0.240902
H34	H	-1.638716	0.031203	0.639040
H35	H	-1.689292	-0.459509	-0.000045
O36	O	-1.651866	0.017704	0.348914
C37	C	-1.723576	-0.200028	0.302193
C38	C	-1.630503	-0.106834	0.386467
H39	H	-1.706355	-0.300736	0.332547
H40	H	-1.709052	-0.185649	0.179406
H41	H	-1.824298	-0.182677	0.332313
H42	H	-1.529745	-0.124128	0.356469
H43	H	-1.645137	-0.121235	0.509234
O44	O	-1.114352	0.187934	-0.261775
C45	C	-1.275635	0.083281	-0.415854
C46	C	-1.203537	0.081452	-0.269780
H47	H	-1.347776	-0.002785	-0.422360
H48	H	-1.206384	0.081366	-0.510824
H49	H	-1.326180	0.172683	-0.422474
H50	H	-1.152989	-0.007935	-0.263016
H51	H	-1.272848	0.083434	-0.174879
O52	O	-1.713933	-0.213931	-0.000091
C53	C	-1.940277	-0.255514	-0.000014
C54	C	-1.812602	-0.312118	0.000027
H55	H	-2.020084	-0.334870	0.000112
H56	H	-1.947709	-0.194910	-0.101980
H57	H	-1.947549	-0.194841	0.101911
H58	H	-1.805243	-0.372848	-0.101830
H59	H	-1.805225	-0.372650	0.102060
H60	H	-1.103934	0.187899	0.240900
H61	H	-1.331477	0.338214	0.360899
H62	H	-0.866259	0.181568	-0.240929
O63	O	-1.256443	-0.417009	-0.000222
C64	C	-1.119848	-0.548636	-0.126468
C65	C	-1.247450	-0.491894	-0.126412
H66	H	-1.112525	-0.609172	-0.228497
H67	H	-1.112481	-0.609364	-0.024592
H68	H	-1.040025	-0.469295	-0.126399
H69	H	-1.327347	-0.571154	-0.126532
H70	H	-1.254707	-0.431134	-0.228279
H71	H	-1.280919	-0.171052	-0.000012
H72	H	-1.331517	0.338214	0.639090
