data_functionalizedCrystal
_audit_creation_method	'MofGen! by Chris Wilmer'
_symmetry_space_group_name_H-M	'P1'
_symmetry_Int_Tables_number	1
_symmetry_cell_setting	triclinic
loop_
_symmetry_equiv_pos_as_xyz
  x,y,z
_cell_length_a	13.032831
_cell_length_b	16.625546
_cell_length_c	13.034296
_cell_angle_alpha	82.786634
_cell_angle_beta	74.814550
_cell_angle_gamma	82.826778
loop_
_atom_site_label
_atom_site_type_symbol
_atom_site_fract_x
_atom_site_fract_y
_atom_site_fract_z
Zn1	Zn	1.700150	-0.408761	-0.806419
Zn2	Zn	2.200150	0.091239	-0.306419
Zn3	Zn	1.677445	-0.558797	-0.628778
Zn4	Zn	2.177445	-0.058797	-0.128778
Zn5	Zn	1.499953	-0.408768	-0.606300
Zn6	Zn	1.999953	0.091232	-0.106300
Zn7	Zn	1.522480	-0.528334	-0.783834
Zn8	Zn	2.022480	-0.028334	-0.283834
O9	O	1.600007	-0.476165	-0.706333
O10	O	2.100007	0.023835	-0.206333
O11	O	1.845775	-0.441409	-0.801714
O12	O	2.345775	0.058591	-0.301714
O13	O	1.634971	-0.551647	-0.477154
O14	O	2.134971	-0.051647	0.022846
O15	O	1.526584	-0.295937	-0.632892
O16	O	2.026584	0.204063	-0.132892
O17	O	1.829094	-0.551640	-0.671201
O18	O	2.329094	-0.051640	-0.171201
O19	O	1.673668	-0.295932	-0.779918
O20	O	2.173668	0.204068	-0.279918
O21	O	1.504568	-0.441422	-0.460640
O22	O	2.004568	0.058578	0.039360
O23	O	1.354305	-0.411883	-0.610992
O24	O	1.854305	0.088117	-0.110992
O25	O	1.564978	-0.499720	-0.935472
O26	O	2.064978	0.000280	-0.435472
O27	O	1.370855	-0.499728	-0.741425
O28	O	1.870855	0.000272	-0.241425
O29	O	1.695512	-0.411870	-0.952065
O30	O	2.195512	0.088130	-0.452065
O31	O	1.656815	-0.667586	-0.649301
O32	O	2.156815	-0.167586	-0.149301
O33	O	1.542963	-0.645205	-0.763220
O34	O	2.042963	-0.145205	-0.263220
C35	C	1.324040	-0.452501	-0.671319
C36	C	1.824040	0.047499	-0.171319
C37	C	1.205984	-0.442395	-0.656365
C38	C	1.705984	0.057605	-0.156365
C39	C	1.161555	-0.481440	-0.714137
C40	C	1.661555	0.018560	-0.214137
C41	C	1.039537	-0.470995	-0.698683
C42	C	1.539537	0.029005	-0.198683
C43	C	1.599901	-0.685651	-0.706276
C44	C	2.099901	-0.185651	-0.206276
C45	C	1.599957	-0.775275	-0.706299
C46	C	2.099957	-0.275275	-0.206299
C47	C	1.600157	-1.103457	-0.706433
C48	C	2.100157	-0.603457	-0.206433
C49	C	1.600098	-1.012146	-0.706398
C50	C	2.100098	-0.512146	-0.206398
C51	C	1.600056	-0.939369	-0.706365
C52	C	2.100056	-0.439369	-0.206365
C53	C	1.599999	-0.848053	-0.706332
C54	C	2.099999	-0.348053	-0.206332
C55	C	1.877052	-0.499922	-0.741484
C56	C	2.377052	0.000078	-0.241484
C57	C	1.995112	-0.510046	-0.756463
C58	C	2.495112	-0.010046	-0.256463
C59	C	1.635290	-0.452396	-0.983387
C60	C	2.135290	0.047604	-0.483387
C61	C	1.650326	-0.442268	-1.101452
C62	C	2.150326	0.057732	-0.601452
C63	C	1.600146	-0.265861	-0.706417
C64	C	2.100146	0.234139	-0.206417
C65	C	1.600205	-0.176242	-0.706453
C66	C	2.100205	0.323758	-0.206453
C67	C	1.592444	-0.481218	-1.145878
C68	C	2.092444	0.018782	-0.645878
C69	C	1.607983	-0.470751	-1.267903
C70	C	2.107983	0.029249	-0.767903
C71	C	1.564922	-0.499788	-0.430364
C72	C	2.064922	0.000212	0.069636
C73	C	1.550093	-0.509707	-0.312326
C74	C	2.050093	-0.009707	0.187674
H75	H	1.213851	-0.522596	-0.775043
H76	H	1.713851	-0.022596	-0.275043
O77	O	1.064369	-0.564571	-0.837144
O78	O	1.564369	-0.064571	-0.337144
H79	H	1.053786	-0.541876	-0.917874
H80	H	1.553786	-0.041876	-0.417874
H81	H	1.711388	-0.401174	-1.153756
H82	H	2.211388	0.098826	-0.653756
O83	O	0.970269	-0.416484	-0.617990
O84	O	1.470269	0.083516	-0.117990
H85	H	0.925807	-0.367140	-0.659264
H86	H	1.425807	0.132860	-0.159264
H87	H	1.669049	-0.429654	-1.320204
H88	H	2.169049	0.070346	-0.820204
O89	O	1.136725	-0.387886	-0.575670
O90	O	1.636725	0.112114	-0.075670
H91	H	1.051754	-0.388249	-0.576180
H92	H	1.551754	0.111751	-0.076180
O93	O	1.511556	-0.535655	-1.076611
O94	O	2.011556	-0.035655	-0.576611
H95	H	1.512038	-0.535328	-0.991636
H96	H	2.012038	-0.035328	-0.491636
O97	O	1.469167	-0.564116	-1.243052
O98	O	1.969167	-0.064116	-0.743052
H99	H	1.429123	-0.591047	-1.294158
H100	H	1.929123	-0.091047	-0.794158
