data_functionalizedCrystal
_audit_creation_method	'MofGen! by Chris Wilmer'
_symmetry_space_group_name_H-M	'P1'
_symmetry_Int_Tables_number	1
_symmetry_cell_setting	triclinic
loop_
_symmetry_equiv_pos_as_xyz
  x,y,z
_cell_length_a	19.121063
_cell_length_b	17.639874
_cell_length_c	17.640968
_cell_angle_alpha	87.863041
_cell_angle_beta	81.648500
_cell_angle_gamma	76.853107
loop_
_atom_site_label
_atom_site_type_symbol
_atom_site_fract_x
_atom_site_fract_y
_atom_site_fract_z
Zn1	Zn	-0.020149	-1.247042	-0.196235
Zn2	Zn	-0.164574	-1.215942	-0.077249
Zn3	Zn	-0.065681	-1.092693	-0.097397
Zn4	Zn	-0.155357	-1.115023	-0.229317
O5	O	-0.101440	-1.167675	-0.150049
O6	O	-0.024110	-1.349748	-0.158174
O7	O	-0.174369	-1.177232	0.025083
O8	O	0.038331	-1.116838	-0.105095
O9	O	-0.130218	-1.326899	-0.070755
O10	O	0.071783	-1.230238	-0.177711
O11	O	-0.101712	-1.086682	0.010280
O12	O	-0.092774	-0.988824	-0.137174
O13	O	-0.114508	-1.154896	-0.329934
O14	O	-0.158659	-1.005230	-0.234095
O15	O	-0.015172	-1.251890	-0.305628
O16	O	-0.261324	-1.198884	-0.102834
O17	O	-0.254552	-1.124739	-0.214558
C18	C	-0.129658	-0.969327	-0.191411
C19	C	-0.141742	-0.884476	-0.209125
C20	C	-0.009587	-0.562689	-0.015447
C21	C	-0.020954	-0.482960	-0.032102
C22	C	-0.089719	-0.500057	-0.132867
C23	C	-0.078354	-0.579790	-0.116223
C24	C	-0.038288	-0.611099	-0.057511
C25	C	-0.107056	-0.628200	-0.158287
C26	C	-0.095695	-0.707925	-0.141641
C27	C	-0.055633	-0.739240	-0.082930
C28	C	-0.026928	-0.690824	-0.040865
C29	C	-0.147126	-0.596889	-0.216995
C30	C	-0.175828	-0.645299	-0.259059
C31	C	-0.164463	-0.725026	-0.242417
C32	C	-0.124401	-0.756341	-0.183707
C33	C	-0.193168	-0.773442	-0.284483
C34	C	-0.181808	-0.853167	-0.267837
C35	C	-0.113040	-0.836066	-0.167060
C36	C	-0.283334	-1.160884	-0.160112
C37	C	-0.361134	-1.158054	-0.164427
C38	C	-0.401173	-1.195374	-0.108317
C39	C	-0.474272	-1.192718	-0.112379
C40	C	-0.507332	-1.152737	-0.172548
C41	C	-0.467287	-1.115416	-0.228663
C42	C	-0.394188	-1.118077	-0.224604
C43	C	-0.727868	-1.142772	-0.187716
C44	C	-0.800973	-1.140112	-0.191770
C45	C	-0.807952	-1.217416	-0.075486
C46	C	-0.734853	-1.220070	-0.071430
C47	C	-0.694813	-1.182752	-0.127547
C48	C	-0.582051	-1.150019	-0.176700
C49	C	-0.620094	-1.185475	-0.123397
C50	C	0.081170	-1.174517	-0.139960
C51	C	0.158988	-1.177432	-0.135661
C52	C	-0.058733	-1.209353	-0.345769
C53	C	-0.040534	-1.227114	-0.429173
C54	C	-0.073106	-0.366796	-0.108518
C55	C	-0.061013	-0.451647	-0.090799
C56	C	-0.239276	-1.033056	-0.766745
C57	C	-0.222164	-1.049762	-0.845112
C58	C	-0.118734	-1.150753	-0.819794
C59	C	-0.135835	-1.134054	-0.741424
C60	C	-0.196108	-1.075205	-0.714906
C61	C	-0.092667	-1.176203	-0.689585
C62	C	-0.109769	-1.159507	-0.611221
C63	C	-0.170040	-1.100663	-0.584697
C64	C	-0.213210	-1.058510	-0.636542
C65	C	-0.032397	-1.235055	-0.716104
C66	C	0.010771	-1.277204	-0.664265
C67	C	-0.006328	-1.260505	-0.585900
C68	C	-0.066599	-1.201660	-0.559375
C69	C	0.036842	-1.302658	-0.534054
C70	C	0.019739	-1.285962	-0.455691
C71	C	-0.083702	-1.184965	-0.481012
C72	C	-0.143925	-1.126205	0.044920
C73	C	-0.161906	-1.108600	0.128366
H74	H	-0.225796	-0.747937	-0.332280
C75	C	-0.188853	-1.082297	-0.498494
N76	N	-0.203022	-1.068462	-0.433565
C77	C	-0.213377	-0.906422	-0.314113
N78	N	-0.237157	-0.946534	-0.348969
H79	H	-0.494209	-1.082866	-0.277657
H80	H	-0.018476	-1.248648	-0.779913
C81	C	-0.279513	-0.993772	-0.607369
N82	N	-0.329452	-0.945016	-0.585394
H83	H	-0.069661	-1.198670	-0.841396
C84	C	-0.350145	-1.077022	-0.286329
N85	N	-0.316972	-1.046101	-0.332824
C86	C	-0.837336	-1.096133	-0.257968
N87	N	-0.864724	-1.063011	-0.307826
H88	H	-0.695274	-1.112385	-0.233408
H89	H	-0.506869	-1.223108	-0.066688
H90	H	-0.593173	-1.218032	-0.074410
H91	H	-0.608978	-1.117464	-0.225689
H92	H	-0.257322	-1.015434	-0.887319
C93	C	0.077074	-1.341929	-0.693445
N94	N	0.127018	-1.390678	-0.715424
H95	H	0.085911	-1.350578	-0.555657
H96	H	-0.132768	-1.137027	-0.459423
C97	C	0.067228	-1.332327	-0.398665
N98	N	0.102996	-1.367252	-0.355712
C99	C	-0.305579	-0.968319	-0.737572
N100	N	-0.355517	-0.919562	-0.715597
H101	H	-0.122343	-0.474554	-0.180668
H102	H	-0.046386	-0.804157	-0.069377
C103	C	-0.068963	-0.870510	-0.102477
N104	N	-0.035766	-0.896454	-0.053834
H105	H	0.002428	-0.443547	0.002151
H106	H	0.005710	-0.716320	0.006934
C107	C	-0.159621	-0.509188	-0.235305
N108	N	-0.169031	-0.443132	-0.249096
C109	C	0.034491	-0.597133	0.049137
N110	N	0.067688	-0.623077	0.097780
C111	C	-0.219897	-0.610850	-0.323642
N112	N	-0.253089	-0.584904	-0.372288
H113	H	-0.840560	-1.247799	-0.029800
H114	H	-0.374261	-1.227928	-0.059318
C115	C	-0.698499	-1.264029	-0.005224
N116	N	-0.671121	-1.297129	0.044650
