data_functionalizedCrystal
_audit_creation_method	'MofGen! by Chris Wilmer'
_symmetry_space_group_name_H-M	'P1'
_symmetry_Int_Tables_number	1
_symmetry_cell_setting	triclinic
loop_
_symmetry_equiv_pos_as_xyz
  x,y,z
_cell_length_a	10.654545
_cell_length_b	16.776229
_cell_length_c	10.654550
_cell_angle_alpha	89.997634
_cell_angle_beta	95.515995
_cell_angle_gamma	90.006668
loop_
_atom_site_label
_atom_site_type_symbol
_atom_site_fract_x
_atom_site_fract_y
_atom_site_fract_z
O1	O	1.667849	0.066272	-0.176375
O2	O	1.302370	0.066275	-0.193187
O3	O	1.493512	0.066277	-0.002042
O4	O	1.476706	0.066270	-0.367520
O5	O	1.493487	-0.066300	-0.002029
O6	O	1.302344	-0.066302	-0.193175
O7	O	1.667823	-0.066304	-0.176363
Zn8	Zn	1.485080	-0.087353	-0.184767
Zn9	Zn	1.485113	0.087323	-0.184783
O10	O	1.476681	-0.066306	-0.367508
C11	C	1.255559	-0.000013	-0.191948
C12	C	1.116115	-0.000012	-0.188258
N13	N	1.485066	-0.206564	-0.184755
C14	C	1.050597	-0.072280	-0.186515
C15	C	0.919577	-0.072280	-0.183027
C16	C	0.919606	0.072262	-0.183032
C17	C	1.050624	0.072262	-0.186510
C18	C	1.569730	-0.248280	-0.100151
C19	C	1.569737	-0.331732	-0.100150
C20	C	1.485085	-0.373467	-0.184760
C21	C	1.400411	-0.331745	-0.269368
C22	C	1.400399	-0.248294	-0.269362
C23	C	1.400457	-0.668292	-0.269393
C24	C	1.400478	-0.751748	-0.269396
C25	C	1.569795	-0.751730	-0.100182
C26	C	1.569783	-0.668279	-0.100176
C27	C	1.485105	-0.626565	-0.184778
C28	C	1.485097	-0.536076	-0.184777
C29	C	1.485098	-0.463954	-0.184769
C30	C	1.714634	-0.000015	-0.177602
C31	C	1.854078	-0.000011	-0.181292
C32	C	1.477927	-0.000019	-0.414312
C33	C	1.481619	-0.000021	-0.553755
N34	N	1.485137	0.206534	-0.184785
C35	C	1.369078	-0.000019	-0.633243
C36	C	1.372554	-0.000006	-0.764264
C37	C	1.601124	-0.000002	-0.736297
C38	C	1.597646	-0.000009	-0.605279
C39	C	1.492266	-0.000009	0.044762
C40	C	1.488574	-0.000002	0.184206
H41	H	1.103916	-0.131130	-0.187938
F42	F	1.717435	-0.000008	-0.520676
F43	F	1.659836	-0.203871	-0.010102
F44	F	0.849898	0.149177	-0.181147
F45	F	0.849853	-0.149197	-0.181173
H46	H	1.331539	-0.785727	-0.338297
F47	F	1.252771	0.000001	-0.848855
F48	F	1.120359	0.149183	-0.188358
H49	H	1.331512	-0.634334	-0.338282
F50	F	1.724601	0.000009	-0.791143
F51	F	1.659884	-0.623866	-0.010128
F52	F	1.659844	-0.376130	-0.010104
F53	F	1.310284	-0.203898	-0.359406
F54	F	1.659913	-0.796132	-0.010134
H55	H	1.331479	-0.365730	-0.338255
H56	H	1.274601	-0.000031	-0.591298
