data_functionalizedCrystal
_audit_creation_method	'MofGen! by Chris Wilmer'
_symmetry_space_group_name_H-M	'P1'
_symmetry_Int_Tables_number	1
_symmetry_cell_setting	triclinic
loop_
_symmetry_equiv_pos_as_xyz
  x,y,z
_cell_length_a	15.995350
_cell_length_b	15.995350
_cell_length_c	14.472310
_cell_angle_alpha	89.998838
_cell_angle_beta	90.009379
_cell_angle_gamma	83.492375
loop_
_atom_site_label
_atom_site_type_symbol
_atom_site_fract_x
_atom_site_fract_y
_atom_site_fract_z
O1	O	-1.110997	-0.107921	-0.076758
O2	O	-0.610997	0.392079	0.423242
O3	O	-0.867221	-0.121248	-0.076776
O4	O	-0.367221	0.378752	0.423224
O5	O	-0.995773	0.007303	-0.076766
O6	O	-0.495773	0.507303	0.423234
O7	O	-0.982445	-0.236472	-0.076769
O8	O	-0.482445	0.263528	0.423231
O9	O	-0.995740	0.007296	0.076916
O10	O	-0.495740	0.507296	0.576916
O11	O	-0.867188	-0.121256	0.076906
O12	O	-0.367188	0.378744	0.576906
O13	O	-1.110963	-0.107928	0.076924
O14	O	-0.610963	0.392072	0.576924
Cu15	Cu	-0.989073	-0.114593	0.090947
Cu16	Cu	-0.489073	0.385407	0.590947
Cu17	Cu	-0.989112	-0.114584	-0.090800
Cu18	Cu	-0.489112	0.385416	0.409200
O19	O	-0.982412	-0.236480	0.076913
O20	O	-0.482412	0.263520	0.576913
C21	C	-0.995205	0.038494	0.000073
C22	C	-0.495205	0.538494	0.500073
C23	C	-0.993553	0.131444	0.000068
C24	C	-0.493553	0.631444	0.500068
C25	C	-0.836010	-0.120701	0.000062
C26	C	-0.336010	0.379299	0.500062
C27	C	-0.743060	-0.119049	0.000055
C28	C	-0.243060	0.380951	0.500055
C29	C	-1.142175	-0.108476	0.000083
C30	C	-0.642175	0.391524	0.500083
C31	C	-1.235125	-0.110127	0.000084
C32	C	-0.735125	0.389873	0.500084
C33	C	-0.405312	-0.113117	0.000074
C34	C	0.094688	0.386883	0.500074
C35	C	-0.452746	-0.021565	0.000418
C36	C	0.047254	0.478435	0.500418
C37	C	-0.549436	-0.023217	0.000065
C38	C	-0.049436	0.476783	0.500065
C39	C	-0.572873	-0.116060	0.000065
C40	C	-0.072873	0.383940	0.500065
C41	C	-0.531804	-0.161212	-0.087692
C42	C	-0.031804	0.338788	0.412308
C43	C	-0.435169	-0.158912	-0.087759
C44	C	0.064831	0.341088	0.412241
C45	C	-0.434792	-0.160812	0.087007
C46	C	0.065208	0.339188	0.587007
C47	C	-0.531737	-0.160790	0.088160
C48	C	-0.031737	0.339210	0.588160
C49	C	-0.667570	-0.117727	0.000057
C50	C	-0.167570	0.382273	0.500057
C51	C	-0.310614	-0.111452	0.000076
C52	C	0.189386	0.388548	0.500076
C53	C	-0.982980	-0.267671	0.000072
C54	C	-0.482980	0.232329	0.500072
C55	C	-0.984631	-0.360621	0.000071
C56	C	-0.484631	0.139379	0.500071
N57	N	-0.989051	-0.114598	0.218778
N58	N	-0.489051	0.385402	0.718778
C59	C	-0.987621	0.469192	0.000071
C60	C	-0.487621	0.969192	0.500071
C61	C	-0.896069	0.421758	-0.000281
C62	C	-0.396069	0.921758	0.499719
C63	C	-0.897721	0.325068	0.000066
C64	C	-0.397721	0.825068	0.500066
C65	C	-0.990564	0.301631	0.000069
C66	C	-0.490564	0.801631	0.500069
C67	C	-1.035701	0.342705	0.087831
C68	C	-0.535701	0.842705	0.587831
C69	C	-1.033401	0.439340	0.087904
C70	C	-0.533401	0.939340	0.587904
C71	C	-1.035330	0.439707	-0.086861
C72	C	-0.535330	0.939707	0.413139
C73	C	-1.035309	0.342762	-0.088021
C74	C	-0.535309	0.842762	0.411979
C75	C	-0.992231	0.206934	0.000071
C76	C	-0.492231	0.706934	0.500071
C77	C	-0.985956	0.563890	0.000075
C78	C	-0.485956	1.063890	0.500075
N79	N	-0.989140	-0.114572	-0.218631
N80	N	-0.489140	0.385428	0.281369
C81	C	-0.989111	-0.114581	0.592869
C82	C	-0.489111	0.385419	1.092869
C83	C	-0.920095	-0.183135	0.553698
C84	C	-0.420095	0.316865	1.053698
C85	C	-0.920254	-0.183385	0.446610
C86	C	-0.420254	0.316615	0.946610
C87	C	-0.989081	-0.114590	0.407278
C88	C	-0.489081	0.385410	0.907278
C89	C	-1.076445	-0.133671	0.446122
C90	C	-0.576445	0.366329	0.946122
C91	C	-1.076057	-0.134159	0.553243
C92	C	-0.576057	0.365841	1.053243
C93	C	-0.971542	-0.026741	0.553398
C94	C	-0.471542	0.473259	1.053398
C95	C	-0.969538	-0.027327	0.446270
C96	C	-0.469538	0.472673	0.946270
C97	C	-0.989069	-0.114593	0.302390
C98	C	-0.489069	0.385407	0.802390
C99	C	-0.989128	-0.114579	0.697757
C100	C	-0.489128	0.385421	1.197757
H101	H	-0.434210	0.015027	0.063352
H102	H	0.065790	0.515027	0.563352
H103	H	-0.854945	-0.171953	0.579481
H104	H	-0.354945	0.328047	1.079481
H105	H	-0.547101	-0.228494	0.093461
H106	H	-0.047101	0.271506	0.593461
C107	C	-1.147514	-0.069272	0.588252
C108	C	-0.647514	0.430728	1.088252
H109	H	-1.176656	-0.042737	0.537003
H110	H	-0.676656	0.457263	1.037003
H111	H	-1.124492	-0.028127	0.624732
H112	H	-0.624492	0.471873	1.124732
H113	H	-1.185490	-0.096931	0.624604
H114	H	-0.685490	0.403069	1.124604
H115	H	-0.909219	-0.008392	0.580461
H116	H	-0.409219	0.491608	1.080461
H117	H	-0.861973	0.297200	0.063079
H118	H	-0.361973	0.797200	0.563079
H119	H	-0.577308	0.012521	-0.062951
H120	H	-0.077308	0.512521	0.437049
H121	H	-1.004324	0.314320	0.153137
H122	H	-0.504324	0.814320	0.653137
C123	C	-0.587828	0.024729	0.085045
C124	C	-0.087828	0.524729	0.585045
H125	H	-0.544335	0.045399	0.120093
H126	H	-0.044335	0.545399	0.620093
H127	H	-0.616110	-0.012175	0.122170
H128	H	-0.116110	0.487825	0.622170
H129	H	-0.626712	0.070559	0.065297
H130	H	-0.126712	0.570559	0.565297
C131	C	-0.410451	-0.114417	-0.176372
C132	C	0.089549	0.385583	0.323628
H133	H	-0.459447	-0.097910	-0.211988
H134	H	0.040553	0.402090	0.288012
H135	H	-0.372484	-0.151822	-0.211458
H136	H	0.127516	0.348178	0.288542
H137	H	-0.384186	-0.066051	-0.160334
H138	H	0.115814	0.433949	0.339666
H139	H	-1.000459	0.457639	0.153505
H140	H	-0.500459	0.957639	0.653505
C141	C	-0.849791	0.286668	-0.084919
C142	C	-0.349791	0.786668	0.415081
H143	H	-0.850743	0.227389	-0.084824
H144	H	-0.350743	0.727389	0.415176
H145	H	-0.793163	0.299158	-0.082755
H146	H	-0.293163	0.799158	0.417245
H147	H	-0.875911	0.309761	-0.139616
H148	H	-0.375911	0.809761	0.360384
H149	H	-0.433166	0.014865	-0.062168
H150	H	0.066834	0.514865	0.437832
H151	H	-0.560193	-0.129845	-0.153002
H152	H	-0.060193	0.370155	0.346998
C153	C	-0.391601	-0.249708	-0.093163
C154	C	0.108399	0.250292	0.406837
H155	H	-0.432985	-0.287835	-0.095315
H156	H	0.067015	0.212165	0.404685
H157	H	-0.357073	-0.261269	-0.040248
H158	H	0.142927	0.238731	0.459752
H159	H	-0.357877	-0.256038	-0.147285
H160	H	0.142123	0.243962	0.352715
H161	H	-1.092297	-0.197002	0.419285
H162	H	-0.592297	0.302998	0.919285
H163	H	-0.545930	-0.229421	-0.090955
H164	H	-0.045930	0.270579	0.409045
H165	H	-0.414242	-0.130885	0.153524
H166	H	0.085758	0.369115	0.653524
C167	C	-0.846827	0.448222	0.084250
C168	C	-0.346827	0.948222	0.584250
H169	H	-0.791582	0.419280	0.083502
H170	H	-0.291582	0.919280	0.583502
H171	H	-0.874761	0.434565	0.139214
H172	H	-0.374761	0.934565	0.639214
H173	H	-0.843746	0.507156	0.082170
H174	H	-0.343746	1.007156	0.582170
H175	H	-1.103909	0.328579	0.091097
H176	H	-0.603909	0.828579	0.591097
H177	H	-1.100617	0.471588	0.091888
H178	H	-0.600617	0.971588	0.591888
C179	C	-0.882720	-0.007761	0.411981
C180	C	-0.382720	0.492239	0.911981
H181	H	-0.858480	-0.052577	0.374055
H182	H	-0.358480	0.447423	0.874055
H183	H	-0.847103	-0.001592	0.463479
H184	H	-0.347103	0.498408	0.963479
H185	H	-0.889020	0.042954	0.377234
H186	H	-0.389020	0.542954	0.877234
C187	C	-0.568612	-0.116264	0.175867
C188	C	-0.068612	0.383736	0.675867
H189	H	-0.608913	-0.070606	0.158878
H190	H	-0.108913	0.429394	0.658878
H191	H	-0.524711	-0.095698	0.210333
H192	H	-0.024711	0.404302	0.710333
H193	H	-0.594984	-0.155019	0.212491
H194	H	-0.094984	0.344981	0.712491
C195	C	-1.096966	-0.220697	0.586994
C196	C	-0.596966	0.279303	1.086994
H197	H	-1.096917	-0.221756	0.652629
H198	H	-0.596917	0.278244	1.152629
H199	H	-1.055938	-0.263355	0.564334
H200	H	-0.555938	0.236645	1.064334
H201	H	-1.150953	-0.230362	0.564849
H202	H	-0.650953	0.269638	1.064849
H203	H	-0.403031	-0.228313	0.087600
H204	H	0.096969	0.271687	0.587600
H205	H	-1.016541	0.026079	0.419500
H206	H	-0.516541	0.526079	0.919500
H207	H	-0.859490	0.440293	-0.063217
H208	H	-0.359490	0.940293	0.436783
H209	H	-1.005412	0.460250	-0.153379
H210	H	-0.505412	0.960250	0.346621
H211	H	-1.002307	0.315516	-0.152945
H212	H	-0.502307	0.815516	0.347055
H213	H	-0.931159	-0.247952	0.580608
H214	H	-0.431159	0.252048	1.080608
C215	C	-1.126775	0.322017	-0.095178
C216	C	-0.626775	0.822017	0.404822
H217	H	-1.138928	0.287853	-0.044306
H218	H	-0.638928	0.787853	0.455694
H219	H	-1.133879	0.292675	-0.151190
H220	H	-0.633879	0.792675	0.348810
H221	H	-1.163954	0.372734	-0.094431
H222	H	-0.663954	0.872734	0.405569
C223	C	-1.126514	0.482618	-0.087665
C224	C	-0.626514	0.982618	0.412335
H225	H	-1.135499	0.518334	-0.035310
H226	H	-0.635499	1.018334	0.464690
H227	H	-1.164341	0.440956	-0.085738
H228	H	-0.664341	0.940956	0.414262
H229	H	-1.135946	0.515057	-0.142436
H230	H	-0.635946	1.015057	0.357564
H231	H	-0.855314	-0.172016	0.420349
H232	H	-0.355314	0.327984	0.920349
C233	C	-0.935414	-0.271440	0.411974
C234	C	-0.435414	0.228560	0.911974
H235	H	-0.941508	-0.307196	0.463372
H236	H	-0.441508	0.192804	0.963372
H237	H	-0.888916	-0.294188	0.375542
H238	H	-0.388916	0.205812	0.875542
H239	H	-0.985189	-0.267260	0.375650
H240	H	-0.485189	0.232740	0.875650
C241	C	-1.147486	-0.068021	0.411699
C242	C	-0.647486	0.431979	0.911699
H243	H	-1.124442	-0.028299	0.373236
H244	H	-0.624442	0.471701	0.873236
H245	H	-1.174710	-0.039832	0.463121
H246	H	-0.674710	0.460168	0.963121
H247	H	-1.187130	-0.095435	0.377483
H248	H	-0.687130	0.404565	0.877483
H249	H	-1.021872	0.024275	0.578728
H250	H	-0.521872	0.524275	1.078728
