data_functionalizedCrystal
_audit_creation_method	'MofGen! by Chris Wilmer'
_symmetry_space_group_name_H-M	'P1'
_symmetry_Int_Tables_number	1
_symmetry_cell_setting	triclinic
loop_
_symmetry_equiv_pos_as_xyz
  x,y,z
_cell_length_a	23.532407
_cell_length_b	23.532407
_cell_length_c	8.965430
_cell_angle_alpha	90.004227
_cell_angle_beta	89.998440
_cell_angle_gamma	82.848678
loop_
_atom_site_label
_atom_site_type_symbol
_atom_site_fract_x
_atom_site_fract_y
_atom_site_fract_z
O1	O	0.755259	0.069131	0.123868
O2	O	0.589396	0.079134	0.123914
O3	O	0.677329	-0.008800	0.123862
O4	O	0.667326	0.157064	0.123920
O5	O	0.677322	-0.008794	-0.124216
O6	O	0.589389	0.079140	-0.124165
O7	O	0.755252	0.069136	-0.124211
Cu8	Cu	0.672320	0.074139	-0.146839
Cu9	Cu	0.672328	0.074132	0.146543
O10	O	0.667319	0.157070	-0.124159
C11	C	0.568176	0.078882	-0.000120
C12	C	0.504959	0.078116	-0.000104
C13	C	0.105856	0.125350	-0.000155
C14	C	0.046456	0.124638	-0.000164
O15	O	0.009711	0.168424	-0.000203
N16	N	0.023830	0.072362	-0.000180
C17	C	0.060607	0.020794	-0.000201
O18	O	0.035908	-0.023737	-0.000217
C19	C	0.120006	0.021506	-0.000202
C20	C	0.142629	0.073785	-0.000172
C21	C	0.128479	0.177625	-0.000126
C22	C	0.187876	0.178336	-0.000113
C23	C	0.224649	0.126772	-0.000130
C24	C	0.202025	0.074497	-0.000159
C25	C	0.156783	-0.030062	-0.000235
C26	C	0.216185	-0.029345	-0.000237
C27	C	0.238808	0.022934	-0.000206
C28	C	0.298194	0.023643	-0.000164
N29	N	0.320820	0.075920	-0.000149
C30	C	0.284048	0.127484	-0.000132
C31	C	-0.064135	0.019302	-0.000201
C32	C	-0.123533	0.018589	-0.000189
C33	C	-0.137680	0.122434	-0.000155
C34	C	-0.078281	0.123146	-0.000156
C35	C	-0.041509	0.071578	-0.000185
C36	C	0.408784	0.128974	-0.000105
C37	C	0.468186	0.129680	-0.000087
C38	C	0.482329	0.025836	-0.000129
C39	C	0.422932	0.025129	-0.000139
C40	C	0.386160	0.076702	-0.000132
O41	O	0.334974	-0.020119	-0.000131
O42	O	0.308755	0.172007	-0.000136
C43	C	0.677071	-0.030013	-0.000181
C44	C	0.676305	-0.093230	-0.000192
C45	C	0.723539	-0.492333	-0.000123
C46	C	0.722827	-0.551733	-0.000112
O47	O	0.766613	-0.588478	-0.000069
N48	N	0.670551	-0.574359	-0.000098
C49	C	0.618983	-0.537582	-0.000081
O50	O	0.574452	-0.562281	-0.000067
C51	C	0.619695	-0.478182	-0.000082
C52	C	0.671974	-0.455560	-0.000111
C53	C	0.775814	-0.469710	-0.000150
C54	C	0.776525	-0.410313	-0.000164
C55	C	0.724961	-0.373540	-0.000152
C56	C	0.672685	-0.396164	-0.000125
C57	C	0.568127	-0.441406	-0.000054
C58	C	0.568844	-0.382004	-0.000054
C59	C	0.621123	-0.359381	-0.000083
C60	C	0.621832	-0.299995	-0.000127
N61	N	0.674109	-0.277368	-0.000140
C62	C	0.725673	-0.314141	-0.000153
C63	C	0.617491	-0.662324	-0.000077
C64	C	0.616778	-0.721722	-0.000087
C65	C	0.720623	-0.735869	-0.000114
C66	C	0.721335	-0.676470	-0.000115
C67	C	0.669767	-0.639698	-0.000090
C68	C	0.727163	-0.189405	-0.000184
C69	C	0.727869	-0.130003	-0.000205
C70	C	0.624025	-0.115860	-0.000169
C71	C	0.623318	-0.175257	-0.000156
C72	C	0.674891	-0.212029	-0.000159
O73	O	0.578070	-0.263215	-0.000164
O74	O	0.770196	-0.289433	-0.000147
C75	C	0.776472	0.069388	-0.000173
C76	C	0.839689	0.070154	-0.000180
C77	C	0.667577	0.178283	-0.000113
C78	C	0.668343	0.241500	-0.000091
N79	N	0.672318	0.074143	-0.353188
C80	C	0.631639	0.114796	-0.450470
C81	C	0.683041	0.125556	-0.549894
C82	C	0.620937	0.063388	-0.549892
C83	C	0.723745	0.084928	-0.450423
C84	C	0.661608	0.022738	-0.450413
C85	C	0.713047	0.033476	-0.549791
N86	N	0.672335	0.074123	0.352892
H87	H	0.246123	-0.071339	-0.000262
N88	N	0.650218	-0.031766	-0.395513
N89	N	0.686353	-0.061006	-0.315744
H90	H	0.678304	-0.099500	-0.276965
H91	H	0.575496	-0.632386	-0.000069
H92	H	0.577479	0.054300	-0.593589
H93	H	0.486602	0.172255	-0.000061
H94	H	-0.141947	-0.023982	-0.000191
N95	N	0.371237	0.181659	-0.000106
N96	N	0.391454	0.228326	-0.000081
H97	H	0.364937	0.265536	-0.000075
H98	H	0.206289	0.220908	-0.000088
H99	H	0.098544	0.219617	-0.000117
H100	H	0.817806	-0.499645	-0.000155
H101	H	-0.059867	0.165717	-0.000139
H102	H	0.582043	-0.085909	-0.000164
H103	H	0.692112	0.169019	-0.593590
N104	N	0.588524	0.157965	-0.395775
N105	N	0.590542	0.209381	-0.427699
H106	H	0.560093	0.239870	-0.389072
N107	N	0.779848	-0.226952	-0.000182
N108	N	0.826515	-0.206735	-0.000207
H109	H	0.863725	-0.233252	-0.000213
H110	H	0.767213	0.094069	-0.406914
H111	H	-0.167632	0.164421	-0.000148
H112	H	0.747493	-0.000914	-0.593127
H113	H	-0.034198	-0.022693	-0.000212
H114	H	0.138375	-0.072634	-0.000261
N115	N	0.399829	-0.028277	-0.000146
N116	N	0.432672	-0.074312	-0.000152
H117	H	0.416360	-0.112032	-0.000169
H118	H	0.512280	-0.016146	-0.000137
N119	N	0.563371	-0.744817	-0.000092
N120	N	0.517338	-0.711971	-0.000090
H121	H	0.479617	-0.728279	-0.000089
N122	N	0.781274	-0.106895	-0.000261
N123	N	0.815954	-0.118275	-0.104846
H124	H	0.853671	-0.101957	-0.104887
N125	N	0.829933	-0.387219	-0.000188
N126	N	0.875964	-0.420068	-0.000193
H127	H	0.913687	-0.403762	-0.000204
N128	N	0.514719	-0.464495	-0.000022
N129	N	0.468688	-0.431645	0.000006
H130	H	0.430965	-0.447949	0.000034
N131	N	0.516167	-0.344441	0.000002
N132	N	0.481331	-0.346335	0.104598
H133	H	0.444129	-0.319807	0.104640
N134	N	0.774737	-0.653364	-0.000166
N135	N	0.809416	-0.664740	-0.104755
H136	H	0.847133	-0.648423	-0.104792
N137	N	0.773302	-0.773431	-0.000096
N138	N	0.819977	-0.753230	-0.000101
H139	H	0.857180	-0.779757	-0.000087
N140	N	0.569912	-0.198360	-0.000173
N141	N	0.523877	-0.165517	-0.000185
H142	H	0.486157	-0.181829	-0.000193
