data_functionalizedCrystal
_audit_creation_method	'MofGen! by Chris Wilmer'
_symmetry_space_group_name_H-M	'P1'
_symmetry_Int_Tables_number	1
_symmetry_cell_setting	triclinic
loop_
_symmetry_equiv_pos_as_xyz
  x,y,z
_cell_length_a	14.395555
_cell_length_b	21.606444
_cell_length_c	21.606444
_cell_angle_alpha	60.001331
_cell_angle_beta	90.003431
_cell_angle_gamma	59.998460
loop_
_atom_site_label
_atom_site_type_symbol
_atom_site_fract_x
_atom_site_fract_y
_atom_site_fract_z
Zr1	Zr	0.894897	0.677424	-0.081169
O2	O	0.746557	0.806551	-0.179997
O3	O	0.940373	0.548303	-0.050876
O4	O	0.940361	0.677427	-0.179994
O5	O	0.746577	0.677423	0.050975
O6	O	1.093235	0.677422	-0.179989
O7	O	0.746569	0.677427	-0.050879
O8	O	1.093256	0.446443	0.050980
O9	O	0.746556	0.908402	-0.179994
O10	O	1.073854	0.601407	-0.037949
O11	O	0.959772	0.601407	0.038060
O12	O	0.959758	0.753434	-0.113960
O13	O	0.845675	0.753434	-0.037952
Zr14	Zr	1.138726	0.677410	0.081285
Zr15	Zr	1.138714	0.677417	-0.081160
Zr16	Zr	0.894910	0.677417	0.081276
Zr17	Zr	0.894895	0.839864	-0.081164
Zr18	Zr	1.138729	0.514970	0.081280
O19	O	1.093251	0.806531	0.050992
O20	O	1.093233	0.806541	-0.179985
O21	O	0.746575	0.806541	0.050980
O22	O	1.287066	0.548283	0.180113
O23	O	1.287049	0.548293	-0.050864
O24	O	0.940390	0.548293	0.180101
O25	O	1.287047	0.677411	-0.050859
O26	O	1.093263	0.677407	0.180110
O27	O	0.940388	0.677412	0.180105
O28	O	1.287054	0.677407	0.050995
O29	O	0.940357	0.908396	-0.179987
O30	O	1.093266	0.446438	0.180103
O31	O	1.287068	0.446432	0.180110
O32	O	1.287058	0.446437	0.050987
O33	O	0.746566	0.908396	-0.050871
O34	O	0.940367	0.908391	-0.050864
O35	O	1.073866	0.601400	0.114076
O36	O	1.187948	0.601400	0.038068
O37	O	1.073852	0.753427	-0.037944
O38	O	0.959769	0.753427	0.038065
C39	C	1.016815	0.474229	0.000051
C40	C	1.016816	0.405269	0.000049
C41	C	1.076363	0.372871	-0.039628
C42	C	1.076367	0.308071	-0.039622
C43	C	1.016817	0.275674	0.000055
C44	C	0.957268	0.308075	0.039737
C45	C	0.957271	0.372869	0.039736
C46	C	0.957254	0.046765	0.039743
C47	C	0.957253	-0.018032	0.039740
C48	C	1.076351	-0.018033	-0.039615
C49	C	1.076354	0.046762	-0.039616
C50	C	1.016810	0.079153	0.000068
C51	C	1.016808	0.149416	0.000064
C52	C	1.016811	0.205418	0.000056
C53	C	0.711834	0.677426	0.000047
C54	C	0.608328	0.677429	0.000044
C55	C	0.485529	0.760321	-0.041395
C56	C	0.454692	0.718885	-0.071429
C57	C	0.454742	0.718862	0.030072
C58	C	0.578854	0.635993	-0.030032
C59	C	0.578901	0.635981	0.071508
C60	C	0.548137	0.594485	0.041492
C61	C	1.321789	0.677408	0.000069
C62	C	1.425296	0.677405	0.000072
C63	C	1.016796	0.677426	-0.203137
C64	C	1.016791	0.677429	-0.272099
C65	C	1.016809	0.880605	0.000065
C66	C	1.016807	0.949565	0.000067
C67	C	0.957233	0.756785	-0.344175
C68	C	0.957243	0.756782	-0.408970
C69	C	1.016805	0.677423	-0.401687
C70	C	1.076370	0.598061	-0.329604
C71	C	1.076366	0.598064	-0.264810
C72	C	1.076388	0.598046	-0.590906
C73	C	1.076384	0.598048	-0.655707
C74	C	0.957265	0.756764	-0.735066
C75	C	0.957261	0.756767	-0.670273
C76	C	1.016831	0.677405	-0.598195
C77	C	1.016821	0.677409	-0.527938
C78	C	1.016808	0.677418	-0.471943
C79	C	1.016827	0.677408	0.203253
C80	C	1.016833	0.677405	0.272215
C81	C	1.321792	0.474220	0.000062
C82	C	1.425300	0.405257	0.000064
C83	C	1.016830	0.474220	0.203246
C84	C	1.016837	0.405257	0.272206
C85	C	1.321808	0.474211	0.203257
C86	C	1.425321	0.405245	0.272221
C87	C	0.711816	0.880623	-0.203141
C88	C	0.608303	0.949589	-0.272105
C89	C	0.711831	0.880614	0.000054
C90	C	0.608324	0.949577	0.000052
C91	C	1.016793	0.880614	-0.203130
C92	C	1.016787	0.949577	-0.272090
C93	C	1.414352	0.372874	-0.039622
C94	C	1.511599	0.308085	-0.039636
C95	C	1.619793	0.275675	0.000041
C96	C	1.630738	0.308063	0.039728
C97	C	1.533492	0.372856	0.039737
C98	C	1.076396	0.372868	0.344277
C99	C	1.076397	0.308079	0.409079
C100	C	1.016846	0.275676	0.401808
C101	C	0.957280	0.308071	0.329729
C102	C	0.957272	0.372864	0.264929
C103	C	1.533491	0.372857	0.264931
C104	C	1.630762	0.308065	0.329724
C105	C	1.619859	0.275657	0.401805
C106	C	1.511677	0.308051	0.409093
C107	C	1.414409	0.372846	0.344301
C108	C	0.500132	0.981984	-0.264815
C109	C	0.402861	1.046797	-0.329608
C110	C	0.413764	1.079208	-0.401689
C111	C	0.521946	1.046810	-0.408977
C112	C	0.619214	0.982003	-0.344185
C113	C	0.619271	0.981967	0.039732
C114	C	0.522024	1.046774	0.039728
C115	C	0.413831	1.079186	0.000048
C116	C	0.402885	1.046794	-0.039636
C117	C	0.500131	0.981993	-0.039636
C118	C	1.076350	0.981959	-0.264795
C119	C	1.076366	1.046749	-0.329584
C120	C	1.016812	1.079159	-0.401668
C121	C	0.957247	1.046770	-0.408962
C122	C	0.957238	0.981977	-0.344173
H123	H	0.460081	0.830414	-0.076491
H124	H	0.908757	-0.044408	0.072053
C125	C	0.904351	0.827244	-0.606186
C126	C	0.891783	0.844000	-0.678279
H127	H	0.863920	0.881100	-0.611132
H128	H	0.982693	0.794645	-0.579267
H129	H	0.874944	0.794635	-0.579273
H130	H	0.921197	0.876604	-0.705190
H131	H	0.813425	0.876613	-0.705209
H132	H	0.314781	1.073195	-0.071942
H133	H	0.632212	0.600987	-0.055486
C134	C	0.904382	0.827247	-0.869635
C135	C	0.891798	0.844002	-0.814298
H136	H	0.863970	0.881104	-0.918546
H137	H	0.874975	0.794647	-0.863955
H138	H	0.982738	0.794639	-0.863939
H139	H	0.813442	0.876605	-0.819991
H140	H	0.921200	0.876616	-0.819981
C141	C	0.348495	0.852983	-0.196309
C142	C	0.382429	0.766178	-0.152997
H143	H	0.303877	0.882183	-0.246664
H144	H	0.413860	0.853794	-0.196947
H145	H	0.304717	0.881846	-0.174695
H146	H	0.426215	0.737313	-0.174608
H147	H	0.317054	0.765362	-0.152362
H148	H	0.573799	0.524335	0.076539
H149	H	0.530810	1.073208	-0.467674
C150	C	0.967569	1.066756	-0.527879
C151	C	0.891781	1.082411	-0.488203
H152	H	0.927146	1.088769	-0.576802
H153	H	1.023900	1.005585	-0.500964
H154	H	1.003047	1.095311	-0.532791
H155	H	0.856309	1.053850	-0.483286
H156	H	0.835430	1.143593	-0.515125
C157	C	0.372632	0.988520	-0.192888
C158	C	0.488127	0.946379	-0.185588
H159	H	0.365216	0.966549	-0.143977
H160	H	0.337169	0.977897	-0.219805
H161	H	0.337188	1.049694	-0.219823
H162	H	0.523569	0.885205	-0.158657
H163	H	0.523605	0.956995	-0.158660
C164	C	1.607932	0.208697	0.543652
C165	C	1.499705	0.272414	0.488330
H166	H	1.600540	0.186689	0.592569
H167	H	1.648317	0.233985	0.537965
H168	H	1.648329	0.162196	0.537945
H169	H	1.459311	0.318918	0.494033
H170	H	1.459304	0.247126	0.494019
H171	H	1.124864	0.533444	-0.206123
C172	C	1.551798	0.288154	-0.138611
C173	C	1.499551	0.272484	-0.083255
H174	H	1.544350	0.266179	-0.165539
H175	H	1.630143	0.259581	-0.114989
H176	H	1.516317	0.349333	-0.172853
H177	H	1.535037	0.211304	-0.049010
H178	H	1.421190	0.301054	-0.106877
H179	H	1.718840	0.281697	0.323776
C180	C	0.587283	0.632265	0.184393
C181	C	0.651162	0.588726	0.153061
H182	H	0.631896	0.603097	0.234740
H183	H	0.521228	0.632375	0.184962
H184	H	0.565422	0.690848	0.154731
H185	H	0.673016	0.530143	0.182720
H186	H	0.717238	0.588606	0.152497
C187	C	1.493292	0.498603	0.146003
C188	C	1.545555	0.408428	0.185720
H189	H	1.500760	0.520547	0.097107
H190	H	1.528735	0.509230	0.172927
H191	H	1.414930	0.527189	0.141028
H192	H	1.623919	0.379841	0.190700
H193	H	1.510115	0.397794	0.158789
C194	C	1.809207	0.182245	0.138675
C195	C	1.749673	0.272421	0.083348
H196	H	1.882631	0.160239	0.165609
H197	H	1.816587	0.153703	0.115029
H198	H	1.768782	0.171640	0.172917
H199	H	1.790093	0.283026	0.049102
H200	H	1.742297	0.300972	0.106995
C201	C	0.839522	0.040254	0.118178
C202	C	0.891796	0.082370	0.083358
H203	H	0.799103	0.062242	0.145102
H204	H	0.895877	-0.020914	0.152422
H205	H	0.788117	0.050885	0.080622
H206	H	0.943207	0.071734	0.120916
H207	H	0.835434	0.143553	0.049112
H208	H	1.016828	1.131918	-0.454417
C209	C	1.129284	1.146059	-0.393639
C210	C	1.141835	1.082348	-0.321555
H211	H	1.169707	1.168030	-0.388679
H212	H	1.050944	1.192577	-0.420566
H213	H	1.158710	1.120771	-0.420552
H214	H	1.112401	1.107638	-0.294644
H215	H	1.220191	1.035823	-0.294616
H216	H	1.124856	0.281693	-0.071930
H217	H	1.326335	0.399208	0.350247
C218	C	0.839473	0.988539	-0.429155
C219	C	0.891745	0.946398	-0.352201
H220	H	0.799033	0.966578	-0.434113
H221	H	0.895833	0.977904	-0.452767
H222	H	0.788089	1.049714	-0.452771
H223	H	0.943136	0.885222	-0.328586
H224	H	0.835379	0.957025	-0.328579
H225	H	1.698968	0.222916	0.000028
H226	H	1.124839	-0.044415	-0.071926
H227	H	1.124851	0.399248	-0.071942
H228	H	0.908787	0.281688	0.072048
H229	H	1.326264	0.399262	-0.071941
C230	C	0.821203	0.882689	-0.280120
C231	C	0.738116	0.946410	-0.352205
H232	H	0.894606	0.860729	-0.285077
H233	H	0.812698	0.836166	-0.253206
H234	H	0.812665	0.907965	-0.253194
H235	H	0.746650	0.921132	-0.379129
H236	H	0.746626	0.992941	-0.379130
C237	C	1.194093	0.040243	-0.118050
C238	C	1.141818	0.082368	-0.083228
H239	H	1.234517	0.062220	-0.144969
H240	H	1.137737	0.050872	-0.152299
H241	H	1.245493	-0.020932	-0.080495
H242	H	1.090412	0.143544	-0.120784
H243	H	1.198181	0.071746	-0.048977
H244	H	1.124907	0.281710	0.467762
C245	C	0.348604	0.852968	0.020840
C246	C	0.382521	0.766167	0.064347
H247	H	0.304022	0.882173	0.041999
H248	H	0.304806	0.881827	-0.029626
H249	H	0.413986	0.853768	0.020652
H250	H	0.317139	0.765367	0.064529
H251	H	0.426321	0.737300	0.114826
C252	C	1.194163	0.441151	-0.570755
C253	C	1.141870	0.510811	-0.647702
H254	H	1.234593	0.387299	-0.565817
H255	H	1.137817	0.444444	-0.547132
H256	H	1.245561	0.444461	-0.547134
H257	H	1.090466	0.507504	-0.671321
H258	H	1.198222	0.507516	-0.671334
C259	C	0.224394	1.172564	-0.356393
C260	C	0.283958	1.082393	-0.321583
H261	H	0.150994	1.194535	-0.351432
H262	H	0.216955	1.201144	-0.408590
H263	H	0.264831	1.183162	-0.332754
H264	H	0.243525	1.071795	-0.345226
H265	H	0.291391	1.053804	-0.269376
C266	C	0.306833	1.119123	-0.516108
C267	C	0.306838	1.150437	-0.472906
H268	H	0.240821	1.163098	-0.560073
H269	H	0.306851	1.068570	-0.486791
H270	H	0.372816	1.104478	-0.530768
H271	H	0.240858	1.165076	-0.458241
H272	H	0.306809	1.201006	-0.502228
C273	C	0.839530	0.366375	0.118168
C274	C	0.891807	0.408488	0.083345
H275	H	0.799111	0.388369	0.145088
H276	H	0.895884	0.305207	0.152415
H277	H	0.788125	0.377004	0.080613
H278	H	0.943218	0.397855	0.120900
H279	H	0.835446	0.469671	0.049095
C280	C	0.727240	0.988478	0.118169
C281	C	0.738191	0.946349	0.083351
H282	H	0.800654	0.966496	0.145094
H283	H	0.686833	0.977858	0.152412
H284	H	0.686820	1.049652	0.080612
H285	H	0.778604	0.885175	0.120909
H286	H	0.778615	0.956962	0.049106
C287	C	0.839473	0.913669	-0.480906
C288	C	0.891764	0.844013	-0.488197
H289	H	0.799042	0.967523	-0.529820
H290	H	0.895820	0.910374	-0.453985
H291	H	0.788077	0.910356	-0.453979
H292	H	0.943166	0.847322	-0.515120
H293	H	0.835410	0.847309	-0.515129
H294	H	1.124894	0.533425	-0.532226
C295	C	0.904372	0.472167	0.130357
C296	C	0.891813	0.408454	0.185708
H297	H	0.863952	0.494139	0.081451
H298	H	0.982714	0.446888	0.136044
H299	H	0.874949	0.518692	0.136032
H300	H	0.921244	0.361926	0.180037
H301	H	0.813455	0.433733	0.180019
C302	C	0.481790	1.066702	0.138698
C303	C	0.534074	1.082359	0.083362
H304	H	0.489228	1.088672	0.165633
H305	H	0.517242	1.005534	0.172930
H306	H	0.403436	1.095296	0.115053
H307	H	0.612431	1.053759	0.107008
H308	H	0.498626	1.143538	0.049125
H309	H	1.124890	0.399243	0.350212
C310	C	1.129199	0.527573	-0.393682
C311	C	1.141841	0.510825	-0.321593
H312	H	1.169612	0.473714	-0.388732
H313	H	1.158574	0.560188	-0.420628
H314	H	1.050836	0.560164	-0.420571
H315	H	1.220204	0.478239	-0.294705
H316	H	1.112471	0.478196	-0.294635
C317	C	1.437342	0.472146	0.075018
C318	C	1.545536	0.408433	0.083378
H319	H	1.444787	0.494108	0.101960
H320	H	1.396942	0.446869	0.094604
H321	H	1.396930	0.518677	0.022819
H322	H	1.585946	0.361899	0.135577
H323	H	1.585954	0.433709	0.063795
C324	C	0.596281	0.882656	-0.074870
C325	C	0.488087	0.946383	-0.083244
H326	H	0.588836	0.860679	-0.101797
H327	H	0.636688	0.836145	-0.022674
H328	H	0.636687	0.907932	-0.094473
H329	H	0.447684	0.921105	-0.063636
H330	H	0.447663	0.992902	-0.135450
C331	C	0.905024	0.235766	0.473046
C332	C	1.016867	0.204451	0.473043
H333	H	0.905045	0.191795	0.517028
H334	H	0.861038	0.250408	0.429091
H335	H	0.873146	0.286327	0.473034
H336	H	1.048742	0.153893	0.473049
H337	H	1.060870	0.189798	0.517009
H338	H	0.908724	0.821408	-0.350114
C339	C	0.776339	0.340994	0.282069
C340	C	0.891838	0.272435	0.321752
H341	H	0.735947	0.318984	0.277153
H342	H	0.767800	0.384208	0.233161
H343	H	0.746936	0.366276	0.308990
H344	H	0.921243	0.247157	0.294828
H345	H	0.900384	0.229205	0.370668
C346	C	0.306983	1.224915	-0.031245
C347	C	0.306948	1.150415	0.000060
H348	H	0.241005	1.268884	-0.031229
H349	H	0.306960	1.246158	-0.081796
H350	H	0.373000	1.210228	-0.001932
H351	H	0.240934	1.165100	-0.029257
H352	H	0.306960	1.129168	0.050619
C353	C	1.194109	0.988449	-0.192859
C354	C	1.141825	0.946339	-0.185565
H355	H	1.234542	0.966454	-0.143946
H356	H	1.137758	1.049618	-0.219779
H357	H	1.245502	0.977822	-0.219789
H358	H	1.090425	0.956972	-0.158640
H359	H	1.198184	0.885156	-0.158633
H360	H	1.699071	0.222897	0.454557
