data_functionalizedCrystal
_audit_creation_method	'MofGen! by Chris Wilmer'
_symmetry_space_group_name_H-M	'P1'
_symmetry_Int_Tables_number	1
_symmetry_cell_setting	triclinic
loop_
_symmetry_equiv_pos_as_xyz
  x,y,z
_cell_length_a	21.295418
_cell_length_b	21.295417
_cell_length_c	21.295411
_cell_angle_alpha	90.027671
_cell_angle_beta	90.035622
_cell_angle_gamma	90.045515
loop_
_atom_site_label
_atom_site_type_symbol
_atom_site_fract_x
_atom_site_fract_y
_atom_site_fract_z
Zn1	Zn	0.962309	-0.250371	0.356238
Zn2	Zn	1.212309	-0.000371	0.606238
Zn3	Zn	1.462309	0.249629	0.856238
Zn4	Zn	1.712309	0.499629	1.106238
Zn5	Zn	0.962228	-0.355636	0.250965
Zn6	Zn	1.212228	-0.105636	0.500965
Zn7	Zn	1.462228	0.144364	0.750965
Zn8	Zn	1.712228	0.394364	1.000965
Zn9	Zn	0.857047	-0.250414	0.250948
Zn10	Zn	1.107047	-0.000414	0.500948
Zn11	Zn	1.357047	0.249586	0.750948
Zn12	Zn	1.607047	0.499586	1.000948
Zn13	Zn	0.857003	-0.355636	0.356162
Zn14	Zn	1.107003	-0.105636	0.606162
Zn15	Zn	1.357003	0.144364	0.856162
Zn16	Zn	1.607003	0.394364	1.106162
O17	O	0.909647	-0.303014	0.303578
O18	O	1.159647	-0.053014	0.553578
O19	O	1.409647	0.196986	0.803578
O20	O	1.659647	0.446986	1.053578
O21	O	1.050388	-0.264317	0.342313
O22	O	1.300388	-0.014317	0.592313
O23	O	1.550388	0.235683	0.842313
O24	O	1.800388	0.485683	1.092313
O25	O	0.948260	-0.341696	0.162874
O26	O	1.198260	-0.091696	0.412874
O27	O	1.448260	0.158304	0.662874
O28	O	1.698260	0.408304	0.912874
O29	O	0.871063	-0.162319	0.264940
O30	O	1.121063	0.087681	0.514940
O31	O	1.371063	0.337681	0.764940
O32	O	1.621063	0.587681	1.014940
O33	O	1.050328	-0.341655	0.264969
O34	O	1.300328	-0.091655	0.514969
O35	O	1.550328	0.158345	0.764969
O36	O	1.800328	0.408345	1.014969
O37	O	0.948398	-0.162287	0.342296
O38	O	1.198398	0.087713	0.592296
O39	O	1.448398	0.337713	0.842296
O40	O	1.698398	0.587713	1.092296
O41	O	0.870984	-0.264390	0.162861
O42	O	1.120984	-0.014390	0.412861
O43	O	1.370984	0.235610	0.662861
O44	O	1.620984	0.485610	0.912861
O45	O	0.768952	-0.264389	0.264866
O46	O	1.018952	-0.014389	0.514866
O47	O	1.268952	0.235611	0.764866
O48	O	1.518952	0.485611	1.014866
O49	O	0.870988	-0.341654	0.444261
O50	O	1.120988	-0.091654	0.694261
O51	O	1.370988	0.158346	0.944261
O52	O	1.620988	0.408346	1.194261
O53	O	0.768919	-0.341695	0.342166
O54	O	1.018919	-0.091695	0.592166
O55	O	1.268919	0.158305	0.842166
O56	O	1.518919	0.408305	1.092166
O57	O	0.948355	-0.264317	0.444317
O58	O	1.198355	-0.014317	0.694317
O59	O	1.448355	0.235683	0.944317
O60	O	1.698355	0.485683	1.194317
O61	O	0.948217	-0.443725	0.264895
O62	O	1.198217	-0.193725	0.514895
O63	O	1.448217	0.056275	0.764895
O64	O	1.698217	0.306275	1.014895
O65	O	0.870909	-0.443725	0.342183
O66	O	1.120909	-0.193725	0.592183
O67	O	1.370909	0.056275	0.842183
O68	O	1.620909	0.306275	1.092183
C69	C	0.746095	-0.303047	0.303506
C70	C	0.996095	-0.053047	0.553506
C71	C	1.246095	0.196953	0.803506
C72	C	1.496095	0.446953	1.053506
C73	C	0.676127	-0.303077	0.303490
C74	C	0.926127	-0.053077	0.553490
C75	C	1.176127	0.196923	0.803490
C76	C	1.426127	0.446923	1.053490
C77	C	0.643260	-0.343383	0.343680
C78	C	0.893260	-0.093383	0.593680
C79	C	1.143260	0.156617	0.843680
C80	C	1.393260	0.406617	1.093680
C81	C	0.577517	-0.343368	0.343708
C82	C	0.827517	-0.093368	0.593708
C83	C	1.077517	0.156632	0.843708
C84	C	1.327517	0.406632	1.093708
C85	C	0.544644	-0.303052	0.303535
C86	C	0.794644	-0.053052	0.553535
C87	C	1.044644	0.196948	0.803535
C88	C	1.294644	0.446948	1.053535
C89	C	0.577519	-0.262738	0.263342
C90	C	0.827519	-0.012738	0.513342
C91	C	1.077519	0.237262	0.763342
C92	C	1.327519	0.487262	1.013342
C93	C	0.643261	-0.262750	0.263320
C94	C	0.893261	-0.012750	0.513320
C95	C	1.143261	0.237250	0.763320
C96	C	1.393261	0.487250	1.013320
N97	N	0.441376	-0.298132	0.248477
N98	N	0.691376	-0.048132	0.498477
N99	N	0.941376	0.201868	0.748477
N100	N	1.191376	0.451868	0.998477
N101	N	0.378925	-0.298124	0.248501
N102	N	0.628925	-0.048124	0.498501
N103	N	0.878925	0.201876	0.748501
N104	N	1.128925	0.451876	0.998501
C105	C	0.346570	-0.303012	0.303602
C106	C	0.596570	-0.053012	0.553602
C107	C	0.846570	0.196988	0.803602
C108	C	1.096570	0.446988	1.053602
N109	N	0.379025	-0.307921	0.358680
N110	N	0.629025	-0.057921	0.608680
N111	N	0.879025	0.192079	0.858680
N112	N	1.129025	0.442079	1.108680
N113	N	0.441483	-0.307932	0.358656
N114	N	0.691483	-0.057932	0.608656
N115	N	0.941483	0.192068	0.858656
N116	N	1.191483	0.442068	1.108656
C117	C	0.473359	-0.303034	0.303556
C118	C	0.723359	-0.053034	0.553556
C119	C	0.973359	0.196966	0.803556
C120	C	1.223359	0.446966	1.053556
C121	C	0.242417	-0.343304	0.343826
C122	C	0.492417	-0.093304	0.593826
C123	C	0.742417	0.156696	0.843826
C124	C	0.992417	0.406696	1.093826
C125	C	0.176673	-0.343284	0.343855
C126	C	0.426673	-0.093284	0.593855
C127	C	0.676673	0.156716	0.843855
C128	C	0.926673	0.406716	1.093855
C129	C	0.176677	-0.262658	0.263484
C130	C	0.426677	-0.012658	0.513484
C131	C	0.676677	0.237342	0.763484
C132	C	0.926677	0.487342	1.013484
C133	C	0.242419	-0.262674	0.263460
C134	C	0.492419	-0.012674	0.513460
C135	C	0.742419	0.237326	0.763460
C136	C	0.992419	0.487326	1.013460
C137	C	0.275285	-0.303001	0.303630
C138	C	0.525285	-0.053001	0.553630
C139	C	0.775285	0.196999	0.803630
C140	C	1.025285	0.446999	1.053630
C141	C	0.909566	-0.466566	0.303547
C142	C	1.159566	-0.216566	0.553547
C143	C	1.409566	0.033434	0.803547
C144	C	1.659566	0.283434	1.053547
C145	C	0.909590	-0.536534	0.303554
C146	C	1.159590	-0.286534	0.553554
C147	C	1.409590	-0.036534	0.803554
C148	C	1.659590	0.213466	1.053554
C149	C	0.949835	-0.569327	0.343862
C150	C	1.199835	-0.319327	0.593862
C151	C	1.449835	-0.069327	0.843862
C152	C	1.699835	0.180673	1.093862
C153	C	0.949857	-0.635070	0.343878
C154	C	1.199857	-0.385070	0.593878
C155	C	1.449857	-0.135070	0.843878
C156	C	1.699857	0.114930	1.093878
C157	C	0.909641	-0.668016	0.303574
C158	C	1.159641	-0.418016	0.553574
C159	C	1.409641	-0.168016	0.803574
C160	C	1.659641	0.081984	1.053574
C161	C	0.869387	-0.635215	0.263263
C162	C	1.119387	-0.385215	0.513263
C163	C	1.369387	-0.135215	0.763263
C164	C	1.619387	0.114785	1.013263
C165	C	0.869362	-0.569474	0.263253
C166	C	1.119362	-0.319474	0.513253
C167	C	1.369362	-0.069474	0.763253
C168	C	1.619362	0.180526	1.013253
N169	N	0.904889	-0.771277	0.248481
N170	N	1.154889	-0.521277	0.498481
N171	N	1.404889	-0.271277	0.748481
N172	N	1.654889	-0.021277	0.998481
N173	N	0.904917	-0.833728	0.248492
N174	N	1.154917	-0.583728	0.498492
N175	N	1.404917	-0.333728	0.748492
N176	N	1.654917	-0.083728	0.998492
C177	C	0.909714	-0.866091	0.303602
C178	C	1.159714	-0.616091	0.553602
C179	C	1.409714	-0.366091	0.803602
C180	C	1.659714	-0.116091	1.053602
N181	N	0.914495	-0.833643	0.358702
N182	N	1.164495	-0.583643	0.608702
N183	N	1.414495	-0.333643	0.858702
N184	N	1.664495	-0.083643	1.108702
N185	N	0.914470	-0.771186	0.358690
N186	N	1.164470	-0.521186	0.608690
N187	N	1.414470	-0.271186	0.858690
N188	N	1.664470	-0.021186	1.108690
C189	C	0.909664	-0.739302	0.303580
C190	C	1.159664	-0.489302	0.553580
C191	C	1.409664	-0.239302	0.803580
C192	C	1.659664	0.010698	1.053580
C193	C	0.949986	-0.970170	0.343931
C194	C	1.199986	-0.720170	0.593931
C195	C	1.449986	-0.470170	0.843931
C196	C	1.699986	-0.220170	1.093931
C197	C	0.950004	-1.035914	0.343947
C198	C	1.200004	-0.785914	0.593947
C199	C	1.450004	-0.535914	0.843947
C200	C	1.700004	-0.285914	1.093947
C201	C	0.869537	-1.036058	0.263327
C202	C	1.119537	-0.786058	0.513327
C203	C	1.369537	-0.536058	0.763327
C204	C	1.619537	-0.286058	1.013327
C205	C	0.869516	-0.970315	0.263316
C206	C	1.119516	-0.720315	0.513316
C207	C	1.369516	-0.470315	0.763316
C208	C	1.619516	-0.220315	1.013316
C209	C	0.909744	-0.937375	0.303617
C210	C	1.159744	-0.687375	0.553617
C211	C	1.409744	-0.437375	0.803617
C212	C	1.659744	-0.187375	1.053617
C213	C	1.073837	-0.302981	0.303652
C214	C	1.323837	-0.052981	0.553652
C215	C	1.573837	0.197019	0.803652
C216	C	1.823837	0.447019	1.053652
C217	C	1.143805	-0.302967	0.303683
C218	C	1.393805	-0.052967	0.553683
C219	C	1.643805	0.197033	0.803683
C220	C	1.893805	0.447033	1.053683
C221	C	0.909676	-0.302981	0.467769
C222	C	1.159676	-0.052981	0.717769
C223	C	1.409676	0.197019	0.967769
C224	C	1.659676	0.447019	1.217769
C225	C	0.909688	-0.302966	0.537737
C226	C	1.159688	-0.052966	0.787737
C227	C	1.409688	0.197034	1.037737
C228	C	1.659688	0.447034	1.287737
C229	C	0.909744	-0.138824	0.303624
C230	C	1.159744	0.111176	0.553624
C231	C	1.409744	0.361176	0.803624
C232	C	1.659744	0.611176	1.053624
C233	C	0.909786	-0.068856	0.303644
C234	C	1.159786	0.181144	0.553644
C235	C	1.409786	0.431144	0.803644
C236	C	1.659786	0.681144	1.053644
C237	C	0.909654	-0.303002	0.140027
C238	C	1.159654	-0.053002	0.390027
C239	C	1.409654	0.196998	0.640027
C240	C	1.659654	0.446998	0.890027
C241	C	0.909764	-0.302839	0.070059
C242	C	1.159764	-0.052839	0.320059
C243	C	1.409764	0.197161	0.570059
C244	C	1.659764	0.447161	0.820059
C245	C	0.949996	-0.343089	1.037202
C246	C	1.199996	-0.093089	1.287202
C247	C	1.449996	0.156911	1.537202
C248	C	1.699996	0.406911	1.787202
C249	C	0.949984	-0.343109	0.971460
C250	C	1.199984	-0.093109	1.221460
C251	C	1.449984	0.156891	1.471460
C252	C	1.699984	0.406891	1.721460
C253	C	0.909747	-0.302868	0.938577
C254	C	1.159747	-0.052868	1.188577
C255	C	1.409747	0.197132	1.438577
C256	C	1.659747	0.447132	1.688577
C257	C	0.869508	-0.262615	0.971441
C258	C	1.119508	-0.012615	1.221441
C259	C	1.369508	0.237385	1.471441
C260	C	1.619508	0.487385	1.721441
C261	C	0.869516	-0.262601	1.037183
C262	C	1.119516	-0.012601	1.287183
C263	C	1.369516	0.237399	1.537183
C264	C	1.619516	0.487399	1.787183
N265	N	0.904938	-0.247790	0.835369
N266	N	1.154938	0.002210	1.085369
N267	N	1.404938	0.252210	1.335369
N268	N	1.654938	0.502210	1.585369
N269	N	0.904934	-0.247806	0.772917
N270	N	1.154934	0.002194	1.022917
N271	N	1.404934	0.252194	1.272917
N272	N	1.654934	0.502194	1.522917
C273	C	0.909720	-0.302911	0.740502
C274	C	1.159720	-0.052911	0.990502
C275	C	1.409720	0.197089	1.240502
C276	C	1.659720	0.447089	1.490502
N277	N	0.914522	-0.358001	0.772897
N278	N	1.164522	-0.108001	1.022897
N279	N	1.414522	0.141999	1.272897
N280	N	1.664522	0.391999	1.522897
N281	N	0.914529	-0.357984	0.835354
N282	N	1.164529	-0.107984	1.085354
N283	N	1.414529	0.142016	1.335354
N284	N	1.664529	0.392016	1.585354
C285	C	0.909734	-0.302880	0.867291
C286	C	1.159734	-0.052880	1.117291
C287	C	1.409734	0.197120	1.367291
C288	C	1.659734	0.447120	1.617291
C289	C	0.949942	-0.343186	0.636359
C290	C	1.199942	-0.093186	0.886359
C291	C	1.449942	0.156814	1.136359
C292	C	1.699942	0.406814	1.386359
C293	C	0.949926	-0.343207	0.570616
C294	C	1.199926	-0.093207	0.820616
C295	C	1.449926	0.156793	1.070616
C296	C	1.699926	0.406793	1.320616
C297	C	0.869452	-0.262707	0.570598
C298	C	1.119452	-0.012707	0.820598
C299	C	1.369452	0.237293	1.070598
C300	C	1.619452	0.487293	1.320598
C301	C	0.869465	-0.262692	0.636341
C302	C	1.119465	-0.012692	0.886341
C303	C	1.369465	0.237308	1.136341
C304	C	1.619465	0.487308	1.386341
C305	C	0.909713	-0.302930	0.669217
C306	C	1.159713	-0.052930	0.919217
C307	C	1.409713	0.197070	1.169217
C308	C	1.659713	0.447070	1.419217
H309	H	0.550750	-0.229912	0.230634
H310	H	0.800750	0.020088	0.480634
H311	H	1.050750	0.270088	0.730634
H312	H	1.300750	0.520088	0.980634
Br313	Br	1.004483	-0.679585	0.398582
Br314	Br	1.254483	-0.429585	0.648582
Br315	Br	1.504483	-0.179585	0.898582
Br316	Br	1.754483	0.070415	1.148582
H317	H	0.982776	-1.062613	0.376774
H318	H	1.232776	-0.812613	0.626774
H319	H	1.482776	-0.562613	0.876774
H320	H	1.732776	-0.312613	1.126774
H321	H	0.836788	-1.062882	0.230515
H322	H	1.086788	-0.812882	0.480515
H323	H	1.336788	-0.562882	0.730515
H324	H	1.586788	-0.312882	0.980515
H325	H	0.836641	-0.662045	0.230448
H326	H	1.086641	-0.412045	0.480448
H327	H	1.336641	-0.162045	0.730448
H328	H	1.586641	0.087955	0.980448
Br329	Br	0.814892	-0.925807	0.208610
Br330	Br	1.064892	-0.675807	0.458610
Br331	Br	1.314892	-0.425807	0.708610
Br332	Br	1.564892	-0.175807	0.958610
H333	H	0.149912	-0.229829	0.230777
H334	H	0.399912	0.020171	0.480777
H335	H	0.649912	0.270171	0.730777
H336	H	0.899912	0.520171	0.980777
Br337	Br	1.004611	-0.397704	1.081818
Br338	Br	1.254611	-0.147704	1.331818
Br339	Br	1.504611	0.102296	1.581818
Br340	Br	1.754611	0.352296	1.831818
H341	H	0.836746	-0.229852	0.944664
H342	H	1.086746	0.020148	1.194664
H343	H	1.336746	0.270148	1.444664
H344	H	1.586746	0.520148	1.694664
Br345	Br	0.814737	-0.524966	0.208546
Br346	Br	1.064737	-0.274966	0.458546
Br347	Br	1.314737	-0.024966	0.708546
Br348	Br	1.564737	0.225034	0.958546
Br349	Br	0.287025	-0.398029	0.398344
Br350	Br	0.537025	-0.148029	0.648344
Br351	Br	0.787025	0.101971	0.898344
Br352	Br	1.037025	0.351971	1.148344
H353	H	0.836753	-0.229823	1.063934
H354	H	1.086753	0.020177	1.313934
H355	H	1.336753	0.270177	1.563934
H356	H	1.586753	0.520177	1.813934
H357	H	0.550752	-0.376190	0.376438
H358	H	0.800752	-0.126190	0.626438
H359	H	1.050752	0.123810	0.876438
H360	H	1.300752	0.373810	1.126438
Br361	Br	1.004578	-0.925462	0.398625
Br362	Br	1.254578	-0.675462	0.648625
Br363	Br	1.504578	-0.425462	0.898625
Br364	Br	1.754578	-0.175462	1.148625
H365	H	0.982755	-0.375879	0.944703
H366	H	1.232755	-0.125879	1.194703
H367	H	1.482755	0.124121	1.444703
H368	H	1.732755	0.374121	1.694703
Br369	Br	0.687861	-0.398110	0.398198
Br370	Br	0.937861	-0.148110	0.648198
Br371	Br	1.187861	0.101890	0.898198
Br372	Br	1.437861	0.351890	1.148198
H373	H	0.149914	-0.376105	0.376587
H374	H	0.399914	-0.126105	0.626587
H375	H	0.649914	0.123895	0.876587
H376	H	0.899914	0.373895	1.126587
H377	H	0.982713	-0.375952	0.663129
H378	H	1.232713	-0.125952	0.913129
H379	H	1.482713	0.124048	1.163129
H380	H	1.732713	0.374048	1.413129
Br381	Br	1.004426	-0.524625	0.398559
Br382	Br	1.254426	-0.274625	0.648559
Br383	Br	1.504426	-0.024625	0.898559
Br384	Br	1.754426	0.225375	1.148559
H385	H	0.836689	-0.229944	0.543825
H386	H	1.086689	0.020056	0.793825
H387	H	1.336689	0.270056	1.043825
H388	H	1.586689	0.520056	1.293825
Br389	Br	1.004527	-0.397842	0.526023
Br390	Br	1.254527	-0.147842	0.776023
Br391	Br	1.504527	0.102158	1.026023
Br392	Br	1.754527	0.352158	1.276023
Br393	Br	0.687869	-0.208043	0.208773
Br394	Br	0.937869	0.041957	0.458773
Br395	Br	1.187869	0.291957	0.708773
Br396	Br	1.437869	0.541957	0.958773
Br397	Br	0.287028	-0.207969	0.208913
Br398	Br	0.537028	0.042031	0.458913
Br399	Br	0.787028	0.292031	0.708913
Br400	Br	1.037028	0.542031	0.958913
H401	H	0.836706	-0.229913	0.663093
H402	H	1.086706	0.020087	0.913093
H403	H	1.336706	0.270087	1.163093
H404	H	1.586706	0.520087	1.413093
