data_functionalizedCrystal
_audit_creation_method	'MofGen! by Chris Wilmer'
_symmetry_space_group_name_H-M	'P1'
_symmetry_Int_Tables_number	1
_symmetry_cell_setting	triclinic
loop_
_symmetry_equiv_pos_as_xyz
  x,y,z
_cell_length_a	15.297979
_cell_length_b	15.297327
_cell_length_c	12.759387
_cell_angle_alpha	99.642565
_cell_angle_beta	80.287621
_cell_angle_gamma	110.796881
loop_
_atom_site_label
_atom_site_type_symbol
_atom_site_fract_x
_atom_site_fract_y
_atom_site_fract_z
Zn1	Zn	1.357873	-0.124380	-0.893286
Zn2	Zn	1.330825	-0.279941	-0.743469
Zn3	Zn	1.202317	-0.151315	-0.691631
Zn4	Zn	1.175379	-0.306745	-0.893112
O5	O	1.266599	-0.215595	-0.805375
O6	O	1.484440	-0.122525	-0.895179
O7	O	1.313732	-0.262934	-0.589574
O8	O	1.245546	-0.017591	-0.696759
O9	O	1.464568	-0.236816	-0.785110
O10	O	1.359832	0.002198	-0.844914
O11	O	1.219318	-0.168433	-0.551488
O12	O	1.068589	-0.194423	-0.696591
O13	O	1.199634	-0.282498	-1.040155
O14	O	1.048798	-0.308617	-0.844618
O15	O	1.333711	-0.148515	-1.040282
O16	O	1.287611	-0.413648	-0.784942
O17	O	1.173406	-0.433340	-0.894884
C18	C	1.024945	-0.257352	-0.764961
C19	C	0.921561	-0.275238	-0.747701
C20	C	0.862660	-0.343052	-0.682162
C21	C	0.765525	-0.359859	-0.665950
C22	C	0.727283	-0.308849	-0.715270
C23	C	0.786185	-0.241029	-0.780804
C24	C	0.883329	-0.224225	-0.797024
C25	C	0.747952	-0.190022	-0.830132
C26	C	0.806854	-0.122202	-0.895667
C27	C	0.903988	-0.105401	-0.911883
C28	C	0.942230	-0.156411	-0.862563
C29	C	0.650808	-0.206825	-0.813913
C30	C	0.671477	-0.087999	-0.928775
C31	C	0.768612	-0.071192	-0.944986
C32	C	1.224675	-0.457236	-0.845546
C33	C	1.206825	-0.560596	-0.862781
C34	C	1.394558	-0.810780	-0.682616
C35	C	1.411328	-0.713668	-0.666417
C36	C	1.360204	-0.675395	-0.715507
C37	C	1.292306	-0.734244	-0.780798
C38	C	1.275529	-0.831367	-0.796991
C39	C	1.241176	-0.695982	-0.829883
C40	C	1.173278	-0.754831	-0.895173
C41	C	1.156504	-0.851943	-0.911364
C42	C	1.207628	-0.890216	-0.862275
C43	C	1.257953	-0.598859	-0.813689
C44	C	1.138924	-0.619446	-0.928065
C45	C	1.122154	-0.716558	-0.944263
C46	C	1.509195	-0.173676	-0.845946
C47	C	1.612576	-0.155813	-0.863236
C48	C	1.266685	-0.215492	-1.079405
C49	C	1.266721	-0.215448	-1.196180
C50	C	1.308711	0.026994	-0.765073
C51	C	1.326657	0.130371	-0.747899
C52	C	1.406343	-0.075938	-1.196335
C53	C	1.476169	-0.006167	-1.251273
C54	C	1.476198	-0.006129	-1.360993
C55	C	1.406391	-0.075868	-1.415777
C56	C	1.336565	-0.145639	-1.360838
C57	C	1.336545	-0.145671	-1.251117
C58	C	1.196941	-0.285144	-1.360682
C59	C	1.196914	-0.285187	-1.250964
C60	C	1.127134	-0.354883	-1.415465
C61	C	1.057310	-0.424660	-1.360529
C62	C	1.057285	-0.424695	-1.250802
C63	C	1.127088	-0.354958	-1.196025
C64	C	1.266578	-0.215622	-0.532408
C65	C	1.266767	-0.215373	-0.415620
H66	H	0.816584	-0.015972	-0.998346
H67	H	1.000475	-0.481431	-1.405140
H68	H	0.602859	-0.262046	-0.760555
H69	H	0.717573	-0.415078	-0.612592
H70	H	0.951943	-0.050186	-0.965257
Cl71	Cl	0.910740	-0.407178	-0.620178
H72	H	1.066871	-0.764486	-0.997423
Cl73	Cl	1.071143	-0.925924	-0.993439
Cl74	Cl	1.074644	-0.571340	-0.989773
Cl75	Cl	1.343308	-0.524890	-0.731613
Cl76	Cl	0.623408	-0.023870	-0.990784
H77	H	1.000415	-0.481503	-1.206075
H78	H	1.127078	-0.354984	-1.106687
Cl79	Cl	1.406323	-0.075991	-1.058405
H80	H	0.648191	-0.322537	-0.702066
Cl81	Cl	1.563903	0.081519	-1.182391
H82	H	1.373862	-0.596322	-0.702313
Cl83	Cl	1.064346	-0.135291	-0.882948
H84	H	1.533051	0.050689	-1.405722
H85	H	1.406414	-0.075825	-1.505114
H86	H	1.466609	-0.665757	-0.613257
Cl87	Cl	1.458817	-0.858900	-0.620909
Cl88	Cl	1.186171	-1.012369	-0.882146
Cl89	Cl	1.127170	-0.354836	-1.553400
