data_functionalizedCrystal
_audit_creation_method	'MofGen! by Chris Wilmer'
_symmetry_space_group_name_H-M	'P1'
_symmetry_Int_Tables_number	1
_symmetry_cell_setting	triclinic
loop_
_symmetry_equiv_pos_as_xyz
  x,y,z
_cell_length_a	17.917603
_cell_length_b	21.606444
_cell_length_c	21.606444
_cell_angle_alpha	90.001146
_cell_angle_beta	57.013278
_cell_angle_gamma	63.033015
loop_
_atom_site_label
_atom_site_type_symbol
_atom_site_fract_x
_atom_site_fract_y
_atom_site_fract_z
Zr1	Zr	0.818590	0.627138	-0.112102
O2	O	0.974616	0.534200	-0.216815
O3	O	0.662564	0.651546	-0.075918
O4	O	0.818584	0.657434	-0.210923
O5	O	0.818602	0.528312	0.020040
O6	O	0.818578	0.759288	-0.210921
O7	O	0.818597	0.528312	-0.081810
O8	O	0.539488	0.748755	0.030579
O9	O	1.097693	0.538844	-0.221460
O10	O	0.726736	0.742901	-0.065418
O11	O	0.726744	0.666889	0.010590
O12	O	0.910437	0.673821	-0.148362
O13	O	0.910445	0.597809	-0.072354
Zr14	Zr	0.818590	0.789584	0.050340
Zr15	Zr	0.818582	0.789584	-0.112098
Zr16	Zr	0.818599	0.627139	0.050337
Zr17	Zr	1.014883	0.634546	-0.119510
Zr18	Zr	0.622298	0.782176	0.057749
O19	O	0.974616	0.765176	0.014157
O20	O	0.974604	0.765176	-0.216810
O21	O	0.974628	0.534200	0.014151
O22	O	0.662564	0.882522	0.155054
O23	O	0.662552	0.882522	-0.075912
O24	O	0.662576	0.651546	0.155048
O25	O	0.818578	0.888410	-0.081801
O26	O	0.818597	0.759288	0.149162
O27	O	0.818602	0.657434	0.149160
O28	O	0.818584	0.888410	0.020048
O29	O	1.097686	0.667967	-0.221457
O30	O	0.539495	0.748756	0.159696
O31	O	0.539488	0.877878	0.159699
O32	O	0.539481	0.877878	0.030582
O33	O	1.097699	0.538844	-0.092343
O34	O	1.097693	0.667967	-0.092340
O35	O	0.726744	0.742901	0.086601
O36	O	0.726736	0.818914	0.010593
O37	O	0.910437	0.749834	-0.072351
O38	O	0.910445	0.673821	0.003657
C39	C	0.573059	0.699095	-0.021614
C40	C	0.489727	0.695951	-0.018469
C41	C	0.818601	0.708361	0.172305
C42	C	0.818604	0.708361	0.241264
C43	C	0.818580	0.911555	-0.030876
C44	C	0.818576	0.980518	-0.030874
C45	C	0.337158	0.690205	-0.012725
C46	C	0.300017	0.726515	-0.049034
C47	C	0.215123	0.723318	-0.045838
C48	C	0.422061	0.693401	-0.015920
C49	C	1.064122	0.717627	-0.040147
C50	C	1.147453	0.720772	-0.043292
C51	C	0.818601	0.505167	-0.030885
C52	C	0.818604	0.436205	-0.030887
C53	C	0.722687	1.048975	0.012423
C54	C	0.722690	1.113770	0.012419
C55	C	0.818583	1.110106	-0.030879
C56	C	0.914480	1.041641	-0.074182
C57	C	0.914476	0.976847	-0.074181
C58	C	0.914498	1.302945	-0.074185
C59	C	0.914495	1.367745	-0.074180
C60	C	0.722712	1.439867	0.012415
C61	C	0.722708	1.375074	0.012415
C62	C	0.818604	1.306615	-0.030890
C63	C	0.818600	1.236357	-0.030886
C64	C	0.818589	1.180362	-0.030879
C65	C	0.818580	0.708361	-0.234066
C66	C	0.818576	0.708361	-0.303025
C67	C	0.914494	0.672304	0.230368
C68	C	0.914491	0.672300	0.295165
C69	C	0.818597	0.708359	0.370858
C70	C	0.722701	0.744418	0.381754
C71	C	0.722705	0.744416	0.316957
C72	C	0.722682	0.744423	0.643073
C73	C	0.722686	0.744424	0.707871
C74	C	0.914468	0.672307	0.621281
C75	C	0.914472	0.672305	0.556484
C76	C	0.818576	0.708361	0.567385
C77	C	0.818581	0.708363	0.497123
C78	C	0.818592	0.708362	0.441119
C79	C	0.573048	0.902290	-0.021609
C80	C	0.489713	0.968107	-0.018462
C81	C	0.573069	0.699095	0.181572
C82	C	0.489741	0.695951	0.253676
C83	C	0.573059	0.902290	0.181576
C84	C	0.489727	0.968107	0.253682
C85	C	1.064122	0.514433	-0.243338
C86	C	1.147453	0.448615	-0.315444
C87	C	1.064133	0.514433	-0.040152
C88	C	1.147467	0.448615	-0.043299
C89	C	1.064111	0.717627	-0.243333
C90	C	1.147439	0.720771	-0.315437
C91	C	0.450578	0.959338	-0.056668
C92	C	0.372287	1.021175	-0.053727
C93	C	0.333127	1.091780	-0.012575
C94	C	0.372270	1.100548	0.025632
C95	C	0.450565	1.038712	0.022686
C96	C	0.450610	0.734152	0.327221
C97	C	0.372326	0.731194	0.394976
C98	C	0.333169	0.690040	0.389186
C99	C	0.372308	0.651835	0.315633
C100	C	0.450596	0.654788	0.247879
C101	C	0.450590	1.038700	0.247869
C102	C	0.372302	1.100550	0.315614
C103	C	0.333148	1.091804	0.389171
C104	C	0.372293	1.021203	0.394983
C105	C	0.450585	0.959356	0.327239
C106	C	1.186600	0.378022	-0.309631
C107	C	1.264912	0.316174	-0.377376
C108	C	1.304070	0.324920	-0.450934
C109	C	1.264920	0.395520	-0.456745
C110	C	1.186615	0.457367	-0.389000
C111	C	1.186610	0.457385	-0.005100
C112	C	1.264923	0.395549	-0.008060
C113	C	1.304086	0.324944	-0.049214
C114	C	1.264940	0.316176	-0.087418
C115	C	1.186634	0.378011	-0.084462
C116	C	1.186571	0.761933	-0.309621
C117	C	1.264856	0.764902	-0.377364
C118	C	1.304013	0.726705	-0.450923
C119	C	1.264873	0.685542	-0.456737
C120	C	1.186584	0.682578	-0.388994
H121	H	0.331979	0.760002	-0.082519
H122	H	0.305200	0.656720	0.020756
H123	H	1.154730	0.514869	0.028418
O124	O	1.302784	0.404205	0.029132
C125	C	1.294509	0.489473	0.108135
C126	C	1.251526	0.479772	0.066066
H127	H	1.253102	0.550566	0.137993
H128	H	1.279086	0.460584	0.153818
H129	H	1.383227	0.464442	0.063685
H130	H	1.162803	0.504807	0.110457
H131	H	1.267031	0.508644	0.020370
H132	H	0.482483	0.767664	0.331951
H133	H	0.644629	1.495616	0.047674
H134	H	0.482418	1.045862	0.053803
O135	O	0.629442	0.779513	0.653799
C136	C	0.439213	0.851014	0.746520
C137	C	0.544733	0.811316	0.734489
H138	H	0.370698	0.876724	0.811755
H139	H	0.434348	0.895933	0.718398
H140	H	0.434479	0.809724	0.718305
H141	H	0.549537	0.852550	0.762706
H142	H	0.549553	0.766386	0.762592
O143	O	1.380115	0.264957	-0.051970
C144	C	1.492503	0.219791	-0.012689
C145	C	1.406388	0.287783	-0.009496
H146	H	1.513787	0.238222	0.021633
H147	H	1.461741	0.183443	0.014006
H148	H	1.565793	0.187367	-0.076128
H149	H	1.333070	0.320264	0.053920
H150	H	1.437236	0.324077	-0.036238
H151	H	0.340438	1.158030	0.310868
O152	O	1.303075	0.247547	-0.371861
C153	C	1.423647	0.117099	-0.441031
C154	C	1.380542	0.194772	-0.447392
H155	H	1.486270	0.074408	-0.502089
H156	H	1.460357	0.111615	-0.410137
H157	H	1.356156	0.107770	-0.406146
H158	H	1.447974	0.204153	-0.482291
H159	H	1.343801	0.200218	-0.478255
O160	O	0.629464	0.779507	0.327678
C161	C	0.439234	0.851001	0.420401
C162	C	0.544755	0.811307	0.408368
H163	H	0.370720	0.876708	0.485636
H164	H	0.434364	0.895921	0.392281
H165	H	0.434505	0.809709	0.392184
H166	H	0.549555	0.852543	0.436587
H167	H	0.549581	0.766375	0.436469
O168	O	0.488457	1.047335	0.176484
C169	C	0.479967	1.132574	0.104940
C170	C	0.437060	1.122894	0.185827
H171	H	0.438416	1.193658	0.112467
H172	H	0.568680	1.107620	0.069183
H173	H	0.464520	1.103596	0.073286
H174	H	0.452432	1.151872	0.217547
H175	H	0.348360	1.147827	0.221526
O176	O	0.629514	1.180251	0.054603
C177	C	0.465570	1.261699	0.181941
C178	C	0.571070	1.186392	0.134264
H179	H	0.418279	1.266682	0.246354
H180	H	0.481972	1.307414	0.174572
H181	H	0.418321	1.266731	0.160177
H182	H	0.618372	1.181288	0.155996
H183	H	0.554593	1.140714	0.141634
O184	O	1.007720	0.637265	0.610552
C185	C	1.197948	0.565697	0.517823
C186	C	1.092423	0.605363	0.529861
H187	H	1.266459	0.539880	0.452587
H188	H	1.202813	0.606956	0.545948
H189	H	1.202690	0.520843	0.546031
H190	H	1.087610	0.650214	0.501651
H191	H	1.087603	0.564058	0.501755
O192	O	1.302873	0.403919	-0.528234
C193	C	1.326893	0.377525	-0.648345
C194	C	1.283839	0.368006	-0.567384
H195	H	1.311540	0.348482	-0.680028
H196	H	1.285489	0.438578	-0.640983
H197	H	1.415603	0.352519	-0.683986
H198	H	1.195137	0.392970	-0.531700
H199	H	1.325323	0.306944	-0.574803
H200	H	0.269398	1.142170	0.444326
O201	O	0.334099	1.012843	0.466501
C202	C	0.213498	1.072979	0.606036
C203	C	0.256651	1.082549	0.525090
H204	H	0.150890	1.129327	0.653426
H205	H	0.176755	1.039335	0.614307
H206	H	0.280968	1.043183	0.610294
H207	H	0.189239	1.112363	0.520775
H208	H	0.293425	1.116164	0.516854
O209	O	1.148638	0.798926	-0.238159
C210	C	1.124626	0.790768	-0.118024
C211	C	1.167652	0.748773	-0.198937
H212	H	1.139963	0.750239	-0.086283
H213	H	1.166062	0.820675	-0.125471
H214	H	1.035920	0.832494	-0.082392
H215	H	1.256350	0.707011	-0.234612
H216	H	1.126137	0.718916	-0.191433
H217	H	0.482440	0.901878	0.331983
H218	H	0.644593	0.773787	0.769506
H219	H	0.644599	1.051968	0.047685
O220	O	1.148730	0.369387	-0.238245
C221	C	1.156996	0.284140	-0.166693
C222	C	1.199978	0.293823	-0.247582
H223	H	1.198396	0.223050	-0.174214
H224	H	1.172430	0.313034	-0.134949
H225	H	1.068276	0.309177	-0.131024
H226	H	1.288704	0.268783	-0.283314
H227	H	1.184463	0.264947	-0.279265
H228	H	0.992587	1.364754	-0.109437
O229	O	0.334127	0.768361	0.466466
C230	C	0.181310	0.862021	0.591426
C231	C	0.224423	0.819974	0.510502
H232	H	0.092613	0.903769	0.627045
H233	H	0.196638	0.821544	0.623217
H234	H	0.222790	0.891911	0.583899
H235	H	0.182970	0.790081	0.517958
H236	H	0.209111	0.860485	0.478739
H237	H	0.992582	1.247211	-0.109445
O238	O	0.334100	0.611934	0.310156
C239	C	0.213474	0.572225	0.379392
C240	C	0.256651	0.617442	0.385704
H241	H	0.150865	0.576650	0.440463
H242	H	0.176728	0.594372	0.348525
H243	H	0.280933	0.512128	0.344502
H244	H	0.189251	0.677547	0.420608
H245	H	0.293428	0.595234	0.416540
O246	O	1.007619	0.637396	0.156825
C247	C	1.118903	0.648858	0.033403
C248	C	1.013410	0.688489	0.116672
H249	H	1.123610	0.690146	0.000909
H250	H	1.187478	0.623109	0.036701
H251	H	1.123687	0.603960	0.000933
H252	H	1.008522	0.733418	0.149188
H253	H	0.944884	0.714187	0.113317
O254	O	0.488446	0.617667	0.176502
C255	C	0.480174	0.538618	0.104973
C256	C	0.437205	0.580639	0.185855
H257	H	0.438781	0.508657	0.112507
H258	H	0.464724	0.579114	0.073230
H259	H	0.568898	0.496931	0.069297
H260	H	0.348476	0.622326	0.221594
H261	H	0.452737	0.540099	0.217537
H262	H	0.269422	0.687641	0.444361
H263	H	1.154742	0.514845	-0.393743
H264	H	0.644623	0.773774	0.443389
H265	H	0.482462	0.901854	-0.090188
O266	O	1.380261	0.264866	-0.516766
C267	C	1.557043	0.200321	-0.638211
C268	C	1.470867	0.268359	-0.563688
H269	H	1.630310	0.203130	-0.676176
H270	H	1.578378	0.148341	-0.621462
H271	H	1.526200	0.199145	-0.672193
H272	H	1.501636	0.269606	-0.529672
H273	H	1.449543	0.320307	-0.580490
H274	H	0.644622	1.378064	0.047676
H275	H	0.340427	1.014021	-0.084840
O276	O	1.303066	0.247534	-0.127326
C277	C	1.423746	0.117101	-0.167062
C278	C	1.380649	0.194796	-0.121830
H279	H	1.486495	0.074441	-0.162648
H280	H	1.356346	0.107671	-0.140997
H281	H	1.460354	0.111678	-0.231082
H282	H	1.344053	0.200274	-0.057805
H283	H	1.448087	0.204191	-0.147958
H284	H	0.992558	1.038662	-0.109439
H285	H	0.269373	1.142124	-0.010182
H286	H	0.992558	0.921106	-0.109440
H287	H	1.154732	0.649057	-0.393741
O288	O	1.007614	0.637170	0.284614
C289	C	1.118903	0.541999	0.307538
C290	C	1.013408	0.581716	0.319532
H291	H	1.123612	0.497166	0.335776
H292	H	1.187476	0.516175	0.242315
H293	H	1.123689	0.583295	0.335690
H294	H	1.008518	0.540467	0.291425
H295	H	0.944885	0.607554	0.384765
O296	O	0.334048	1.169147	0.065715
C297	C	0.181150	1.282604	0.170828
C298	C	0.224312	1.204925	0.125507
H299	H	0.092420	1.311559	0.219170
H300	H	0.222476	1.278305	0.197699
H301	H	0.196598	1.315473	0.129124
H302	H	0.208874	1.172013	0.167161
H303	H	0.182986	1.209278	0.098625
H304	H	1.154766	0.370860	-0.115567
O305	O	1.302792	0.804890	-0.371568
C306	C	1.294472	0.883306	-0.285676
C307	C	1.251436	0.838036	-0.292131
H308	H	1.252954	0.910129	-0.221455
H309	H	1.383179	0.845579	-0.317330
H310	H	1.279095	0.927769	-0.313472
H311	H	1.266737	0.793571	-0.264327
H312	H	1.162742	0.875811	-0.260497
H313	H	0.992558	0.642945	0.494853
H314	H	1.367761	0.729125	-0.506077
H315	H	1.296767	0.654444	-0.516637
