data_functionalizedCrystal
_audit_creation_method	'MofGen! by Chris Wilmer'
_symmetry_space_group_name_H-M	'P1'
_symmetry_Int_Tables_number	1
_symmetry_cell_setting	triclinic
loop_
_symmetry_equiv_pos_as_xyz
  x,y,z
_cell_length_a	10.723023
_cell_length_b	12.376457
_cell_length_c	10.723024
_cell_angle_alpha	101.386320
_cell_angle_beta	95.532291
_cell_angle_gamma	101.401683
loop_
_atom_site_label
_atom_site_type_symbol
_atom_site_fract_x
_atom_site_fract_y
_atom_site_fract_z
O1	O	1.680915	0.093999	-0.151310
O2	O	1.317763	0.094002	-0.168063
O3	O	1.507715	0.093996	0.021889
O4	O	1.490963	0.094005	-0.341262
O5	O	1.460243	-0.094015	-0.025534
O6	O	1.270292	-0.094009	-0.215486
O7	O	1.633443	-0.094012	-0.198733
Zn8	Zn	1.444330	-0.123861	-0.214639
Zn9	Zn	1.506876	0.123851	-0.152157
O10	O	1.443492	-0.094006	-0.388685
C11	C	1.247528	-0.000003	-0.190556
C12	C	1.108974	-0.000002	-0.186908
C13	C	0.879415	-0.097393	-0.206078
C14	C	1.022617	-0.097397	-0.209848
N15	N	1.401654	-0.292918	-0.257280
C16	C	1.648628	-0.647910	-0.010497
C17	C	1.678491	-0.529571	0.019348
C18	C	1.609284	-0.470402	-0.049806
C19	C	1.510210	-0.529584	-0.148811
C20	C	1.480351	-0.647934	-0.178666
C21	C	1.441006	-0.470426	-0.217975
C22	C	1.341933	-0.529608	-0.316980
C23	C	1.312078	-0.647947	-0.346829
C24	C	1.381285	-0.707116	-0.277675
C25	C	1.470865	-0.352076	-0.188120
C26	C	1.302588	-0.352100	-0.356289
C27	C	1.272726	-0.470439	-0.386134
C28	C	1.703679	-0.000004	-0.176240
C29	C	1.842235	0.000002	-0.179885
C30	C	1.482760	-0.000008	0.044677
C31	C	1.479113	-0.000004	0.183232
N32	N	1.549563	0.292908	-0.109506
C33	C	1.468447	0.000000	-0.411472
C34	C	1.472096	0.000004	-0.550026
C35	C	1.585401	-0.000003	0.258216
C36	C	1.581635	0.000001	0.401420
H37	H	1.551532	-0.303901	-0.107511
O38	O	1.070829	0.099514	-0.159921
C39	C	1.131539	0.161913	-0.037148
H40	H	1.161510	0.101988	0.022204
H41	H	1.062008	0.208306	0.013021
H42	H	1.220188	0.225902	-0.047390
O43	O	1.638054	-0.355449	-0.020823
C44	C	1.529370	-0.315932	0.015634
H45	H	1.438858	-0.384143	-0.026466
H46	H	1.524287	-0.236761	-0.022052
H47	H	1.537080	-0.294938	0.124897
O48	O	1.774721	-0.472262	0.115593
C49	C	1.829422	-0.549858	0.170210
H50	H	1.756963	-0.634225	0.150809
H51	H	1.856242	-0.515665	0.278321
H52	H	1.919292	-0.562428	0.125668
O53	O	1.715686	-0.705561	0.056577
C54	C	1.668111	-0.822703	0.008968
H55	H	1.565214	-0.838875	-0.040840
H56	H	1.669846	-0.867691	0.091994
H57	H	1.730799	-0.856267	-0.062745
H58	H	1.054686	-0.180780	-0.232274
H59	H	1.356968	-0.803477	-0.301970
H60	H	0.805229	-0.180775	-0.225718
O61	O	1.176409	-0.528060	-0.482169
C62	C	1.081575	-0.596508	-0.431887
H63	H	1.125980	-0.614223	-0.339158
H64	H	1.041285	-0.679733	-0.504779
H65	H	1.000777	-0.550918	-0.411067
O66	O	0.930653	0.099510	-0.156677
C67	C	0.901454	0.161912	-0.247974
H68	H	0.841216	0.101989	-0.337551
H69	H	0.994413	0.208298	-0.274747
H70	H	0.845126	0.225906	-0.205451
H71	H	1.231416	-0.696132	-0.427454
H72	H	1.246236	-0.303925	-0.412603
H73	H	1.679185	-0.000011	0.216392
H74	H	1.672624	-0.000003	0.465852
H75	H	1.381098	-0.000005	0.385547
H76	H	1.385330	0.000004	0.225056
