data_functionalizedCrystal
_audit_creation_method	'MofGen! by Chris Wilmer'
_symmetry_space_group_name_H-M	'P1'
_symmetry_Int_Tables_number	1
_symmetry_cell_setting	triclinic
loop_
_symmetry_equiv_pos_as_xyz
  x,y,z
_cell_length_a	21.395362
_cell_length_b	15.297327
_cell_length_c	21.395355
_cell_angle_alpha	99.659679
_cell_angle_beta	89.956060
_cell_angle_gamma	99.725883
loop_
_atom_site_label
_atom_site_type_symbol
_atom_site_fract_x
_atom_site_fract_y
_atom_site_fract_z
Zn1	Zn	0.914743	-0.358918	-0.397693
Zn2	Zn	0.896524	-0.509774	-0.311034
Zn3	Zn	0.809953	-0.358960	-0.292899
Zn4	Zn	0.791803	-0.509792	-0.415741
O5	O	0.853256	-0.434361	-0.354342
O6	O	1.000007	-0.378904	-0.386234
O7	O	0.885011	-0.489778	-0.220951
O8	O	0.839075	-0.232697	-0.291658
O9	O	0.986621	-0.489737	-0.322566
O10	O	0.916063	-0.232666	-0.368649
O11	O	0.821408	-0.378975	-0.207628
O12	O	0.719864	-0.378993	-0.309158
O13	O	0.808140	-0.489769	-0.501023
O14	O	0.706530	-0.489810	-0.399409
O15	O	0.898464	-0.378922	-0.487764
O16	O	0.867411	-0.636034	-0.340066
O17	O	0.790473	-0.636048	-0.416993
C18	C	0.690462	-0.434409	-0.354275
C19	C	0.620816	-0.434451	-0.354263
C20	C	0.581167	-0.492229	-0.401206
C21	C	0.515734	-0.492207	-0.401232
C22	C	0.489952	-0.434416	-0.354304
C23	C	0.529610	-0.376627	-0.307357
C24	C	0.595042	-0.376644	-0.307337
C25	C	0.387100	-0.427148	-0.297026
C26	C	0.321669	-0.427137	-0.297046
C27	C	0.288138	-0.434357	-0.354366
C28	C	0.320045	-0.441608	-0.411670
C29	C	0.385477	-0.441625	-0.411650
C30	C	0.419003	-0.434390	-0.354321
C31	C	0.177539	-0.492115	-0.401340
C32	C	0.112106	-0.492086	-0.401366
C33	C	0.125983	-0.376510	-0.307486
C34	C	0.191415	-0.376534	-0.307465
C35	C	0.217189	-0.434341	-0.354392
C36	C	0.825013	-0.668778	-0.382470
C37	C	0.812988	-0.769063	-0.394524
C38	C	0.939459	-1.051594	-0.268402
C39	C	0.950757	-0.957372	-0.257073
C40	C	0.916316	-0.910290	-0.291435
C41	C	0.870575	-0.957440	-0.337127
C42	C	0.859272	-1.051671	-0.348454
C43	C	0.836129	-0.910367	-0.371487
C44	C	0.790387	-0.957517	-0.417179
C45	C	0.779087	-1.051739	-0.428503
C46	C	0.813528	-1.098821	-0.394142
C47	C	0.847431	-0.816135	-0.360160
C48	C	0.767244	-0.816212	-0.440212
C49	C	0.755946	-0.910435	-0.451540
C50	C	1.016685	-0.434314	-0.354409
C51	C	1.086328	-0.434294	-0.354438
C52	C	0.853310	-0.434343	-0.517763
C53	C	0.853333	-0.434335	-0.587403
C54	C	0.881626	-0.199029	-0.326118
C55	C	0.893716	-0.098744	-0.314090
C56	C	0.900363	-0.376615	-0.613213
C57	C	0.900367	-0.376576	-0.678643
C58	C	0.853345	-0.434273	-0.718264
C59	C	0.806307	-0.491998	-0.692447
C60	C	0.806301	-0.492029	-0.627017
C61	C	0.838610	-0.515514	-0.831685
C62	C	0.838620	-0.515485	-0.897115
C63	C	0.853361	-0.434178	-0.920074
C64	C	0.868104	-0.352898	-0.877594
C65	C	0.868098	-0.352928	-0.812164
C66	C	0.853346	-0.434246	-0.789213
C67	C	0.900398	-0.376411	-1.016830
C68	C	0.900397	-0.376370	-1.082262
C69	C	0.806339	-0.491801	-1.096065
C70	C	0.806338	-0.491833	-1.030634
C71	C	0.853370	-0.434139	-0.991020
C72	C	0.853246	-0.434314	-0.191548
C73	C	0.853374	-0.434068	-0.121878
H74	H	0.223698	-0.329489	-0.269237
H75	H	0.718703	-0.948837	-0.488743
O76	O	0.946069	-0.320169	-1.107248
C77	C	0.943209	-0.230256	-1.080455
H78	H	0.919344	-0.228420	-1.032707
H79	H	0.993308	-0.189793	-1.073386
H80	H	0.914665	-0.199850	-1.113604
H81	H	0.768000	-0.539030	-0.606004
H82	H	0.967493	-1.089937	-0.240426
H83	H	0.925517	-0.833570	-0.282208
O84	O	0.073577	-0.548087	-0.447021
C85	C	0.041959	-0.496801	-0.481402
H86	H	0.070268	-0.425755	-0.476826
H87	H	0.037317	-0.529543	-0.533509
H88	H	-0.007272	-0.493635	-0.461673
O89	O	0.419566	-0.420176	-0.241287
C90	C	0.377377	-0.413765	-0.190715
H91	H	0.327084	-0.444093	-0.209173
H92	H	0.391613	-0.452014	-0.153146
H93	H	0.379320	-0.340008	-0.168932
H94	H	0.483445	-0.539257	-0.439461
O95	O	0.760586	-0.547752	-1.134508
C96	C	0.700510	-0.528079	-1.116101
H97	H	0.706032	-0.456012	-1.089452
H98	H	0.668624	-0.535837	-1.160044
H99	H	0.678296	-0.576479	-1.083923
H100	H	0.295694	-0.421238	-0.250386
H101	H	0.880101	-0.286747	-0.777580
O102	O	0.882464	-0.273832	-0.899781
C103	C	0.895457	-0.202102	-0.848258
H104	H	0.910443	-0.228423	-0.804791
H105	H	0.935377	-0.149016	-0.860814
H106	H	0.851060	-0.170863	-0.837508
H107	H	0.104993	-0.329452	-0.269279
O108	O	0.946132	-0.320494	-0.978334
C109	C	0.980397	-0.371871	-0.946678
H110	H	0.975699	-0.442920	-0.974935
H111	H	1.032551	-0.339227	-0.942055
H112	H	0.960650	-0.375008	-0.897448
H113	H	0.739198	-0.777879	-0.468191
O114	O	0.802439	-1.190351	-0.405149
C115	C	0.738614	-1.221949	-0.392768
H116	H	0.709022	-1.167700	-0.396900
H117	H	0.719907	-1.284981	-0.428598
H118	H	0.735303	-1.238716	-0.342797
O119	O	0.946075	-0.320481	-0.574819
C120	C	0.987595	-0.269542	-0.611638
H121	H	0.962312	-0.266407	-0.657886
H122	H	1.002848	-0.198461	-0.584202
H123	H	1.031199	-0.302567	-0.622597
H124	H	0.292746	-0.447486	-0.458346
H125	H	0.508615	-0.329571	-0.269149
O126	O	0.760606	-0.547781	-1.005515
C127	C	0.726337	-0.496444	-0.961457
H128	H	0.731033	-0.425376	-0.972638
H129	H	0.674183	-0.529091	-0.964598
H130	H	0.746082	-0.493352	-0.911509
H131	H	0.987999	-0.918986	-0.219871
O132	O	0.734723	-1.097499	-0.472970
C133	C	0.751148	-1.074394	-0.532655
H134	H	0.804317	-1.048412	-0.532757
H135	H	0.738305	-1.136348	-0.571050
H136	H	0.724105	-1.019740	-0.542422
O137	O	0.633600	-0.320424	-0.261809
C138	C	0.678534	-0.262254	-0.290552
H139	H	0.659533	-0.256777	-0.339255
H140	H	0.687649	-0.192772	-0.259631
H141	H	0.724753	-0.290173	-0.296010
H142	H	0.938664	-0.329568	-0.699661
H143	H	0.884674	-0.777754	-0.322957
H144	H	0.826619	-0.581669	-0.931697
H145	H	0.768020	-0.538973	-0.724710
O146	O	0.606102	-0.548404	-0.446855
C147	C	0.557068	-0.599413	-0.488285
H148	H	0.514893	-0.562449	-0.486076
H149	H	0.574850	-0.609149	-0.538802
H150	H	0.541811	-0.667885	-0.473480
H151	H	0.826441	-0.581708	-0.812997
H152	H	0.198525	-0.539180	-0.439553
O153	O	0.416380	-0.448626	-0.467364
C154	C	0.372758	-0.455020	-0.517967
H155	H	0.329764	-0.424662	-0.499543
H156	H	0.396332	-0.416791	-0.555526
H157	H	0.356906	-0.528776	-0.539748
