data_functionalizedCrystal
_audit_creation_method	'MofGen! by Chris Wilmer'
_symmetry_space_group_name_H-M	'P1'
_symmetry_Int_Tables_number	1
_symmetry_cell_setting	triclinic
loop_
_symmetry_equiv_pos_as_xyz
  x,y,z
_cell_length_a	16.625546
_cell_length_b	19.077105
_cell_length_c	19.077271
_cell_angle_alpha	90.107074
_cell_angle_beta	87.671269
_cell_angle_gamma	92.281241
loop_
_atom_site_label
_atom_site_type_symbol
_atom_site_fract_x
_atom_site_fract_y
_atom_site_fract_z
Zn1	Zn	-0.349527	-1.058285	-0.440417
Zn2	Zn	0.150473	-0.558285	0.059583
Zn3	Zn	-0.489990	-1.062928	-0.322904
Zn4	Zn	0.010010	-0.562928	0.177096
Zn5	Zn	-0.349978	-0.945502	-0.318208
Zn6	Zn	0.150022	-0.445502	0.181792
Zn7	Zn	-0.479122	-0.940751	-0.435659
Zn8	Zn	0.020878	-0.440751	0.064341
O9	O	-0.417154	-1.001866	-0.379297
O10	O	0.082846	-0.501866	0.120703
O11	O	-0.372520	-1.157233	-0.428785
O12	O	0.127480	-0.657233	0.071215
O13	O	-0.476154	-1.051283	-0.223947
O14	O	0.023846	-0.551283	0.276053
O15	O	-0.237087	-0.960508	-0.334445
O16	O	0.262913	-0.460508	0.165555
O17	O	-0.475717	-1.160644	-0.342448
O18	O	0.024283	-0.660644	0.157552
O19	O	-0.236756	-1.043369	-0.424231
O20	O	0.263244	-0.543369	0.075769
O21	O	-0.373287	-0.965010	-0.220497
O22	O	0.126713	-0.465010	0.279503
O23	O	-0.362749	-0.846540	-0.329831
O24	O	0.137251	-0.346540	0.170169
O25	O	-0.457195	-0.952410	-0.534623
O26	O	0.042805	-0.452410	-0.034623
O27	O	-0.457631	-0.843049	-0.416122
O28	O	0.042369	-0.343049	0.083878
O29	O	-0.361982	-1.038762	-0.538119
O30	O	0.138018	-0.538762	-0.038119
O31	O	-0.601380	-1.046676	-0.337835
O32	O	-0.101380	-0.546676	0.162165
O33	O	-0.593395	-0.956913	-0.420676
O34	O	-0.093395	-0.456913	0.079324
C35	C	-0.626644	-1.001801	-0.379265
C36	C	-0.126644	-0.501801	0.120735
C37	C	-0.716266	-1.001836	-0.379277
C38	C	-0.216266	-0.501836	0.120723
C39	C	-0.409061	-0.819298	-0.371951
C40	C	0.090939	-0.319298	0.128049
C41	C	-0.405617	-0.741193	-0.368826
C42	C	0.094383	-0.241193	0.131174
C43	C	-0.408326	-0.994538	-0.562581
C44	C	0.091674	-0.494538	-0.062581
C45	C	-0.404563	-0.991415	-0.640686
C46	C	0.095437	-0.491415	-0.140686
C47	C	-1.044443	-1.001956	-0.379355
C48	C	-0.544443	-0.501956	0.120645
C49	C	-0.953134	-1.001920	-0.379335
C50	C	-0.453134	-0.501920	0.120665
C51	C	-0.880357	-1.001896	-0.379316
C52	C	-0.380357	-0.501896	0.120684
C53	C	-0.789043	-1.001861	-0.379297
C54	C	-0.289043	-0.501861	0.120703
C55	C	-0.206847	-1.001950	-0.379345
C56	C	0.293153	-0.501950	0.120655
C57	C	-0.117227	-1.001986	-0.379366
C58	C	0.382773	-0.501986	0.120634
C59	C	-0.425280	-1.185148	-0.386671
C60	C	0.074720	-0.685148	0.113329
C61	C	-0.428743	-1.263251	-0.389814
C62	C	0.071257	-0.763251	0.110186
C63	C	-0.453480	-0.702704	-0.412213
C64	C	0.046520	-0.202704	0.087787
C65	C	-0.450233	-0.629316	-0.409280
C66	C	0.049767	-0.129316	0.090720
C67	C	-0.399127	-0.594420	-0.362954
C68	C	0.100873	-0.094420	0.137046
C69	C	-0.351258	-0.632915	-0.319565
C70	C	0.148742	-0.132915	0.180435
C71	C	-0.354501	-0.706301	-0.322502
C72	C	0.145499	-0.206301	0.177498
C73	C	-0.384118	-0.375132	-0.349362
C74	C	0.115882	0.124868	0.150638
C75	C	-0.380880	-0.301741	-0.346426
C76	C	0.119120	0.198259	0.153574
C77	C	-0.479854	-0.298147	-0.436142
C78	C	0.020146	0.201853	0.063858
C79	C	-0.483096	-0.371535	-0.439073
C80	C	0.016904	0.128465	0.060927
C81	C	-0.435224	-0.410023	-0.395686
C82	C	0.064776	0.089977	0.104314
N83	N	-0.395809	-0.519407	-0.359953
N84	N	0.104191	-0.019407	0.140047
N85	N	-0.438539	-0.485036	-0.398691
N86	N	0.061461	0.014964	0.101309
C87	C	-0.377643	-0.969017	-1.080140
C88	C	0.122357	-0.469017	-0.580140
C89	C	-0.381175	-0.971955	-1.006753
C90	C	0.118825	-0.471955	-0.506753
C91	C	-0.436502	-1.018338	-0.971854
C92	C	0.063498	-0.518338	-0.471854
C93	C	-0.488295	-1.061790	-1.010348
C94	C	0.011705	-0.561790	-0.510348
C95	C	-0.484758	-1.058856	-1.083734
C96	C	0.015242	-0.558856	-0.583734
C97	C	-0.452819	-1.031934	-0.752565
C98	C	0.047181	-0.531934	-0.252565
C99	C	-0.456354	-1.034863	-0.679174
C100	C	0.043646	-0.534863	-0.179174
C101	C	-0.349232	-0.945028	-0.675584
C102	C	0.150768	-0.445028	-0.175584
C103	C	-0.345704	-0.942095	-0.748972
C104	C	0.154296	-0.442095	-0.248972
C105	C	-0.397494	-0.985550	-0.787459
C106	C	0.102506	-0.485550	-0.287459
N107	N	-0.440116	-1.021340	-0.896840
N108	N	0.059884	-0.521340	-0.396840
N109	N	-0.393876	-0.982551	-0.862471
N110	N	0.106124	-0.482551	-0.362471
C111	C	-0.425892	-1.009207	-0.196727
C112	C	0.074108	-0.509207	0.303273
C113	C	-0.429434	-1.012466	-0.118628
C114	C	0.070566	-0.512466	0.381372
H115	H	-0.495099	-0.731111	-0.449934
H116	H	0.004901	-0.231111	0.050066
C117	C	-0.317702	-0.918568	-1.118059
C118	C	0.182298	-0.418568	-0.618059
C119	C	-0.359325	-0.871811	-1.158353
C120	C	0.140675	-0.371811	-0.658353
C121	C	-0.304132	-0.825321	-1.193283
C122	C	0.195868	-0.325321	-0.693283
H123	H	-0.282361	-0.944233	-1.147832
H124	H	0.217639	-0.444233	-0.647832
H125	H	-0.287375	-0.893072	-1.084644
H126	H	0.212625	-0.393072	-0.584644
H127	H	-0.389639	-0.897304	-1.191764
H128	H	0.110361	-0.397304	-0.691764
H129	H	-0.394663	-0.846129	-1.128597
H130	H	0.105337	-0.346129	-0.628597
H131	H	-0.273805	-0.799825	-1.159868
H132	H	0.226195	-0.299825	-0.659868
H133	H	-0.268795	-0.850992	-1.223052
H134	H	0.231205	-0.350992	-0.723052
H135	H	-0.332366	-0.793586	-1.220621
H136	H	0.167634	-0.293586	-0.720621
H137	H	-0.494992	-1.067316	-0.783893
H138	H	0.005008	-0.567316	-0.283893
H139	H	-0.339254	-0.273331	-0.308706
H140	H	0.160746	0.226669	0.191294
H141	H	-0.315522	-0.737638	-0.287175
H142	H	0.184478	-0.237638	0.212825
H143	H	-0.307067	-0.909651	-0.644240
H144	H	0.192933	-0.409651	-0.144240
C145	C	-0.324858	-0.924898	-0.964931
C146	C	0.175142	-0.424898	-0.464931
C147	C	-0.276956	-0.966390	-0.924427
C148	C	0.223044	-0.466390	-0.424427
C149	C	-0.225058	-0.923065	-0.885897
C150	C	0.274942	-0.423065	-0.385897
H151	H	-0.355634	-0.895405	-0.935005
H152	H	0.144366	-0.395405	-0.435005
H153	H	-0.291357	-0.896863	-0.996201
H154	H	0.208643	-0.396863	-0.496201
H155	H	-0.310453	-0.994413	-0.893159
H156	H	0.189547	-0.494413	-0.393159
H157	H	-0.246163	-0.995883	-0.954335
H158	H	0.253837	-0.495883	-0.454335
H159	H	-0.191557	-0.895030	-0.917168
H160	H	0.308443	-0.395030	-0.417168
H161	H	-0.255840	-0.893573	-0.855976
H162	H	0.244160	-0.393573	-0.355976
H163	H	-0.192545	-0.951211	-0.858416
H164	H	0.307455	-0.451211	-0.358416
C165	C	-0.502163	-0.587617	-0.456499
C166	C	-0.002163	-0.087617	0.043501
C167	C	-0.482198	-0.602723	-0.526769
C168	C	0.017802	-0.102723	-0.026769
C169	C	-0.530032	-0.564333	-0.570288
C170	C	-0.030032	-0.064333	-0.070288
H171	H	-0.492964	-0.538898	-0.448215
H172	H	0.007036	-0.038898	0.051785
H173	H	-0.557359	-0.600060	-0.446643
H174	H	-0.057359	-0.100060	0.053357
H175	H	-0.427015	-0.590276	-0.536622
H176	H	0.072985	-0.090276	-0.036622
H177	H	-0.491401	-0.651435	-0.535075
H178	H	0.008599	-0.151435	-0.035075
H179	H	-0.585228	-0.576775	-0.560432
H180	H	-0.085228	-0.076775	-0.060432
H181	H	-0.520829	-0.515615	-0.561998
H182	H	-0.020829	-0.015615	-0.061998
H183	H	-0.516498	-0.574581	-0.617971
H184	H	-0.016498	-0.074581	-0.117971
C185	C	-0.516461	-1.085291	-0.641412
C186	C	-0.016461	-0.585291	-0.141412
C187	C	-0.561049	-1.122730	-0.690823
C188	C	-0.061049	-0.622730	-0.190823
C189	C	-0.616421	-1.169189	-0.656063
C190	C	-0.116421	-0.669189	-0.156063
H191	H	-0.551851	-1.059610	-0.611701
H192	H	-0.051851	-0.559610	-0.111701
H193	H	-0.488381	-1.117102	-0.614032
H194	H	0.011619	-0.617102	-0.114032
H195	H	-0.589128	-1.090923	-0.718191
H196	H	-0.089128	-0.590923	-0.218191
H197	H	-0.525681	-1.148425	-0.720536
H198	H	-0.025681	-0.648425	-0.220536
H199	H	-0.588341	-1.201000	-0.628684
H200	H	-0.088341	-0.701000	-0.128684
H201	H	-0.651806	-1.143502	-0.626353
H202	H	-0.151806	-0.643502	-0.126353
H203	H	-0.646676	-1.194601	-0.689584
H204	H	-0.146676	-0.694601	-0.189584
H205	H	-0.533340	-1.099559	-0.981928
H206	H	-0.033340	-0.599559	-0.481928
H207	H	-0.518827	-0.266802	-0.471467
H208	H	-0.018827	0.233198	0.028533
H209	H	-0.345144	-0.406461	-0.314028
H210	H	0.154856	0.093539	0.185972
H211	H	-0.526930	-1.094237	-1.115070
H212	H	-0.026930	-0.594237	-0.615070
C213	C	-0.295847	-0.594902	-0.269293
C214	C	0.204153	-0.094902	0.230707
C215	C	-0.303265	-0.522396	-0.275992
C216	C	0.196735	-0.022396	0.224008
C217	C	-0.252239	-0.487358	-0.229686
C218	C	0.247761	0.012642	0.270314
H219	H	-0.241689	-0.606450	-0.280100
H220	H	0.258311	-0.106450	0.219900
H221	H	-0.310372	-0.608764	-0.222524
H222	H	0.189628	-0.108764	0.277476
H223	H	-0.288735	-0.508539	-0.322751
H224	H	0.211265	-0.008539	0.177249
H225	H	-0.357411	-0.510827	-0.265180
H226	H	0.142589	-0.010827	0.234820
H227	H	-0.266764	-0.501220	-0.182917
H228	H	0.233236	-0.001220	0.317083
H229	H	-0.198085	-0.498912	-0.240497
H230	H	0.301915	0.001088	0.259503
H231	H	-0.257271	-0.438160	-0.234221
H232	H	0.242729	0.061840	0.265779
H233	H	-0.300654	-0.904322	-0.777381
H234	H	0.199346	-0.404322	-0.277381
H235	H	-0.524714	-0.399942	-0.476795
H236	H	-0.024714	0.100058	0.023205
