data_functionalizedCrystal
_audit_creation_method	'MofGen! by Chris Wilmer'
_symmetry_space_group_name_H-M	'P1'
_symmetry_Int_Tables_number	1
_symmetry_cell_setting	triclinic
loop_
_symmetry_equiv_pos_as_xyz
  x,y,z
_cell_length_a	14.908783
_cell_length_b	19.120786
_cell_length_c	14.908308
_cell_angle_alpha	90.683525
_cell_angle_beta	89.788727
_cell_angle_gamma	95.607498
loop_
_atom_site_label
_atom_site_type_symbol
_atom_site_fract_x
_atom_site_fract_y
_atom_site_fract_z
Zn1	Zn	1.332649	-0.245599	-0.573621
Zn2	Zn	1.335542	-0.355895	-0.416880
Zn3	Zn	1.191002	-0.244839	-0.414636
Zn4	Zn	1.175874	-0.369341	-0.557724
O5	O	1.258767	-0.303918	-0.490715
O6	O	1.459135	-0.254921	-0.560421
O7	O	1.323910	-0.335218	-0.291103
O8	O	1.214912	-0.146676	-0.441440
O9	O	1.461260	-0.335954	-0.445264
O10	O	1.318980	-0.147234	-0.558245
O11	O	1.217717	-0.253625	-0.289455
O12	O	1.062894	-0.266663	-0.426025
O13	O	1.189129	-0.358871	-0.685312
O14	O	1.051779	-0.358134	-0.531151
O15	O	1.304311	-0.267959	-0.696991
O16	O	1.309241	-0.455942	-0.429849
O17	O	1.191934	-0.465820	-0.533326
C18	C	1.024640	-0.313776	-0.476620
C19	C	0.924477	-0.318011	-0.470610
C20	C	0.734028	-0.241720	-0.579398
C21	C	0.639917	-0.245697	-0.573755
C22	C	0.642140	-0.329938	-0.453676
C23	C	0.736252	-0.325961	-0.459319
C24	C	0.782193	-0.281851	-0.522184
C25	C	0.876306	-0.277879	-0.527831
C26	C	0.878528	-0.362115	-0.407748
C27	C	0.784416	-0.366092	-0.402105
C28	C	1.249283	-0.486360	-0.480127
C29	C	1.245307	-0.564407	-0.475633
C30	C	1.297576	-0.601308	-0.534379
C31	C	1.293836	-0.674642	-0.530158
C32	C	1.237831	-0.711073	-0.467184
C33	C	1.185557	-0.674167	-0.408435
C34	C	1.189292	-0.600835	-0.412662
C35	C	1.223839	-0.932477	-0.451381
C36	C	1.220109	-1.005814	-0.447157
C37	C	1.328387	-1.006284	-0.568882
C38	C	1.332122	-0.932950	-0.573099
C39	C	1.279844	-0.896051	-0.514353
C40	C	1.234009	-0.786031	-0.462865
C41	C	1.283662	-0.821094	-0.518677
C42	C	1.493808	-0.294022	-0.504866
C43	C	1.593969	-0.289805	-0.510896
C44	C	1.244710	-0.315000	-0.724597
C45	C	1.238720	-0.319722	-0.824263
C46	C	1.268311	-0.120764	-0.501366
C47	C	1.272378	-0.042715	-0.505904
C48	C	1.347401	-0.233912	-1.023711
C49	C	1.341776	-0.238346	-1.117357
C50	C	1.221840	-0.333021	-1.105202
C51	C	1.227465	-0.328587	-1.011556
C52	C	1.290249	-0.279031	-0.970814
C53	C	1.295878	-0.274600	-0.877167
C54	C	1.175939	-0.369272	-0.865014
C55	C	1.170313	-0.373706	-0.958659
C56	C	1.272823	-0.292827	-0.257750
C57	C	1.278998	-0.287900	-0.158106
H58	H	0.771434	-0.205808	-0.630588
C59	C	0.647176	-0.162036	-0.693020
C60	C	0.586973	-0.201588	-0.636652
H61	H	0.614488	-0.134808	-0.731854
H62	H	0.687609	-0.131732	-0.657768
H63	H	0.680248	-0.192749	-0.727677
H64	H	0.553905	-0.170875	-0.601990
H65	H	0.546523	-0.231896	-0.671908
H66	H	1.119195	-0.414051	-0.991844
C67	C	1.107571	-0.854627	-0.436264
C68	C	1.166379	-0.891927	-0.386800
H69	H	1.072093	-0.829597	-0.396388
H70	H	1.141454	-0.822433	-0.474361
H71	H	1.069272	-0.886560	-0.471576
H72	H	1.204683	-0.859994	-0.351492
H73	H	1.132493	-0.924125	-0.348687
C74	C	1.390130	-0.118958	-1.155730
C75	C	1.404602	-0.188750	-1.175499
H76	H	1.428922	-0.088339	-1.191621
H77	H	1.329204	-0.111965	-1.168037
H78	H	1.402464	-0.109236	-1.094124
H79	H	1.392262	-0.198474	-1.237104
H80	H	1.465542	-0.195746	-1.163198
H81	H	1.170725	-0.373366	-1.138391
H82	H	0.604719	-0.365841	-0.402485
C83	C	1.423930	-0.254739	-0.779717
C84	C	1.364884	-0.220128	-0.832379
H85	H	1.466532	-0.221107	-0.752074
H86	H	1.390700	-0.280971	-0.734814
H87	H	1.454614	-0.285606	-0.816555
H88	H	1.334194	-0.189265	-0.795540
H89	H	1.398118	-0.193885	-0.877288
C90	C	1.131304	-0.404517	-0.716066
C91	C	1.113110	-0.418871	-0.806867
H92	H	1.092515	-0.435135	-0.680170
H93	H	1.192231	-0.411516	-0.703773
H94	H	1.121490	-0.357165	-0.702672
H95	H	1.122931	-0.466221	-0.820262
H96	H	1.052169	-0.411877	-0.819165
H97	H	0.746998	-0.402003	-0.350920
C98	C	0.864652	-0.195006	-0.645951
C99	C	0.926807	-0.229393	-0.596928
H100	H	0.895830	-0.165069	-0.688605
H101	H	0.824309	-0.228813	-0.676209
H102	H	0.831676	-0.167806	-0.606284
H103	H	0.959779	-0.256598	-0.636594
H104	H	0.967166	-0.195583	-0.566669
C105	C	1.078898	-0.666331	-0.288546
C106	C	1.123992	-0.714209	-0.339214
H107	H	1.040888	-0.691053	-0.245815
H108	H	1.121704	-0.634434	-0.258295
H109	H	1.043510	-0.641046	-0.327169
H110	H	1.159386	-0.739492	-0.300593
H111	H	1.081180	-0.746120	-0.369468
C112	C	1.371173	-0.133949	-0.924630
C113	C	1.416414	-0.179448	-0.978917
H114	H	1.413782	-0.100329	-0.896973
H115	H	1.331129	-0.110469	-0.960361
H116	H	1.337938	-0.160192	-0.879729
H117	H	1.449644	-0.153205	-1.023823
H118	H	1.456474	-0.202930	-0.943184
C119	C	1.166323	-1.118018	-0.386620
C120	C	1.158549	-1.045861	-0.377928
H121	H	1.128327	-1.142740	-0.343876
H122	H	1.148851	-1.133439	-0.445359
H123	H	1.227062	-1.126812	-0.376503
H124	H	1.097811	-1.037067	-0.388051
H125	H	1.176016	-1.030435	-0.319175
C126	C	1.023780	-0.393430	-0.363080
C127	C	0.931472	-0.406232	-0.344852
H128	H	1.056463	-0.420665	-0.324250
H129	H	1.035053	-0.405978	-0.423626
H130	H	1.042426	-0.344965	-0.353711
H131	H	0.912824	-0.454696	-0.354228
H132	H	0.920193	-0.393689	-0.284292
C133	C	1.404214	-0.609147	-0.654284
C134	C	1.359133	-0.561267	-0.603608
H135	H	1.442211	-0.584428	-0.697029
H136	H	1.439608	-0.634429	-0.615676
H137	H	1.361395	-0.641049	-0.684528
H138	H	1.401953	-0.529367	-0.573359
H139	H	1.323737	-0.535973	-0.642222
C140	C	1.294832	-0.762246	-0.646795
C141	C	1.351301	-0.715196	-0.594734
H142	H	1.330314	-0.787277	-0.686667
H143	H	1.260953	-0.794440	-0.608695
H144	H	1.254943	-0.736928	-0.680342
H145	H	1.391185	-0.740515	-0.561181
H146	H	1.385195	-0.682997	-0.632839
H147	H	1.146729	-0.570791	-0.364825
C148	C	1.438778	-0.940783	-0.692993
C149	C	1.393687	-0.892907	-0.642320
H150	H	1.476785	-0.916061	-0.735726
H151	H	1.474161	-0.966070	-0.654380
H152	H	1.395963	-0.972682	-0.723250
H153	H	1.436501	-0.861012	-0.612057
H154	H	1.358301	-0.867608	-0.680937
H155	H	1.329257	-0.791430	-0.569953
H156	H	1.188413	-0.815702	-0.411590
C157	C	1.370734	-1.118906	-0.616459
C158	C	1.385839	-1.046846	-0.633461
H159	H	1.406199	-1.143946	-0.656336
H160	H	1.386985	-1.127517	-0.556336
H161	H	1.308774	-1.134126	-0.625191
H162	H	1.447799	-1.031625	-0.624722
H163	H	1.369595	-1.038230	-0.693599
