data_functionalizedCrystal
_audit_creation_method	'MofGen! by Chris Wilmer'
_symmetry_space_group_name_H-M	'P1'
_symmetry_Int_Tables_number	1
_symmetry_cell_setting	triclinic
loop_
_symmetry_equiv_pos_as_xyz
  x,y,z
_cell_length_a	14.560432
_cell_length_b	31.640172
_cell_length_c	31.640172
_cell_angle_alpha	90.008445
_cell_angle_beta	60.006756
_cell_angle_gamma	59.999269
loop_
_atom_site_label
_atom_site_type_symbol
_atom_site_fract_x
_atom_site_fract_y
_atom_site_fract_z
Zr1	Zr	1.005141	0.407193	-0.055402
O2	O	1.196741	0.339705	-0.122892
O3	O	0.813542	0.427880	-0.034714
O4	O	1.005117	0.427881	-0.122881
O5	O	1.005185	0.339705	0.034824
O6	O	1.005098	0.497438	-0.122871
O7	O	1.005166	0.339704	-0.034725
O8	O	0.662405	0.497436	0.034843
O9	O	1.347878	0.339706	-0.122891
O10	O	0.892335	0.488615	-0.025883
O11	O	0.892364	0.436706	0.026014
O12	O	1.117919	0.436707	-0.077792
O13	O	1.117947	0.384798	-0.025896
Zr14	Zr	1.005141	0.518130	0.055534
Zr15	Zr	1.005111	0.518128	-0.055387
Zr16	Zr	1.005172	0.407195	0.055519
Zr17	Zr	1.246187	0.407196	-0.055401
Zr18	Zr	0.764095	0.518127	0.055533
O19	O	1.196741	0.497443	0.034845
O20	O	1.196698	0.497441	-0.122871
O21	O	1.196784	0.339707	0.034824
O22	O	0.813542	0.585618	0.123023
O23	O	0.813499	0.585616	-0.034693
O24	O	0.813585	0.427882	0.123002
O25	O	1.005098	0.585618	-0.034692
O26	O	1.005166	0.497442	0.123012
O27	O	1.005185	0.427885	0.123003
O28	O	1.005117	0.585619	0.034856
O29	O	1.347854	0.427885	-0.122879
O30	O	0.662429	0.497438	0.123011
O31	O	0.662405	0.585617	0.123023
O32	O	0.662381	0.585615	0.034855
O33	O	1.347902	0.339708	-0.034723
O34	O	1.347878	0.427887	-0.034711
O35	O	0.892364	0.488616	0.077924
O36	O	0.892335	0.540525	0.026027
O37	O	1.117919	0.488617	-0.025882
O38	O	1.117947	0.436708	0.026014
C39	C	0.703630	0.462658	0.000065
C40	C	0.601299	0.462657	0.000064
C41	C	0.767815	0.386012	-0.076574
C42	C	0.802995	0.347690	-0.114891
C43	C	0.706842	0.347691	-0.114890
C44	C	0.575497	0.386020	-0.076568
C45	C	0.540317	0.424342	-0.038251
C46	C	0.636481	0.424336	-0.038256
C47	C	0.373803	0.500989	0.038384
C48	C	0.469955	0.500986	0.038386
C49	C	0.242459	0.539317	0.076706
C50	C	0.207277	0.577639	0.115026
C51	C	0.303439	0.577635	0.115023
C52	C	0.434775	0.539308	0.076703
C53	C	1.005179	0.323898	0.000047
C54	C	1.005192	0.276803	0.000041
C55	C	0.887377	0.011892	0.027172
C56	C	0.887354	-0.165093	0.027183
O57	O	0.787210	-0.164935	0.050246
N58	N	1.005106	-0.214318	0.000086
C59	C	1.122871	-0.219296	-0.027012
O60	O	1.223026	-0.265225	-0.050055
C61	C	1.122892	-0.042311	-0.027019
C62	C	1.005133	0.006913	0.000075
C63	C	0.769627	0.061115	0.054265
C64	C	0.769634	0.105358	0.054260
C65	C	0.887391	0.100379	0.027162
C66	C	1.005140	0.051157	0.000070
C67	C	1.240657	-0.047289	-0.054114
C68	C	1.240651	-0.003038	-0.054113
C69	C	1.122892	0.046186	-0.027019
C70	C	1.122903	0.090421	-0.027033
N71	N	1.005152	0.139646	0.000064
C72	C	0.887395	0.144625	0.027161
C73	C	1.122852	-0.312213	-0.027008
C74	C	1.122847	-0.356459	-0.027007
C75	C	0.887330	-0.302253	0.027189
C76	C	0.887336	-0.258006	0.027185
C77	C	1.005100	-0.262988	0.000089
C78	C	0.887419	0.237537	0.027148
C79	C	0.887436	0.281782	0.027139
C80	C	1.122953	0.227572	-0.027055
C81	C	1.122936	0.183331	-0.027048
C82	C	1.005159	0.188317	0.000057
O83	O	1.222996	0.090303	-0.050079
O84	O	0.787256	0.190559	0.050210
C85	C	0.887370	-0.032351	0.027177
C86	C	1.005120	-0.081573	0.000085
C87	C	1.122876	-0.086552	-0.027013
C88	C	1.005115	-0.125819	0.000086
C89	C	0.887358	-0.120840	0.027184
C90	C	0.769607	-0.071615	0.054280
C91	C	0.769614	-0.027372	0.054275
C92	C	1.240627	-0.135777	-0.054109
C93	C	1.240611	-0.180018	-0.054102
C94	C	1.122855	-0.175039	-0.027005
C95	C	1.306653	0.462665	0.000067
C96	C	1.408984	0.462666	0.000068
C97	C	1.005103	0.462660	-0.138680
C98	C	1.005091	0.462659	-0.185769
C99	C	1.005103	0.601425	0.000084
C100	C	1.005091	0.648520	0.000091
C101	C	1.122906	0.435571	-0.504900
C102	C	1.122929	0.435572	-0.681896
O103	O	1.223073	0.412547	-0.727826
N104	N	1.005177	0.462666	-0.676930
C105	C	0.887412	0.489765	-0.627710
O106	O	0.787257	0.512814	-0.627548
C107	C	0.887390	0.489767	-0.450716
C108	C	1.005150	0.462666	-0.455686
C109	C	1.240656	0.408473	-0.509868
C110	C	1.240649	0.408471	-0.465621
C111	C	1.122892	0.435567	-0.416407
C112	C	1.005143	0.462664	-0.411439
C113	C	0.769626	0.516868	-0.401498
C114	C	0.769632	0.516868	-0.357249
C115	C	0.887391	0.489767	-0.362219
C116	C	0.887380	0.489758	-0.317979
N117	N	1.005131	0.462663	-0.322945
C118	C	1.122887	0.435568	-0.372159
C119	C	0.887431	0.489761	-0.720637
C120	C	0.887436	0.489760	-0.764885
C121	C	1.122953	0.435567	-0.819067
C122	C	1.122947	0.435566	-0.774818
C123	C	1.005182	0.462667	-0.725603
C124	C	1.122864	0.435565	-0.279236
C125	C	1.122847	0.435563	-0.234983
C126	C	0.887330	0.489758	-0.180805
C127	C	0.887347	0.489757	-0.225054
C128	C	1.005124	0.462660	-0.274271
O129	O	0.787287	0.512775	-0.272033
O130	O	1.223027	0.412531	-0.372310
C131	C	1.122913	0.435573	-0.549147
C132	C	1.005163	0.462671	-0.544179
C133	C	0.887407	0.489766	-0.494965
C134	C	1.005168	0.462670	-0.588427
C135	C	1.122925	0.435574	-0.637641
C136	C	1.240676	0.408480	-0.642607
C137	C	1.240669	0.408478	-0.598361
C138	C	0.769655	0.516861	-0.489999
C139	C	0.769672	0.516860	-0.534248
C140	C	0.887428	0.489765	-0.583462
C141	C	1.005179	0.462663	0.138812
C142	C	1.005192	0.462664	0.185901
C143	C	0.703592	0.601421	0.000083
C144	C	0.601248	0.648515	0.000089
C145	C	0.703668	0.462660	0.138810
C146	C	0.601350	0.462659	0.185899
C147	C	0.703630	0.601423	0.138829
C148	C	0.601299	0.648518	0.185924
C149	C	1.306653	0.323900	-0.138697
C150	C	1.408984	0.276805	-0.185792
C151	C	1.306691	0.323902	0.000049
C152	C	1.409035	0.276808	0.000043
C153	C	1.306615	0.462663	-0.138679
C154	C	1.408933	0.462664	-0.185767
C155	C	0.553187	0.643534	-0.027009
C156	C	0.457038	0.687780	-0.027014
C157	C	0.408945	0.737005	0.000083
C158	C	0.457016	0.741985	0.027182
C159	C	0.553170	0.697740	0.027183
C160	C	0.553301	0.489756	0.235114
C161	C	0.457176	0.489753	0.279363
C162	C	0.409096	0.462657	0.274396
C163	C	0.457155	0.435557	0.225176
C164	C	0.553284	0.435557	0.180928
C165	C	0.553229	0.697734	0.180951
C166	C	0.457092	0.741989	0.225197
C167	C	0.409021	0.737026	0.274416
C168	C	0.457101	0.687804	0.279388
C169	C	0.553242	0.643550	0.235142
C170	C	1.457066	0.227589	-0.180819
C171	C	1.553232	0.183334	-0.225065
C172	C	1.601309	0.188297	-0.274284
C173	C	1.553223	0.237519	-0.279256
C174	C	1.457064	0.281773	-0.235010
C175	C	1.457106	0.281789	0.027137
C176	C	1.553282	0.237543	0.027129
C177	C	1.601377	0.188318	0.000031
C178	C	1.553302	0.183338	-0.027066
C179	C	1.457135	0.227583	-0.027062
C180	C	1.456982	0.489765	-0.180784
C181	C	1.553108	0.489776	-0.225025
C182	C	1.601188	0.462682	-0.274248
C183	C	1.553129	0.435579	-0.279230
C184	C	1.456999	0.435572	-0.234990
H185	H	0.846116	0.386002	-0.076575
H186	H	0.330650	0.773028	0.000078
F187	F	1.604388	0.130954	-0.219763
H188	H	1.417888	0.413500	-0.239055
F189	F	0.405970	0.406722	0.219899
F190	F	0.537120	0.539299	0.076698
H191	H	0.592394	0.413494	0.140857
H192	H	1.218745	0.413493	-0.239036
F193	F	0.644327	0.545703	-0.528950
H194	H	0.909944	0.316484	-0.146093
F195	F	1.248182	-0.408844	-0.055851
F196	F	0.405935	0.794369	0.219895
F197	F	0.405817	0.794379	0.056020
F198	F	0.306696	0.784129	0.321503
F199	F	1.248216	0.406725	-0.331611
F200	F	1.405828	0.518605	-0.128401
H201	H	0.497212	0.386021	-0.076573
H202	H	0.735493	0.316488	-0.146092
H203	H	1.679607	0.152259	-0.310308
H204	H	0.592369	0.603478	0.239199
H205	H	0.592355	0.701785	0.140878
F206	F	0.265983	0.618426	0.155804
F207	F	0.405926	0.682530	0.331775
H208	H	1.592379	0.241554	-0.319336
F209	F	0.762067	0.242851	0.055996
H210	H	0.164172	0.539317	0.076704
F211	F	0.067496	0.618428	0.155804
H212	H	0.791446	-0.217928	0.049252
F213	F	0.762095	0.334171	0.055976
F214	F	1.604244	0.518620	-0.219711
H215	H	1.417927	0.223538	-0.140747
H216	H	0.673742	0.145436	0.076320
H217	H	0.791527	0.511831	-0.680565
F218	F	1.405976	0.222273	-0.055897
H219	H	0.673731	0.065178	0.076334
H220	H	0.418058	0.511823	0.319435
H221	H	1.417917	0.321846	-0.239066
H222	H	0.592290	0.701803	0.049253
H223	H	0.330821	0.462662	0.310430
H224	H	1.417954	0.321867	0.049207
H225	H	1.592409	0.241608	0.049197
H226	H	0.417910	0.683715	-0.049082
F227	F	1.604321	0.406742	-0.331621
F228	F	0.762004	-0.296961	0.056028
F229	F	1.248271	0.222283	-0.055887
H230	H	1.336541	0.386406	-0.469675
F231	F	1.248202	-0.317524	-0.055850
H232	H	1.679683	0.152295	0.000031
F233	F	1.604499	0.130944	-0.055903
H234	H	1.679464	0.462691	-0.310267
H235	H	1.336552	0.386409	-0.549938
H236	H	0.592437	0.511821	0.239167
F237	F	1.365994	-0.099671	-0.082949
H238	H	1.336552	-0.007100	-0.076171
H239	H	1.218825	0.143249	-0.049117
H240	H	0.673725	-0.067568	0.076341
F241	F	1.365956	-0.232406	-0.082944
F242	F	0.644277	0.025013	0.083113
H243	H	1.218837	0.413498	-0.778870
F244	F	1.365967	-0.141085	-0.082951
H245	H	1.218835	0.413503	-0.859146
H246	H	0.791545	0.511821	-0.760832
H247	H	0.673731	0.538937	-0.317176
F248	F	0.644289	0.545713	-0.396197
F249	F	0.762015	0.518595	-0.219764
H250	H	0.791456	0.511817	-0.140727
H251	H	1.336561	0.386410	-0.602414
H252	H	0.673762	0.538927	-0.449929
F253	F	1.366001	0.379640	-0.694992
H254	H	0.592343	0.603456	-0.049081
