data_functionalizedCrystal
_audit_creation_method	'MofGen! by Chris Wilmer'
_symmetry_space_group_name_H-M	'P1'
_symmetry_Int_Tables_number	1
_symmetry_cell_setting	triclinic
loop_
_symmetry_equiv_pos_as_xyz
  x,y,z
_cell_length_a	19.077105
_cell_length_b	15.299816
_cell_length_c	19.076919
_cell_angle_alpha	77.689900
_cell_angle_beta	89.923776
_cell_angle_gamma	78.483666
loop_
_atom_site_label
_atom_site_type_symbol
_atom_site_fract_x
_atom_site_fract_y
_atom_site_fract_z
Zn1	Zn	1.115517	-0.442478	0.502525
Zn2	Zn	1.448850	-0.109145	0.835859
Zn3	Zn	1.782183	0.224188	1.169192
Zn4	Zn	1.139183	-0.589537	0.405660
Zn5	Zn	1.472516	-0.256204	0.738994
Zn6	Zn	1.805849	0.077129	1.072327
Zn7	Zn	1.001149	-0.430226	0.378599
Zn8	Zn	1.334483	-0.096893	0.711932
Zn9	Zn	1.667816	0.236441	1.045266
Zn10	Zn	1.016933	-0.588986	0.518335
Zn11	Zn	1.350266	-0.255653	0.851669
Zn12	Zn	1.683600	0.077681	1.185002
O13	O	1.068195	-0.512807	0.451280
O14	O	1.401529	-0.179474	0.784613
O15	O	1.734862	0.153860	1.117947
O16	O	1.217681	-0.467345	0.494385
O17	O	1.551014	-0.134011	0.827718
O18	O	1.884348	0.199322	1.161051
O19	O	1.124171	-0.563508	0.303052
O20	O	1.457504	-0.230174	0.636385
O21	O	1.790838	0.103159	0.969719
O22	O	0.999811	-0.303865	0.377096
O23	O	1.333144	0.029468	0.710430
O24	O	1.666477	0.362802	1.043763
O25	O	1.235068	-0.575388	0.423218
O26	O	1.568402	-0.242055	0.756552
O27	O	1.901735	0.091278	1.089885
O28	O	1.083836	-0.312867	0.468145
O29	O	1.417169	0.020466	0.801478
O30	O	1.750503	0.353800	1.134811
O31	O	1.022758	-0.446462	0.283170
O32	O	1.356092	-0.113129	0.616503
O33	O	1.689425	0.220204	0.949837
O34	O	0.904218	-0.445927	0.392427
O35	O	1.237551	-0.112594	0.725760
O36	O	1.570885	0.220739	1.059093
O37	O	1.026712	-0.574448	0.615257
O38	O	1.360045	-0.241115	0.948590
O39	O	1.693378	0.092218	1.281923
O40	O	0.915814	-0.562568	0.495090
O41	O	1.249147	-0.229234	0.828424
O42	O	1.582481	0.104099	1.161757
O43	O	1.099141	-0.466810	0.603641
O44	O	1.432474	-0.133476	0.936975
O45	O	1.765807	0.199857	1.270308
O46	O	1.139476	-0.717451	0.438549
O47	O	1.472809	-0.384117	0.771882
O48	O	1.806142	-0.050784	1.105215
O49	O	1.049659	-0.717045	0.521331
O50	O	1.382993	-0.383712	0.854664
O51	O	1.716326	-0.050379	1.187997
C52	C	0.884340	-0.502859	0.442538
C53	C	1.217673	-0.169525	0.775871
C54	C	1.551007	0.163808	1.109205
C55	C	0.805688	-0.498626	0.438818
C56	C	1.139022	-0.165292	0.772152
C57	C	1.472355	0.168041	1.105485
C58	C	1.098867	-0.750435	0.484608
C59	C	1.432200	-0.417102	0.817941
C60	C	1.765534	-0.083768	1.151275
C61	C	1.112052	-0.852098	0.498893
C62	C	1.445386	-0.518765	0.832226
C63	C	1.778719	-0.185431	1.165559
C64	C	0.774807	-0.557450	0.490463
C65	C	1.108140	-0.224117	0.823797
C66	C	1.441474	0.109217	1.157130
C67	C	0.700904	-0.553461	0.486970
C68	C	1.034237	-0.220127	0.820303
C69	C	1.367570	0.113206	1.153636
C70	C	0.657883	-0.490651	0.431828
C71	C	0.991217	-0.157318	0.765161
C72	C	1.324550	0.176016	1.098494
C73	C	0.688769	-0.431820	0.380180
C74	C	1.022102	-0.098487	0.713513
C75	C	1.355436	0.234846	1.046846
C76	C	0.762670	-0.435806	0.383677
C77	C	1.096004	-0.102473	0.717010
C78	C	1.429337	0.230861	1.050344
C79	C	0.436210	-0.472206	0.415646
C80	C	0.769543	-0.138873	0.748979
C81	C	1.102876	0.194461	1.082313
C82	C	0.362304	-0.468227	0.412151
C83	C	0.695637	-0.134893	0.745485
C84	C	1.028971	0.198440	1.078818
C85	C	0.374444	-0.589866	0.518943
C86	C	0.707777	-0.256533	0.852276
C87	C	1.041110	0.076800	1.185609
C88	C	0.448347	-0.593850	0.522432
C89	C	0.781680	-0.260517	0.855766
C90	C	1.115013	0.072817	1.189099
C91	C	0.479225	-0.535016	0.470787
C92	C	0.812558	-0.201683	0.804120
C93	C	1.145892	0.131650	1.137454
N94	N	0.582342	-0.486574	0.428254
N95	N	0.915676	-0.153240	0.761587
N96	N	1.249009	0.180093	1.094921
N97	N	0.554764	-0.539090	0.474364
N98	N	0.888097	-0.205756	0.807697
N99	N	1.221431	0.127577	1.141031
C100	C	0.974413	-1.120225	0.349448
C101	C	1.307747	-0.786892	0.682781
C102	C	1.641080	-0.453559	1.016115
C103	C	0.962021	-1.024708	0.336029
C104	C	1.295355	-0.691375	0.669362
C105	C	1.628688	-0.358041	1.002695
C106	C	0.999528	-0.981551	0.376743
C107	C	1.332861	-0.648217	0.710076
C108	C	1.666195	-0.314884	1.043410
C109	C	1.049429	-1.033921	0.430880
C110	C	1.382762	-0.700587	0.764213
C111	C	1.716096	-0.367254	1.097547
C112	C	1.061818	-1.129447	0.444305
C113	C	1.395151	-0.796114	0.777638
C114	C	1.728485	-0.462781	1.110971
C115	C	1.086933	-0.990773	0.471600
C116	C	1.420266	-0.657439	0.804933
C117	C	1.753599	-0.324106	1.138267
C118	C	1.136834	-1.043143	0.525737
C119	C	1.470167	-0.709809	0.859070
C120	C	1.803500	-0.376476	1.192404
C121	C	1.149221	-1.138660	0.539159
C122	C	1.482554	-0.805327	0.872492
C123	C	1.815887	-0.471993	1.205825
C124	C	1.111714	-1.181817	0.498444
C125	C	1.445047	-0.848484	0.831777
C126	C	1.778381	-0.515150	1.165111
C127	C	1.074544	-0.895246	0.458175
C128	C	1.407877	-0.561912	0.791509
C129	C	1.741210	-0.228579	1.124842
C130	C	1.161948	-0.904468	0.553032
C131	C	1.495282	-0.571134	0.886365
C132	C	1.828615	-0.237801	1.219699
C133	C	1.174340	-0.999985	0.566451
C134	C	1.507674	-0.666652	0.899785
C135	C	1.841007	-0.333319	1.233118
C136	C	1.252769	-0.522795	0.460057
C137	C	1.586102	-0.189461	0.793390
C138	C	1.919435	0.143872	1.126723
C139	C	1.331423	-0.527051	0.463797
C140	C	1.664756	-0.193718	0.797130
C141	C	1.998089	0.139616	1.130463
C142	C	1.062047	-0.521934	0.635841
C143	C	1.395380	-0.188601	0.969175
C144	C	1.728713	0.144732	1.302508
C145	C	1.059427	-0.525824	0.714490
C146	C	1.392760	-0.192490	1.047824
C147	C	1.726093	0.140843	1.381157
C148	C	1.037423	-0.274253	0.417838
C149	C	1.370756	0.059081	0.751172
C150	C	1.704089	0.392414	1.084505
C151	C	1.024309	-0.172595	0.403587
C152	C	1.357643	0.160738	0.736921
C153	C	1.690976	0.494072	1.070254
C154	C	1.074352	-0.503651	0.267429
C155	C	1.407686	-0.170318	0.600763
C156	C	1.741019	0.163015	0.934096
C157	C	1.077076	-0.499512	0.188751
C158	C	1.410410	-0.166178	0.522084
C159	C	1.743743	0.167155	0.855418
C160	C	1.095904	-0.471612	0.745394
C161	C	1.429237	-0.138279	1.078727
C162	C	1.762570	0.195055	1.412060
C163	C	1.093433	-0.475263	0.819292
C164	C	1.426766	-0.141929	1.152625
C165	C	1.760099	0.191404	1.485959
C166	C	1.054488	-0.533130	0.862286
C167	C	1.387822	-0.199797	1.195620
C168	C	1.721155	0.133536	1.528953
C169	C	1.018007	-0.587344	0.831378
C170	C	1.351340	-0.254011	1.164711
C171	C	1.684674	0.079323	1.498045
C172	C	1.020474	-0.583688	0.757480
C173	C	1.353807	-0.250355	1.090814
C174	C	1.687141	0.082979	1.424147
C175	C	1.043062	-0.550069	1.083945
C176	C	1.376395	-0.216736	1.417278
C177	C	1.709729	0.116597	1.750612
C178	C	1.040599	-0.553723	1.157848
C179	C	1.373933	-0.220390	1.491181
C180	C	1.707266	0.112943	1.824515
C181	C	1.116024	-0.441640	1.145756
C182	C	1.449357	-0.108307	1.479090
C183	C	1.782691	0.225026	1.812423
C184	C	1.118491	-0.437993	1.071858
C185	C	1.451825	-0.104660	1.405192
C186	C	1.785158	0.228673	1.738525
C187	C	1.082007	-0.492203	1.040956
C188	C	1.415340	-0.158870	1.374289
C189	C	1.748674	0.174463	1.707623
N190	N	1.051964	-0.536865	0.937823
N191	N	1.385297	-0.203532	1.271156
N192	N	1.718630	0.129801	1.604489
N193	N	1.084528	-0.488463	0.965420
N194	N	1.417861	-0.155130	1.298753
N195	N	1.751195	0.178204	1.632087
H196	H	0.809830	-0.608599	0.535364
H197	H	1.143164	-0.275266	0.868698
H198	H	1.476497	0.058067	1.202031
F199	F	0.469063	-0.409587	0.360681
F200	F	0.802397	-0.076254	0.694014
F201	F	1.135730	0.257080	1.027348
H202	H	1.192488	-0.869330	0.586187
H203	H	1.525822	-0.535997	0.919520
H204	H	1.859155	-0.202664	1.252853
F205	F	0.795535	-0.373195	0.328710
F206	F	1.128869	-0.039862	0.662043
F207	F	1.462202	0.293471	0.995377
F208	F	1.021438	-0.839521	0.400560
F209	F	1.354771	-0.506187	0.733893
F210	F	1.688104	-0.172854	1.067227
H211	H	0.989436	-0.903776	0.365813
H212	H	1.322770	-0.570442	0.699146
H213	H	1.656103	-0.237109	1.032480
H214	H	0.653735	-0.380676	0.335284
H215	H	0.987069	-0.047342	0.668618
H216	H	1.320402	0.285991	1.001951
F217	F	0.908909	-0.968979	0.278420
F218	F	1.242242	-0.635646	0.611754
F219	F	1.575576	-0.302312	0.945087
H220	H	1.150206	-0.390874	1.036857
H221	H	1.483540	-0.057541	1.370190
H222	H	1.816873	0.275793	1.703524
F223	F	0.934493	-1.166162	0.306132
F224	F	1.267826	-0.832829	0.639465
F225	F	1.601159	-0.499495	0.972799
H226	H	1.121803	-1.259595	0.509365
H227	H	1.455137	-0.926262	0.842698
H228	H	1.788470	-0.592928	1.176032
H229	H	1.189850	-1.181297	0.583243
H230	H	1.523184	-0.847964	0.916577
H231	H	1.856517	-0.514631	1.249910
H232	H	1.214970	-1.042638	0.610531
H233	H	1.548303	-0.709305	0.943864
H234	H	1.881636	-0.375972	1.277197
H235	H	0.675764	-0.601363	0.529024
H236	H	1.009098	-0.268029	0.862358
H237	H	1.342431	0.065304	1.195691
F238	F	0.494127	-0.660703	0.581121
F239	F	0.827461	-0.327369	0.914454
F240	F	1.160794	0.005964	1.247788
H241	H	0.349294	-0.637764	0.560990
H242	H	0.682627	-0.304431	0.894324
H243	H	1.015961	0.028903	1.227657
F244	F	1.137358	-0.410025	0.699643
F245	F	1.470691	-0.076692	1.032976
F246	F	1.804025	0.256641	1.366309
H247	H	1.123138	-0.431120	0.844450
H248	H	1.456471	-0.097787	1.177783
H249	H	1.789805	0.235547	1.511117
F250	F	0.316520	-0.401378	0.353455
F251	F	0.649853	-0.068045	0.686789
F252	F	0.983187	0.265288	1.020122
H253	H	1.145727	-0.397504	1.170925
H254	H	1.479060	-0.064171	1.504259
H255	H	1.812393	0.269162	1.837592
H256	H	1.008884	-0.600848	1.192853
H257	H	1.342218	-0.267515	1.526186
H258	H	1.675551	0.065818	1.859520
F259	F	1.004232	-0.607765	1.051066
F260	F	1.337565	-0.274432	1.384399
F261	F	1.670898	0.058901	1.717732
H262	H	0.986295	-0.634458	0.866390
H263	H	1.319628	-0.301125	1.199723
H264	H	1.652961	0.032209	1.533056
F265	F	0.981648	-0.641385	0.724591
F266	F	1.314982	-0.308052	1.057924
F267	F	1.648315	0.025281	1.391258
