data_functionalizedCrystal
_audit_creation_method	'MofGen! by Chris Wilmer'
_symmetry_space_group_name_H-M	'P1'
_symmetry_Int_Tables_number	1
_symmetry_cell_setting	triclinic
loop_
_symmetry_equiv_pos_as_xyz
  x,y,z
_cell_length_a	12.594517
_cell_length_b	12.594516
_cell_length_c	13.897441
_cell_angle_alpha	89.973623
_cell_angle_beta	89.984820
_cell_angle_gamma	90.016010
loop_
_atom_site_label
_atom_site_type_symbol
_atom_site_fract_x
_atom_site_fract_y
_atom_site_fract_z
Zn1	Zn	1.627276	-0.423709	-0.545267
Zn2	Zn	2.127276	0.076291	-0.045267
Zn3	Zn	1.627164	-0.601720	-0.383980
Zn4	Zn	2.127164	-0.101720	0.116020
Zn5	Zn	1.449277	-0.423756	-0.384001
Zn6	Zn	1.949277	0.076244	0.115999
Zn7	Zn	1.449262	-0.601646	-0.545248
Zn8	Zn	1.949262	-0.101646	-0.045248
O9	O	1.538245	-0.512708	-0.464624
O10	O	2.038245	-0.012708	0.035376
O11	O	1.776207	-0.447334	-0.523871
O12	O	2.276207	0.052666	-0.023871
O13	O	1.603527	-0.578163	-0.249001
O14	O	2.103527	-0.078163	0.250999
O15	O	1.472942	-0.274804	-0.405409
O16	O	1.972942	0.225196	0.094591
O17	O	1.776125	-0.578118	-0.405374
O18	O	2.276125	-0.078118	0.094626
O19	O	1.603717	-0.274770	-0.523891
O20	O	2.103717	0.225230	-0.023891
O21	O	1.472834	-0.447414	-0.249016
O22	O	1.972834	0.052586	0.250984
O23	O	1.300329	-0.447342	-0.405391
O24	O	1.800329	0.052658	0.094609
O25	O	1.472917	-0.577992	-0.680232
O26	O	1.972917	-0.077992	-0.180232
O27	O	1.300318	-0.578037	-0.523859
O28	O	1.800318	-0.078037	-0.023859
O29	O	1.603703	-0.447263	-0.680246
O30	O	2.103703	0.052737	-0.180246
O31	O	1.603512	-0.750656	-0.405356
O32	O	2.103512	-0.250656	0.094644
O33	O	1.472808	-0.750602	-0.523839
O34	O	1.972808	-0.250602	-0.023839
C35	C	1.261704	-0.512687	-0.464626
C36	C	1.761704	-0.012687	0.035374
C37	C	1.143399	-0.512704	-0.464650
C38	C	1.643399	-0.012704	0.035350
C39	C	1.003407	-0.583918	-0.528965
C40	C	1.503407	-0.083918	-0.028965
C41	C	1.074176	-0.609826	-0.440932
C42	C	1.574176	-0.109826	0.059068
C43	C	1.074201	-0.486844	-0.552673
C44	C	1.574201	0.013156	-0.052673
C45	C	1.003382	-0.538697	-0.376541
C46	C	1.503382	-0.038697	0.123459
C47	C	1.003401	-0.415669	-0.488342
C48	C	1.503401	0.084331	0.011658
C49	C	1.074138	-0.441540	-0.400248
C50	C	1.574138	0.058460	0.099752
C51	C	1.538175	-0.789249	-0.464614
C52	C	2.038175	-0.289249	0.035386
C53	C	1.538243	-0.907554	-0.464643
C54	C	2.038243	-0.407554	0.035357
C55	C	1.467146	-0.976817	-0.529040
C56	C	1.967146	-0.476817	-0.029040
C57	C	1.441211	-1.047682	-0.441026
C58	C	1.941211	-0.547682	0.058974
C59	C	1.564275	-1.047488	-0.552672
C60	C	2.064275	-0.547488	-0.052672
C61	C	1.512257	-0.976862	-0.376581
C62	C	2.012257	-0.476862	0.123419
C63	C	1.635365	-0.976661	-0.488287
C64	C	2.135365	-0.476661	0.011713
C65	C	1.609467	-1.047495	-0.400212
C66	C	2.109467	-0.547495	0.099788
C67	C	1.815866	-0.512729	-0.464622
C68	C	2.315866	-0.012729	0.035378
C69	C	1.934171	-0.512739	-0.464621
C70	C	2.434171	-0.012739	0.035379
C71	C	1.538320	-0.512614	-0.716217
C72	C	2.038320	-0.012614	-0.216217
C73	C	1.538353	-0.512574	-0.823431
C74	C	2.038353	-0.012574	-0.323431
C75	C	1.538344	-0.235087	-0.464654
C76	C	2.038344	0.264913	0.035346
C77	C	1.538386	-0.116782	-0.464667
C78	C	2.038386	0.383218	0.035333
C79	C	1.538381	-0.512502	-1.019726
C80	C	2.038381	-0.012502	-0.519726
C81	C	1.538362	-0.512545	-0.910494
C82	C	2.038362	-0.012545	-0.410494
C83	C	1.538231	-0.512725	-0.214009
C84	C	2.038231	-0.012725	0.285991
C85	C	1.538405	-0.512465	-0.106796
C86	C	2.038405	-0.012465	0.393204
H87	H	1.104999	-0.381331	-0.345784
H88	H	1.604999	0.118669	0.154216
N89	N	0.962256	-0.663732	-0.600927
N90	N	1.462256	-0.163732	-0.100927
H91	H	0.882070	-0.662703	-0.600840
H92	H	1.382070	-0.162703	-0.100840
H93	H	0.989197	-0.644896	-0.667229
H94	H	1.489197	-0.144896	-0.167229
N95	N	1.689190	-1.088346	-0.328009
N96	N	2.189190	-0.588346	0.171991
H97	H	1.651702	-1.133578	-0.278504
H98	H	2.151702	-0.633578	0.221496
H99	H	1.744522	-1.132378	-0.362259
H100	H	2.244522	-0.632378	0.137741
N101	N	1.115350	-0.718539	-0.414349
N102	N	1.615350	-0.218539	0.085651
H103	H	1.089625	-0.772273	-0.462977
H104	H	1.589625	-0.272273	0.037023
H105	H	1.195532	-0.717457	-0.413924
H106	H	1.695532	-0.217457	0.086076
H107	H	0.972405	-0.560684	-0.302068
H108	H	1.472405	-0.060684	0.197932
N109	N	1.744049	-0.935309	-0.514805
N110	N	2.244049	-0.435309	-0.014805
H111	H	1.738625	-0.890004	-0.574586
H112	H	2.238625	-0.390004	-0.074586
H113	H	1.772988	-0.891243	-0.460065
H114	H	2.272988	-0.391243	0.039935
N115	N	1.332503	-1.089018	-0.414544
N116	N	1.832503	-0.589018	0.085456
H117	H	1.337657	-1.133178	-0.354045
H118	H	1.837657	-0.633178	0.145955
H119	H	1.282962	-1.027238	-0.403176
H120	H	1.782962	-0.527238	0.096824
N121	N	1.593371	-1.088579	-0.651268
N122	N	2.093371	-0.588579	-0.151268
H123	H	1.660173	-1.132645	-0.646729
H124	H	2.160173	-0.632645	-0.146729
H125	H	1.533518	-1.133829	-0.676901
H126	H	2.033518	-0.633829	-0.176901
N127	N	0.962219	-0.306965	-0.514922
N128	N	1.462219	0.193035	-0.014922
H129	H	0.987945	-0.287474	-0.581467
H130	H	1.487945	0.212526	-0.081467
H131	H	0.882037	-0.307661	-0.514037
H132	H	1.382037	0.192339	-0.014037
H133	H	1.105309	-0.464956	-0.627126
H134	H	1.605309	0.035044	-0.127126
H135	H	1.490202	-0.945967	-0.302125
H136	H	1.990202	-0.445967	0.197875
N137	N	1.387373	-0.935702	-0.601077
N138	N	1.887373	-0.435702	-0.101077
H139	H	1.314080	-0.961542	-0.583095
H140	H	1.814080	-0.461542	-0.083095
H141	H	1.388451	-0.855519	-0.600964
H142	H	1.888451	-0.355519	-0.100964
