data_functionalizedCrystal
_audit_creation_method	'MofGen! by Chris Wilmer'
_symmetry_space_group_name_H-M	'P1'
_symmetry_Int_Tables_number	1
_symmetry_cell_setting	triclinic
loop_
_symmetry_equiv_pos_as_xyz
  x,y,z
_cell_length_a	17.077404
_cell_length_b	16.625545
_cell_length_c	17.077396
_cell_angle_alpha	90.028053
_cell_angle_beta	89.980499
_cell_angle_gamma	89.975738
loop_
_atom_site_label
_atom_site_type_symbol
_atom_site_fract_x
_atom_site_fract_y
_atom_site_fract_z
Zn1	Zn	1.200048	0.320997	-0.443845
Zn2	Zn	1.700048	0.820997	0.056155
Zn3	Zn	1.199953	0.455839	-0.312580
Zn4	Zn	1.699953	0.955839	0.187420
Zn5	Zn	1.068780	0.321025	-0.312593
Zn6	Zn	1.568780	0.821025	0.187407
Zn7	Zn	1.068746	0.455792	-0.443804
Zn8	Zn	1.568746	0.955792	0.056196
O9	O	1.134382	0.388413	-0.378205
O10	O	1.634382	0.888413	0.121795
O11	O	1.309883	0.338892	-0.426444
O12	O	1.809883	0.838892	0.073556
O13	O	1.182527	0.437988	-0.202735
O14	O	1.682527	0.937988	0.297265
O15	O	1.086248	0.208189	-0.330027
O16	O	1.586248	0.708189	0.169973
O17	O	1.309812	0.437960	-0.330005
O18	O	1.809812	0.937960	0.169995
O19	O	1.182690	0.208168	-0.426457
O20	O	1.682690	0.708168	0.073543
O21	O	1.086155	0.338940	-0.202744
O22	O	1.586155	0.838940	0.297256
O23	O	0.958929	0.338894	-0.329986
O24	O	1.458929	0.838894	0.170014
O25	O	1.086189	0.437879	-0.553656
O26	O	1.586189	0.937879	-0.053656
O27	O	0.958903	0.437906	-0.426386
O28	O	1.458903	0.937906	0.073614
O29	O	1.182656	0.338846	-0.553687
O30	O	1.682656	0.838846	-0.053687
O31	O	1.182493	0.568666	-0.329964
O32	O	1.682493	1.068666	0.170036
O33	O	1.086096	0.568630	-0.426374
O34	O	1.586096	1.068630	0.073626
C35	C	0.930434	0.388399	-0.378184
C36	C	1.430434	0.888399	0.121816
C37	C	0.843184	0.388412	-0.378193
C38	C	1.343184	0.888412	0.121807
C39	C	0.802201	0.440045	-0.428308
C40	C	1.302201	0.940045	0.071692
C41	C	0.720221	0.440047	-0.428321
C42	C	1.220221	0.940047	0.071679
C43	C	0.679225	0.388419	-0.378214
C44	C	1.179225	0.888419	0.121786
C45	C	0.720213	0.336780	-0.328097
C46	C	1.220213	0.836780	0.171903
C47	C	0.802192	0.336774	-0.328089
C48	C	1.302192	0.836774	0.171911
C49	C	0.549343	0.336795	-0.328115
C50	C	1.049343	0.836795	0.171885
C51	C	0.467359	0.336801	-0.328122
C52	C	0.967359	0.836801	0.171878
C53	C	0.467372	0.440068	-0.428347
C54	C	0.967372	0.940068	0.071653
C55	C	0.549351	0.440063	-0.428339
C56	C	1.049351	0.940063	0.071661
C57	C	0.590334	0.388425	-0.378221
C58	C	1.090334	0.888425	0.121779
C59	C	1.134302	0.597904	-0.378180
C60	C	1.634302	1.097904	0.121820
C61	C	1.134339	0.687525	-0.378196
C62	C	1.634339	1.187525	0.121804
C63	C	1.134468	1.015701	-0.378290
C64	C	1.634468	1.515701	0.121710
C65	C	1.134429	0.924392	-0.378266
C66	C	1.634429	1.424392	0.121734
C67	C	1.134403	0.851616	-0.378242
C68	C	1.634403	1.351616	0.121758
C69	C	1.134366	0.760302	-0.378219
C70	C	1.634366	1.260302	0.121781
C71	C	1.339126	0.388428	-0.378228
C72	C	1.839126	0.888428	0.121772
C73	C	1.426376	0.388435	-0.378237
C74	C	1.926376	0.888435	0.121763
C75	C	1.134429	0.388354	-0.582950
C76	C	1.634429	0.888354	-0.082950
C77	C	1.134449	0.388329	-0.670200
C78	C	1.634449	0.888329	-0.170200
C79	C	1.134477	1.178104	-0.378257
C80	C	1.634477	1.678104	0.121743
C81	C	1.134500	1.088483	-0.378303
C82	C	1.634500	1.588483	0.121697
C83	C	1.184682	0.336758	-0.711207
C84	C	1.684682	0.836758	-0.211207
C85	C	1.184691	0.336731	-0.793187
C86	C	1.684691	0.836731	-0.293187
C87	C	1.134472	0.388280	-0.834159
C88	C	1.634472	0.888280	-0.334159
C89	C	1.084234	0.439853	-0.793146
C90	C	1.584234	0.939853	-0.293146
C91	C	1.084221	0.439875	-0.711167
C92	C	1.584221	0.939875	-0.211167
C93	C	1.084265	0.439804	-0.964016
C94	C	1.584265	0.939804	-0.464016
C95	C	1.084279	0.439783	-1.046001
C96	C	1.584279	0.939783	-0.546001
C97	C	1.184736	0.336660	-1.046037
C98	C	1.684736	0.836660	-0.546037
C99	C	1.184723	0.336682	-0.964058
C100	C	1.684723	0.836682	-0.464058
C101	C	1.134486	0.388257	-0.923050
C102	C	1.634486	0.888257	-0.423050
C103	C	1.134380	0.388414	-0.174258
C104	C	1.634380	0.888414	0.325742
C105	C	1.134511	0.388212	-0.087008
C106	C	1.634511	0.888212	0.412992
H107	H	0.433982	0.294752	-0.287330
H108	H	0.933982	0.794752	0.212670
O109	O	0.842039	0.286534	-0.279516
O110	O	1.342039	0.786534	0.220484
C111	C	0.889511	0.234523	-0.324290
C112	C	1.389511	0.734523	0.175710
H113	H	0.864835	0.229626	-0.386126
H114	H	1.364835	0.729626	0.113874
H115	H	0.890448	0.172434	-0.296005
H116	H	1.390448	0.672434	0.203995
H117	H	0.951634	0.259451	-0.326944
H118	H	1.451634	0.759451	0.173056
H119	H	0.686856	0.482093	-0.469128
H120	H	1.186856	0.982093	0.030872
O121	O	1.233565	0.286612	-0.832900
O122	O	1.733565	0.786612	-0.332900
C123	C	1.277877	0.241110	-0.779159
C124	C	1.777877	0.741110	-0.279159
H125	H	1.280567	0.274154	-0.720715
H126	H	1.780567	0.774154	-0.220715
H127	H	1.339733	0.232512	-0.802858
H128	H	1.839733	0.732512	-0.302858
H129	H	1.249165	0.179870	-0.770446
H130	H	1.749165	0.679870	-0.270446
O131	O	1.233356	0.286640	-0.671326
O132	O	1.733356	0.786640	-0.171326
C133	C	1.188679	0.234559	-0.623926
C134	C	1.688679	0.734559	-0.123926
H135	H	1.129178	0.262999	-0.611624
H136	H	1.629178	0.762999	-0.111624
H137	H	1.220650	0.223765	-0.566288
H138	H	1.720650	0.723765	-0.066288
H139	H	1.180083	0.174799	-0.655535
H140	H	1.680083	0.674799	-0.155535
O141	O	0.841987	0.490112	-0.477096
O142	O	1.341987	0.990112	0.022904
C143	C	0.821979	0.472604	-0.555361
C144	C	1.321979	0.972604	-0.055361
H145	H	0.799468	0.408196	-0.559435
H146	H	1.299468	0.908196	-0.059435
H147	H	0.875905	0.479596	-0.594127
H148	H	1.375905	0.979596	-0.094127
H149	H	0.774386	0.515861	-0.575811
H150	H	1.274386	1.015861	-0.075811
O151	O	0.589139	0.490129	-0.477125
O152	O	1.089139	0.990129	0.022875
C153	C	0.569134	0.472626	-0.555392
C154	C	1.069134	0.972626	-0.055392
H155	H	0.546620	0.408219	-0.559469
H156	H	1.046620	0.908219	-0.059469
H157	H	0.623063	0.479616	-0.594154
H158	H	1.123063	0.979616	-0.094154
H159	H	0.521545	0.515886	-0.575843
H160	H	1.021545	1.015886	-0.075843
H161	H	0.582709	0.294739	-0.287311
H162	H	1.082709	0.794739	0.212689
H163	H	1.043384	0.481757	-1.079358
H164	H	1.543384	0.981757	-0.579358
O165	O	1.035519	0.490093	-0.671360
O166	O	1.535519	0.990093	-0.171360
C167	C	1.052632	0.570448	-0.691392
C168	C	1.552632	1.070448	-0.191392
H169	H	1.115341	0.574511	-0.713946
H170	H	1.615341	1.074511	-0.213946
H171	H	1.045854	0.610296	-0.637467
H172	H	1.545854	1.110296	-0.137467
H173	H	1.010541	0.591515	-0.738959
H174	H	1.510541	1.091515	-0.238959
H175	H	1.225621	0.294711	-0.930701
H176	H	1.725621	0.794711	-0.430701
H177	H	1.043344	0.481789	-0.930631
H178	H	1.543344	0.981789	-0.430631
O179	O	1.035337	0.489842	-0.832908
O180	O	1.535337	0.989842	-0.332908
C181	C	0.957107	0.472233	-0.812851
C182	C	1.457107	0.972233	-0.312851
H183	H	0.953171	0.407824	-0.790332
H184	H	1.453171	0.907824	-0.290332
H185	H	0.918332	0.479164	-0.866755
H186	H	1.418332	0.979164	-0.366755
H187	H	0.936560	0.515471	-0.765251
H188	H	1.436560	1.015471	-0.265251
H189	H	1.225640	0.294665	-1.079429
H190	H	1.725640	0.794665	-0.579429
O191	O	0.427444	0.490151	-0.477012
O192	O	0.927444	0.990151	0.022988
C193	C	0.346297	0.479098	-0.466267
C194	C	0.846297	0.979098	0.033733
H195	H	0.335110	0.416839	-0.440670
H196	H	0.835110	0.916839	0.059330
H197	H	0.315167	0.484648	-0.525060
H198	H	0.815167	0.984648	-0.025060
H199	H	0.322994	0.526869	-0.424384
H200	H	0.822994	1.026869	0.075616
H201	H	0.686828	0.294739	-0.287302
H202	H	1.186828	0.794739	0.212698
