data_functionalizedCrystal
_audit_creation_method	'MofGen! by Chris Wilmer'
_symmetry_space_group_name_H-M	'P1'
_symmetry_Int_Tables_number	1
_symmetry_cell_setting	triclinic
loop_
_symmetry_equiv_pos_as_xyz
  x,y,z
_cell_length_a	13.635800
_cell_length_b	13.212940
_cell_length_c	11.102291
_cell_angle_alpha	92.140974
_cell_angle_beta	108.605752
_cell_angle_gamma	73.700541
loop_
_atom_site_label
_atom_site_type_symbol
_atom_site_fract_x
_atom_site_fract_y
_atom_site_fract_z
V1	V	2.045063	-0.144466	0.379659
O2	O	2.035799	0.006929	0.389512
O3	O	2.022929	-0.286438	0.360635
O4	O	2.033619	-0.142250	0.552736
O5	O	2.025035	-0.138258	0.196081
V6	V	2.284956	-0.126357	0.359697
O7	O	2.179790	-0.184190	0.423447
O8	O	2.375327	-0.086633	0.315909
O9	O	2.195486	0.015616	0.378721
O10	O	2.352918	-0.277751	0.349844
O11	O	2.363682	-0.132564	0.543274
O12	O	2.184796	-0.128573	0.186620
V13	V	2.545063	-0.144466	0.379659
O14	O	2.535799	0.006929	0.389512
O15	O	2.522929	-0.286438	0.360635
O16	O	2.533619	-0.142250	0.552736
O17	O	2.525035	-0.138258	0.196081
V18	V	2.784956	-0.126357	0.359697
O19	O	2.679790	-0.184190	0.423447
O20	O	2.875327	-0.086633	0.315909
O21	O	2.695486	0.015616	0.378721
O22	O	2.852918	-0.277751	0.349844
O23	O	2.863682	-0.132564	0.543274
O24	O	2.684796	-0.128573	0.186620
C25	C	1.945520	-0.321048	0.350407
C26	C	1.968151	-0.437113	0.336006
C27	C	2.068629	-0.685041	0.538315
C28	C	2.089894	-0.794094	0.524791
C29	C	2.031942	-0.764276	0.295433
C30	C	2.010676	-0.655222	0.308958
C31	C	2.029023	-0.615609	0.430403
C32	C	2.007764	-0.506553	0.443927
C33	C	1.949805	-0.476736	0.214570
C34	C	1.971071	-0.585790	0.201045
C35	C	1.959155	-0.137120	0.595449
C36	C	1.990454	-0.136247	0.736832
C37	C	2.104567	0.050220	0.388945
C38	C	2.071555	0.166284	0.403353
C39	C	2.090931	-0.133706	0.143900
C40	C	2.049251	-0.134574	0.002516
C41	C	2.445520	-0.321048	0.350407
C42	C	2.468151	-0.437113	0.336006
C43	C	2.459155	-0.137120	0.595449
C44	C	2.490454	-0.136247	0.736832
C45	C	2.096776	-0.141044	0.809129
C46	C	2.126174	-0.140204	0.941972
C47	C	1.942919	-0.129773	0.930209
C48	C	1.913521	-0.130606	0.797368
C49	C	2.202579	-0.147071	0.815922
C50	C	2.231977	-0.146230	0.948764
C51	C	2.604567	0.050220	0.388945
C52	C	2.571555	0.166284	0.403353
C53	C	2.590931	-0.133706	0.143900
C54	C	2.549251	-0.134574	0.002516
C55	C	2.570402	-0.496942	0.334982
C56	C	2.591686	-0.606000	0.321470
C57	C	2.510715	-0.655226	0.308974
C58	C	2.408457	-0.595389	0.310003
C59	C	2.387177	-0.486334	0.323524
C60	C	2.641798	0.226112	0.404381
C61	C	2.610786	0.335169	0.417899
C62	C	2.509534	0.384395	0.430398
C63	C	2.439285	0.324559	0.429366
C64	C	2.470294	0.215505	0.415839
C65	C	2.596776	-0.141044	0.809129
C66	C	2.626174	-0.140204	0.941972
C67	C	2.442919	-0.129773	0.930209
C68	C	2.413521	-0.130606	0.797368
C69	C	2.702579	-0.147071	0.815922
C70	C	2.731977	-0.146230	0.948764
H71	H	2.022714	-0.474304	0.542815
F72	F	2.818578	-0.244898	1.006507
F73	F	1.800359	-0.125492	0.720428
H74	H	2.326946	-0.126701	0.738509
H75	H	2.380286	-0.125178	0.979514
F76	F	2.757381	-0.248838	0.772245
F77	F	2.722163	-0.054445	0.765000
H78	H	2.636344	-0.456876	0.345147
F79	F	2.088168	-0.642880	0.667565
F80	F	2.331525	0.376966	0.442663
H81	H	2.755701	-0.072100	0.986384
F82	F	1.861049	-0.123771	0.994647
F83	F	2.132042	-0.867986	0.639646
H84	H	2.017004	-0.796548	0.196557
F85	F	2.395523	0.151842	0.414751
F86	F	2.700522	-0.669662	0.320373
H87	H	1.956134	-0.618058	0.102167
H88	H	2.528057	-0.744026	0.297966
F89	F	2.222163	-0.054445	0.765000
H90	H	2.244506	-0.224932	0.782511
H91	H	2.255701	-0.072100	0.986384
F92	F	1.907624	-0.402832	0.099712
F93	F	2.318578	-0.244898	1.006507
F94	F	2.322290	-0.647794	0.296698
F95	F	2.749565	0.173742	0.391082
F96	F	2.278341	-0.422669	0.324602
H97	H	2.668000	0.383873	0.418739
F98	F	2.476546	0.500463	0.444793
