data_functionalizedCrystal
_audit_creation_method	'MofGen! by Chris Wilmer'
_symmetry_space_group_name_H-M	'P1'
_symmetry_Int_Tables_number	1
_symmetry_cell_setting	triclinic
loop_
_symmetry_equiv_pos_as_xyz
  x,y,z
_cell_length_a	26.809956
_cell_length_b	10.654541
_cell_length_c	10.654545
_cell_angle_alpha	84.484678
_cell_angle_beta	90.006742
_cell_angle_gamma	89.992438
loop_
_atom_site_label
_atom_site_type_symbol
_atom_site_fract_x
_atom_site_fract_y
_atom_site_fract_z
O1	O	0.041461	-1.667854	-0.176367
O2	O	0.041466	-1.302375	-0.193176
O3	O	0.041463	-1.493517	-0.002032
O4	O	0.041464	-1.476713	-0.367511
O5	O	-0.041496	-1.493481	-0.002061
O6	O	-0.041494	-1.302339	-0.193205
O7	O	-0.041498	-1.667818	-0.176396
Zn8	Zn	-0.054667	-1.485073	-0.184805
Zn9	Zn	0.054635	-1.485121	-0.184767
O10	O	-0.041495	-1.476677	-0.367540
C11	C	-0.000013	-1.255559	-0.191957
C12	C	-0.000012	-1.116116	-0.188266
N13	N	-0.129263	-1.485050	-0.184831
C14	C	-0.000016	-1.492265	0.044751
C15	C	-0.000013	-1.488572	0.184195
C16	C	-0.473890	-1.569747	-0.100149
C17	C	-0.682768	-1.569777	-0.100130
O18	O	-0.709773	-1.641739	-0.028138
N19	N	-0.708890	-1.485127	-0.184739
C20	C	-0.682790	-1.400458	-0.269353
O21	O	-0.709801	-1.328450	-0.341309
C22	C	-0.473913	-1.400424	-0.269365
C23	C	-0.447794	-1.485088	-0.184759
C24	C	-0.447771	-1.654404	-0.015550
C25	C	-0.395555	-1.654400	-0.015560
C26	C	-0.369458	-1.569740	-0.100170
C27	C	-0.395577	-1.485084	-0.184769
C28	C	-0.447814	-1.315750	-0.353972
C29	C	-0.395591	-1.315747	-0.353965
C30	C	-0.369472	-1.400411	-0.269359
C31	C	-0.317264	-1.400421	-0.269390
N32	N	-0.291142	-1.485071	-0.184781
C33	C	-0.317239	-1.569730	-0.100171
C34	C	-0.792453	-1.400484	-0.269343
C35	C	-0.844672	-1.400494	-0.269342
C36	C	-0.844647	-1.569812	-0.100117
C37	C	-0.792427	-1.569807	-0.100125
C38	C	-0.766331	-1.485134	-0.184734
C39	C	-0.207581	-1.569717	-0.100199
C40	C	-0.155360	-1.569709	-0.100221
C41	C	-0.155390	-1.400388	-0.269440
C42	C	-0.207606	-1.400400	-0.269424
C43	C	-0.233701	-1.485069	-0.184793
O44	O	-0.290227	-1.328487	-0.341334
O45	O	-0.290218	-1.641709	-0.028207
C46	C	-0.526107	-1.569751	-0.100139
C47	C	-0.552226	-1.485095	-0.184739
C48	C	-0.526130	-1.400435	-0.269349
C49	C	-0.604445	-1.485105	-0.184738
C50	C	-0.630542	-1.569765	-0.100128
C51	C	-0.604420	-1.654414	-0.015519
C52	C	-0.552203	-1.654411	-0.015529
C53	C	-0.552252	-1.315785	-0.353958
C54	C	-0.604468	-1.315797	-0.353941
C55	C	-0.630565	-1.400457	-0.269332
N56	N	0.129231	-1.485154	-0.184732
C57	C	-0.000018	-1.714634	-0.177615
C58	C	-0.000016	-1.854078	-0.181306
C59	C	-0.000005	-1.088146	-0.416831
C60	C	0.000000	-1.008652	-0.529374
C61	C	0.000001	-0.877634	-0.525898
C62	C	-0.000006	-0.826108	-0.409867
C63	C	-0.000011	-0.905602	-0.297324
C64	C	-0.000010	-1.036622	-0.300812
C65	C	-0.000021	-0.933572	-0.068763
C66	C	-0.000018	-1.064590	-0.072235
C67	C	-0.000028	-0.882046	0.047269
C68	C	-0.000030	-0.961540	0.159814
C69	C	-0.000030	-1.092565	0.156334
C70	C	-0.000024	-1.144084	0.040308
C71	C	-0.000016	-1.477929	-0.414323
C72	C	-0.000015	-1.481621	-0.553766
C73	C	0.090432	-1.488627	0.184235
C74	C	0.135654	-1.486924	0.249765
C75	C	0.135655	-1.483455	0.380783
C76	C	0.090428	-1.481685	0.446275
C77	C	0.045206	-1.483388	0.380745
C78	C	0.045211	-1.486861	0.249723
C79	C	-0.045237	-1.483324	0.380704
C80	C	-0.045239	-1.486802	0.249686
C81	C	-0.090464	-1.481554	0.446195
C82	C	-0.135687	-1.483266	0.380666
C83	C	-0.135686	-1.486736	0.249639
C84	C	-0.090461	-1.488505	0.184156
H85	H	-0.228821	-1.638661	-0.031284
O86	O	-0.090475	-1.477817	0.587509
H87	H	-0.110010	-1.562337	0.632469
O88	O	0.000004	-0.791879	-0.647276
H89	H	0.033821	-0.810318	-0.702726
O90	O	-0.184464	-1.488573	0.178970
H91	H	-0.176869	-1.491277	0.076860
O92	O	-0.632577	-1.745725	0.075735
H93	H	-0.622557	-1.843767	0.058817
H94	H	-0.374291	-1.723337	0.053337
H95	H	-0.000036	-1.157283	0.247981
O96	O	-0.000027	-1.285396	0.036558
H97	H	-0.000027	-1.307865	-0.063029
O98	O	-0.475986	-1.224446	-0.445223
H99	H	-0.499772	-1.277855	-0.506755
H100	H	-0.771163	-1.638747	-0.031231
H101	H	-0.531008	-1.246844	-0.422856
H102	H	0.090436	-1.491466	0.077554
O103	O	-0.764309	-1.309165	-0.360616
H104	H	-0.791251	-1.250323	-0.419451
O105	O	0.184434	-1.488833	0.179133
H106	H	0.176839	-1.491542	0.077019
H107	H	-0.374347	-1.246792	-0.422863
O108	O	-0.475914	-1.745740	0.075698
H109	H	-0.448971	-1.804605	0.134505
O110	O	-0.632639	-1.224509	-0.445235
H111	H	-0.605714	-1.165649	-0.504070
O112	O	-0.090428	-1.492398	0.042861
H113	H	-0.070891	-1.407929	-0.002204
H114	H	-0.000034	-0.919576	0.254278
O115	O	-0.872795	-1.661128	-0.008851
H116	H	-0.896584	-1.607726	0.052681
O117	O	-0.127187	-1.661020	-0.008956
H118	H	-0.154110	-1.719876	0.049889
H119	H	0.172479	-1.482057	0.434136
H120	H	-0.000030	-0.775363	0.050090
O121	O	-0.235784	-1.309097	-0.360681
H122	H	-0.225767	-1.211059	-0.343761
H123	H	-0.865935	-1.331566	-0.338248
O124	O	-0.127239	-1.309047	-0.360666
H125	H	-0.086540	-1.323255	-0.346430
H126	H	-0.000011	-0.719425	-0.407048
O127	O	-0.524034	-1.745715	0.075736
H128	H	-0.550961	-1.804567	0.134573
H129	H	-0.172507	-1.481816	0.433998
H130	H	0.000006	-1.194826	-0.419672
H131	H	0.000004	-1.050619	-0.623844
O132	O	0.090426	-1.477987	0.587593
H133	H	0.129469	-1.477121	0.622160
