data_functionalizedCrystal
_audit_creation_method	'MofGen! by Chris Wilmer'
_symmetry_space_group_name_H-M	'P1'
_symmetry_Int_Tables_number	1
_symmetry_cell_setting	triclinic
loop_
_symmetry_equiv_pos_as_xyz
  x,y,z
_cell_length_a	27.732048
_cell_length_b	26.210047
_cell_length_c	9.065218
_cell_angle_alpha	89.997417
_cell_angle_beta	96.170730
_cell_angle_gamma	90.010925
loop_
_atom_site_label
_atom_site_type_symbol
_atom_site_fract_x
_atom_site_fract_y
_atom_site_fract_z
O1	O	0.642134	0.042361	-0.175519
O2	O	0.501522	0.042377	-0.202207
O3	O	0.574734	0.042368	0.025964
O4	O	0.568922	0.042370	-0.403690
O5	O	0.574711	-0.042490	0.025964
O6	O	0.501499	-0.042482	-0.202207
O7	O	0.642110	-0.042497	-0.175519
Cu8	Cu	0.571802	-0.050237	-0.188863
Cu9	Cu	0.571830	0.050117	-0.188863
O10	O	0.568898	-0.042488	-0.403691
C11	C	0.483500	-0.000051	-0.201647
C12	C	0.429834	-0.000045	-0.199960
C13	C	0.091866	-0.000066	-0.324175
C14	C	-0.109836	-0.000071	-0.317916
O15	O	-0.140316	-0.000092	-0.431501
N16	N	-0.129883	-0.000071	-0.182619
C17	C	-0.099501	-0.000073	-0.048878
O18	O	-0.121181	-0.000078	0.066343
C19	C	0.102200	-0.000072	-0.055139
C20	C	0.122244	-0.000067	-0.190444
C21	C	0.111911	-0.000061	-0.459469
C22	C	0.162334	-0.000058	-0.461032
C23	C	0.192712	-0.000058	-0.327301
C24	C	0.172667	-0.000063	-0.192007
C25	C	0.132581	-0.000078	0.078600
C26	C	0.183009	-0.000079	0.077023
C27	C	0.203053	-0.000073	-0.058282
C28	C	0.253467	-0.000059	-0.059840
N29	N	0.273514	-0.000059	-0.195136
C30	C	0.243137	-0.000059	-0.328867
C31	C	-0.205398	-0.000072	-0.045601
C32	C	-0.255823	-0.000072	-0.044036
C33	C	-0.266154	-0.000070	-0.313073
C34	C	-0.215728	-0.000067	-0.314637
C35	C	-0.185351	-0.000072	-0.180897
C36	C	0.349028	-0.000050	-0.332140
C37	C	0.399456	-0.000044	-0.333691
C38	C	0.409782	-0.000048	-0.064654
C39	C	0.359359	-0.000051	-0.063102
C40	C	0.328983	-0.000054	-0.196857
O41	O	0.283976	-0.000044	0.053684
O42	O	0.264826	-0.000065	-0.444071
C43	C	0.041444	-0.000070	-0.322611
C44	C	0.021399	-0.000074	-0.187317
C45	C	0.051777	-0.000075	-0.053587
C46	C	-0.029026	-0.000074	-0.185752
C47	C	-0.059404	-0.000073	-0.319482
C48	C	-0.039357	-0.000073	-0.454779
C49	C	0.011066	-0.000069	-0.456342
C50	C	0.031730	-0.000075	0.081710
C51	C	-0.018694	-0.000078	0.083262
C52	C	-0.049071	-0.000078	-0.050469
N53	N	0.571787	-0.120821	-0.188862
C54	C	0.601528	-0.473338	-0.277700
C55	C	0.601543	-0.686997	-0.277698
O56	O	0.626819	-0.714621	-0.353215
N57	N	0.571842	-0.713715	-0.188848
C58	C	0.542137	-0.687016	-0.099985
O59	O	0.516878	-0.714644	-0.024401
C60	C	0.542126	-0.473358	-0.099979
C61	C	0.571825	-0.446642	-0.188846
C62	C	0.631226	-0.446622	-0.366558
C63	C	0.631220	-0.393211	-0.366564
C64	C	0.601517	-0.366515	-0.277711
C65	C	0.571819	-0.393231	-0.188852
C66	C	0.512424	-0.446660	-0.011109
C67	C	0.512425	-0.393242	-0.011112
C68	C	0.542124	-0.366526	-0.099980
C69	C	0.542110	-0.313124	-0.100004
N70	N	0.571811	-0.286405	-0.188854
C71	C	0.601515	-0.313101	-0.277707
C72	C	0.542144	-0.799189	-0.099996
C73	C	0.542146	-0.852603	-0.099999
C74	C	0.601553	-0.852580	-0.277711
C75	C	0.601548	-0.799165	-0.277715
C76	C	0.571846	-0.772471	-0.188846
C77	C	0.601500	-0.200933	-0.277713
C78	C	0.601490	-0.147517	-0.277716
C79	C	0.542085	-0.147544	-0.099999
C80	C	0.542093	-0.200956	-0.100002
C81	C	0.571804	-0.227649	-0.188863
O82	O	0.516851	-0.285466	-0.024515
O83	O	0.626778	-0.285464	-0.353255
C84	C	0.601534	-0.526750	-0.277694
C85	C	0.571837	-0.553465	-0.188835
C86	C	0.542133	-0.526770	-0.099982
C87	C	0.571839	-0.606879	-0.188838
C88	C	0.601542	-0.633575	-0.277692
C89	C	0.631243	-0.606857	-0.366542
C90	C	0.631238	-0.553445	-0.366547
C91	C	0.512432	-0.553488	-0.011132
C92	C	0.512440	-0.606899	-0.011135
C93	C	0.542143	-0.633595	-0.099988
C94	C	0.660133	-0.000068	-0.176079
C95	C	0.713799	-0.000071	-0.177766
C96	C	0.574164	-0.000061	0.080915
C97	C	0.572494	-0.000058	0.244652
N98	N	0.571850	0.120701	-0.188852
C99	C	0.569469	-0.000058	-0.458642
C100	C	0.571139	-0.000058	-0.622378
H101	H	-0.290897	-0.000070	-0.421962
H102	H	-0.199412	-0.000066	-0.424815
H103	H	-0.272138	-0.000068	0.066143
O104	O	0.483574	-0.632770	0.075332
C105	C	0.457349	-0.597749	0.153725
H106	H	0.477315	-0.559667	0.162731
H107	H	0.453851	-0.613179	0.269671
H108	H	0.419676	-0.592081	0.092166
O109	O	-0.175962	-0.000051	0.084459
C110	C	-0.204476	-0.000063	0.204193
H111	H	-0.241931	0.016003	0.165851
H112	H	-0.186293	0.024575	0.297825
H113	H	-0.208260	-0.040773	0.245723
O114	O	0.030474	0.000002	-0.587875
C115	C	0.015019	0.043957	-0.669299
H116	H	-0.020118	0.058608	-0.629884
H117	H	0.008554	0.034074	-0.792302
H118	H	0.044120	0.074733	-0.651554
H119	H	0.655417	-0.468352	-0.438914
O120	O	0.212536	-0.000171	0.206905
C121	C	0.242017	-0.044111	0.214039
H122	H	0.223888	-0.074829	0.138170
H123	H	0.247154	-0.058865	0.332993
H124	H	0.278848	-0.034171	0.176726
O125	O	0.339965	-0.000072	0.068460
C126	C	0.377593	-0.000054	0.186157
H127	H	0.412022	-0.016115	0.145605
H128	H	0.366637	-0.024692	0.280694
H129	H	0.384547	0.040658	0.227346
H130	H	-0.064099	-0.000071	-0.563667
O131	O	0.061284	-0.000004	0.211528
C132	C	0.090755	0.043955	0.218693
H133	H	0.093831	0.058605	0.101667
H134	H	0.128397	0.034077	0.274549
H135	H	0.073868	0.074729	0.285657
O136	O	0.483542	-0.367256	0.075002
C137	C	0.450943	-0.336379	-0.015640
H138	H	0.466458	-0.328367	-0.124780
H139	H	0.445295	-0.298821	0.043551
H140	H	0.414716	-0.356978	-0.038984
H141	H	0.116270	-0.000082	0.188780
O142	O	0.439366	-0.000073	0.065111
C143	C	0.488169	-0.000059	0.034700
H144	H	0.490607	-0.016118	-0.081128
H145	H	0.510631	-0.024700	0.119996
H146	H	0.502731	0.040652	0.040641
H147	H	0.625675	-0.125767	-0.350089
H148	H	-0.035008	-0.000079	0.193452
H149	H	0.517903	-0.222709	-0.027657
O150	O	0.660135	-0.527576	-0.452905
C151	C	0.686341	-0.562602	-0.531344
H152	H	0.688893	-0.600675	-0.470204
H153	H	0.724386	-0.547164	-0.539699
H154	H	0.666936	-0.568288	-0.647554
H155	H	0.625694	-0.222660	-0.350072
O156	O	0.513241	-0.773340	-0.013633
C157	C	0.487039	-0.808383	0.064801
H158	H	0.484492	-0.846456	0.003660
H159	H	0.448992	-0.792966	0.073151
H160	H	0.506442	-0.814063	0.181013
H161	H	0.655407	-0.371464	-0.438922
H162	H	0.625732	-0.777417	-0.350079
H163	H	0.324301	-0.000054	-0.441056
H164	H	0.625737	-0.874325	-0.350065
H165	H	0.517956	-0.874351	-0.027652
O166	O	0.181740	0.000012	-0.592569
C167	C	0.166283	0.043967	-0.673994
H168	H	0.131148	0.058619	-0.634571
H169	H	0.159815	0.034083	-0.796996
H170	H	0.195385	0.074742	-0.656260
H171	H	0.517900	-0.125799	-0.027661
H172	H	0.488240	-0.468402	0.061259
O173	O	0.660154	-0.632817	-0.452630
C174	C	0.692729	-0.663714	-0.361970
H175	H	0.697404	-0.647612	-0.244484
H176	H	0.729341	-0.664315	-0.408339
H177	H	0.677784	-0.704198	-0.359779
H178	H	0.488244	-0.531758	0.061227
H179	H	0.415773	-0.000040	-0.443877
H180	H	0.087182	-0.000063	-0.568374
