data_functionalizedCrystal
_audit_creation_method	'MofGen! by Chris Wilmer'
_symmetry_space_group_name_H-M	'P1'
_symmetry_Int_Tables_number	1
_symmetry_cell_setting	triclinic
loop_
_symmetry_equiv_pos_as_xyz
  x,y,z
_cell_length_a	10.540539
_cell_length_b	13.339070
_cell_length_c	11.804366
_cell_angle_alpha	105.125066
_cell_angle_beta	101.953543
_cell_angle_gamma	79.922607
loop_
_atom_site_label
_atom_site_type_symbol
_atom_site_fract_x
_atom_site_fract_y
_atom_site_fract_z
O1	O	0.619506	-1.367201	-0.099049
O2	O	0.535767	-1.072068	-0.099045
O3	O	0.395225	-1.226367	-0.099046
O4	O	0.760048	-1.212901	-0.099049
O5	O	0.432171	-1.185745	0.099010
O6	O	0.572713	-1.031445	0.099011
O7	O	0.656452	-1.326578	0.099007
Cu8	Cu	0.617956	-1.175303	0.117093
Cu9	Cu	0.574263	-1.223343	-0.117131
O10	O	0.796994	-1.172279	0.099007
C11	C	0.540095	-1.013965	-0.000017
C12	C	0.497931	-0.901358	-0.000015
C13	C	0.366051	-1.205047	-0.000020
C14	C	0.224072	-1.202026	-0.000026
C15	C	0.652124	-1.384682	-0.000024
C16	C	0.694286	-1.497290	-0.000034
C17	C	0.001099	-1.086340	-0.000469
C18	C	0.148845	-1.089311	-0.000023
C19	C	0.202001	-1.233073	0.113073
C20	C	0.054163	-1.229206	0.113168
C21	C	0.012411	-1.277694	-0.112059
C22	C	0.159468	-1.279039	-0.113554
C23	C	0.826168	-1.193600	-0.000021
C24	C	0.968145	-1.196622	-0.000023
N25	N	0.648689	-1.141521	0.281834
C26	C	0.825770	-0.538938	-0.000037
C27	C	0.865388	-0.644738	-0.000042
C28	C	0.773527	-0.708898	-0.000035
C29	C	0.642042	-0.667248	-0.000023
C30	C	0.602418	-0.561440	-0.000028
C31	C	0.550175	-0.731400	-0.000026
C32	C	0.418690	-0.689750	-0.000014
C33	C	0.379073	-0.583951	-0.000018
C34	C	0.470934	-0.519791	-0.000025
C35	C	0.589799	-0.837208	-0.000021
C36	C	0.366447	-0.859710	-0.000012
C37	C	0.326829	-0.753910	-0.000007
N38	N	0.543522	-1.257133	-0.281872
C39	C	0.722517	-1.060400	0.344180
C40	C	0.745787	-1.034854	0.468842
C41	C	0.695223	-1.090422	0.531169
C42	C	0.621385	-1.171539	0.468823
C43	C	0.598122	-1.197093	0.344149
C44	C	0.570827	-1.227115	0.531138
C45	C	0.496989	-1.308232	0.468792
C46	C	0.473729	-1.333781	0.344130
C47	C	0.524293	-1.278214	0.281803
C48	C	0.594090	-1.201561	0.655812
C49	C	0.469694	-1.338254	0.655782
C50	C	0.446424	-1.363800	0.531120
H51	H	0.161776	-1.063258	-0.081097
F52	F	0.186895	-0.709570	0.000004
F53	F	0.729731	-0.881523	-0.000033
H54	H	0.034781	-1.309217	0.118298
F55	F	-0.039009	-1.006665	0.104659
F56	F	0.815696	-0.821500	-0.000038
F57	F	0.269120	-1.340138	0.118572
F58	F	0.204080	-1.011358	0.106122
H59	H	0.972442	-0.678644	-0.000060
H60	H	0.900547	-0.486693	-0.000052
F61	F	-0.065973	-1.252986	-0.224105
H62	H	0.805906	-0.968810	0.519600
H63	H	0.291645	-0.911950	-0.000012
H64	H	0.028070	-1.171777	0.197713
F65	F	0.428775	-0.407184	-0.000016
H66	H	0.247457	-1.178129	0.197238
H67	H	0.171190	-1.256510	-0.197222
H68	H	0.763689	-1.015170	0.293425
H69	H	0.386305	-1.429848	0.480342
H70	H	0.505343	-1.299010	0.180293
H71	H	0.272006	-0.550047	-0.000022
H72	H	0.654209	-1.135515	0.706564
F73	F	0.719988	-1.063231	0.663846
F74	F	0.226077	-1.388283	-0.122490
H75	H	0.413618	-1.399840	0.293368
F76	F	-0.013233	-1.384310	-0.113058
H77	H	-0.057807	-1.058450	-0.081574
F78	F	0.415881	-1.397400	0.722110
