data_functionalizedCrystal
_audit_creation_method	'MofGen! by Chris Wilmer'
_symmetry_space_group_name_H-M	'P1'
_symmetry_Int_Tables_number	1
_symmetry_cell_setting	triclinic
loop_
_symmetry_equiv_pos_as_xyz
  x,y,z
_cell_length_a	17.038272
_cell_length_b	17.038272
_cell_length_c	15.500227
_cell_angle_alpha	93.043705
_cell_angle_beta	93.033254
_cell_angle_gamma	88.888444
loop_
_atom_site_label
_atom_site_type_symbol
_atom_site_fract_x
_atom_site_fract_y
_atom_site_fract_z
O1	O	0.167139	-1.052160	-0.071836
O2	O	0.164430	-0.824350	-0.071862
O3	O	0.051879	-0.936901	-0.071842
O4	O	0.279690	-0.939609	-0.071856
O5	O	0.058680	-0.930069	0.072045
O6	O	0.171231	-0.817518	0.072026
O7	O	0.173940	-1.045328	0.072051
Cu8	Cu	0.173207	-0.930799	0.085177
Cu9	Cu	0.165164	-0.938879	-0.084987
O10	O	0.286491	-0.932777	0.072032
C11	C	0.165368	-0.791641	0.000079
C12	C	0.158019	-0.704358	0.000069
C13	C	0.025987	-0.931022	0.000101
C14	C	-0.061297	-0.923674	0.000100
C15	C	0.173003	-1.078037	0.000109
C16	C	0.180351	-1.165320	0.000113
C17	C	-0.106906	-0.991137	0.000108
C18	C	-0.188918	-0.984229	0.000100
C19	C	-0.225320	-0.909856	0.000088
C20	C	-0.179705	-0.842388	0.000077
C21	C	-0.097694	-0.849297	0.000080
C22	C	-0.472708	-0.885446	0.000074
C23	C	-0.554725	-0.878541	0.000074
C24	C	-0.563932	-1.020383	0.000094
C25	C	-0.481919	-1.027286	0.000102
C26	C	-0.436312	-0.959818	0.000087
C27	C	-0.309149	-0.902792	0.000082
C28	C	-0.352484	-0.966882	0.000087
C29	C	0.312383	-0.938656	0.000087
C30	C	0.399667	-0.946004	0.000082
N31	N	0.178864	-0.925122	0.204861
C32	C	0.225482	-0.658749	0.000066
C33	C	0.218574	-0.576737	0.000078
C34	C	0.144201	-0.540335	0.000088
C35	C	0.076733	-0.585950	0.000094
C36	C	0.083642	-0.667961	0.000088
C37	C	0.119792	-0.292946	0.000112
C38	C	0.112887	-0.210929	0.000116
C39	C	0.254729	-0.201721	0.000102
C40	C	0.261632	-0.283734	0.000091
C41	C	0.194164	-0.329342	0.000101
C42	C	0.137138	-0.456505	0.000098
C43	C	0.201228	-0.413170	0.000098
N44	N	0.159501	-0.944561	-0.204671
C45	C	0.131192	-0.972833	0.250145
C46	C	0.135478	-0.968547	0.340718
C47	C	0.187440	-0.916555	0.386003
C48	C	0.235114	-0.868839	0.340712
C49	C	0.230823	-0.873121	0.250142
C50	C	0.202884	-0.901128	0.659467
C51	C	0.207172	-0.896851	0.750044
C52	C	0.107535	-0.996559	0.750044
C53	C	0.103252	-1.000840	0.659471
C54	C	0.150923	-0.953121	0.614188
C55	C	0.191824	-0.912174	0.478582
C56	C	0.146534	-0.957498	0.521610
H57	H	-0.077273	-1.051699	0.000123
O58	O	0.047218	-1.056925	0.610622
H59	H	0.004881	-1.023288	0.569357
O60	O	-0.238113	-1.056991	0.000123
H61	H	-0.199022	-1.109866	0.000147
H62	H	-0.584359	-0.817974	0.000078
O63	O	0.047024	-0.342129	0.000125
H64	H	0.008919	-0.331379	-0.058520
H65	H	0.076584	-0.426857	0.000130
H66	H	-0.322844	-1.027437	0.000077
H67	H	-0.435584	-0.830508	0.000061
H68	H	-0.209350	-0.781832	0.000063
H69	H	0.277420	-0.826501	0.377589
H70	H	-0.060560	-0.794361	0.000073
O71	O	0.056113	-1.048019	0.798882
H72	H	0.067818	-1.036304	0.869469
O73	O	0.247876	-0.856107	0.527433
H74	H	0.232942	-0.795040	0.510071
H75	H	-0.338796	-0.842237	0.000075
H76	H	-0.452287	-1.087848	0.000111
H77	H	0.322194	-0.313367	0.000073
H78	H	0.249490	-0.854510	0.786912
H79	H	0.269642	-0.834269	0.213271
O80	O	0.291337	-0.527541	0.000075
H81	H	0.344213	-0.566631	0.000057
O82	O	-0.003486	-0.546694	0.000107
H83	H	0.003041	-0.482005	0.000103
O84	O	0.084070	-1.020024	0.389553
H85	H	0.021352	-1.006788	0.372175
H86	H	0.241701	-0.862274	0.622605
O87	O	0.305700	-0.698010	0.000064
H88	H	0.351450	-0.652513	0.000076
O89	O	0.327498	-0.152532	0.000109
H90	H	0.310203	-0.089389	0.000125
O91	O	0.032668	-0.171662	0.000134
H92	H	-0.013087	-0.217153	0.000150
O93	O	0.010879	-0.717160	0.000088
H94	H	-0.041999	-0.678072	0.000088
O95	O	0.281445	-0.452423	0.000091
H96	H	0.285210	-0.492339	-0.058561
O97	O	0.090477	-1.013557	0.472764
H98	H	0.124136	-1.055873	0.431482
H99	H	-0.601074	-1.075311	0.000105
O100	O	0.075143	-1.028908	0.201302
H101	H	0.042708	-1.061357	0.248012
