data_functionalizedCrystal
_audit_creation_method	'MofGen! by Chris Wilmer'
_symmetry_space_group_name_H-M	'P1'
_symmetry_Int_Tables_number	1
_symmetry_cell_setting	triclinic
loop_
_symmetry_equiv_pos_as_xyz
  x,y,z
_cell_length_a	17.666332
_cell_length_b	17.038272
_cell_length_c	17.038272
_cell_angle_alpha	88.888444
_cell_angle_beta	90.005119
_cell_angle_gamma	89.996446
loop_
_atom_site_label
_atom_site_type_symbol
_atom_site_fract_x
_atom_site_fract_y
_atom_site_fract_z
O1	O	0.062854	-1.048760	0.170537
O2	O	0.562854	-0.548760	0.670537
O3	O	0.062877	-0.820948	0.167829
O4	O	0.562877	-0.320948	0.667829
O5	O	0.062860	-0.933500	0.055277
O6	O	0.562860	-0.433500	0.555277
O7	O	0.062871	-0.936208	0.283089
O8	O	0.562871	-0.436208	0.783089
O9	O	-0.063037	-0.933479	0.055272
O10	O	0.436963	-0.433479	0.555272
O11	O	-0.063020	-0.820927	0.167824
O12	O	0.436980	-0.320927	0.667824
O13	O	-0.063042	-1.048738	0.170532
O14	O	0.436958	-0.548738	0.670532
Cu15	Cu	-0.074527	-0.934831	0.169178
Cu16	Cu	0.425473	-0.434831	0.669178
Cu17	Cu	0.074361	-0.934856	0.169184
Cu18	Cu	0.574361	-0.434856	0.669184
O19	O	-0.063025	-0.936187	0.283084
O20	O	0.436975	-0.436187	0.783084
C21	C	-0.000069	-0.791645	0.165364
C22	C	0.499931	-0.291645	0.665364
C23	C	-0.000061	-0.704361	0.158016
C24	C	0.499939	-0.204361	0.658016
C25	C	-0.000088	-0.931027	0.025982
C26	C	0.499912	-0.431027	0.525982
C27	C	-0.000088	-0.923679	-0.061301
C28	C	0.499912	-0.423679	0.438699
N29	N	-0.179246	-0.934819	0.169173
N30	N	0.320754	-0.434819	0.669173
C31	C	-0.218852	-0.985610	0.220003
C32	C	0.281148	-0.485610	0.720003
C33	C	-0.298099	-0.985623	0.220002
C34	C	0.201901	-0.485623	0.720002
C35	C	-0.337738	-0.934829	0.169179
C36	C	0.162262	-0.434829	0.669179
C37	C	-0.298123	-0.884034	0.118339
C38	C	0.201877	-0.384034	0.618339
C39	C	-0.218877	-0.884029	0.118336
C40	C	0.281123	-0.384029	0.618336
N41	N	-0.462171	-0.865902	0.162459
N42	N	0.037829	-0.365902	0.662459
N43	N	-0.537452	-0.865909	0.162466
N44	N	-0.037452	-0.365909	0.662466
C45	C	-0.576502	-0.934844	0.169182
C46	C	-0.076502	-0.434844	0.669182
N47	N	-0.537429	-1.003773	0.175907
N48	N	-0.037429	-0.503773	0.675907
N49	N	-0.462141	-1.003764	0.175904
N50	N	0.037859	-0.503764	0.675904
C51	C	-0.423667	-0.934830	0.169176
C52	C	0.076333	-0.434830	0.669176
C53	C	-0.702037	-0.985653	0.220014
C54	C	-0.202037	-0.485653	0.720014
C55	C	-0.781286	-0.985667	0.220007
C56	C	-0.281286	-0.485667	0.720007
C57	C	-0.781308	-0.884071	0.118348
C58	C	-0.281308	-0.384071	0.618348
C59	C	-0.702061	-0.884065	0.118351
C60	C	-0.202061	-0.384065	0.618351
C61	C	-0.662430	-0.934855	0.169188
C62	C	-0.162430	-0.434855	0.669188
N63	N	0.179080	-0.934874	0.169182
N64	N	0.679080	-0.434874	0.669182
C65	C	-0.000095	-1.078042	0.172997
C66	C	0.499905	-0.578042	0.672997
C67	C	-0.000099	-1.165326	0.180346
C68	C	0.499901	-0.665326	0.680346
C69	C	-0.000058	-0.658752	0.225479
C70	C	0.499942	-0.158752	0.725479
C71	C	-0.000069	-0.576740	0.218570
C72	C	0.499931	-0.076740	0.718570
C73	C	-0.000077	-0.540339	0.144197
C74	C	0.499923	-0.040339	0.644197
C75	C	-0.000082	-0.585954	0.076728
C76	C	0.499918	-0.085954	0.576728
C77	C	-0.000077	-0.667965	0.083638
C78	C	0.499923	-0.167965	0.583638
C79	C	-0.000098	-0.292951	0.119787
C80	C	0.499902	0.207049	0.619787
C81	C	-0.000101	-0.210935	0.112882
C82	C	0.499899	0.289065	0.612882
C83	C	-0.000089	-0.201726	0.254725
C84	C	0.499911	0.298274	0.754725
C85	C	-0.000080	-0.283739	0.261628
C86	C	0.499920	0.216261	0.761628
C87	C	-0.000089	-0.329347	0.194159
C88	C	0.499911	0.170653	0.694159
C89	C	-0.000086	-0.456510	0.137133
C90	C	0.499914	0.043490	0.637133
C91	C	-0.000085	-0.413174	0.201224
C92	C	0.499915	0.086826	0.701224
C93	C	-0.000095	-0.991142	-0.106911
C94	C	0.499905	-0.491142	0.393089
C95	C	-0.000087	-0.984233	-0.188923
C96	C	0.499913	-0.484233	0.311077
C97	C	-0.000077	-0.909860	-0.225324
C98	C	0.499923	-0.409860	0.274676
C99	C	-0.000068	-0.842391	-0.179708
C100	C	0.499932	-0.342391	0.320292
C101	C	-0.000070	-0.849301	-0.097698
C102	C	0.499930	-0.349301	0.402302
C103	C	-0.000065	-0.885449	-0.472712
C104	C	0.499935	-0.385449	0.027288
C105	C	-0.000064	-0.878545	-0.554728
C106	C	0.499936	-0.378545	-0.054728
C107	C	-0.000082	-1.020387	-0.563937
C108	C	0.499918	-0.520387	-0.063937
C109	C	-0.000089	-1.027291	-0.481924
C110	C	0.499911	-0.527291	0.018076
C111	C	-0.000076	-0.959822	-0.436316
C112	C	0.499924	-0.459822	0.063684
C113	C	-0.000072	-0.902796	-0.309153
C114	C	0.499928	-0.402796	0.190847
C115	C	-0.000076	-0.966886	-0.352488
C116	C	0.499924	-0.466886	0.147512
C117	C	-0.000076	-0.938660	0.312379
C118	C	0.499924	-0.438660	0.812379
C119	C	-0.000072	-0.946008	0.399663
C120	C	0.499928	-0.446008	0.899663
H121	H	-0.186589	-1.026970	0.261396
H122	H	0.313411	-0.526970	0.761396
F123	F	-0.823490	-0.830020	0.064250
F124	F	-0.323490	-0.330020	0.564250
F125	F	-0.000096	-1.056038	-0.237460
F126	F	0.499904	-0.556038	0.262540
H127	H	-0.000092	-1.075316	-0.601079
H128	H	0.499908	-0.575316	-0.101079
F129	F	-0.659857	-1.039720	0.274105
F130	F	-0.159857	-0.539720	0.774105
F131	F	-0.659908	-0.829993	0.064261
F132	F	-0.159908	-0.329993	0.564261
F133	F	-0.000049	-0.763237	-0.218451
F134	F	0.499951	-0.263237	0.281549
F135	F	-0.000081	-1.106449	-0.443190
F136	F	0.499919	-0.606449	0.056810
F137	F	-0.000123	-0.172196	0.033720
F138	F	0.499877	0.327804	0.533720
F139	F	-0.000044	-0.697485	0.304638
F140	F	0.499956	-0.197485	0.804638
F141	F	-0.000060	-0.777497	-0.049157
F142	F	0.499940	-0.277497	0.450843
F143	F	-0.000062	-0.528203	0.290375
F144	F	0.499938	-0.028203	0.790375
H145	H	-0.000067	-1.027441	-0.322847
H146	H	0.499933	-0.527441	0.177153
F147	F	-0.340310	-0.829978	0.064247
F148	F	0.159690	-0.329978	0.564247
H149	H	-0.000064	-0.313370	0.322190
H150	H	0.499936	0.186630	0.822190
H151	H	-0.330353	-1.026984	0.261396
H152	H	0.169647	-0.526984	0.761396
F153	F	-0.000058	-0.823644	-0.347901
F154	F	0.499942	-0.323644	0.152099
F155	F	-0.000080	-0.451917	0.280375
F156	F	0.499920	0.048083	0.780375
F157	F	-0.000081	-0.153181	0.326524
F158	F	0.499919	0.346819	0.826524
F159	F	-0.823438	-1.039733	0.274106
F160	F	-0.323438	-0.539733	0.774106
F161	F	-0.000108	-0.341480	0.047979
F162	F	0.499892	0.158520	0.547979
F163	F	-0.000058	-0.799383	-0.593467
F164	F	0.499942	-0.299383	-0.093467
F165	F	-0.176724	-0.829963	0.064237
F166	F	0.323276	-0.329963	0.564237
H167	H	-0.000100	-0.556310	0.016172
H168	H	0.499900	-0.056310	0.516172
H169	H	-0.000079	-0.705099	0.028702
H170	H	0.499921	-0.205099	0.528702
F171	F	-0.000092	-0.417762	0.057982
F172	F	0.499908	0.082238	0.557982
H173	H	-0.000108	-1.051705	-0.077279
H174	H	0.499892	-0.551705	0.422721
H175	H	-0.000054	-0.830511	-0.435587
H176	H	0.499946	-0.330511	0.064413
