data_functionalizedCrystal
_audit_creation_method	'MofGen! by Chris Wilmer'
_symmetry_space_group_name_H-M	'P1'
_symmetry_Int_Tables_number	1
_symmetry_cell_setting	triclinic
loop_
_symmetry_equiv_pos_as_xyz
  x,y,z
_cell_length_a	13.339070
_cell_length_b	19.288859
_cell_length_c	17.766277
_cell_angle_alpha	89.989768
_cell_angle_beta	89.997794
_cell_angle_gamma	99.381510
loop_
_atom_site_label
_atom_site_type_symbol
_atom_site_fract_x
_atom_site_fract_y
_atom_site_fract_z
O1	O	0.126056	0.945920	-0.062607
O2	O	0.143071	0.746975	-0.062605
O3	O	-0.012595	0.823615	-0.062603
O4	O	0.281723	0.869280	-0.062608
O5	O	-0.012603	0.823595	0.062585
O6	O	0.143064	0.746955	0.062584
O7	O	0.126048	0.945900	0.062582
Cu8	Cu	0.134555	0.846426	0.074013
Cu9	Cu	0.134564	0.846449	-0.074037
O10	O	0.281715	0.869260	0.062580
C11	C	0.142521	0.720982	-0.000010
C12	C	0.140881	0.643558	-0.000010
C13	C	-0.050253	0.815891	-0.000010
C14	C	-0.162449	0.792898	-0.000013
C15	C	0.221122	0.095154	-0.000012
C16	C	0.222672	0.167903	-0.000016
C17	C	0.131334	0.194810	-0.000013
C18	C	0.038439	0.148963	-0.000026
C19	C	0.036891	0.076216	-0.000029
C20	C	0.063212	0.302799	0.043850
C21	C	0.064763	0.375545	0.043858
C22	C	0.136103	0.419186	-0.000006
C23	C	0.205909	0.390073	-0.043868
C24	C	0.204361	0.317326	-0.043871
C25	C	0.133002	0.273691	-0.000010
C26	C	0.230673	0.543906	-0.000003
C27	C	0.232220	0.616656	-0.000011
C28	C	0.047984	0.597714	-0.000013
C29	C	0.046440	0.524966	-0.000012
C30	C	0.137788	0.498067	-0.000003
C31	C	-0.528062	0.971678	-0.000014
C32	C	-0.422649	0.993283	-0.000008
C33	C	-0.357594	0.943189	-0.000009
C34	C	-0.397962	0.871486	-0.000017
C35	C	-0.503386	0.849879	-0.000018
C36	C	-0.332918	0.821389	-0.000013
C37	C	-0.373286	0.749686	-0.000021
C38	C	-0.478700	0.728083	-0.000022
C39	C	-0.543755	0.778177	-0.000021
C40	C	-0.227494	0.842996	-0.000012
C41	C	-0.202818	0.721197	-0.000016
C42	C	-0.308232	0.699592	-0.000022
C43	C	0.319372	0.876984	-0.000015
C44	C	0.431569	0.899977	-0.000017
C45	C	0.126599	0.971893	-0.000015
C46	C	0.128239	1.049317	-0.000020
N47	N	0.134548	0.846414	0.178144
N48	N	0.134564	0.846465	-0.178167
C49	C	0.065653	0.880372	0.217531
C50	C	0.065648	0.880375	0.296333
C51	C	0.134556	0.846430	0.335744
C52	C	0.203457	0.812464	0.296347
C53	C	0.203453	0.812456	0.217547
C54	C	0.226649	0.855077	0.460581
C55	C	0.226654	0.855090	0.539379
C56	C	0.134568	0.846451	0.578791
C57	C	0.042473	0.837812	0.539393
C58	C	0.042469	0.837804	0.460593
C59	C	0.134568	0.846434	0.421190
C60	C	0.065662	0.880414	0.703624
C61	C	0.065656	0.880412	0.782427
C62	C	0.203474	0.812506	0.782440
C63	C	0.203471	0.812503	0.703638
C64	C	0.134566	0.846461	0.664235
H65	H	0.298311	0.205231	-0.000002
N66	N	-0.056853	0.828487	0.418100
H67	H	-0.062693	0.785177	0.385416
H68	H	-0.059153	0.871059	0.385439
N69	N	-0.008648	0.917045	0.824916
H70	H	0.029880	0.955213	0.857598
H71	H	-0.053287	0.881860	0.857580
N72	N	-0.010520	0.406935	0.091173
H73	H	-0.081900	0.386970	0.074793
H74	H	0.001373	0.459639	0.084511
H75	H	0.264003	0.425605	-0.079584
H76	H	0.005113	0.267272	0.079570
N77	N	-0.008671	0.916990	0.175035
H78	H	0.001779	0.911835	0.119137
H79	H	0.002830	0.968478	0.188794
N80	N	0.279635	0.285923	-0.091183
H81	H	0.325065	0.324603	-0.118974
H82	H	0.241792	0.251927	-0.128644
H83	H	0.307859	0.653977	-0.000011
N84	N	-0.053741	0.475522	-0.000015
H85	H	-0.111370	0.503604	-0.000013
H86	H	-0.058399	0.444917	0.046393
N87	N	-0.379100	1.070612	-0.000013
H88	H	-0.335916	1.082283	0.046394
H89	H	-0.436354	1.099022	-0.000046
N90	N	-0.598224	1.025702	0.000001
H91	H	-0.671130	1.001133	0.000003
H92	H	-0.585192	1.056086	-0.046405
H93	H	-0.341115	0.641210	-0.000029
H94	H	0.259576	0.784864	0.814528
N95	N	-0.657455	0.754877	-0.000026
H96	H	-0.678013	0.725755	0.046381
H97	H	-0.677918	0.725802	-0.046465
H98	H	-0.026385	0.619622	-0.000017
N99	N	-0.060077	0.177979	-0.000025
H100	H	-0.045004	0.231020	-0.000019
H101	H	-0.100579	0.161116	0.046381
N102	N	-0.522254	0.650750	-0.000028
H103	H	-0.565446	0.639065	0.046380
H104	H	-0.465000	0.622339	-0.000059
N105	N	0.329190	0.514885	-0.000009
H106	H	0.332655	0.485117	0.046398
H107	H	0.388212	0.555003	-0.000041
N108	N	-0.132654	0.667166	-0.000020
H109	H	-0.145598	0.636790	-0.046427
H110	H	-0.145638	0.636823	0.046419
N111	N	-0.063293	0.026771	-0.000037
H112	H	-0.120923	0.054853	-0.000038
H113	H	-0.067953	-0.003832	0.046372
H114	H	0.009543	0.908028	0.328408
H115	H	-0.271762	0.960784	-0.000003
N116	N	0.277779	0.775876	0.661150
H117	H	0.321432	0.754370	0.698072
H118	H	0.322364	0.811051	0.628440
N119	N	-0.056858	0.828496	0.581887
H120	H	-0.042885	0.829808	0.637785
H121	H	-0.098808	0.781798	0.568126
H122	H	0.009552	0.908062	0.671541
N123	N	-0.183965	0.920328	-0.000005
H124	H	-0.140770	0.932021	-0.046410
H125	H	-0.140835	0.931945	0.046435
N126	N	0.325978	0.864401	0.581869
H127	H	0.367986	0.911096	0.568138
H128	H	0.364405	0.825210	0.568147
H129	H	0.301641	0.862101	0.428499
N130	N	0.277767	0.775825	0.175065
H131	H	0.349474	0.797639	0.188771
H132	H	0.267224	0.780979	0.119179
N133	N	0.277773	0.775849	0.338854
H134	H	0.322432	0.810996	0.371534
H135	H	0.321350	0.754332	0.301895
N136	N	0.319642	0.066141	0.000063
H137	H	0.378719	0.106222	0.000089
H138	H	0.323086	0.036363	-0.046325
