data_functionalizedCrystal
_audit_creation_method	'MofGen! by Chris Wilmer'
_symmetry_space_group_name_H-M	'P1'
_symmetry_Int_Tables_number	1
_symmetry_cell_setting	triclinic
loop_
_symmetry_equiv_pos_as_xyz
  x,y,z
_cell_length_a	8.497374
_cell_length_b	19.805407
_cell_length_c	19.805405
_cell_angle_alpha	90.026410
_cell_angle_beta	89.985911
_cell_angle_gamma	89.995496
loop_
_atom_site_label
_atom_site_type_symbol
_atom_site_fract_x
_atom_site_fract_y
_atom_site_fract_z
Zn1	Zn	0.892011	-1.034635	0.269581
Zn2	Zn	0.628188	-1.034580	0.382739
Zn3	Zn	0.628226	-0.921479	0.269569
Zn4	Zn	0.891907	-0.921413	0.382733
O5	O	0.760083	-0.978027	0.326155
O6	O	0.857043	-1.129344	0.284598
O7	O	0.407431	-1.019581	0.367724
O8	O	0.663277	-0.936541	0.174854
O9	O	0.663213	-1.129303	0.367735
O10	O	0.857079	-1.019676	0.174862
O11	O	0.407458	-0.936487	0.284579
O12	O	0.663176	-0.826754	0.284573
O13	O	1.112683	-0.936428	0.367725
O14	O	0.856901	-0.826705	0.367714
O15	O	1.112760	-1.019611	0.284593
O16	O	0.663111	-1.019517	0.477455
O17	O	0.856864	-0.936374	0.477450
C18	C	0.760032	-0.802171	0.326142
C19	C	0.760048	-0.726939	0.326153
C20	C	0.760007	-0.977951	0.502011
C21	C	0.760027	-0.977980	0.577243
C22	C	0.760135	-1.154569	0.326169
C23	C	0.760157	-1.229801	0.326175
C24	C	1.171563	-0.978022	0.326156
C25	C	1.350207	-0.978023	0.326164
C26	C	0.760194	-0.978122	0.149613
C27	C	0.760241	-0.978162	0.074381
C28	C	0.860757	-0.691587	0.369510
C29	C	0.860779	-0.620899	0.369511
C30	C	0.760083	-0.585563	0.326158
C31	C	0.659369	-0.620920	0.282797
C32	C	0.659356	-0.691607	0.282793
C33	C	0.659421	-0.335847	0.282812
C34	C	0.659439	-0.265155	0.282821
C35	C	0.860844	-0.265138	0.369530
C36	C	0.860831	-0.335825	0.369526
C37	C	0.760124	-0.371176	0.326162
C38	C	0.760103	-0.447824	0.326161
C39	C	0.760095	-0.508916	0.326163
C40	C	0.659245	-1.021314	0.612567
C41	C	0.659280	-1.021343	0.683256
C42	C	0.760090	-0.978034	0.718619
C43	C	0.860882	-0.934697	0.683290
C44	C	0.860854	-0.934672	0.612603
C45	C	0.860999	-0.934797	0.968363
C46	C	0.861016	-0.934824	1.039055
C47	C	0.659425	-1.021468	1.039016
C48	C	0.659397	-1.021443	0.968329
C49	C	0.760195	-0.978109	0.933006
C50	C	0.760158	-0.978080	0.856358
C51	C	0.760120	-0.978059	0.795266
H52	H	0.942751	-0.720352	0.404815
H53	H	0.942785	-0.592118	0.404817
H54	H	0.942823	-0.364592	0.404830
H55	H	0.943119	-0.899556	1.067846
H56	H	0.942851	-0.236347	0.404836
C57	C	0.548599	-0.582053	0.235108
C58	C	0.548600	-0.504300	0.235113
C59	C	0.437823	-0.465435	0.187425
C60	C	0.327045	-0.504324	0.139732
C61	C	0.327041	-0.582081	0.139726
C62	C	0.437818	-0.620946	0.187414
H63	H	0.630607	-0.475509	0.270420
H64	H	0.437827	-0.407874	0.187431
H65	H	0.245042	-0.475553	0.104431
H66	H	0.245033	-0.610872	0.104419
H67	H	0.437814	-0.678507	0.187408
H68	H	0.577356	-0.720390	0.247484
C69	C	0.548674	-0.226284	0.235126
C70	C	0.437903	-0.265166	0.187426
C71	C	0.327143	-0.226295	0.139735
C72	C	0.327155	-0.148542	0.139746
C73	C	0.437930	-0.109655	0.187448
C74	C	0.548690	-0.148526	0.235139
H75	H	0.437891	-0.322727	0.187417
H76	H	0.245140	-0.255081	0.104423
H77	H	0.245164	-0.119767	0.104442
H78	H	0.437942	-0.052094	0.187457
H79	H	0.630693	-0.119740	0.270451
C80	C	0.548352	-1.068957	0.573671
C81	C	0.369002	-1.063506	0.583428
C82	C	0.258110	-1.111152	0.544533
C83	C	0.326567	-1.164248	0.495881
C84	C	0.505926	-1.169700	0.486122
C85	C	0.616819	-1.122055	0.525016
H86	H	0.318317	-1.024200	0.619445
H87	H	0.125336	-1.107115	0.551758
H88	H	0.244478	-1.199518	0.467089
H89	H	0.556611	-1.209007	0.450104
H90	H	0.749592	-1.126092	0.517791
H91	H	0.942970	-0.899437	0.712088
C92	C	0.548418	-1.069009	0.722116
C93	C	0.616913	-1.122142	0.770654
C94	C	0.506050	-1.169810	0.809516
C95	C	0.326691	-1.164344	0.799841
C96	C	0.258187	-1.111208	0.751301
C97	C	0.369050	-1.063540	0.712439
H98	H	0.749694	-1.126190	0.777818
H99	H	0.556763	-1.209144	0.845449
H100	H	0.244624	-1.199630	0.828609
H101	H	0.125406	-1.107160	0.744137
H102	H	0.318337	-1.024206	0.676506
C103	C	0.971858	-0.887124	0.929514
C104	C	0.971846	-0.887091	0.851761
C105	C	1.082707	-0.839415	0.812909
C106	C	1.193580	-0.791771	0.851809
C107	C	1.193596	-0.791802	0.929567
C108	C	1.082735	-0.839479	0.968419
H109	H	0.889768	-0.922361	0.822961
H110	H	1.082695	-0.839392	0.755347
H111	H	1.275645	-0.756478	0.823048
H112	H	1.275674	-0.756532	0.958367
H113	H	1.082747	-0.839502	1.025980
C114	C	0.971711	-0.887002	0.573743
C115	C	0.903220	-0.833873	0.525199
C116	C	1.014087	-0.786204	0.486340
C117	C	1.193444	-0.791665	0.496024
C118	C	1.261944	-0.844797	0.544569
C119	C	1.151078	-0.892465	0.583429
H120	H	0.770441	-0.829829	0.518029
H121	H	0.963377	-0.746873	0.450403
H122	H	1.275513	-0.756378	0.467257
H123	H	1.394723	-0.848841	0.551740
H124	H	1.201787	-0.931797	0.619366
H125	H	0.577407	-0.364621	0.247508
H126	H	0.577303	-1.056707	0.939538
H127	H	0.577357	-1.056755	1.067784
