data_functionalizedCrystal
_audit_creation_method	'MofGen! by Chris Wilmer'
_symmetry_space_group_name_H-M	'P1'
_symmetry_Int_Tables_number	1
_symmetry_cell_setting	triclinic
loop_
_symmetry_equiv_pos_as_xyz
  x,y,z
_cell_length_a	27.780867
_cell_length_b	27.780865
_cell_length_c	27.780936
_cell_angle_alpha	120.004110
_cell_angle_beta	89.999881
_cell_angle_gamma	119.999668
loop_
_atom_site_label
_atom_site_type_symbol
_atom_site_fract_x
_atom_site_fract_y
_atom_site_fract_z
O1	O	0.330206	-0.424601	-0.014326
O2	O	0.260209	-0.326029	0.014248
O3	O	0.260206	-0.424599	-0.084326
O4	O	0.330208	-0.326031	0.084248
O5	O	0.340269	-0.344535	-0.084318
O6	O	0.340271	-0.245965	0.014256
O7	O	0.410268	-0.344537	-0.014318
Zn8	Zn	0.387981	-0.282539	-0.000030
Zn9	Zn	0.282496	-0.388027	-0.000040
O10	O	0.410271	-0.245967	0.084256
C11	C	0.207592	-0.090573	0.029861
C12	C	0.237293	-0.031169	0.025768
C13	C	0.236696	-0.119398	0.030271
C14	C	0.120428	-0.177735	0.029866
C15	C	0.056933	-0.211527	0.025779
C16	C	0.149664	-0.206428	0.030277
C17	C	0.207595	-0.177733	0.029869
C18	C	0.237300	-0.211523	0.025784
C19	C	0.149661	-0.119400	0.030269
C20	C	0.261298	-0.238822	0.022484
C21	C	0.261288	0.016821	0.022460
C22	C	0.005635	-0.238828	0.022476
C23	C	0.291405	-0.273070	0.018343
C24	C	0.291391	0.077029	0.018311
C25	C	-0.058720	-0.273078	0.018333
O26	O	-0.150476	-0.326020	0.084250
O27	O	-0.179050	-0.424616	-0.084325
O28	O	-0.080480	-0.326032	0.014244
O29	O	-0.249046	-0.424603	-0.014319
O30	O	-0.080485	-0.245979	0.014236
O31	O	-0.179056	-0.344562	-0.084333
O32	O	-0.150481	-0.245967	0.084242
Zn33	Zn	-0.164769	-0.282554	-0.000047
Zn34	Zn	-0.164762	-0.388028	-0.000037
O35	O	-0.249051	-0.344550	-0.014327
C36	C	0.207593	-0.492842	-0.372408
C37	C	0.237298	-0.459049	-0.402108
C38	C	0.149660	-0.551183	-0.401515
C39	C	0.207593	-0.492842	-0.285241
C40	C	0.237298	-0.459049	-0.221743
C41	C	0.149661	-0.551183	-0.314481
C42	C	0.120424	-0.580013	-0.372415
C43	C	0.056928	-0.639423	-0.402123
C44	C	0.236697	-0.464145	-0.314474
C45	C	0.005629	-0.687419	-0.426124
C46	C	0.261295	-0.431747	-0.426103
C47	C	0.261296	-0.431747	-0.170443
C48	C	-0.058728	-0.747634	-0.456235
C49	C	0.291402	-0.397496	-0.456206
C50	C	0.291402	-0.397495	-0.106085
C51	C	0.462869	-0.580021	-0.029970
C52	C	0.433163	-0.639432	-0.025888
C53	C	0.520800	-0.551192	-0.030374
C54	C	0.462873	-0.492848	-0.029961
C55	C	0.433171	-0.459054	-0.025870
C56	C	0.520804	-0.464151	-0.030366
C57	C	0.550038	-0.492850	-0.029961
C58	C	0.613534	-0.459057	-0.025870
C59	C	0.433767	-0.551190	-0.030374
C60	C	0.664833	-0.431755	-0.022564
C61	C	0.409163	-0.687429	-0.022589
C62	C	0.409175	-0.431750	-0.022563
C63	C	0.729189	-0.397505	-0.018417
C64	C	0.379055	-0.747645	-0.018451
C65	C	0.379071	-0.397498	-0.018416
O66	O	0.410250	0.234685	-0.014359
O67	O	0.340256	0.094697	0.014218
O68	O	0.340247	0.094676	-0.084357
O69	O	0.410258	0.234707	0.084216
O70	O	0.260187	0.094674	-0.084359
O71	O	0.260195	0.094696	0.014215
O72	O	0.330189	0.234684	-0.014362
Zn73	Zn	0.282481	0.164690	-0.000074
Zn74	Zn	0.387964	0.164691	-0.000070
O75	O	0.330198	0.234706	0.084213
O76	O	-0.249059	-0.905311	-0.495050
O77	O	-0.080490	-0.765303	-0.425041
O78	O	-0.179053	-0.765301	-0.425038
O79	O	-0.150495	-0.905313	-0.495052
O80	O	-0.179056	-0.765303	-0.505099
O81	O	-0.080492	-0.765305	-0.505101
O82	O	-0.249061	-0.905313	-0.575110
Zn83	Zn	-0.164777	-0.835309	-0.552817
Zn84	Zn	-0.164774	-0.835307	-0.447334
O85	O	-0.150497	-0.905315	-0.575113
O86	O	0.330213	-0.326026	-0.575062
O87	O	0.260207	-0.424599	-0.505073
O88	O	0.260211	-0.326027	-0.505063
O89	O	0.330208	-0.424598	-0.575073
O90	O	0.340272	-0.245964	-0.424995
O91	O	0.340268	-0.344536	-0.425006
O92	O	0.410274	-0.245964	-0.494995
Zn93	Zn	0.387982	-0.282538	-0.447288
Zn94	Zn	0.282498	-0.388024	-0.552780
O95	O	0.410270	-0.344535	-0.495006
C96	C	0.550055	-0.090552	0.372344
C97	C	0.613551	-0.031141	0.402052
C98	C	0.520819	-0.119381	0.401445
C99	C	0.462885	-0.177723	0.285171
C100	C	0.433180	-0.211516	0.221673
C101	C	0.433782	-0.206419	0.314404
C102	C	0.462886	-0.177722	0.372338
C103	C	0.433182	-0.211514	0.402039
C104	C	0.520818	-0.119382	0.314411
C105	C	0.409185	-0.238816	0.426034
C106	C	0.664850	0.016855	0.426053
C107	C	0.409182	-0.238819	0.170373
C108	C	0.379079	-0.273067	0.456138
C109	C	0.729207	0.077069	0.456163
C110	C	0.379075	-0.273071	0.106015
C111	C	-0.194666	-0.580054	-0.372411
C112	C	-0.190574	-0.639460	-0.402110
C113	C	-0.195075	-0.551232	-0.401519
C114	C	-0.194672	-0.492881	-0.285246
C115	C	-0.190587	-0.459083	-0.221749
C116	C	-0.195081	-0.464192	-0.314486
C117	C	-0.194671	-0.492894	-0.372419
C118	C	-0.190585	-0.459109	-0.402127
C119	C	-0.195076	-0.551219	-0.314478
C120	C	-0.187282	-0.431813	-0.426128
C121	C	-0.187267	-0.687454	-0.426104
C122	C	-0.187286	-0.431776	-0.170450
C123	C	-0.183140	-0.397570	-0.456239
C124	C	-0.183119	-0.747665	-0.456206
C125	C	-0.183145	-0.397519	-0.106092
C126	C	-0.134860	-0.177688	0.372336
C127	C	-0.138946	-0.211473	0.402044
C128	C	-0.134457	-0.119350	0.401435
C129	C	-0.134859	-0.177701	0.285163
C130	C	-0.138944	-0.211500	0.221666
C131	C	-0.134456	-0.119363	0.314395
C132	C	-0.134865	-0.090529	0.372328
C133	C	-0.138958	-0.031123	0.402027
C134	C	-0.134450	-0.206390	0.314403
C135	C	-0.142265	0.016871	0.426021
C136	C	-0.142248	-0.238769	0.426045
C137	C	-0.142245	-0.238806	0.170367
C138	C	-0.146414	0.077081	0.456123
C139	C	-0.146390	-0.273011	0.456156
C140	C	-0.146386	-0.273063	0.106009
C141	C	0.120389	-0.177823	-0.372446
C142	C	0.056892	-0.211619	-0.402151
C143	C	0.149623	-0.206524	-0.401550
C144	C	0.207562	-0.090642	-0.285277
C145	C	0.237270	-0.031224	-0.221779
C146	C	0.236663	-0.119475	-0.314512
C147	C	0.207556	-0.177823	-0.372445
C148	C	0.237258	-0.211619	-0.402149
C149	C	0.149628	-0.119475	-0.314513
C150	C	0.261253	-0.238923	-0.426146
C151	C	0.005593	-0.238924	-0.426150
C152	C	0.261270	0.016779	-0.170479
C153	C	0.291357	-0.273178	-0.456251
C154	C	-0.058765	-0.273179	-0.456257
C155	C	0.291381	0.077002	-0.106121
O156	O	-0.150457	-0.246045	-0.495046
O157	O	-0.179035	-0.344602	-0.425040
O158	O	-0.080463	-0.246057	-0.425050
O159	O	-0.249028	-0.344590	-0.495035
O160	O	-0.080488	-0.326142	-0.505120
O161	O	-0.179060	-0.424687	-0.505109
O162	O	-0.150481	-0.326129	-0.575116
Zn163	Zn	-0.164774	-0.388123	-0.552825
Zn164	Zn	-0.164742	-0.282608	-0.447330
O165	O	-0.249053	-0.424674	-0.575105
C166	C	0.462892	0.507204	0.372302
C167	C	0.433190	0.541001	0.402006
C168	C	0.520825	0.535905	0.401406
C169	C	0.462885	0.420023	0.285133
C170	C	0.433176	0.360605	0.221635
C171	C	0.520818	0.448856	0.314369
C172	C	0.550058	0.507204	0.372302
C173	C	0.613555	0.541000	0.402007
C174	C	0.433784	0.448856	0.314369
C175	C	0.664854	0.568304	0.426004
C176	C	0.409195	0.568306	0.426003
C177	C	0.409175	0.312602	0.170336
C178	C	0.729212	0.602558	0.456111
C179	C	0.379091	0.602560	0.456109
C180	C	0.379064	0.252380	0.105978
H181	H	0.284297	-0.095264	0.030934
O182	O	-0.133761	-0.090544	0.458194
C183	C	-0.184282	-0.090266	0.461394
H184	H	-0.201667	-0.093058	0.422258
H185	H	-0.172330	-0.041437	0.504158
H186	H	-0.219699	-0.136078	0.460355
O187	O	0.377031	0.420113	0.286307
C188	C	0.373794	0.419779	0.235481
H189	H	0.418873	0.461061	0.240806
H190	H	0.340160	0.430016	0.229211
H191	H	0.359732	0.367991	0.195329
H192	H	0.126143	-0.253481	-0.449147
H193	H	0.126155	-0.095348	-0.291043
O194	O	-0.133643	-0.262378	0.286496
C195	C	-0.133400	-0.281653	0.324736
H196	H	-0.115303	-0.235828	0.372366
H197	H	-0.104400	-0.300899	0.317769
H198	H	-0.180298	-0.323819	0.314996
O199	O	0.548719	0.419956	0.286299
C200	C	0.510475	0.362177	0.228783
H201	H	0.462849	0.342291	0.226974
H202	H	0.517431	0.320895	0.216525
H203	H	0.520218	0.376624	0.196342
H204	H	0.126193	-0.253367	0.030938
H205	H	-0.195734	-0.575371	-0.449120
H206	H	0.284266	-0.095336	-0.291040
O207	O	0.121751	-0.090518	0.031074
C208	C	0.159986	-0.032758	0.031316
H209	H	0.207615	-0.012852	0.049411
H210	H	0.153018	0.008521	0.060318
H211	H	0.150243	-0.047236	-0.015584
O212	O	0.376965	-0.262356	0.286418
C213	C	0.341124	-0.247163	0.270066
H214	H	0.363412	-0.189841	0.299486
H215	H	0.296552	-0.274155	0.275381
H216	H	0.334427	-0.265205	0.222109
H217	H	0.544297	0.582855	0.449007
O218	O	-0.133779	-0.090625	0.286384
C219	C	-0.184279	-0.090309	0.283471
H220	H	-0.220235	-0.131597	0.287261
H221	H	-0.200786	-0.100548	0.239598
H222	H	-0.172652	-0.038526	0.321198
H223	H	0.544269	-0.575323	-0.031031
H224	H	-0.195727	-0.575342	-0.291004
H225	H	0.544290	-0.095242	0.449049
H226	H	0.126188	-0.575303	-0.291006
H227	H	0.386169	-0.575317	-0.031028
O228	O	0.548894	-0.090496	0.286504
C229	C	0.606412	-0.032731	0.324745
H230	H	0.608222	-0.012827	0.372375
H231	H	0.618685	0.008547	0.317780
H232	H	0.638840	-0.047200	0.315004
H233	H	0.284291	-0.417187	-0.290995
O234	O	0.121640	-0.579887	-0.458270
C235	C	0.118709	-0.532316	-0.461510
H236	H	0.122505	-0.492558	-0.416430
H237	H	0.074828	-0.559699	-0.495144
H238	H	0.156421	-0.506223	-0.475577
O239	O	0.548751	-0.408223	-0.031255
C240	C	0.517192	-0.423439	-0.082296
H241	H	0.489289	-0.480763	-0.117321
H242	H	0.549491	-0.396459	-0.099889
H243	H	0.487277	-0.405399	-0.070953
O244	O	-0.195898	-0.408211	-0.286416
C245	C	-0.196149	-0.388926	-0.228897
H246	H	-0.214236	-0.434743	-0.227087
H247	H	-0.225160	-0.369695	-0.216634
H248	H	-0.149254	-0.346746	-0.196462
