data_functionalizedCrystal
_audit_creation_method	'MofGen! by Chris Wilmer'
_symmetry_space_group_name_H-M	'P1'
_symmetry_Int_Tables_number	1
_symmetry_cell_setting	triclinic
loop_
_symmetry_equiv_pos_as_xyz
  x,y,z
_cell_length_a	17.640112
_cell_length_b	16.994747
_cell_length_c	17.640968
_cell_angle_alpha	101.211591
_cell_angle_beta	87.860920
_cell_angle_gamma	101.231708
loop_
_atom_site_label
_atom_site_type_symbol
_atom_site_fract_x
_atom_site_fract_y
_atom_site_fract_z
Zn1	Zn	1.247784	-0.022661	0.195088
Zn2	Zn	1.222059	-0.185380	0.068161
Zn3	Zn	1.095130	-0.073965	0.093751
Zn4	Zn	1.120797	-0.174998	0.220739
O5	O	1.171443	-0.114251	0.144435
O6	O	1.350637	-0.027120	0.156806
O7	O	1.183714	-0.196416	-0.034709
O8	O	1.115405	0.043222	0.107168
O9	O	1.331736	-0.146669	0.063553
O10	O	1.227559	0.080914	0.181620
O11	O	1.090460	-0.114560	-0.015908
O12	O	0.992271	-0.104493	0.132041
O13	O	1.159150	-0.128975	0.323601
O14	O	1.011128	-0.178722	0.225339
O15	O	1.252447	-0.017053	0.304755
O16	O	1.208602	-0.294384	0.088426
O17	O	1.134205	-0.286756	0.200525
C18	C	0.974146	-0.146049	0.184251
C19	C	0.889745	-0.159666	0.201303
C20	C	1.171406	-0.319190	0.144478
C21	C	1.171411	-0.408511	0.144474
Zn22	Zn	1.095148	-0.705053	0.093725
Zn23	Zn	1.247811	-0.653729	0.195047
Zn24	Zn	1.120820	-0.542389	0.220721
Zn25	Zn	1.222068	-0.552639	0.068133
O26	O	1.171462	-0.613452	0.144407
O27	O	1.115429	-0.808627	0.107132
O28	O	1.252484	-0.613190	0.304715
O29	O	1.011152	-0.581157	0.225330
O30	O	1.227590	-0.770919	0.181573
O31	O	0.992291	-0.700665	0.132027
O32	O	1.159184	-0.531390	0.323578
O33	O	1.134221	-0.433367	0.200514
O34	O	1.183714	-0.598626	-0.034734
O35	O	1.208607	-0.440897	0.088408
O36	O	1.090466	-0.710604	-0.015932
O37	O	1.350659	-0.623129	0.156757
O38	O	1.331745	-0.548858	0.063513
C39	C	0.563042	-0.010783	0.014902
C40	C	0.483737	-0.023592	0.030935
C41	C	0.503393	-0.101066	0.127918
C42	C	0.582702	-0.088260	0.111896
C43	C	0.612520	-0.043118	0.055386
C44	C	0.632180	-0.120595	0.152380
C45	C	0.711482	-0.107793	0.136356
C46	C	0.741305	-0.062656	0.079848
C47	C	0.691821	-0.030316	0.039362
C48	C	0.602360	-0.165741	0.208886
C49	C	0.651838	-0.198077	0.249370
C50	C	0.731142	-0.185270	0.233350
C51	C	0.760966	-0.140133	0.176842
C52	C	0.780626	-0.217610	0.273836
C53	C	0.859927	-0.204808	0.257812
C54	C	0.840267	-0.127331	0.160818
C55	C	1.369510	-0.082330	0.104463
C56	C	1.453914	-0.068727	0.087430
C57	C	1.211531	-0.066133	0.342501
C58	C	1.228614	-0.045628	0.426905
C59	C	1.171483	0.091488	0.144386
C60	C	1.171503	0.180809	0.144365
C61	C	1.131554	-0.162118	-0.052870
C62	C	1.114618	-0.182377	-0.137304
C63	C	1.041954	-0.269549	0.753555
C64	C	1.058023	-0.250269	0.832862
C65	C	1.155164	-0.133735	0.813229
C66	C	1.139102	-0.153003	0.733919
C67	C	1.082496	-0.220912	0.704088
C68	C	1.179644	-0.104366	0.684452
C69	C	1.163585	-0.123635	0.605149
C70	C	1.106984	-0.191542	0.575311
C71	C	1.066437	-0.240181	0.624784
C72	C	1.236253	-0.036461	0.714284
C73	C	1.276795	0.012176	0.664817
C74	C	1.260732	-0.007089	0.585513
C75	C	1.204131	-0.074996	0.555676
C76	C	1.301279	0.041550	0.536040
C77	C	1.285220	0.022280	0.456736
C78	C	1.188072	-0.094265	0.476372
C79	C	1.368755	-0.581538	0.104574
C80	C	1.453163	-0.567903	0.087556
C81	C	1.131355	-0.661483	-0.053656
C82	C	1.114263	-0.681951	-0.138059
C83	C	0.973398	-0.645493	0.184397
C84	C	0.888996	-0.659147	0.201438
C85	C	1.211359	-0.565662	0.341710
C86	C	1.228238	-0.545379	0.426155
C87	C	1.502619	-0.600228	0.128076
C88	C	1.581929	-0.587432	0.112085
C89	C	1.611782	-0.542305	0.055578
C90	C	1.562319	-0.509979	0.015054
C91	C	1.483010	-0.522781	0.031041
C92	C	1.057681	-0.749866	-0.167908
C93	C	1.041607	-0.769101	-0.247210
C94	C	1.082120	-0.720422	-0.296662
C95	C	1.138705	-0.652499	-0.266807
C96	C	1.154774	-0.633263	-0.187506
C97	C	0.859175	-0.603332	0.258020
C98	C	0.779870	-0.616145	0.274033
C99	C	0.730387	-0.684777	0.233466
C100	C	0.760212	-0.740595	0.176878
C101	C	0.839515	-0.727778	0.160862
C102	C	1.187930	-0.492851	0.475529
C103	C	1.203775	-0.473795	0.554877
C104	C	1.259933	-0.507263	0.584848
C105	C	1.300242	-0.559798	0.535468
C106	C	1.284392	-0.578858	0.456123
H107	H	0.805878	-0.052236	0.066801
O108	O	1.253571	-0.015670	0.799820
H109	H	1.273129	-0.067612	0.817654
H110	H	1.442748	-0.496450	-0.001955
O111	O	0.644852	-0.698599	0.250743
H112	H	0.635551	-0.704034	0.312236
O113	O	1.697324	-0.528503	0.038338
H114	H	1.729816	-0.495342	0.091419
H115	H	1.171686	-0.612870	-0.307083
O116	O	1.014285	-0.302723	0.886222
H117	H	1.024206	-0.366232	0.868388
H118	H	0.479104	-0.137823	0.173926
H119	H	1.093913	-0.207232	0.510736
O120	O	1.277093	-0.486698	0.670416
H121	H	1.223890	-0.506486	0.702799
H122	H	0.863788	-0.773235	0.114790
H123	H	1.322885	0.067465	0.689116
O124	O	1.013973	-0.802375	-0.114582
H125	H	0.982655	-0.764549	-0.070638
H126	H	0.537787	-0.176163	0.221930
H127	H	0.995842	-0.324831	0.729269
H128	H	0.864548	-0.090558	0.114814
H129	H	1.200852	-0.577962	-0.163210
H130	H	0.716103	0.006457	-0.006642
O131	O	1.594531	-0.461303	-0.045886
H132	H	1.567270	-0.491686	-0.102440
H133	H	0.587323	0.025990	-0.031103
O134	O	0.980561	-0.842347	-0.279400
H135	H	0.955097	-0.872962	-0.231687
H136	H	1.345965	-0.587045	0.559884
O137	O	0.748431	-0.266326	0.334752
H138	H	0.760995	-0.328939	0.318543
O139	O	0.430368	0.011292	-0.012728
H140	H	0.464429	0.044836	-0.054709
H141	H	1.170949	-0.431015	0.595071
H142	H	0.627549	-0.234834	0.295378
O143	O	1.635272	-0.622288	0.155806
H144	H	1.601186	-0.655801	0.197794
O145	O	1.216195	-0.060474	0.845408
H146	H	1.220542	-0.055236	0.908866
H147	H	1.317223	-0.621627	0.415927
H148	H	0.900214	-0.231137	0.290779
O149	O	0.706838	-0.814621	0.133128
H150	H	0.646688	-0.814152	0.153783
H151	H	1.069028	-0.736096	-0.361233
O152	O	1.362315	0.114805	0.568220
H153	H	1.366663	0.120039	0.631677
O154	O	1.127357	-0.456751	0.443211
H155	H	1.101991	-0.417032	0.490885
H156	H	0.899455	-0.547442	0.291059
H157	H	0.755599	-0.570688	0.320113
H158	H	1.020325	-0.295463	0.600499
O159	O	1.127013	-0.167504	0.444187
H160	H	1.143101	-0.223619	0.456785
H161	H	1.478325	-0.636973	0.174091
O162	O	1.328940	0.074738	0.403375
H163	H	1.370993	0.125201	0.437442
