data_functionalizedCrystal
_audit_creation_method	'MofGen! by Chris Wilmer'
_symmetry_space_group_name_H-M	'P1'
_symmetry_Int_Tables_number	1
_symmetry_cell_setting	triclinic
loop_
_symmetry_equiv_pos_as_xyz
  x,y,z
_cell_length_a	13.635800
_cell_length_b	13.563541
_cell_length_c	9.582880
_cell_angle_alpha	73.390787
_cell_angle_beta	111.207034
_cell_angle_gamma	75.295376
loop_
_atom_site_label
_atom_site_type_symbol
_atom_site_fract_x
_atom_site_fract_y
_atom_site_fract_z
V1	V	2.080491	-0.153083	0.529815
O2	O	2.050058	0.007838	0.454483
O3	O	2.077826	-0.304002	0.588943
O4	O	2.075506	-0.150517	0.732256
O5	O	2.052394	-0.146709	0.310177
V6	V	2.317024	-0.133860	0.495921
O7	O	2.222588	-0.195251	0.604163
O8	O	2.400026	-0.091693	0.421573
O9	O	2.208086	0.017058	0.436793
O10	O	2.406156	-0.294782	0.571253
O11	O	2.403819	-0.140234	0.715558
O12	O	2.210406	-0.136426	0.293480
V13	V	2.580491	-0.153083	0.529815
O14	O	2.550058	0.007838	0.454483
O15	O	2.577826	-0.304002	0.588943
O16	O	2.575506	-0.150517	0.732256
O17	O	2.552394	-0.146709	0.310177
V18	V	2.817024	-0.133860	0.495921
O19	O	2.722588	-0.195251	0.604163
O20	O	2.900026	-0.091693	0.421573
O21	O	2.708086	0.017058	0.436793
O22	O	2.906156	-0.294782	0.571253
O23	O	2.903819	-0.140234	0.715558
O24	O	2.710406	-0.136426	0.293480
C25	C	2.004944	-0.340799	0.596777
C26	C	2.043537	-0.464176	0.646470
C27	C	2.009939	-0.749103	0.212387
C28	C	1.973672	-0.633184	0.165694
C29	C	1.991136	-0.590926	0.285884
C30	C	2.044872	-0.664599	0.452775
C31	C	2.081135	-0.780529	0.499472
C32	C	2.062332	-0.622352	0.572969
C33	C	2.116067	-0.696025	0.739860
C34	C	2.152327	-0.811943	0.786549
C35	C	2.134862	-0.854201	0.666359
C36	C	2.026069	-0.506422	0.526272
C37	C	2.097264	-0.537848	0.813357
C38	C	2.133532	-0.653767	0.860050
C39	C	2.001983	-0.145013	0.779584
C40	C	2.038692	-0.143913	0.945493
C41	C	2.112639	0.053850	0.428957
C42	C	2.063667	0.177225	0.379274
C43	C	2.115599	-0.141934	0.246145
C44	C	2.068509	-0.143028	0.080232
C45	C	2.504944	-0.340799	0.596777
C46	C	2.543537	-0.464176	0.646470
C47	C	2.501983	-0.145013	0.779584
C48	C	2.538692	-0.143913	0.945493
C49	C	2.612639	0.053850	0.428957
C50	C	2.563667	0.177225	0.379274
C51	C	2.615599	-0.141934	0.246145
C52	C	2.568509	-0.143028	0.080232
C53	C	2.654266	-0.527766	0.679618
C54	C	2.690548	-0.643695	0.726334
C55	C	2.616097	-0.696030	0.739891
C56	C	2.505359	-0.632431	0.706745
C57	C	2.469082	-0.516506	0.660040
C58	C	2.625432	0.240815	0.346131
C59	C	2.579422	0.356743	0.299422
C60	C	2.471651	0.409078	0.285868
C61	C	2.409881	0.345480	0.319010
C62	C	2.455887	0.229555	0.365707
H63	H	1.961599	-0.496538	0.247855
O64	O	2.361456	-0.454897	0.627813
C65	C	2.303544	-0.525963	0.649833
H66	H	2.344206	-0.604795	0.636160
H67	H	2.310247	-0.550379	0.778108
C68	C	2.126362	-0.367295	0.535871
C69	C	2.176298	-0.464115	0.519064
H70	H	2.047869	-0.329144	0.455212
H71	H	2.165378	-0.319416	0.521041
H72	H	2.131958	-0.387656	0.642772
H73	H	2.170714	-0.443752	0.412173
H74	H	2.137277	-0.511989	0.533873
O75	O	1.921421	-0.561464	0.003658
C76	C	1.893185	-0.450088	-0.011783
H77	H	1.886662	-0.445797	0.101796
H78	H	1.962701	-0.421415	-0.023212
C79	C	1.785258	-0.378229	-0.306136
C80	C	1.777237	-0.372956	-0.166642
H81	H	1.713739	-0.330648	-0.401663
H82	H	1.804284	-0.453265	-0.295735
H83	H	1.843193	-0.354337	-0.315638
H84	H	1.719314	-0.396862	-0.157130
H85	H	1.758198	-0.297922	-0.177045
O86	O	2.730112	0.190177	0.359133
C87	C	2.774753	0.271177	0.319888
H88	H	2.701356	0.357611	0.239635
H89	H	2.835817	0.271415	0.438230
C90	C	2.930324	0.136418	0.324136
C91	C	2.840175	0.242577	0.225556
H92	H	2.970684	0.118774	0.265954
H93	H	2.900252	0.081845	0.350582
H94	H	2.981198	0.136629	0.422748
H95	H	2.789295	0.242360	0.126956
H96	H	2.870240	0.297149	0.199091
H97	H	2.629735	0.408508	0.272445
O98	O	2.798033	-0.705548	0.758331
C99	C	2.790732	-0.757992	0.649525
H100	H	2.704509	-0.765514	0.602588
H101	H	2.798735	-0.705632	0.540844
C102	C	2.994318	-0.866612	0.798536
C103	C	2.888421	-0.875859	0.740898
H104	H	3.054580	-0.939316	0.854895
H105	H	2.999239	-0.831277	0.871838
H106	H	3.000971	-0.822974	0.707956
H107	H	2.881764	-0.919485	0.831479
H108	H	2.883502	-0.911204	0.667614
O109	O	2.204495	-0.883663	0.948587
C110	C	2.232782	-0.995042	0.964030
H111	H	2.174980	-0.995412	0.843648
H112	H	2.326250	-1.033648	0.992696
C113	C	2.286494	-1.063600	1.252650
C114	C	2.215494	-1.064055	1.104798
H115	H	2.275836	-1.106173	1.339486
H116	H	2.267442	-0.988563	1.242248
H117	H	2.364378	-1.095769	1.276515
H118	H	2.137612	-1.031874	1.080924
H119	H	2.234534	-1.139089	1.115199
O120	O	2.427022	0.521718	0.240290
C121	C	2.415068	0.578463	0.082928
H122	H	2.476714	0.519917	0.058646
H123	H	2.323165	0.605936	-0.014662
C124	C	2.367171	0.754327	0.105487
C125	C	2.442892	0.682423	0.075669
H126	H	2.384329	0.818457	0.101004
H127	H	2.375220	0.716098	0.211502
H128	H	2.290592	0.777209	0.024158
H129	H	2.519468	0.659531	0.157009
H130	H	2.434856	0.720651	-0.030334
O131	O	2.305142	0.396475	0.305587
C132	C	2.230388	0.478108	0.142785
H133	H	2.282738	0.505327	0.081807
H134	H	2.176112	0.441119	0.070122
C135	C	2.087033	0.547048	0.220370
C136	C	2.151331	0.580486	0.145480
H137	H	2.038263	0.610198	0.222030
H138	H	2.137394	0.492048	0.330052
H139	H	2.041813	0.516223	0.159808
H140	H	2.196559	0.611298	0.206054
H141	H	2.100975	0.635494	0.035808
O142	O	1.973697	-0.434811	0.364168
C143	C	1.862627	-0.361431	0.319258
H144	H	1.832260	-0.401525	0.408277
H145	H	1.864596	-0.279005	0.324525
C146	C	1.816956	-0.289216	0.033499
C147	C	1.779655	-0.338464	0.142826
H148	H	1.765774	-0.275043	-0.075335
H149	H	1.891787	-0.338650	0.063755
H150	H	1.818596	-0.220533	0.037908
H151	H	1.778028	-0.407152	0.138430
H152	H	1.704821	-0.289041	0.112564
O153	O	2.185874	-0.725458	1.022125
C154	C	2.296962	-0.798795	1.067030
H155	H	2.300814	-0.804299	0.952496
H156	H	2.362158	-0.765631	1.126394
C157	C	2.320302	-0.909508	1.331282
C158	C	2.325031	-0.916275	1.190611
H159	H	2.337620	-0.981974	1.407518
H160	H	2.245462	-0.860097	1.301033
H161	H	2.374632	-0.881867	1.380732
H162	H	2.270692	-0.943902	1.141153
H163	H	2.399863	-0.965693	1.220855
O164	O	2.726487	-0.476858	0.666157
C165	C	2.677234	-0.395199	0.503370
H166	H	2.611986	-0.416499	0.416556
H167	H	2.632516	-0.309199	0.496173
C168	C	2.852120	-0.367235	0.559173
C169	C	2.771988	-0.393402	0.452544
H170	H	2.910568	-0.366122	0.527821
H171	H	2.885302	-0.422247	0.668847
H172	H	2.814841	-0.295571	0.553165
H173	H	2.809265	-0.465071	0.458568
H174	H	2.738815	-0.338402	0.342869
H175	H	1.995720	-0.783521	0.114546
H176	H	2.164398	-0.948591	0.704369
H177	H	2.405586	0.177787	0.392704
H178	H	2.111484	-0.503443	0.911226
O179	O	2.651362	-0.808667	0.785529
C180	C	2.646488	-0.859241	0.932111
H181	H	2.650840	-0.802968	1.000693
H182	H	2.562673	-0.871426	0.900828
C183	C	2.743158	-1.043157	0.957612
C184	C	2.748514	-0.974045	1.041853
H185	H	2.806089	-1.113975	1.025304
H186	H	2.746439	-1.009085	0.858854
H187	H	2.673308	-1.053298	0.931548
H188	H	2.818356	-0.963894	1.067897
H189	H	2.745247	-1.008118	1.140618
H190	H	2.444749	-0.675060	0.717791
