data_functionalizedCrystal
_audit_creation_method	'MofGen! by Chris Wilmer'
_symmetry_space_group_name_H-M	'P1'
_symmetry_Int_Tables_number	1
_symmetry_cell_setting	triclinic
loop_
_symmetry_equiv_pos_as_xyz
  x,y,z
_cell_length_a	15.944493
_cell_length_b	23.532407
_cell_length_c	14.421503
_cell_angle_alpha	89.999621
_cell_angle_beta	89.992936
_cell_angle_gamma	83.161861
loop_
_atom_site_label
_atom_site_type_symbol
_atom_site_fract_x
_atom_site_fract_y
_atom_site_fract_z
O1	O	1.113942	0.073285	-0.077109
O2	O	1.447275	0.406618	0.256224
O3	O	1.780609	0.739951	0.589558
O4	O	0.869309	0.082375	-0.077115
O5	O	1.202642	0.415708	0.256219
O6	O	1.535976	0.749042	0.589552
O7	O	0.999003	-0.005074	-0.077095
O8	O	1.332336	0.328259	0.256239
O9	O	1.665669	0.661592	0.589572
O10	O	0.984249	0.160734	-0.077129
O11	O	1.317582	0.494067	0.256204
O12	O	1.650915	0.827401	0.589538
O13	O	0.998981	-0.005061	0.077129
O14	O	1.332314	0.328272	0.410462
O15	O	1.665648	0.661605	0.743795
O16	O	0.869288	0.082388	0.077109
O17	O	1.202621	0.415721	0.410442
O18	O	1.535954	0.749055	0.743775
O19	O	1.113921	0.073298	0.077114
O20	O	1.447254	0.406631	0.410448
O21	O	1.780587	0.739964	0.743781
Cu22	Cu	0.991602	0.077844	0.091193
Cu23	Cu	1.324935	0.411177	0.424527
Cu24	Cu	1.658269	0.744511	0.757860
Cu25	Cu	0.991628	0.077829	-0.091194
Cu26	Cu	1.324961	0.411162	0.242140
Cu27	Cu	1.658294	0.744495	0.575473
O28	O	0.984227	0.160747	0.077094
O29	O	1.317561	0.494080	0.410428
O30	O	1.650894	0.827414	0.743761
C31	C	0.838007	0.082010	-0.000004
C32	C	1.171340	0.415343	0.333330
C33	C	1.504673	0.748677	0.666663
C34	C	0.744768	0.080896	-0.000005
C35	C	1.078101	0.414229	0.333328
C36	C	1.411434	0.747563	0.666662
C37	C	0.998616	-0.026285	0.000019
C38	C	1.331949	0.307048	0.333353
C39	C	1.665283	0.640381	0.666686
C40	C	0.997486	-0.089506	0.000026
C41	C	1.330820	0.243827	0.333360
C42	C	1.664153	0.577160	0.666693
C43	C	0.508574	0.132371	-0.000016
C44	C	0.841907	0.465704	0.333317
C45	C	1.175241	0.799037	0.666650
C46	C	0.458239	0.104619	0.076034
C47	C	0.791572	0.437952	0.409367
C48	C	1.124906	0.771285	0.742700
C49	C	0.574064	0.078832	-0.000003
C50	C	0.907397	0.412165	0.333331
C51	C	1.240731	0.745499	0.666664
C52	C	0.458265	0.104593	-0.076019
C53	C	0.791598	0.437927	0.257315
C54	C	1.124931	0.771260	0.590648
C55	C	0.409171	0.076843	-0.000005
C56	C	0.742504	0.410176	0.333329
C57	C	1.075838	0.743509	0.666662
C58	C	0.524957	0.051095	0.076110
C59	C	0.858290	0.384428	0.409443
C60	C	1.191624	0.717761	0.742777
C61	C	0.524986	0.051077	-0.076011
C62	C	0.858319	0.384410	0.257323
C63	C	1.191653	0.717744	0.590656
C64	C	0.474684	0.023286	0.000058
C65	C	0.808018	0.356619	0.333391
C66	C	1.141351	0.689953	0.666725
C67	C	0.669054	0.079980	-0.000001
C68	C	1.002387	0.413313	0.333332
C69	C	1.335721	0.746647	0.666666
C70	C	0.314184	0.075691	0.000000
C71	C	0.647517	0.409024	0.333333
C72	C	0.980850	0.742357	0.666667
C73	C	1.067151	-0.488350	-0.000023
C74	C	1.400485	-0.155016	0.333311
C75	C	1.733818	0.178317	0.666644
C76	C	1.066102	-0.547754	-0.000030
C77	C	1.399435	-0.214420	0.333304
C78	C	1.732769	0.118913	0.666637
O79	O	1.130682	-0.584257	-0.000063
O80	O	1.464015	-0.250924	0.333271
O81	O	1.797349	0.082409	0.666604
N82	N	0.988999	-0.570668	-0.000031
N83	N	1.322333	-0.237334	0.333302
N84	N	1.655666	0.095999	0.666636
C85	C	0.912941	-0.534174	-0.000034
C86	C	1.246274	-0.200841	0.333299
C87	C	1.579608	0.132493	0.666632
O88	O	0.847263	-0.559119	-0.000037
O89	O	1.180596	-0.225785	0.333296
O90	O	1.513930	0.107548	0.666630
C91	C	0.913991	-0.474771	-0.000034
C92	C	1.247325	-0.141438	0.333299
C93	C	1.580658	0.191896	0.666633
C94	C	0.991099	-0.451861	-0.000023
C95	C	1.324432	-0.118527	0.333310
C96	C	1.657766	0.214806	0.666643
C97	C	1.144253	-0.465439	-0.000013
C98	C	1.477586	-0.132105	0.333320
C99	C	1.810919	0.201228	0.666653
C100	C	1.145302	-0.406038	-0.000004
C101	C	1.478635	-0.072705	0.333329
C102	C	1.811968	0.260628	0.666662
C103	C	1.069249	-0.369549	-0.000005
C104	C	1.402583	-0.036216	0.333328
C105	C	1.735916	0.297117	0.666661
C106	C	0.992148	-0.392460	-0.000015
C107	C	1.325481	-0.059127	0.333319
C108	C	1.658815	0.274206	0.666652
C109	C	0.837934	-0.438278	-0.000044
C110	C	1.171267	-0.104945	0.333289
C111	C	1.504601	0.228388	0.666622
C112	C	0.838991	-0.378872	-0.000044
C113	C	1.172324	-0.045539	0.333289
C114	C	1.505657	0.287795	0.666622
C115	C	0.916098	-0.355962	-0.000034
C116	C	1.249432	-0.022628	0.333299
C117	C	1.582765	0.310705	0.666633
C118	C	0.917144	-0.296571	-0.000007
C119	C	1.250478	0.036762	0.333327
C120	C	1.583811	0.370095	0.666660
N121	N	0.994247	-0.273657	-0.000005
N122	N	1.327580	0.059676	0.333328
N123	N	1.660914	0.393009	0.666661
C124	C	1.070300	-0.310146	-0.000005
C125	C	1.403633	0.023187	0.333329
C126	C	1.736966	0.356520	0.666662
C127	C	0.910741	-0.658925	-0.000037
C128	C	1.244075	-0.325591	0.333296
C129	C	1.577408	0.007742	0.666630
C130	C	0.909690	-0.718327	-0.000031
C131	C	1.243024	-0.384993	0.333303
C132	C	1.576357	-0.051660	0.666636
C133	C	1.062852	-0.731902	-0.000028
C134	C	1.396185	-0.398569	0.333305
C135	C	1.729518	-0.065236	0.666639
C136	C	1.063902	-0.672499	-0.000027
C137	C	1.397235	-0.339166	0.333306
C138	C	1.730569	-0.005833	0.666639
C139	C	0.987844	-0.636011	-0.000036
C140	C	1.321177	-0.302677	0.333297
C141	C	1.654511	0.030656	0.666631
C142	C	1.072497	-0.185401	0.000015
C143	C	1.405830	0.147932	0.333348
C144	C	1.739163	0.481265	0.666681
C145	C	1.073539	-0.125996	0.000027
C146	C	1.406872	0.207338	0.333360
C147	C	1.740206	0.540671	0.666694
C148	C	0.920378	-0.112425	0.000019
C149	C	1.253711	0.220908	0.333353
C150	C	1.587045	0.554242	0.666686
C151	C	0.919335	-0.171826	0.000012
C152	C	1.252669	0.161508	0.333345
C153	C	1.586002	0.494841	0.666678
C154	C	0.995402	-0.208313	0.000006
C155	C	1.328735	0.125020	0.333339
C156	C	1.662068	0.458354	0.666673
O157	O	0.852598	-0.260033	0.000022
O158	O	1.185932	0.073300	0.333356
O159	O	1.519265	0.406634	0.666689
O160	O	1.135967	-0.285193	-0.000014
O161	O	1.469300	0.048140	0.333319
O162	O	1.802634	0.381473	0.666652
C163	C	1.145223	0.073663	0.000001
C164	C	1.478556	0.406996	0.333334
C165	C	1.811890	0.740329	0.666668
C166	C	1.238462	0.074777	-0.000003
C167	C	1.571796	0.408110	0.333330
C168	C	1.905129	0.741443	0.666663
C169	C	0.984614	0.181958	-0.000022
C170	C	1.317947	0.515291	0.333312
C171	C	1.651280	0.848625	0.666645
C172	C	0.985743	0.245179	-0.000035
C173	C	1.319077	0.578513	0.333298
C174	C	1.652410	0.911846	0.666632
N175	N	0.991590	0.077855	0.219475
N176	N	1.324924	0.411188	0.552808
N177	N	1.658257	0.744521	0.886141
N178	N	0.991646	0.077814	-0.219475
N179	N	1.324979	0.411147	0.113858
N180	N	1.658313	0.744480	0.447192
C181	C	0.931610	0.118273	0.469119
C182	C	1.264943	0.451606	0.802452
C183	C	1.598277	0.784940	1.135786
C184	C	1.007419	0.129319	0.530921
C185	C	1.340752	0.462652	0.864254
C186	C	1.674086	0.795985	1.197587
C187	C	0.991611	0.077841	0.408636
C188	C	1.324944	0.411174	0.741969
C189	C	1.658278	0.744508	1.075303
C190	C	0.915821	0.066808	0.530928
C191	C	1.249155	0.400142	0.864262
C192	C	1.582488	0.733475	1.197595
C193	C	0.991624	0.077829	0.591357
C194	C	1.324957	0.411162	0.924691
C195	C	1.658291	0.744496	1.258024
C196	C	1.067458	0.088912	0.469077
C197	C	1.400791	0.422246	0.802410
C198	C	1.734125	0.755579	1.135744
C199	C	0.975811	0.026380	0.469079
C200	C	1.309144	0.359713	0.802412
C201	C	1.642478	0.693046	1.135746
C202	C	1.051675	0.037404	0.530853
C203	C	1.385008	0.370737	0.864186
C204	C	1.718342	0.704070	1.197519
C205	C	0.991602	0.077849	0.303375
C206	C	1.324936	0.411183	0.636708
C207	C	1.658269	0.744516	0.970042
C208	C	0.991641	0.077820	0.696616
C209	C	1.324975	0.411154	1.029950
C210	C	1.658308	0.744487	1.363283
H211	H	0.523809	0.178488	0.000045
H212	H	0.857142	0.511822	0.333379
H213	H	1.190476	0.845155	0.666712
H214	H	0.962411	-0.017121	0.441894
H215	H	1.295744	0.316213	0.775227
H216	H	1.629078	0.649546	1.108561
Cl217	Cl	0.451396	-0.047967	0.000140
Cl218	Cl	0.784730	0.285366	0.333473
Cl219	Cl	1.118063	0.618699	0.666807
H220	H	1.208091	-0.387391	0.000000
H221	H	1.541424	-0.054057	0.333334
H222	H	1.874757	0.279276	0.666667
Cl223	Cl	0.816859	0.052408	0.572877
Cl224	Cl	1.150192	0.385741	0.906210
Cl225	Cl	1.483525	0.719075	1.239543
Cl226	Cl	0.413251	0.139534	0.175282
Cl227	Cl	0.746584	0.472867	0.508616
Cl228	Cl	1.079918	0.806201	0.841949
H229	H	1.102477	0.003205	0.557788
H230	H	1.435810	0.336538	0.891122
H231	H	1.769143	0.669871	1.224455
H232	H	1.131571	0.098291	0.442023
H233	H	1.464904	0.431624	0.775356
H234	H	1.798238	0.764957	1.108689
H235	H	0.846902	-0.736975	-0.000023
H236	H	1.180235	-0.403641	0.333310
H237	H	1.513568	-0.070308	0.666643
Cl238	Cl	0.569739	0.016217	0.175477
Cl239	Cl	0.903073	0.349551	0.508810
Cl240	Cl	1.236406	0.682884	0.842143
Cl241	Cl	0.570000	0.016193	-0.175266
Cl242	Cl	0.903334	0.349526	0.158068
Cl243	Cl	1.236667	0.682859	0.491401
H244	H	0.429145	0.127209	-0.140304
H245	H	0.762478	0.460542	0.193030
H246	H	1.095811	0.793876	0.526363
H247	H	1.136332	-0.107346	0.000038
H248	H	1.469665	0.225988	0.333371
H249	H	1.802999	0.559321	0.666705
H250	H	1.134437	-0.215103	0.000006
H251	H	1.467770	0.118230	0.333340
H252	H	1.801104	0.451564	0.666673
Cl253	Cl	0.740992	-0.467065	-0.000064
Cl254	Cl	1.074326	-0.133732	0.333270
Cl255	Cl	1.407659	0.199602	0.666603
H256	H	1.206187	-0.495143	-0.000016
H257	H	1.539521	-0.161809	0.333317
H258	H	1.872854	0.171524	0.666651
H259	H	1.126690	-0.653850	-0.000020
H260	H	1.460023	-0.320517	0.333314
H261	H	1.793356	0.012817	0.666647
H262	H	1.124778	-0.761623	-0.000031
H263	H	1.458111	-0.428289	0.333302
H264	H	1.791444	-0.094956	0.666636
Cl265	Cl	0.853350	0.171102	0.427263
Cl266	Cl	1.186683	0.504436	0.760596
Cl267	Cl	1.520017	0.837769	1.093929
H268	H	0.848802	-0.629218	-0.000036
H269	H	1.182135	-0.295885	0.333297
H270	H	1.515469	0.037448	0.666631
Cl271	Cl	0.743369	-0.333004	-0.000056
Cl272	Cl	1.076702	0.000329	0.333277
Cl273	Cl	1.410035	0.333663	0.666611
H274	H	0.856548	-0.190480	0.000029
H275	H	1.189881	0.142853	0.333362
H276	H	1.523215	0.476187	0.666695
H277	H	0.858458	-0.082705	0.000022
H278	H	1.191792	0.250628	0.333355
H279	H	1.525125	0.583962	0.666689
H280	H	1.020795	0.172833	0.558084
H281	H	1.354128	0.506166	0.891418
H282	H	1.687462	0.839500	1.224751
