data_functionalizedCrystal
_audit_creation_method	'MofGen! by Chris Wilmer'
_symmetry_space_group_name_H-M	'P1'
_symmetry_Int_Tables_number	1
_symmetry_cell_setting	triclinic
loop_
_symmetry_equiv_pos_as_xyz
  x,y,z
_cell_length_a	12.759401
_cell_length_b	12.759400
_cell_length_c	12.759393
_cell_angle_alpha	90.031769
_cell_angle_beta	89.982620
_cell_angle_gamma	89.985155
loop_
_atom_site_label
_atom_site_type_symbol
_atom_site_fract_x
_atom_site_fract_y
_atom_site_fract_z
Zn1	Zn	1.606244	0.418198	-0.593981
Zn2	Zn	1.606142	0.593917	-0.418301
Zn3	Zn	1.430549	0.418253	-0.418321
Zn4	Zn	1.430535	0.593836	-0.593943
O5	O	1.518367	0.506051	-0.506137
O6	O	1.753251	0.441518	-0.570685
O7	O	1.582812	0.570672	-0.271283
O8	O	1.453905	0.271225	-0.441647
O9	O	1.753176	0.570618	-0.441614
O10	O	1.582987	0.271184	-0.570704
O11	O	1.453805	0.441613	-0.271297
O12	O	1.283526	0.441534	-0.441609
O13	O	1.453879	0.570480	-0.740969
O14	O	1.283516	0.570533	-0.570638
O15	O	1.582972	0.441439	-0.740997
O16	O	1.582798	0.740927	-0.441577
O17	O	1.453780	0.740868	-0.570620
C18	C	1.518305	0.779018	-0.506115
C19	C	1.518374	0.895795	-0.506140
C20	C	1.245400	0.506032	-0.506122
C21	C	1.128623	0.506049	-0.506141
C22	C	1.518436	0.505944	-0.780170
C23	C	1.518465	0.505898	-0.896947
C24	C	1.073783	0.573326	-0.573215
C25	C	0.964059	0.573340	-0.573227
C26	C	0.964025	0.438795	-0.439081
C27	C	1.073747	0.438777	-0.439075
C28	C	1.128659	0.640598	-0.640281
C29	C	1.073819	0.707882	-0.707360
C30	C	0.964095	0.707895	-0.707371
C31	C	0.909211	0.640625	-0.640304
C32	C	1.792401	0.506071	-0.506152
C33	C	1.909177	0.506080	-0.506158
C34	C	1.518459	0.232018	-0.506182
C35	C	1.518497	0.115241	-0.506201
C36	C	1.585629	0.950653	-0.439022
C37	C	1.585693	1.060377	-0.439054
C38	C	1.451240	1.060375	-0.573327
C39	C	1.451182	0.950653	-0.573299
C40	C	1.663251	0.950655	-0.361498
C41	C	1.663315	1.060379	-0.361530
C42	C	1.451319	0.438685	-0.951822
C43	C	1.451351	0.438653	-1.061546
C44	C	1.585683	0.573052	-1.061510
C45	C	1.585645	0.573088	-0.951788
C46	C	1.373767	0.361087	-0.951844
C47	C	1.373799	0.361056	-1.061568
C48	C	1.518360	0.506082	-0.233169
C49	C	1.518534	0.505831	-0.116393
H50	H	1.118513	0.762645	-0.761970
H51	H	1.395616	0.279674	-1.091366
H52	H	1.218002	0.640597	-0.640277
H53	H	1.634127	0.916709	-0.284172
H54	H	1.296502	0.390182	-1.095594
O55	O	1.385808	0.897245	-0.638357
C56	C	1.317927	0.833898	-0.578474
H57	H	1.355006	0.817498	-0.498877
H58	H	1.303790	0.756717	-0.621238
H59	H	1.240094	0.876253	-0.566886
O60	O	0.910670	0.373612	-0.373813
C61	C	0.847158	0.433365	-0.305874
H62	H	0.880217	0.516098	-0.299249
H63	H	0.845891	0.395278	-0.225083
H64	H	0.764011	0.437035	-0.338352
H65	H	1.118399	0.383986	-0.384466
O66	O	1.637445	1.096192	-0.264498
C67	C	1.637539	1.206693	-0.264720
H68	H	1.689468	1.236243	-0.331141
H69	H	1.669072	1.236644	-0.186668
H70	H	1.554155	1.236548	-0.276527
O71	O	1.408398	0.268892	-0.911133
C72	C	1.328858	0.223910	-0.849015
H73	H	1.272581	0.287778	-0.821794
H74	H	1.365507	0.184245	-0.777865
H75	H	1.284168	0.163335	-0.897153
H76	H	0.919447	0.762674	-0.761998
H77	H	1.292378	0.382876	-0.922067
O78	O	0.802625	0.640769	-0.640447
C79	C	0.765986	0.714535	-0.714071
H80	H	0.829193	0.775956	-0.728645
H81	H	0.692531	0.754342	-0.682339
H82	H	0.746606	0.672959	-0.790761
H83	H	1.640379	0.627755	-1.106175
O84	O	1.386004	1.113829	-0.638459
C85	C	1.400498	1.222436	-0.624116
H86	H	1.434957	1.237463	-0.543069
H87	H	1.321822	1.264196	-0.631190
H88	H	1.456432	1.253474	-0.686489
O89	O	1.760365	0.915151	-0.387447
C90	C	1.833948	0.952053	-0.313740
H91	H	1.802081	1.025501	-0.274022
H92	H	1.910575	0.971526	-0.355360
H93	H	1.848691	0.888972	-0.252238
O94	O	1.755532	1.100758	-0.396527
C95	C	1.773894	1.066454	-0.499978
H96	H	1.728304	0.991089	-0.514917
H97	H	1.861202	1.051149	-0.511267
H98	H	1.747028	1.129381	-0.557402
O99	O	1.650965	0.638417	-0.898644
C100	C	1.710247	0.697725	-0.970579
H101	H	1.713929	0.654668	-1.048803
H102	H	1.793010	0.708957	-0.938873
H103	H	1.671743	0.777508	-0.982231
