data_functionalizedCrystal
_audit_creation_method	'MofGen! by Chris Wilmer'
_symmetry_space_group_name_H-M	'P1'
_symmetry_Int_Tables_number	1
_symmetry_cell_setting	triclinic
loop_
_symmetry_equiv_pos_as_xyz
  x,y,z
_cell_length_a	14.908782
_cell_length_b	14.908520
_cell_length_c	12.827885
_cell_angle_alpha	93.263516
_cell_angle_beta	93.280552
_cell_angle_gamma	89.837842
loop_
_atom_site_label
_atom_site_type_symbol
_atom_site_fract_x
_atom_site_fract_y
_atom_site_fract_z
Zn1	Zn	1.353917	-0.437190	-0.529406
Zn2	Zn	1.345131	-0.587567	-0.365291
Zn3	Zn	1.203555	-0.428563	-0.364168
Zn4	Zn	1.194853	-0.578834	-0.549467
O5	O	1.274364	-0.508039	-0.452083
O6	O	1.478571	-0.464403	-0.499711
O7	O	1.326315	-0.566519	-0.218912
O8	O	1.230820	-0.303885	-0.377222
O9	O	1.472115	-0.574884	-0.379136
O10	O	1.341291	-0.310223	-0.498622
O11	O	1.222300	-0.449700	-0.218087
O12	O	1.076582	-0.441232	-0.396674
O13	O	1.215989	-0.560000	-0.693037
O14	O	1.070188	-0.551635	-0.532812
O15	O	1.332853	-0.455935	-0.678298
O16	O	1.317877	-0.712231	-0.398588
O17	O	1.207468	-0.705815	-0.533901
C18	C	1.040761	-0.494550	-0.466799
C19	C	0.940824	-0.488801	-0.473120
C20	C	0.746316	-0.592886	-0.359230
C21	C	0.652416	-0.587487	-0.365167
C22	C	0.659121	-0.472611	-0.490935
C23	C	0.753021	-0.478010	-0.484999
C24	C	0.796615	-0.538148	-0.419143
C25	C	0.890518	-0.543541	-0.413201
C26	C	0.897221	-0.428670	-0.538975
C27	C	0.803321	-0.423272	-0.544911
C28	C	1.260799	-0.741648	-0.468564
C29	C	1.255078	-0.841592	-0.475645
C30	C	1.359415	-1.036025	-0.348148
C31	C	1.354043	-1.129931	-0.354797
C32	C	1.238967	-1.123314	-0.495596
C33	C	1.244339	-1.029407	-0.488947
C34	C	1.304564	-0.985766	-0.415220
C35	C	1.309931	-0.891858	-0.408566
C36	C	1.194861	-0.885242	-0.549369
C37	C	1.189488	-0.979149	-0.556018
C38	C	1.508879	-0.521580	-0.437311
C39	C	1.608815	-0.527351	-0.431016
C40	C	1.274430	-0.507956	-0.724644
C41	C	1.274458	-0.507920	-0.840793
C42	C	1.288006	-0.273518	-0.435559
C43	C	1.293820	-0.173579	-0.428518
C44	C	1.332293	-0.456415	-0.885283
C45	C	1.332323	-0.456378	-1.005329
C46	C	1.274353	-0.508059	-0.180575
C47	C	1.274514	-0.507851	-0.064398
H48	H	0.926011	-0.592507	-0.359575
O49	O	1.391309	-0.403791	-1.051167
C50	C	1.378217	-0.415470	-1.160821
H51	H	1.307109	-0.440921	-1.182071
H52	H	1.388205	-0.348490	-1.197248
H53	H	1.428748	-0.466441	-1.191814
O54	O	1.407314	-1.178892	-0.289784
C55	C	1.389661	-1.271135	-0.311458
H56	H	1.359399	-1.282225	-0.394823
H57	H	1.454987	-1.310638	-0.302776
H58	H	1.340323	-1.295132	-0.254303
O59	O	1.417983	-0.993770	-0.276498
C60	C	1.465223	-1.058266	-0.218698
H61	H	1.464495	-1.125355	-0.266046
H62	H	1.537622	-1.035160	-0.201220
H63	H	1.431753	-1.066437	-0.142089
O64	O	1.215563	-0.560514	-1.018613
C65	C	1.263414	-0.621530	-0.956364
H66	H	1.333407	-0.593745	-0.933596
H67	H	1.226139	-0.631433	-0.882716
H68	H	1.269392	-0.688750	-1.002440
O69	O	0.788525	-0.651375	-0.295242
C70	C	0.723994	-0.698513	-0.243608
H71	H	0.656890	-0.697821	-0.290855
H72	H	0.747018	-0.770904	-0.235610
H73	H	0.715891	-0.664931	-0.162607
H74	H	0.938185	-0.384095	-0.587755
H75	H	1.189941	-1.158863	-0.555628
H76	H	0.623610	-0.423657	-0.544561
O77	O	0.603509	-0.640751	-0.307124
C78	C	0.545833	-0.695745	-0.374046
H79	H	0.573835	-0.703006	-0.454947
H80	H	0.540749	-0.764843	-0.341071
H81	H	0.476279	-0.663857	-0.380233
H82	H	0.767813	-0.374312	-0.598533
O83	O	1.215325	-0.560520	-0.901213
C84	C	1.161561	-0.608436	-0.836538
H85	H	1.160506	-0.571510	-0.756318
H86	H	1.090197	-0.613905	-0.873290
H87	H	1.190504	-0.678636	-0.827709
H88	H	1.358967	-0.856326	-0.348531
O89	O	1.141704	-0.836389	-0.614630
C90	C	1.195964	-0.784910	-0.675085
H91	H	1.265162	-0.817221	-0.679154
H92	H	1.163461	-0.781948	-0.757447
H93	H	1.203144	-0.713937	-0.637543
H94	H	1.140457	-1.014695	-0.616047
O95	O	1.391219	-0.403792	-0.824597
C96	C	1.343342	-0.342813	-0.760619
H97	H	1.273340	-0.370603	-0.750908
H98	H	1.380582	-0.332963	-0.680677
H99	H	1.337390	-0.275565	-0.798538
