data_functionalizedCrystal
_audit_creation_method	'MofGen! by Chris Wilmer'
_symmetry_space_group_name_H-M	'P1'
_symmetry_Int_Tables_number	1
_symmetry_cell_setting	triclinic
loop_
_symmetry_equiv_pos_as_xyz
  x,y,z
_cell_length_a	12.759401
_cell_length_b	16.625546
_cell_length_c	12.759393
_cell_angle_alpha	89.964881
_cell_angle_beta	89.980324
_cell_angle_gamma	90.022895
loop_
_atom_site_label
_atom_site_type_symbol
_atom_site_fract_x
_atom_site_fract_y
_atom_site_fract_z
Zn1	Zn	1.606210	-0.320953	-0.593951
Zn2	Zn	2.106210	0.179047	-0.093951
Zn3	Zn	1.606077	-0.455808	-0.418257
Zn4	Zn	2.106077	0.044192	0.081743
Zn5	Zn	1.430508	-0.320994	-0.418290
Zn6	Zn	1.930508	0.179006	0.081710
Zn7	Zn	1.430476	-0.455749	-0.593898
Zn8	Zn	1.930476	0.044251	-0.093898
O9	O	1.518318	-0.388376	-0.506099
O10	O	2.018318	0.111624	-0.006099
O11	O	1.753213	-0.338850	-0.570653
O12	O	2.253213	0.161150	-0.070653
O13	O	1.582745	-0.437966	-0.271240
O14	O	2.082745	0.062034	0.228760
O15	O	1.453884	-0.208156	-0.441628
O16	O	1.953884	0.291844	0.058372
O17	O	1.753116	-0.437927	-0.441571
O18	O	2.253116	0.062073	0.058429
O19	O	1.582971	-0.208126	-0.570685
O20	O	2.082971	0.291874	-0.070685
O21	O	1.453756	-0.338919	-0.271264
O22	O	1.953756	0.161081	0.228736
O23	O	1.283483	-0.338862	-0.441576
O24	O	1.783483	0.161138	0.058424
O25	O	1.453830	-0.437826	-0.740926
O26	O	1.953830	0.062174	-0.240926
O27	O	1.283460	-0.437865	-0.570595
O28	O	1.783460	0.062135	-0.070595
O29	O	1.582940	-0.338793	-0.740965
O30	O	2.082940	0.161207	-0.240965
O31	O	1.582714	-0.568632	-0.441520
O32	O	2.082714	-0.068632	0.058480
O33	O	1.453701	-0.568589	-0.570563
O34	O	1.953701	-0.068589	-0.070563
C35	C	1.245350	-0.388362	-0.506084
C36	C	1.745350	0.111638	-0.006084
C37	C	1.128574	-0.388376	-0.506103
C38	C	1.628574	0.111624	-0.006103
C39	C	1.073763	-0.336879	-0.573419
C40	C	1.573763	0.163121	-0.073419
C41	C	0.964039	-0.336888	-0.573426
C42	C	1.464039	0.163112	-0.073426
C43	C	0.963946	-0.439895	-0.438797
C44	C	1.463946	0.060105	0.061203
C45	C	1.073668	-0.439882	-0.438786
C46	C	1.573668	0.060118	0.061214
C47	C	1.518218	-0.597867	-0.506055
C48	C	2.018218	-0.097867	-0.006055
C49	C	1.518272	-0.687488	-0.506071
C50	C	2.018272	-0.187488	-0.006071
C51	C	1.518455	-1.015663	-0.506181
C52	C	2.018455	-0.515663	-0.006181
C53	C	1.518401	-0.924355	-0.506153
C54	C	2.018401	-0.424355	-0.006153
C55	C	1.518363	-0.851579	-0.506125
C56	C	2.018363	-0.351579	-0.006125
C57	C	1.518310	-0.760264	-0.506099
C58	C	2.018310	-0.260264	-0.006099
C59	C	1.792351	-0.388390	-0.506114
C60	C	2.292351	0.111610	-0.006114
C61	C	1.909128	-0.388397	-0.506121
C62	C	2.409128	0.111603	-0.006121
C63	C	1.518396	-0.388299	-0.780132
C64	C	2.018396	0.111701	-0.280132
C65	C	1.518430	-0.388266	-0.896909
C66	C	2.018430	0.111734	-0.396909
C67	C	1.518446	-0.178067	-0.506166
C68	C	2.018446	0.321933	-0.006166
C69	C	1.518501	-0.088446	-0.506195
C70	C	2.018501	0.411554	-0.006195
C71	C	1.585663	-0.336691	-0.951793
C72	C	2.085663	0.163309	-0.451793
C73	C	1.585681	-0.336656	-1.061517
C74	C	2.085681	0.163344	-0.561517
C75	C	1.451230	-0.439778	-1.061464
C76	C	1.951230	0.060222	-0.561464
C77	C	1.451208	-0.439808	-0.951742
C78	C	1.951208	0.060192	-0.451742
C79	C	1.518300	-0.388395	-0.233132
C80	C	2.018300	0.111605	0.266868
C81	C	1.518470	-0.388201	-0.116355
C82	C	2.018470	0.111799	0.383645
H83	H	1.118296	-0.481817	-0.383963
H84	H	1.618296	0.018183	0.116037
Br85	Br	0.889424	-0.509795	-0.347445
Br86	Br	1.389424	-0.009795	0.152555
H87	H	1.640397	-0.294719	-0.907152
H88	H	2.140397	0.205281	-0.407152
H89	H	1.396502	-0.481744	-1.106122
H90	H	1.896502	0.018256	-0.606122
H91	H	1.396451	-0.481806	-0.907054
H92	H	1.896451	0.018194	-0.407054
Br93	Br	1.676937	-0.266664	-1.135999
Br94	Br	2.176937	0.233336	-0.635999
H95	H	1.118464	-0.294937	-0.628230
H96	H	1.618464	0.205063	-0.128230
Br97	Br	0.889657	-0.266994	-0.664784
Br98	Br	1.389657	0.233006	-0.164784
