data_functionalizedCrystal
_audit_creation_method	'MofGen! by Chris Wilmer'
_symmetry_space_group_name_H-M	'P1'
_symmetry_Int_Tables_number	1
_symmetry_cell_setting	triclinic
loop_
_symmetry_equiv_pos_as_xyz
  x,y,z
_cell_length_a	10.723024
_cell_length_b	10.654541
_cell_length_c	9.798715
_cell_angle_alpha	89.997081
_cell_angle_beta	89.996609
_cell_angle_gamma	84.475899
loop_
_atom_site_label
_atom_site_type_symbol
_atom_site_fract_x
_atom_site_fract_y
_atom_site_fract_z
O1	O	1.657212	0.176147	-0.113482
O2	O	1.294062	0.193008	-0.113486
O3	O	1.483988	0.001837	-0.113475
O4	O	1.467286	0.367318	-0.113492
O5	O	1.483974	0.001836	0.113507
O6	O	1.294048	0.193007	0.113496
O7	O	1.657198	0.176147	0.113501
Zn8	Zn	1.475620	0.184577	0.149537
Zn9	Zn	1.475639	0.184578	-0.149522
O10	O	1.467272	0.367318	0.113490
C11	C	1.247555	0.191781	0.000004
C12	C	1.109000	0.188109	0.000003
C13	C	1.482755	-0.044961	0.000015
C14	C	1.479088	-0.184404	0.000012
C15	C	0.917227	0.074076	0.000005
C16	C	1.060431	0.077867	0.000007
C17	C	1.706196	-0.212409	0.000033
C18	C	1.818022	-0.291921	0.000045
C19	C	1.814569	-0.422938	0.000041
C20	C	1.699277	-0.474446	0.000020
C21	C	1.587451	-0.394935	0.000007
C22	C	1.590917	-0.263916	0.000016
C23	C	1.360346	-0.366930	-0.000023
C24	C	1.363796	-0.235912	-0.000009
C25	C	1.245054	-0.418438	-0.000044
C26	C	1.133225	-0.338927	-0.000047
C27	C	1.136683	-0.207902	-0.000041
C28	C	1.251970	-0.156401	-0.000022
C29	C	1.703705	0.177374	0.000007
C30	C	1.842259	0.181045	-0.000000
C31	C	1.468504	0.414116	-0.000003
C32	C	1.472172	0.553559	-0.000010
N33	N	1.475617	0.184576	0.353636
N34	N	1.475653	0.184569	-0.353622
C35	C	1.555361	0.103954	0.421418
C36	C	1.555381	0.103950	0.578580
H37	H	1.124851	-0.013707	0.000004
H38	H	1.044588	0.279689	-0.000008
H39	H	1.911891	-0.249968	0.000075
H40	H	0.884095	0.275432	0.000004
N41	N	1.016077	-0.122134	-0.000055
H42	H	0.965843	-0.138803	-0.084205
H43	H	0.965914	-0.138859	0.084135
H44	H	1.709019	-0.105730	0.000055
N45	N	1.385196	0.275999	0.430882
H46	H	1.400556	0.365227	0.406083
H47	H	1.296457	0.260883	0.406072
H48	H	1.623659	0.034931	0.636869
H49	H	0.875392	-0.020312	0.000030
H50	H	1.905628	-0.487677	0.000041
N51	N	1.241334	-0.559749	-0.000044
H52	H	1.195900	-0.585810	0.084092
H53	H	1.195961	-0.585715	-0.084248
H54	H	1.696475	-0.581129	-0.000000
N55	N	1.008887	-0.394478	-0.000081
H56	H	1.023668	-0.489542	-0.000092
H57	H	0.959891	-0.365479	0.084062
H58	H	1.254797	-0.049722	-0.000008
H59	H	1.623616	0.034929	0.363099
N60	N	1.385205	0.276011	0.569199
H61	H	1.433578	0.331860	0.509901
H62	H	1.329455	0.227540	0.510006
