data_functionalizedCrystal
_audit_creation_method	'MofGen! by Chris Wilmer'
_symmetry_space_group_name_H-M	'P1'
_symmetry_Int_Tables_number	1
_symmetry_cell_setting	triclinic
loop_
_symmetry_equiv_pos_as_xyz
  x,y,z
_cell_length_a	20.919309
_cell_length_b	21.606444
_cell_length_c	21.606444
_cell_angle_alpha	60.001331
_cell_angle_beta	90.000567
_cell_angle_gamma	57.440098
loop_
_atom_site_label
_atom_site_type_symbol
_atom_site_fract_x
_atom_site_fract_y
_atom_site_fract_z
Zr1	Zr	0.641754	0.629093	-0.057034
O2	O	0.535376	0.766232	-0.159863
O3	O	0.674366	0.497516	-0.025514
O4	O	0.674357	0.626641	-0.154633
O5	O	0.535390	0.637102	0.071110
O6	O	0.783987	0.618380	-0.150505
O7	O	0.535384	0.637107	-0.030744
O8	O	0.784002	0.387399	0.080465
O9	O	0.535374	0.868082	-0.159859
O10	O	0.770089	0.543411	-0.008987
O11	O	0.688277	0.549572	0.063944
O12	O	0.688267	0.701600	-0.088076
O13	O	0.606456	0.707761	-0.015144
Zr14	Zr	0.816610	0.615910	0.111996
Zr15	Zr	0.816601	0.615918	-0.050450
Zr16	Zr	0.641763	0.629085	0.105412
Zr17	Zr	0.641752	0.791534	-0.057029
Zr18	Zr	0.816612	0.453470	0.111991
O19	O	0.783998	0.747487	0.080476
O20	O	0.783986	0.747498	-0.150501
O21	O	0.535388	0.766221	0.071114
O22	O	0.922988	0.478772	0.214825
O23	O	0.922976	0.478783	-0.016153
O24	O	0.674378	0.497505	0.205463
O25	O	0.922974	0.607901	-0.016148
O26	O	0.784007	0.618363	0.209595
O27	O	0.674377	0.626624	0.205467
O28	O	0.922980	0.607896	0.085706
O29	O	0.674355	0.857610	-0.154626
O30	O	0.784009	0.387393	0.209588
O31	O	0.922990	0.376921	0.214821
O32	O	0.922983	0.376927	0.085699
O33	O	0.535381	0.868076	-0.030737
O34	O	0.674362	0.857604	-0.025503
O35	O	0.770097	0.543404	0.143038
O36	O	0.851908	0.537242	0.070106
O37	O	0.770087	0.695431	-0.008982
O38	O	0.688275	0.701593	0.063949
C39	C	0.729184	0.419313	0.027474
C40	C	0.729185	0.350353	0.027472
C41	C	0.510475	0.638982	0.019245
C42	C	0.436248	0.644575	0.016450
C43	C	0.771888	0.314740	-0.010599
C44	C	0.771891	0.249939	-0.010593
C45	C	0.729186	0.220759	0.027479
C46	C	0.686481	0.256375	0.065554
C47	C	0.686484	0.321169	0.065553
C48	C	0.686472	-0.004933	0.065560
C49	C	0.686471	-0.069730	0.065556
C50	C	0.771879	-0.076163	-0.010586
C51	C	0.771881	-0.011369	-0.010587
C52	C	0.729181	0.024238	0.027491
C53	C	0.729180	0.094500	0.027487
C54	C	0.729182	0.150502	0.027479
C55	C	0.444083	0.564632	0.056416
C56	C	0.374336	0.569893	0.053788
C57	C	0.296754	0.655098	0.011189
C58	C	0.288920	0.735047	-0.028779
C59	C	0.358666	0.729785	-0.026146
C60	C	0.084029	0.675116	0.001178
C61	C	0.014281	0.680371	-0.001454
C62	C	0.099702	0.515217	0.081114
C63	C	0.169446	0.509963	0.083740
C64	C	0.161606	0.589912	0.043775
C65	C	0.225460	0.660477	0.008499
C66	C	0.232899	0.584531	0.046470
C67	C	0.947889	0.606021	0.035717
C68	C	1.022116	0.600428	0.038512
C69	C	0.729171	0.622511	-0.175714
C70	C	0.729167	0.622514	-0.244677
C71	C	0.729180	0.825690	0.027487
C72	C	0.729179	0.894650	0.027490
C73	C	0.686457	0.705087	-0.318359
C74	C	0.686464	0.705084	-0.383153
C75	C	0.729177	0.622508	-0.374264
C76	C	0.771893	0.539929	-0.300574
C77	C	0.771890	0.539933	-0.235781
C78	C	0.771906	0.539913	-0.561877
C79	C	0.771903	0.539916	-0.626678
C80	C	0.686479	0.705064	-0.709249
C81	C	0.686477	0.705068	-0.644456
C82	C	0.729196	0.622489	-0.570772
C83	C	0.729189	0.622493	-0.500514
C84	C	0.729180	0.622503	-0.444520
C85	C	0.729193	0.622492	0.230676
C86	C	0.729197	0.622489	0.299639
C87	C	0.947891	0.402833	0.035710
C88	C	1.022119	0.328280	0.038503
C89	C	0.729195	0.419304	0.230670
C90	C	0.729200	0.350340	0.299630
C91	C	0.947903	0.402824	0.238905
C92	C	1.022134	0.328267	0.310661
C93	C	0.510461	0.842180	-0.183943
C94	C	0.436230	0.916736	-0.255699
C95	C	0.510473	0.842170	0.019252
C96	C	0.436245	0.916723	0.016459
C97	C	0.729169	0.825699	-0.175708
C98	C	0.729164	0.894663	-0.244668
C99	C	1.014269	0.296489	-0.001478
C100	C	1.084007	0.226447	0.001131
C101	C	1.161595	0.188194	0.043726
C102	C	1.169445	0.219992	0.083708
C103	C	1.099707	0.290036	0.081095
C104	C	0.771911	0.314735	0.373307
C105	C	0.771912	0.249945	0.438109
C106	C	0.729207	0.220759	0.429232
C107	C	0.686490	0.256371	0.355546
C108	C	0.686485	0.321164	0.290746
C109	C	1.099706	0.290038	0.306289
C110	C	1.169462	0.219992	0.373705
C111	C	1.161643	0.188173	0.445492
C112	C	1.084063	0.226409	0.449863
C113	C	1.014309	0.296458	0.382447
C114	C	0.358658	0.954974	-0.251327
C115	C	0.288902	1.025039	-0.318743
C116	C	0.296721	1.056862	-0.390530
C117	C	0.374301	1.018621	-0.394901
C118	C	0.444055	0.948561	-0.327485
C119	C	0.444095	0.948521	0.056433
C120	C	0.374357	1.018581	0.053806
C121	C	0.296769	1.056836	0.011209
C122	C	0.288919	1.025036	-0.028770
C123	C	0.358657	0.954982	-0.026148
C124	C	0.771878	0.923829	-0.235766
C125	C	0.771890	0.988617	-0.300555
C126	C	0.729182	1.024244	-0.374245
C127	C	0.686467	0.995072	-0.383145
C128	C	0.686460	0.930280	-0.318357
H129	H	0.806659	0.338498	-0.041605
H130	H	0.729194	1.077002	-0.426993
Cl131	Cl	0.632781	-0.106415	0.113423
Cl132	Cl	0.825558	0.205189	-0.058474
Cl133	Cl	0.825564	-0.120934	-0.058454
H134	H	1.077600	0.200567	-0.031428
Cl135	Cl	0.632767	0.808882	-0.655637
Cl136	Cl	0.632777	0.808879	-0.801886
Cl137	Cl	0.825607	0.351410	0.384488
H138	H	0.951098	0.327634	-0.036173
Cl139	Cl	0.825591	0.436118	-0.289399
H140	H	0.651715	0.232607	0.096557
H141	H	0.806700	0.220957	0.498100
Cl142	Cl	0.348814	0.830290	-0.076388
H143	H	0.651674	0.906541	-0.325616
H144	H	0.806653	0.012391	-0.041592
Cl145	Cl	0.632800	0.365939	0.113418
H146	H	1.218374	0.131159	0.045849
Cl147	Cl	0.825588	1.025282	-0.289348
Cl148	Cl	0.825574	0.436102	-0.469255
H149	H	0.380724	0.504795	0.086334
H150	H	0.651695	1.024089	-0.443152
H151	H	1.232626	0.188835	0.118388
H152	H	0.651669	0.772330	-0.325606
Cl153	Cl	0.330429	0.477420	0.100028
H154	H	0.162285	0.729851	-0.026185
H155	H	0.507251	0.495249	0.091109
Cl156	Cl	0.729223	0.139301	0.510704
H157	H	0.651707	0.350146	0.230757
H158	H	0.225740	1.056163	-0.315169
H159	H	0.651706	0.024047	0.096569
H160	H	0.232613	0.440580	0.118414
H161	H	0.380764	1.044461	0.086366
H162	H	1.232625	0.188867	0.370133
Cl163	Cl	1.074248	0.186397	0.540116
H164	H	1.106111	0.315911	0.113657
Cl165	Cl	0.541627	0.900447	0.109986
H166	H	0.106076	0.450127	0.113651
H167	H	0.352276	0.929068	-0.192880
Cl168	Cl	0.384116	1.058634	-0.485154
H169	H	0.239916	1.113909	-0.445418
Cl170	Cl	-0.083255	0.787494	-0.055020
Cl171	Cl	0.632809	0.219667	0.344399
Cl172	Cl	0.074163	0.775624	-0.049067
Cl173	Cl	0.541571	0.900493	-0.332995
Cl174	Cl	0.191373	1.073135	-0.082314
Cl175	Cl	0.348773	0.915011	-0.076401
H176	H	0.806656	0.894831	-0.175770
H177	H	0.225746	0.804422	-0.063460
H178	H	0.239990	1.113878	0.009080
Cl179	Cl	1.109557	0.330030	0.216050
Cl180	Cl	0.825595	0.436122	-0.143149
Cl181	Cl	0.632766	0.808894	-0.475782
Cl182	Cl	0.916793	0.344504	0.387957
H183	H	0.806688	0.472668	-0.619431
H184	H	1.218448	0.131134	0.500380
