data_functionalizedCrystal
_audit_creation_method	'MofGen! by Chris Wilmer'
_symmetry_space_group_name_H-M	'P1'
_symmetry_Int_Tables_number	1
_symmetry_cell_setting	triclinic
loop_
_symmetry_equiv_pos_as_xyz
  x,y,z
_cell_length_a	35.277649
_cell_length_b	35.288076
_cell_length_c	35.277682
_cell_angle_alpha	59.996962
_cell_angle_beta	89.996844
_cell_angle_gamma	59.999937
loop_
_atom_site_label
_atom_site_type_symbol
_atom_site_fract_x
_atom_site_fract_y
_atom_site_fract_z
O1	O	0.260036	0.334271	-0.011290
O2	O	0.204914	0.256670	0.011213
O3	O	0.204913	0.334268	-0.066411
O4	O	0.260037	0.256673	0.066334
O5	O	0.267960	0.271240	-0.066410
O6	O	0.267960	0.193642	0.011213
O7	O	0.323083	0.271243	-0.011290
Zn8	Zn	0.305532	0.222435	-0.000038
Zn9	Zn	0.222465	0.305478	-0.000038
O10	O	0.323083	0.193645	0.066334
C11	C	0.364508	0.456627	-0.023613
C12	C	0.341116	0.503398	-0.020396
C13	C	0.410128	0.433933	-0.023935
C14	C	0.364510	0.388001	-0.023608
C15	C	0.341120	0.361396	-0.020385
C16	C	0.410129	0.365411	-0.023930
C17	C	0.433151	0.388005	-0.023613
C18	C	0.483152	0.361403	-0.020395
C19	C	0.341591	0.433930	-0.023931
C20	C	0.523549	0.339911	-0.017795
C21	C	0.322217	0.541183	-0.017796
C22	C	0.322223	0.339901	-0.017781
C23	C	0.574227	0.312949	-0.014533
C24	C	0.298508	0.588586	-0.014535
C25	C	0.298516	0.312936	-0.014514
C26	C	0.027625	0.061861	0.034093
C27	C	0.050647	0.015934	0.034413
C28	C	0.096269	0.061859	0.034096
C29	C	0.119187	0.015932	0.034415
C30	C	0.096268	-0.006762	0.034093
C31	C	0.050649	0.084450	0.034416
C32	C	-0.137906	0.185442	0.021664
C33	C	-0.184783	0.210707	0.018150
C34	C	-0.208300	0.189023	0.016384
C35	C	-0.259130	0.216420	0.012564
C36	C	-0.184935	0.142070	0.018137
C37	C	-0.138060	0.116805	0.021657
C38	C	-0.114545	0.138493	0.023421
C39	C	0.138183	-0.159817	0.021660
C40	C	0.159788	-0.203166	0.018145
C41	C	0.204994	-0.224912	0.016380
C42	C	0.228421	-0.271909	0.012563
C43	C	0.228596	-0.203309	0.018136
C44	C	0.206995	-0.159967	0.021659
C45	C	0.161783	-0.138221	0.023418
C46	C	0.138189	0.185434	0.021675
C47	C	0.159793	0.210701	0.018157
C48	C	0.205001	0.189015	0.016394
C49	C	0.228427	0.216410	0.012578
C50	C	0.228600	0.142066	0.018145
C51	C	0.206994	0.116803	0.021661
C52	C	0.161788	0.138489	0.023430
C53	C	-0.063718	0.111096	0.027234
C54	C	-0.023203	0.089258	0.030276
C55	C	0.119694	0.089254	0.030281
C56	C	0.138365	0.111090	0.027242
C57	C	0.119691	-0.053758	0.030275
C58	C	0.138362	-0.091221	0.027233
C59	C	0.095978	0.466060	-0.438568
C60	C	0.050358	0.511987	-0.461486
C61	C	0.095978	0.466059	-0.369925
C62	C	0.050358	0.511987	-0.392947
C63	C	0.027335	0.534682	-0.438567
C64	C	0.118896	0.443469	-0.392948
C65	C	0.207166	0.342480	-0.480485
C66	C	0.228923	0.317216	-0.502090
C67	C	0.205468	0.338901	-0.547297
C68	C	0.229054	0.311505	-0.570722
C69	C	0.160255	0.385855	-0.570898
C70	C	0.138503	0.411119	-0.549295
C71	C	0.161960	0.389430	-0.504086
C72	C	-0.138195	0.687740	-0.549753
C73	C	-0.185072	0.731090	-0.571510
C74	C	-0.208589	0.752835	-0.548056
C75	C	-0.259417	0.799832	-0.571639
C76	C	-0.185224	0.731230	-0.502843
C77	C	-0.138348	0.687888	-0.481090
C78	C	-0.114836	0.666143	-0.504550
C79	C	0.207166	0.342480	-0.204394
C80	C	0.228922	0.317212	-0.157515
C81	C	0.205466	0.338897	-0.133999
C82	C	0.229052	0.311501	-0.083169
C83	C	0.160255	0.385846	-0.157362
C84	C	0.138501	0.411110	-0.204239
C85	C	0.161963	0.389425	-0.227753
C86	C	0.138369	0.416826	-0.480662
C87	C	0.119566	0.438663	-0.461991
C88	C	0.119566	0.438663	-0.319098
C89	C	0.138369	0.416826	-0.278583
C90	C	-0.023492	0.581679	-0.462154
C91	C	-0.064007	0.619142	-0.480957
O92	O	0.724111	0.193655	0.011196
O93	O	0.591366	0.271256	-0.011308
O94	O	0.668977	0.193662	0.066316
O95	O	0.646499	0.271250	-0.066428
O96	O	0.668976	0.256694	0.066311
O97	O	0.591364	0.334288	-0.011313
O98	O	0.724109	0.256687	0.011190
Zn99	Zn	0.657736	0.305495	-0.000062
Zn100	Zn	0.657738	0.222448	-0.000055
O101	O	0.646497	0.334281	-0.066434
O102	O	0.267953	0.712704	0.011194
O103	O	0.323075	0.602495	-0.011309
O104	O	0.323072	0.602484	0.066315
O105	O	0.267956	0.712715	-0.066430
O106	O	0.260023	0.602489	0.066309
O107	O	0.260026	0.602499	-0.011315
O108	O	0.204904	0.712709	0.011188
Zn109	Zn	0.222455	0.657605	-0.000064
Zn110	Zn	0.305524	0.657599	-0.000057
O111	O	0.204907	0.712719	-0.066436
O112	O	-0.408919	0.925433	-0.602617
O113	O	-0.276177	0.815217	-0.547497
O114	O	-0.353793	0.815213	-0.547490
O115	O	-0.331302	0.925437	-0.602624
O116	O	-0.353795	0.815215	-0.610537
O117	O	-0.276178	0.815218	-0.610544
O118	O	-0.408921	0.925435	-0.665664
Zn119	Zn	-0.342550	0.870327	-0.648114
Zn120	Zn	-0.342548	0.870325	-0.565047
O121	O	-0.331304	0.925438	-0.665671
O122	O	0.260041	0.256669	-0.665375
O123	O	0.204913	0.334268	-0.610253
O124	O	0.204916	0.256668	-0.610247
O125	O	0.260038	0.334269	-0.665381
O126	O	0.267961	0.193641	-0.547200
O127	O	0.267959	0.271241	-0.547207
O128	O	0.323086	0.193642	-0.602329
Zn129	Zn	0.305532	0.222435	-0.564758
Zn130	Zn	0.222467	0.305475	-0.647824
O131	O	0.323084	0.271242	-0.602335
C132	C	0.433158	0.071299	0.293191
C133	C	0.483160	0.024530	0.316581
C134	C	0.410136	0.093993	0.316110
C135	C	0.364516	0.139921	0.224550
C136	C	0.341124	0.166524	0.174548
C137	C	0.341598	0.162512	0.247573
C138	C	0.364516	0.139921	0.293193
C139	C	0.341125	0.166523	0.316585
C140	C	0.410136	0.093994	0.247571
C141	C	0.322228	0.188015	0.335482
C142	C	0.523556	-0.013254	0.335478
C143	C	0.322226	0.188018	0.134151
C144	C	0.298521	0.214978	0.359191
C145	C	0.574235	-0.060655	0.359185
C146	C	0.298518	0.214982	0.083472
C147	C	0.681233	0.139975	0.293161
C148	C	0.678009	0.166582	0.316548
C149	C	0.681548	0.094050	0.316081
C150	C	0.681248	0.139964	0.224524
C151	C	0.678040	0.166559	0.174524
C152	C	0.681563	0.094039	0.247548
C153	C	0.681232	0.071350	0.293166
C154	C	0.678006	0.024584	0.316558
C155	C	0.681564	0.162559	0.247543
C156	C	0.675399	-0.013197	0.335456
C157	C	0.675403	0.188079	0.335442
C158	C	0.675448	0.188046	0.134128
C159	C	0.672130	-0.060596	0.359165
C160	C	0.672135	0.215047	0.359146
C161	C	0.672196	0.215003	0.083451
C162	C	0.364489	0.387980	0.293167
C163	C	0.341096	0.361377	0.316556
C164	C	0.410109	0.365385	0.316088
C165	C	0.364494	0.456606	0.224527
C166	C	0.341105	0.503380	0.174525
C167	C	0.410114	0.433908	0.247552
C168	C	0.433134	0.387976	0.293172
C169	C	0.483135	0.361370	0.316565
C170	C	0.341573	0.433911	0.247547
C171	C	0.523532	0.339874	0.335464
C172	C	0.322196	0.339884	0.335451
C173	C	0.322210	0.541168	0.134129
C174	C	0.574210	0.312907	0.359174
C175	C	0.298486	0.312920	0.359157
C176	C	0.298504	0.588574	0.083450
C177	C	0.623685	0.534348	-0.438579
C178	C	0.623372	0.511647	-0.461493
C179	C	0.623672	0.465732	-0.369936
C180	C	0.623359	0.443135	-0.392955
C181	C	0.623690	0.465720	-0.438573
C182	C	0.623354	0.511659	-0.392961
C183	C	0.636114	0.687411	-0.480503
C184	C	0.639630	0.730760	-0.502110
C185	C	0.641405	0.752499	-0.547315
C186	C	0.645226	0.799496	-0.570742
C187	C	0.639658	0.730888	-0.570913
C188	C	0.636136	0.687546	-0.549308
C189	C	0.634363	0.665808	-0.504101
C190	C	0.636151	0.411367	-0.549744
C191	C	0.639672	0.386249	-0.571497
C192	C	0.641435	0.339292	-0.548041
C193	C	0.645259	0.312049	-0.571620
C194	C	0.639670	0.317457	-0.502830
C195	C	0.636141	0.342579	-0.481081
C196	C	0.634384	0.389536	-0.504543
C197	C	0.636060	0.411430	-0.204413
C198	C	0.639569	0.386321	-0.157535
C199	C	0.641330	0.339364	-0.134017
C200	C	0.645137	0.312135	-0.083189
C201	C	0.639585	0.317516	-0.157377
C202	C	0.636078	0.342626	-0.204252
C203	C	0.634311	0.389587	-0.227768
C204	C	0.630548	0.618807	-0.480676
C205	C	0.627505	0.581344	-0.462004
C206	C	0.627477	0.438507	-0.319110
C207	C	0.630508	0.416808	-0.278596
C208	C	0.627514	0.438481	-0.462155
C209	C	0.630562	0.416771	-0.480954
O210	O	0.646397	0.271324	0.452738
O211	O	0.668903	0.193717	0.397624
O212	O	0.591280	0.271325	0.397607
O213	O	0.724020	0.193716	0.452755
O214	O	0.591295	0.334345	0.334562
O215	O	0.668918	0.256737	0.334579
O216	O	0.646412	0.334344	0.389693
Zn217	Zn	0.657668	0.305546	0.352126
Zn218	Zn	0.657648	0.222514	0.435191
O219	O	0.724035	0.256736	0.389710
C220	C	0.027648	1.061913	-0.438592
C221	C	0.050673	1.084504	-0.461508
C222	C	0.096288	0.993282	-0.369947
C223	C	0.119208	1.015978	-0.392967
C224	C	0.096293	1.061909	-0.438587
C225	C	0.050668	1.015981	-0.392972
C226	C	-0.137885	1.116251	-0.480517
C227	C	-0.184761	1.141367	-0.502125
C228	C	-0.208274	1.188328	-0.547332
C229	C	-0.259103	1.215568	-0.570759
C230	C	-0.184906	1.210170	-0.570931
C231	C	-0.138032	1.185050	-0.549325
C232	C	-0.114521	1.138089	-0.504116
C233	C	0.138219	1.185491	-0.549766
C234	C	0.159827	1.210755	-0.571521
C235	C	0.205032	1.189070	-0.548065
C236	C	0.228462	1.216462	-0.571645
C237	C	0.228631	1.142112	-0.502852
C238	C	0.207027	1.116845	-0.481101
C239	C	0.161816	1.138542	-0.504563
C240	C	0.138193	0.840210	-0.204418
C241	C	0.159794	0.796859	-0.157539
C242	C	0.205001	0.775110	-0.134021
C243	C	0.228423	0.728108	-0.083191
C244	C	0.228603	0.796715	-0.157382
C245	C	0.207000	0.840066	-0.204259
C246	C	0.161795	0.861807	-0.227775
C247	C	-0.063694	1.110857	-0.480691
C248	C	-0.023179	1.089149	-0.462018
C249	C	0.119708	0.946280	-0.319120
C250	C	0.138377	0.908813	-0.278605
C251	C	0.119719	1.089305	-0.462172
C252	C	0.138392	1.111142	-0.480972
H253	H	0.304108	0.452923	-0.024442
C254	C	0.682495	0.227557	0.177604
C255	C	0.682268	0.212445	0.222587
H256	H	0.682926	0.258355	0.162197
H257	H	0.709277	0.199009	0.179200
H258	H	0.655428	0.235563	0.160905
H259	H	0.709336	0.204434	0.239287
H260	H	0.655483	0.240999	0.220993
H261	H	0.304115	0.199469	0.229088
H262	H	0.226214	0.078572	0.023092
C263	C	-0.189012	0.066318	0.056636
C264	C	-0.210782	0.118235	0.016198
H265	H	-0.204970	0.051603	0.055440
H266	H	-0.157755	0.044558	0.058979
H267	H	-0.189553	0.067585	0.082915
H268	H	-0.210237	0.116967	-0.010081
H269	H	-0.242047	0.140000	0.013850
H270	H	0.428613	0.328452	-0.024442
H271	H	0.428619	0.074991	0.353596
H272	H	0.101389	0.857901	-0.223566
H273	H	0.428589	0.328426	0.353572
C274	C	0.642787	0.105528	0.182850
C275	C	0.682263	0.068390	0.222603
H276	H	0.643221	0.089693	0.167450
H277	H	0.615723	0.115892	0.191538
H278	H	0.642650	0.136180	0.162597
H279	H	0.682398	0.037739	0.242857
H280	H	0.709334	0.058018	0.213915
H281	H	-0.118746	1.078013	-0.443707
C282	C	0.275624	0.429925	0.252446
C283	C	0.290971	0.459563	0.222594
H284	H	0.244384	0.445765	0.237042
H285	H	0.294674	0.394188	0.261122
H286	H	0.277400	0.429729	0.279419
H287	H	0.289198	0.459755	0.195622
H288	H	0.271916	0.495309	0.213912
C289	C	0.292278	0.150309	0.012754
C290	C	0.278294	0.118225	0.016208
H291	H	0.322957	0.135588	0.011560
H292	H	0.271817	0.185526	-0.014675
H293	H	0.291552	0.151564	0.039039
H294	H	0.279017	0.116973	-0.010079
H295	H	0.298761	0.082998	0.043640
H296	H	0.428620	0.074997	0.229089
C297	C	-0.014358	0.537905	-0.365688
C298	C	0.025393	0.537634	-0.368003
H299	H	-0.029772	0.553737	-0.350290
H300	H	-0.034596	0.558002	-0.396212
H301	H	-0.005664	0.502156	-0.348986
H302	H	0.016699	0.573384	-0.384709
H303	H	0.045634	0.517537	-0.337475
C304	C	0.307371	0.718793	-0.115072
C305	C	0.278296	0.772811	-0.131536
H306	H	0.338048	0.704039	-0.099120
H307	H	0.296409	0.699725	-0.094449
H308	H	0.307377	0.715981	-0.140483
H309	H	0.278287	0.775623	-0.106125
H310	H	0.289261	0.791885	-0.152160
H311	H	0.682059	0.075060	0.353564
H312	H	0.428597	0.452904	0.229068
H313	H	-0.203803	0.248935	0.016721
C314	C	0.185131	0.019927	0.035319
C315	C	0.169788	-0.009711	0.035111
H316	H	0.216369	0.004094	0.035750
H317	H	0.166077	0.055667	0.008251
H318	H	0.183361	0.020112	0.062101
H319	H	0.171555	-0.009893	0.008327
H320	H	0.188848	-0.045460	0.062182
H321	H	0.634717	0.449601	-0.568851
H322	H	0.622844	0.406176	-0.374466
C323	C	0.671728	0.609499	-0.401733
C324	C	0.634162	0.663519	-0.430814
H325	H	0.670524	0.594749	-0.371057
H326	H	0.670182	0.590431	-0.412694
H327	H	0.699954	0.606682	-0.401719
H328	H	0.605936	0.666335	-0.430830
H329	H	0.635703	0.682593	-0.419850
C330	C	0.208062	-0.082207	-0.013983
C331	C	0.232935	-0.136220	0.023585
H332	H	0.224076	-0.067546	-0.012793
H333	H	0.205195	-0.079383	-0.042206
H334	H	0.178048	-0.063060	-0.012424
H335	H	0.262948	-0.155368	0.022024
H336	H	0.235808	-0.139047	0.051815
H337	H	-0.119054	0.670040	-0.568858
H338	H	0.428609	0.452931	-0.024454
C339	C	-0.019261	0.019867	0.035411
C340	C	0.025720	-0.009753	0.035175
H341	H	-0.034642	0.003997	0.035899
H342	H	-0.017665	0.020090	0.062169
H343	H	-0.035984	0.055601	0.008319
H344	H	0.042444	-0.045485	0.062269
H345	H	0.024125	-0.009982	0.008415
C346	C	0.622477	0.582466	-0.527439
C347	C	0.622683	0.537281	-0.512093
H348	H	0.622053	0.598288	-0.558676
H349	H	0.595697	0.607658	-0.525674
H350	H	0.649546	0.572093	-0.508379
H351	H	0.595612	0.547654	-0.531151
H352	H	0.649466	0.512085	-0.513861
C353	C	0.622444	0.582489	-0.397868
C354	C	0.622646	0.537307	-0.368012
H355	H	0.622004	0.598323	-0.382466
H356	H	0.649517	0.572114	-0.406542
H357	H	0.595668	0.607678	-0.424842
H358	H	0.649424	0.512116	-0.341040
H359	H	0.595571	0.547681	-0.359332
C360	C	0.122358	0.251936	0.056683
C361	C	0.133855	0.262304	0.016236
H362	H	0.106348	0.283793	0.055499
H363	H	0.103020	0.240000	0.059026
H364	H	0.149909	0.224991	0.082956
H365	H	0.106303	0.289247	-0.010037
H366	H	0.153193	0.274248	0.013888
C367	C	0.639192	0.456858	-0.162402
C368	C	0.641484	0.410337	-0.131861
H369	H	0.640370	0.471687	-0.146552
H370	H	0.664680	0.448241	-0.173561
H371	H	0.610966	0.482199	-0.187803
H372	H	0.669711	0.384994	-0.106461
H373	H	0.615994	0.418952	-0.120695
H374	H	0.634618	0.449670	-0.223559
H375	H	0.634712	0.669956	-0.568525
H376	H	0.641060	0.748346	-0.482891
H377	H	0.641100	0.748593	-0.607720
H378	H	0.101689	0.449337	-0.223258
C379	C	0.639331	0.456762	-0.637182
C380	C	0.641617	0.410245	-0.621187
H381	H	0.640536	0.471573	-0.667858
H382	H	0.611101	0.482113	-0.637151
H383	H	0.664812	0.448143	-0.617389
H384	H	0.616134	0.418864	-0.640978
H385	H	0.669850	0.384889	-0.621221
H386	H	0.641100	0.279227	-0.483733
C387	C	0.636496	0.272058	-0.415389
C388	C	0.634204	0.318579	-0.431388
H389	H	0.635304	0.257239	-0.384709
H390	H	0.611015	0.280672	-0.435172
H391	H	0.664727	0.246710	-0.415429
H392	H	0.605971	0.343928	-0.431352
H393	H	0.659687	0.309967	-0.411600
H394	H	-0.203783	1.123580	-0.482908
C395	C	0.055257	0.507990	-0.527429
C396	C	0.025403	0.537629	-0.512086
H397	H	0.039849	0.523819	-0.558665
H398	H	0.082221	0.507804	-0.525664
H399	H	0.063940	0.472245	-0.508367
H400	H	0.016723	0.573373	-0.531146
H401	H	-0.001569	0.537820	-0.513855
H402	H	0.032164	0.121405	0.034935
H403	H	0.634660	0.324832	-0.223268
C404	C	0.644958	0.248478	-0.085454
C405	C	0.641516	0.265903	-0.131530
H406	H	0.646146	0.216618	-0.069500
H407	H	0.672386	0.241510	-0.070685
H408	H	0.618673	0.275486	-0.084930
H409	H	0.667803	0.238897	-0.132054
H410	H	0.614085	0.272869	-0.146302
H411	H	0.032187	1.121468	-0.498989
C412	C	0.185150	0.945144	-0.323026
C413	C	0.169810	0.990332	-0.368015
H414	H	0.216389	0.929313	-0.307625
H415	H	0.166096	0.955514	-0.306330
H416	H	0.183376	0.919957	-0.324612
H417	H	0.171580	1.015522	-0.366429
H418	H	0.188869	0.979964	-0.384715
C419	C	-0.019276	1.019984	-0.397876
C420	C	0.025714	0.990340	-0.368020
H421	H	-0.034678	1.004152	-0.382471
H422	H	-0.035967	1.055722	-0.406555
H423	H	-0.017693	1.020174	-0.424846
H424	H	0.024131	0.990153	-0.341051
H425	H	0.042409	0.954593	-0.359334
H426	H	0.226271	0.324818	-0.223536
C427	C	0.089612	0.801351	-0.162404
C428	C	0.133850	0.773112	-0.131862
H429	H	0.073597	0.786687	-0.146552
H430	H	0.072745	0.837988	-0.173567
H431	H	0.092492	0.798522	-0.187802
H432	H	0.130969	0.775945	-0.106466
H433	H	0.150720	0.736466	-0.120692
H434	H	-0.204054	1.248404	-0.607739
H435	H	-0.119009	1.202835	-0.568543
C436	C	-0.209862	0.715207	-0.622167
C437	C	-0.210753	0.754828	-0.621201
H438	H	-0.225718	0.729862	-0.652844
H439	H	-0.178581	0.686288	-0.612570
H440	H	-0.224689	0.702608	-0.601748
H441	H	-0.195923	0.767424	-0.641618
H442	H	-0.242039	0.783757	-0.630803
H443	H	0.101409	1.203159	-0.568873
C444	C	-0.065983	0.177192	0.027061
C445	C	-0.112060	0.209279	0.023606
H446	H	-0.050027	0.191910	0.028257
H447	H	-0.051221	0.141975	0.054489
H448	H	-0.065452	0.175939	0.000775
H449	H	-0.112591	0.210530	0.049894
H450	H	-0.126826	0.244506	-0.003825
H451	H	0.156375	0.406503	-0.374462
H452	H	0.140608	1.248989	-0.608331
C453	C	0.292304	1.150359	-0.505703
C454	C	0.278322	1.118269	-0.477067
H455	H	0.322981	1.135641	-0.489782
H456	H	0.291581	1.151621	-0.533244
H457	H	0.271837	1.185578	-0.513499
H458	H	0.298788	1.083051	-0.469274
H459	H	0.279049	1.117001	-0.449518
H460	H	0.226245	1.078611	-0.444291
C461	C	0.277187	0.835563	-0.199398
C462	C	0.232946	0.863809	-0.229937
H463	H	0.293206	0.850220	-0.215253
H464	H	0.274314	0.838393	-0.174004
H465	H	0.294049	0.798922	-0.188234
H466	H	0.216083	0.900449	-0.241100
H467	H	0.235818	0.860984	-0.255341
C468	C	0.088523	0.171809	0.065229
C469	C	0.088497	0.209272	0.023615
H470	H	0.057846	0.186526	0.066426
H471	H	0.099486	0.140237	0.066774
H472	H	0.108251	0.163264	0.090710
H473	H	0.068771	0.217814	-0.001865
H474	H	0.077528	0.240853	0.022066
C475	C	-0.095916	0.073616	-0.013986
C476	C	-0.112377	0.065200	0.023582
H477	H	-0.080059	0.041755	-0.012796
H478	H	-0.121313	0.101875	-0.042209
H479	H	-0.075205	0.082916	-0.012426
H480	H	-0.133091	0.055904	0.022020
H481	H	-0.086977	0.036932	0.051813
C482	C	0.087435	-0.175452	0.062348
C483	C	0.088492	-0.135922	0.023603
H484	H	0.056759	-0.160697	0.063548
H485	H	0.096923	-0.204352	0.059998
H486	H	0.107902	-0.188108	0.089775
H487	H	0.068028	-0.123268	-0.003825
H488	H	0.078998	-0.107011	0.025949
C489	C	0.158742	-0.280939	0.053789
C490	C	0.133859	-0.226926	0.016219
H491	H	0.142737	-0.295610	0.052602
H492	H	0.188755	-0.300077	0.052232
H493	H	0.161603	-0.283759	0.082014
H494	H	0.131001	-0.224106	-0.012006
H495	H	0.103839	-0.207783	0.017772
C496	C	0.093861	0.411540	-0.132332
C497	C	0.134454	0.409694	-0.131526
H498	H	0.077930	0.426262	-0.116384
H499	H	0.074451	0.433295	-0.163594
H500	H	0.101673	0.376312	-0.117559
H501	H	0.126641	0.444923	-0.146303
H502	H	0.153867	0.387939	-0.100258
C503	C	0.278261	-0.223038	-0.025416
C504	C	0.278288	-0.227209	0.016199
H505	H	0.308938	-0.237789	-0.026614
H506	H	0.267300	-0.242106	-0.026962
H507	H	0.258532	-0.186386	-0.050896
H508	H	0.298014	-0.263862	0.041678
H509	H	0.289254	-0.208142	0.017749
C510	C	0.294609	0.251904	-0.162373
C511	C	0.278614	0.265602	-0.131834
H512	H	0.325288	0.220043	-0.146518
H513	H	0.274825	0.246209	-0.173539
H514	H	0.294568	0.280169	-0.187769
H515	H	0.278652	0.237338	-0.106439
H516	H	0.298404	0.271294	-0.120661
H517	H	0.226271	0.324817	-0.443675
H518	H	0.141162	0.403508	-0.607706
C519	C	0.294607	0.251903	-0.431903
C520	C	0.278615	0.265605	-0.476146
H521	H	0.325284	0.220037	-0.415886
H522	H	0.294570	0.280160	-0.434778
H523	H	0.274817	0.246210	-0.415040
H524	H	0.298404	0.271301	-0.493011
H525	H	0.278655	0.237341	-0.473273
H526	H	0.101692	0.449348	-0.568514
H527	H	-0.204372	0.748941	-0.483748
C528	C	-0.143204	0.692376	-0.415398
C529	C	-0.112667	0.664140	-0.431395
H530	H	-0.127350	0.677712	-0.384717
H531	H	-0.154368	0.729014	-0.435180
H532	H	-0.168601	0.689545	-0.415442
H533	H	-0.087271	0.666975	-0.431354
H534	H	-0.101497	0.627494	-0.411608
