data_functionalizedCrystal
_audit_creation_method	'MofGen! by Chris Wilmer'
_symmetry_space_group_name_H-M	'P1'
_symmetry_Int_Tables_number	1
_symmetry_cell_setting	triclinic
loop_
_symmetry_equiv_pos_as_xyz
  x,y,z
_cell_length_a	16.992694
_cell_length_b	15.500227
_cell_length_c	17.019370
_cell_angle_alpha	83.303218
_cell_angle_beta	87.022749
_cell_angle_gamma	93.032150
loop_
_atom_site_label
_atom_site_type_symbol
_atom_site_fract_x
_atom_site_fract_y
_atom_site_fract_z
O1	O	1.043228	0.059592	0.164409
O2	O	0.814953	0.059755	0.162567
O3	O	0.935893	0.068219	0.048651
O4	O	0.922288	0.051128	0.278325
O5	O	0.928554	-0.076181	0.055535
O6	O	0.807614	-0.084646	0.169450
O7	O	1.035889	-0.084808	0.171293
Cu8	Cu	0.921082	-0.097912	0.171000
Cu9	Cu	0.929760	0.072858	0.162859
O10	O	0.914949	-0.093273	0.285209
C11	C	0.782083	-0.012266	0.163639
C12	C	0.695074	-0.011730	0.156571
N13	N	0.914983	-0.218022	0.176726
C14	C	0.644499	-0.016805	0.224767
C15	C	0.562745	-0.016323	0.218122
C16	C	0.531566	-0.010758	0.143280
C17	C	0.582147	-0.005685	0.075078
C18	C	0.663900	-0.006174	0.081724
C19	C	0.288102	-0.008732	0.115733
C20	C	0.206343	-0.008241	0.109092
C21	C	0.186946	-0.018880	0.252137
C22	C	0.268702	-0.019363	0.258776
C23	C	0.319275	-0.014294	0.190575
N24	N	0.448000	-0.010262	0.136485
N25	N	0.402839	-0.014797	0.197370
C26	C	0.966247	-0.259714	0.128476
C27	C	0.961642	-0.350609	0.132814
C28	C	0.905776	-0.399811	0.185407
C29	C	0.854506	-0.358113	0.233659
C30	C	0.859108	-0.267220	0.229316
C31	C	0.889198	-0.674439	0.201037
C32	C	0.884601	-0.765340	0.205378
C33	C	0.991736	-0.757829	0.104532
C34	C	0.996337	-0.666934	0.100197
C35	C	0.945064	-0.625244	0.148446
C36	C	0.901069	-0.492721	0.189844
C37	C	0.949768	-0.532335	0.144004
C38	C	1.068759	-0.012786	0.170220
C39	C	1.155769	-0.013316	0.177288
C40	C	0.931852	-0.001782	0.022569
C41	C	0.930736	0.004771	-0.065404
N42	N	0.935865	0.192969	0.157128
C43	C	0.926210	-0.070860	-0.102989
C44	C	0.925167	-0.064695	-0.185650
C45	C	0.928645	0.017101	-0.230724
C46	C	0.933174	0.092736	-0.193133
C47	C	0.934222	0.086571	-0.110475
C48	C	0.925684	0.039654	-0.480487
C49	C	0.924632	0.045814	-0.563152
C50	C	0.916627	-0.111619	-0.555662
C51	C	0.917672	-0.117777	-0.473002
C52	C	0.922205	-0.042141	-0.435419
C53	C	0.927576	0.023404	-0.315216
C54	C	0.923279	-0.048445	-0.350929
C55	C	0.918990	-0.023270	0.311291
C56	C	0.920106	-0.029817	0.399264
H57	H	0.521570	-0.020455	0.273655
H58	H	1.041827	-0.626875	0.057372
C59	C	0.930661	0.122855	-0.439157
C60	C	1.000551	0.140621	-0.388051
C61	C	1.005526	0.223827	-0.346719
C62	C	0.940612	0.289268	-0.356493
C63	C	0.870717	0.271503	-0.407602
C64	C	0.865742	0.188297	-0.448934
H65	H	1.048608	0.092176	-0.380813
H66	H	1.057267	0.236977	-0.308884
H67	H	0.944295	0.350862	-0.325897
H68	H	0.822660	0.319948	-0.414840
H69	H	0.814001	0.175147	-0.486768
H70	H	0.145761	-0.023008	0.307662
C71	C	0.911647	-0.194811	-0.597009
C72	C	0.841760	-0.212560	-0.648124
C73	C	0.836782	-0.295756	-0.689471
C74	C	0.901692	-0.361202	-0.679704
C75	C	0.971584	-0.343455	-0.628587
C76	C	0.976562	-0.260260	-0.587240
H77	H	0.793706	-0.164111	-0.655356
H78	H	0.785043	-0.308893	-0.727312
H79	H	0.898007	-0.422788	-0.710313
H80	H	1.019639	-0.391904	-0.621355
H81	H	1.028301	-0.247122	-0.549399
C82	C	0.823141	-0.819461	0.263232
C83	C	0.818081	-0.919441	0.268015
C84	C	0.756625	-0.973560	0.325868
C85	C	0.700229	-0.927699	0.378937
C86	C	0.705286	-0.827714	0.374156
C87	C	0.766742	-0.773594	0.316303
H88	H	0.859831	-0.953395	0.228729
H89	H	0.752882	-1.047576	0.329407
H90	H	0.654735	-0.967762	0.421763
H91	H	0.663536	-0.793760	0.413442
H92	H	0.770485	-0.699578	0.312764
H93	H	0.329270	-0.004605	0.060199
H94	H	0.936010	0.159336	-0.229840
H95	H	0.847451	-0.640503	0.240325
H96	H	0.937909	0.148157	-0.079875
H97	H	0.995251	-0.492272	0.101180
C98	C	0.928460	0.135792	-0.612740
C99	C	0.999976	0.200223	-0.609163
C100	C	1.003800	0.290194	-0.658754
C101	C	0.936109	0.315734	-0.711922
C102	C	0.864588	0.251302	-0.715501
C103	C	0.860763	0.161330	-0.665910
H104	H	1.050090	0.181318	-0.569803
H105	H	1.056745	0.337891	-0.656104
H106	H	0.938939	0.382336	-0.748632
H107	H	0.814474	0.270207	-0.754861
H108	H	0.807818	0.113633	-0.668560
H109	H	0.180962	-0.003708	0.048143
H110	H	0.923365	-0.137466	-0.066294
H111	H	0.817363	-0.233275	0.268605
C112	C	0.547854	0.000437	-0.007251
C113	C	0.457930	0.000982	-0.014566
C114	C	0.423639	0.007108	-0.096897
C115	C	0.479272	0.012689	-0.171912
C116	C	0.569201	0.012145	-0.164599
C117	C	0.603492	0.006019	-0.082268
H118	H	0.416742	-0.003151	0.040967
H119	H	0.357067	0.007511	-0.102310
H120	H	0.453888	0.017224	-0.232859
H121	H	0.610389	0.016277	-0.220132
H122	H	0.670064	0.005616	-0.076855
H123	H	0.669878	-0.021336	0.285712
H124	H	0.921485	-0.126281	-0.216248
C125	C	0.919452	-0.138418	-0.301350
C126	C	0.851004	-0.164632	-0.238810
C127	C	0.847173	-0.254605	-0.189222
C128	C	0.911790	-0.318364	-0.202174
C129	C	0.980243	-0.292151	-0.264717
C130	C	0.984074	-0.202178	-0.314305
H131	H	0.803166	-0.117433	-0.229219
H132	H	0.796500	-0.274010	-0.142923
H133	H	0.908954	-0.384968	-0.165466
H134	H	1.028081	-0.339351	-0.274308
H135	H	1.034747	-0.182774	-0.360603
H136	H	0.294081	-0.023884	0.319720
C137	C	0.719534	-0.000588	0.006707
C138	C	0.782208	0.075520	-0.011971
C139	C	0.837842	0.081102	-0.086991
C140	C	0.830802	0.010576	-0.143333
C141	C	0.768125	-0.065537	-0.124657
C142	C	0.712492	-0.071119	-0.049637
H143	H	0.787422	0.127732	0.029738
H144	H	0.884239	0.137446	-0.100817
H145	H	0.871985	0.014708	-0.198868
H146	H	0.762911	-0.117750	-0.166366
H147	H	0.666094	-0.127464	-0.035811
H148	H	1.011742	-0.219659	0.085653
H149	H	0.930406	0.090002	-0.351924
H150	H	1.033479	-0.791781	0.065249
C151	C	0.913851	-0.207757	-0.423429
C152	C	0.845405	-0.233992	-0.360892
C153	C	0.841581	-0.323975	-0.311321
C154	C	0.906205	-0.387722	-0.324287
C155	C	0.974657	-0.361488	-0.386826
C156	C	0.978480	-0.271505	-0.436397
H157	H	0.797562	-0.186802	-0.351292
H158	H	0.790909	-0.343395	-0.265025
H159	H	0.903375	-0.454332	-0.287591
H160	H	1.022500	-0.408679	-0.396426
H161	H	1.029153	-0.252086	-0.482693
H162	H	1.003385	-0.384553	0.093525
H163	H	0.809015	-0.398179	0.276478
H164	H	0.855583	-0.532789	0.232667
