data_functionalizedCrystal
_audit_creation_method	'MofGen! by Chris Wilmer'
_symmetry_space_group_name_H-M	'P1'
_symmetry_Int_Tables_number	1
_symmetry_cell_setting	triclinic
loop_
_symmetry_equiv_pos_as_xyz
  x,y,z
_cell_length_a	12.594517
_cell_length_b	12.594510
_cell_length_c	16.120484
_cell_angle_alpha	92.859644
_cell_angle_beta	92.925054
_cell_angle_gamma	89.977994
loop_
_atom_site_label
_atom_site_type_symbol
_atom_site_fract_x
_atom_site_fract_y
_atom_site_fract_z
Zn1	Zn	1.605713	-0.623321	-0.331842
Zn2	Zn	2.105713	-0.123321	0.168158
Zn3	Zn	1.596548	-0.454350	-0.471287
Zn4	Zn	2.096548	0.045650	0.028713
Zn5	Zn	1.427714	-0.445351	-0.331891
Zn6	Zn	1.927714	0.054649	0.168109
Zn7	Zn	1.418647	-0.632273	-0.471213
Zn8	Zn	1.918647	-0.132273	0.028787
O9	O	1.512156	-0.538824	-0.401558
O10	O	2.012156	-0.038824	0.098442
O11	O	1.753442	-0.600927	-0.350349
O12	O	2.253442	-0.100927	0.149651
O13	O	1.574111	-0.304214	-0.452847
O14	O	2.074111	0.195786	0.047153
O15	O	1.458956	-0.461446	-0.215220
O16	O	1.958956	0.038554	0.284780
O17	O	1.746709	-0.476785	-0.452799
O18	O	2.246709	0.023215	0.047201
O19	O	1.589731	-0.592200	-0.215183
O20	O	2.089731	-0.092200	0.284817
O21	O	1.450069	-0.297602	-0.350434
O22	O	1.950069	0.202398	0.149566
O23	O	1.277566	-0.470126	-0.350363
O24	O	1.777566	0.029874	0.149637
O25	O	1.443503	-0.780028	-0.452673
O26	O	1.943503	-0.280028	0.047327
O27	O	1.270905	-0.607457	-0.452722
O28	O	1.770905	-0.107457	0.047278
O29	O	1.580939	-0.773451	-0.350278
O30	O	2.080939	-0.273451	0.149722
O31	O	1.565319	-0.485465	-0.587942
O32	O	2.065319	0.014535	-0.087942
O33	O	1.434616	-0.616184	-0.587888
O34	O	1.934616	-0.116184	-0.087888
C35	C	1.235616	-0.538787	-0.401540
C36	C	1.735616	-0.038787	0.098460
C37	C	1.117310	-0.538798	-0.401552
C38	C	1.617310	-0.038798	0.098448
C39	C	1.512232	-0.816439	-0.401462
C40	C	2.012232	-0.316439	0.098538
C41	C	1.512265	-0.934742	-0.401421
C42	C	2.012265	-0.434742	0.098579
C43	C	0.980889	-0.464262	-0.345818
C44	C	1.480889	0.035738	0.154182
C45	C	1.053067	-0.560075	-0.325497
C46	C	1.553067	-0.060075	0.174503
C47	C	1.046706	-0.442992	-0.421836
C48	C	1.546706	0.057008	0.078164
C49	C	0.978703	-0.634740	-0.381225
C50	C	1.478703	-0.134740	0.118775
C51	C	0.972333	-0.517594	-0.477599
C52	C	1.472333	-0.017594	0.022401
C53	C	1.044477	-0.613476	-0.457307
C54	C	1.544477	-0.113476	0.042693
C55	C	1.587038	-1.000417	-0.345724
C56	C	2.087038	-0.500417	0.154276
C57	C	1.491287	-1.069889	-0.325317
C58	C	1.991287	-0.569889	0.174683
C59	C	1.608076	-1.076066	-0.421770
C60	C	2.108076	-0.576066	0.078230
C61	C	1.416465	-1.002652	-0.380975
C62	C	1.916465	-0.502652	0.119025
C63	C	1.533317	-1.008825	-0.477463
C64	C	2.033317	-0.508825	0.022537
C65	C	1.437498	-1.078266	-0.457085
C66	C	1.937498	-0.578266	0.042915
C67	C	1.789775	-0.538861	-0.401577
C68	C	2.289775	-0.038861	0.098423
C69	C	1.908080	-0.538877	-0.401585
C70	C	2.408080	-0.038877	0.098415
C71	C	1.498018	-0.552796	-0.618165
C72	C	1.998018	-0.052796	-0.118165
C73	C	1.492068	-0.558809	-0.710830
C74	C	1.992068	-0.058809	-0.210830
C75	C	1.512145	-0.262285	-0.401594
C76	C	2.012145	0.237715	0.098406
C77	C	1.512333	-0.143968	-0.401400
C78	C	2.012333	0.356032	0.098600
C79	C	1.481209	-0.569808	-0.880490
C80	C	1.981209	-0.069808	-0.380490
C81	C	1.543293	-0.507857	-0.921786
C82	C	2.043293	-0.007857	-0.421786
C83	C	1.537251	-0.513977	-1.016191
C84	C	2.037251	-0.013977	-0.516191
C85	C	1.487249	-0.563689	-0.786077
C86	C	1.987249	-0.063689	-0.286077
C87	C	1.526377	-0.524821	-0.184106
C88	C	2.026377	-0.024821	0.315894
C89	C	1.532438	-0.518853	-0.091441
C90	C	2.032438	-0.018853	0.408559
H91	H	0.952858	-0.401268	-0.298636
H92	H	1.452858	0.098732	0.201364
C93	C	0.924612	-0.493281	-0.564434
C94	C	1.424612	0.006719	-0.064434
H95	H	0.881775	-0.551437	-0.585824
H96	H	1.381775	-0.051437	-0.085824
H97	H	0.882254	-0.430992	-0.560416
H98	H	1.382254	0.069008	-0.060416
H99	H	0.980376	-0.482425	-0.600642
H100	H	1.480376	0.017575	-0.100642
C101	C	1.100750	-0.584372	-0.238642
C102	C	1.600750	-0.084372	0.261358
H103	H	1.142036	-0.647410	-0.242473
H104	H	1.642036	-0.147410	0.257527
H105	H	1.144635	-0.526790	-0.217686
H106	H	1.644635	-0.026790	0.282314
H107	H	1.044982	-0.593925	-0.202182
H108	H	1.544982	-0.093925	0.297818
H109	H	1.600981	-0.450221	-0.886240
H110	H	2.100981	0.049779	-0.386240
H111	H	1.650167	-0.966345	-0.298595
H112	H	2.150167	-0.466345	0.201405
H113	H	0.948919	-0.715814	-0.364008
H114	H	1.448919	-0.215814	0.135992
H115	H	1.423524	-0.627438	-0.916033
H116	H	1.923524	-0.127438	-0.416033
H117	H	1.473504	-1.096874	-0.261001
H118	H	1.973504	-0.596874	0.238999
C119	C	1.082099	-0.698760	-0.520994
C120	C	1.582099	-0.198760	-0.020994
H121	H	1.058725	-0.766773	-0.506460
H122	H	1.558725	-0.266773	-0.006460
H123	H	1.053268	-0.684248	-0.574842
H124	H	1.553268	-0.184248	-0.074842
H125	H	1.157526	-0.697885	-0.520955
H126	H	1.657526	-0.197885	-0.020955
H127	H	1.551131	-0.981818	-0.541761
H128	H	2.051131	-0.481818	-0.041761
C129	C	1.717490	-1.119570	-0.445041
C130	C	2.217490	-0.619570	0.054959
H131	H	1.709471	-1.164222	-0.494228
H132	H	2.209471	-0.664222	0.005772
H133	H	1.763446	-1.062026	-0.454285
H134	H	2.263446	-0.562026	0.045715
H135	H	1.747047	-1.159320	-0.400961
H136	H	2.247047	-0.659320	0.099039
H137	H	1.076626	-0.361937	-0.438977
H138	H	1.576626	0.138063	0.061023
H139	H	1.374224	-1.112137	-0.504177
H140	H	1.874224	-0.612137	-0.004177
C141	C	1.307022	-0.959327	-0.357605
C142	C	1.807022	-0.459327	0.142395
H143	H	1.307677	-0.883906	-0.357726
H144	H	1.807677	-0.383906	0.142274
H145	H	1.253908	-0.986623	-0.396912
H146	H	1.753908	-0.486623	0.103088
H147	H	1.291974	-0.980710	-0.303743
H148	H	1.791974	-0.480710	0.196257
