data_functionalizedCrystal
_audit_creation_method	'MofGen! by Chris Wilmer'
_symmetry_space_group_name_H-M	'P1'
_symmetry_Int_Tables_number	1
_symmetry_cell_setting	triclinic
loop_
_symmetry_equiv_pos_as_xyz
  x,y,z
_cell_length_a	21.395362
_cell_length_b	11.169416
_cell_length_c	21.395355
_cell_angle_alpha	89.989073
_cell_angle_beta	89.956060
_cell_angle_gamma	90.026221
loop_
_atom_site_label
_atom_site_type_symbol
_atom_site_fract_x
_atom_site_fract_y
_atom_site_fract_z
Zn1	Zn	0.957948	-0.477437	-0.354619
Zn2	Zn	1.457948	0.022563	0.145381
Zn3	Zn	0.957888	-0.678108	-0.249855
Zn4	Zn	1.457888	-0.178108	0.250145
Zn5	Zn	0.853163	-0.477493	-0.249820
Zn6	Zn	1.353163	0.022507	0.250180
Zn7	Zn	0.853169	-0.678133	-0.354560
Zn8	Zn	1.353169	-0.178133	0.145440
O9	O	0.905542	-0.577793	-0.302213
O10	O	1.405542	-0.077793	0.197787
O11	O	1.045618	-0.504023	-0.340761
O12	O	1.545618	-0.004023	0.159239
O13	O	0.943968	-0.651509	-0.162172
O14	O	1.443968	-0.151509	0.337828
O15	O	0.867086	-0.309536	-0.263732
O16	O	1.367086	0.190464	0.236268
O17	O	1.045574	-0.651455	-0.263792
O18	O	1.545574	-0.151455	0.236208
O19	O	0.944071	-0.309495	-0.340727
O20	O	1.444071	0.190505	0.159273
O21	O	0.867027	-0.504118	-0.162147
O22	O	1.367027	-0.004118	0.337853
O23	O	0.765486	-0.504142	-0.263675
O24	O	1.265486	-0.004142	0.236325
O25	O	0.867096	-0.651497	-0.442246
O26	O	1.367096	-0.151497	0.057754
O27	O	0.765491	-0.651551	-0.340627
O28	O	1.265491	-0.151551	0.159373
O29	O	0.944077	-0.504047	-0.442289
O30	O	1.444077	-0.004047	0.057711
O31	O	0.943974	-0.846061	-0.263734
O32	O	1.443974	-0.346061	0.236266
O33	O	0.867038	-0.846079	-0.340661
O34	O	1.367038	-0.346079	0.159339
C35	C	0.742754	-0.577856	-0.302141
C36	C	1.242754	-0.077856	0.197859
C37	C	0.673113	-0.577912	-0.302124
C38	C	1.173113	-0.077912	0.197876
C39	C	0.905517	-0.889618	-0.302209
C40	C	1.405517	-0.389618	0.197791
C41	C	0.905564	-1.023018	-0.302228
C42	C	1.405564	-0.523018	0.197772
C43	C	0.640419	-0.654770	-0.342133
C44	C	1.140419	-0.154770	0.157867
C45	C	0.574984	-0.654741	-0.342161
C46	C	1.074984	-0.154741	0.157839
C47	C	0.542245	-0.577866	-0.302169
C48	C	1.042245	-0.077866	0.197831
C49	C	0.574947	-0.500994	-0.262157
C50	C	1.074947	-0.000994	0.237843
C51	C	0.640381	-0.501017	-0.262135
C52	C	1.140381	-0.001017	0.237865
C53	C	0.438518	-0.568198	-0.245763
C54	C	0.938518	-0.068198	0.254237
C55	C	0.373085	-0.568183	-0.245784
C56	C	0.873085	-0.068183	0.254216
C57	C	0.340424	-0.577788	-0.302238
C58	C	0.840424	-0.077788	0.197762
C59	C	0.373204	-0.587433	-0.358673
C60	C	0.873204	-0.087433	0.141327
C61	C	0.438638	-0.587456	-0.358650
C62	C	0.938638	-0.087456	0.141350
C63	C	0.471293	-0.577832	-0.302189
C64	C	0.971293	-0.077832	0.197811
C65	C	0.236777	-0.654618	-0.342281
C66	C	0.736777	-0.154618	0.157719
C67	C	0.171341	-0.654580	-0.342310
C68	C	0.671341	-0.154580	0.157690
C69	C	0.171306	-0.500839	-0.262300
C70	C	0.671306	-0.000839	0.237700
C71	C	0.236741	-0.500871	-0.262277
C72	C	0.736741	-0.000871	0.237723
C73	C	0.269473	-0.577766	-0.302266
C74	C	0.769473	-0.077766	0.197734
C75	C	1.068965	-0.577730	-0.302287
C76	C	1.568965	-0.077730	0.197713
C77	C	1.138607	-0.577703	-0.302318
C78	C	1.638607	-0.077703	0.197682
C79	C	0.905594	-0.577769	-0.465637
C80	C	1.405594	-0.077769	0.034363
C81	C	0.905616	-0.577758	-0.535278
C82	C	1.405616	-0.077758	-0.035278
C83	C	0.905584	-0.264751	-0.302232
C84	C	1.405584	0.235249	0.197768
C85	C	0.905602	-0.131351	-0.302240
C86	C	1.405602	0.368649	0.197760
C87	C	0.945698	-0.500978	-0.568015
C88	C	1.445698	-0.000978	-0.068015
C89	C	0.945697	-0.500926	-0.633450
C90	C	1.445697	-0.000926	-0.133450
C91	C	0.905621	-0.577676	-0.666146
C92	C	1.405621	-0.077676	-0.166146
C93	C	0.865531	-0.654462	-0.633402
C94	C	1.365531	-0.154462	-0.133402
C95	C	0.865529	-0.654503	-0.567968
C96	C	1.365529	-0.154503	-0.067968
C97	C	0.900665	-0.685744	-0.769818
C98	C	1.400665	-0.185744	-0.269818
C99	C	0.900672	-0.685705	-0.835251
C100	C	1.400672	-0.185705	-0.335251
C101	C	0.905625	-0.577550	-0.867967
C102	C	1.405625	-0.077550	-0.367967
C103	C	0.910584	-0.469429	-0.835243
C104	C	1.410584	0.030571	-0.335243
C105	C	0.910582	-0.469470	-0.769809
C106	C	1.410582	0.030530	-0.269809
C107	C	0.905619	-0.577640	-0.737099
C108	C	1.405619	-0.077640	-0.237099
C109	C	0.945708	-0.500707	-0.971656
C110	C	1.445708	-0.000707	-0.471656
C111	C	0.945703	-0.500653	-1.037093
C112	C	1.445703	-0.000653	-0.537093
C113	C	0.865540	-0.654200	-1.037044
C114	C	1.365540	-0.154200	-0.537044
C115	C	0.865542	-0.654243	-0.971608
C116	C	1.365542	-0.154243	-0.471608
C117	C	0.905630	-0.577498	-0.938919
C118	C	1.405630	-0.077498	-0.438919
C119	C	0.905526	-0.577731	-0.139426
C120	C	1.405526	-0.077731	0.360574
C121	C	0.905626	-0.577403	-0.069785
C122	C	1.405626	-0.077403	0.430215
H123	H	0.667065	-0.717383	-0.374697
H124	H	1.167065	-0.217383	0.125303
Cl125	Cl	0.681485	-0.404388	-0.211834
Cl126	Cl	1.181485	0.095612	0.288166
Cl127	Cl	0.996090	-0.404492	-0.526923
Cl128	Cl	1.496090	0.095508	-0.026923
Cl129	Cl	0.479571	-0.556127	-0.174785
Cl130	Cl	0.979571	-0.056127	0.325215
Cl131	Cl	0.815153	-0.750778	-0.930451
Cl132	Cl	1.315153	-0.250778	-0.430451
Cl133	Cl	0.533873	-0.751369	-0.392462
Cl134	Cl	1.033873	-0.251369	0.107538
Cl135	Cl	0.533791	-0.404346	-0.211885
Cl136	Cl	1.033791	0.095654	0.288115
Cl137	Cl	0.815147	-0.750944	-0.674505
Cl138	Cl	1.315147	-0.250944	-0.174505
Cl139	Cl	0.130155	-0.404188	-0.212028
Cl140	Cl	0.630155	0.095812	0.287972
Cl141	Cl	0.996077	-0.404370	-0.674613
Cl142	Cl	1.496077	0.095630	-0.174613
Cl143	Cl	0.277929	-0.751277	-0.392556
Cl144	Cl	0.777929	-0.251277	0.107444
H145	H	0.263361	-0.438291	-0.229694
H146	H	0.763361	0.061709	0.270306
H147	H	0.465325	-0.595306	-0.404601
H148	H	0.965325	-0.095306	0.095399
H149	H	0.346613	-0.595252	-0.404643
H150	H	0.846613	-0.095252	0.095357
Cl151	Cl	0.815152	-0.750676	-1.078141
Cl152	Cl	1.315152	-0.250676	-0.578141
H153	H	0.896638	-0.773744	-0.861890
H154	H	1.396638	-0.273744	-0.361890
Cl155	Cl	0.130239	-0.751203	-0.392615
Cl156	Cl	0.630239	-0.251203	0.107385
H157	H	0.832887	-0.717026	-0.541314
H158	H	1.332887	-0.217026	-0.041314
Cl159	Cl	0.996106	-0.404139	-1.078249
Cl160	Cl	1.496106	0.095861	-0.578249
Cl161	Cl	0.331883	-0.556057	-0.174840
Cl162	Cl	0.831883	-0.056057	0.325160
Cl163	Cl	0.916811	-0.333554	-0.728671
Cl164	Cl	1.416811	0.166446	-0.228671
Cl165	Cl	0.916814	-0.333452	-0.876364
Cl166	Cl	1.416814	0.166548	-0.376364
Cl167	Cl	0.996099	-0.404223	-0.930558
Cl168	Cl	1.496099	0.095777	-0.430558
H169	H	0.896464	-0.773795	-0.743185
H170	H	1.396464	-0.273795	-0.243185
