data_functionalizedCrystal
_audit_creation_method	'MofGen! by Chris Wilmer'
_symmetry_space_group_name_H-M	'P1'
_symmetry_Int_Tables_number	1
_symmetry_cell_setting	triclinic
loop_
_symmetry_equiv_pos_as_xyz
  x,y,z
_cell_length_a	21.295420
_cell_length_b	12.645330
_cell_length_c	12.645323
_cell_angle_alpha	89.976029
_cell_angle_beta	90.022537
_cell_angle_gamma	89.978031
loop_
_atom_site_label
_atom_site_type_symbol
_atom_site_fract_x
_atom_site_fract_y
_atom_site_fract_z
Zn1	Zn	0.962361	0.422150	0.599449
Zn2	Zn	1.462361	0.922150	1.099449
Zn3	Zn	0.962276	0.599438	0.422192
Zn4	Zn	1.462276	1.099438	0.922192
Zn5	Zn	0.857088	0.422176	0.422194
Zn6	Zn	1.357088	0.922176	0.922194
Zn7	Zn	0.857062	0.599359	0.599408
Zn8	Zn	1.357062	1.099359	1.099408
O9	O	0.909697	0.510781	0.510810
O10	O	1.409697	1.010781	1.010810
O11	O	1.050439	0.445690	0.575952
O12	O	1.550439	0.945690	1.075952
O13	O	0.948297	0.575968	0.273845
O14	O	1.448297	1.075968	0.773845
O15	O	0.871100	0.273826	0.445725
O16	O	1.371100	0.773826	0.945725
O17	O	1.050376	0.575943	0.445722
O18	O	1.550376	1.075943	0.945722
O19	O	0.948444	0.273806	0.575954
O20	O	1.448444	0.773806	1.075954
O21	O	0.871017	0.445734	0.273846
O22	O	1.371017	0.945734	0.773846
O23	O	0.768996	0.445658	0.445685
O24	O	1.268996	0.945658	0.945685
O25	O	0.871055	0.575808	0.747760
O26	O	1.371055	1.075808	1.247760
O27	O	0.768976	0.575833	0.575883
O28	O	1.268976	1.075833	1.075883
O29	O	0.948418	0.445613	0.747791
O30	O	1.448418	0.945613	1.247791
O31	O	0.948272	0.747775	0.445682
O32	O	1.448272	1.247775	0.945682
O33	O	0.870972	0.747717	0.575881
O34	O	1.370972	1.247717	1.075881
C35	C	0.746145	0.510740	0.510781
C36	C	1.246145	1.010740	1.010781
C37	C	0.676177	0.510749	0.510793
C38	C	1.176177	1.010749	1.010793
C39	C	0.176751	0.443118	0.578747
C40	C	0.676751	0.943118	1.078747
C41	C	0.242494	0.443110	0.578747
C42	C	0.742494	0.943110	1.078747
C43	C	0.275338	0.510813	0.510835
C44	C	0.775338	1.010813	1.010835
C45	C	0.242434	0.578548	0.442937
C46	C	0.742434	1.078548	0.942937
C47	C	0.176692	0.578562	0.442947
C48	C	0.676692	1.078562	0.942947
N49	N	0.378530	0.518808	0.418012
N50	N	0.878530	1.018808	0.918012
N51	N	0.440981	0.518789	0.418006
N52	N	0.940981	1.018789	0.918006
C53	C	0.473412	0.510778	0.510804
C54	C	0.973412	1.010778	1.010804
N55	N	0.441033	0.502766	0.603610
N56	N	0.941033	1.002766	1.103610
N57	N	0.378576	0.502780	0.603615
N58	N	0.878576	1.002780	1.103615
C59	C	0.346623	0.510807	0.510818
C60	C	0.846623	1.010807	1.010818
C61	C	0.577594	0.443044	0.578703
C62	C	1.077594	0.943044	1.078703
C63	C	0.643338	0.443044	0.578704
C64	C	1.143338	0.943044	1.078704
C65	C	0.643276	0.578476	0.442885
C66	C	1.143276	1.078476	0.942885
C67	C	0.577534	0.578482	0.442893
C68	C	1.077534	1.078482	0.942893
C69	C	0.544697	0.510761	0.510800
C70	C	1.044697	1.010761	1.010800
C71	C	0.909627	0.786211	0.510800
C72	C	1.409627	1.286211	1.010800
C73	C	0.909654	0.904041	0.510831
C74	C	1.409654	1.404041	1.010831
C75	C	0.909743	0.510699	0.787316
C76	C	1.409743	1.010699	1.287316
C77	C	0.909763	0.510664	0.905146
C78	C	1.409763	1.010664	1.405146
C79	C	1.073887	0.510822	0.510841
C80	C	1.573887	1.010822	1.010841
C81	C	1.143855	0.510840	0.510854
C82	C	1.643855	1.010840	1.010854
C83	C	0.861211	1.071612	0.592995
C84	C	1.361211	1.571612	1.092995
C85	C	0.860974	0.949053	0.592729
C86	C	1.360974	1.449053	1.092729
C87	C	0.891691	0.948633	0.399110
C88	C	1.391691	1.448633	0.899110
C89	C	0.891384	1.071231	0.399610
C90	C	1.391384	1.571231	0.899610
C91	C	0.976325	1.071138	0.539488
C92	C	1.476325	1.571138	1.039488
C93	C	0.975927	0.948531	0.541929
C94	C	1.475927	1.448531	1.041929
C95	C	0.909762	1.234276	0.510848
C96	C	1.409762	1.734276	1.010848
C97	C	0.909734	1.116446	0.510874
C98	C	1.409734	1.616446	1.010874
C99	C	0.909687	0.510786	0.235381
C100	C	1.409687	1.010786	0.735381
C101	C	0.909789	0.510522	0.117551
C102	C	1.409789	1.010522	0.617551
C103	C	0.860944	0.592183	1.072691
C104	C	1.360944	1.092183	1.572691
C105	C	0.861072	0.592587	0.950131
C106	C	1.361072	1.092587	1.450131
C107	C	0.976088	0.540991	0.949666
C108	C	1.476088	1.040991	1.449666
C109	C	0.975820	0.541502	1.072264
C110	C	1.475820	1.041502	1.572264
C111	C	0.892884	0.398362	1.072342
C112	C	1.392884	0.898362	1.572342
C113	C	0.891404	0.399035	0.949736
C114	C	1.391404	0.899035	1.449736
H115	H	0.150019	0.387978	0.634047
H116	H	0.650019	0.887978	1.134047
Cl117	Cl	1.033880	0.453602	1.118089
Cl118	Cl	1.533880	0.953602	1.618089
Cl119	Cl	0.684694	0.357908	0.664073
Cl120	Cl	1.184694	0.857908	1.164073
H121	H	0.843525	0.918015	0.374431
H122	H	1.343525	1.418015	0.874431
Cl123	Cl	0.684560	0.663598	0.357517
Cl124	Cl	1.184560	1.163598	0.857517
Cl125	Cl	0.536176	0.663607	0.357520
Cl126	Cl	1.036176	1.163607	0.857520
H127	H	0.811615	0.573387	1.102165
H128	H	1.311615	1.073387	1.602165
Cl129	Cl	0.878391	1.117028	0.721320
Cl130	Cl	1.378391	1.617028	1.221320
Cl131	Cl	0.997943	0.668091	1.116444
Cl132	Cl	1.497943	1.168091	1.616444
Cl133	Cl	0.878323	0.902495	0.720629
Cl134	Cl	1.378323	1.402495	1.220629
Cl135	Cl	0.785469	1.119333	0.564124
Cl136	Cl	1.285469	1.619333	1.064124
Cl137	Cl	0.944532	0.903624	0.302055
Cl138	Cl	1.444532	1.403624	0.802055
H139	H	0.924383	0.334976	0.919113
H140	H	1.424383	0.834976	1.419113
H141	H	0.842595	0.376164	0.920636
H142	H	1.342595	0.876164	1.420636
Cl143	Cl	1.034695	0.901211	0.456314
Cl144	Cl	1.534695	1.401211	0.956314
Cl145	Cl	1.032143	1.115922	0.447162
Cl146	Cl	1.532143	1.615922	0.947162
Cl147	Cl	0.785138	0.563282	0.903651
Cl148	Cl	1.285138	1.063282	1.403651
Cl149	Cl	0.784762	0.903899	0.563464
Cl150	Cl	1.284762	1.403899	1.063464
Cl151	Cl	0.816229	1.115524	0.362188
Cl152	Cl	1.316229	1.615524	0.862188
Cl153	Cl	0.943574	1.117031	0.301915
Cl154	Cl	1.443574	1.617031	0.801915
Cl155	Cl	0.877966	0.719744	1.120351
Cl156	Cl	1.377966	1.219744	1.620351
H157	H	0.992705	1.101984	0.619571
H158	H	1.492705	1.601984	1.119571
H159	H	0.928461	0.337521	1.101355
H160	H	1.428461	0.837521	1.601355
Cl161	Cl	0.996845	0.903529	0.668872
Cl162	Cl	1.496845	1.403529	1.168872
Cl163	Cl	1.033786	0.452069	0.904686
Cl164	Cl	1.533786	0.952069	1.404686
Cl165	Cl	0.878336	0.720950	0.904867
Cl166	Cl	1.378336	1.220950	1.404867
H167	H	0.990664	0.622123	0.918979
H168	H	1.490664	1.122123	1.418979
H169	H	0.269283	0.387958	0.634033
H170	H	0.769283	0.887958	1.134033
Cl171	Cl	0.283722	0.663665	0.357566
Cl172	Cl	0.783722	1.163665	0.857566
Cl173	Cl	0.135335	0.663700	0.357583
Cl174	Cl	0.635335	1.163700	0.857583
Cl175	Cl	0.536310	0.357914	0.664074
Cl176	Cl	1.036310	0.857914	1.164074
Cl177	Cl	0.819513	0.355686	1.120049
Cl178	Cl	1.319513	0.855686	1.620049
