data_functionalizedCrystal
_audit_creation_method	'MofGen! by Chris Wilmer'
_symmetry_space_group_name_H-M	'P1'
_symmetry_Int_Tables_number	1
_symmetry_cell_setting	triclinic
loop_
_symmetry_equiv_pos_as_xyz
  x,y,z
_cell_length_a	14.586319
_cell_length_b	16.109301
_cell_length_c	16.109301
_cell_angle_alpha	83.461481
_cell_angle_beta	90.005214
_cell_angle_gamma	90.000787
loop_
_atom_site_label
_atom_site_type_symbol
_atom_site_fract_x
_atom_site_fract_y
_atom_site_fract_z
O1	O	-0.076185	-1.103131	-0.106866
O2	O	0.173815	-0.853131	0.143134
O3	O	0.423815	-0.603131	0.393134
O4	O	0.673815	-0.353131	0.643134
O5	O	-0.076200	-0.861069	-0.120165
O6	O	0.173800	-0.611069	0.129835
O7	O	0.423800	-0.361069	0.379835
O8	O	0.673800	-0.111069	0.629835
O9	O	-0.076183	-0.988749	0.007515
O10	O	0.173817	-0.738749	0.257515
O11	O	0.423817	-0.488749	0.507515
O12	O	0.673817	-0.238749	0.757515
O13	O	-0.076203	-0.975450	-0.234547
O14	O	0.173797	-0.725450	0.015453
O15	O	0.423797	-0.475450	0.265453
O16	O	0.673797	-0.225450	0.515453
O17	O	0.076298	-0.988741	0.007517
O18	O	0.326298	-0.738741	0.257517
O19	O	0.576298	-0.488741	0.507517
O20	O	0.826298	-0.238741	0.757517
O21	O	0.076281	-0.861060	-0.120164
O22	O	0.326281	-0.611060	0.129836
O23	O	0.576281	-0.361060	0.379836
O24	O	0.826281	-0.111060	0.629836
O25	O	0.076295	-1.103122	-0.106864
O26	O	0.326295	-0.853122	0.143136
O27	O	0.576295	-0.603122	0.393136
O28	O	0.826295	-0.353122	0.643136
Cu29	Cu	0.090211	-0.982090	-0.113514
Cu30	Cu	0.340211	-0.732090	0.136486
Cu31	Cu	0.590211	-0.482090	0.386486
Cu32	Cu	0.840211	-0.232090	0.636486
Cu33	Cu	-0.090115	-0.982101	-0.113516
Cu34	Cu	0.159885	-0.732101	0.136484
Cu35	Cu	0.409885	-0.482101	0.386484
Cu36	Cu	0.659885	-0.232101	0.636484
O37	O	0.076278	-0.975441	-0.234545
O38	O	0.326278	-0.725441	0.015455
O39	O	0.576278	-0.475441	0.265455
O40	O	0.826278	-0.225441	0.515455
C41	C	0.000038	-0.830090	-0.119626
C42	C	0.250038	-0.580090	0.130374
C43	C	0.500038	-0.330090	0.380374
C44	C	0.750038	-0.080090	0.630374
C45	C	0.000033	-0.737794	-0.118011
C46	C	0.250033	-0.487794	0.131989
C47	C	0.500033	-0.237794	0.381989
C48	C	0.750033	0.012206	0.631989
N49	N	0.217042	-0.982089	-0.113512
N50	N	0.467042	-0.732089	0.136488
N51	N	0.717042	-0.482089	0.386488
N52	N	0.967042	-0.232089	0.636488
N53	N	-0.216947	-0.982109	-0.113511
N54	N	0.033053	-0.732109	0.136489
N55	N	0.283053	-0.482109	0.386489
N56	N	0.533053	-0.232109	0.636489
C57	C	0.000058	-0.988206	0.038491
C58	C	0.250058	-0.738206	0.288491
C59	C	0.500058	-0.488206	0.538491
C60	C	0.750058	-0.238206	0.788491
C61	C	0.000059	-0.986591	0.130786
C62	C	0.250059	-0.736591	0.380786
C63	C	0.500059	-0.486591	0.630786
C64	C	0.750059	-0.236591	0.880786
C65	C	0.452057	-1.038644	-0.056994
C66	C	0.702057	-0.788644	0.193006
C67	C	0.952057	-0.538644	0.443006
C68	C	1.202057	-0.288644	0.693006
C69	C	0.548038	-1.038647	-0.056992
C70	C	0.798038	-0.788647	0.193008
C71	C	1.048038	-0.538647	0.443008
C72	C	1.298038	-0.288647	0.693008
C73	C	0.548032	-0.925547	-0.170032
C74	C	0.798032	-0.675547	0.079968
C75	C	1.048032	-0.425547	0.329968
C76	C	1.298032	-0.175547	0.579968
C77	C	0.452052	-0.925541	-0.170030
C78	C	0.702052	-0.675541	0.079970
C79	C	0.952052	-0.425541	0.329970
C80	C	1.202052	-0.175541	0.579970
C81	C	0.404067	-0.982095	-0.113511
C82	C	0.654067	-0.732095	0.136489
C83	C	0.904067	-0.482095	0.386489
C84	C	1.154067	-0.232095	0.636489
C85	C	0.596028	-0.982103	-0.113512
C86	C	0.846028	-0.732103	0.136488
C87	C	1.096028	-0.482103	0.386488
C88	C	1.346028	-0.232103	0.636488
C89	C	0.700095	-0.982105	-0.113510
C90	C	0.950095	-0.732105	0.136490
C91	C	1.200095	-0.482105	0.386490
C92	C	1.450095	-0.232105	0.636490
C93	C	0.299993	-0.982092	-0.113512
C94	C	0.549993	-0.732092	0.136488
C95	C	0.799993	-0.482092	0.386488
C96	C	1.049993	-0.232092	0.636488
C97	C	0.000055	-1.134101	-0.107404
C98	C	0.250055	-0.884101	0.142596
C99	C	0.500055	-0.634101	0.392596
C100	C	0.750055	-0.384101	0.642596
C101	C	0.000054	-1.226397	-0.109019
C102	C	0.250054	-0.976397	0.140981
C103	C	0.500054	-0.726397	0.390981
C104	C	0.750054	-0.476397	0.640981
C105	C	0.000038	-0.515522	-0.190018
C106	C	0.250038	-0.265522	0.059982
C107	C	0.500038	-0.015522	0.309982
C108	C	0.750038	0.234478	0.559982
C109	C	0.000044	-0.428801	-0.188494
C110	C	0.250044	-0.178801	0.061506
C111	C	0.500044	0.071199	0.311506
C112	C	0.750044	0.321199	0.561506
C113	C	0.000052	-0.448676	-0.037006
C114	C	0.250052	-0.198676	0.212994
C115	C	0.500052	0.051324	0.462994
C116	C	0.750052	0.301324	0.712994
C117	C	0.000053	-0.535394	-0.038530
C118	C	0.250053	-0.285394	0.211470
C119	C	0.500053	-0.035394	0.461470
C120	C	0.750053	0.214606	0.711470
C121	C	0.000041	-0.568815	-0.115039
C122	C	0.250041	-0.318815	0.134961
C123	C	0.500041	-0.068815	0.384961
C124	C	0.750041	0.181185	0.634961
C125	C	0.000046	-0.395376	-0.111990
C126	C	0.250046	-0.145376	0.138010
C127	C	0.500046	0.104624	0.388010
C128	C	0.750046	0.354624	0.638010
C129	C	0.000053	-0.301350	-0.110337
C130	C	0.250053	-0.051350	0.139663
C131	C	0.500053	0.198650	0.389663
C132	C	0.750053	0.448650	0.639663
C133	C	0.000036	-0.662847	-0.116693
C134	C	0.250036	-0.412847	0.133307
C135	C	0.500036	-0.162847	0.383307
C136	C	0.750036	0.087153	0.633307
C137	C	0.000035	-0.975984	-0.265521
C138	C	0.250035	-0.725984	-0.015521
C139	C	0.500035	-0.475984	0.234479
C140	C	0.750035	-0.225984	0.484479
C141	C	0.000028	-0.977600	-0.357816
C142	C	0.250028	-0.727600	-0.107816
C143	C	0.500028	-0.477600	0.142184
C144	C	0.750028	-0.227600	0.392184
C145	C	0.000049	-1.058599	0.353059
C146	C	0.250049	-0.808599	0.603059
C147	C	0.500049	-0.558599	0.853059
C148	C	0.750049	-0.308599	1.103059
C149	C	0.000041	-1.057075	0.439779
C150	C	0.250041	-0.807075	0.689779
C151	C	0.500041	-0.557075	0.939779
C152	C	0.750041	-0.307075	1.189779
C153	C	0.000036	-0.905586	0.419905
C154	C	0.250036	-0.655586	0.669905
C155	C	0.500036	-0.405586	0.919905
C156	C	0.750036	-0.155586	1.169905
C157	C	0.000037	-0.907111	0.333186
C158	C	0.250037	-0.657111	0.583186
C159	C	0.500037	-0.407111	0.833186
C160	C	0.750037	-0.157111	1.083186
C161	C	0.000048	-0.983620	0.299766
C162	C	0.250048	-0.733620	0.549766
C163	C	0.500048	-0.483620	0.799766
C164	C	0.750048	-0.233620	1.049766
C165	C	0.000039	-0.980571	0.473205
C166	C	0.250039	-0.730571	0.723205
C167	C	0.500039	-0.480571	0.973205
C168	C	0.750039	-0.230571	1.223205
C169	C	0.000031	-0.978918	0.567231
C170	C	0.250031	-0.728918	0.817231
C171	C	0.500031	-0.478918	1.067231
C172	C	0.750031	-0.228918	1.317231
C173	C	0.000055	-0.985273	0.205734
C174	C	0.250055	-0.735273	0.455734
C175	C	0.500055	-0.485273	0.705734
C176	C	0.750055	-0.235273	0.955734
H177	H	0.412989	-1.084693	-0.010972
H178	H	0.662989	-0.834693	0.239028
H179	H	0.912989	-0.584693	0.489028
H180	H	1.162989	-0.334693	0.739028
Br181	Br	0.613158	-0.848800	-0.246734
Br182	Br	0.863158	-0.598800	0.003266
Br183	Br	1.113158	-0.348800	0.253266
Br184	Br	1.363158	-0.098800	0.503266
H185	H	0.000043	-0.385413	-0.249550
H186	H	0.250043	-0.135413	0.000450
H187	H	0.500043	0.114587	0.250450
H188	H	0.750043	0.364587	0.500450
Br189	Br	0.000069	-0.607728	0.063234
Br190	Br	0.250069	-0.357728	0.313234
Br191	Br	0.500069	-0.107728	0.563234
Br192	Br	0.750069	0.142272	0.813234
Br193	Br	0.386916	-0.848783	-0.246731
Br194	Br	0.636916	-0.598783	0.003269
Br195	Br	0.886916	-0.348783	0.253269
Br196	Br	1.136916	-0.098783	0.503269
Br197	Br	0.000037	-1.158837	0.512103
Br198	Br	0.250037	-0.908837	0.762103
Br199	Br	0.500037	-0.658837	1.012103
Br200	Br	0.750037	-0.408837	1.262103
Br201	Br	0.000065	-1.162431	0.307705
Br202	Br	0.250065	-0.912431	0.557705
Br203	Br	0.500065	-0.662431	0.807705
Br204	Br	0.750065	-0.412431	1.057705
Br205	Br	0.000017	-0.801758	0.465267
Br206	Br	0.250017	-0.551758	0.715267
Br207	Br	0.500017	-0.301758	0.965267
Br208	Br	0.750017	-0.051758	1.215267
Br209	Br	0.000025	-0.560876	-0.293851
Br210	Br	0.250025	-0.310876	-0.043851
Br211	Br	0.500025	-0.060876	0.206149
Br212	Br	0.750025	0.189124	0.456149
H213	H	0.000067	-0.421454	0.025285
H214	H	0.250067	-0.171454	0.275285
H215	H	0.500067	0.078546	0.525285
H216	H	0.750067	0.328546	0.775285
H217	H	0.000033	-0.846050	0.289792
H218	H	0.250033	-0.596050	0.539792
H219	H	0.500033	-0.346050	0.789792
H220	H	0.750033	-0.096050	1.039792
H221	H	0.587108	-1.084694	-0.010969
H222	H	0.837108	-0.834694	0.239031
H223	H	1.087108	-0.584694	0.489031
H224	H	1.337108	-0.334694	0.739031
