data_functionalizedCrystal
_audit_creation_method	'MofGen! by Chris Wilmer'
_symmetry_space_group_name_H-M	'P1'
_symmetry_Int_Tables_number	1
_symmetry_cell_setting	triclinic
loop_
_symmetry_equiv_pos_as_xyz
  x,y,z
_cell_length_a	18.266242
_cell_length_b	10.489741
_cell_length_c	10.489741
_cell_angle_alpha	84.539174
_cell_angle_beta	89.993983
_cell_angle_gamma	89.993673
loop_
_atom_site_label
_atom_site_type_symbol
_atom_site_fract_x
_atom_site_fract_y
_atom_site_fract_z
O1	O	0.060835	-1.694062	-0.179970
O2	O	0.060847	-1.322866	-0.196863
O3	O	0.060836	-1.516910	-0.002819
O4	O	0.060846	-1.500018	-0.374014
O5	O	-0.060926	-1.516877	-0.002808
O6	O	-0.060915	-1.322833	-0.196852
O7	O	-0.060927	-1.694029	-0.179960
Zn8	Zn	-0.080253	-1.508425	-0.188404
Zn9	Zn	0.080173	-1.508469	-0.188418
O10	O	-0.060916	-1.499984	-0.374004
C11	C	-0.000033	-1.275318	-0.195582
C12	C	-0.000029	-1.133688	-0.191765
N13	N	-0.189740	-1.508405	-0.188394
C14	C	-0.000044	-1.515618	0.044718
C15	C	-0.000043	-1.511801	0.186348
C16	C	-0.228054	-1.594356	-0.102514
C17	C	-0.304699	-1.594365	-0.102508
C18	C	-0.343027	-1.508433	-0.188405
C19	C	-0.304705	-1.422465	-0.274291
C20	C	-0.228061	-1.422451	-0.274286
N21	N	-0.463356	-1.493234	-0.301127
N22	N	-0.536165	-1.493255	-0.301128
C23	C	-0.573950	-1.508469	-0.188424
N24	N	-0.536176	-1.523687	-0.075715
N25	N	-0.463361	-1.523672	-0.075715
C26	C	-0.426134	-1.508439	-0.188419
C27	C	-0.695370	-1.594434	-0.102530
C28	C	-0.772017	-1.594434	-0.102523
C29	C	-0.772021	-1.422541	-0.274316
C30	C	-0.695376	-1.422535	-0.274313
C31	C	-0.657055	-1.508489	-0.188421
N32	N	0.189660	-1.508500	-0.188418
C33	C	-0.000046	-1.741577	-0.181241
C34	C	-0.000045	-1.883206	-0.185058
C35	C	-0.000039	-1.065548	-0.068300
C36	C	0.059996	-0.973438	-0.126629
C37	C	-0.060052	-0.973439	-0.126648
C38	C	0.060056	-1.043443	-0.250144
C39	C	-0.060046	-1.043454	-0.250146
C40	C	0.000004	-0.951371	-0.308564
C41	C	-0.000034	-1.501277	-0.421541
C42	C	-0.000031	-1.505094	-0.563170
C43	C	-0.000034	-1.388336	0.254488
C44	C	-0.060070	-1.446643	0.346615
C45	C	0.059977	-1.446705	0.346580
C46	C	-0.060129	-1.570159	0.276610
C47	C	0.059973	-1.570204	0.276565
C48	C	-0.000079	-1.628600	0.368665
H49	H	-0.335899	-1.664359	-0.032572
O50	O	-0.127273	-1.084594	-0.319277
H51	H	-0.177040	-1.056867	-0.267826
O52	O	0.000048	-0.885909	-0.443151
H53	H	-0.000432	-0.780524	-0.439386
O54	O	-0.813336	-1.687154	-0.009887
H55	H	-0.848260	-1.632913	0.052656
O56	O	-0.127285	-0.932392	-0.057420
H57	H	-0.160288	-0.866156	-0.123274
H58	H	-0.664179	-1.352550	-0.344250
H59	H	-0.000091	-1.286824	0.204837
H60	H	-0.110824	-1.394389	0.377631
H61	H	0.110739	-1.394463	0.377539
O62	O	-0.346038	-1.329786	-0.366947
H63	H	-0.405770	-1.344246	-0.352534
H64	H	-0.000115	-1.730204	0.418089
O65	O	-0.186720	-1.687042	-0.009863
H66	H	-0.226244	-1.746802	0.049867
O67	O	-0.186730	-1.329753	-0.366927
H68	H	-0.226255	-1.270002	-0.426662
H69	H	-0.110942	-1.622340	0.245782
H70	H	-0.803227	-1.352569	-0.344250
H71	H	0.110729	-1.622414	0.245516
H72	H	0.110868	-1.074285	-0.302348
H73	H	-0.664168	-1.664419	-0.032588
H74	H	0.000034	-1.115238	0.033196
H75	H	0.110750	-0.942437	-0.074392
