data_functionalizedCrystal
_audit_creation_method	'MofGen! by Chris Wilmer'
_symmetry_space_group_name_H-M	'P1'
_symmetry_Int_Tables_number	1
_symmetry_cell_setting	triclinic
loop_
_symmetry_equiv_pos_as_xyz
  x,y,z
_cell_length_a	19.288857
_cell_length_b	19.288840
_cell_length_c	18.366186
_cell_angle_alpha	90.013590
_cell_angle_beta	90.003709
_cell_angle_gamma	83.129562
loop_
_atom_site_label
_atom_site_type_symbol
_atom_site_fract_x
_atom_site_fract_y
_atom_site_fract_z
O1	O	0.086562	0.921359	0.060675
O2	O	0.098269	0.719096	0.060650
O3	O	-0.008716	0.826075	0.060654
O4	O	0.193546	0.814380	0.060670
O5	O	-0.008712	0.826061	-0.060445
O6	O	0.098272	0.719082	-0.060449
O7	O	0.086565	0.921345	-0.060425
Zn8	Zn	0.092419	0.820212	-0.079664
Zn9	Zn	0.092415	0.820230	0.079889
O10	O	0.193550	0.814367	-0.060429
C11	C	0.097897	0.693212	0.000097
C12	C	0.096775	0.616108	0.000087
C13	C	-0.034591	0.825693	0.000104
C14	C	-0.111695	0.824566	0.000102
C15	C	0.096234	0.579912	0.066100
C16	C	0.095172	0.507465	0.066109
C17	C	0.094637	0.471219	0.000101
C18	C	0.095182	0.507423	-0.065921
C19	C	0.096251	0.579867	-0.065928
C20	C	0.052260	0.361886	-0.050464
C21	C	0.051187	0.289444	-0.050454
C22	C	0.091342	0.247775	0.000120
C23	C	0.132563	0.278559	0.050696
C24	C	0.133632	0.351004	0.050689
C25	C	0.093478	0.392665	0.000101
C26	C	0.089651	0.133024	0.066147
C27	C	0.088593	0.060575	0.066153
C28	C	0.088596	0.060535	-0.065879
C29	C	0.089661	0.132982	-0.065883
C30	C	0.090185	0.169222	0.000132
C31	C	-0.147907	0.824047	0.066113
C32	C	-0.220353	0.822979	0.066118
C33	C	-0.256585	0.822442	0.000108
C34	C	-0.220364	0.822957	-0.065912
C35	C	-0.147918	0.824018	-0.065915
C36	C	-0.376819	0.861439	-0.050454
C37	C	-0.449264	0.860381	-0.050448
C38	C	-0.480031	0.819164	0.000116
C39	C	-0.438346	0.779014	0.050687
C40	C	-0.365901	0.780076	0.050683
C41	C	-0.335140	0.821291	0.000105
C42	C	-0.594798	0.817486	0.066138
C43	C	-0.667244	0.816413	0.066140
C44	C	-0.667254	0.816398	-0.065891
C45	C	-0.594808	0.817464	-0.065892
C46	C	-0.558585	0.818012	0.000125
C47	C	0.219425	0.814749	0.000123
C48	C	0.296528	0.815876	0.000130
C49	C	0.086937	0.947229	0.000130
C50	C	0.088059	1.024334	0.000144
N51	N	0.092422	0.820204	-0.188555
C52	C	0.134416	0.862235	-0.773096
C53	C	0.134423	0.862227	-0.696868
C54	C	0.092407	0.820236	-0.658767
C55	C	0.050394	0.778236	-0.696899
C56	C	0.050394	0.778239	-0.773126
C57	C	0.029782	0.818511	-0.538006
C58	C	0.029781	0.818513	-0.461781
C59	C	0.092409	0.820222	-0.423659
C60	C	0.155038	0.821945	-0.461772
C61	C	0.155038	0.821948	-0.537998
C62	C	0.092403	0.820228	-0.576112
C63	C	0.134430	0.862209	-0.302881
C64	C	0.134438	0.862197	-0.226652
C65	C	0.050402	0.778209	-0.226684
C66	C	0.050401	0.778217	-0.302912
C67	C	0.092413	0.820221	-0.341006
N68	N	0.092406	0.820243	0.188781
H69	H	0.096660	0.609414	0.119855
H70	H	0.017620	0.264386	-0.091633
Br71	Br	-0.480091	0.723071	0.119313
H72	H	0.090085	0.162531	0.119900
Br73	Br	0.240038	0.824271	-0.410045
Br74	Br	-0.098749	0.824787	0.155706
Br75	Br	-0.006624	0.721244	-0.824869
Br76	Br	0.094439	0.458330	0.155705
H77	H	0.167196	0.376065	0.091868
H78	H	-0.021219	0.817113	-0.569039
Br79	Br	-0.002239	0.418429	-0.119108
H80	H	0.165264	0.244633	0.091876
Br81	Br	0.087868	0.011449	0.155751
Br82	Br	-0.098768	0.824719	-0.155509
H83	H	-0.565302	0.817928	0.119893
H84	H	0.016188	0.744026	-0.333952
Br85	Br	0.087881	0.011351	-0.155463
H86	H	0.090097	0.162453	-0.119638
Br87	Br	-0.716391	0.815702	0.155735
H88	H	0.168628	0.896436	-0.804107
H89	H	0.094748	0.477906	-0.119665
H90	H	-0.021216	0.817115	-0.430756
H91	H	0.096692	0.609338	-0.119685
Br92	Br	0.191431	0.919231	-0.645118
Br93	Br	-0.006623	0.721242	-0.645192
Br94	Br	-0.269509	0.822272	0.155711
Br95	Br	0.240031	0.824281	-0.589720
H96	H	-0.249868	0.822518	-0.119657
H97	H	-0.696753	0.815956	-0.119638
H98	H	0.016196	0.744015	-0.195663
H99	H	0.168642	0.896407	-0.333898
Br100	Br	0.191477	0.919172	-0.174911
H101	H	-0.331963	0.747383	0.091858
Br102	Br	-0.545658	0.818165	-0.155484
H103	H	-0.483199	0.893076	-0.091623
Br104	Br	-0.335074	0.917399	-0.119067
