data_functionalizedCrystal
_audit_creation_method	'MofGen! by Chris Wilmer'
_symmetry_space_group_name_H-M	'P1'
_symmetry_Int_Tables_number	1
_symmetry_cell_setting	triclinic
loop_
_symmetry_equiv_pos_as_xyz
  x,y,z
_cell_length_a	12.837943
_cell_length_b	16.098524
_cell_length_c	12.837942
_cell_angle_alpha	87.220999
_cell_angle_beta	85.171060
_cell_angle_gamma	92.778531
loop_
_atom_site_label
_atom_site_type_symbol
_atom_site_fract_x
_atom_site_fract_y
_atom_site_fract_z
O1	O	1.406926	0.069241	-0.276730
O2	O	1.103793	0.069246	-0.263287
O3	O	1.248638	0.069239	-0.118442
O4	O	1.262082	0.069249	-0.421576
O5	O	1.239440	-0.069275	-0.109254
O6	O	1.094596	-0.069268	-0.254099
O7	O	1.397729	-0.069272	-0.267542
Zn8	Zn	1.244702	-0.091262	-0.259362
Zn9	Zn	1.256820	0.091236	-0.271468
O10	O	1.252884	-0.069265	-0.412388
C11	C	1.060125	-0.000010	-0.254152
C12	C	0.943710	-0.000008	-0.240608
N13	N	1.236440	-0.215812	-0.251100
C14	C	0.718836	-0.000015	-0.403436
C15	C	0.609453	-0.000014	-0.390715
C16	C	0.615561	-0.000011	-0.202444
C17	C	0.724943	-0.000012	-0.215165
C18	C	0.776577	-0.000013	-0.315665
C19	C	0.885962	-0.000008	-0.328386
C20	C	0.892067	-0.000011	-0.140115
C21	C	0.782684	-0.000010	-0.127394
C22	C	1.303312	-0.259392	-0.318012
C23	C	1.297545	-0.346582	-0.312227
C24	C	1.224901	-0.390189	-0.239534
C25	C	1.158026	-0.346602	-0.172615
C26	C	1.163798	-0.259414	-0.178396
C27	C	1.203987	-0.653440	-0.218584
C28	C	1.198218	-0.740634	-0.212810
C29	C	1.337739	-0.740607	-0.352421
C30	C	1.343501	-0.653418	-0.358199
C31	C	1.276629	-0.609839	-0.291277
C32	C	1.219003	-0.479310	-0.233622
C33	C	1.282533	-0.520719	-0.297185
C34	C	1.441397	-0.000014	-0.276678
C35	C	1.557812	-0.000011	-0.290222
C36	C	1.239498	-0.000018	-0.074778
C37	C	1.225953	-0.000016	0.041636
N38	N	1.265090	0.215785	-0.279722
C39	C	1.262024	-0.000007	-0.456051
C40	C	1.275569	-0.000003	-0.572466
C41	C	1.388784	-0.000001	0.266510
C42	C	1.376062	0.000000	0.375892
C43	C	1.187791	-0.000005	0.369785
C44	C	1.200512	-0.000007	0.260403
C45	C	1.301012	-0.000006	0.208769
C46	C	1.313732	-0.000014	0.099385
C47	C	1.125461	-0.000013	0.093280
C48	C	1.112740	-0.000012	0.202662
H49	H	0.928000	-0.000010	-0.410217
C50	C	0.775641	-0.000008	-0.513976
H51	H	0.849056	-0.000003	-0.508981
H52	H	0.753256	-0.048307	-0.547371
H53	H	0.759669	0.048304	-0.553768
C54	C	1.002198	-0.000009	0.259460
H55	H	0.951747	-0.000006	0.209402
H56	H	0.990115	-0.048308	0.305216
H57	H	0.996530	0.048304	0.298788
H58	H	1.098882	-0.382114	-0.113423
H59	H	1.105969	0.000003	0.411844
H60	H	0.562444	-0.000018	-0.462188
H61	H	0.573497	-0.000079	-0.120617
H62	H	1.053990	-0.000024	0.046256
C63	C	1.383219	-0.211428	-0.397973
H64	H	1.377075	-0.153260	-0.391842
H65	H	1.451979	-0.225710	-0.384694
H66	H	1.369886	-0.225716	-0.466723
C67	C	0.725882	-0.000005	-0.016854
H68	H	0.652468	0.000001	-0.021847
H69	H	0.741857	-0.048304	0.022953
H70	H	0.748270	0.048308	0.016523
H71	H	1.402658	-0.617919	-0.417391
H72	H	0.939092	-0.000004	-0.068646
C73	C	1.472611	0.000001	0.439404
H74	H	1.534282	-0.000005	0.392983
H75	H	1.474768	0.048303	0.478996
H76	H	1.468356	-0.048309	0.485405
H77	H	1.149536	-0.617969	-0.164090
H78	H	1.109343	-0.223932	-0.123909
H79	H	1.341684	-0.485210	-0.356368
H80	H	1.352002	-0.382061	-0.366712
H81	H	1.392182	-0.776099	-0.406905
C82	C	1.118283	-0.788601	-0.132867
H83	H	1.079282	-0.750160	-0.093839
H84	H	1.072098	-0.822603	-0.168749
H85	H	1.154159	-0.822623	-0.086688
C86	C	1.139069	-0.527278	-0.153689
H87	H	1.100060	-0.488839	-0.114666
H88	H	1.092891	-0.561286	-0.189571
H89	H	1.174948	-0.561294	-0.107506
H90	H	1.395563	-0.000016	0.057347
H91	H	1.470614	-0.000009	0.224469
