data_functionalizedCrystal
_audit_creation_method	'MofGen! by Chris Wilmer'
_symmetry_space_group_name_H-M	'P1'
_symmetry_Int_Tables_number	1
_symmetry_cell_setting	triclinic
loop_
_symmetry_equiv_pos_as_xyz
  x,y,z
_cell_length_a	13.339070
_cell_length_b	14.519709
_cell_length_c	11.804365
_cell_angle_alpha	101.851959
_cell_angle_beta	74.875130
_cell_angle_gamma	99.654719
loop_
_atom_site_label
_atom_site_type_symbol
_atom_site_fract_x
_atom_site_fract_y
_atom_site_fract_z
O1	O	1.363544	0.449147	-0.099080
O2	O	1.068905	0.388436	-0.099072
O3	O	1.224034	0.286542	-0.099066
O4	O	1.208414	0.551041	-0.099087
O5	O	1.183194	0.313329	0.098989
O6	O	1.028065	0.415223	0.098982
O7	O	1.322704	0.475934	0.098974
Cu8	Cu	1.171656	0.448024	0.117062
Cu9	Cu	1.219953	0.416345	-0.117160
O10	O	1.167575	0.577828	0.098968
C11	C	1.010777	0.391574	-0.000044
C12	C	0.898419	0.361005	-0.000040
C13	C	1.202886	0.265390	-0.000038
C14	C	1.200704	0.162454	-0.000038
C15	C	0.534064	0.598691	-0.000078
C16	C	0.639630	0.627415	-0.000085
C17	C	0.704332	0.560815	-0.000073
C18	C	0.663459	0.465486	-0.000055
C19	C	0.557884	0.436759	-0.000058
C20	C	0.728152	0.398882	-0.000053
C21	C	0.687279	0.303554	-0.000035
C22	C	0.581714	0.274831	-0.000037
C23	C	0.517012	0.341431	-0.000048
C24	C	0.833727	0.427610	-0.000051
C25	C	0.857547	0.265677	-0.000031
C26	C	0.751981	0.236954	-0.000024
C27	C	1.192677	-0.214489	-0.000068
C28	C	1.194906	-0.109613	-0.000059
C29	C	1.196690	-0.026021	-0.000052
C30	C	1.198920	0.078862	-0.000045
C31	C	1.380832	0.472796	-0.000057
C32	C	1.493192	0.503364	-0.000068
C33	C	1.188723	0.598979	-0.000062
C34	C	1.190907	0.701915	-0.000071
N35	N	1.137693	0.470307	0.281801
N36	N	1.253924	0.394058	-0.281899
C37	C	1.335480	0.340531	0.655758
C38	C	1.361172	0.323670	0.531097
C39	C	1.305304	0.360328	0.468767
C40	C	1.223741	0.413850	0.531110
C41	C	1.198052	0.430719	0.655783
C42	C	1.167876	0.450515	0.468792
C43	C	1.086313	0.504037	0.531135
C44	C	1.060628	0.520903	0.655795
C45	C	1.116496	0.484245	0.718126
C46	C	1.193565	0.433646	0.344119
C47	C	1.056137	0.523834	0.344144
C48	C	1.030445	0.540695	0.468805
H49	H	0.790289	0.584207	-0.000082
H50	H	0.718688	0.159335	-0.000019
H51	H	0.964035	0.584274	0.519580
H52	H	1.010646	0.553686	0.293396
H53	H	0.866995	0.505227	-0.000061
O54	O	0.679235	0.720016	-0.000263
C55	C	0.667356	0.748355	-0.102861
H56	H	0.601150	0.699838	-0.137049
H57	H	0.743235	0.743588	-0.174688
C58	C	0.722629	0.910879	-0.029735
C59	C	0.641307	0.851294	-0.071719
H60	H	0.706566	0.974378	-0.010528
H61	H	0.730636	0.891786	0.039386
H62	H	0.785854	0.906895	-0.089598
H63	H	0.578087	0.855270	-0.011851
H64	H	0.633289	0.870390	-0.140829
O65	O	0.471060	0.663262	-0.000039
C66	C	0.369127	0.617457	-0.000073
H67	H	0.357218	0.549025	0.037433
H68	H	0.358205	0.600288	-0.095092
C69	C	0.303252	0.767107	0.031517
C70	C	0.288621	0.683061	0.077592
H71	H	0.253590	0.807575	0.079419
H72	H	0.371926	0.797967	0.031536
H73	H	0.294151	0.752786	-0.047665
H74	H	0.297734	0.697382	0.156766
H75	H	0.219946	0.652205	0.077588
H76	H	0.910229	0.211445	-0.000026
O77	O	1.389719	0.304769	0.716179
C78	C	1.379356	0.205094	0.685763
H79	H	1.359007	0.182955	0.595251
H80	H	1.314459	0.173145	0.755938
C81	C	1.508182	0.196466	0.791177
C82	C	1.483197	0.169276	0.680004
H83	H	1.572234	0.174371	0.787630
H84	H	1.515161	0.263619	0.811674
H85	H	1.454093	0.169841	0.849645
H86	H	1.537279	0.195911	0.621542
H87	H	1.476229	0.102127	0.659497
O88	O	0.542164	0.182181	-0.000186
C89	C	0.596347	0.126074	-0.102768
H90	H	0.676662	0.165328	-0.136967
H91	H	0.550094	0.111413	-0.174597
C92	C	0.510878	-0.016648	-0.029593
C93	C	0.609525	0.031561	-0.071591
H94	H	0.519003	-0.074950	-0.010365
H95	H	0.474370	0.021152	0.039516
H96	H	0.472344	-0.028856	-0.089458
H97	H	0.648052	0.043779	-0.011721
H98	H	0.646040	-0.006239	-0.140690
H99	H	0.431050	0.318049	-0.000042
H100	H	1.259973	0.390069	0.293371
H101	H	1.095575	0.497970	0.819635
O102	O	1.330359	0.343821	0.347673
C103	C	1.414342	0.288740	0.306013
H104	H	1.417103	0.248030	0.377859
H105	H	1.490877	0.337122	0.283865
C106	C	1.395577	0.268210	0.105125
C107	C	1.398961	0.218203	0.193365
H108	H	1.386093	0.224702	0.035636
H109	H	1.338998	0.305323	0.133191
H110	H	1.459358	0.308527	0.086684
H111	H	1.335176	0.177897	0.211816
H112	H	1.455530	0.181082	0.165300
H113	H	1.427580	0.280094	0.480342
H114	H	0.994223	0.564492	0.706555
