data_functionalizedCrystal
_audit_creation_method	'MofGen! by Chris Wilmer'
_symmetry_space_group_name_H-M	'P1'
_symmetry_Int_Tables_number	1
_symmetry_cell_setting	triclinic
loop_
_symmetry_equiv_pos_as_xyz
  x,y,z
_cell_length_a	12.759401
_cell_length_b	25.639239
_cell_length_c	12.759393
_cell_angle_alpha	89.962948
_cell_angle_beta	89.981504
_cell_angle_gamma	90.038847
loop_
_atom_site_label
_atom_site_type_symbol
_atom_site_fract_x
_atom_site_fract_y
_atom_site_fract_z
Zn1	Zn	1.606080	-0.208118	-0.593941
Zn2	Zn	1.605901	-0.295564	-0.418245
Zn3	Zn	1.430382	-0.208145	-0.418281
Zn4	Zn	1.430297	-0.295524	-0.593886
O5	O	1.518165	-0.251838	-0.506088
O6	O	1.753078	-0.219723	-0.570643
O7	O	1.582579	-0.283996	-0.271228
O8	O	1.453799	-0.134976	-0.441621
O9	O	1.752946	-0.283970	-0.441559
O10	O	1.582884	-0.134956	-0.570678
O11	O	1.453626	-0.219770	-0.271255
O12	O	1.283350	-0.219731	-0.441567
O13	O	1.453655	-0.283901	-0.740914
O14	O	1.283288	-0.283928	-0.570584
O15	O	1.582802	-0.219684	-0.740955
O16	O	1.582496	-0.368724	-0.441505
O17	O	1.453481	-0.368695	-0.570549
C18	C	1.245198	-0.251828	-0.506074
C19	C	1.128421	-0.251837	-0.506093
C20	C	1.517989	-0.387680	-0.506040
C21	C	1.518009	-0.445795	-0.506055
C22	C	1.073554	-0.285318	-0.573160
C23	C	0.963830	-0.285324	-0.573172
C24	C	0.963850	-0.218368	-0.439039
C25	C	1.073572	-0.218359	-0.439033
C26	C	1.128404	-0.318796	-0.640220
C27	C	1.073536	-0.352280	-0.707292
C28	C	0.963812	-0.352286	-0.707303
C29	C	0.908955	-0.318809	-0.640242
C30	C	1.585519	-0.806160	-0.439010
C31	C	1.585560	-0.860765	-0.439024
O32	O	1.642775	-0.889004	-0.381967
N33	N	1.518350	-0.888077	-0.506158
C34	C	1.451103	-0.860782	-0.573289
O35	O	1.393940	-0.889027	-0.630394
C36	C	1.451068	-0.806179	-0.573280
C37	C	1.518275	-0.778869	-0.506134
C38	C	1.652721	-0.778851	-0.371870
C39	C	1.652678	-0.724250	-0.371855
C40	C	1.585434	-0.696959	-0.438980
C41	C	1.518232	-0.724269	-0.506119
C42	C	1.383827	-0.778885	-0.640416
C43	C	1.383799	-0.724278	-0.640401
C44	C	1.451005	-0.696968	-0.573256
C45	C	1.450946	-0.642377	-0.573228
N46	N	1.518155	-0.615065	-0.506094
C47	C	1.585399	-0.642356	-0.438970
C48	C	1.451182	-0.975453	-0.573306
C49	C	1.451210	-1.030055	-0.573311
C50	C	1.585669	-1.030034	-0.439046
C51	C	1.585634	-0.975430	-0.439037
C52	C	1.518391	-0.948140	-0.506172
C53	C	1.585305	-0.527691	-0.438943
C54	C	1.585253	-0.473086	-0.438930
C55	C	1.450799	-0.473111	-0.573198
C56	C	1.450846	-0.527712	-0.573207
C57	C	1.518108	-0.555000	-0.506076
O58	O	1.393762	-0.614103	-0.630258
O59	O	1.642562	-0.614104	-0.381885
C60	C	1.792198	-0.251848	-0.506103
C61	C	1.908975	-0.251852	-0.506109
C62	C	1.518239	-0.251785	-0.780122
C63	C	1.518270	-0.251763	-0.896898
C64	C	1.518371	-0.115465	-0.506159
C65	C	1.518459	-0.057351	-0.506190
C66	C	1.585526	-0.218322	-0.951783
C67	C	1.585551	-0.218303	-1.061507
C68	C	1.451061	-0.285170	-1.061452
C69	C	1.451032	-0.285186	-0.951730
C70	C	1.652765	-0.184898	-0.896952
C71	C	1.720027	-0.151455	-0.951837
C72	C	1.720052	-0.151436	-1.061561
C73	C	1.652815	-0.184860	-1.116400
C74	C	1.518152	-0.251853	-0.233121
C75	C	1.518325	-0.251728	-0.116345
H76	H	1.217746	-0.318795	-0.640216
C77	C	1.793980	-0.114690	-0.891519
H78	H	1.784341	-0.119493	-0.818311
H79	H	1.778666	-0.079556	-0.909520
H80	H	1.864566	-0.122347	-0.909504
C81	C	1.659645	-1.060058	-0.365214
H82	H	1.699665	-1.035976	-0.325218
H83	H	1.705408	-1.081321	-0.405453
H84	H	1.619487	-1.081397	-0.319405
C85	C	1.659282	-0.557701	-0.365092
H86	H	1.699286	-0.533609	-0.325102
H87	H	1.705061	-0.578964	-0.405313
H88	H	1.619125	-0.579037	-0.319280
H89	H	1.640360	-0.953198	-0.384362
H90	H	0.819611	-0.318813	-0.640266
H91	H	1.118208	-0.379532	-0.761897
C92	C	1.652834	-0.184838	-1.237094
H93	H	1.603156	-0.209532	-1.261890
H94	H	1.720622	-0.193877	-1.261921
H95	H	1.634714	-0.151091	-1.261930
H96	H	1.396250	-0.312409	-0.907042
H97	H	0.919142	-0.379547	-0.761924
H98	H	1.707407	-0.702018	-0.317183
C99	C	1.377113	-0.321938	-1.121768
H100	H	1.337046	-0.341855	-1.073364
H101	H	1.417280	-0.344714	-1.164556
H102	H	1.331375	-0.301926	-1.164581
H103	H	1.639981	-0.450852	-0.384249
C104	C	1.376920	-0.557754	-0.647063
H105	H	1.336870	-0.533677	-0.687041
H106	H	1.331182	-0.579099	-0.606850
H107	H	1.417115	-0.579010	-0.692887
H108	H	1.396046	-0.450883	-0.627847
C109	C	1.652737	-0.184915	-0.776259
H110	H	1.702406	-0.160218	-0.751462
H111	H	1.670838	-0.218661	-0.751416
H112	H	1.584943	-0.175868	-0.751441
C113	C	0.903510	-0.181549	-0.365273
H114	H	0.830305	-0.186354	-0.374875
H115	H	0.921531	-0.146427	-0.380774
H116	H	0.921458	-0.189162	-0.294649
H117	H	1.118246	-0.191092	-0.384429
H118	H	1.396416	-0.953236	-0.627972
C119	C	1.726690	-0.808863	-0.298021
H120	H	1.766695	-0.784770	-0.258035
H121	H	1.772468	-0.830129	-0.338238
H122	H	1.686530	-0.830196	-0.252205
C123	C	1.377277	-1.060090	-0.647164
H124	H	1.337232	-1.036011	-0.687140
H125	H	1.331535	-1.081431	-0.606948
H126	H	1.417463	-1.081349	-0.692990
C127	C	1.309906	-0.808913	-0.714285
H128	H	1.269870	-0.784832	-0.754264
H129	H	1.264155	-0.830255	-0.674078
H130	H	1.350096	-0.830173	-0.760108
H131	H	1.329043	-0.702061	-0.695074
H132	H	1.774813	-0.124201	-1.106245
