data_functionalizedCrystal
_audit_creation_method	'MofGen! by Chris Wilmer'
_symmetry_space_group_name_H-M	'P1'
_symmetry_Int_Tables_number	1
_symmetry_cell_setting	triclinic
loop_
_symmetry_equiv_pos_as_xyz
  x,y,z
_cell_length_a	14.971482
_cell_length_b	12.811415
_cell_length_c	14.048226
_cell_angle_alpha	84.562719
_cell_angle_beta	89.994098
_cell_angle_gamma	83.829015
loop_
_atom_site_label
_atom_site_type_symbol
_atom_site_fract_x
_atom_site_fract_y
_atom_site_fract_z
O1	O	1.187334	0.136766	-0.090953
O2	O	1.687334	0.636766	0.409047
O3	O	0.926980	0.153150	-0.092372
O4	O	1.426980	0.653150	0.407628
O5	O	1.063706	-0.007827	-0.078469
O6	O	1.563706	0.492173	0.421531
O7	O	1.050608	0.297743	-0.104856
O8	O	1.550608	0.797743	0.395144
O9	O	1.063690	-0.007837	0.079854
O10	O	1.563690	0.492163	0.579854
O11	O	0.926963	0.153140	0.065951
O12	O	1.426963	0.653140	0.565951
O13	O	1.187318	0.136756	0.067369
O14	O	1.687318	0.636756	0.567369
Zn15	Zn	1.057138	0.144947	0.091797
Zn16	Zn	1.557138	0.644947	0.591797
Zn17	Zn	1.057160	0.144959	-0.116799
Zn18	Zn	1.557160	0.644959	0.383201
O19	O	1.050591	0.297733	0.053466
O20	O	1.550591	0.797733	0.553466
C21	C	0.893645	0.152413	-0.013148
C22	C	1.393645	0.652413	0.486852
C23	C	0.794341	0.150219	-0.012960
C24	C	1.294341	0.650219	0.487040
C25	C	0.747685	0.149181	0.073431
C26	C	1.247685	0.649181	0.573431
C27	C	0.654380	0.147103	0.073612
C28	C	1.154380	0.647103	0.573612
C29	C	0.607733	0.146071	-0.012601
C30	C	1.107733	0.646071	0.487399
C31	C	0.654397	0.147106	-0.098999
C32	C	1.154397	0.647106	0.401001
C33	C	0.747700	0.149177	-0.099178
C34	C	1.247700	0.649177	0.400822
C35	C	0.459923	0.142793	-0.098620
C36	C	0.959923	0.642793	0.401380
C37	C	0.366613	0.140725	-0.098442
C38	C	0.866613	0.640725	0.401558
C39	C	0.366603	0.140720	0.074169
C40	C	0.866603	0.640720	0.574169
C41	C	0.459906	0.142790	0.073991
C42	C	0.959906	0.642790	0.573991
C43	C	0.506563	0.143827	-0.012408
C44	C	1.006563	0.643827	0.487592
C45	C	1.062964	-0.046937	0.004067
C46	C	1.562964	0.453063	0.504067
C47	C	1.060765	-0.163459	0.014123
C48	C	1.560765	0.336541	0.514123
C49	C	1.056635	-0.382393	-0.139603
C50	C	1.556635	0.117607	0.360397
C51	C	1.054569	-0.491875	-0.130159
C52	C	1.554569	0.008125	0.369841
C53	C	1.054560	-0.491906	0.042454
C54	C	1.554560	0.008094	0.542454
C55	C	1.056626	-0.382424	0.033010
C56	C	1.556626	0.117576	0.533010
C57	C	1.057665	-0.327671	-0.058022
C58	C	1.557665	0.172329	0.441978
C59	C	1.059737	-0.218188	-0.067464
C60	C	1.559737	0.281812	0.432536
C61	C	1.059722	-0.218220	0.105148
C62	C	1.559722	0.281780	0.605148
C63	C	1.057656	-0.327703	0.114592
C64	C	1.557656	0.172297	0.614592
C65	C	1.220653	0.137493	-0.011856
C66	C	1.720653	0.637493	0.488144
C67	C	1.319956	0.139686	-0.012050
C68	C	1.819956	0.639686	0.487950
C69	C	1.051334	0.336843	-0.029072
C70	C	1.551334	0.836843	0.470928
C71	C	1.053533	0.453364	-0.039134
C72	C	1.553533	0.953364	0.460866
N73	N	1.057129	0.144937	0.234158
N74	N	1.557129	0.644937	0.734158
N75	N	1.057175	0.144960	-0.259160
N76	N	1.557175	0.644960	0.240840
C77	C	1.117691	0.073686	0.290130
C78	C	1.617691	0.573686	0.790130
C79	C	1.117697	0.073686	0.389788
C80	C	1.617697	0.573686	0.889788
C81	C	1.057145	0.144942	0.433472
C82	C	1.557145	0.644942	0.933472
C83	C	0.996577	0.216197	0.377493
C84	C	1.496577	0.716197	0.877493
C85	C	0.996567	0.216191	0.277837
C86	C	1.496567	0.716191	0.777837
C87	C	0.996603	0.216204	0.585206
C88	C	1.496603	0.716204	1.085206
C89	C	0.996613	0.216211	0.684868
C90	C	1.496613	0.716211	1.184868
C91	C	1.117733	0.073699	0.697157
C92	C	1.617733	0.573699	1.197157
C93	C	1.117723	0.073693	0.597502
C94	C	1.617723	0.573693	1.097502
C95	C	1.057156	0.144949	0.541529
C96	C	1.557156	0.644949	1.041529
H97	H	0.328610	0.139875	0.144518
H98	H	0.828610	0.639875	0.644518
F99	F	0.509548	0.143899	0.165747
F100	F	1.009548	0.643899	0.665747
H101	H	1.053727	-0.536424	-0.196592
H102	H	1.553727	-0.036424	0.303408
H103	H	1.057488	-0.337813	-0.213725
H104	H	1.557488	0.162187	0.286275
H105	H	1.167003	0.015665	0.254570
H106	H	1.667003	0.515665	0.754570
F107	F	0.604727	0.146012	0.165561
F108	F	1.104727	0.646012	0.665561
H109	H	0.328635	0.139885	-0.168644
H110	H	0.828635	0.639885	0.331356
F111	F	1.056544	-0.385984	0.211469
F112	F	1.556544	0.114016	0.711469
F113	F	1.053433	-0.550192	0.139328
F114	F	1.553433	-0.050192	0.639328
H115	H	0.947305	0.274234	0.720430
H116	H	1.447305	0.774234	1.220430
H117	H	1.060564	-0.173655	0.171578
H118	H	1.560564	0.326345	0.671578
H119	H	1.167010	0.015667	0.435360
H120	H	1.667010	0.515667	0.935360
H121	H	1.167033	0.015676	0.561934
H122	H	1.667033	0.515676	1.061934
F123	F	1.182193	-0.002136	0.756730
F124	F	1.682193	0.497864	1.256730
H125	H	0.497908	0.143638	-0.168975
H126	H	0.997908	0.643638	0.331025
H127	H	0.947279	0.274225	0.539636
H128	H	1.447279	0.774225	1.039636
H129	H	0.616410	0.146258	-0.169194
H130	H	1.116410	0.646258	0.330806
H131	H	0.947270	0.274212	0.413066
H132	H	1.447270	0.774212	0.913066
F133	F	0.797356	0.150278	-0.191127
F134	F	1.297356	0.650278	0.308873
H135	H	0.785657	0.150030	0.143635
H136	H	1.285657	0.650030	0.643635
H137	H	1.060586	-0.173611	-0.141587
H138	H	1.560586	0.326389	0.358413
F139	F	0.932106	0.292024	0.218269
F140	F	1.432106	0.792024	0.718269
