data_functionalizedCrystal
_audit_creation_method	'MofGen! by Chris Wilmer'
_symmetry_space_group_name_H-M	'P1'
_symmetry_Int_Tables_number	1
_symmetry_cell_setting	triclinic
loop_
_symmetry_equiv_pos_as_xyz
  x,y,z
_cell_length_a	17.077404
_cell_length_b	25.639239
_cell_length_c	17.077396
_cell_angle_alpha	90.031074
_cell_angle_beta	90.019501
_cell_angle_gamma	90.038911
loop_
_atom_site_label
_atom_site_type_symbol
_atom_site_fract_x
_atom_site_fract_y
_atom_site_fract_z
Zn1	Zn	1.199968	-0.208148	0.443829
Zn2	Zn	1.699968	0.291852	0.943829
Zn3	Zn	1.199839	-0.295585	0.312557
Zn4	Zn	1.699839	0.204415	0.812557
Zn5	Zn	1.068700	-0.208166	0.312576
Zn6	Zn	1.568700	0.291834	0.812576
Zn7	Zn	1.068632	-0.295554	0.443780
Zn8	Zn	1.568632	0.204446	0.943780
O9	O	1.134285	-0.251863	0.378185
O10	O	1.634285	0.248137	0.878185
O11	O	1.309798	-0.219752	0.426427
O12	O	1.809798	0.280248	0.926427
O13	O	1.182418	-0.284010	0.202712
O14	O	1.682418	0.215990	0.702712
O15	O	1.086196	-0.134998	0.330016
O16	O	1.586196	0.365002	0.830016
O17	O	1.309703	-0.283992	0.329982
O18	O	1.809703	0.216008	0.829982
O19	O	1.182638	-0.134985	0.426446
O20	O	1.682638	0.365015	0.926446
O21	O	1.086071	-0.219783	0.202727
O22	O	1.586071	0.280217	0.702727
O23	O	0.958844	-0.219753	0.329969
O24	O	1.458844	0.280247	0.829969
O25	O	1.086080	-0.283939	0.553634
O26	O	1.586080	0.216061	1.053634
O27	O	0.958794	-0.283957	0.426364
O28	O	1.458794	0.216043	0.926364
O29	O	1.182572	-0.219722	0.553669
O30	O	1.682572	0.280278	1.053669
O31	O	1.182352	-0.368746	0.329935
O32	O	1.682352	0.131254	0.829935
O33	O	1.085954	-0.368724	0.426345
O34	O	1.585954	0.131276	0.926345
C35	C	0.930337	-0.251854	0.378164
C36	C	1.430337	0.248146	0.878164
C37	C	0.843087	-0.251862	0.378173
C38	C	1.343087	0.248138	0.878173
C39	C	0.802092	-0.285344	0.428285
C40	C	1.302092	0.214656	0.928285
C41	C	0.720111	-0.285345	0.428298
C42	C	1.220111	0.214655	0.928298
C43	C	0.679128	-0.251867	0.378194
C44	C	1.179128	0.248133	0.878194
C45	C	0.720129	-0.218382	0.328079
C46	C	1.220129	0.281618	0.828079
C47	C	0.802108	-0.218378	0.328071
C48	C	1.302108	0.281622	0.828071
C49	C	0.549259	-0.218392	0.328098
C50	C	1.049259	0.281608	0.828098
C51	C	0.467275	-0.218396	0.328105
C52	C	0.967275	0.281604	0.828105
C53	C	0.467262	-0.285358	0.428325
C54	C	0.967262	0.214642	0.928325
C55	C	0.549241	-0.285355	0.428317
C56	C	1.049241	0.214645	0.928317
C57	C	0.590237	-0.251871	0.378201
C58	C	1.090237	0.248129	0.878201
C59	C	1.134153	-0.387706	0.378150
C60	C	1.634153	0.112294	0.878150
C61	C	1.134168	-0.445820	0.378160
C62	C	1.634168	0.054180	0.878160
C63	C	1.184610	-0.806182	0.328071
C64	C	1.684610	-0.306182	0.828071
C65	C	1.184641	-0.860787	0.328081
C66	C	1.684641	-0.360787	0.828081
O67	O	1.227391	-0.889023	0.285454
O68	O	1.727391	-0.389023	0.785454
N69	N	1.134423	-0.888102	0.378237
N70	N	1.634423	-0.388102	0.878237
C71	C	1.084177	-0.860811	0.428392
C72	C	1.584177	-0.360811	0.928392
O73	O	1.041467	-0.889059	0.471056
O74	O	1.541467	-0.389059	0.971056
C75	C	1.084151	-0.806208	0.428385
C76	C	1.584151	-0.306208	0.928385
C77	C	1.134367	-0.778895	0.378220
C78	C	1.634367	-0.278895	0.878220
C79	C	1.234822	-0.778869	0.277910
C80	C	1.734822	-0.278869	0.777910
C81	C	1.234790	-0.724269	0.277899
C82	C	1.734790	-0.224269	0.777899
C83	C	1.184547	-0.696981	0.328048
C84	C	1.684547	-0.196981	0.828048
C85	C	1.134335	-0.724294	0.378209
C86	C	1.634335	-0.224294	0.878209
C87	C	1.033910	-0.778917	0.478543
C88	C	1.533910	-0.278917	0.978543
C89	C	1.033889	-0.724310	0.478532
C90	C	1.533889	-0.224310	0.978532
C91	C	1.084104	-0.696997	0.428367
C92	C	1.584104	-0.196997	0.928367
C93	C	1.084060	-0.642406	0.428346
C94	C	1.584060	-0.142406	0.928346
N95	N	1.134278	-0.615090	0.378190
N96	N	1.634278	-0.115090	0.878190
C97	C	1.184521	-0.642378	0.328041
C98	C	1.684521	-0.142378	0.828041
C99	C	1.084236	-0.975482	0.428404
C100	C	1.584236	-0.475482	0.928404
C101	C	1.084258	-1.030084	0.428408
C102	C	1.584258	-0.530084	0.928408
C103	C	1.184722	-1.030056	0.328098
C104	C	1.684722	-0.530056	0.828098
C105	C	1.184696	-0.975452	0.328091
C106	C	1.684696	-0.475452	0.828091
C107	C	1.134454	-0.948166	0.378248
C108	C	1.634454	-0.448166	0.878248
C109	C	1.184450	-0.527713	0.328020
C110	C	1.684450	-0.027713	0.828020
C111	C	1.184412	-0.473107	0.328011
C112	C	1.684412	0.026893	0.828011
C113	C	1.083951	-0.473140	0.428324
C114	C	1.583951	0.026860	0.928324
C115	C	1.083986	-0.527741	0.428331
C116	C	1.583986	-0.027741	0.928331
C117	C	1.134242	-0.555026	0.378176
C118	C	1.634242	-0.055026	0.878176
O119	O	1.041334	-0.614135	0.470954
O120	O	1.541334	-0.114135	0.970954
O121	O	1.227232	-0.614123	0.285392
O122	O	1.727232	-0.114123	0.785392
C123	C	1.339029	-0.251873	0.378208
C124	C	1.839029	0.248127	0.878208
C125	C	1.426279	-0.251877	0.378217
C126	C	1.926279	0.248123	0.878217
C127	C	1.134333	-0.251825	0.582930
C128	C	1.634333	0.248175	1.082930
C129	C	1.134353	-0.251808	0.670180
C130	C	1.634353	0.248192	1.170180
C131	C	1.134439	-0.115490	0.378239
C132	C	1.634439	0.384510	0.878239
C133	C	1.134505	-0.057376	0.378261
C134	C	1.634505	0.442624	0.878261
C135	C	1.134283	-0.251864	0.174238
C136	C	1.634283	0.248136	0.674238
C137	C	1.134415	-0.251733	0.086988
C138	C	1.634415	0.248267	0.586988
C139	C	1.184598	-0.218368	0.711190
C140	C	1.684598	0.281632	1.211190
C141	C	1.184608	-0.218350	0.793170
C142	C	1.684608	0.281650	1.293170
C143	C	1.134375	-0.251777	0.834139
C144	C	1.634375	0.248223	1.334139
C145	C	1.084124	-0.285219	0.793123
C146	C	1.584124	0.214781	1.293123
C147	C	1.084111	-0.285233	0.711144
C148	C	1.584111	0.214767	1.211144
C149	C	1.084156	-0.285187	0.963994
C150	C	1.584156	0.214813	1.463994
C151	C	1.084169	-0.285174	1.045978
C152	C	1.584169	0.214826	1.545978
C153	C	1.184652	-0.218304	1.046019
C154	C	1.684652	0.281696	1.546019
C155	C	1.184639	-0.218319	0.964040
C156	C	1.684639	0.281681	1.464040
C157	C	1.134389	-0.251762	0.923030
C158	C	1.634389	0.248238	1.423030
H159	H	0.433908	-0.191129	0.287315
H160	H	0.933908	0.308871	0.787315
N161	N	0.843963	-0.319534	0.479467
N162	N	1.343963	0.180466	0.979467
N163	N	0.917158	-0.319528	0.479456
N164	N	1.417158	0.180472	0.979456
H165	H	0.946730	-0.343674	0.515606
H166	H	1.446730	0.156326	1.015606
H167	H	1.043221	-0.312433	0.826487
H168	H	1.543221	0.187567	1.326487
N169	N	1.236003	-0.947554	0.276863
N170	N	1.736003	-0.447554	0.776863
N171	N	1.285998	-0.917043	0.304520
N172	N	1.785998	-0.417043	0.804520
H173	H	1.322237	-0.897342	0.268339
H174	H	1.822237	-0.397342	0.768339
N175	N	1.286135	-0.806736	0.226664
N176	N	1.786135	-0.306736	0.726664
N177	N	1.258558	-0.837238	0.176614
N178	N	1.758558	-0.337238	0.676614
H179	H	1.294796	-0.856917	0.140413
H180	H	1.794796	-0.356917	0.640413
N181	N	0.982610	-0.806800	0.529791
N182	N	1.482610	-0.306800	1.029791
N183	N	0.937763	-0.782419	0.574563
N184	N	1.437763	-0.282419	1.074563
H185	H	0.901530	-0.802109	0.610762
H186	H	1.401530	-0.302109	1.110762
H187	H	1.225636	-1.052283	0.287266
H188	H	1.725636	-0.552283	0.787266
H189	H	0.835486	-0.191112	0.287269
H190	H	1.335486	0.308888	0.787269
H191	H	1.043225	-0.312412	0.930606
H192	H	1.543225	0.187588	1.430606
H193	H	1.043264	-0.312391	1.079333
H194	H	1.543264	0.187609	1.579333
H195	H	0.582607	-0.312619	0.469112
H196	H	1.082607	0.187381	0.969112
H197	H	0.686754	-0.191121	0.287287
H198	H	1.186754	0.308879	0.787287
H199	H	1.043188	-0.312459	0.677755
H200	H	1.543188	0.187541	1.177755
H201	H	0.686736	-0.312609	0.469104
H202	H	1.186736	0.187391	0.969104
H203	H	1.225506	-0.191150	0.677838
H204	H	1.725506	0.308850	1.177838
H205	H	1.043317	-0.953267	0.469246
H206	H	1.543317	-0.453267	0.969246
H207	H	1.225303	-0.450871	0.287158
H208	H	1.725303	0.049129	0.787158
H209	H	1.225524	-0.191121	0.826557
H210	H	1.725524	0.308879	1.326557
N211	N	1.032946	-1.057972	0.479643
N212	N	1.532946	-0.557972	0.979643
N213	N	0.988089	-1.033595	0.524410
N214	N	1.488089	-0.533595	1.024410
H215	H	0.951850	-1.053289	0.560599
H216	H	1.451850	-0.553289	1.060599
N217	N	0.982566	-0.696447	0.529778
N218	N	1.482566	-0.196447	1.029778
N219	N	0.937741	-0.720844	0.574562
N220	N	1.437741	-0.220844	1.074562
H221	H	0.901493	-0.701167	0.610754
H222	H	1.401493	-0.201167	1.110754
H223	H	1.043099	-0.549980	0.469182
H224	H	1.543099	-0.049980	0.969182
N225	N	1.032629	-0.445253	0.479536
N226	N	1.532629	0.054747	0.979536
N227	N	1.032615	-0.396501	0.479513
N228	N	1.532615	0.103499	0.979513
H229	H	0.996370	-0.376803	0.515684
H230	H	1.496370	0.123197	1.015684
N231	N	1.235963	-0.184178	0.922202
N232	N	1.735963	0.315822	1.422202
N233	N	1.280825	-0.154322	0.958825
N234	N	1.780825	0.345678	1.458825
H235	H	1.317074	-0.130208	0.929277
H236	H	1.817074	0.369792	1.429277
N237	N	1.235979	-0.184147	1.087918
N238	N	1.735979	0.315853	1.587918
N239	N	1.235984	-0.184136	1.161112
N240	N	1.735984	0.315864	1.661112
H241	H	1.272234	-0.160015	1.190707
H242	H	1.772234	0.339985	1.690707
H243	H	0.433879	-0.312621	0.469133
H244	H	0.933879	0.187379	0.969133
N245	N	1.235777	-0.555571	0.276773
N246	N	1.735777	-0.055571	0.776773
N247	N	1.230597	-0.549500	0.204337
N248	N	1.730597	-0.049500	0.704337
H249	H	1.266842	-0.569175	0.168138
H250	H	1.766842	-0.069175	0.668138
N251	N	0.591140	-0.184181	0.276921
N252	N	1.091140	0.315819	0.776921
N253	N	0.582033	-0.135940	0.282264
N254	N	1.082033	0.364060	0.782264
H255	H	0.611613	-0.111779	0.246122
H256	H	1.111613	0.388221	0.746122
N257	N	1.286091	-0.696381	0.226652
N258	N	1.786091	-0.196381	0.726652
N259	N	1.330945	-0.720761	0.181885
N260	N	1.830945	-0.220761	0.681885
H261	H	1.367180	-0.701069	0.145690
H262	H	1.867180	-0.201069	0.645690
