data_functionalizedCrystal
_audit_creation_method	'MofGen! by Chris Wilmer'
_symmetry_space_group_name_H-M	'P1'
_symmetry_Int_Tables_number	1
_symmetry_cell_setting	triclinic
loop_
_symmetry_equiv_pos_as_xyz
  x,y,z
_cell_length_a	12.759401
_cell_length_b	14.908520
_cell_length_c	12.759393
_cell_angle_alpha	93.263606
_cell_angle_beta	89.979062
_cell_angle_gamma	93.322137
loop_
_atom_site_label
_atom_site_type_symbol
_atom_site_fract_x
_atom_site_fract_y
_atom_site_fract_z
Zn1	Zn	1.582080	-0.359078	-0.618119
Zn2	Zn	1.571808	-0.509962	-0.452566
Zn3	Zn	1.406376	-0.359126	-0.442458
Zn4	Zn	1.396212	-0.509899	-0.628199
O5	O	1.489119	-0.434516	-0.535335
O6	O	1.727738	-0.379099	-0.596170
O7	O	1.549818	-0.490000	-0.304207
O8	O	1.438236	-0.232875	-0.457311
O9	O	1.720192	-0.489953	-0.474539
O10	O	1.567325	-0.232840	-0.586369
O11	O	1.428275	-0.379181	-0.296781
O12	O	1.258007	-0.379120	-0.467085
O13	O	1.420913	-0.489846	-0.773880
O14	O	1.250540	-0.489892	-0.603548
O15	O	1.557470	-0.379038	-0.766474
O16	O	1.539963	-0.636198	-0.484313
O17	O	1.410953	-0.636152	-0.613349
C18	C	1.216153	-0.434505	-0.535314
C19	C	1.099375	-0.434522	-0.535331
C20	C	1.040646	-0.492289	-0.606288
C21	C	0.930922	-0.492292	-0.606309
C22	C	0.938665	-0.376759	-0.464407
C23	C	1.048387	-0.376752	-0.464392
C24	C	1.473269	-0.668908	-0.551045
C25	C	1.466584	-0.769183	-0.557800
C26	C	1.588499	-0.957595	-0.436237
C27	C	1.582222	-1.051812	-0.442581
C28	C	1.447758	-1.051834	-0.576837
C29	C	1.454036	-0.957617	-0.570493
C30	C	1.524407	-0.910501	-0.500189
C31	C	1.530679	-0.816283	-0.493841
C32	C	1.396221	-0.816307	-0.628101
C33	C	1.389944	-0.910523	-0.634445
C34	C	1.763152	-0.434528	-0.535358
C35	C	1.879928	-0.434533	-0.535367
C36	C	1.489204	-0.434429	-0.809363
C37	C	1.489240	-0.434392	-0.926137
C38	C	1.505060	-0.199208	-0.519588
C39	C	1.511853	-0.098934	-0.512877
C40	C	1.560350	-0.376686	-0.977144
C41	C	1.560371	-0.376647	-1.086866
C42	C	1.418166	-0.492029	-1.094564
C43	C	1.418142	-0.492063	-0.984844
C44	C	1.489100	-0.434537	-0.262369
C45	C	1.489285	-0.434320	-0.145579
H46	H	1.096206	-0.329706	-0.406610
F47	F	0.884390	-0.315281	-0.388912
H48	H	1.645791	-0.919233	-0.378986
F49	F	1.342507	-0.553406	-1.157053
H50	H	1.587976	-0.777922	-0.436593
F51	F	1.636016	-0.315306	-0.914667
H52	H	1.634414	-1.090152	-0.390506
F53	F	1.636063	-0.315233	-1.141147
H54	H	1.344030	-0.777952	-0.680173
H55	H	1.390472	-1.090211	-0.634081
H56	H	1.360228	-0.539054	-0.943314
H57	H	1.082157	-0.539327	-0.664053
F58	F	1.315057	-0.960677	-0.709267
H59	H	0.883110	-0.539331	-0.664090
