data_functionalizedCrystal
_audit_creation_method	'MofGen! by Chris Wilmer'
_symmetry_space_group_name_H-M	'P1'
_symmetry_Int_Tables_number	1
_symmetry_cell_setting	triclinic
loop_
_symmetry_equiv_pos_as_xyz
  x,y,z
_cell_length_a	6.817900
_cell_length_b	17.296643
_cell_length_c	17.110486
_cell_angle_alpha	100.228577
_cell_angle_beta	99.060439
_cell_angle_gamma	102.619114
loop_
_atom_site_label
_atom_site_type_symbol
_atom_site_fract_x
_atom_site_fract_y
_atom_site_fract_z
V1	V	-3.976383	-0.110854	-0.254664
O2	O	-3.965399	0.005573	-0.241624
O3	O	-3.927722	-0.220041	-0.260802
O4	O	-3.906249	-0.109041	-0.362138
O5	O	-3.987020	-0.106196	-0.139587
V6	V	-4.462861	-0.096941	-0.239943
O7	O	-4.231160	-0.141374	-0.286957
O8	O	-4.658282	-0.066421	-0.207650
O9	O	-4.288316	0.012247	-0.233806
O10	O	-4.591242	-0.213367	-0.252983
O11	O	-4.569621	-0.101599	-0.355020
O12	O	-4.309789	-0.098754	-0.132470
C13	C	-3.773362	-0.246662	-0.258817
C14	C	-3.814718	-0.335923	-0.264552
C15	C	-4.050018	-0.841340	-0.300648
C16	C	-4.011151	-0.757470	-0.295260
C17	C	-3.966150	-0.704136	-0.219283
C18	C	-3.960039	-0.734677	-0.148689
C19	C	-3.998920	-0.818546	-0.154078
C20	C	-3.847488	-0.450334	-0.199347
C21	C	-3.808599	-0.366459	-0.193963
C22	C	-3.859718	-0.389258	-0.340535
C23	C	-3.898586	-0.473128	-0.345916
C24	C	-3.892481	-0.503662	-0.275323
C25	C	-3.926414	-0.618406	-0.213774
C26	C	-3.932231	-0.589390	-0.280833
C27	C	-3.745971	-0.105069	-0.388080
C28	C	-3.769911	-0.104309	-0.475992
C29	C	-3.962435	-0.107959	-0.521611
C30	C	-3.984917	-0.107245	-0.604213
C31	C	-3.814875	-0.102886	-0.641196
C32	C	-3.622334	-0.099233	-0.595570
C33	C	-3.599852	-0.099941	-0.512968
C34	C	-3.873685	-0.100540	-0.890382
C35	C	-3.896184	-0.099834	-0.972991
C36	C	-4.258766	-0.107844	-0.981629
C37	C	-4.236269	-0.108558	-0.899026
C38	C	-4.043729	-0.104900	-0.853406
C39	C	-3.837852	-0.102158	-0.725629
C40	C	-4.020751	-0.105623	-0.768973
C41	C	-4.106018	0.038863	-0.235788
C42	C	-4.043900	0.128124	-0.230059
C43	C	-4.133410	-0.102728	-0.106523
C44	C	-4.088709	-0.103484	-0.018610
H45	H	-3.968880	-0.632818	-0.342694
H46	H	-3.935229	-0.516548	-0.407785
O47	O	-4.172054	-0.110929	-0.648519
C48	C	-4.312562	-0.183379	-0.646689
H49	H	-4.225268	-0.230063	-0.632469
H50	H	-4.404455	-0.170496	-0.597868
C51	C	-4.567050	-0.159525	-0.747310
C52	C	-4.459834	-0.216864	-0.729852
H53	H	-4.657902	-0.180179	-0.798608
H54	H	-4.472391	-0.110712	-0.748541
H55	H	-4.643611	-0.148794	-0.706620
H56	H	-4.383257	-0.227587	-0.770536
H57	H	-4.554484	-0.265680	-0.728630
O58	O	-3.916469	-0.682986	-0.074822
C59	C	-3.919372	-0.727925	-0.013673
H60	H	-4.017533	-0.792468	-0.040474
H61	H	-3.756093	-0.729749	0.012025
C62	C	-3.889942	-0.608089	0.087528
C63	C	-4.010520	-0.687361	0.054613
H64	H	-3.946157	-0.583066	0.129652
H65	H	-3.887979	-0.577812	0.046332
H66	H	-3.753885	-0.609620	0.108937
H67	H	-4.146566	-0.685828	0.033195
H68	H	-4.012508	-0.717637	0.095807
H69	H	-3.889767	-0.574972	-0.151913
H70	H	-4.374739	-0.112107	-0.868921
O71	O	-4.093676	-0.893256	-0.374387
C72	C	-4.126733	-0.973832	-0.364012
H73	H	-4.047106	-0.974079	-0.300296
H74	H	-4.298534	-1.001759	-0.372741
C75	C	-4.136127	-1.023487	-0.505213
C76	C	-4.038313	-1.023791	-0.426958
H77	H	-4.081595	-1.054306	-0.544042
H78	H	-4.113864	-0.969202	-0.512204
H79	H	-4.279290	-1.046758	-0.512476
H80	H	-3.895159	-1.000511	-0.419692
H81	H	-4.060550	-1.078074	-0.419967
H82	H	-4.100909	-0.111514	-0.491508
H83	H	-4.016117	-0.732612	-0.352740
O84	O	-4.445899	-0.111542	-1.025946
C85	C	-4.586387	-0.183996	-1.024111
H86	H	-4.499070	-0.230667	-1.009871
H87	H	-4.678314	-0.171112	-0.975304
C88	C	-4.840862	-0.160179	-1.124765
C89	C	-4.733619	-0.217503	-1.107282
H90	H	-4.931689	-0.180846	-1.176067
H91	H	-4.746217	-0.111363	-1.125999
H92	H	-4.917451	-0.149447	-1.084086
H93	H	-4.657013	-0.228226	-1.147955
H94	H	-4.828256	-0.266321	-1.106057
H95	H	-3.864686	-0.364388	-0.398008
H96	H	-3.757704	-0.096281	-1.003098
O97	O	-3.841364	-0.479850	-0.130692
C98	C	-3.793346	-0.414790	-0.062481
H99	H	-3.710161	-0.356933	-0.078659
H100	H	-3.940902	-0.405950	-0.043102
C101	C	-3.756104	-0.504879	0.027572
C102	C	-3.653920	-0.433820	0.007704
H103	H	-3.670107	-0.516618	0.070867
H104	H	-3.788462	-0.548712	-0.018383
H105	H	-3.879064	-0.497503	0.043717
H106	H	-3.530977	-0.441200	-0.008450
H107	H	-3.621538	-0.389988	0.053657
H108	H	-3.993936	-0.843406	-0.096597
H109	H	-3.771940	-0.323035	-0.132090
H110	H	-3.716925	-0.097590	-0.853255
H111	H	-3.483882	-0.095678	-0.625686
H112	H	-3.443070	-0.096949	-0.475821
H113	H	-4.159196	-0.109169	-0.738858
H114	H	-3.699409	-0.098612	-0.755750
