data_functionalizedCrystal
_audit_creation_method	'MofGen! by Chris Wilmer'
_symmetry_space_group_name_H-M	'P1'
_symmetry_Int_Tables_number	1
_symmetry_cell_setting	triclinic
loop_
_symmetry_equiv_pos_as_xyz
  x,y,z
_cell_length_a	10.654562
_cell_length_b	9.065215
_cell_length_c	9.130313
_cell_angle_alpha	89.999667
_cell_angle_beta	89.996930
_cell_angle_gamma	84.752401
loop_
_atom_site_label
_atom_site_type_symbol
_atom_site_fract_x
_atom_site_fract_y
_atom_site_fract_z
O1	O	1.668644	0.207318	-0.121893
O2	O	1.303246	0.227042	-0.121874
O3	O	1.493499	0.002496	-0.121877
O4	O	1.478390	0.431864	-0.121889
O5	O	1.493497	0.002502	0.121721
O6	O	1.303243	0.227048	0.121725
O7	O	1.668642	0.207324	0.121706
Cu8	Cu	1.485942	0.217187	0.143958
Cu9	Cu	1.485945	0.217179	-0.144126
O10	O	1.478388	0.431870	0.121710
C11	C	1.256441	0.225593	-0.000072
C12	C	1.116981	0.221248	-0.000065
C13	C	1.051441	0.219225	0.132709
C14	C	0.920403	0.215154	0.132685
C15	C	0.920456	0.215137	-0.132900
C16	C	1.051493	0.219197	-0.132874
C17	C	1.051409	0.219242	0.286043
C18	C	0.920371	0.215171	0.286018
C19	C	1.492047	-0.052479	-0.000079
C20	C	1.487708	-0.216299	-0.000084
C21	C	1.715446	0.208773	-0.000099
C22	C	1.854906	0.213118	-0.000115
C23	C	1.479840	0.486845	-0.000092
C24	C	1.484180	0.650665	-0.000097
N25	N	1.485949	0.217191	0.346581
N26	N	1.485948	0.217164	-0.346748
C27	C	1.570216	0.117796	0.423231
C28	C	1.570212	0.117778	0.576568
C29	C	1.401672	0.316563	0.576590
C30	C	1.401670	0.316573	0.423256
C31	C	1.667525	0.003033	0.423219
C32	C	1.667522	0.003016	0.576556
H33	H	0.867119	0.213467	-0.241028
H34	H	1.764133	0.028301	0.618167
C35	C	1.637943	-0.150170	0.366992
N36	N	1.615658	-0.265559	0.324641
C37	C	1.308968	0.425875	0.660948
N38	N	1.239142	0.508211	0.724484
H39	H	1.081409	0.326850	0.333616
C40	C	1.113365	0.081490	0.365586
N41	N	1.160030	-0.022264	0.425494
H42	H	0.890357	0.107566	0.333601
C43	C	1.625713	-0.141756	0.640804
N44	N	1.594215	-0.250792	0.689197
H45	H	1.758851	0.038974	0.375655
H46	H	0.874487	0.317142	0.344880
C47	C	1.123586	0.221387	-0.278936
N48	N	1.177886	0.223030	-0.388956
H49	H	1.333043	0.397495	0.360849
