data_functionalizedCrystal
_audit_creation_method	'MofGen! by Chris Wilmer'
_symmetry_space_group_name_H-M	'P1'
_symmetry_Int_Tables_number	1
_symmetry_cell_setting	triclinic
loop_
_symmetry_equiv_pos_as_xyz
  x,y,z
_cell_length_a	6.817900
_cell_length_b	10.865348
_cell_length_c	10.773890
_cell_angle_alpha	84.429460
_cell_angle_beta	96.645716
_cell_angle_gamma	72.410449
loop_
_atom_site_label
_atom_site_type_symbol
_atom_site_fract_x
_atom_site_fract_y
_atom_site_fract_z
V1	V	-4.038702	0.400445	-0.172528
O2	O	-4.061690	0.394986	0.008360
O3	O	-3.955799	0.395625	-0.342160
O4	O	-4.011174	0.576042	-0.169843
O5	O	-4.005932	0.213320	-0.165149
V6	V	-4.524096	0.378316	-0.150895
O7	O	-4.295856	0.448986	-0.219981
O8	O	-4.717139	0.329775	-0.103442
O9	O	-4.383791	0.383136	0.018737
O10	O	-4.618504	0.383775	-0.331782
O11	O	-4.674262	0.565441	-0.158273
O12	O	-4.328416	0.202719	-0.153579
C13	C	-3.791731	0.388770	-0.383513
C14	C	-3.805375	0.386000	-0.522190
C15	C	-3.984022	0.390814	-0.590052
C16	C	-3.998128	0.387951	-0.733381
C17	C	-4.140565	0.159845	-0.159721
C18	C	-4.061256	0.016305	-0.160787
C19	C	-4.195622	-0.074505	-0.154898
C20	C	-4.092891	-0.141587	-0.262105
C21	C	-4.022656	-0.172372	-0.055488
C22	C	-3.959597	-0.048873	-0.268065
C23	C	-3.889360	-0.079666	-0.061355
C24	C	-3.786527	-0.146700	-0.168591
C25	C	-3.862367	0.618909	-0.163705
C26	C	-3.920915	0.762447	-0.162633
C27	C	-4.211200	0.389987	0.060084
C28	C	-4.176795	0.392766	0.198759
H29	H	-3.662874	0.379765	-0.570203
H30	H	-4.178126	-0.169179	-0.346993
F31	F	-3.925754	0.021019	-0.385595
H32	H	-3.612856	-0.178377	-0.174421
H33	H	-4.126529	0.397063	-0.542041
F34	F	-3.811847	0.379801	-0.796125
H35	H	-3.804206	-0.052049	0.023540
H36	H	-4.048573	-0.225997	0.034335
F37	F	-4.363086	0.400935	-0.738502
F38	F	-4.422699	-0.032749	-0.147487
