data_functionalizedCrystal
_audit_creation_method	'MofGen! by Chris Wilmer'
_symmetry_space_group_name_H-M	'P1'
_symmetry_Int_Tables_number	1
_symmetry_cell_setting	triclinic
loop_
_symmetry_equiv_pos_as_xyz
  x,y,z
_cell_length_a	18.050589
_cell_length_b	13.897449
_cell_length_c	13.897441
_cell_angle_alpha	90.023932
_cell_angle_beta	89.973098
_cell_angle_gamma	89.971851
loop_
_atom_site_label
_atom_site_type_symbol
_atom_site_fract_x
_atom_site_fract_y
_atom_site_fract_z
Zn1	Zn	-0.295644	-1.474612	-0.545537
Zn2	Zn	0.204356	-0.974612	-0.045537
Zn3	Zn	-0.419846	-1.474482	-0.384246
Zn4	Zn	0.080154	-0.974482	0.115754
Zn5	Zn	-0.295675	-1.313307	-0.384240
Zn6	Zn	0.204325	-0.813307	0.115760
Zn7	Zn	-0.419797	-1.313253	-0.545483
Zn8	Zn	0.080203	-0.813253	-0.045483
O9	O	-0.357741	-1.393913	-0.464876
O10	O	0.142259	-0.893913	0.035124
O11	O	-0.312128	-1.609576	-0.524166
O12	O	0.187872	-1.109576	-0.024166
O13	O	-0.403408	-1.453070	-0.249263
O14	O	0.096592	-0.953070	0.250737
O15	O	-0.191746	-1.334781	-0.405656
O16	O	0.308254	-0.834781	0.094344
O17	O	-0.403379	-1.609481	-0.405666
O18	O	0.096621	-1.109481	0.094334
O19	O	-0.191724	-1.453291	-0.524160
O20	O	0.308276	-0.953291	-0.024160
O21	O	-0.312180	-1.334655	-0.249259
O22	O	0.187820	-0.834655	0.250741
O23	O	-0.312132	-1.178318	-0.405605
O24	O	0.187868	-0.678318	0.094395
O25	O	-0.403294	-1.334689	-0.680472
O26	O	0.096706	-0.834689	-0.180472
O27	O	-0.403324	-1.178279	-0.524069
O28	O	0.096676	-0.678279	-0.024069
O29	O	-0.312080	-1.453239	-0.680511
O30	O	0.187920	-0.953239	-0.180511
O31	O	-0.523764	-1.453018	-0.405614
O32	O	-0.023764	-0.953018	0.094386
O33	O	-0.523728	-1.334564	-0.524075
O34	O	-0.023728	-0.834564	-0.024075
C35	C	-0.357726	-1.143299	-0.464831
C36	C	0.142274	-0.643299	0.035169
C37	C	-0.357738	-1.036085	-0.464835
C38	C	0.142262	-0.536085	0.035165
C39	C	-0.550693	-1.393797	-0.464860
C40	C	-0.050693	-0.893797	0.035140
C41	C	-0.633238	-1.393835	-0.464886
C42	C	-0.133238	-0.893835	0.035114
C43	C	-0.357739	-0.949015	-0.464847
C44	C	0.142261	-0.449015	0.035153
C45	C	-0.357743	-0.839783	-0.464871
C46	C	0.142257	-0.339783	0.035129
C47	C	-0.832696	-1.329483	-0.529282
C48	C	-0.332696	-0.829483	-0.029282
C49	C	-0.882140	-1.305970	-0.441261
C50	C	-0.382140	-0.805970	0.058739
C51	C	-0.784369	-1.393930	-0.464898
C52	C	-0.284369	-0.893930	0.035102
C53	C	-0.882006	-1.417491	-0.552929
C54	C	-0.382006	-0.917491	-0.052929
C55	C	-0.930354	-1.394020	-0.464918
C56	C	-0.430354	-0.894020	0.035082
C57	C	-0.832726	-1.370370	-0.376831
C58	C	-0.332726	-0.870370	0.123169
C59	C	-0.832587	-1.481933	-0.488558
C60	C	-0.332587	-0.981933	0.011442
C61	C	-0.882009	-1.458453	-0.400477
C62	C	-0.382009	-0.958453	0.099523
C63	C	-0.700271	-1.393876	-0.464888
C64	C	-0.200271	-0.893876	0.035112
C65	C	-1.014450	-1.394074	-0.464919
C66	C	-0.514450	-0.894074	0.035081
C67	C	-0.164035	-1.394057	-0.464914
C68	C	0.335965	-0.894057	0.035086
C69	C	-0.081489	-1.394118	-0.464930
C70	C	0.418511	-0.894118	0.035070
C71	C	-0.357678	-1.393973	-0.716470
C72	C	0.142322	-0.893973	-0.216470
C73	C	-0.357652	-1.393998	-0.823684
C74	C	0.142348	-0.893998	-0.323684
C75	C	-0.357753	-0.645506	-0.464911
C76	C	0.142247	-0.145506	0.035089
C77	C	-0.357750	-0.752720	-0.464896
C78	C	0.142250	-0.252720	0.035104
C79	C	-0.357631	-1.394017	-0.910753
C80	C	0.142369	-0.894017	-0.410753
C81	C	-0.357597	-1.394045	-1.019986
C82	C	0.142403	-0.894045	-0.519986
C83	C	-0.357749	-1.393910	-0.214262
C84	C	0.142251	-0.893910	0.285738
C85	C	-0.357566	-1.394072	-0.107049
C86	C	0.142434	-0.894072	0.392951
H87	H	-0.903923	-1.231591	-0.421268
H88	H	-0.403923	-0.731591	0.078732
C89	C	-0.803609	-1.343371	-0.276246
C90	C	-0.303609	-0.843371	0.223754
H91	H	-0.750980	-1.343469	-0.276862
H92	H	-0.250980	-0.843469	0.223138
H93	H	-0.820887	-1.388892	-0.230479
H94	H	-0.320887	-0.888892	0.269521
H95	H	-0.820990	-1.281078	-0.259353
H96	H	-0.320990	-0.781078	0.240647
H97	H	-0.903525	-1.512992	-0.345975
H98	H	-0.403525	-1.012992	0.154025
C99	C	-0.803156	-1.582387	-0.515618
C100	C	-0.303156	-1.082387	-0.015618
H101	H	-0.774211	-1.607082	-0.464160
H102	H	-0.274211	-1.107082	0.035840
H103	H	-0.773430	-1.577736	-0.571845
H104	H	-0.273430	-1.077736	-0.071845
H105	H	-0.843675	-1.624325	-0.527535
H106	H	-0.343675	-1.124325	-0.027535
C107	C	-0.803437	-1.255755	-0.602728
C108	C	-0.303437	-0.755755	-0.102728
H109	H	-0.820407	-1.193289	-0.585763
H110	H	-0.320407	-0.693289	-0.085763
H111	H	-0.821034	-1.271847	-0.665098
H112	H	-0.321034	-0.771847	-0.165098
H113	H	-0.750811	-1.256634	-0.602617
H114	H	-0.250811	-0.756634	-0.102617
C115	C	-0.911249	-1.444370	-0.653486
C116	C	-0.411249	-0.944370	-0.153486
H117	H	-0.894355	-1.398484	-0.699141
H118	H	-0.394355	-0.898484	-0.199141
H119	H	-0.963870	-1.444787	-0.652634
H120	H	-0.463870	-0.944787	-0.152634
H121	H	-0.893545	-1.506414	-0.670727
H122	H	-0.393545	-1.006414	-0.170727
