data_functionalizedCrystal
_audit_creation_method	'MofGen! by Chris Wilmer'
_symmetry_space_group_name_H-M	'P1'
_symmetry_Int_Tables_number	1
_symmetry_cell_setting	triclinic
loop_
_symmetry_equiv_pos_as_xyz
  x,y,z
_cell_length_a	12.759395
_cell_length_b	21.295412
_cell_length_c	12.759394
_cell_angle_alpha	89.976207
_cell_angle_beta	90.016374
_cell_angle_gamma	89.978893
loop_
_atom_site_label
_atom_site_type_symbol
_atom_site_fract_x
_atom_site_fract_y
_atom_site_fract_z
Zn1	Zn	1.606274	-0.355901	-0.418250
Zn2	Zn	1.606162	-0.250639	-0.593942
Zn3	Zn	1.430570	-0.250651	-0.418283
Zn4	Zn	1.430564	-0.355875	-0.593892
O5	O	1.518393	-0.303267	-0.506092
O6	O	1.753280	-0.341944	-0.441563
O7	O	1.582825	-0.162551	-0.570676
O8	O	1.453927	-0.264628	-0.271257
O9	O	1.753198	-0.264608	-0.570644
O10	O	1.583016	-0.341955	-0.271233
O11	O	1.453819	-0.162560	-0.441619
O12	O	1.283548	-0.264603	-0.441570
O13	O	1.453916	-0.443968	-0.570557
O14	O	1.283544	-0.341911	-0.570590
O15	O	1.583010	-0.443987	-0.441514
O16	O	1.582819	-0.264583	-0.740957
O17	O	1.453808	-0.341900	-0.740920
C18	C	1.245425	-0.303256	-0.506079
C19	C	1.128648	-0.303266	-0.506099
C20	C	1.128682	-0.383637	-0.640664
C21	C	1.073838	-0.423824	-0.707955
C22	C	0.964117	-0.423832	-0.707967
C23	C	0.909236	-0.383649	-0.640680
C24	C	0.964080	-0.343462	-0.573389
C25	C	1.073804	-0.343457	-0.573386
C26	C	0.964047	-0.263095	-0.438820
C27	C	1.073768	-0.263084	-0.438811
C28	C	0.909166	-0.222913	-0.371533
C29	C	0.964010	-0.182722	-0.304246
C30	C	1.073738	-0.182715	-0.304237
C31	C	1.128612	-0.222896	-0.371520
C32	C	1.518475	-0.467457	-0.506026
C33	C	1.518510	-0.537425	-0.505998
C34	C	1.451354	-0.570286	-0.438791
C35	C	1.451350	-0.636029	-0.438772
C36	C	1.518521	-0.668908	-0.505948
C37	C	1.585682	-0.636038	-0.573169
C38	C	1.585676	-0.570297	-0.573194
N39	N	1.610493	-0.772144	-0.513970
N40	N	1.610495	-0.834596	-0.513940
C41	C	1.518540	-0.866982	-0.505878
N42	N	1.426581	-0.834558	-0.497828
N43	N	1.426580	-0.772101	-0.497852
C44	C	1.518534	-0.740193	-0.505929
C45	C	1.451375	-0.971129	-0.438646
C46	C	1.451369	-1.036873	-0.438634
C47	C	1.585710	-1.036881	-0.573026
C48	C	1.585706	-0.971139	-0.573043
C49	C	1.518540	-0.938267	-0.505848
C50	C	1.792426	-0.303278	-0.506105
C51	C	1.909203	-0.303283	-0.506111
C52	C	1.518330	-0.303251	-0.779059
C53	C	1.518399	-0.303266	-0.895836
C54	C	1.518371	-0.139715	-0.506081
C55	C	1.518540	-0.069747	-0.505813
C56	C	1.652839	-0.222816	-0.895821
C57	C	1.720086	-0.182599	-0.950675
C58	C	1.720148	-0.182616	-1.060396
C59	C	1.652957	-0.222856	-1.115267
C60	C	1.585710	-0.263074	-1.060413
C61	C	1.585653	-0.263051	-0.950689
C62	C	1.451276	-0.343525	-1.060428
C63	C	1.451208	-0.343506	-0.950706
C64	C	1.384085	-0.383765	-1.115299
C65	C	1.316831	-0.423980	-1.060445
C66	C	1.316771	-0.423961	-0.950717
C67	C	1.383960	-0.383723	-0.895853
C68	C	1.518485	-0.303296	-0.232058
C69	C	1.518524	-0.303308	-0.115282
H70	H	0.919318	-0.150011	-0.249461
O71	O	1.658164	-1.072333	-0.645483
H72	H	1.646891	-1.123568	-0.634172
H73	H	1.774912	-0.149871	-1.105058
O74	O	1.378909	-0.534829	-0.366326
H75	H	1.425956	-0.504897	-0.312887
O76	O	1.658125	-0.671503	-0.645623
H77	H	1.640064	-0.658878	-0.728084
H78	H	1.774795	-0.149837	-0.905989
O79	O	1.658162	-0.935689	-0.645508
H80	H	1.704882	-0.969594	-0.692208
O81	O	1.378924	-0.935672	-0.366182
H82	H	1.425965	-0.905743	-0.312733
O83	O	1.658127	-0.534848	-0.645667
H84	H	1.704844	-0.568752	-0.692372
H85	H	1.118386	-0.149994	-0.249433
H86	H	1.396675	-1.063627	-0.383909
H87	H	1.652782	-0.222790	-0.806480
H88	H	1.218023	-0.383630	-0.640668
O89	O	1.378925	-0.671484	-0.366272
H90	H	1.332226	-0.637581	-0.319547
H91	H	1.653022	-0.222872	-1.204608
H92	H	1.384145	-0.383779	-1.204640
H93	H	0.919463	-0.456559	-0.762756
O94	O	1.244356	-0.467373	-1.119621
H95	H	1.255694	-0.460626	-1.205132
O96	O	1.133040	-0.467173	-0.780500
H97	H	1.183004	-0.438947	-0.833891
H98	H	1.217953	-0.222893	-0.371522
H99	H	1.262014	-0.456713	-0.906061
O100	O	1.383877	-0.383707	-0.777510
H101	H	1.463090	-0.396465	-0.748489
H102	H	0.819825	-0.222925	-0.371544
O103	O	0.790894	-0.383635	-0.640721
H104	H	0.761977	-0.418321	-0.698831
