data_functionalizedCrystal
_audit_creation_method	'MofGen! by Chris Wilmer'
_symmetry_space_group_name_H-M	'P1'
_symmetry_Int_Tables_number	1
_symmetry_cell_setting	triclinic
loop_
_symmetry_equiv_pos_as_xyz
  x,y,z
_cell_length_a	6.394989
_cell_length_b	10.723023
_cell_length_c	9.798715
_cell_angle_alpha	89.996770
_cell_angle_beta	89.999935
_cell_angle_gamma	85.482629
loop_
_atom_site_label
_atom_site_type_symbol
_atom_site_fract_x
_atom_site_fract_y
_atom_site_fract_z
O1	O	0.293014	1.660298	-0.113467
O2	O	0.321064	1.297443	-0.113472
O3	O	0.003048	1.484021	-0.113471
O4	O	0.611029	1.473720	-0.113468
O5	O	0.003047	1.484006	0.113511
O6	O	0.321063	1.297429	0.113510
O7	O	0.293013	1.660283	0.113515
Zn8	Zn	0.307038	1.478854	0.149551
Zn9	Zn	0.307039	1.478873	-0.149508
O10	O	0.611028	1.473706	0.113514
C11	C	0.319022	1.250914	0.000018
C12	C	0.312916	1.112295	0.000016
C13	C	0.310193	1.050487	0.117599
C14	C	0.303882	0.907217	0.117599
C15	C	0.688879	1.475749	0.000017
C16	C	0.925203	1.481974	0.000013
C17	C	0.295054	1.706812	0.000022
C18	C	0.301161	1.845431	0.000015
N19	N	0.307036	1.478850	0.353651
N20	N	0.307024	1.478886	-0.353608
C21	C	0.172922	1.557183	0.421428
C22	C	0.172914	1.557203	0.578591
H23	H	0.058097	1.624228	0.363106
C24	C	0.300438	0.836535	0.251939
C25	C	0.122427	0.879366	0.326643
C26	C	0.119197	0.814294	0.450415
H27	H	0.296503	0.749648	0.234294
H28	H	0.422932	0.850249	0.302884
H29	H	-0.000036	0.865641	0.275708
H30	H	0.126323	0.966244	0.344324
H31	H	0.241691	0.828007	0.501360
H32	H	0.115268	0.727409	0.432756
H33	H	-0.001570	0.843352	0.501122
H34	H	0.421859	1.411823	0.588116
H35	H	0.421844	1.411796	0.411975
C36	C	0.310227	1.041345	-0.134178
C37	C	0.486387	0.955369	-0.141314
C38	C	0.483996	0.890002	-0.264925
H39	H	0.186506	0.998022	-0.139385
H40	H	0.312867	1.098654	-0.207989
H41	H	0.483728	0.898067	-0.067523
H42	H	0.610135	0.998658	-0.136131
H43	H	0.486637	0.947312	-0.338736
H44	H	0.360269	0.846687	-0.270120
H45	H	0.603528	0.831668	-0.269788
C46	C	0.312994	1.121526	0.251733
C47	C	0.136887	1.207544	0.258840
C48	C	0.139411	1.273016	0.382379
H49	H	0.310368	1.064321	0.325620
H50	H	0.436792	1.164815	0.256814
H51	H	0.013121	1.164257	0.253772
H52	H	0.139476	1.264774	0.184982
H53	H	0.263209	1.316305	0.387460
H54	H	0.136790	1.215802	0.456256
H55	H	0.019936	1.331394	0.387212
H56	H	0.303514	0.898576	-0.100657
H57	H	0.058101	1.624271	0.636876
