data_functionalizedCrystal
_audit_creation_method	'MofGen! by Chris Wilmer'
_symmetry_space_group_name_H-M	'P1'
_symmetry_Int_Tables_number	1
_symmetry_cell_setting	triclinic
loop_
_symmetry_equiv_pos_as_xyz
  x,y,z
_cell_length_a	9.065218
_cell_length_b	10.654562
_cell_length_c	9.730223
_cell_angle_alpha	89.996961
_cell_angle_beta	89.999873
_cell_angle_gamma	95.247005
loop_
_atom_site_label
_atom_site_type_symbol
_atom_site_fract_x
_atom_site_fract_y
_atom_site_fract_z
O1	O	-0.207318	1.668646	-0.114376
O2	O	-0.227042	1.303247	-0.114358
O3	O	-0.002497	1.493499	-0.114363
O4	O	-0.431863	1.478394	-0.114370
O5	O	-0.002502	1.493497	0.114217
O6	O	-0.227048	1.303245	0.114222
O7	O	-0.207323	1.668644	0.114204
Zn8	Zn	-0.217186	1.485944	0.150505
Zn9	Zn	-0.217179	1.485947	-0.150659
O10	O	-0.431869	1.478392	0.114210
C11	C	-0.225593	1.256443	-0.000066
C12	C	-0.221248	1.116983	-0.000059
C13	C	-0.219225	1.051443	0.124529
C14	C	-0.215154	0.920405	0.124506
C15	C	-0.215137	0.920457	-0.124704
C16	C	-0.219197	1.051494	-0.124680
C17	C	-0.219241	1.051411	0.268409
C18	C	-0.215170	0.920373	0.268386
C19	C	-0.486845	1.479845	-0.000082
C20	C	-0.650664	1.484185	-0.000085
C21	C	0.052479	1.492047	-0.000075
C22	C	0.216299	1.487706	-0.000080
C23	C	-0.208773	1.715448	-0.000091
C24	C	-0.213117	1.854908	-0.000106
N25	N	-0.217191	1.485951	0.356042
N26	N	-0.217163	1.485950	-0.356195
C27	C	-0.117796	1.570217	0.427965
C28	C	-0.117778	1.570214	0.571848
C29	C	-0.316563	1.401675	0.571871
C30	C	-0.316572	1.401673	0.427991
C31	C	-0.003033	1.667525	0.427953
C32	C	-0.003015	1.667522	0.571836
H33	H	-0.317141	0.874490	0.323620
N34	N	-0.050628	1.788497	0.368828
H35	H	0.031823	1.830373	0.310384
H36	H	-0.142005	1.769123	0.310465
H37	H	-0.397475	1.333057	0.630467
N38	N	0.147178	1.638524	0.376210
H39	H	0.191789	1.711157	0.318533
H40	H	0.214104	1.625552	0.456970
N41	N	-0.423749	1.310765	0.350413
H42	H	-0.486700	1.257378	0.417828
H43	H	-0.489523	1.359566	0.290710
H44	H	0.104155	1.636585	0.616455
N45	N	-0.036505	1.795486	0.623574
H46	H	-0.051473	1.852590	0.542882
H47	H	-0.129468	1.786301	0.681286
N48	N	-0.361776	1.091166	0.327532
H49	H	-0.427657	1.013995	0.356085
H50	H	-0.338843	1.146847	0.410222
H51	H	-0.220821	1.104854	-0.226132
N52	N	-0.212917	0.849824	-0.259111
H53	H	-0.210031	0.756867	-0.240224
H54	H	-0.304927	0.863604	-0.313528
H55	H	-0.117276	1.097267	0.323663
N56	N	-0.072650	0.880593	0.327529
H57	H	0.013840	0.918515	0.271231
H58	H	-0.061576	0.910951	0.425633
