data_functionalizedCrystal
_audit_creation_method	'MofGen! by Chris Wilmer'
_symmetry_space_group_name_H-M	'P1'
_symmetry_Int_Tables_number	1
_symmetry_cell_setting	triclinic
loop_
_symmetry_equiv_pos_as_xyz
  x,y,z
_cell_length_a	17.640112
_cell_length_b	19.121063
_cell_length_c	17.639306
_cell_angle_alpha	104.052388
_cell_angle_beta	87.804122
_cell_angle_gamma	103.148881
loop_
_atom_site_label
_atom_site_type_symbol
_atom_site_fract_x
_atom_site_fract_y
_atom_site_fract_z
Zn1	Zn	1.244351	-0.091800	-0.200150
Zn2	Zn	1.577685	0.241534	0.133183
Zn3	Zn	1.911018	0.574867	0.466516
Zn4	Zn	1.214879	-0.192751	-0.078766
Zn5	Zn	1.548213	0.140583	0.254567
Zn6	Zn	1.881546	0.473916	0.587901
Zn7	Zn	1.091355	-0.101224	-0.099325
Zn8	Zn	1.424689	0.232109	0.234008
Zn9	Zn	1.758022	0.565442	0.567342
Zn10	Zn	1.111880	-0.239101	-0.233905
Zn11	Zn	1.445213	0.094233	0.099429
Zn12	Zn	1.778546	0.427566	0.432762
O13	O	1.165616	-0.156219	-0.153036
O14	O	1.498950	0.177115	0.180297
O15	O	1.832283	0.510448	0.513630
O16	O	1.347577	-0.081849	-0.161318
O17	O	1.680910	0.251484	0.172015
O18	O	2.014244	0.584817	0.505348
O19	O	1.177570	-0.165156	0.025629
O20	O	1.510903	0.168177	0.358962
O21	O	1.844236	0.501511	0.692295
O22	O	1.115395	-0.000024	-0.107177
O23	O	1.448728	0.333309	0.226156
O24	O	1.782062	0.666643	0.559489
O25	O	1.325924	-0.156017	-0.072138
O26	O	1.659257	0.177316	0.261196
O27	O	1.992591	0.510649	0.594529
O28	O	1.227801	0.006900	-0.181253
O29	O	1.561134	0.340233	0.152080
O30	O	1.894468	0.673567	0.485413
O31	O	1.086817	-0.097912	0.010524
O32	O	1.420151	0.235421	0.343857
O33	O	1.753484	0.568755	0.677191
O34	O	0.986943	-0.142856	-0.139907
O35	O	1.320276	0.190478	0.193426
O36	O	1.653609	0.523811	0.526759
O37	O	1.150376	-0.235014	-0.336549
O38	O	1.483709	0.098319	-0.003216
O39	O	1.817043	0.431652	0.330118
O40	O	1.002022	-0.244153	-0.238783
O41	O	1.335355	0.089181	0.094551
O42	O	1.668688	0.422514	0.427884
O43	O	1.247703	-0.126793	-0.311750
O44	O	1.581036	0.206540	0.021583
O45	O	1.914369	0.539874	0.354917
O46	O	1.197471	-0.298849	-0.104868
O47	O	1.530805	0.034484	0.228466
O48	O	1.864138	0.367818	0.561799
O49	O	1.121798	-0.332902	-0.218847
O50	O	1.455131	0.000431	0.114486
O51	O	1.788465	0.333765	0.447819
C52	C	0.966703	-0.199557	-0.195239
C53	C	1.300037	0.133776	0.138094
C54	C	1.633370	0.467110	0.471428
C55	C	0.881610	-0.218117	-0.213313
C56	C	1.214944	0.115216	0.120021
C57	C	1.548277	0.448549	0.453354
C58	C	0.562475	-0.015208	-0.015739
C59	C	0.895808	0.318125	0.317594
C60	C	1.229141	0.651459	0.650927
C61	C	0.482518	-0.032664	-0.032733
C62	C	0.815852	0.300669	0.300600
C63	C	1.149185	0.634003	0.633933
C64	C	0.498237	-0.138246	-0.135530
C65	C	0.831570	0.195087	0.197803
C66	C	1.164904	0.528421	0.531137
C67	C	0.578197	-0.120797	-0.118547
C68	C	0.911530	0.212537	0.214786
C69	C	1.244864	0.545870	0.548120
C70	C	0.610309	-0.059277	-0.058650
C71	C	0.943642	0.274056	0.274683
C72	C	1.276976	0.607389	0.608016
C73	C	0.626031	-0.164866	-0.161458
C74	C	0.959365	0.168467	0.171875
C75	C	1.292698	0.501801	0.505208
C76	C	0.705984	-0.147420	-0.144474
C77	C	1.039317	0.185913	0.188860
C78	C	1.372650	0.519246	0.522193
C79	C	0.738101	-0.085905	-0.084578
C80	C	1.071435	0.247428	0.248755
C81	C	1.404768	0.580762	0.582089
C82	C	0.690261	-0.041831	-0.041666
C83	C	1.023595	0.291502	0.291668
C84	C	1.356928	0.624835	0.625001
C85	C	0.593917	-0.226388	-0.221351
C86	C	0.927250	0.106945	0.111982
C87	C	1.260584	0.440278	0.445316
C88	C	0.641751	-0.270458	-0.264262
C89	C	0.975085	0.062876	0.069071
C90	C	1.308418	0.396209	0.402404
C91	C	0.721706	-0.253009	-0.247282
C92	C	1.055039	0.080324	0.086052
C93	C	1.388373	0.413658	0.419385
C94	C	0.753824	-0.191494	-0.187386
C95	C	1.087157	0.141840	0.145947
C96	C	1.420490	0.475173	0.479281
C97	C	0.769546	-0.297082	-0.290194
C98	C	1.102879	0.036251	0.043139
C99	C	1.436213	0.369584	0.376473
C100	C	0.849498	-0.279637	-0.273210
C101	C	1.182832	0.053697	0.060124
C102	C	1.516165	0.387030	0.393457
C103	C	0.833776	-0.174048	-0.170402
C104	C	1.167109	0.159286	0.162932
C105	C	1.500443	0.492619	0.496265
C106	C	1.158688	-0.341789	-0.163302
C107	C	1.492021	-0.008456	0.170032
C108	C	1.825355	0.324877	0.503365
C109	C	1.155799	-0.421166	-0.167704
C110	C	1.489132	-0.087832	0.165629
C111	C	1.822466	0.245501	0.498963
C112	C	1.193887	-0.440702	-0.110462
C113	C	1.527220	-0.107368	0.222872
C114	C	1.860553	0.225965	0.556205
C115	C	1.191175	-0.515285	-0.114605
C116	C	1.524508	-0.181951	0.218728
C117	C	1.857842	0.151382	0.552061
C118	C	1.150370	-0.570331	-0.175989
C119	C	1.483704	-0.236998	0.157344
C120	C	1.817037	0.096335	0.490677
C121	C	1.112282	-0.550792	-0.233237
C122	C	1.445615	-0.217458	0.100096
C123	C	1.778948	0.115875	0.433429
C124	C	1.114998	-0.476209	-0.229096
C125	C	1.448332	-0.142876	0.104238
C126	C	1.781665	0.190457	0.437571
C127	C	1.140198	-0.796410	-0.191464
C128	C	1.473532	-0.463077	0.141870
C129	C	1.806865	-0.129744	0.475203
C130	C	1.137483	-0.870997	-0.195600
C131	C	1.470816	-0.537663	0.137734
C132	C	1.804149	-0.204330	0.471067
C133	C	1.216377	-0.835485	-0.076968
C134	C	1.549711	-0.502151	0.256365
C135	C	1.883044	-0.168818	0.589699
C136	C	1.219087	-0.760903	-0.072830
C137	C	1.552420	-0.427569	0.260504
C138	C	1.885753	-0.094236	0.593837
C139	C	1.181001	-0.741369	-0.130080
C140	C	1.514335	-0.408036	0.203254
C141	C	1.847668	-0.074702	0.536587
C142	C	1.147596	-0.646568	-0.180225
C143	C	1.480929	-0.313235	0.153108
C144	C	1.814262	0.020098	0.486442
C145	C	1.183781	-0.665133	-0.125846
C146	C	1.517115	-0.331800	0.207487
C147	C	1.850448	0.001534	0.540820
C148	C	1.365306	-0.112712	-0.110670
C149	C	1.698640	0.220622	0.222664
C150	C	2.031973	0.553955	0.555997
C151	C	1.450402	-0.094172	-0.092615
C152	C	1.783736	0.239162	0.240718
C153	C	2.117069	0.572495	0.574051
C154	C	1.204616	-0.185022	-0.352702
C155	C	1.537950	0.148311	-0.019368
C156	C	1.871283	0.481644	0.313965
C157	C	1.221236	-0.197297	-0.437787
C158	C	1.554569	0.136036	-0.104454
C159	C	1.887902	0.469370	0.228880
C160	C	1.172596	0.030079	-0.142743
C161	C	1.505929	0.363412	0.190590
C162	C	1.839263	0.696745	0.523923
C163	C	1.175570	0.109467	-0.138357
C164	C	1.508904	0.442801	0.194976
C165	C	1.842237	0.776134	0.528309
C166	C	1.039668	-0.062640	-0.756963
C167	C	1.373001	0.270693	-0.423629
C168	C	1.706335	0.604026	-0.090296
C169	C	1.055301	-0.074185	-0.836910
C170	C	1.388634	0.259148	-0.503577
C171	C	1.721968	0.592481	-0.170244
C172	C	1.149792	-0.144199	-0.821164
C173	C	1.483125	0.189134	-0.487831
C174	C	1.816459	0.522468	-0.154497
C175	C	1.134169	-0.132657	-0.741212
C176	C	1.467503	0.200676	-0.407879
C177	C	1.800836	0.534010	-0.074546
C178	C	1.079106	-0.091878	-0.709119
C179	C	1.412439	0.241456	-0.375785
C180	C	1.745773	0.574789	-0.042452
C181	C	1.173608	-0.161894	-0.693368
C182	C	1.506941	0.171439	-0.360035
C183	C	1.840274	0.504772	-0.026702
C184	C	1.157983	-0.150356	-0.613425
C185	C	1.491316	0.182977	-0.280091
C186	C	1.824650	0.516310	0.053242
C187	C	1.102921	-0.109581	-0.581325
C188	C	1.436254	0.223753	-0.247992
C189	C	1.769587	0.557086	0.085342
C190	C	1.063482	-0.080340	-0.629175
C191	C	1.396815	0.252994	-0.295842
C192	C	1.730148	0.586327	0.037492
C193	C	1.228667	-0.202678	-0.725465
C194	C	1.562000	0.130655	-0.392131
C195	C	1.895333	0.463989	-0.058798
C196	C	1.268105	-0.231915	-0.677620
C197	C	1.601438	0.101418	-0.344287
C198	C	1.934771	0.434751	-0.010954
C199	C	1.252485	-0.220373	-0.597674
C200	C	1.585818	0.112960	-0.264341
C201	C	1.919151	0.446294	0.068992
C202	C	1.197422	-0.179598	-0.565575
C203	C	1.530755	0.153736	-0.232241
C204	C	1.864089	0.487069	0.101092
C205	C	1.291924	-0.249614	-0.549824
C206	C	1.625257	0.083719	-0.216491
C207	C	1.958590	0.417052	0.116842
C208	C	1.276299	-0.238076	-0.469881
C209	C	1.609632	0.095257	-0.136547
C210	C	1.942966	0.428591	0.196786
C211	C	1.181798	-0.168059	-0.485631
C212	C	1.515131	0.165274	-0.152298
C213	C	1.848464	0.498607	0.181036
C214	C	1.126814	-0.127466	0.045864
C215	C	1.460148	0.205867	0.379197
C216	C	1.793481	0.539201	0.712531
C217	C	1.110351	-0.114958	0.130991
C218	C	1.443684	0.218375	0.464325
C219	C	1.777017	0.551709	0.797658
H220	H	0.888447	-0.315522	-0.308153
H221	H	1.221780	0.017812	0.025180
H222	H	1.555113	0.351145	0.358514
H223	H	1.227110	-0.395886	-0.060474
H224	H	1.560443	-0.062552	0.272860
H225	H	1.893777	0.270781	0.606193
H226	H	1.308424	-0.261872	-0.430922
H227	H	1.641758	0.071461	-0.097588
H228	H	1.975091	0.404794	0.235745
H229	H	0.743387	-0.347176	-0.338957
H230	H	1.076720	-0.013842	-0.005623
H231	H	1.410053	0.319491	0.327710
H232	H	1.252313	-0.716084	-0.022846
H233	H	1.585646	-0.382750	0.310487
H234	H	1.918980	-0.049417	0.643821
H235	H	1.194622	-0.177405	-0.847307
H236	H	1.527955	0.155929	-0.513973
H237	H	1.861289	0.489262	-0.180640
H238	H	1.247386	-0.851398	-0.030359
H239	H	1.580719	-0.518064	0.302974
H240	H	1.914052	-0.184731	0.636308
H241	H	1.222189	-0.531186	-0.067992
H242	H	1.555523	-0.197853	0.265341
H243	H	1.888856	0.135481	0.598675
H244	H	0.994838	-0.029425	-0.730828
H245	H	1.328171	0.303909	-0.397495
H246	H	1.661505	0.637242	-0.064162
H247	H	1.083984	-0.460306	-0.275709
H248	H	1.417318	-0.126972	0.057624
H249	H	1.750651	0.206361	0.390957
H250	H	0.443574	0.003232	0.002210
H251	H	0.776908	0.336565	0.335543
H252	H	1.110241	0.669898	0.668876
H253	H	1.217008	-0.620312	-0.075870
H254	H	1.550341	-0.286978	0.257464
H255	H	1.883674	0.046355	0.590797
H256	H	1.023185	-0.050370	-0.875863
H257	H	1.356518	0.282963	-0.542530
H258	H	1.689851	0.616297	-0.209196
H259	H	0.615594	-0.320548	-0.313028
H260	H	0.948927	0.012785	0.020305
H261	H	1.282260	0.346118	0.353639
H262	H	1.312935	-0.265121	-0.703763
H263	H	1.646268	0.068212	-0.370430
H264	H	1.979601	0.401546	-0.037097
H265	H	0.859926	-0.123944	-0.121638
H266	H	1.193259	0.209390	0.211695
H267	H	1.526592	0.542723	0.545028
H268	H	1.104266	-0.915816	-0.245597
H269	H	1.437600	-0.582483	0.087736
H270	H	1.770933	-0.249149	0.421069
H271	H	1.109186	-0.780513	-0.238078
H272	H	1.442519	-0.447179	0.095255
H273	H	1.775853	-0.113846	0.428589
H274	H	1.336750	-0.282823	-0.575969
H275	H	1.670084	0.050510	-0.242636
H276	H	2.003417	0.383844	0.090698
H277	H	0.716411	0.008273	0.007097
H278	H	1.049744	0.341606	0.340431
H279	H	1.383078	0.674939	0.673764
H280	H	0.803204	-0.071703	-0.070749
H281	H	1.136537	0.261630	0.262584
H282	H	1.469870	0.594964	0.595918
H283	H	1.114371	-0.691396	-0.230203
H284	H	1.447704	-0.358062	0.103131
H285	H	1.781037	-0.024729	0.436464
H286	H	1.136968	-0.134844	-0.459497
H287	H	1.470301	0.198490	-0.126163
H288	H	1.803634	0.531823	0.207170
H289	H	1.079062	-0.595617	-0.283220
H290	H	1.412395	-0.262283	0.050113
H291	H	1.745728	0.071050	0.383447
H292	H	1.090195	-0.100193	-0.516231
H293	H	1.423528	0.233140	-0.182897
H294	H	1.756861	0.566473	0.150436
H295	H	0.472080	-0.188337	-0.184296
H296	H	0.805413	0.144997	0.149037
H297	H	1.138746	0.478330	0.482371
H298	H	0.528814	-0.240591	-0.235178
H299	H	0.862147	0.092743	0.098156
H300	H	1.195481	0.426076	0.431489
H301	H	0.588624	0.034896	0.033024
H302	H	0.921958	0.368230	0.366357
H303	H	1.255291	0.701563	0.699691
H304	H	1.018652	-0.047124	-0.603041
H305	H	1.351985	0.286209	-0.269707
H306	H	1.685318	0.619543	0.063626
H307	H	1.241388	-0.212069	-0.790560
H308	H	1.574722	0.121265	-0.457227
H309	H	1.908055	0.454598	-0.123893
