data_functionalizedCrystal
_audit_creation_method	'MofGen! by Chris Wilmer'
_symmetry_space_group_name_H-M	'P1'
_symmetry_Int_Tables_number	1
_symmetry_cell_setting	triclinic
loop_
_symmetry_equiv_pos_as_xyz
  x,y,z
_cell_length_a	10.723024
_cell_length_b	11.295483
_cell_length_c	10.723024
_cell_angle_alpha	94.135327
_cell_angle_beta	95.532131
_cell_angle_gamma	94.144104
loop_
_atom_site_label
_atom_site_type_symbol
_atom_site_fract_x
_atom_site_fract_y
_atom_site_fract_z
O1	O	1.665521	0.099014	-0.166696
O2	O	1.302369	0.099018	-0.183449
O3	O	1.492322	0.099011	0.006503
O4	O	1.475569	0.099020	-0.356648
O5	O	1.475637	-0.099039	-0.010155
O6	O	1.285685	-0.099032	-0.200107
O7	O	1.648837	-0.099036	-0.183354
Cu8	Cu	1.465738	-0.117118	-0.193252
Cu9	Cu	1.485469	0.117099	-0.173552
O10	O	1.458885	-0.099030	-0.373306
C11	C	1.247528	-0.000007	-0.190559
C12	C	1.108974	-0.000005	-0.186911
N13	N	1.451869	-0.281854	-0.207107
C14	C	1.033991	-0.000002	-0.293198
C15	C	0.890788	-0.000000	-0.289431
C16	C	1.599180	-0.531148	-0.059879
C17	C	1.588709	-0.655811	-0.070359
C18	C	1.420449	-0.655846	-0.238538
C19	C	1.430921	-0.531183	-0.228059
C20	C	1.520290	-0.468838	-0.138728
C21	C	1.530767	-0.344172	-0.128255
C22	C	1.362502	-0.344209	-0.296428
C23	C	1.352031	-0.468873	-0.306908
C24	C	1.703679	-0.000009	-0.176244
C25	C	1.842234	-0.000003	-0.179891
C26	C	1.482760	-0.000012	0.044674
C27	C	1.479113	-0.000008	0.183229
N28	N	1.499347	0.281835	-0.159687
C29	C	1.468446	-0.000003	-0.411477
C30	C	1.472094	0.000000	-0.550031
C31	C	1.585401	-0.000007	0.258211
C32	C	1.581634	-0.000003	0.401415
H33	H	1.075813	-0.000006	-0.386985
H34	H	1.067154	0.000023	-0.093123
C35	C	1.627827	-0.276696	-0.031147
C36	C	1.694648	-0.357954	0.035686
C37	C	1.784057	-0.295842	0.125168
H38	H	1.684365	-0.228049	-0.072271
H39	H	1.586604	-0.228100	0.025361
H40	H	1.735870	-0.406529	-0.020813
H41	H	1.638145	-0.406603	0.076838
H42	H	1.742833	-0.247246	0.181676
H43	H	1.840585	-0.247197	0.084033
H44	H	1.829398	-0.350965	0.170533
H45	H	1.672624	-0.000008	0.465847
H46	H	1.381098	-0.000008	0.385543
C47	C	1.674518	-0.723248	0.015323
C48	C	1.755039	-0.641962	0.095775
C49	C	1.834115	-0.704040	0.174716
H50	H	1.625240	-0.771892	0.063706
H51	H	1.722837	-0.771844	-0.034091
H52	H	1.706725	-0.593386	0.145184
H53	H	1.804344	-0.593315	0.047426
H54	H	1.882434	-0.752636	0.125302
H55	H	1.784827	-0.752682	0.223091
H56	H	1.888765	-0.648897	0.229304
C57	C	1.353932	0.000058	0.238744
C58	C	1.256607	0.000086	0.141817
C59	C	1.141272	0.000163	0.192907
H60	H	1.341945	-0.068985	0.283148
H61	H	1.353695	0.069153	0.294735
H62	H	1.256842	-0.069003	0.085848
H63	H	1.268552	0.069123	0.097405
H64	H	1.141035	0.069259	0.248898
H65	H	1.129298	-0.068880	0.237310
H66	H	1.075224	0.000193	0.127152
C67	C	1.254880	-0.536351	-0.403924
C68	C	1.188013	-0.455095	-0.470713
C69	C	1.098495	-0.517209	-0.560085
H70	H	1.295980	-0.584982	-0.460485
H71	H	1.198397	-0.584962	-0.362674
H72	H	1.244488	-0.406504	-0.511962
H73	H	1.146886	-0.406461	-0.414187
H74	H	1.042012	-0.565821	-0.518835
H75	H	1.139606	-0.565839	-0.616636
H76	H	1.053107	-0.462087	-0.605404
H77	H	0.906659	0.000002	-0.088895
H78	H	1.671957	-0.480386	0.012850
H79	H	1.347678	-0.706623	-0.311261
H80	H	1.298269	-0.293462	-0.360635
C81	C	0.804967	0.000250	-0.410784
C82	C	0.836722	0.102159	-0.471579
C83	C	0.757677	0.102439	-0.583368
H84	H	0.814643	-0.068732	-0.463981
H85	H	0.720123	0.000316	-0.392173
H86	H	0.921544	0.102082	-0.490194
H87	H	0.827039	0.171158	-0.418419
H88	H	0.672834	0.102505	-0.564757
H89	H	0.767360	0.033452	-0.636554
H90	H	0.779204	0.171588	-0.624626
C91	C	1.710332	-0.000072	0.202215
C92	C	1.689227	-0.000104	0.071306
C93	C	1.804285	-0.000179	0.019683
H94	H	1.762373	0.068973	0.234870
H95	H	1.750648	-0.069165	0.223326
H96	H	1.648930	0.068983	0.050206
H97	H	1.637205	-0.069143	0.038616
H98	H	1.844602	-0.069273	0.040794
H99	H	1.856318	0.068866	0.052347
H100	H	1.789981	-0.000212	-0.069144
