data_functionalizedCrystal
_audit_creation_method	'MofGen! by Chris Wilmer'
_symmetry_space_group_name_H-M	'P1'
_symmetry_Int_Tables_number	1
_symmetry_cell_setting	triclinic
loop_
_symmetry_equiv_pos_as_xyz
  x,y,z
_cell_length_a	12.827893
_cell_length_b	12.759394
_cell_length_c	12.827885
_cell_angle_alpha	90.031224
_cell_angle_beta	90.019272
_cell_angle_gamma	90.014808
loop_
_atom_site_label
_atom_site_type_symbol
_atom_site_fract_x
_atom_site_fract_y
_atom_site_fract_z
Zn1	Zn	1.597674	-0.418216	0.590838
Zn2	Zn	1.597569	-0.593932	0.416094
Zn3	Zn	1.422915	-0.418268	0.416112
Zn4	Zn	1.422902	-0.593854	0.590794
O5	O	1.510265	-0.506068	0.503460
O6	O	1.743896	-0.441537	0.567669
O7	O	1.574363	-0.570684	0.269860
O8	O	1.446146	-0.271240	0.439316
O9	O	1.743819	-0.570634	0.439285
O10	O	1.574541	-0.271202	0.567686
O11	O	1.446045	-0.441624	0.269873
O12	O	1.276677	-0.441548	0.439273
O13	O	1.446124	-0.570501	0.737036
O14	O	1.276668	-0.570551	0.567611
O15	O	1.574528	-0.441461	0.737069
O16	O	1.574350	-0.740943	0.439243
O17	O	1.446023	-0.740885	0.567594
C18	C	1.238755	-0.506047	0.503440
C19	C	1.122602	-0.506064	0.503456
C20	C	1.070840	-0.569998	0.566864
C21	C	0.950790	-0.570017	0.566882
C22	C	1.510202	-0.779035	0.503434
C23	C	1.510271	-0.895812	0.503458
C24	C	1.643999	-0.895818	0.369906
C25	C	1.710890	-0.950682	0.303143
C26	C	1.710951	-1.060404	0.303171
C27	C	1.644116	-1.115264	0.369973
C28	C	1.577225	-1.060400	0.436736
C29	C	1.577169	-0.950676	0.436698
C30	C	1.443504	-1.060393	0.570292
C31	C	1.443436	-0.950672	0.570260
C32	C	1.376670	-1.115253	0.637094
C33	C	1.309772	-1.060389	0.703854
C34	C	1.309712	-0.950661	0.703822
C35	C	1.376545	-0.895808	0.637024
C36	C	1.782835	-0.506089	0.503480
C37	C	1.898988	-0.506098	0.503489
C38	C	1.510336	-0.505967	0.776030
C39	C	1.510366	-0.505924	0.892183
C40	C	1.510356	-0.232034	0.503508
C41	C	1.510395	-0.115257	0.503528
C42	C	1.510254	-0.506092	0.231950
C43	C	1.510426	-0.505839	0.115797
C44	C	1.573912	-0.442058	0.943984
C45	C	1.573944	-0.442012	1.064034
H46	H	1.643942	-0.806477	0.369863
C47	C	1.062414	-0.432132	0.430132
C48	C	0.987383	-0.349782	0.475635
C49	C	0.927198	-0.275847	0.402309
C50	C	0.942044	-0.284263	0.283480
C51	C	1.017079	-0.366617	0.237971
C52	C	1.077264	-0.440551	0.311297
H53	H	0.976390	-0.343549	0.563605
H54	H	0.871652	-0.214884	0.435999
H55	H	0.897492	-0.229532	0.229200
H56	H	1.028072	-0.372850	0.150002
H57	H	1.132809	-0.501515	0.277608
C58	C	1.436922	-0.579713	1.055633
C59	C	1.354941	-0.534142	0.980574
C60	C	1.281437	-0.608016	0.920401
C61	C	1.289914	-0.727461	0.935288
C62	C	1.371899	-0.773038	1.010350
C63	C	1.445403	-0.699164	1.070523
H64	H	1.348662	-0.445716	0.969551
H65	H	1.220746	-0.574276	0.864835
H66	H	1.235502	-0.782146	0.890744
H67	H	1.378178	-0.861464	1.021373
H68	H	1.506094	-0.732904	1.126089
C69	C	1.647445	-0.368141	1.124205
C70	C	1.638967	-0.248696	1.109319
C71	C	1.712471	-0.174822	1.169492
C72	C	1.794452	-0.220393	1.244552
C73	C	1.802933	-0.339844	1.259441
C74	C	1.729430	-0.413718	1.199268
H75	H	1.578277	-0.214956	1.053752
H76	H	1.706192	-0.086396	1.158469
H77	H	1.848864	-0.165707	1.289095
H78	H	1.863624	-0.373583	1.315008
H79	H	1.735709	-0.502143	1.210291
C80	C	1.784408	-0.890336	0.229666
C81	C	1.784349	-0.769646	0.229627
C82	C	1.857871	-0.709304	0.156154
C83	C	1.931453	-0.769652	0.082721
C84	C	1.931516	-0.890349	0.082758
C85	C	1.857993	-0.950691	0.156230
H86	H	1.729876	-0.724966	0.283988
H87	H	1.857825	-0.619956	0.156128
H88	H	1.985879	-0.724984	0.028333
H89	H	1.985988	-0.935029	0.028396
H90	H	1.858040	-1.040039	0.156257
H91	H	0.943496	-0.451362	0.449197
H92	H	1.115402	-0.624717	0.621140
H93	H	0.906276	-0.624756	0.621165
H94	H	1.765425	-1.105074	0.248811
C95	C	1.236264	-1.120734	0.777331
C96	C	1.236339	-1.241424	0.777374
C97	C	1.162830	-1.301774	0.850853
C98	C	1.089246	-1.241433	0.924290
C99	C	1.089168	-1.120737	0.924251
C100	C	1.162677	-1.060387	0.850771
H101	H	1.290813	-1.286098	0.723009
H102	H	1.162888	-1.391122	0.850881
H103	H	1.034830	-1.286108	0.978684
H104	H	1.034694	-1.076063	0.978616
H105	H	1.162619	-0.971039	0.850743
H106	H	1.644181	-1.204605	0.369999
C107	C	1.647380	-0.368235	0.883839
C108	C	1.602039	-0.285846	0.808785
C109	C	1.675511	-0.212022	0.748642
C110	C	1.794324	-0.220588	0.763552
C111	C	1.839672	-0.302981	0.838609
C112	C	1.766200	-0.376805	0.898752
H113	H	1.514081	-0.279502	0.797744
H114	H	1.641941	-0.151029	0.693080
H115	H	1.848712	-0.165939	0.719030
H116	H	1.927630	-0.309325	0.849650
H117	H	1.799770	-0.437797	0.954314
H118	H	1.455981	-0.560560	0.936711
H119	H	1.376729	-1.204595	0.637117
H120	H	1.255246	-0.905997	0.758193
H121	H	1.376497	-0.806467	0.636984
