data_functionalizedCrystal
_audit_creation_method	'MofGen! by Chris Wilmer'
_symmetry_space_group_name_H-M	'P1'
_symmetry_Int_Tables_number	1
_symmetry_cell_setting	triclinic
loop_
_symmetry_equiv_pos_as_xyz
  x,y,z
_cell_length_a	17.077404
_cell_length_b	19.076808
_cell_length_c	17.077395
_cell_angle_alpha	87.671739
_cell_angle_beta	89.984359
_cell_angle_gamma	92.323651
loop_
_atom_site_label
_atom_site_type_symbol
_atom_site_fract_x
_atom_site_fract_y
_atom_site_fract_z
Zn1	Zn	1.187456	-0.280221	-0.431271
Zn2	Zn	1.687456	0.219779	0.068729
Zn3	Zn	1.182092	-0.397929	-0.294724
Zn4	Zn	1.682092	0.102071	0.205276
Zn5	Zn	1.056195	-0.280243	-0.300018
Zn6	Zn	1.556195	0.219757	0.199982
Zn7	Zn	1.050878	-0.397890	-0.425950
Zn8	Zn	1.550878	0.102110	0.074050
O9	O	1.119155	-0.339071	-0.362991
O10	O	1.619155	0.160929	0.137009
O11	O	1.296591	-0.295843	-0.413169
O12	O	1.796591	0.204157	0.086831
O13	O	1.165372	-0.382343	-0.185578
O14	O	1.665372	0.117657	0.314422
O15	O	1.078078	-0.181744	-0.321871
O16	O	1.578078	0.318256	0.178129
O17	O	1.292650	-0.382322	-0.312849
O18	O	1.792650	0.117678	0.187151
O19	O	1.174514	-0.181728	-0.418303
O20	O	1.674514	0.318272	0.081697
O21	O	1.072877	-0.295880	-0.189468
O22	O	1.572877	0.204120	0.310532
O23	O	0.945643	-0.295842	-0.316712
O24	O	1.445643	0.204158	0.183288
O25	O	1.069014	-0.382255	-0.536504
O26	O	1.569014	0.117745	-0.036504
O27	O	0.941737	-0.382277	-0.409233
O28	O	1.441737	0.117723	0.090767
O29	O	1.169358	-0.295805	-0.540413
O30	O	1.669358	0.204195	-0.040413
O31	O	1.160216	-0.496420	-0.307689
O32	O	1.660216	0.003580	0.192311
O33	O	1.063813	-0.496391	-0.404100
O34	O	1.563813	0.003609	0.095900
C35	C	0.915208	-0.339058	-0.362970
C36	C	1.415208	0.160942	0.137030
C37	C	0.827958	-0.339070	-0.362978
C38	C	1.327958	0.160930	0.137022
C39	C	1.110877	-0.521945	-0.354760
C40	C	1.610877	-0.021945	0.145240
C41	C	1.107407	-0.600179	-0.351265
C42	C	1.607407	-0.100179	0.148735
C43	C	0.784951	-0.384144	-0.411071
C44	C	1.284951	0.115856	0.088929
C45	C	0.702970	-0.384145	-0.411083
C46	C	1.202970	0.115855	0.088917
C47	C	0.663998	-0.339076	-0.362999
C48	C	1.163998	0.160924	0.137001
C49	C	0.707011	-0.293996	-0.314904
C50	C	1.207011	0.206004	0.185096
C51	C	0.788990	-0.293992	-0.314897
C52	C	1.288990	0.206008	0.185103
C53	C	0.536140	-0.294010	-0.314923
C54	C	1.036140	0.205990	0.185077
C55	C	0.454155	-0.294016	-0.314929
C56	C	0.954155	0.205984	0.185071
C57	C	0.450120	-0.384164	-0.411109
C58	C	0.950120	0.115836	0.088891
C59	C	0.532100	-0.384159	-0.411102
C60	C	1.032100	0.115841	0.088898
C61	C	0.575107	-0.339081	-0.363006
C62	C	1.075107	0.160919	0.136994
C63	C	1.155949	-0.636865	-0.399870
C64	C	1.655949	-0.136865	0.100130
C65	C	1.152686	-0.710374	-0.396587
C66	C	1.652686	-0.210374	0.103413
C67	C	1.100884	-0.747197	-0.344695
C68	C	1.600884	-0.247197	0.155305
C69	C	1.052337	-0.710506	-0.296088
C70	C	1.552337	-0.210506	0.203912
C71	C	1.055597	-0.636998	-0.299375
C72	C	1.555597	-0.136998	0.200625
C73	C	1.085751	-0.967050	-0.329480
C74	C	1.585751	-0.467050	0.170520
C75	C	1.082496	-1.040563	-0.326195
C76	C	1.582496	-0.540563	0.173805
C77	C	1.182844	-1.040426	-0.426695
C78	C	1.682844	-0.540426	0.073305
C79	C	1.186103	-0.966917	-0.429974
C80	C	1.686103	-0.466917	0.070026
C81	C	1.137553	-0.930232	-0.381370
C82	C	1.637553	-0.430232	0.118630
N83	N	1.097549	-0.822335	-0.341337
N84	N	1.597549	-0.322335	0.158663
N85	N	1.140885	-0.855095	-0.384733
N86	N	1.640885	-0.355095	0.115267
C87	C	1.323899	-0.339084	-0.363012
C88	C	1.823899	0.160916	0.136988
C89	C	1.411148	-0.339090	-0.363022
C90	C	1.911148	0.160910	0.136978
C91	C	1.119191	-0.339023	-0.567737
C92	C	1.619191	0.160977	-0.067737
C93	C	1.119206	-0.339003	-0.654988
C94	C	1.619206	0.160997	-0.154988
C95	C	1.127487	-0.155483	-0.371271
C96	C	1.627487	0.344517	0.128729
C97	C	1.131038	-0.077248	-0.374800
C98	C	1.631038	0.422752	0.125200
C99	C	1.171547	-0.293892	-1.032844
C100	C	1.671547	0.206108	-0.532844
C101	C	1.171529	-0.293917	-0.950862
C102	C	1.671529	0.206083	-0.450862
C103	C	1.119274	-0.338936	-0.907840
C104	C	1.619274	0.161064	-0.407840
C105	C	1.067038	-0.383938	-0.946803
C106	C	1.567038	0.116062	-0.446803
C107	C	1.067059	-0.383917	-1.028783
C108	C	1.567059	0.116083	-0.528783
C109	C	1.066995	-0.383979	-0.775931
C110	C	1.566995	0.116021	-0.275931
C111	C	1.066973	-0.384000	-0.693946
C112	C	1.566973	0.116000	-0.193946
C113	C	1.171465	-0.293979	-0.698010
C114	C	1.671465	0.206021	-0.198010
C115	C	1.171487	-0.293958	-0.779990
C116	C	1.671487	0.206042	-0.279990
C117	C	1.119249	-0.338959	-0.818948
C118	C	1.619249	0.161041	-0.318948
C119	C	1.119167	-0.339068	-0.159043
C120	C	1.619167	0.160932	0.340957
C121	C	1.119313	-0.338890	-0.071802
C122	C	1.619313	0.161110	0.428198
H123	H	0.816676	-0.420847	-0.450224
H124	H	1.316676	0.079153	0.049776
H125	H	1.024404	-0.420642	-0.658920
H126	H	1.524404	0.079358	-0.158920
F127	F	0.404349	-0.432132	-0.462306
F128	F	0.904349	0.067868	0.037694
H129	H	0.422427	-0.257307	-0.275784
H130	H	0.922427	0.242693	0.224216
F131	F	1.227112	-0.246052	-0.825776
F132	F	1.727112	0.253948	-0.325776
H133	H	0.571155	-0.257296	-0.275765
H134	H	1.071155	0.242704	0.224235
F135	F	1.227158	-0.245969	-1.078625
F136	F	1.727158	0.254031	-0.578625
H137	H	1.192219	-0.740240	-0.436161
H138	H	1.692219	-0.240240	0.063839
F139	F	1.027362	-1.079751	-0.270959
F140	F	1.527362	-0.579751	0.229041
H141	H	0.675273	-0.257297	-0.275757
H142	H	1.175273	0.242703	0.224243
F143	F	1.227124	-0.246025	-0.909404
F144	F	1.727124	0.253975	-0.409404
F145	F	1.034074	-0.928017	-0.277756
F146	F	1.534074	-0.428017	0.222244
F147	F	0.573575	-0.432132	-0.462273
F148	F	1.073575	0.067868	0.037727
H149	H	1.228284	-0.936937	-0.472229
H150	H	1.728284	-0.436937	0.027771
F151	F	1.234508	-1.079473	-0.478422
F152	F	1.734508	-0.579473	0.021578
H153	H	0.824006	-0.257284	-0.275739
H154	H	1.324006	0.242716	0.224261
H155	H	1.198135	-0.606889	-0.442123
H156	H	1.698135	-0.106889	0.057877
F157	F	1.011466	-0.431810	-1.070244
F158	F	1.511466	0.068190	-0.570244
F159	F	0.997199	-0.749697	-0.240867
F160	F	1.497199	-0.249697	0.259133
H161	H	1.016068	-0.607129	-0.259797
H162	H	1.516068	-0.107129	0.240203
H163	H	1.213997	-0.257336	-0.666287
H164	H	1.713997	0.242664	-0.166287
H165	H	0.667957	-0.420850	-0.450244
H166	H	1.167957	0.079150	0.049756
F167	F	1.011399	-0.431876	-0.817391
F168	F	1.511399	0.068124	-0.317391
F169	F	1.011425	-0.431853	-0.901014
F170	F	1.511425	0.068147	-0.401014
