data_functionalizedCrystal
_audit_creation_method	'MofGen! by Chris Wilmer'
_symmetry_space_group_name_H-M	'P1'
_symmetry_Int_Tables_number	1
_symmetry_cell_setting	triclinic
loop_
_symmetry_equiv_pos_as_xyz
  x,y,z
_cell_length_a	16.992694
_cell_length_b	17.699083
_cell_length_c	16.776229
_cell_angle_alpha	89.998433
_cell_angle_beta	89.998281
_cell_angle_gamma	86.975619
loop_
_atom_site_label
_atom_site_type_symbol
_atom_site_fract_x
_atom_site_fract_y
_atom_site_fract_z
O1	O	-1.040089	-0.160463	0.066191
O2	O	-0.811807	-0.158702	0.066215
O3	O	-0.932398	-0.049795	0.066195
O4	O	-0.919499	-0.269370	0.066211
O5	O	-0.932380	-0.049800	-0.066381
O6	O	-0.811790	-0.158707	-0.066362
O7	O	-1.040072	-0.160468	-0.066385
Zn8	Zn	-0.925928	-0.159588	-0.087423
Zn9	Zn	-0.925951	-0.159582	0.087252
O10	O	-0.919481	-0.269375	-0.066366
C11	C	-0.782590	-0.156440	-0.000071
C12	C	-0.695559	-0.149683	-0.000062
C13	C	-0.931927	-0.021572	-0.000093
C14	C	-0.930540	0.062533	-0.000093
C15	C	-1.069289	-0.162730	-0.000098
C16	C	-1.156320	-0.169487	-0.000102
C17	C	-0.645194	-0.214881	-0.000058
C18	C	-0.563420	-0.208527	-0.000069
C19	C	-0.532012	-0.136975	-0.000079
C20	C	-0.582383	-0.071773	-0.000085
C21	C	-0.664156	-0.078127	-0.000080
C22	C	-0.288464	-0.110639	-0.000102
C23	C	-0.206685	-0.104290	-0.000106
C24	C	-0.187727	-0.241045	-0.000091
C25	C	-0.269503	-0.247393	-0.000081
C26	C	-0.319867	-0.182190	-0.000091
N27	N	-0.448425	-0.130479	-0.000088
N28	N	-0.403451	-0.188687	-0.000088
C29	C	-0.919952	-0.297598	-0.000076
C30	C	-0.921339	-0.381703	-0.000070
N31	N	-0.925918	-0.159593	-0.206634
C32	C	-1.001324	0.106747	-0.000102
C33	C	-1.000017	0.185771	-0.000094
C34	C	-0.927924	0.220581	-0.000085
C35	C	-0.857135	0.176361	-0.000074
C36	C	-0.858443	0.097338	-0.000075
C37	C	-0.851857	0.495053	-0.000067
C38	C	-0.850554	0.574082	-0.000068
C39	C	-0.993430	0.583486	-0.000086
C40	C	-0.994739	0.504463	-0.000087
C41	C	-0.923950	0.460250	-0.000072
C42	C	-0.925368	0.374563	-0.000079
C43	C	-0.926505	0.306267	-0.000084
C44	C	-0.979371	-0.111366	-0.751808
C45	C	-0.979367	-0.111372	-0.668355
C46	C	-0.925955	-0.159579	-0.626634
C47	C	-0.872549	-0.207789	-0.668368
C48	C	-0.872557	-0.207787	-0.751819
C49	C	-0.872515	-0.207798	-0.331821
C50	C	-0.872510	-0.207795	-0.248365
C51	C	-0.979326	-0.111383	-0.248357
C52	C	-0.979334	-0.111381	-0.331808
C53	C	-0.925930	-0.159594	-0.373536
C54	C	-0.925936	-0.159589	-0.464024
C55	C	-0.925945	-0.159580	-0.536147
N56	N	-0.925967	-0.159572	0.206464
H57	H	-0.522415	-0.261618	-0.000065
H58	H	-0.329461	-0.057546	-0.000112
O59	O	-0.820734	-0.254670	-0.207748
C60	C	-0.862632	-0.303926	-0.159484
H61	H	-0.924033	-0.277521	-0.146978
H62	H	-0.829884	-0.313902	-0.100803
H63	H	-0.867859	-0.360183	-0.191641
O64	O	-0.783148	0.452028	-0.000163
C65	C	-0.779610	0.406049	-0.068834
H66	H	-0.841829	0.398295	-0.091733
H67	H	-0.750296	0.348489	-0.053385
H68	H	-0.743844	0.434182	-0.116910
H69	H	-0.181116	-0.046020	-0.000113
H70	H	-0.295069	-0.305658	-0.000063
O71	O	-0.820646	-0.254505	-0.792446
C72	C	-0.772353	-0.211022	-0.840711
H73	H	-0.803694	-0.153708	-0.853207
H74	H	-0.759898	-0.241851	-0.899396
H75	H	-0.714418	-0.202345	-0.808559
H76	H	-0.800803	0.061339	-0.000068
H77	H	-0.798436	0.204709	-0.000061
O78	O	-0.675570	-0.284445	-0.000083
C79	C	-0.613577	-0.340627	-0.000063
H80	H	-0.558068	-0.316052	-0.025169
H81	H	-0.630573	-0.390287	-0.038548
H82	H	-0.601963	-0.360972	0.063541
H83	H	-1.022862	-0.072108	-0.785772
O84	O	-1.031162	-0.064311	-0.628004
C85	C	-1.018404	0.011295	-0.648624
H86	H	-0.955584	0.015328	-0.671475
H87	H	-1.027525	0.048893	-0.593874
H88	H	-1.061783	0.030803	-0.697194
H89	H	-0.556804	-0.013513	-0.000105
O90	O	-0.712971	-0.014717	-0.000044
C91	C	-0.667716	0.049800	-0.000072
H92	H	-0.606646	0.034286	0.025026
H93	H	-0.697974	0.095788	0.038417
H94	H	-0.661937	0.071497	-0.063677
O95	O	-1.031295	-0.064529	-0.372212
C96	C	-1.078419	-0.021969	-0.317485
H97	H	-1.079237	-0.053050	-0.257997
H98	H	-1.141052	-0.014249	-0.341589
H99	H	-1.053075	0.035805	-0.308616
H100	H	-1.060030	0.078411	-0.000115
H101	H	-0.829031	-0.247053	-0.365789
O102	O	-0.138724	-0.304323	0.000018
C103	C	-0.090866	-0.304749	0.068687
H104	H	-0.086845	-0.244430	0.091575
H105	H	-0.029352	-0.329222	0.053241
H106	H	-0.117701	-0.340939	0.116771
O107	O	-1.068849	0.228608	-0.000144
C108	C	-1.132759	0.180939	-0.000140
H109	H	-1.112741	0.123231	-0.025237
H110	H	-1.182337	0.207063	-0.038640
H111	H	-1.154880	0.173978	0.063459
O112	O	-1.064838	0.470772	-0.000061
C113	C	-1.127035	0.526743	-0.000086
H114	H	-1.105164	0.581694	0.025015
H115	H	-1.177381	0.507199	0.038401
H116	H	-1.148856	0.536594	-0.063691
O117	O	-1.031087	-0.064485	-0.207751
C118	C	-0.989163	-0.015225	-0.159523
H119	H	-0.927773	-0.041650	-0.147008
H120	H	-1.021905	-0.005204	-0.100845
H121	H	-0.983909	0.041012	-0.191715
O122	O	-0.780450	0.607775	-0.000016
C123	C	-0.718250	0.551807	-0.000020
H124	H	-0.740127	0.496854	0.025075
H125	H	-0.667919	0.571353	0.038481
H126	H	-0.696405	0.541958	-0.063619
O127	O	-0.820693	-0.254546	-0.627719
C128	C	-0.832147	-0.244224	-0.545114
H129	H	-0.861565	-0.185846	-0.533714
H130	H	-0.772756	-0.249018	-0.513408
H131	H	-0.871379	-0.289460	-0.521425
H132	H	-1.051070	0.619494	-0.000094
