data_functionalizedCrystal
_audit_creation_method	'MofGen! by Chris Wilmer'
_symmetry_space_group_name_H-M	'P1'
_symmetry_Int_Tables_number	1
_symmetry_cell_setting	triclinic
loop_
_symmetry_equiv_pos_as_xyz
  x,y,z
_cell_length_a	15.297475
_cell_length_b	16.120484
_cell_length_c	15.296720
_cell_angle_alpha	101.986518
_cell_angle_beta	91.617114
_cell_angle_gamma	83.687474
loop_
_atom_site_label
_atom_site_type_symbol
_atom_site_fract_x
_atom_site_fract_y
_atom_site_fract_z
Zn1	Zn	1.212936	-0.646916	-0.755054
Zn2	Zn	1.230712	-0.766607	-0.613834
Zn3	Zn	1.094735	-0.600220	-0.581241
Zn4	Zn	1.059450	-0.758436	-0.734603
O5	O	1.149458	-0.693045	-0.671183
O6	O	1.336436	-0.685755	-0.758520
O7	O	1.234881	-0.728412	-0.486227
O8	O	1.117742	-0.490110	-0.599215
O9	O	1.349496	-0.773691	-0.654766
O10	O	1.204584	-0.524417	-0.726915
O11	O	1.134979	-0.606169	-0.462280
O12	O	0.968913	-0.598246	-0.579385
O13	O	1.057604	-0.759766	-0.860600
O14	O	0.942989	-0.714486	-0.692060
O15	O	1.170370	-0.677833	-0.875625
O16	O	1.200666	-0.881827	-0.634936
O17	O	1.074840	-0.875825	-0.723665
C18	C	0.924540	-0.650413	-0.629967
C19	C	0.828314	-0.632198	-0.612357
C20	C	0.503218	-0.823238	-0.797050
C21	C	0.593627	-0.840358	-0.813594
C22	C	0.652303	-0.788320	-0.763286
C23	C	0.620561	-0.719158	-0.696432
C24	C	0.530143	-0.702040	-0.679882
C25	C	0.679229	-0.667122	-0.646118
C26	C	0.647487	-0.597960	-0.579263
C27	C	0.557078	-0.580845	-0.562717
C28	C	0.498402	-0.632884	-0.613024
C29	C	0.769646	-0.684239	-0.662668
C30	C	0.796572	-0.563041	-0.545499
C31	C	0.706162	-0.545921	-0.528956
C32	C	1.135873	-0.908989	-0.680642
C33	C	1.130135	-1.001390	-0.684732
C34	C	1.119661	-1.170572	-0.692219
C35	C	1.179408	-1.214709	-0.650189
C36	C	1.173580	-1.308847	-0.654355
C37	C	1.125488	-1.076425	-0.688054
C38	C	1.375255	-0.735844	-0.712560
C39	C	1.471476	-0.754082	-0.730193
C40	C	1.108068	-0.723097	-0.900972
C41	C	1.090430	-0.735903	-0.998895
C42	C	1.163116	-0.476264	-0.661711
C43	C	1.168937	-0.383885	-0.657674
C44	C	1.275562	-0.601377	-1.306214
C45	C	1.292140	-0.589347	-1.214212
C46	C	1.241714	-0.625985	-1.160378
C47	C	1.174707	-0.674655	-1.198556
C48	C	1.158133	-0.686691	-1.290568
C49	C	1.124284	-0.711299	-1.144732
C50	C	1.057278	-0.759969	-1.182909
C51	C	1.040706	-0.772003	-1.274912
C52	C	1.091132	-0.735365	-1.328746
C53	C	1.140858	-0.699263	-1.052720
C54	C	1.023429	-0.784577	-1.037073
C55	C	1.006852	-0.796607	-1.129075
C56	C	1.190741	-0.663059	-0.442294
C57	C	1.208562	-0.650051	-0.344393
H58	H	0.455438	-0.865605	-0.837998
O59	O	0.740147	-0.804998	-0.779219
C60	C	0.883774	-0.839673	-0.719384
C61	C	0.784307	-0.820819	-0.701218
H62	H	0.919508	-0.852451	-0.656327
H63	H	0.896440	-0.898070	-0.775766
H64	H	0.909018	-0.782390	-0.739497
H65	H	0.758996	-0.878050	-0.681067
H66	H	0.771699	-0.762391	-0.644862
H67	H	0.619465	-0.896671	-0.868025
H68	H	1.077639	-0.745157	-1.403662
O69	O	1.245728	-1.175589	-0.603514
C70	C	1.375182	-1.190676	-0.512304
C71	C	1.300139	-1.235094	-0.565148
H72	H	1.419183	-1.238761	-0.481255
H73	H	1.415663	-1.163854	-0.559274
H74	H	1.346214	-1.136503	-0.457204
H75	H	1.329033	-1.289300	-0.620250
H76	H	1.259669	-1.261856	-0.518120
O77	O	0.526375	-0.513711	-0.497657
C78	C	0.528219	-0.448359	-0.341010
C79	C	0.563059	-0.524425	-0.414612
H80	H	0.557849	-0.457004	-0.273848
H81	H	0.547436	-0.386747	-0.356844
H82	H	0.453518	-0.445041	-0.337848
H83	H	0.637761	-0.527823	-0.417814
H84	H	0.543775	-0.585999	-0.398749
H85	H	1.346698	-0.549722	-1.183136
O86	O	1.257989	-0.614327	-1.071040
C87	C	1.363438	-0.634184	-0.955176
C88	C	1.345119	-0.647430	-1.056377
H89	H	1.433875	-0.660956	-0.943288
H90	H	1.354108	-0.563150	-0.924062
H91	H	1.315860	-0.668696	-0.923252
H92	H	1.392681	-0.612969	-1.088377
H93	H	1.354419	-0.718479	-1.087424
O94	O	1.205837	-0.651902	-1.015521
C95	C	1.243251	-0.528271	-0.908930
C96	C	1.169580	-0.581848	-0.950966
H97	H	1.213963	-0.471610	-0.856743
H98	H	1.293877	-0.569310	-0.875749
H99	H	1.276451	-0.504198	-0.963236
H100	H	1.136311	-0.605931	-0.896714
H101	H	1.119012	-0.540773	-0.984168
H102	H	0.986152	-0.811641	-1.305994
H103	H	1.064138	-1.203483	-0.731327
O104	O	0.410568	-0.616143	-0.597028
C105	C	0.281719	-0.514912	-0.592521
C106	C	0.381188	-0.533757	-0.610678
H107	H	0.257939	-0.448297	-0.603531
H108	H	0.245202	-0.563937	-0.639988
H109	H	0.268390	-0.518534	-0.520531
H110	H	0.394599	-0.530123	-0.682644
H111	H	0.417655	-0.484732	-0.563155
O112	O	1.324436	-0.565826	-1.358630
C113	C	1.350985	-0.546620	-1.507324
C114	C	1.295548	-0.586913	-1.448062
H115	H	1.327662	-0.563669	-1.579644
H116	H	1.343259	-0.474344	-1.483596
H117	H	1.423127	-0.572068	-1.502606
H118	H	1.223386	-0.561533	-1.452752
H119	H	1.303349	-0.659186	-1.471807
H120	H	0.680305	-0.489610	-0.474522
O121	O	0.941710	-0.843882	-1.166016
C122	C	0.827020	-0.927279	-1.140803
C123	C	0.900751	-0.873744	-1.098849
H124	H	0.793896	-0.951452	-1.086521
H125	H	0.776346	-0.886199	-1.173884
H126	H	0.856282	-0.983873	-1.193086
H127	H	0.871568	-0.817145	-1.046531
H128	H	0.951414	-0.914883	-1.065826
O129	O	0.974496	-0.820079	-0.984654
C130	C	0.948023	-0.839388	-0.835982
C131	C	1.003484	-0.799119	-0.895245
H132	H	0.971452	-0.822472	-0.763687
H133	H	0.875873	-0.813915	-0.840573
H134	H	0.955726	-0.911649	-0.859833
H135	H	0.995856	-0.726857	-0.871435
H136	H	1.075613	-0.824660	-0.890650
O137	O	0.853677	-0.512548	-0.496735
C138	C	1.004904	-0.485239	-0.470267
C139	C	0.940322	-0.542470	-0.525570
H140	H	1.074971	-0.509420	-0.493547
H141	H	0.988597	-0.416908	-0.479677
H142	H	0.998952	-0.487051	-0.396582
H143	H	0.946238	-0.540730	-0.599274
H144	H	0.956648	-0.610774	-0.516085
H145	H	0.795481	-0.740551	-0.717102
