data_functionalizedCrystal
_audit_creation_method	'MofGen! by Chris Wilmer'
_symmetry_space_group_name_H-M	'P1'
_symmetry_Int_Tables_number	1
_symmetry_cell_setting	triclinic
loop_
_symmetry_equiv_pos_as_xyz
  x,y,z
_cell_length_a	23.532407
_cell_length_b	10.654562
_cell_length_c	9.730223
_cell_angle_alpha	89.997558
_cell_angle_beta	89.992828
_cell_angle_gamma	83.669390
loop_
_atom_site_label
_atom_site_type_symbol
_atom_site_fract_x
_atom_site_fract_y
_atom_site_fract_z
O1	O	0.080018	1.665288	-0.114396
O2	O	0.087631	1.299571	-0.114380
O3	O	0.000965	1.493458	-0.114363
O4	O	0.166684	1.471401	-0.114413
O5	O	0.000965	1.493458	0.114217
O6	O	0.087631	1.299571	0.114200
O7	O	0.080018	1.665289	0.114184
Zn8	Zn	0.083824	1.482430	0.150484
Zn9	Zn	0.083824	1.482429	-0.150680
O10	O	0.166684	1.471402	0.114167
C11	C	0.087070	1.252791	-0.000088
C12	C	0.085393	1.113401	-0.000081
C13	C	0.084611	1.047896	0.124507
C14	C	0.083040	0.916923	0.124485
C15	C	0.083036	0.916973	-0.124725
C16	C	0.084603	1.047944	-0.124701
C17	C	0.084616	1.047865	0.268387
C18	C	0.083045	0.916893	0.268365
C19	C	-0.020255	1.492896	-0.000070
C20	C	-0.083483	1.491207	-0.000059
C21	C	-0.481905	1.595354	-0.000139
C22	C	-0.541316	1.593785	-0.000149
O23	O	-0.577430	1.690330	-0.000204
N24	N	-0.564696	1.478520	-0.000143
C25	C	-0.528661	1.364815	-0.000141
O26	O	-0.554002	1.266628	-0.000138
C27	C	-0.469252	1.366385	-0.000141
C28	C	-0.445876	1.481658	-0.000133
C29	C	-0.458529	1.710618	-0.000133
C30	C	-0.399122	1.712186	-0.000120
C31	C	-0.363093	1.598490	-0.000113
C32	C	-0.386469	1.483227	-0.000120
C33	C	-0.433218	1.252682	-0.000148
C34	C	-0.373806	1.254262	-0.000149
C35	C	-0.350430	1.369535	-0.000141
C36	C	-0.291033	1.371099	-0.000100
N37	N	-0.267654	1.486365	-0.000106
C38	C	-0.303683	1.600060	-0.000113
C39	C	-0.653425	1.361527	-0.000145
C40	C	-0.712833	1.359955	-0.000135
C41	C	-0.725484	1.588926	-0.000146
C42	C	-0.666075	1.590496	-0.000146
C43	C	-0.630046	1.476792	-0.000151
C44	C	-0.178925	1.603345	-0.000084
C45	C	-0.119513	1.604903	-0.000066
C46	C	-0.106867	1.375933	-0.000062
C47	C	-0.166274	1.374374	-0.000074
C48	C	-0.202302	1.488091	-0.000089
O49	O	-0.254885	1.274605	-0.000051
O50	O	-0.278334	1.698231	-0.000133
C51	C	0.187904	1.471963	-0.000129
C52	C	0.251132	1.473652	-0.000149
C53	C	0.080578	1.712068	-0.000111
C54	C	0.082255	1.851458	-0.000127
N55	N	0.083824	1.482439	0.356020
N56	N	0.083820	1.482430	-0.356216
C57	C	0.118682	1.558156	0.571840
C58	C	0.118685	1.558158	0.427957
C59	C	0.048961	1.406704	0.427974
C60	C	0.048961	1.406696	0.571854
C61	C	0.158935	1.645602	0.571829
C62	C	0.158938	1.645603	0.427946
H63	H	-0.100484	1.698776	-0.000056
Cl64	Cl	0.085573	1.130295	-0.281333
H65	H	0.122401	0.869360	0.323589
Cl66	Cl	0.005141	1.311501	0.337538
H67	H	0.020578	1.345021	0.630425
H68	H	-0.380096	1.806053	-0.000119
H69	H	-0.487859	1.803208	-0.000143
Cl70	Cl	0.228265	1.595655	0.632104
H71	H	0.082392	0.863662	-0.226187
Cl72	Cl	0.131310	1.792499	0.640753
Cl73	Cl	-0.636694	1.735416	-0.000137
H74	H	0.126149	1.076124	0.313018
H75	H	-0.731860	1.266088	-0.000118
Cl76	Cl	0.225118	1.582351	0.359020
H77	H	0.045261	1.095372	0.323652
Cl78	Cl	0.018982	0.873214	0.337608
H79	H	-0.208253	1.695944	-0.000102
Cl80	Cl	-0.770790	1.731859	-0.000164
H81	H	-0.624093	1.268929	-0.000137
H82	H	-0.452240	1.158814	-0.000163
Cl83	Cl	-0.061562	1.233009	-0.000057
Cl84	Cl	-0.328515	1.111310	-0.000156
H85	H	-0.185308	1.280509	-0.000042
H86	H	0.144943	1.745102	0.388902
