data_functionalizedCrystal
_audit_creation_method	'MofGen! by Chris Wilmer'
_symmetry_space_group_name_H-M	'P1'
_symmetry_Int_Tables_number	1
_symmetry_cell_setting	triclinic
loop_
_symmetry_equiv_pos_as_xyz
  x,y,z
_cell_length_a	27.732048
_cell_length_b	27.732048
_cell_length_c	15.186229
_cell_angle_alpha	89.991324
_cell_angle_beta	90.002148
_cell_angle_gamma	82.642655
loop_
_atom_site_label
_atom_site_type_symbol
_atom_site_fract_x
_atom_site_fract_y
_atom_site_fract_z
O1	O	0.640926	0.057516	-0.073124
O2	O	0.974260	0.390850	0.260209
O3	O	1.307593	0.724183	0.593542
O4	O	0.500133	0.066262	-0.073152
O5	O	0.833466	0.399595	0.260181
O6	O	1.166800	0.732929	0.593514
O7	O	0.574902	-0.008508	-0.073121
O8	O	0.908236	0.324826	0.260212
O9	O	1.241569	0.658159	0.593546
O10	O	0.566157	0.132286	-0.073156
O11	O	0.899490	0.465619	0.260177
O12	O	1.232824	0.798953	0.593511
O13	O	0.574897	-0.008509	0.073336
O14	O	0.908231	0.324825	0.406670
O15	O	1.241564	0.658158	0.740003
O16	O	0.500128	0.066261	0.073305
O17	O	0.833461	0.399594	0.406638
O18	O	1.166795	0.732927	0.739971
O19	O	0.640921	0.057515	0.073333
O20	O	0.974255	0.390849	0.406666
O21	O	1.307588	0.724182	0.739999
Zn22	Zn	0.570524	0.061888	0.096572
Zn23	Zn	0.903857	0.395221	0.429905
Zn24	Zn	1.237191	0.728555	0.763239
Zn25	Zn	0.570530	0.061889	-0.096392
Zn26	Zn	0.903864	0.395223	0.236942
Zn27	Zn	1.237197	0.728556	0.570275
O28	O	0.566152	0.132285	0.073301
O29	O	0.899485	0.465618	0.406634
O30	O	1.232819	0.798951	0.739968
C31	C	0.574716	-0.026515	0.000110
C32	C	0.908050	0.306818	0.333444
C33	C	1.241383	0.640152	0.666777
C34	C	0.574164	-0.080170	0.000117
C35	C	0.907497	0.253163	0.333451
C36	C	1.240830	0.586497	0.666784
C37	C	0.482124	0.066078	0.000073
C38	C	0.815457	0.399411	0.333406
C39	C	1.148790	0.732744	0.666739
C40	C	0.428469	0.065525	0.000063
C41	C	0.761802	0.398858	0.333396
C42	C	1.095135	0.732192	0.666730
C43	C	0.614867	-0.418985	0.000080
C44	C	0.948201	-0.085652	0.333414
C45	C	1.281534	0.247682	0.666747
C46	C	0.612816	-0.620645	0.000068
C47	C	0.946150	-0.287311	0.333401
C48	C	1.279483	0.046022	0.666734
O49	O	0.650037	-0.651900	0.000036
O50	O	0.983370	-0.318567	0.333370
O51	O	1.316704	0.014766	0.666703
N52	N	0.568481	-0.639768	0.000060
N53	N	0.901814	-0.306435	0.333393
N54	N	1.235148	0.026898	0.666726
C55	C	0.524656	-0.608474	0.000049
C56	C	0.857989	-0.275140	0.333382
C57	C	1.191322	0.058193	0.666716
O58	O	0.486899	-0.629367	0.000033
O59	O	0.820232	-0.296033	0.333366
O60	O	1.153565	0.037300	0.666699
C61	C	0.526707	-0.406815	0.000055
C62	C	0.860040	-0.073482	0.333389
C63	C	1.193374	0.259852	0.666722
C64	C	0.571045	-0.387694	0.000072
C65	C	0.904378	-0.054361	0.333406
C66	C	1.237712	0.278972	0.666739
C67	C	0.659202	-0.399864	0.000096
C68	C	0.992535	-0.066530	0.333429
C69	C	1.325868	0.266803	0.666763
C70	C	0.659714	-0.349452	0.000104
C71	C	0.993047	-0.016118	0.333437
C72	C	1.326381	0.317215	0.666771
C73	C	0.615892	-0.318161	0.000096
C74	C	0.949225	0.015172	0.333429
C75	C	1.282559	0.348506	0.666763
C76	C	0.571557	-0.337282	0.000080
C77	C	0.904891	-0.003949	0.333414
C78	C	1.238224	0.329384	0.666747
C79	C	0.482882	-0.375521	0.000038
C80	C	0.816215	-0.042188	0.333372
C81	C	1.149549	0.291145	0.666705
C82	C	0.483399	-0.325104	0.000038
C83	C	0.816732	0.008229	0.333371
C84	C	1.150066	0.341563	0.666704
C85	C	0.527737	-0.305983	0.000055
C86	C	0.861070	0.027350	0.333388
C87	C	1.194404	0.360683	0.666721
C88	C	0.528247	-0.255580	0.000080
C89	C	0.861581	0.077754	0.333414
C90	C	1.194914	0.411087	0.666747
N91	N	0.572583	-0.236456	0.000088
N92	N	0.905916	0.096877	0.333422
N93	N	1.239249	0.430211	0.666755
C94	C	0.616405	-0.267747	0.000096
C95	C	0.949738	0.065587	0.333429
C96	C	1.283072	0.398920	0.666763
C97	C	0.523582	-0.714348	0.000047
C98	C	0.856915	-0.381014	0.333381
C99	C	1.190248	-0.047681	0.666714
C100	C	0.523069	-0.764762	0.000047
C101	C	0.856402	-0.431429	0.333381
C102	C	1.189735	-0.098096	0.666714
C103	C	0.611230	-0.776930	0.000064
C104	C	0.944563	-0.443596	0.333398
C105	C	1.277896	-0.110263	0.666731
C106	C	0.611742	-0.726514	0.000071
C107	C	0.945075	-0.393181	0.333404
C108	C	1.278409	-0.059848	0.666737
C109	C	0.567917	-0.695224	0.000055
C110	C	0.901250	-0.361891	0.333389
C111	C	1.234583	-0.028557	0.666722
C112	C	0.617477	-0.161878	0.000114
C113	C	0.950811	0.171456	0.333447
C114	C	1.284144	0.504789	0.666780
C115	C	0.617986	-0.111461	0.000125
C116	C	0.951319	0.221873	0.333459
C117	C	1.284652	0.555206	0.666792
C118	C	0.529825	-0.099298	0.000104
C119	C	0.863158	0.234036	0.333437
C120	C	1.196492	0.567369	0.666770
C121	C	0.529316	-0.149710	0.000097
C122	C	0.862650	0.183623	0.333430
C123	C	1.195983	0.516957	0.666763
C124	C	0.573147	-0.180999	0.000099
C125	C	0.906480	0.152334	0.333432
C126	C	1.239813	0.485667	0.666765
O127	O	0.491047	-0.224296	0.000101
O128	O	0.824380	0.109038	0.333435
O129	O	1.157713	0.442371	0.666768
O130	O	0.654156	-0.246844	0.000093
O131	O	0.987490	0.086489	0.333426
O132	O	1.320823	0.419823	0.666759
C133	C	0.614355	-0.469397	0.000072
C134	C	0.947688	-0.136064	0.333406
C135	C	1.281022	0.197270	0.666739
C136	C	0.570021	-0.488518	0.000056
C137	C	0.903354	-0.155185	0.333390
C138	C	1.236687	0.178148	0.666723
C139	C	0.526198	-0.457228	0.000048
C140	C	0.859532	-0.123894	0.333382
C141	C	1.192865	0.209439	0.666715
C142	C	0.569508	-0.538933	0.000056
C143	C	0.902841	-0.205599	0.333390
C144	C	1.236174	0.127734	0.666723
C145	C	0.613330	-0.570223	0.000064
C146	C	0.946663	-0.236890	0.333398
C147	C	1.279996	0.096443	0.666731
C148	C	0.657665	-0.551100	0.000072
C149	C	0.990998	-0.217766	0.333406
C150	C	1.324332	0.115567	0.666739
C151	C	0.658177	-0.500688	0.000080
C152	C	0.991511	-0.167354	0.333414
C153	C	1.324844	0.165979	0.666747
C154	C	0.481863	-0.476351	0.000040
C155	C	0.815197	-0.143018	0.333374
C156	C	1.148530	0.190315	0.666707
C157	C	0.481355	-0.526764	0.000033
C158	C	0.814688	-0.193430	0.333367
C159	C	1.148021	0.139903	0.666700
C160	C	0.525177	-0.558054	0.000041
C161	C	0.858510	-0.224721	0.333375
C162	C	1.191843	0.108612	0.666708
C163	C	0.089654	0.106229	0.000091
C164	C	0.422987	0.439562	0.333424
C165	C	0.756320	0.772895	0.666758
C166	C	-0.112006	0.104178	0.000099
C167	C	0.221327	0.437511	0.333433
C168	C	0.554661	0.770844	0.666766
O169	O	-0.143262	0.141398	0.000128
O170	O	0.190072	0.474732	0.333461
O171	O	0.523405	0.808065	0.666795
N172	N	-0.131130	0.059843	0.000109
N173	N	0.202204	0.393176	0.333442
N174	N	0.535537	0.726509	0.666775
C175	C	-0.099835	0.016017	0.000122
C176	C	0.233498	0.349350	0.333455
C177	C	0.566832	0.682684	0.666789
O178	O	-0.120728	-0.021740	0.000139
O179	O	0.212605	0.311593	0.333473
O180	O	0.545938	0.644927	0.666806
C181	C	0.101824	0.018068	0.000120
C182	C	0.435157	0.351402	0.333453
C183	C	0.768490	0.684735	0.666787
C184	C	0.120944	0.062407	0.000101
C185	C	0.454278	0.395740	0.333435
C186	C	0.787611	0.729073	0.666768
C187	C	0.108775	0.150563	0.000073
C188	C	0.442108	0.483897	0.333407
C189	C	0.775442	0.817230	0.666740
C190	C	0.159187	0.151075	0.000066
C191	C	0.492520	0.484409	0.333400
C192	C	0.825853	0.817742	0.666733
C193	C	0.190477	0.107253	0.000077
C194	C	0.523811	0.440587	0.333410
C195	C	0.857144	0.773920	0.666744
C196	C	0.171356	0.062919	0.000095
C197	C	0.504690	0.396252	0.333428
C198	C	0.838023	0.729585	0.666761
C199	C	0.133117	-0.025757	0.000139
C200	C	0.466451	0.307577	0.333473
C201	C	0.799784	0.640910	0.666806
C202	C	0.183535	-0.025240	0.000141
C203	C	0.516868	0.308094	0.333474
C204	C	0.850201	0.641427	0.666808
C205	C	0.202655	0.019098	0.000123
C206	C	0.535989	0.352432	0.333456
C207	C	0.869322	0.685765	0.666789
C208	C	0.253059	0.019609	0.000098
C209	C	0.586392	0.352942	0.333432
C210	C	0.919725	0.686276	0.666765
N211	N	0.272183	0.063944	0.000089
N212	N	0.605516	0.397277	0.333422
N213	N	0.938849	0.730611	0.666755
C214	C	0.240892	0.107766	0.000078
C215	C	0.574225	0.441100	0.333411
C216	C	0.907559	0.774433	0.666745
C217	C	-0.205709	0.014943	0.000121
C218	C	0.127624	0.348276	0.333455
C219	C	0.460957	0.681610	0.666788
C220	C	-0.256124	0.014430	0.000120
C221	C	0.077210	0.347763	0.333454
C222	C	0.410543	0.681097	0.666787
C223	C	-0.268291	0.102591	0.000099
C224	C	0.065042	0.435924	0.333432
C225	C	0.398376	0.769258	0.666766
C226	C	-0.217876	0.103104	0.000094
C227	C	0.115458	0.436437	0.333427
C228	C	0.448791	0.769770	0.666761
C229	C	-0.186585	0.059278	0.000112
C230	C	0.146748	0.392612	0.333445
C231	C	0.480081	0.725945	0.666778
C232	C	0.346761	0.108839	0.000063
C233	C	0.680094	0.442172	0.333396
C234	C	1.013428	0.775505	0.666730
C235	C	0.397178	0.109347	0.000052
C236	C	0.730511	0.442681	0.333386
C237	C	1.063845	0.776014	0.666719
C238	C	0.409341	0.021186	0.000078
C239	C	0.742674	0.354520	0.333411
C240	C	1.076008	0.687853	0.666745
C241	C	0.358929	0.020678	0.000084
C242	C	0.692262	0.354011	0.333417
C243	C	1.025595	0.687344	0.666751
C244	C	0.327639	0.064508	0.000079
C245	C	0.660973	0.397841	0.333413
C246	C	0.994306	0.731175	0.666746
O247	O	0.284343	-0.017592	0.000079
O248	O	0.617676	0.315741	0.333413
O249	O	0.951009	0.649075	0.666746
O250	O	0.261794	0.145518	0.000080
O251	O	0.595128	0.478851	0.333414
O252	O	0.928461	0.812184	0.666747
C253	C	0.039242	0.105716	0.000098
C254	C	0.372575	0.439050	0.333431
C255	C	0.705908	0.772383	0.666764
C256	C	0.020120	0.061382	0.000115
C257	C	0.353454	0.394715	0.333449
C258	C	0.686787	0.728049	0.666782
C259	C	0.051411	0.017560	0.000126
C260	C	0.384744	0.350893	0.333459
C261	C	0.718078	0.684226	0.666792
C262	C	-0.030294	0.060869	0.000114
C263	C	0.303039	0.394202	0.333447
C264	C	0.636373	0.727536	0.666781
C265	C	-0.061585	0.104691	0.000104
C266	C	0.271749	0.438025	0.333437
C267	C	0.605082	0.771358	0.666770
C268	C	-0.042461	0.149026	0.000094
C269	C	0.290872	0.482360	0.333427
C270	C	0.624206	0.815693	0.666761
C271	C	0.007951	0.149539	0.000087
C272	C	0.341284	0.482872	0.333420
C273	C	0.674618	0.816205	0.666754
C274	C	0.032287	-0.026775	0.000135
C275	C	0.365621	0.306558	0.333469
C276	C	0.698954	0.639891	0.666802
C277	C	-0.018125	-0.027284	0.000141
C278	C	0.315208	0.306049	0.333475
C279	C	0.648541	0.639383	0.666808
C280	C	-0.049416	0.016538	0.000131
C281	C	0.283917	0.349871	0.333464
C282	C	0.617251	0.683205	0.666797
C283	C	0.658931	0.057699	0.000106
C284	C	0.992264	0.391033	0.333439
C285	C	1.325598	0.724366	0.666772
C286	C	0.712586	0.058252	0.000110
C287	C	1.045919	0.391586	0.333443
C288	C	1.379252	0.724919	0.666776
C289	C	0.566338	0.150292	0.000068
C290	C	0.899671	0.483626	0.333402
C291	C	1.233005	0.816959	0.666735
C292	C	0.566891	0.203947	0.000055
C293	C	0.900224	0.537280	0.333389
C294	C	1.233557	0.870614	0.666722
N295	N	0.570523	0.061887	0.228265
N296	N	0.903856	0.395220	0.561598
N297	N	1.237190	0.728553	0.894931
N298	N	0.570535	0.061887	-0.228084
N299	N	0.903869	0.395220	0.105249
N300	N	1.237202	0.728553	0.438582
C301	C	0.603642	0.028790	0.454002
C302	C	0.936975	0.362123	0.787335
C303	C	1.270309	0.695456	1.120668
C304	C	0.603644	0.028789	0.546191
C305	C	0.936977	0.362122	0.879525
C306	C	1.270310	0.695455	1.212858
C307	C	0.537413	0.094985	0.546172
C308	C	0.870746	0.428318	0.879506
C309	C	1.204079	0.761652	1.212839
C310	C	0.537409	0.094984	0.453984
C311	C	0.870743	0.428317	0.787318
C312	C	1.204076	0.761650	1.120651
C313	C	0.570527	0.061886	0.407901
C314	C	0.903860	0.395220	0.741235
C315	C	1.237193	0.728553	1.074568
C316	C	0.570532	0.061887	0.592279
C317	C	0.903865	0.395220	0.925612
C318	C	1.237198	0.728554	1.258946
C319	C	0.570533	0.061886	0.692235
C320	C	0.903866	0.395219	1.025568
C321	C	1.237200	0.728553	1.358902
C322	C	0.570525	0.061887	0.307939
C323	C	0.903858	0.395220	0.641272
C324	C	1.237191	0.728553	0.974606
H325	H	0.654093	-0.095896	0.000141
H326	H	0.987426	0.237438	0.333475
H327	H	1.320759	0.570771	0.666808
H328	H	0.510440	0.121935	0.416447
H329	H	0.843774	0.455269	0.749780
H330	H	1.177107	0.788602	1.083114
C331	C	0.706953	-0.479662	0.000093
C332	C	1.040286	-0.146329	0.333426
C333	C	1.373620	0.187005	0.666760
N334	N	0.743694	-0.463829	0.000100
N335	N	1.077027	-0.130496	0.333434
N336	N	1.410360	0.202838	0.666767
H337	H	-0.202311	0.139207	0.000084
H338	H	0.131022	0.472541	0.333417
H339	H	0.464355	0.805874	0.666751
C340	C	0.337895	-0.028096	0.000093
C341	C	0.671229	0.305237	0.333426
C342	C	1.004562	0.638571	0.666760
N343	N	0.322056	-0.064833	0.000107
N344	N	0.655390	0.268500	0.333441
N345	N	0.988723	0.601833	0.666774
H346	H	0.653168	-0.187348	0.000112
H347	H	0.986501	0.145985	0.333445
H348	H	1.319835	0.479319	0.666779
H349	H	0.209009	-0.060929	0.000156
H350	H	0.542343	0.272405	0.333490
H351	H	0.875676	0.605738	0.666823
H352	H	0.412743	0.145454	0.000037
H353	H	0.746076	0.478787	0.333370
H354	H	1.079410	0.812121	0.666703
H355	H	-0.293777	0.138273	0.000091
H356	H	0.039557	0.471606	0.333424
H357	H	0.372890	0.804939	0.666757
C358	C	0.312350	0.157054	0.000053
C359	C	0.645683	0.490388	0.333386
C360	C	0.979017	0.823721	0.666719
N361	N	0.286432	0.193370	0.000039
N362	N	0.619765	0.526704	0.333372
N363	N	0.953098	0.860037	0.666706
H364	H	0.434827	-0.014492	0.000083
H365	H	0.768160	0.318841	0.333417
H366	H	1.101494	0.652174	0.666750
H367	H	0.695819	-0.333889	0.000114
H368	H	1.029152	-0.000555	0.333448
H369	H	1.362485	0.332778	0.666781
C370	C	0.066701	-0.074986	0.000143
C371	C	0.400034	0.258347	0.333476
C372	C	0.733368	0.591680	0.666809
N373	N	0.092620	-0.111302	0.000143
N374	N	0.425953	0.222032	0.333476
N375	N	0.759286	0.555365	0.666809
H376	H	-0.271687	-0.021674	0.000122
H377	H	0.061646	0.311659	0.333455
H378	H	0.394980	0.644992	0.666788
H379	H	0.694889	-0.425336	0.000099
H380	H	1.028223	-0.092003	0.333433
H381	H	1.361556	0.241330	0.666766
H382	H	0.494146	-0.073812	0.000100
H383	H	0.827480	0.259522	0.333434
H384	H	1.160813	0.592855	0.666767
H385	H	0.647846	-0.710950	0.000084
H386	H	0.981179	-0.377617	0.333417
H387	H	1.314513	-0.044283	0.666750
C388	C	0.028977	0.198314	0.000077
C389	C	0.362310	0.531648	0.333411
C390	C	0.695643	0.864981	0.666744
N391	N	0.044810	0.235055	0.000074
N392	N	0.378143	0.568388	0.333408
N393	N	0.711476	0.901722	0.666741
C394	C	0.180212	0.199851	0.000065
C395	C	0.513546	0.533185	0.333398
C396	C	0.846879	0.866518	0.666731
N397	N	0.196046	0.236592	0.000071
N398	N	0.529379	0.569925	0.333404
N399	N	0.862712	0.903258	0.666737
H400	H	0.630609	0.001838	0.583724
H401	H	0.963942	0.335171	0.917057
H402	H	1.297275	0.668504	1.250390
C403	C	0.500985	0.131389	0.596872
C404	C	0.834318	0.464723	0.930206
C405	C	1.167651	0.798056	1.263539
N406	N	0.473546	0.158809	0.635058
N407	N	0.806879	0.492143	0.968392
N408	N	1.140213	0.825476	1.301725
C409	C	-0.076890	0.197231	0.000086
C410	C	0.256443	0.530564	0.333419
C411	C	0.589776	0.863898	0.666752
N412	N	-0.102825	0.233536	0.000086
N413	N	0.230508	0.566870	0.333419
N414	N	0.563842	0.900203	0.666752
C415	C	0.474293	-0.785789	0.000040
C416	C	0.807627	-0.452456	0.333373
C417	C	1.140960	-0.119122	0.666706
N418	N	0.437554	-0.801624	0.000028
N419	N	0.770887	-0.468291	0.333362
N420	N	1.104221	-0.134958	0.666695
H421	H	0.646911	-0.802415	0.000071
H422	H	0.980245	-0.469082	0.333404
H423	H	1.313578	-0.135749	0.666738
H424	H	0.630608	0.001839	0.416483
H425	H	0.963941	0.335173	0.749816
H426	H	1.297274	0.668506	1.083150
H427	H	0.083302	0.186251	0.000068
H428	H	0.416636	0.519584	0.333401
H429	H	0.749969	0.852917	0.666735
H430	H	-0.180236	-0.020747	0.000136
H431	H	0.153097	0.312586	0.333469
H432	H	0.486430	0.645920	0.666803
C433	C	0.705870	-0.585529	0.000079
C434	C	1.039203	-0.252196	0.333413
C435	C	1.372536	0.081138	0.666746
N436	N	0.742175	-0.611464	0.000079
N437	N	1.075508	-0.278130	0.333413
N438	N	1.408842	0.055203	0.666746
H439	H	0.446777	-0.391080	0.000019
H440	H	0.780111	-0.057747	0.333353
H441	H	1.113444	0.275586	0.666686
C442	C	0.475367	-0.679934	0.000031
C443	C	0.808700	-0.346601	0.333365
C444	C	1.142034	-0.013267	0.666698
N445	N	0.439051	-0.654016	0.000022
N446	N	0.772384	-0.320682	0.333355
N447	N	1.105718	0.012651	0.666688
C448	C	0.480543	-0.170743	0.000084
C449	C	0.813876	0.162590	0.333417
C450	C	1.147209	0.495923	0.666751
N451	N	0.443805	-0.186582	0.000065
N452	N	0.777139	0.146751	0.333398
N453	N	1.110472	0.480084	0.666731
C454	C	0.435186	-0.290687	0.000024
C455	C	0.768519	0.042646	0.333357
C456	C	1.101853	0.375979	0.666691
N457	N	0.398872	-0.264766	0.000017
N458	N	0.732206	0.068568	0.333350
N459	N	1.065539	0.401901	0.666684
H460	H	0.445246	-0.542327	0.000027
H461	H	0.778580	-0.208993	0.333361
H462	H	1.111913	0.124340	0.666694
H463	H	0.446177	-0.450879	0.000032
H464	H	0.779510	-0.117545	0.333365
H465	H	1.112844	0.215788	0.666699
C466	C	-0.039151	-0.076063	0.000167
C467	C	0.294182	0.257270	0.333500
C468	C	0.627515	0.590604	0.666833
N469	N	-0.054987	-0.112802	0.000196
N470	N	0.278347	0.220531	0.333530
N471	N	0.611680	0.553864	0.666863
H472	H	0.117558	-0.061861	0.000155
H473	H	0.450892	0.271472	0.333489
H474	H	0.784225	0.604805	0.666822
