data_functionalizedCrystal
_audit_creation_method	'MofGen! by Chris Wilmer'
_symmetry_space_group_name_H-M	'P1'
_symmetry_Int_Tables_number	1
_symmetry_cell_setting	triclinic
loop_
_symmetry_equiv_pos_as_xyz
  x,y,z
_cell_length_a	18.050591
_cell_length_b	19.805405
_cell_length_c	19.805380
_cell_angle_alpha	90.106198
_cell_angle_beta	89.924412
_cell_angle_gamma	89.976267
loop_
_atom_site_label
_atom_site_type_symbol
_atom_site_fract_x
_atom_site_fract_y
_atom_site_fract_z
Zn1	Zn	1.135696	0.269025	-0.382813
Zn2	Zn	1.135489	0.382369	-0.269624
Zn3	Zn	1.011397	0.269191	-0.269627
Zn4	Zn	1.011464	0.382169	-0.382761
O5	O	1.073512	0.325689	-0.326206
O6	O	1.239593	0.284074	-0.367818
O7	O	1.118913	0.367509	-0.174908
O8	O	1.027944	0.174453	-0.284664
O9	O	1.239441	0.367347	-0.284659
O10	O	1.119266	0.174330	-0.367821
O11	O	1.027743	0.284358	-0.174910
O12	O	0.907481	0.284164	-0.284614
O13	O	1.028059	0.367008	-0.477485
O14	O	0.907531	0.367169	-0.367734
O15	O	1.119331	0.283881	-0.477523
O16	O	1.118979	0.477059	-0.284610
O17	O	1.027858	0.476913	-0.367731
C18	C	1.073424	0.501545	-0.326179
C19	C	1.073454	0.576777	-0.326190
C20	C	0.880559	0.325663	-0.326169
C21	C	0.798014	0.325669	-0.326169
C22	C	1.120946	0.612175	-0.282955
C23	C	1.120975	0.682863	-0.282973
C24	C	1.073509	0.718152	-0.326222
C25	C	1.026015	0.682749	-0.369461
C26	C	1.025990	0.612062	-0.369447
C27	C	1.026118	0.967823	-0.369521
C28	C	1.026145	1.038515	-0.369530
C29	C	1.121103	1.038623	-0.283046
C30	C	1.121078	0.967936	-0.283032
C31	C	1.073587	0.932539	-0.326274
C32	C	1.073556	0.855891	-0.326255
C33	C	1.073536	0.794799	-0.326237
C34	C	0.598515	0.280478	-0.281073
C35	C	0.549078	0.342237	-0.264415
C36	C	0.646883	0.325689	-0.326200
C37	C	0.549238	0.263953	-0.342856
C38	C	0.500898	0.325704	-0.326228
C39	C	0.598534	0.387480	-0.309510
C40	C	0.598698	0.309154	-0.387979
C41	C	0.549284	0.370955	-0.371345
C42	C	0.730982	0.325680	-0.326182
C43	C	0.416802	0.325720	-0.326246
C44	C	1.267217	0.325714	-0.326244
C45	C	1.349763	0.325725	-0.326261
C46	C	1.073726	0.325403	-0.502750
C47	C	1.073817	0.325282	-0.577982
C48	C	1.073614	1.149146	-0.326256
C49	C	1.073641	1.073914	-0.326298
C50	C	1.073341	0.325924	-0.150350
C51	C	1.073394	0.325855	-0.075118
C52	C	1.025977	0.282345	0.386639
C53	C	1.025914	0.282428	0.315951
C54	C	1.073695	0.325446	0.280643
C55	C	1.121536	0.368388	0.316027
C56	C	1.121595	0.368307	0.386714
C57	C	1.121299	0.368713	0.030954
C58	C	1.121237	0.368789	-0.039738
C59	C	1.025618	0.282834	-0.039809
C60	C	1.025677	0.282754	0.030878
C61	C	1.073515	0.325698	0.066256
C62	C	1.073582	0.325608	0.142904
C63	C	1.073632	0.325533	0.203996
H64	H	1.159595	0.583447	-0.247734
C65	C	0.627725	0.228885	-0.229463
N66	N	0.649728	0.190028	-0.190588
C67	C	0.628171	0.290218	-0.458521
N68	N	0.650373	0.275946	-0.511652
H69	H	0.987371	0.711487	-0.404678
H70	H	1.159647	0.711681	-0.247766
H71	H	1.159727	0.939206	-0.247812
C72	C	0.973914	0.928895	-0.417122
N73	N	0.934606	0.899573	-0.452991
H74	H	0.527803	0.409239	-0.409519
H75	H	0.987318	0.583242	-0.404654
C76	C	0.973295	0.235187	0.277037
N77	N	0.933661	0.199600	0.247728
C78	C	0.519631	0.361142	-0.193852
N79	N	0.497452	0.375377	-0.140702
H80	H	0.620098	0.439712	-0.295376
H81	H	1.160436	0.403417	0.287273
H82	H	0.527545	0.211743	-0.356908
H83	H	1.159775	1.067452	-0.247839
H84	H	1.160556	0.403266	0.415518
C85	C	0.973414	0.235021	0.425471
N86	N	0.933819	0.199378	0.454718
H87	H	0.987493	1.067245	-0.404754
H88	H	0.986772	0.247722	0.059622
C89	C	1.173963	0.415916	0.069860
N90	N	1.213647	0.451458	0.099167
H91	H	0.986663	0.247869	-0.068622
H92	H	1.160148	0.403822	-0.068484
