data_functionalizedCrystal
_audit_creation_method	'MofGen! by Chris Wilmer'
_symmetry_space_group_name_H-M	'P1'
_symmetry_Int_Tables_number	1
_symmetry_cell_setting	triclinic
loop_
_symmetry_equiv_pos_as_xyz
  x,y,z
_cell_length_a	12.594517
_cell_length_b	12.594516
_cell_length_c	12.594509
_cell_angle_alpha	90.026199
_cell_angle_beta	90.021327
_cell_angle_gamma	90.015853
loop_
_atom_site_label
_atom_site_type_symbol
_atom_site_fract_x
_atom_site_fract_y
_atom_site_fract_z
Zn1	Zn	1.627267	-0.423716	0.601875
Zn2	Zn	2.127267	0.076284	1.101875
Zn3	Zn	1.627158	-0.601726	0.423903
Zn4	Zn	2.127158	-0.101726	0.923903
Zn5	Zn	1.449271	-0.423761	0.423904
Zn6	Zn	1.949271	0.076239	0.923904
Zn7	Zn	1.449253	-0.601652	0.601833
Zn8	Zn	1.949253	-0.101652	1.101833
O9	O	1.538237	-0.512714	0.512879
O10	O	2.038237	-0.012714	1.012879
O11	O	1.776198	-0.447341	0.578284
O12	O	2.276198	0.052659	1.078284
O13	O	1.603522	-0.578169	0.274957
O14	O	2.103522	-0.078169	0.774957
O15	O	1.472936	-0.274809	0.447530
O16	O	1.972936	0.225191	0.947530
O17	O	1.776118	-0.578124	0.447528
O18	O	2.276118	-0.078124	0.947528
O19	O	1.603709	-0.274776	0.578285
O20	O	2.103709	0.225224	1.078285
O21	O	1.472830	-0.447419	0.274958
O22	O	1.972830	0.052581	0.774958
O23	O	1.300323	-0.447347	0.447489
O24	O	1.800323	0.052653	0.947489
O25	O	1.472905	-0.577998	0.750784
O26	O	1.972905	-0.077998	1.250784
O27	O	1.300310	-0.578042	0.578213
O28	O	1.800310	-0.078042	1.078213
O29	O	1.603691	-0.447269	0.750815
O30	O	2.103691	0.052731	1.250815
O31	O	1.603505	-0.750662	0.447488
O32	O	2.103505	-0.250662	0.947488
O33	O	1.472799	-0.750608	0.578212
O34	O	1.972799	-0.250608	1.078212
C35	C	1.261696	-0.512692	0.512847
C36	C	1.761696	-0.012692	1.012847
C37	C	1.143391	-0.512709	0.512859
C38	C	1.643391	-0.012709	1.012859
C39	C	1.074114	-0.441526	0.441894
C40	C	1.574114	0.058474	0.941894
C41	C	1.003303	-0.538615	0.415718
C42	C	1.503303	-0.038615	0.915718
C43	C	1.003403	-0.415668	0.539054
C44	C	1.503403	0.084332	1.039054
C45	C	1.074138	-0.609849	0.486632
C46	C	1.574138	-0.109849	0.986632
C47	C	1.074244	-0.486836	0.610013
C48	C	1.574244	0.013164	1.110013
C49	C	1.003465	-0.583991	0.583874
C50	C	1.503465	-0.083991	1.083874
C51	C	1.538167	-0.789255	0.512868
C52	C	2.038167	-0.289255	1.012868
C53	C	1.538235	-0.907560	0.512899
C54	C	2.038235	-0.407560	1.012899
C55	C	1.467137	-0.976822	0.583950
C56	C	1.967137	-0.476822	1.083950
C57	C	1.441204	-1.047688	0.486827
C58	C	1.941204	-0.547688	0.986827
C59	C	1.564265	-1.047494	0.610039
C60	C	2.064265	-0.547494	1.110039
C61	C	1.512250	-0.976867	0.415725
C62	C	2.012250	-0.476867	0.915725
C63	C	1.635357	-0.976667	0.539002
C64	C	2.135357	-0.476667	1.039002
C65	C	1.609460	-1.047500	0.441812
C66	C	2.109460	-0.547500	0.941812
C67	C	1.815858	-0.512736	0.512911
C68	C	2.315858	-0.012736	1.012911
C69	C	1.934163	-0.512745	0.512924
C70	C	2.434163	-0.012745	1.012924
C71	C	1.538308	-0.512620	0.790500
C72	C	2.038308	-0.012620	1.290500
C73	C	1.538339	-0.512581	0.908805
C74	C	2.038339	-0.012581	1.408805
C75	C	1.538336	-0.235093	0.512912
C76	C	2.038336	0.264907	1.012912
C77	C	1.538378	-0.116787	0.512927
C78	C	2.038378	0.383213	1.012927
C79	C	1.538227	-0.512730	0.236338
C80	C	2.038227	-0.012730	0.736338
C81	C	1.538403	-0.512470	0.118033
C82	C	2.038403	-0.012470	0.618033
C83	C	1.467227	-0.583644	0.978042
C84	C	1.967227	-0.083644	1.478042
C85	C	1.564347	-0.609650	1.048833
C86	C	2.064347	-0.109650	1.548833
C87	C	1.441294	-0.486510	1.048813
C88	C	1.941294	0.013490	1.548813
C89	C	1.635510	-0.538638	0.978038
C90	C	2.135510	-0.038638	1.478038
C91	C	1.512391	-0.415453	0.978012
C92	C	2.012391	0.084547	1.478012
C93	C	1.609579	-0.441422	1.048772
C94	C	2.109579	0.058578	1.548772
H95	H	1.105135	-0.381389	0.381807
H96	H	1.605135	0.118611	0.881807
F97	F	1.333989	-0.457747	1.089450
F98	F	1.833989	0.042253	1.589450
H99	H	1.490382	-0.333385	0.946881
H100	H	1.990382	0.166615	1.446881
F101	F	1.115003	-0.458166	0.717338
F102	F	1.615003	0.041834	1.217338
H103	H	0.972639	-0.644273	0.643914
H104	H	1.472639	-0.144273	1.143914
F105	F	1.688131	-1.087809	0.363204
F106	F	2.188131	-0.587809	0.863204
H107	H	0.972144	-0.560522	0.333584
H108	H	1.472144	-0.060522	0.833584
F109	F	1.483427	-0.936489	0.308332
F110	F	1.983427	-0.436489	0.808332
F111	F	1.114576	-0.717167	0.457584
F112	F	1.614576	-0.217167	0.957584
F113	F	0.962783	-0.308383	0.567976
F114	F	1.462783	0.191617	1.067976
H115	H	1.717406	-0.945451	0.561104
H116	H	2.217406	-0.445451	1.061104
H117	H	1.407136	-0.643833	0.946986
H118	H	1.907136	-0.143833	1.446986
F119	F	1.592966	-1.088049	0.717399
F120	F	2.092966	-0.588049	1.217399
F121	F	1.593080	-0.716948	1.089495
F122	F	2.093080	-0.216948	1.589495
H123	H	1.406905	-0.945788	0.643949
H124	H	1.906905	-0.445788	1.143949
H125	H	1.669813	-0.381279	1.079632
H126	H	2.169813	0.118721	1.579632
F127	F	1.333930	-1.088460	0.457974
F128	F	1.833930	-0.588460	0.957974
H129	H	1.717631	-0.560736	0.947080
H130	H	2.217631	-0.060736	1.447080
