data_functionalizedCrystal
_audit_creation_method	'MofGen! by Chris Wilmer'
_symmetry_space_group_name_H-M	'P1'
_symmetry_Int_Tables_number	1
_symmetry_cell_setting	triclinic
loop_
_symmetry_equiv_pos_as_xyz
  x,y,z
_cell_length_a	8.559649
_cell_length_b	11.026607
_cell_length_c	7.681481
_cell_angle_alpha	82.996689
_cell_angle_beta	94.913240
_cell_angle_gamma	89.182341
loop_
_atom_site_label
_atom_site_type_symbol
_atom_site_fract_x
_atom_site_fract_y
_atom_site_fract_z
O1	O	2.097103	-0.027535	-0.146401
O2	O	1.649454	0.033500	-0.146409
O3	O	1.836178	-0.170213	-0.146399
O4	O	1.910379	0.176178	-0.146411
O5	O	1.859146	-0.195338	0.146460
O6	O	1.672422	0.008376	0.146450
O7	O	2.120071	-0.052659	0.146458
Zn8	Zn	1.899893	-0.026131	0.192952
Zn9	Zn	1.869632	0.006971	-0.192903
O10	O	1.933347	0.151054	0.146448
C11	C	1.602739	0.025563	0.000020
C12	C	1.429318	0.039332	0.000016
C13	C	1.833973	-0.226711	0.000028
C14	C	1.793166	-0.357621	0.000021
C15	C	1.905841	-0.441927	0.000020
C16	C	1.863667	-0.577231	0.000013
C17	C	2.166786	-0.044722	0.000026
C18	C	2.340205	-0.058490	0.000017
C19	C	1.935551	0.207552	0.000017
C20	C	1.976358	0.338463	0.000013
N21	N	1.920557	-0.048724	0.456287
N22	N	1.848978	0.029554	-0.456238
H23	H	1.396583	-0.152771	0.000012
H24	H	2.033528	-0.413937	0.000034
H25	H	1.665478	-0.385611	0.000007
C26	C	2.234745	-0.682886	0.150565
C27	C	2.148748	-0.623776	0.000019
H28	H	2.341170	-0.659577	0.150559
H29	H	2.192405	-0.660316	0.252670
H30	H	2.229002	-0.768855	0.150544
H31	H	2.154481	-0.537806	0.000046
H32	H	2.191100	-0.646338	-0.102113
C33	C	2.174295	-0.148245	0.513339
C34	C	2.019215	-0.156592	0.557801
H35	H	2.235198	-0.214835	0.576019
H36	H	2.176514	-0.150704	0.390403
H37	H	2.216352	-0.073541	0.543472
H38	H	1.977154	-0.231293	0.527657
H39	H	2.016988	-0.154145	0.680765
C40	C	1.649139	-0.671168	-0.150545
C41	C	1.691280	-0.614999	0.000005
H42	H	1.542719	-0.694492	-0.150542
H43	H	1.661728	-0.615529	-0.252648
H44	H	1.714377	-0.741590	-0.150529
H45	H	1.626049	-0.544572	-0.000018
H46	H	1.678677	-0.670642	0.102134
C47	C	1.248456	0.193565	-0.150543
C48	C	1.353213	0.166622	0.000007
H49	H	1.201466	0.272144	-0.150540
H50	H	1.303518	0.192796	-0.252646
H51	H	1.169322	0.134033	-0.150526
H52	H	1.432354	0.226148	-0.000017
H53	H	1.298148	0.167401	0.102136
C54	C	1.812364	0.247518	0.486675
C55	C	1.750327	0.137417	0.442253
H56	H	1.751464	0.314107	0.423990
H57	H	1.810118	0.249968	0.609609
H58	H	1.917577	0.253153	0.456521
H59	H	1.645116	0.131777	0.472419
H60	H	1.752556	0.134966	0.319291
