data_functionalizedCrystal
_audit_creation_method	'MofGen! by Chris Wilmer'
_symmetry_space_group_name_H-M	'P1'
_symmetry_Int_Tables_number	1
_symmetry_cell_setting	triclinic
loop_
_symmetry_equiv_pos_as_xyz
  x,y,z
_cell_length_a	13.897449
_cell_length_b	13.897447
_cell_length_c	21.395355
_cell_angle_alpha	90.014356
_cell_angle_beta	90.023390
_cell_angle_gamma	90.020810
loop_
_atom_site_label
_atom_site_type_symbol
_atom_site_fract_x
_atom_site_fract_y
_atom_site_fract_z
Zn1	Zn	1.474716	-0.384094	0.354260
Zn2	Zn	1.974716	0.115906	0.854260
Zn3	Zn	1.474597	-0.545373	0.249490
Zn4	Zn	1.974597	-0.045373	0.749490
Zn5	Zn	1.313397	-0.384097	0.249499
Zn6	Zn	1.813397	0.115903	0.749499
Zn7	Zn	1.313381	-0.545352	0.354233
Zn8	Zn	1.813381	-0.045352	0.854233
O9	O	1.394023	-0.464729	0.301870
O10	O	1.894023	0.035271	0.801870
O11	O	1.609681	-0.405495	0.340370
O12	O	2.109681	0.094505	0.840370
O13	O	1.453170	-0.523990	0.161813
O14	O	1.953170	-0.023990	0.661813
O15	O	1.334853	-0.249115	0.263411
O16	O	1.834853	0.250885	0.763411
O17	O	1.609594	-0.523986	0.263396
O18	O	2.109594	-0.023986	0.763396
O19	O	1.453373	-0.249113	0.340378
O20	O	1.953373	0.250887	0.840378
O21	O	1.334738	-0.405502	0.161820
O22	O	1.834738	0.094498	0.661820
O23	O	1.178413	-0.405481	0.263384
O24	O	1.678413	0.094519	0.763384
O25	O	1.334826	-0.523950	0.441914
O26	O	1.834826	-0.023950	0.941914
O27	O	1.178402	-0.523954	0.340332
O28	O	1.678402	-0.023954	0.840332
O29	O	1.453357	-0.405474	0.441934
O30	O	1.953357	0.094526	0.941934
O31	O	1.453155	-0.680352	0.263369
O32	O	1.953155	-0.180352	0.763369
O33	O	1.334710	-0.680336	0.340323
O34	O	1.834710	-0.180336	0.840323
C35	C	1.143408	-0.464716	0.301856
C36	C	1.643408	0.035284	0.801856
C37	C	1.036194	-0.464734	0.301865
C38	C	1.536194	0.035266	0.801865
C39	C	1.393944	-0.715343	0.301856
C40	C	1.893944	-0.215343	0.801856
C41	C	1.393999	-0.822557	0.301871
C42	C	1.893999	-0.322557	0.801871
C43	C	0.839899	-0.464737	0.301881
C44	C	1.339899	0.035263	0.801881
C45	C	0.949132	-0.464733	0.301870
C46	C	1.449132	0.035267	0.801870
C47	C	1.394046	-0.909627	0.301885
C48	C	1.894046	-0.409627	0.801885
C49	C	1.394113	-1.018860	0.301901
C50	C	1.894113	-0.518860	0.801901
C51	C	1.645616	-0.464743	0.301885
C52	C	2.145616	0.035257	0.801885
C53	C	1.752830	-0.464749	0.301891
C54	C	2.252830	0.035251	0.801891
C55	C	1.394103	-0.464710	0.465294
C56	C	1.894103	0.035290	0.965294
C57	C	1.394137	-0.464701	0.534935
C58	C	1.894137	0.035299	1.034935
C59	C	1.394128	-0.213136	0.301899
C60	C	1.894128	0.286864	0.801899
C61	C	1.394172	-0.105922	0.301911
C62	C	1.894172	0.394078	0.801911
C63	C	1.393998	-0.464679	0.139083
C64	C	1.893998	0.035321	0.639083
C65	C	1.394151	-0.464416	0.069442
C66	C	1.894151	0.035584	0.569442
C67	C	1.455854	-0.403008	0.567660
C68	C	1.955854	0.096992	1.067660
C69	C	1.455852	-0.402967	0.633095
C70	C	1.955852	0.097033	1.133095
C71	C	1.394144	-0.464636	0.665803
C72	C	1.894144	0.035364	1.165803
C73	C	1.332416	-0.526333	0.633071
C74	C	1.832416	-0.026333	1.133071
C75	C	1.332412	-0.526366	0.567637
C76	C	1.832412	-0.026366	1.067637
C77	C	1.386501	-0.551488	0.769473
C78	C	1.886501	-0.051488	1.269473
C79	C	1.386511	-0.551457	0.834906
C80	C	1.886511	-0.051457	1.334906
C81	C	1.394150	-0.464534	0.867624
C82	C	1.894150	0.035466	1.367624
C83	C	1.401799	-0.377639	0.834901
C84	C	1.901799	0.122361	1.334901
C85	C	1.401795	-0.377672	0.769467
C86	C	1.901795	0.122328	1.269467
C87	C	1.394141	-0.464606	0.736756
C88	C	1.894141	0.035394	1.236756
C89	C	1.455869	-0.402790	0.971302
C90	C	1.955869	0.097210	1.471302
C91	C	1.455861	-0.402747	1.036738
C92	C	1.955861	0.097253	1.536738
C93	C	1.332429	-0.526122	1.036713
C94	C	1.832429	-0.026122	1.536713
C95	C	1.332432	-0.526156	0.971277
C96	C	1.832432	-0.026156	1.471277
C97	C	1.394157	-0.464492	0.938576
C98	C	1.894157	0.035508	1.438576
H99	H	1.506114	-0.352795	0.541038
H100	H	2.006114	0.147205	1.041038
H101	H	1.282182	-0.576399	0.944633
H102	H	1.782182	-0.076399	1.444633
Br103	Br	1.539593	-0.319211	0.677517
Br104	Br	2.039593	0.180789	1.177517
Br105	Br	1.248662	-0.610020	0.677459
Br106	Br	1.748662	-0.110020	1.177459
H107	H	1.282176	-0.576324	1.063343
H108	H	1.782176	-0.076324	1.563343
H109	H	1.506117	-0.352504	1.063382
H110	H	2.006117	0.147496	1.563382
Br111	Br	1.412170	-0.259750	0.725059
Br112	Br	1.912170	0.240250	1.225059
H113	H	1.380289	-0.622212	0.861544
H114	H	1.880289	-0.122212	1.361544
Br115	Br	1.248645	-0.610097	0.523221
Br116	Br	1.748645	-0.110097	1.023221
Br117	Br	1.412175	-0.259663	0.879296
Br118	Br	1.912175	0.240337	1.379296
Br119	Br	1.539633	-0.319102	0.926917
Br120	Br	2.039633	0.180898	1.426917
H121	H	1.380022	-0.622253	0.742840
H122	H	1.880022	-0.122253	1.242840
