data_functionalizedCrystal
_audit_creation_method	'MofGen! by Chris Wilmer'
_symmetry_space_group_name_H-M	'P1'
_symmetry_Int_Tables_number	1
_symmetry_cell_setting	triclinic
loop_
_symmetry_equiv_pos_as_xyz
  x,y,z
_cell_length_a	6.817900
_cell_length_b	11.168129
_cell_length_c	11.168144
_cell_angle_alpha	92.020086
_cell_angle_beta	108.508840
_cell_angle_gamma	108.508637
loop_
_atom_site_label
_atom_site_type_symbol
_atom_site_fract_x
_atom_site_fract_y
_atom_site_fract_z
V1	V	-4.109884	-0.174723	-0.393710
O2	O	-4.069468	0.008378	-0.386204
O3	O	-4.086173	-0.346428	-0.391028
O4	O	-4.086175	-0.172043	-0.565416
O5	O	-4.069465	-0.167214	-0.210610
V6	V	-4.587114	-0.152821	-0.371808
O7	O	-4.384948	-0.222766	-0.441753
O8	O	-4.762247	-0.104777	-0.323765
O9	O	-4.387618	0.018885	-0.374490
O10	O	-4.744927	-0.335921	-0.379314
O11	O	-4.744929	-0.160329	-0.554909
O12	O	-4.387616	-0.155500	-0.200103
C13	C	-3.936381	-0.388286	-0.384820
C14	C	-3.998445	-0.528657	-0.383772
C15	C	-4.147071	-0.753453	-0.492112
C16	C	-4.082926	-0.608373	-0.493198
C17	C	-3.936382	-0.165839	-0.607267
C18	C	-3.998444	-0.164784	-0.747637
C19	C	-4.082929	-0.274207	-0.827365
C20	C	-4.147075	-0.273120	-0.972445
C21	C	-4.200753	0.060736	-0.380695
C22	C	-4.117928	0.201106	-0.381751
C23	C	-4.200751	-0.161709	-0.158245
C24	C	-4.117926	-0.162757	-0.017873
H25	H	-4.107782	-0.368694	-0.788216
H26	H	-4.045498	-0.730391	-0.288072
C27	C	-3.993247	-0.592192	-0.684639
C28	C	-4.116471	-0.555539	-0.620757
H29	H	-4.013951	-0.559565	-0.763386
H30	H	-4.040769	-0.682746	-0.700644
H31	H	-3.841445	-0.559100	-0.633214
H32	H	-4.268276	-0.588639	-0.672178
H33	H	-4.068961	-0.464966	-0.604755
H34	H	-4.219523	-0.821958	-0.585792
C35	C	-3.874498	-0.480018	-0.155235
C36	C	-3.964884	-0.581477	-0.256205
H37	H	-3.853772	-0.512636	-0.076483
H38	H	-3.971897	-0.433429	-0.164395
H39	H	-3.736504	-0.425192	-0.156342
H40	H	-4.102887	-0.636297	-0.255104
H41	H	-3.867482	-0.628087	-0.247043
C42	C	-4.168339	-0.035641	-0.881300
C43	C	-3.964904	-0.037225	-0.800478
H44	H	-4.147623	0.043109	-0.913924
H45	H	-4.265704	-0.044789	-0.834690
H46	H	-4.229636	-0.104158	-0.950112
H47	H	-3.903614	0.031287	-0.731660
H48	H	-3.867504	-0.028063	-0.847089
C49	C	-4.289491	-0.374035	-1.190730
C50	C	-4.244869	-0.399592	-1.064906
H51	H	-4.349881	-0.452119	-1.247812
H52	H	-4.156753	-0.322313	-1.200749
H53	H	-4.392136	-0.330359	-1.208968
H54	H	-4.142212	-0.443261	-1.046665
H55	H	-4.377626	-0.451336	-1.054882
H56	H	-4.045474	-0.069072	-0.949382
