data_functionalizedCrystal
_audit_creation_method	'MofGen! by Chris Wilmer'
_symmetry_space_group_name_H-M	'P1'
_symmetry_Int_Tables_number	1
_symmetry_cell_setting	triclinic
loop_
_symmetry_equiv_pos_as_xyz
  x,y,z
_cell_length_a	10.685661
_cell_length_b	12.827892
_cell_length_c	10.686551
_cell_angle_alpha	94.405267
_cell_angle_beta	99.072622
_cell_angle_gamma	85.636845
loop_
_atom_site_label
_atom_site_type_symbol
_atom_site_fract_x
_atom_site_fract_y
_atom_site_fract_z
Zn1	Zn	1.995715	-0.487769	0.866181
Zn2	Zn	1.979291	-0.674997	0.653924
Zn3	Zn	1.767150	-0.487817	0.637706
Zn4	Zn	1.783422	-0.650011	0.849885
O5	O	1.881394	-0.575148	0.751924
O6	O	2.171163	-0.523042	0.851631
O7	O	1.937467	-0.660643	0.474144
O8	O	1.797533	-0.341577	0.668046
O9	O	2.159097	-0.660597	0.695687
O10	O	1.965458	-0.341542	0.835905
O11	O	1.781607	-0.523123	0.462229
O12	O	1.591681	-0.498896	0.652245
O13	O	1.825266	-0.618013	1.029675
O14	O	1.603636	-0.618059	0.808133
O15	O	1.981237	-0.498815	1.041647
O16	O	1.953245	-0.817916	0.679886
O17	O	1.809341	-0.799560	0.823858
C18	C	1.551602	-0.555772	0.726661
C19	C	1.410517	-0.547506	0.715884
C20	C	1.881313	-0.846655	0.751894
C21	C	1.881398	-0.962811	0.751933
C22	C	1.964464	-1.014489	0.835062
C23	C	1.964553	-1.134542	0.835104
C24	C	2.212475	-0.594601	0.777286
C25	C	2.353561	-0.602891	0.788093
C26	C	1.906899	-0.555621	1.083006
C27	C	1.917767	-0.547300	1.224094
C28	C	1.881512	-0.302582	0.751984
C29	C	1.881563	-0.186430	0.752010
C30	C	1.856062	-0.594528	0.422135
C31	C	1.845440	-0.602570	0.281067
H32	H	1.351339	-0.493759	0.645816
H33	H	1.775206	-0.656257	1.221908
O34	O	2.001390	-0.483122	1.294708
C35	C	1.934994	-0.406928	1.365896
H36	H	1.831974	-0.396937	1.318214
H37	H	1.981057	-0.329107	1.371057
H38	H	1.938261	-0.433125	1.465977
O39	O	1.424287	-0.666862	0.871763
C40	C	1.507293	-0.607063	0.959683
H41	H	1.523589	-0.531585	0.916569
H42	H	1.601868	-0.654051	0.983652
H43	H	1.463545	-0.587201	1.049921
O44	O	2.049180	-0.961093	0.919812
C45	C	2.030216	-0.853111	0.900917
H46	H	1.981146	-0.841714	0.799723
H47	H	2.125876	-0.816551	0.916823
H48	H	1.968295	-0.813750	0.970925
H49	H	2.035673	-1.178985	0.906269
H50	H	1.810447	-1.141997	0.680831
O51	O	1.796458	-1.015984	0.667181
C52	C	1.672004	-0.980392	0.685064
H53	H	1.673266	-0.943928	0.785920
H54	H	1.608592	-1.049235	0.669386
H55	H	1.633515	-0.919234	0.614348
