data_functionalizedCrystal
_audit_creation_method	'MofGen! by Chris Wilmer'
_symmetry_space_group_name_H-M	'P1'
_symmetry_Int_Tables_number	1
_symmetry_cell_setting	triclinic
loop_
_symmetry_equiv_pos_as_xyz
  x,y,z
_cell_length_a	10.540535
_cell_length_b	9.016244
_cell_length_c	10.540539
_cell_angle_alpha	90.000067
_cell_angle_beta	84.524567
_cell_angle_gamma	90.004976
loop_
_atom_site_label
_atom_site_type_symbol
_atom_site_fract_x
_atom_site_fract_y
_atom_site_fract_z
O1	O	1.685896	0.123252	0.178868
O2	O	1.316483	0.123272	0.195730
O3	O	1.509617	0.123259	0.002592
O4	O	1.492762	0.123264	0.372005
O5	O	1.509589	-0.123421	0.002596
O6	O	1.316454	-0.123409	0.195734
O7	O	1.685868	-0.123429	0.178872
Cu8	Cu	1.501158	-0.145943	0.187304
Cu9	Cu	1.501192	0.145785	0.187298
O10	O	1.492733	-0.123417	0.372010
C11	C	1.269165	-0.000066	0.194469
C12	C	1.128217	-0.000058	0.190689
C13	C	1.091546	-0.000066	0.049675
C14	C	0.944946	-0.000641	0.045698
C15	C	0.918865	-0.140668	0.255062
C16	C	1.065630	-0.140771	0.258062
C17	C	1.065546	0.139761	0.260109
C18	C	0.919200	0.141594	0.253588
N19	N	1.501144	-0.351129	0.187306
C20	C	1.397513	-0.586155	0.290276
C21	C	1.397742	-0.414264	0.290661
C22	C	1.633867	-0.413475	0.217438
C23	C	1.633302	-0.585419	0.218167
C24	C	1.473370	-0.585673	0.053868
C25	C	1.470325	-0.413718	0.054733
C26	C	1.733185	-0.000088	0.180133
C27	C	1.874134	-0.000086	0.183913
C28	C	1.508339	-0.000078	-0.044709
C29	C	1.504557	-0.000070	-0.185657
N30	N	1.501216	0.350972	0.187286
C31	C	1.359640	0.000491	-0.369081
C32	C	1.363474	-0.000064	-0.222463
C33	C	1.572437	-0.140941	-0.247313
C34	C	1.567622	-0.141059	-0.393857
C35	C	1.570524	0.139463	-0.394381
C36	C	1.571823	0.141325	-0.247399
C37	C	1.494011	-0.000076	0.419311
C38	C	1.497793	-0.000074	0.560259
H39	H	1.088660	-0.146777	0.361437
H40	H	1.712923	-0.372575	0.144473
C41	C	1.710783	0.152812	-0.214692
H42	H	1.729682	0.071155	-0.162730
H43	H	1.721951	0.242719	-0.170106
H44	H	1.766454	0.151612	-0.291075
C45	C	1.264501	-0.357308	0.266260
H46	H	1.264458	-0.251939	0.266482
H47	H	1.203455	-0.392642	0.331382
H48	H	1.243389	-0.392195	0.185867
C49	C	1.508854	0.283702	-0.436995
H50	H	1.438164	0.260167	-0.482854
H51	H	1.569621	0.338703	-0.490226
H52	H	1.480696	0.341207	-0.364182
H53	H	1.298587	-0.627543	0.272425
C54	C	0.880021	0.282118	0.184023
H55	H	0.907384	0.367453	0.226733
H56	H	0.789942	0.284267	0.183782
H57	H	0.918423	0.281341	0.098742
C58	C	1.421377	-0.644490	0.423240
H59	H	1.494268	-0.706990	0.416262
H60	H	1.349234	-0.699228	0.457926
H61	H	1.435378	-0.563227	0.477557
H62	H	1.658765	-0.370397	0.313675
H63	H	1.669086	-0.147455	-0.441827
C64	C	1.284354	0.136956	-0.407709
H65	H	1.201253	0.135226	-0.364021
H66	H	1.278230	0.135092	-0.497026
H67	H	1.327128	0.224752	-0.385890
H68	H	1.378633	-0.629115	0.025191
C69	C	1.421929	-0.358667	0.424374
H70	H	1.431665	-0.441169	0.478667
H71	H	1.351737	-0.300191	0.458226
H72	H	1.497332	-0.300360	0.418724
C73	C	1.338424	-0.358683	0.023875
H74	H	1.302281	-0.297807	0.091490
H75	H	1.284348	-0.441347	0.014030
H76	H	1.347276	-0.302910	-0.052927
C77	C	1.284641	-0.135211	-0.409866
H78	H	1.337159	-0.192214	-0.469766
H79	H	1.211233	-0.102822	-0.447741
H80	H	1.259285	-0.194339	-0.337245
H81	H	1.133527	0.100733	-0.004477
H82	H	1.676044	-0.146184	-0.224961
H83	H	1.525261	-0.245767	-0.204711
H84	H	1.540852	-0.370747	-0.025589
C85	C	1.504829	0.282115	-0.192097
H86	H	1.436156	0.254855	-0.131626
H87	H	1.473052	0.337428	-0.258939
H88	H	1.563953	0.340907	-0.151577
H89	H	1.672428	0.140405	-0.441608
C90	C	1.666185	-0.639585	0.349662
H91	H	1.679757	-0.556505	0.402135
H92	H	1.741335	-0.698237	0.339647
H93	H	1.597727	-0.697407	0.388342
C94	C	1.291302	0.136336	-0.164902
H95	H	1.259366	0.192585	-0.231121
H96	H	1.347634	0.195937	-0.121504
H97	H	1.222351	0.104627	-0.106585
H98	H	1.309664	-0.101208	-0.180704
H99	H	0.915620	0.100113	-0.009945
C100	C	1.150224	-0.136059	-0.022254
H101	H	1.196970	-0.192836	0.033280
H102	H	1.205684	-0.103955	-0.093275
H103	H	1.084207	-0.195307	-0.051123
H104	H	0.916481	-0.102012	-0.009669
C105	C	1.119891	-0.283266	0.193143
H106	H	1.052207	-0.340543	0.165183
H107	H	1.162920	-0.339355	0.252165
H108	H	1.178004	-0.257805	0.122004
H109	H	0.871508	-0.145498	0.356827
C110	C	1.499805	-0.283292	-0.431954
H111	H	1.475445	-0.340454	-0.357900
H112	H	1.555988	-0.339619	-0.489009
H113	H	1.426118	-0.257546	-0.472436
H114	H	0.887951	-0.245693	0.206251
H115	H	1.108018	0.246354	0.216105
H116	H	0.870153	0.150521	0.354461
H117	H	1.087731	0.141122	0.363860
H118	H	1.548982	-0.626330	-0.022787
H119	H	1.712944	-0.627007	0.146176
