data_functionalizedCrystal
_audit_creation_method	'MofGen! by Chris Wilmer'
_symmetry_space_group_name_H-M	'P1'
_symmetry_Int_Tables_number	1
_symmetry_cell_setting	triclinic
loop_
_symmetry_equiv_pos_as_xyz
  x,y,z
_cell_length_a	14.560438
_cell_length_b	14.628931
_cell_length_c	14.628931
_cell_angle_alpha	60.000000
_cell_angle_beta	90.001411
_cell_angle_gamma	60.001476
loop_
_atom_site_label
_atom_site_type_symbol
_atom_site_fract_x
_atom_site_fract_y
_atom_site_fract_z
Zr1	Zr	0.884754	1.000593	-0.119948
O2	O	0.738109	1.191296	-0.265911
O3	O	0.929709	0.809888	-0.075202
O4	O	0.929709	1.000594	-0.265908
O5	O	0.738108	1.000591	0.075226
O6	O	1.080848	1.000596	-0.265905
O7	O	0.738108	1.000591	-0.075205
O8	O	1.080847	0.659460	0.075232
O9	O	0.738109	1.341728	-0.265911
O10	O	1.061674	0.888331	-0.056117
O11	O	0.948881	0.888329	0.056147
O12	O	0.948882	1.112860	-0.168385
O13	O	0.836089	1.112858	-0.056121
Zr14	Zr	1.125802	1.000598	0.119977
Zr15	Zr	1.125802	1.000597	-0.119944
Zr16	Zr	0.884754	1.000594	0.119973
Zr17	Zr	0.884755	1.240515	-0.119948
Zr18	Zr	1.125802	0.760676	0.119977
O19	O	1.080847	1.191303	0.075231
O20	O	1.080848	1.191302	-0.265906
O21	O	0.738108	1.191297	0.075226
O22	O	1.272448	0.809895	0.265940
O23	O	1.272448	0.809894	-0.075197
O24	O	0.929708	0.809889	0.265935
O25	O	1.272448	1.000600	-0.075197
O26	O	1.080847	1.000598	0.265937
O27	O	0.929709	1.000595	0.265935
O28	O	1.272448	1.000600	0.075235
O29	O	0.929710	1.341731	-0.265908
O30	O	1.080846	0.659460	0.265938
O31	O	1.272447	0.659463	0.265941
O32	O	1.272448	0.659463	0.075235
O33	O	0.738109	1.341728	-0.075206
O34	O	0.929710	1.341732	-0.075203
O35	O	1.061674	0.888331	0.168414
O36	O	1.174467	0.888333	0.056150
O37	O	1.061675	1.112862	-0.056117
O38	O	0.948882	1.112860	0.056146
C39	C	1.005278	0.700490	0.000015
C40	C	1.005277	0.598637	0.000015
C41	C	1.061230	0.553229	-0.055675
C42	C	1.061231	0.447959	-0.055676
C43	C	0.703764	1.000590	0.000010
C44	C	0.601433	1.000589	0.000008
C45	C	0.612230	0.883389	0.058610
C46	C	0.516075	0.883395	0.058620
C47	C	0.398328	1.117811	-0.058583
C48	C	0.494482	1.117804	-0.058586
C49	C	0.719181	0.766174	0.117204
C50	C	0.729984	0.648965	0.175810
C51	C	0.633829	0.648971	0.175820
C52	C	0.526871	0.766187	0.117225
C53	C	1.306792	1.000601	0.000019
C54	C	1.409124	1.000602	0.000021
C55	C	1.005279	1.000595	-0.300090
C56	C	1.005279	1.000594	-0.401943
C57	C	1.005279	1.300701	0.000014
C58	C	1.005279	1.402554	0.000014
C59	C	0.949326	1.111976	-0.503044
C60	C	0.949325	1.111978	-0.608316
C61	C	1.005278	1.000596	0.300119
C62	C	1.005277	1.000597	0.401972
C63	C	1.306792	0.700495	0.000020
C64	C	1.409123	0.598644	0.000022
C65	C	1.005277	0.700491	0.300120
C66	C	1.005277	0.598639	0.401973
C67	C	1.306792	0.700496	0.300125
C68	C	1.409122	0.598645	0.401979
C69	C	0.703765	1.300695	-0.300095
C70	C	0.601434	1.402546	-0.401950
C71	C	0.703764	1.300696	0.000009
C72	C	0.601433	1.402547	0.000008
C73	C	1.005279	1.300700	-0.300091
C74	C	1.005279	1.402553	-0.401944
C75	C	1.398793	0.553235	-0.055670
C76	C	1.504556	0.447966	-0.055669
C77	C	1.061230	0.553231	0.503074
C78	C	1.061231	0.447960	0.608346
C79	C	1.510698	0.553238	0.391699
C80	C	1.616463	0.447970	0.496970
H81	H	0.957368	0.441603	0.047690
Cl82	Cl	0.864438	0.501618	0.249487
Cl83	Cl	1.079236	0.853359	-0.464126
H84	H	1.519362	0.592299	0.304964
H85	H	0.957378	0.559576	0.047696
H86	H	1.053184	0.905238	-0.393322
Cl87	Cl	0.931308	0.538349	0.388651
H88	H	1.109135	0.408909	0.695077
Cl89	Cl	1.264253	0.613533	-0.129294
Cl90	Cl	1.750996	0.387678	0.483641
Cl91	Cl	1.471599	0.462836	0.611402
H92	H	0.957378	0.441594	0.511330
H93	H	1.109127	0.592294	0.511695
Cl94	Cl	1.395739	0.538358	0.535890
Cl95	Cl	0.480910	1.265143	-0.132255
Cl96	Cl	1.135195	0.613522	-0.129287
H97	H	0.901429	1.207332	-0.511666
H98	H	1.109130	0.408914	-0.103360
H99	H	0.901415	1.207336	-0.695047
H100	H	1.495887	0.408911	-0.103345
Cl101	Cl	0.840065	0.766158	0.117190
H102	H	0.642630	0.553534	0.223549
Cl103	Cl	0.405992	0.766190	0.117248
H104	H	0.311238	1.213242	-0.106291
H105	H	1.614803	0.441601	0.047714
H106	H	1.496267	0.559592	0.047697
