data_functionalizedCrystal
_audit_creation_method	'MofGen! by Chris Wilmer'
_symmetry_space_group_name_H-M	'P1'
_symmetry_Int_Tables_number	1
_symmetry_cell_setting	triclinic
loop_
_symmetry_equiv_pos_as_xyz
  x,y,z
_cell_length_a	8.597340
_cell_length_b	23.532407
_cell_length_c	7.088929
_cell_angle_alpha	83.810936
_cell_angle_beta	103.954719
_cell_angle_gamma	84.100404
loop_
_atom_site_label
_atom_site_type_symbol
_atom_site_fract_x
_atom_site_fract_y
_atom_site_fract_z
O1	O	2.100125	0.078215	0.186945
O2	O	1.635294	0.087512	0.110367
O3	O	1.881730	-0.000048	0.151001
O4	O	1.853689	0.165775	0.146311
O5	O	1.914664	-0.011776	0.474406
O6	O	1.668228	0.075784	0.433772
O7	O	2.133059	0.066487	0.510351
Cu8	Cu	1.903651	0.070065	0.501591
Cu9	Cu	1.864702	0.083934	0.119127
O10	O	1.886623	0.154047	0.469717
C11	C	1.592304	0.081303	0.262275
C12	C	1.415139	0.080268	0.233090
C13	C	1.897484	-0.027130	0.312591
C14	C	1.895339	-0.090350	0.312252
C15	C	2.027699	-0.489249	0.333953
C16	C	2.025704	-0.548651	0.333610
O17	O	2.148406	-0.585207	0.353754
N18	N	1.879200	-0.571500	0.309476
C19	C	1.734680	-0.534942	0.285663
O20	O	1.609884	-0.559831	0.265102
C21	C	1.736676	-0.475540	0.285993
C22	C	1.883191	-0.452695	0.310149
C23	C	2.174202	-0.466403	0.358105
C24	C	2.176197	-0.407005	0.358451
C25	C	2.031689	-0.370451	0.334647
C26	C	1.885186	-0.393297	0.310495
C27	C	1.592157	-0.438982	0.262167
C28	C	1.594165	-0.379577	0.262497
C29	C	1.740680	-0.356732	0.286653
C30	C	1.742673	-0.297345	0.287037
N31	N	1.889177	-0.274496	0.311172
C32	C	2.033685	-0.311049	0.334976
C33	C	1.730500	-0.659691	0.284970
C34	C	1.728504	-0.719092	0.284654
C35	C	2.019528	-0.732797	0.332597
C36	C	2.021524	-0.673395	0.332926
C37	C	1.877004	-0.636842	0.309104
C38	C	2.037864	-0.186308	0.335704
C39	C	2.039847	-0.126904	0.336057
C40	C	1.748823	-0.113203	0.288104
C41	C	1.746840	-0.172603	0.287761
C42	C	1.891373	-0.209154	0.311557
O43	O	1.620035	-0.260754	0.266896
O44	O	2.158458	-0.286151	0.355509
C45	C	2.176049	0.072696	0.358438
C46	C	2.353213	0.073732	0.387611
C47	C	1.870869	0.181129	0.308122
C48	C	1.873012	0.244350	0.308448
N49	N	1.931056	0.060309	0.770598
N50	N	1.837309	0.093685	-0.149878
H51	H	2.155556	-0.216061	0.355074
H52	H	2.159163	-0.108308	0.355733
H53	H	1.740151	0.128273	0.752455
O54	O	2.318513	-0.384801	0.382227
C55	C	2.345442	-0.356918	0.551319
H56	H	2.274196	-0.375176	0.654700
H57	H	2.479889	-0.364353	0.628729
H58	H	2.304019	-0.308682	0.507263
O59	O	2.046891	0.018974	0.886890
C60	C	2.016576	-0.035590	0.833190
H61	H	1.940084	-0.030150	0.675214
H62	H	2.136211	-0.063486	0.846241
H63	H	1.948922	-0.057257	0.934688
H64	H	2.291884	-0.496160	0.377483
O65	O	1.453781	-0.344033	0.239023
C66	C	1.429192	-0.303170	0.070321
H67	H	1.499250	-0.320707	-0.033242
H68	H	1.294796	-0.294395	-0.007108
H69	H	1.473644	-0.261367	0.114891
O70	O	1.451839	0.067927	0.571998
C71	C	1.568025	0.018800	0.601411
H72	H	1.583503	0.008060	0.453435
H73	H	1.688497	0.027871	0.694442
H74	H	1.526027	-0.019254	0.680141
H75	H	1.332610	0.085072	0.078451
O76	O	2.159986	-0.768243	0.355461
C77	C	2.231911	-0.751825	0.202599
H78	H	2.186310	-0.704717	0.140196
H79	H	2.368932	-0.757436	0.262200
H80	H	2.198655	-0.780045	0.081794
O81	O	2.163718	-0.651128	0.356098
C82	C	2.156546	-0.611111	0.190202
H83	H	2.024824	-0.594230	0.113596
H84	H	2.223381	-0.573610	0.238244
H85	H	2.215632	-0.633134	0.084621
O86	O	1.586032	-0.741183	0.261101
C87	C	1.458932	-0.696177	0.240220
H88	H	1.496792	-0.653621	0.186270
H89	H	1.347019	-0.705131	0.129459
H90	H	1.430206	-0.693386	0.388040
H91	H	1.612809	-0.629932	0.265586
H92	H	1.472847	-0.457571	0.242485
H93	H	1.631169	-0.083431	0.268730
O94	O	1.604371	-0.194700	0.264195
C95	C	1.477260	-0.149698	0.243316
H96	H	1.515116	-0.107139	0.189389
H97	H	1.365357	-0.158651	0.132538
H98	H	1.448520	-0.146914	0.391132
