data_functionalizedCrystal
_audit_creation_method	'MofGen! by Chris Wilmer'
_symmetry_space_group_name_H-M	'P1'
_symmetry_Int_Tables_number	1
_symmetry_cell_setting	triclinic
loop_
_symmetry_equiv_pos_as_xyz
  x,y,z
_cell_length_a	21.606444
_cell_length_b	12.477989
_cell_length_c	21.606444
_cell_angle_alpha	89.998132
_cell_angle_beta	120.001380
_cell_angle_gamma	64.371172
loop_
_atom_site_label
_atom_site_type_symbol
_atom_site_fract_x
_atom_site_fract_y
_atom_site_fract_z
Zr1	Zr	0.750833	0.973079	0.117919
O2	O	0.867792	0.811798	0.210665
O3	O	0.625442	1.022514	0.089487
O4	O	0.754565	1.022512	0.218610
O5	O	0.738665	0.811809	-0.020312
O6	O	0.767101	1.188732	0.224878
O7	O	0.738669	0.811801	0.081542
O8	O	0.536123	1.188737	-0.006100
O9	O	0.969642	0.811805	0.210666
O10	O	0.689495	1.167653	0.082039
O11	O	0.680137	1.043611	0.001349
O12	O	0.832163	1.043608	0.153375
O13	O	0.822805	0.919565	0.072685
Zr14	Zr	0.770819	1.238194	-0.034530
Zr15	Zr	0.770825	1.238181	0.127915
Zr16	Zr	0.750827	0.973092	-0.044526
Zr17	Zr	0.913273	0.973088	0.117920
Zr18	Zr	0.608379	1.238184	-0.034531
O19	O	0.896210	1.188759	-0.006097
O20	O	0.896219	1.188740	0.224879
O21	O	0.867783	0.811817	-0.020311
O22	O	0.653861	1.399475	-0.127276
O23	O	0.653869	1.399456	0.103700
O24	O	0.625433	1.022533	-0.141489
O25	O	0.782987	1.399464	0.103701
O26	O	0.767087	1.188761	-0.135221
O27	O	0.754552	1.022541	-0.141488
O28	O	0.782984	1.399472	0.001847
O29	O	0.985534	1.022526	0.218612
O30	O	0.536118	1.188747	-0.135222
O31	O	0.552010	1.399468	-0.127277
O32	O	0.552015	1.399458	0.001846
O33	O	0.969638	0.811815	0.081544
O34	O	0.985529	1.022536	0.089489
O35	O	0.689489	1.167665	-0.069986
O36	O	0.698847	1.291708	0.010704
O37	O	0.841515	1.167662	0.082040
O38	O	0.832157	1.043620	0.001350
C39	C	0.557638	1.105624	0.041693
C40	C	0.488678	1.105620	0.041693
C41	C	0.735818	0.774033	0.029191
C42	C	0.727331	0.661490	0.024947
C43	C	0.070257	1.170403	0.083815
C44	C	0.135056	1.170394	0.083817
C45	C	0.162568	1.105642	0.041698
C46	C	0.125282	1.040883	-0.000422
C47	C	0.060488	1.040886	-0.000420
C48	C	0.386592	1.040870	-0.000430
C49	C	0.451390	1.040876	-0.000430
C50	C	0.461161	1.170379	0.083808
C51	C	0.396366	1.170381	0.083810
C52	C	0.359089	1.105618	0.041694
C53	C	0.288827	1.105627	0.041692
C54	C	0.232825	1.105639	0.041694
C55	C	0.964014	1.105649	0.041696
C56	C	1.032974	1.105653	0.041697
C57	C	0.760834	1.105620	0.244889
C58	C	0.760836	1.105614	0.313851
C59	C	0.785834	1.437239	0.054199
C60	C	0.794322	1.549782	0.058442
C61	C	0.835307	1.040863	0.383486
C62	C	0.835305	1.040874	0.448281
C63	C	0.760831	1.105629	0.443439
C64	C	0.686355	1.170388	0.373797
C65	C	0.686359	1.170384	0.309003
C66	C	0.686342	1.170409	0.635101
C67	C	0.686344	1.170405	0.699901
C68	C	0.835288	1.040899	0.774378
C69	C	0.835291	1.040894	0.709585
C70	C	0.760816	1.105658	0.639949
C71	C	0.760819	1.105648	0.569691
C72	C	0.760827	1.105634	0.513695
C73	C	0.760819	1.105653	0.838501
C74	C	0.760816	1.105660	0.769538
C75	C	0.582646	1.437227	0.054197
C76	C	0.522174	1.549766	0.058440
C77	C	0.557631	1.105640	-0.161501
C78	C	0.488668	1.105642	-0.230464
C79	C	0.582639	1.437243	-0.148997
C80	C	0.522163	1.549788	-0.213716
C81	C	0.939013	0.774029	0.232386
C82	C	0.999489	0.661485	0.297105
C83	C	0.939006	0.774046	0.029192
C84	C	0.999479	0.661507	0.024949
C85	C	0.964021	1.105632	0.244890
C86	C	1.032984	1.105631	0.313853
C87	C	0.488893	1.537860	0.097676
C88	C	0.432081	1.643592	0.101677
C89	C	0.408546	1.761228	0.066439
C90	C	0.441832	1.773132	0.027202
C91	C	0.498648	1.667401	0.023205
C92	C	0.461164	1.170398	-0.300092
C93	C	0.396375	1.170394	-0.364896
C94	C	0.359087	1.105641	-0.360070
C95	C	0.386597	1.040877	-0.290434
C96	C	0.451389	1.040874	-0.225632
C97	C	0.498649	1.667400	-0.201989
C98	C	0.441836	1.773157	-0.262793
C99	C	0.408534	1.761300	-0.335323
C100	C	0.432054	1.643676	-0.347049
C101	C	0.488870	1.537921	-0.286246
C102	C	1.023011	0.543873	0.285378
C103	C	1.079844	0.438116	0.346182
C104	C	1.113150	0.449973	0.418712
C105	C	1.089626	0.567597	0.430438
C106	C	1.032798	0.673352	0.369635
C107	C	1.032766	0.673413	-0.014280
C108	C	1.089596	0.567681	-0.018264
C109	C	1.113133	0.450044	0.016977
C110	C	1.079844	0.438141	0.056211
C111	C	1.023019	0.543872	0.060199
C112	C	1.070253	1.170397	0.309003
C113	C	1.135044	1.170419	0.373795
C114	C	1.162569	1.105669	0.443437
C115	C	1.125294	1.040902	0.448285
C116	C	1.060500	1.040887	0.383494
H117	H	0.047858	1.223139	0.118110
H118	H	1.030162	0.988141	0.387453
Cl119	Cl	0.485952	0.959466	-0.138102
Cl120	Cl	0.628747	0.676225	-0.024343
Cl121	Cl	0.518471	1.389986	0.141986
H122	H	1.159404	0.363962	0.013724
H123	H	0.422662	1.868926	-0.001487
H124	H	1.047852	1.223124	0.252303
Cl125	Cl	0.181927	1.251792	0.136772
Cl126	Cl	0.361786	1.251784	0.136765
Cl127	Cl	0.508026	1.251814	-0.306179
H128	H	0.491522	1.223108	0.118104
Cl129	Cl	0.013621	0.959476	-0.053367
H130	H	1.013647	0.769114	0.379192
H131	H	0.995917	0.534160	0.092141
H132	H	0.895951	0.988124	0.387437
Cl133	Cl	0.592736	1.251803	0.221460
Cl134	Cl	0.390242	1.628599	0.151003
H135	H	1.116751	0.577237	0.489499
Cl136	Cl	0.390179	1.628790	-0.438235
Cl137	Cl	1.159914	0.959493	0.535840
H138	H	0.525738	1.677112	-0.008749
H139	H	0.473790	0.988139	-0.034729
H140	H	0.373986	1.223137	-0.421590
H141	H	1.098986	0.342351	0.336620
H142	H	1.165386	1.223159	0.369833
Cl143	Cl	1.003193	0.821287	-0.058585
H144	H	1.215329	1.105691	0.496188
H145	H	0.525756	1.677078	-0.142936
Cl146	Cl	0.339734	0.959461	-0.053380
H147	H	1.159421	0.363850	0.468215
H148	H	0.362281	1.847311	0.069698
H149	H	0.422693	1.868922	-0.253232
Cl150	Cl	1.109438	0.290245	0.100506
H151	H	0.147691	0.988154	-0.034713
H152	H	0.895946	0.988150	0.504979
H153	H	0.858169	0.540243	0.090371
Cl154	Cl	0.928917	0.959467	0.715677
Cl155	Cl	0.928916	0.959484	0.861926
Cl156	Cl	1.131431	0.582674	-0.067593
H157	H	0.625695	1.223140	0.695951
Cl158	Cl	0.337106	1.894263	-0.411754
H159	H	0.508007	1.442160	-0.295805
H160	H	0.625700	1.223144	0.578408
Cl161	Cl	0.592731	1.251798	0.367710
Cl162	Cl	0.277633	1.105660	-0.441544
Cl163	Cl	0.981151	0.528934	0.194204
Cl164	Cl	0.339710	0.959483	-0.284380
