data_functionalizedCrystal
_audit_creation_method	'MofGen! by Chris Wilmer'
_symmetry_space_group_name_H-M	'P1'
_symmetry_Int_Tables_number	1
_symmetry_cell_setting	triclinic
loop_
_symmetry_equiv_pos_as_xyz
  x,y,z
_cell_length_a	18.215407
_cell_length_b	18.215404
_cell_length_c	18.215399
_cell_angle_alpha	89.972485
_cell_angle_beta	89.982223
_cell_angle_gamma	90.019443
loop_
_atom_site_label
_atom_site_type_symbol
_atom_site_fract_x
_atom_site_fract_y
_atom_site_fract_z
Zn1	Zn	-1.125077	0.293078	0.416078
Zn2	Zn	-0.791744	0.626411	0.749411
Zn3	Zn	-0.458411	0.959745	1.082744
Zn4	Zn	-1.124988	0.416149	0.293012
Zn5	Zn	-0.791655	0.749482	0.626346
Zn6	Zn	-0.458321	1.082816	0.959679
Zn7	Zn	-1.002010	0.293092	0.293029
Zn8	Zn	-0.668677	0.626425	0.626363
Zn9	Zn	-0.335343	0.959758	0.959696
Zn10	Zn	-1.001978	0.416098	0.416042
Zn11	Zn	-0.668645	0.749431	0.749375
Zn12	Zn	-0.335311	1.082764	1.082708
O13	O	-1.063513	0.354604	0.354540
O14	O	-0.730180	0.687937	0.687874
O15	O	-0.396847	1.021271	1.021207
O16	O	-1.228050	0.309419	0.399761
O17	O	-0.894716	0.642753	0.733094
O18	O	-0.561383	0.976086	1.066427
O19	O	-1.108651	0.399852	0.190030
O20	O	-0.775317	0.733186	0.523364
O21	O	-0.441984	1.066519	0.856697
O22	O	-1.018386	0.190105	0.309374
O23	O	-0.685052	0.523439	0.642708
O24	O	-0.351719	0.856772	0.976041
O25	O	-1.227984	0.399839	0.309345
O26	O	-0.894651	0.733173	0.642678
O27	O	-0.561317	1.066506	0.976012
O28	O	-1.108803	0.190095	0.399777
O29	O	-0.775470	0.523429	0.733111
O30	O	-0.442136	0.856762	1.066444
O31	O	-1.018299	0.309443	0.190043
O32	O	-0.684966	0.642776	0.523376
O33	O	-0.351632	0.976109	0.856710
O34	O	-0.899021	0.309393	0.309339
O35	O	-0.565688	0.642726	0.642673
O36	O	-0.232355	0.976060	0.976006
O37	O	-1.018332	0.399752	0.519031
O38	O	-0.684998	0.733085	0.852364
O39	O	-0.351665	1.066418	1.185697
O40	O	-0.898998	0.399765	0.399716
O41	O	-0.565665	0.733098	0.733049
O42	O	-0.232331	1.066432	1.066383
O43	O	-1.108772	0.309369	0.519057
O44	O	-0.775439	0.642703	0.852391
O45	O	-0.442105	0.976036	1.185724
O46	O	-1.108620	0.519127	0.309310
O47	O	-0.775286	0.852460	0.642644
O48	O	-0.441953	1.185793	0.975977
O49	O	-1.018245	0.519089	0.399699
O50	O	-0.684912	0.852422	0.733033
O51	O	-0.351578	1.185756	1.066366
C52	C	-0.872307	0.354575	0.354526
C53	C	-0.538974	0.687909	0.687859
C54	C	-0.205640	1.021242	1.021193
C55	C	-0.790508	0.354581	0.354537
C56	C	-0.457175	0.687914	0.687871
C57	C	-0.123842	1.021247	1.021204
C58	C	-0.602347	0.307590	0.401690
C59	C	-0.269014	0.640923	0.735023
C60	C	0.064319	0.974257	1.068356
C61	C	-0.525489	0.307594	0.401692
C62	C	-0.192155	0.640927	0.735025
C63	C	0.141178	0.974261	1.068358
C64	C	-0.525431	0.401607	0.307397
C65	C	-0.192098	0.734940	0.640730
C66	C	0.141235	1.068274	0.974063
C67	C	-0.602289	0.401599	0.307391
C68	C	-0.268955	0.734932	0.640725
C69	C	0.064378	1.068265	0.974058
C70	C	-0.640745	0.354591	0.354542
C71	C	-0.307411	0.687925	0.687876
C72	C	0.025922	1.021258	1.021209
C73	C	-0.487029	0.354603	0.354549
C74	C	-0.153695	0.687937	0.687883
C75	C	0.179638	1.021270	1.021216
C76	C	-0.403695	0.354608	0.354551
C77	C	-0.070362	0.687941	0.687884
C78	C	0.262972	1.021275	1.021218
C79	C	-0.724084	0.354586	0.354540
C80	C	-0.390750	0.687919	0.687873
C81	C	-0.057417	1.021252	1.021206
C82	C	-1.063439	0.545810	0.354515
C83	C	-0.730106	0.879144	0.687848
C84	C	-0.396773	1.212477	1.021182
C85	C	-1.063475	0.627609	0.354529
C86	C	-0.730141	0.960943	0.687862
C87	C	-0.396808	1.294276	1.021195
C88	C	-1.063558	0.354553	0.546493
C89	C	-0.730225	0.687887	0.879827
C90	C	-0.396892	1.021220	1.213160
C91	C	-1.063577	0.354532	0.628292
C92	C	-0.730244	0.687865	0.961626
C93	C	-0.396911	1.021198	1.294959
C94	C	-0.255466	0.354625	0.354553
C95	C	0.077867	0.687959	0.687887
C96	C	0.411200	1.021292	1.021220
C97	C	-0.337265	0.354614	0.354554
C98	C	-0.003932	0.687947	0.687888
C99	C	0.329402	1.021281	1.021221
C100	C	-1.110647	0.815798	0.307560
C101	C	-0.777314	1.149132	0.640893
C102	C	-0.443980	1.482465	0.974226
C103	C	-1.110681	0.892657	0.307582
C104	C	-0.777348	1.225990	0.640915
C105	C	-0.444015	1.559324	0.974248
C106	C	-1.016492	0.892658	0.401627
C107	C	-0.683159	1.225991	0.734960
C108	C	-0.349826	1.559324	1.068293
C109	C	-1.016462	0.815800	0.401608
C110	C	-0.683129	1.149134	0.734941
C111	C	-0.349796	1.482467	1.068275
C112	C	-1.063539	0.777373	0.354570
C113	C	-0.730205	1.110706	0.687904
C114	C	-0.396872	1.444039	1.021237
C115	C	-1.063603	0.931089	0.354611
C116	C	-0.730270	1.264422	0.687944
C117	C	-0.396936	1.597755	1.021278
C118	C	-1.063640	1.014422	0.354635
C119	C	-0.730306	1.347756	0.687968
C120	C	-0.396973	1.681089	1.021302
C121	C	-1.063503	0.694034	0.354547
C122	C	-0.730169	1.027367	0.687880
C123	C	-0.396836	1.360700	1.021214
C124	C	-1.063613	1.162651	0.354595
C125	C	-0.730279	1.495984	0.687928
C126	C	-0.396946	1.829318	1.021262
C127	C	-1.063667	1.080852	0.354652
C128	C	-0.730333	1.414186	0.687986
C129	C	-0.397000	1.747519	1.021319
C130	C	-1.063511	0.354602	0.163334
C131	C	-0.730178	0.687935	0.496667
C132	C	-0.396844	1.021268	0.830001
C133	C	-1.063635	0.354416	0.081536
C134	C	-0.730301	0.687749	0.414869
C135	C	-0.396968	1.021082	0.748202
C136	C	-1.110687	0.307426	0.816501
C137	C	-0.777353	0.640759	1.149835
C138	C	-0.444020	0.974092	1.483168
C139	C	-1.110695	0.307404	0.893360
C140	C	-0.777362	0.640738	1.226693
C141	C	-0.444029	0.974071	1.560027
C142	C	-1.016520	0.401524	0.893321
C143	C	-0.683187	0.734857	1.226655
C144	C	-0.349853	1.068191	1.559988
C145	C	-1.016508	0.401541	0.816464
C146	C	-0.683175	0.734874	1.149797
C147	C	-0.349841	1.068208	1.483130
C148	C	-1.063596	0.354493	0.778056
C149	C	-0.730262	0.687826	1.111389
C150	C	-0.396929	1.021160	1.444722
C151	C	-1.063616	0.354454	0.931772
C152	C	-0.730283	0.687788	1.265105
C153	C	-0.396950	1.021121	1.598439
C154	C	-1.063625	0.354432	1.015106
C155	C	-0.730292	0.687765	1.348439
C156	C	-0.396959	1.021098	1.681772
C157	C	-1.063586	0.354515	0.694717
C158	C	-0.730252	0.687848	1.028050
C159	C	-0.396919	1.021181	1.361383
H160	H	-0.494111	0.439879	0.269009
H161	H	-0.160778	0.773213	0.602342
H162	H	0.172556	1.106546	0.935675
H163	H	-1.149040	0.269076	0.924659
H164	H	-0.815707	0.602409	1.257992
H165	H	-0.482374	0.935743	1.591326
C166	C	-0.483255	0.255891	0.453560
C167	C	-0.149922	0.589224	0.786893
C168	C	0.183412	0.922557	1.120227
N169	N	-0.451445	0.216946	0.492630
N170	N	-0.118112	0.550279	0.825963
N171	N	0.215221	0.883612	1.159296
H172	H	-0.978101	0.784512	0.439893
H173	H	-0.644768	1.117845	0.773226
H174	H	-0.311434	1.451179	1.106560
H175	H	-0.633553	0.439874	0.268994
H176	H	-0.300219	0.773207	0.602328
H177	H	0.033114	1.106540	0.935661
C178	C	-0.964725	0.453273	0.935577
C179	C	-0.631392	0.786606	1.268910
C180	C	-0.298059	1.119939	1.602244
N181	N	-0.925712	0.492251	0.967404
N182	N	-0.592379	0.825584	1.300737
N183	N	-0.259045	1.158917	1.634070
H184	H	-1.149026	0.269114	0.785232
H185	H	-0.815693	0.602447	1.118565
H186	H	-0.482360	0.935781	1.451898
H187	H	-0.978156	0.439868	0.785161
H188	H	-0.644822	0.773202	1.118494
H189	H	-0.311489	1.106535	1.451827
C190	C	-1.162436	0.773531	0.255821
C191	C	-0.829103	1.106864	0.589155
C192	C	-0.495769	1.440197	0.922488
N193	N	-1.201447	0.741697	0.216852
N194	N	-0.868114	1.075030	0.550185
N195	N	-0.534780	1.408363	0.883518
H196	H	-0.633656	0.269311	0.440081
H197	H	-0.300323	0.602645	0.773414
H198	H	0.033011	0.935978	1.106747
C199	C	-1.162501	0.934922	0.255863
C200	C	-0.829168	1.268255	0.589197
C201	C	-0.495835	1.601588	0.922530
N202	N	-1.201534	0.966755	0.216906
N203	N	-0.868201	1.300088	0.550239
N204	N	-0.534867	1.633422	0.883573
H205	H	-0.978164	0.923955	0.439922
H206	H	-0.644830	1.257288	0.773255
H207	H	-0.311497	1.590622	1.106589
