data_functionalizedCrystal
_audit_creation_method	'MofGen! by Chris Wilmer'
_symmetry_space_group_name_H-M	'P1'
_symmetry_Int_Tables_number	1
_symmetry_cell_setting	triclinic
loop_
_symmetry_equiv_pos_as_xyz
  x,y,z
_cell_length_a	14.971486
_cell_length_b	19.188930
_cell_length_c	13.448316
_cell_angle_alpha	89.988273
_cell_angle_beta	89.998199
_cell_angle_gamma	83.379455
loop_
_atom_site_label
_atom_site_type_symbol
_atom_site_fract_x
_atom_site_fract_y
_atom_site_fract_z
O1	O	1.186467	0.090988	-0.082589
O2	O	1.686467	0.590988	0.417411
O3	O	0.926009	0.101884	-0.082618
O4	O	1.426009	0.601884	0.417382
O5	O	1.063754	-0.005195	-0.082583
O6	O	1.563754	0.494805	0.417417
O7	O	1.048722	0.198067	-0.082624
O8	O	1.548722	0.698067	0.417376
O9	O	1.063737	-0.005202	0.082801
O10	O	1.563737	0.494798	0.582801
O11	O	0.925992	0.101877	0.082766
O12	O	1.425992	0.601877	0.582766
O13	O	1.186450	0.090981	0.082795
O14	O	1.686450	0.590981	0.582795
Cu15	Cu	1.056219	0.096429	0.097881
Cu16	Cu	1.556219	0.596429	0.597881
Cu17	Cu	1.056239	0.096437	-0.097704
Cu18	Cu	1.556239	0.596437	0.402296
O19	O	1.048704	0.198061	0.082760
O20	O	1.548704	0.698061	0.582760
C21	C	0.892678	0.101393	0.000071
C22	C	1.392678	0.601393	0.500071
C23	C	0.793389	0.099933	0.000061
C24	C	1.293389	0.599933	0.500061
C25	C	0.735831	0.162839	0.000050
C26	C	1.235831	0.662839	0.500050
C27	C	0.642539	0.161463	0.000065
C28	C	1.142539	0.661463	0.500065
C29	C	0.606806	0.097180	0.000084
C30	C	1.106806	0.597180	0.500084
C31	C	0.664371	0.034269	0.000098
C32	C	1.164371	0.534269	0.500098
C33	C	0.757662	0.035646	0.000090
C34	C	1.257662	0.535646	0.500090
C35	C	0.469924	0.031403	0.000112
C36	C	0.969924	0.531403	0.500112
C37	C	0.376627	0.030026	0.000119
C38	C	0.876627	0.530026	0.500119
C39	C	0.354801	0.157221	0.000087
C40	C	0.854801	0.657221	0.500087
C41	C	0.448092	0.158598	0.000079
C42	C	0.948092	0.658598	0.500079
C43	C	0.505650	0.095686	0.000091
C44	C	1.005650	0.595686	0.500091
C45	C	1.063259	-0.031211	0.000112
C46	C	1.563259	0.468789	0.500112
C47	C	1.061797	-0.108721	0.000120
C48	C	1.561797	0.391279	0.500120
C49	C	1.142622	-0.153384	0.000134
C50	C	1.642622	0.346616	0.500134
C51	C	1.141249	-0.226213	0.000118
C52	C	1.641249	0.273787	0.500118
C53	C	1.059047	-0.254374	0.000108
C54	C	1.559047	0.245626	0.500108
C55	C	0.978212	-0.209700	0.000089
C56	C	1.478212	0.290300	0.500089
C57	C	0.979587	-0.136874	0.000095
C58	C	1.479587	0.363126	0.500095
N59	N	0.996208	-0.362583	0.056384
N60	N	1.496208	0.137417	0.556384
N61	N	0.994907	-0.431766	0.056381
N62	N	1.494907	0.068234	0.556381
C63	C	1.054899	-0.473796	0.000087
C64	C	1.554899	0.026204	0.500087
N65	N	1.116254	-0.444030	-0.056190
N66	N	1.616254	0.055970	0.443810
N67	N	1.117558	-0.374842	-0.056182
N68	N	1.617558	0.125158	0.443818
C69	C	1.057547	-0.333341	0.000101
C70	C	1.557547	0.166659	0.500101
C71	C	1.134240	-0.597429	0.000082
C72	C	1.634240	-0.097429	0.500082
C73	C	1.132864	-0.670258	0.000060
C74	C	1.632864	-0.170258	0.500060
C75	C	0.969825	-0.653744	0.000041
C76	C	1.469825	-0.153744	0.500041
C77	C	0.971203	-0.580916	0.000053
C78	C	1.471203	-0.080916	0.500053
C79	C	1.053413	-0.552763	0.000078
C80	C	1.553413	-0.052763	0.500078
C81	C	1.219780	0.091472	0.000104
C82	C	1.719780	0.591472	0.500104
C83	C	1.319070	0.092932	0.000107
C84	C	1.819070	0.592932	0.500107
C85	C	1.049200	0.224077	0.000063
C86	C	1.549200	0.724077	0.500063
C87	C	1.050661	0.301586	0.000048
C88	C	1.550661	0.801586	0.500048
N89	N	1.056211	0.096423	0.235446
N90	N	1.556211	0.596423	0.735446
N91	N	1.056254	0.096437	-0.235268
N92	N	1.556254	0.596437	0.264732
C93	C	1.117224	0.049028	0.287501
C94	C	1.617224	0.549028	0.787501
C95	C	1.117229	0.049027	0.391604
C96	C	1.617229	0.549027	0.891604
C97	C	1.056226	0.096426	0.443650
C98	C	1.556226	0.596426	0.943650
C99	C	0.995207	0.143823	0.391587
C100	C	1.495207	0.643823	0.891587
C101	C	0.995198	0.143820	0.287486
C102	C	1.495198	0.643820	0.787486
C103	C	0.995232	0.143828	0.608567
C104	C	1.495232	0.643828	1.108567
C105	C	0.995242	0.143832	0.712676
C106	C	1.495242	0.643832	1.212676
C107	C	1.117263	0.049035	0.712686
C108	C	1.617263	0.549035	1.212686
C109	C	1.117254	0.049032	0.608585
C110	C	1.617254	0.549032	1.108585
C111	C	1.056236	0.096430	0.556529
C112	C	1.556236	0.596430	1.056529
H113	H	0.307932	0.208445	0.000082
H114	H	0.807932	0.708445	0.500082
C115	C	1.137047	-0.045975	0.508690
C116	C	1.637047	0.454025	1.008690
C117	C	1.184302	-0.003071	0.448817
C118	C	1.684302	0.496929	0.948817
H119	H	1.178460	-0.078143	0.544002
H120	H	1.678460	0.421857	1.044002
H121	H	1.100727	-0.017752	0.554586
H122	H	1.600727	0.482248	1.054586
H123	H	1.099918	-0.071138	0.468082
H124	H	1.599918	0.428862	0.968082
H125	H	1.221427	0.022095	0.489426
H126	H	1.721427	0.522095	0.989426
H127	H	1.220638	-0.031298	0.402915
H128	H	1.720638	0.468702	0.902915
C129	C	0.704877	0.288426	0.000031
C130	C	1.204877	0.788426	0.500031
C131	C	0.775104	0.233503	0.000031
C132	C	1.275104	0.733503	0.500031
H133	H	0.729123	0.332051	0.000028
H134	H	1.229123	0.832051	0.500028
H135	H	0.668945	0.285247	-0.057636
H136	H	1.168945	0.785247	0.442364
H137	H	0.668947	0.285234	0.057711
H138	H	1.168947	0.785234	0.557711
H139	H	0.811031	0.236692	-0.057653
H140	H	1.311031	0.736692	0.442347
H141	H	0.811051	0.236684	0.057703
H142	H	1.311051	0.736684	0.557703
H143	H	0.347537	-0.022319	0.000135
H144	H	0.847537	0.477681	0.500135
H145	H	0.516786	-0.019826	0.000124
H146	H	1.016786	0.480174	0.500124
C147	C	0.524962	0.233702	-0.084970
C148	C	1.024962	0.733702	0.415030
C149	C	0.579273	0.230613	0.000042
C150	C	1.079273	0.730613	0.500042
H151	H	0.485902	0.276393	-0.084980
H152	H	0.985902	0.776393	0.415020
H153	H	0.561808	0.231593	-0.142634
H154	H	1.061808	0.731593	0.357366
H155	H	0.490331	0.195219	-0.084940
H156	H	0.990331	0.695219	0.415060
H157	H	0.613909	0.269093	0.000008
H158	H	1.113909	0.769093	0.500008
H159	H	0.542422	0.232729	0.057721
H160	H	1.042422	0.732729	0.557721
H161	H	0.945515	0.182413	0.245103
H162	H	1.445515	0.682413	0.745103
C163	C	0.695323	-0.091318	0.000130
C164	C	1.195323	0.408682	0.500130
C165	C	0.625098	-0.036394	0.000118
C166	C	1.125098	0.463606	0.500118
H167	H	0.671076	-0.134943	0.000146
H168	H	1.171076	0.365057	0.500146
H169	H	0.731252	-0.088133	-0.057541
H170	H	1.231252	0.411867	0.442459
H171	H	0.731256	-0.088133	0.057805
H172	H	1.231256	0.411867	0.557805
H173	H	0.589167	-0.039576	-0.057561
H174	H	1.089167	0.460424	0.442439
H175	H	0.589153	-0.039581	0.057795
H176	H	1.089153	0.460419	0.557795
C177	C	0.838842	-0.218042	-0.084951
C178	C	1.338842	0.281958	0.415049
C179	C	0.887855	-0.240653	0.000076
C180	C	1.387855	0.259347	0.500076
H181	H	0.783061	-0.237155	-0.084964
H182	H	1.283061	0.262845	0.415036
H183	H	0.828094	-0.168282	-0.084943
H184	H	1.328094	0.331718	0.415057
H185	H	0.872130	-0.233364	-0.142612
H186	H	1.372130	0.266636	0.357388
H187	H	0.854570	-0.225326	0.057737
H188	H	1.354570	0.274674	0.557737
H189	H	0.898601	-0.290423	0.000077
H190	H	1.398601	0.209577	0.500077
C191	C	1.234259	-0.317710	0.085156
C192	C	1.734259	0.182290	0.585156
C193	C	1.230096	-0.275320	0.000140
C194	C	1.730096	0.224680	0.500140
H195	H	1.289108	-0.348027	0.085166
H196	H	1.789108	0.151973	0.585166
H197	H	1.231400	-0.288964	0.142817
H198	H	1.731400	0.211036	0.642817
H199	H	1.185099	-0.344897	0.085131
H200	H	1.685099	0.155103	0.585131
H201	H	1.279253	-0.248129	0.000168
H202	H	1.779253	0.251871	0.500168
H203	H	1.232964	-0.304069	-0.057537
H204	H	1.732964	0.195931	0.442463
H205	H	0.945533	0.182414	0.433969
H206	H	1.445533	0.682414	0.933969
H207	H	1.166946	0.010442	0.755076
H208	H	1.666946	0.510442	1.255076
C209	C	0.874598	0.237513	0.702215
C210	C	1.374598	0.737513	1.202215
C211	C	0.928170	0.195920	0.769887
C212	C	1.428170	0.695920	1.269887
H213	H	0.833185	0.269663	0.737538
H214	H	1.333185	0.769663	1.237538
H215	H	0.911712	0.262688	0.661605
H216	H	1.411712	0.762688	1.161605
H217	H	0.842554	0.208393	0.661620
H218	H	1.342554	0.708393	1.161620
H219	H	0.960220	0.225039	0.810478
H220	H	1.460220	0.725039	1.310478
H221	H	0.891052	0.170743	0.810515
H222	H	1.391052	0.670743	1.310515
H223	H	1.209564	-0.130467	0.000151
H224	H	1.709564	0.369533	0.500151
H225	H	0.913768	-0.100507	0.000084
H226	H	1.413768	0.399493	0.500084
C227	C	0.975433	0.238818	0.491460
C228	C	1.475433	0.738818	0.991460
C229	C	0.928163	0.195928	0.551341
C230	C	1.428163	0.695928	1.051341
H231	H	0.934029	0.270979	0.456127
H232	H	1.434029	0.770979	0.956127
H233	H	1.012557	0.263981	0.532058
H234	H	1.512557	0.763981	1.032058
H235	H	1.011759	0.210578	0.445573
H236	H	1.511759	0.710578	0.945573
H237	H	0.891841	0.224168	0.597233
H238	H	1.391841	0.724168	1.097233
H239	H	0.891023	0.170763	0.510740
H240	H	1.391023	0.670763	1.010740
H241	H	1.201180	-0.574506	0.000098
H242	H	1.701180	-0.074506	0.500098
H243	H	1.198683	-0.706623	0.000065
H244	H	1.698683	-0.206623	0.500065
C245	C	0.875244	-0.036588	-0.084919
C246	C	1.375244	0.463412	0.415081
C247	C	0.820937	-0.033501	0.000099
C248	C	1.320937	0.466499	0.500099
H249	H	0.914310	-0.079276	-0.084905
H250	H	1.414310	0.420724	0.415095
H251	H	0.838395	-0.034485	-0.142579
H252	H	1.338395	0.465515	0.357421
H253	H	0.909868	0.001898	-0.084919
H254	H	1.409868	0.501898	0.415081
H255	H	0.786307	-0.071985	0.000096
H256	H	1.286307	0.428015	0.500096
H257	H	0.857789	-0.035611	0.057774
H258	H	1.357789	0.464389	0.557774
H259	H	0.902894	-0.676672	0.000028
H260	H	1.402894	-0.176672	0.500028
H261	H	0.905387	-0.544550	0.000048
H262	H	1.405387	-0.044550	0.500048
C263	C	1.237829	-0.044680	0.297978
C264	C	1.737829	0.455320	0.797978
C265	C	1.184280	-0.003077	0.230298
C266	C	1.684280	0.496923	0.730298
H267	H	1.279222	-0.076851	0.262663
H268	H	1.779222	0.423149	0.762663
H269	H	1.269889	-0.015574	0.338563
H270	H	1.769889	0.484426	0.838563
H271	H	1.200691	-0.069838	0.338599
H272	H	1.700691	0.430162	0.838599
H273	H	1.221418	0.022085	0.189681
H274	H	1.721418	0.522085	0.689681
H275	H	1.152218	-0.032186	0.189696
H276	H	1.652218	0.467814	0.689696
H277	H	0.477182	0.210943	0.000054
H278	H	0.977182	0.710943	0.500054
H279	H	1.166931	0.010440	0.566209
H280	H	1.666931	0.510440	1.066209
