data_functionalizedCrystal
_audit_creation_method	'MofGen! by Chris Wilmer'
_symmetry_space_group_name_H-M	'P1'
_symmetry_Int_Tables_number	1
_symmetry_cell_setting	triclinic
loop_
_symmetry_equiv_pos_as_xyz
  x,y,z
_cell_length_a	23.532407
_cell_length_b	19.188930
_cell_length_c	18.266242
_cell_angle_alpha	90.011475
_cell_angle_beta	90.003702
_cell_angle_gamma	82.996730
loop_
_atom_site_label
_atom_site_type_symbol
_atom_site_fract_x
_atom_site_fract_y
_atom_site_fract_z
O1	O	-0.755443	-0.084758	-0.060798
O2	O	-0.255443	0.415242	0.439202
O3	O	-0.589606	-0.097021	-0.060820
O4	O	-0.089606	0.402979	0.439180
O5	O	-0.677310	0.010782	-0.060794
O6	O	-0.177310	0.510782	0.439206
O7	O	-0.667739	-0.192560	-0.060824
O8	O	-0.167739	0.307440	0.439176
O9	O	-0.677295	0.010787	0.060968
O10	O	-0.177295	0.510787	0.560968
O11	O	-0.589591	-0.097016	0.060942
O12	O	-0.089591	0.402984	0.560942
O13	O	-0.755428	-0.084752	0.060964
O14	O	-0.255428	0.415248	0.560964
Zn15	Zn	-0.672507	-0.090883	0.080285
Zn16	Zn	-0.172507	0.409117	0.580285
Zn17	Zn	-0.672527	-0.090890	-0.080141
Zn18	Zn	-0.172527	0.409110	0.419859
O19	O	-0.667724	-0.192555	0.060938
O20	O	-0.167724	0.307445	0.560938
C21	C	-0.568382	-0.096706	0.000058
C22	C	-0.068382	0.403294	0.500058
C23	C	-0.505163	-0.095767	0.000050
C24	C	-0.005163	0.404233	0.500050
C25	C	-0.676993	0.036794	0.000089
C26	C	-0.176993	0.536794	0.500089
C27	C	-0.676062	0.114296	0.000095
C28	C	-0.176062	0.614296	0.500095
C29	C	-0.776652	-0.085067	0.000084
C30	C	-0.276652	0.414933	0.500084
C31	C	-0.839871	-0.086006	0.000088
C32	C	-0.339871	0.413994	0.500088
C33	C	-0.106183	-0.153674	0.000075
C34	C	0.393817	0.346326	0.500075
C35	C	-0.046780	-0.152801	0.000079
C36	C	0.453220	0.347199	0.500079
O37	O	-0.010150	-0.206481	0.000098
O38	O	0.489850	0.293519	0.500098
N39	N	-0.024018	-0.088713	0.000087
N40	N	0.475982	0.411287	0.500087
C41	C	-0.060662	-0.025492	0.000098
C42	C	0.439338	0.474508	0.500098
O43	O	-0.035846	0.029100	0.000107
O44	O	0.464154	0.529100	0.500107
C45	C	-0.120062	-0.026365	0.000099
C46	C	0.379938	0.473635	0.500099
C47	C	-0.142821	-0.090458	0.000083
C48	C	0.357179	0.409542	0.500083
C49	C	-0.128942	-0.217761	0.000060
C50	C	0.371058	0.282239	0.500060
C51	C	-0.188340	-0.218633	0.000054
C52	C	0.311660	0.281367	0.500054
C53	C	-0.224979	-0.155417	0.000063
C54	C	0.275021	0.344583	0.500063
C55	C	-0.202219	-0.091330	0.000078
C56	C	0.297781	0.408670	0.500078
C57	C	-0.156705	0.036855	0.000115
C58	C	0.343295	0.536855	0.500115
C59	C	-0.216109	0.035976	0.000117
C60	C	0.283891	0.535976	0.500117
C61	C	-0.238868	-0.028116	0.000101
C62	C	0.261132	0.471884	0.500101
C63	C	-0.298256	-0.028986	0.000080
C64	C	0.201744	0.471014	0.500080
N65	N	-0.321018	-0.093075	0.000072
N66	N	0.178982	0.406925	0.500072
C67	C	-0.284379	-0.156290	0.000063
C68	C	0.215621	0.343710	0.500063
C69	C	0.064085	-0.023664	0.000098
C70	C	0.564085	0.476336	0.500098
C71	C	0.123485	-0.022790	0.000093
C72	C	0.623485	0.477210	0.500093
C73	C	0.137362	-0.150099	0.000075
C74	C	0.637362	0.349901	0.500075
C75	C	0.077961	-0.150972	0.000075
C76	C	0.577961	0.349028	0.500075
C77	C	0.041323	-0.087752	0.000090
C78	C	0.541323	0.412248	0.500090
C79	C	-0.409120	-0.158117	0.000050
C80	C	0.090880	0.341883	0.500050
C81	C	-0.468524	-0.158983	0.000041
C82	C	0.031476	0.341017	0.500041
C83	C	-0.482396	-0.031674	0.000063
C84	C	0.017604	0.468326	0.500063
C85	C	-0.422997	-0.030807	0.000068
C86	C	0.077003	0.469193	0.500068
C87	C	-0.386360	-0.094034	0.000064
C88	C	0.113640	0.405966	0.500064
O89	O	-0.334921	0.024666	0.000065
O90	O	0.165079	0.524666	0.500065
O91	O	-0.309203	-0.210874	0.000065
O92	O	0.190797	0.289126	0.500065
C93	C	-0.668041	-0.218568	0.000053
C94	C	-0.168041	0.281432	0.500053
C95	C	-0.668972	-0.296069	0.000042
C96	C	-0.168972	0.203931	0.500042
N97	N	-0.672498	-0.090878	0.189772
N98	N	-0.172498	0.409122	0.689772
C99	C	-0.727524	0.159384	0.000106
C100	C	-0.227524	0.659384	0.500106
C101	C	-0.726650	0.232205	0.000094
C102	C	-0.226650	0.732205	0.500094
C103	C	-0.674311	0.259935	0.000086
C104	C	-0.174311	0.759935	0.500086
C105	C	-0.622842	0.214837	0.000072
C106	C	-0.122842	0.714837	0.500072
C107	C	-0.623718	0.142017	0.000076
C108	C	-0.123718	0.642017	0.500076
N109	N	-0.634299	0.367814	0.041519
N110	N	-0.134299	0.867814	0.541519
N111	N	-0.633471	0.436990	0.041516
N112	N	-0.133471	0.936990	0.541516
C113	C	-0.671670	0.479335	0.000071
C114	C	-0.171670	0.979335	0.500071
N115	N	-0.710737	0.449892	-0.041362
N116	N	-0.210737	0.949892	0.458638
N117	N	-0.711567	0.380710	-0.041356
N118	N	-0.211567	0.880710	0.458644
C119	C	-0.673356	0.338894	0.000081
C120	C	-0.173356	0.838894	0.500081
C121	C	-0.722188	0.603384	0.000068
C122	C	-0.222188	1.103384	0.500068
C123	C	-0.721311	0.676206	0.000051
C124	C	-0.221311	1.176206	0.500051
C125	C	-0.617502	0.658836	0.000036
C126	C	-0.117502	1.158836	0.500036
C127	C	-0.618380	0.586016	0.000045
C128	C	-0.118380	1.086016	0.500045
C129	C	-0.670724	0.558295	0.000064
C130	C	-0.170724	1.058295	0.500064
N131	N	-0.672541	-0.090890	-0.189628
N132	N	-0.172541	0.409110	0.310372
C133	C	-0.711346	-0.043166	0.228093
C134	C	-0.211346	0.456834	0.728093
C135	C	-0.711350	-0.043163	0.304738
C136	C	-0.211350	0.456837	0.804738
C137	C	-0.672511	-0.090883	0.343059
C138	C	-0.172511	0.409117	0.843059
C139	C	-0.633655	-0.138599	0.304729
C140	C	-0.133655	0.361401	0.804729
C141	C	-0.633649	-0.138596	0.228086
C142	C	-0.133649	0.361404	0.728086
N143	N	-0.665108	-0.152714	0.463382
N144	N	-0.165108	0.347286	0.963382
N145	N	-0.665117	-0.152715	0.536190
N146	N	-0.165117	0.347285	1.036190
C147	C	-0.672527	-0.090893	0.573982
C148	C	-0.172527	0.409107	1.073982
N149	N	-0.679937	-0.029069	0.536215
N150	N	-0.179937	0.470931	1.036215
N151	N	-0.679931	-0.029069	0.463400
N152	N	-0.179931	0.470931	0.963400
C153	C	-0.672513	-0.090891	0.426166
C154	C	-0.172513	0.409109	0.926166
C155	C	-0.711381	-0.043174	0.695409
C156	C	-0.211381	0.456826	1.195409
C157	C	-0.711381	-0.043170	0.772056
C158	C	-0.211381	0.456830	1.272056
C159	C	-0.633689	-0.138612	0.772046
C160	C	-0.133689	0.361388	1.272046
C161	C	-0.633686	-0.138610	0.695401
C162	C	-0.133686	0.361390	1.195401
C163	C	-0.672536	-0.090892	0.657087
C164	C	-0.172536	0.409108	1.157087
H165	H	-0.487050	-0.211177	0.000028
H166	H	0.012950	0.288823	0.500028
H167	H	-0.138185	0.089046	0.000129
H168	H	0.361815	0.589046	0.500129
N169	N	-0.591752	-0.190067	0.186752
N170	N	-0.091752	0.309933	0.686752
H171	H	-0.597644	-0.182826	0.132384
H172	H	-0.097644	0.317174	0.632384
H173	H	-0.551373	-0.182253	0.200156
H174	H	-0.051373	0.317747	0.700156
N175	N	0.024567	0.044526	0.000099
N176	N	0.524567	0.544526	0.500099
H177	H	-0.000387	0.047010	0.045236
H178	H	0.499613	0.547010	0.545236
H179	H	0.048043	0.085216	0.000074
H180	H	0.548043	0.585216	0.500074
H181	H	-0.743014	-0.004313	0.803257
H182	H	-0.243014	0.495687	1.303257
N183	N	-0.255626	0.104165	0.000137
N184	N	0.244374	0.604165	0.500137
H185	H	-0.232190	0.144895	0.000148
H186	H	0.267810	0.644895	0.500148
H187	H	-0.280575	0.106581	-0.045002
H188	H	0.219425	0.606581	0.454998
N189	N	-0.398446	0.038319	0.000071
N190	N	0.101554	0.538319	0.500071
H191	H	-0.430672	0.078233	0.000072
H192	H	0.069328	0.578233	0.500072
H193	H	-0.374105	0.041458	0.045214
H194	H	0.125895	0.541458	0.545214
H195	H	-0.742986	-0.004308	0.335944
H196	H	-0.242986	0.495692	0.835944
H197	H	-0.580227	0.237419	0.000064
H198	H	-0.080227	0.737419	0.500064
H199	H	-0.379297	-0.209602	0.000049
H200	H	0.120703	0.290398	0.500049
H201	H	-0.574886	0.681413	0.000026
H202	H	-0.074886	1.181413	0.500026
H203	H	-0.512238	0.019795	0.000067
H204	H	-0.012238	0.519795	0.500067
H205	H	-0.602063	-0.177464	0.803247
H206	H	-0.102063	0.322536	1.303247
N207	N	-0.591793	-0.190083	0.654066
N208	N	-0.091793	0.309917	1.154066
H209	H	-0.597683	-0.182841	0.599699
H210	H	-0.097683	0.317159	1.099699
H211	H	-0.551415	-0.182271	0.667473
H212	H	-0.051415	0.317729	1.167473
H213	H	-0.770147	0.136819	0.000119
H214	H	-0.270147	0.636819	0.500119
H215	H	-0.742978	-0.004309	0.196900
H216	H	-0.242978	0.495691	0.696900
H217	H	-0.768558	0.268923	0.000100
H218	H	-0.268558	0.768923	0.500100
N219	N	-0.591761	-0.190066	0.346056
N220	N	-0.091761	0.309934	0.846056
H221	H	-0.597660	-0.182829	0.400425
H222	H	-0.097660	0.317171	0.900425
H223	H	-0.598210	-0.239557	0.332644
H224	H	-0.098210	0.260443	0.832644
N225	N	-0.778642	0.573481	0.000087
N226	N	-0.278642	1.073481	0.500087
H227	H	-0.771389	0.520508	0.000098
H228	H	-0.271389	1.020508	0.500098
H229	H	-0.801143	0.590018	0.045231
H230	H	-0.301143	1.090018	0.545231
N231	N	0.148028	0.046338	0.000096
N232	N	0.648028	0.546338	0.500096
H233	H	0.115799	0.086249	0.000100
H234	H	0.615799	0.586249	0.500100
H235	H	0.172371	0.049479	0.045237
H236	H	0.672371	0.549479	0.545237
H237	H	0.167204	-0.201573	0.000071
H238	H	0.667204	0.298427	0.500071
N239	N	-0.212883	-0.287762	0.000033
N240	N	0.287117	0.212238	0.500033
H241	H	-0.180652	-0.327671	0.000028
H242	H	0.319348	0.172329	0.500028
H243	H	-0.237225	-0.290902	0.045169
H244	H	0.262775	0.209098	0.545169
N245	N	-0.568210	0.093381	0.000064
N246	N	-0.068210	0.593381	0.500064
H247	H	-0.534919	0.121994	0.000055
H248	H	-0.034919	0.621994	0.500055
H249	H	-0.566307	0.062801	0.045206
H250	H	-0.066307	0.562801	0.545206
N251	N	-0.089430	-0.285950	0.000092
N252	N	0.410570	0.214050	0.500092
H253	H	-0.112870	-0.326675	0.000096
H254	H	0.387130	0.173325	0.500096
H255	H	-0.064470	-0.288392	-0.045036
H256	H	0.435530	0.211608	0.454964
N257	N	-0.753278	0.008292	0.654078
N258	N	-0.253278	0.508292	1.154078
H259	H	-0.777887	0.038523	0.689988
H260	H	-0.277887	0.538523	1.189988
H261	H	-0.731553	0.039023	0.622288
H262	H	-0.231553	0.539023	1.122288
H263	H	-0.763220	0.712917	0.000056
H264	H	-0.263220	1.212917	0.500056
H265	H	0.059435	-0.203162	0.000067
H266	H	0.559435	0.296838	0.500067
N267	N	-0.562874	0.537379	0.000038
N268	N	-0.062874	1.037379	0.500038
H269	H	-0.529583	0.565993	0.000032
H270	H	-0.029583	1.065993	0.500032
H271	H	-0.560971	0.506798	0.045179
H272	H	-0.060971	1.006798	0.545179
