data_functionalizedCrystal
_audit_creation_method	'MofGen! by Chris Wilmer'
_symmetry_space_group_name_H-M	'P1'
_symmetry_Int_Tables_number	1
_symmetry_cell_setting	triclinic
loop_
_symmetry_equiv_pos_as_xyz
  x,y,z
_cell_length_a	13.897447
_cell_length_b	18.101398
_cell_length_c	13.897441
_cell_angle_alpha	90.017233
_cell_angle_beta	90.029327
_cell_angle_gamma	90.017682
loop_
_atom_site_label
_atom_site_type_symbol
_atom_site_fract_x
_atom_site_fract_y
_atom_site_fract_z
Zn1	Zn	-0.384032	1.132202	0.545300
Zn2	Zn	0.115968	1.632202	1.045300
Zn3	Zn	-0.545353	1.132116	0.384005
Zn4	Zn	-0.045353	1.632116	0.884005
Zn5	Zn	-0.384069	1.008354	0.384028
Zn6	Zn	0.115931	1.508354	0.884028
Zn7	Zn	-0.545281	1.008336	0.545267
Zn8	Zn	-0.045281	1.508336	1.045267
O9	O	-0.464684	1.070252	0.464650
O10	O	0.035316	1.570252	0.964650
O11	O	-0.405446	1.235823	0.523907
O12	O	0.094554	1.735823	1.023907
O13	O	-0.524004	1.115671	0.249026
O14	O	-0.024004	1.615671	0.749026
O15	O	-0.249082	1.024826	0.405444
O16	O	0.250918	1.524826	0.905444
O17	O	-0.523968	1.235760	0.405405
O18	O	-0.023968	1.735760	0.905405
O19	O	-0.249055	1.115816	0.523930
O20	O	0.250945	1.615816	1.023930
O21	O	-0.405509	1.024743	0.249043
O22	O	0.094491	1.524743	0.749043
O23	O	-0.405439	0.904719	0.405413
O24	O	0.094561	1.404719	0.905413
O25	O	-0.523845	1.024796	0.680253
O26	O	-0.023845	1.524796	1.180253
O27	O	-0.523881	0.904706	0.523874
O28	O	-0.023881	1.404706	1.023874
O29	O	-0.405376	1.115799	0.680277
O30	O	0.094624	1.615799	1.180277
O31	O	-0.680326	1.115653	0.405373
O32	O	-0.180326	1.615653	0.905373
O33	O	-0.680272	1.024713	0.523852
O34	O	-0.180272	1.524713	1.023852
C35	C	-0.464657	0.877842	0.464643
C36	C	0.035343	1.377842	0.964643
C37	C	-0.464669	0.795528	0.464663
C38	C	0.035331	1.295528	0.964663
C39	C	-0.464687	0.644819	0.464662
C40	C	0.035313	1.144819	0.964662
C41	C	-0.539322	0.613482	0.539079
C42	C	-0.039322	1.113482	1.039079
C43	C	-0.539625	0.527863	0.538859
C44	C	-0.039625	1.027863	1.038859
C45	C	-0.464705	0.496437	0.464662
C46	C	0.035295	0.996437	0.964662
C47	C	-0.491839	0.527490	0.362883
C48	C	0.008161	1.027490	0.862883
C49	C	-0.492370	0.613135	0.363314
C50	C	0.007630	1.113135	0.863314
C51	C	-0.362733	0.613283	0.491134
C52	C	0.137267	1.113283	0.991134
C53	C	-0.363292	0.527633	0.493375
C54	C	0.136708	1.027633	0.993375
C55	C	-0.464713	0.412577	0.464655
C56	C	0.035287	0.912577	0.964655
C57	C	-0.464681	0.728679	0.464661
C58	C	0.035319	1.228679	0.964661
C59	C	-0.715298	1.070192	0.464627
C60	C	-0.215298	1.570192	0.964627
C61	C	-0.822512	1.070234	0.464650
C62	C	-0.322512	1.570234	0.964650
C63	C	-0.909582	1.070270	0.464672
C64	C	-0.409582	1.570270	0.964672
C65	C	-1.018814	1.070322	0.464697
C66	C	-0.518814	1.570322	0.964697
C67	C	-0.213091	1.070333	0.464693
C68	C	0.286909	1.570333	0.964693
C69	C	-0.105877	1.070367	0.464712
C70	C	0.394123	1.570367	0.964712
C71	C	-0.464599	1.070305	0.716243
C72	C	0.035401	1.570305	1.216243
C73	C	-0.464562	1.070327	0.823457
C74	C	0.035438	1.570327	1.323457
C75	C	-0.464711	1.263414	0.464657
C76	C	0.035289	1.763414	0.964657
C77	C	-0.464723	1.345728	0.464660
C78	C	0.035277	1.845728	0.964660
C79	C	-0.464699	1.070242	0.214035
C80	C	0.035301	1.570242	0.714035
C81	C	-0.464464	1.070364	0.106822
C82	C	0.035536	1.570364	0.606822
C83	C	-0.464497	1.070347	1.019752
C84	C	0.035503	1.570347	1.519752
C85	C	-0.464536	1.070334	0.910520
C86	C	0.035464	1.570334	1.410520
H87	H	-0.307131	0.633549	0.436937
H88	H	0.192869	1.133549	0.936937
H89	H	-0.342823	0.507340	0.568278
H90	H	0.157177	1.007340	1.068278
C91	C	-0.329242	0.642487	0.589705
C92	C	0.170758	1.142487	1.089705
H93	H	-0.267583	0.622796	0.604308
H94	H	0.232417	1.122796	1.104308
H95	H	-0.373842	0.627814	0.637824
H96	H	0.126158	1.127814	1.137824
H97	H	-0.325629	0.694876	0.587789
H98	H	0.174371	1.194876	1.087789
H99	H	-0.615177	0.507353	0.521296
H100	H	-0.115177	1.007353	1.021296
C101	C	-0.593031	0.640093	0.333099
C102	C	-0.093031	1.140093	0.833099
H103	H	-0.633216	0.598703	0.320682
H104	H	-0.133216	1.098703	0.820682
H105	H	-0.587886	0.669312	0.276567
H106	H	-0.087886	1.169312	0.776567
H107	H	-0.620103	0.668886	0.383424
H108	H	-0.120103	1.168886	0.883424
H109	H	-0.522697	0.506869	0.614313
H110	H	-0.022697	1.006869	1.114313
C111	C	-0.516726	0.641336	0.641331
C112	C	-0.016726	1.141336	1.141331
H113	H	-0.461577	0.672330	0.639558
H114	H	0.038423	1.172330	1.139558
H115	H	-0.504582	0.600370	0.682275
H116	H	-0.004582	1.100370	1.182275
H117	H	-0.570080	0.668509	0.665239
H118	H	-0.070080	1.168509	1.165239
C119	C	-0.640804	0.642516	0.515641
C120	C	-0.140804	1.142516	1.015641
H121	H	-0.637887	0.673650	0.460698
H122	H	-0.137887	1.173650	0.960698
H123	H	-0.664732	0.669773	0.568918
H124	H	-0.164732	1.169773	1.068918
H125	H	-0.682400	0.602030	0.502825
H126	H	-0.182400	1.102030	1.002825
C127	C	-0.284203	0.498748	0.425542
C128	C	0.215797	0.998748	0.925542
H129	H	-0.312121	0.467148	0.378609
H130	H	0.187879	0.967148	0.878609
H131	H	-0.237817	0.472019	0.461714
H132	H	0.262183	0.972019	0.961714
H133	H	-0.253888	0.539266	0.394433
H134	H	0.246112	1.039266	0.894433
C135	C	-0.422089	0.641142	0.285832
C136	C	0.077911	1.141142	0.785832
H137	H	-0.393347	0.600176	0.254226
H138	H	0.106653	1.100176	0.754226
H139	H	-0.373448	0.670318	0.315251
H140	H	0.126552	1.170318	0.815251
H141	H	-0.456123	0.670202	0.240207
H142	H	0.043877	1.170202	0.740207
H143	H	-0.439145	0.507133	0.305914
H144	H	0.060855	1.007133	0.805914
C145	C	-0.591404	0.498494	0.332140
C146	C	-0.091404	0.998494	0.832140
H147	H	-0.616569	0.467473	0.381186
H148	H	-0.116569	0.967473	0.881186
H149	H	-0.585387	0.471126	0.274123
H150	H	-0.085387	0.971126	0.774123
H151	H	-0.633691	0.539003	0.322167
H152	H	-0.133691	1.039003	0.822167
