data_functionalizedCrystal
_audit_creation_method	'MofGen! by Chris Wilmer'
_symmetry_space_group_name_H-M	'P1'
_symmetry_Int_Tables_number	1
_symmetry_cell_setting	triclinic
loop_
_symmetry_equiv_pos_as_xyz
  x,y,z
_cell_length_a	16.109302
_cell_length_b	10.489741
_cell_length_c	14.586319
_cell_angle_alpha	89.996488
_cell_angle_beta	89.994552
_cell_angle_gamma	84.000477
loop_
_atom_site_label
_atom_site_type_symbol
_atom_site_fract_x
_atom_site_fract_y
_atom_site_fract_z
O1	O	1.104141	0.163951	-0.076281
O2	O	0.862205	0.184353	-0.076274
O3	O	0.988678	-0.011525	-0.076272
O4	O	0.977668	0.359830	-0.076283
O5	O	0.988669	-0.011528	0.076209
O6	O	0.862196	0.184350	0.076207
O7	O	1.104132	0.163948	0.076200
Cu8	Cu	0.983163	0.174149	0.090126
Cu9	Cu	0.983174	0.174153	-0.090200
O10	O	0.977659	0.359827	0.076198
C11	C	0.831220	0.183525	-0.000032
C12	C	0.738910	0.181047	-0.000030
C13	C	0.526529	0.175315	0.083079
C14	C	0.439794	0.172973	0.083076
C15	C	0.439815	0.172983	-0.083167
C16	C	0.526548	0.175316	-0.083163
C17	C	0.569903	0.176489	-0.000037
C18	C	0.396434	0.171813	-0.000045
C19	C	0.302393	0.169274	-0.000049
C20	C	0.663950	0.179026	-0.000033
C21	C	0.987842	-0.059046	-0.000032
C22	C	0.985354	-0.200640	-0.000034
C23	C	0.904883	-0.267613	-0.000038
C24	C	0.942892	-0.360288	0.075142
C25	C	0.942920	-0.360260	-0.075192
C26	C	1.023397	-0.291450	0.075208
C27	C	1.023413	-0.291413	-0.075194
C28	C	1.061481	-0.384061	0.000005
C29	C	1.135117	0.164776	-0.000044
C30	C	1.227427	0.167255	-0.000052
C31	C	0.978495	0.407348	-0.000044
C32	C	0.980983	0.548942	-0.000048
N33	N	0.983162	0.174146	0.216958
N34	N	0.983182	0.174146	-0.217032
C35	C	1.039183	0.087440	0.451965
C36	C	1.039186	0.087437	0.547946
C37	C	0.927154	0.260856	0.547954
C38	C	0.927149	0.260852	0.451975
C39	C	0.983168	0.174145	0.403983
C40	C	0.983176	0.174146	0.595943
C41	C	0.983178	0.174144	0.700011
C42	C	0.983165	0.174146	0.299909
H43	H	0.561864	0.176268	-0.150851
Br44	Br	0.585365	0.176902	0.195891
Br45	Br	1.080125	-0.240486	-0.181139
H46	H	0.404483	0.172018	0.150757
Br47	Br	0.851133	0.378527	0.613089
Br48	Br	0.886152	-0.411083	-0.181120
Br49	Br	0.851116	0.378522	0.386848
Br50	Br	1.080097	-0.240897	0.181261
Br51	Br	0.380974	0.171353	-0.195975
H52	H	0.838720	-0.217002	0.000040
Br53	Br	1.115205	-0.030245	0.613064
Br54	Br	1.171855	-0.468043	0.000064
Br55	Br	1.115207	-0.030235	0.386836
H56	H	0.908839	-0.390807	0.138703
