data_functionalizedCrystal
_audit_creation_method	'MofGen! by Chris Wilmer'
_symmetry_space_group_name_H-M	'P1'
_symmetry_Int_Tables_number	1
_symmetry_cell_setting	triclinic
loop_
_symmetry_equiv_pos_as_xyz
  x,y,z
_cell_length_a	6.817900
_cell_length_b	11.102289
_cell_length_c	9.582880
_cell_angle_alpha	90.972692
_cell_angle_beta	111.207034
_cell_angle_gamma	108.605707
loop_
_atom_site_label
_atom_site_type_symbol
_atom_site_fract_x
_atom_site_fract_y
_atom_site_fract_z
V1	V	-4.142615	-0.175303	-0.466601
O2	O	-4.101056	0.008976	-0.457719
O3	O	-4.119180	-0.348127	-0.463410
O4	O	-4.132953	-0.172364	-0.670102
O5	O	-4.087187	-0.168003	-0.249596
V6	V	-4.617989	-0.153290	-0.440646
O7	O	-4.421750	-0.223591	-0.523537
O8	O	-4.789051	-0.105002	-0.383710
O9	O	-4.418218	0.019534	-0.443837
O10	O	-4.776945	-0.337568	-0.449527
O11	O	-4.790814	-0.160589	-0.657651
O12	O	-4.404444	-0.156228	-0.237145
C13	C	-3.969000	-0.390265	-0.456049
C14	C	-4.031384	-0.531549	-0.454796
C15	C	-4.245196	-0.604390	-0.461672
C16	C	-4.303807	-0.737142	-0.460508
C17	C	-3.934767	-0.724202	-0.445584
C18	C	-3.876166	-0.591453	-0.446759
C19	C	-4.458256	-0.611861	-0.470282
C20	C	-4.516866	-0.744614	-0.469118
C21	C	-3.986568	-0.166061	-0.719704
C22	C	-4.060117	-0.164802	-0.886067
C23	C	-4.231739	0.061666	-0.451194
C24	C	-4.148596	0.202949	-0.452456
C25	C	-4.214170	-0.162536	-0.187535
C26	C	-4.119858	-0.163788	-0.021171
H27	H	-4.577372	-0.592516	-0.579120
C28	C	-4.448748	-0.540798	-0.329672
C29	C	-4.389372	-0.409075	-0.338381
C30	C	-4.380556	-0.343568	-0.208868
H31	H	-4.591695	-0.571725	-0.323226
H32	H	-4.340055	-0.554772	-0.242348
H33	H	-4.498059	-0.395109	-0.425680
H34	H	-4.246421	-0.378111	-0.344805
H35	H	-4.271864	-0.357542	-0.121544
H36	H	-4.523508	-0.374506	-0.202433
H37	H	-4.340250	-0.254187	-0.214753
C38	C	-4.702560	-0.821387	-0.617027
C39	C	-4.765825	-0.736931	-0.716209
C40	C	-4.936887	-0.807609	-0.852466
H41	H	-4.649931	-0.874987	-0.661455
H42	H	-4.828340	-0.873010	-0.597748
H43	H	-4.640069	-0.685330	-0.735490
H44	H	-4.818493	-0.683330	-0.671829
H45	H	-5.062668	-0.859232	-0.833187
H46	H	-4.884241	-0.861206	-0.896879
H47	H	-4.979848	-0.750316	-0.919772
C48	C	-4.575860	-0.778215	-0.332720
C49	C	-4.430644	-0.835960	-0.240805
C50	C	-4.484909	-0.866936	-0.115146
H51	H	-4.560755	-0.702163	-0.276545
H52	H	-4.726287	-0.836134	-0.366009
H53	H	-4.280254	-0.778044	-0.207515
H54	H	-4.445727	-0.912024	-0.296934
H55	H	-4.635336	-0.924855	-0.148435
H56	H	-4.469804	-0.790878	-0.058984
H57	H	-4.386403	-0.906130	-0.052774
H58	H	-3.702073	-0.532153	-0.441177
H59	H	-3.808404	-0.772991	-0.439042
