data_functionalizedCrystal
_audit_creation_method	'MofGen! by Chris Wilmer'
_symmetry_space_group_name_H-M	'P1'
_symmetry_Int_Tables_number	1
_symmetry_cell_setting	triclinic
loop_
_symmetry_equiv_pos_as_xyz
  x,y,z
_cell_length_a	14.971486
_cell_length_b	27.732048
_cell_length_c	13.448316
_cell_angle_alpha	89.988441
_cell_angle_beta	89.998199
_cell_angle_gamma	83.128392
loop_
_atom_site_label
_atom_site_type_symbol
_atom_site_fract_x
_atom_site_fract_y
_atom_site_fract_z
O1	O	1.185952	0.062991	-0.082589
O2	O	0.925433	0.070534	-0.082617
O3	O	1.063784	-0.003597	-0.082583
O4	O	1.047601	0.137122	-0.082623
O5	O	1.063766	-0.003601	0.082801
O6	O	0.925416	0.070530	0.082767
O7	O	1.185935	0.062986	0.082795
Cu8	Cu	1.055674	0.066758	0.097882
Cu9	Cu	1.055694	0.066763	-0.097704
O10	O	1.047584	0.137117	0.082761
C11	C	0.892105	0.070195	0.000071
C12	C	0.792824	0.069184	0.000061
C13	C	0.734910	0.112734	0.000051
C14	C	0.641626	0.111781	0.000066
C15	C	0.606257	0.067278	0.000084
C16	C	0.664177	0.023724	0.000098
C17	C	0.757460	0.024678	0.000090
C18	C	0.469746	0.021740	0.000113
C19	C	0.376457	0.020787	0.000119
C20	C	0.353912	0.108844	0.000088
C21	C	0.447195	0.109797	0.000080
C22	C	0.505109	0.066243	0.000092
C23	C	1.063435	-0.021608	0.000111
C24	C	1.062412	-0.075267	0.000120
C25	C	1.137729	-0.413735	0.000077
C26	C	1.133934	-0.615412	0.000062
O27	O	1.202806	-0.646350	0.000026
N28	N	1.051898	-0.634914	0.000054
C29	C	0.970804	-0.603994	0.000043
O30	O	0.900940	-0.625209	0.000026
C31	C	0.974601	-0.402318	0.000051
C32	C	1.056642	-0.382818	0.000069
C33	C	1.219764	-0.394235	0.000094
C34	C	1.220712	-0.343819	0.000103
C35	C	1.139625	-0.312902	0.000095
C36	C	1.057590	-0.332402	0.000078
C37	C	0.893508	-0.371398	0.000033
C38	C	0.894464	-0.320976	0.000032
C39	C	0.976506	-0.301477	0.000050
C40	C	0.977451	-0.251069	0.000079
N41	N	1.059487	-0.231567	0.000087
C42	C	1.140574	-0.262483	0.000095
C43	C	0.968817	-0.709877	0.000042
C44	C	0.967868	-0.760296	0.000042
C45	C	1.130998	-0.771710	0.000059
C46	C	1.131946	-0.721291	0.000066
C47	C	1.050854	-0.690375	0.000050
C48	C	1.142559	-0.156605	0.000114
C49	C	1.143500	-0.106184	0.000128
C50	C	0.980370	-0.094773	0.000105
C51	C	0.979429	-0.145190	0.000097
C52	C	1.060530	-0.176105	0.000099
O53	O	0.908616	-0.220103	0.000104
O54	O	1.210428	-0.241258	0.000090
C55	C	1.136781	-0.464151	0.000068
C56	C	1.054746	-0.483651	0.000051
C57	C	0.973659	-0.452734	0.000043
C58	C	1.053797	-0.534070	0.000051
C59	C	1.134884	-0.564986	0.000059
C60	C	1.216921	-0.545484	0.000067
C61	C	1.217868	-0.495067	0.000076
C62	C	0.891623	-0.472237	0.000035
C63	C	0.890682	-0.522654	0.000027
C64	C	0.971769	-0.553570	0.000035
C65	C	1.219263	0.063326	0.000104
C66	C	1.318544	0.064337	0.000108
C67	C	1.047932	0.155128	0.000064
C68	C	1.048955	0.208788	0.000050
N69	N	1.055666	0.066753	0.235446
N70	N	1.055709	0.066763	-0.235268
C71	C	1.116946	0.033942	0.287501
C72	C	1.116952	0.033941	0.391605
C73	C	1.055681	0.066755	0.443651
C74	C	0.994394	0.099569	0.391588
C75	C	0.994385	0.099566	0.287487
C76	C	0.994418	0.099572	0.608568
C77	C	0.994428	0.099575	0.712676
C78	C	1.116986	0.033947	0.712686
C79	C	1.116977	0.033945	0.608585
C80	C	1.055691	0.066759	0.556529
H81	H	0.804613	-0.010785	0.000099
H82	H	0.475989	0.146035	0.000055
H83	H	0.763700	0.148973	0.000034
H84	H	1.285799	-0.419403	0.000097
N85	N	0.809695	-0.391300	0.000012
N86	N	0.737311	-0.363681	-0.000006
H87	H	0.678112	-0.377735	-0.000024
N88	N	1.179570	0.000420	0.555444
N89	N	1.151632	-0.029620	0.497377
H90	H	1.195845	-0.053298	0.459855
N91	N	0.582482	0.156271	0.000060
N92	N	0.614072	0.196002	0.000039
H93	H	0.572302	0.227426	0.000036
N94	N	0.931790	0.133078	0.234294
N95	N	0.876484	0.117688	0.176222
H96	H	0.832272	0.141355	0.138654
N97	N	0.340323	-0.024670	0.000164
N98	N	0.290785	-0.035019	0.069888
H99	H	0.265263	-0.067124	0.069922
N100	N	1.227307	-0.086267	0.000123
N101	N	1.246045	-0.059399	-0.069587
H102	H	1.305233	-0.045334	-0.069593
N103	N	0.931825	0.133081	0.765849
N104	N	0.876540	0.117684	0.823956
H105	H	0.832324	0.141346	0.861512
H106	H	0.828427	-0.295806	0.000017
N107	N	0.931813	0.133093	0.444745
N108	N	0.932413	0.177772	0.433093
H109	H	0.888214	0.201451	0.470633
N110	N	1.179493	0.000393	0.234358
N111	N	1.234167	-0.028920	0.280854
H112	H	1.278322	-0.052627	0.243325
H113	H	0.306753	0.144307	0.000083
H114	H	0.635373	-0.012511	0.000128
N115	N	0.528908	-0.022747	0.000146
N116	N	0.526045	-0.052334	0.069872
H117	H	0.567829	-0.083752	0.069895
N118	N	1.225409	-0.188172	0.000113
N119	N	1.298643	-0.170746	0.000129
H120	H	1.357156	-0.193040	0.000133
N121	N	0.884065	-0.780211	0.000056
N122	N	0.829554	-0.770762	0.069766
H123	H	0.770365	-0.784825	0.069774
N124	N	1.304524	-0.323912	0.000117
N125	N	1.376911	-0.351530	0.000120
H126	H	1.436108	-0.337475	0.000127
N127	N	1.179522	0.000422	0.444804
N128	N	1.234822	0.015793	0.502911
H129	H	1.279000	-0.007886	0.540493
N130	N	0.885969	-0.678307	0.000025
N131	N	0.812735	-0.695733	0.000020
H132	H	0.754221	-0.673439	0.000013
H133	H	1.198752	-0.705418	0.000080
N134	N	1.213837	-0.803288	0.000071
N135	N	1.268559	-0.801490	0.069783
H136	H	1.327062	-0.823793	0.069786
H137	H	0.912624	-0.161067	0.000110
H138	H	1.166887	0.007229	0.755076
H139	H	0.944510	0.126291	0.566188
H140	H	1.284675	-0.479196	0.000090
N141	N	0.897547	-0.063186	0.000067
N142	N	0.842849	-0.064984	-0.069668
H143	H	0.784355	-0.042674	-0.069706
N144	N	1.299750	-0.577069	0.000095
N145	N	1.317406	-0.606486	0.069809
H146	H	1.375901	-0.628795	0.069827
N147	N	0.806872	-0.542568	0.000030
N148	N	0.752355	-0.533122	0.069736
H149	H	0.693166	-0.547186	0.069733
N150	N	0.808781	-0.440667	0.000024
N151	N	0.735547	-0.458092	0.000015
H152	H	0.677034	-0.435798	0.000012
