data_functionalizedCrystal
_audit_creation_method	'MofGen! by Chris Wilmer'
_symmetry_space_group_name_H-M	'P1'
_symmetry_Int_Tables_number	1
_symmetry_cell_setting	triclinic
loop_
_symmetry_equiv_pos_as_xyz
  x,y,z
_cell_length_a	17.640112
_cell_length_b	19.805405
_cell_length_c	19.805399
_cell_angle_alpha	89.970699
_cell_angle_beta	78.823320
_cell_angle_gamma	78.748082
loop_
_atom_site_label
_atom_site_type_symbol
_atom_site_fract_x
_atom_site_fract_y
_atom_site_fract_z
Zn1	Zn	1.208324	0.060067	0.173856
Zn2	Zn	1.208224	0.173273	0.060682
Zn3	Zn	1.076150	0.082993	0.083526
Zn4	Zn	1.076108	0.196134	0.196664
O5	O	1.142202	0.128117	0.128682
O6	O	1.318917	0.055923	0.139737
O7	O	1.190681	0.161324	-0.031001
O8	O	1.093743	-0.014775	0.095524
O9	O	1.318844	0.139094	0.056588
O10	O	1.190850	-0.031619	0.161889
O11	O	1.093646	0.094995	-0.014217
O12	O	0.965538	0.117163	0.117640
O13	O	1.093670	0.178057	0.288351
O14	O	0.965507	0.200287	0.200762
O15	O	1.190809	0.078090	0.271594
O16	O	1.190639	0.271032	0.078705
O17	O	1.093574	0.287828	0.178611
C18	C	0.936844	0.163694	0.164156
C19	C	0.848991	0.178930	0.179348
C20	C	1.142113	0.303988	0.128665
C21	C	1.142147	0.379214	0.128667
C22	C	1.142246	0.128066	0.305217
C23	C	1.142265	0.128045	0.380446
C24	C	0.560025	0.012356	0.013277
C25	C	0.477474	0.026687	0.027561
C26	C	0.477496	0.113363	0.113967
C27	C	0.560049	0.099037	0.099692
C28	C	0.601307	0.048534	0.049346
C29	C	0.601330	0.135215	0.135761
C30	C	0.683876	0.120893	0.121485
C31	C	0.725140	0.070393	0.071140
C32	C	0.683853	0.034212	0.035070
C33	C	0.560071	0.185722	0.186103
C34	C	0.601352	0.221900	0.222173
C35	C	0.683899	0.207574	0.207900
C36	C	0.725163	0.157074	0.157555
C37	C	0.725187	0.243756	0.243970
C38	C	0.807733	0.229434	0.229694
C39	C	0.807709	0.142752	0.143279
C40	C	1.348361	0.092401	0.093070
C41	C	1.436214	0.077181	0.077895
C42	C	1.142312	-0.048445	0.128711
C43	C	1.142360	-0.123686	0.128723
C44	C	1.192738	0.405782	0.076683
C45	C	1.192771	0.476464	0.076692
C46	C	1.142209	0.520579	0.128684
C47	C	1.091616	0.494007	0.180673
C48	C	1.091587	0.423324	0.180666
C49	C	1.091733	0.779060	0.180703
C50	C	1.091764	0.849746	0.180705
C51	C	1.192917	0.832199	0.076729
C52	C	1.192888	0.761517	0.076722
C53	C	1.142298	0.734951	0.128713
C54	C	1.142263	0.658308	0.128703
C55	C	1.142240	0.597221	0.128691
C56	C	1.142203	0.128110	-0.047174
C57	C	1.142337	0.127914	-0.122429
C58	C	1.192846	0.075989	0.407066
C59	C	1.192854	0.075968	0.477753
C60	C	1.142284	0.128006	0.521818
C61	C	1.091698	0.180064	0.495195
C62	C	1.091686	0.180082	0.424509
C63	C	1.091742	0.179994	0.780260
C64	C	1.091759	0.179973	0.850950
C65	C	1.192910	0.075880	0.833504
C66	C	1.192899	0.075898	0.762818
C67	C	1.142309	0.127953	0.736201
C68	C	1.142300	0.127975	0.659555
C69	C	1.142297	0.127988	0.598463
H70	H	0.792354	0.058734	0.059515
H71	H	1.050520	0.222432	0.531079
C72	C	1.036000	0.542527	0.237865
H73	H	1.005871	0.516578	0.268828
H74	H	1.001590	0.576108	0.217901
H75	H	1.066233	0.564820	0.262162
C76	C	1.036080	0.237241	0.750993
H77	H	1.005966	0.268229	0.787362
H78	H	1.001658	0.217304	0.729379
H79	H	1.066275	0.261517	0.718186
C80	C	0.605415	-0.043206	-0.042094
H81	H	0.569008	-0.062704	-0.061533
H82	H	0.637636	-0.078248	-0.021714
H83	H	0.637594	-0.022937	-0.077203
H84	H	1.050392	0.401694	0.222997
H85	H	0.841345	0.258893	0.259065
H86	H	1.234044	0.033581	0.499422
H87	H	1.234028	0.033616	0.371191
H88	H	1.050539	0.757435	0.223035
C89	C	1.248358	0.357262	0.019493
H90	H	1.278498	0.383209	-0.011462
H91	H	1.218136	0.334964	-0.004805
H92	H	1.282770	0.323683	0.039465
H93	H	1.233967	0.498092	0.034361
C94	C	1.248522	0.018655	0.714350
H95	H	1.278643	-0.012356	0.740329
H96	H	1.282940	0.038587	0.680822
H97	H	1.218292	-0.005594	0.692007
C98	C	1.036066	0.237356	0.395224
H99	H	1.005961	0.268353	0.431589
H100	H	1.001634	0.217450	0.373594
H101	H	1.066300	0.261614	0.362429
C102	C	0.729242	-0.021351	-0.020302
H103	H	0.692835	-0.040849	-0.039740
H104	H	0.761463	-0.056393	0.000079
H105	H	0.761422	-0.001082	-0.055410
H106	H	0.443866	-0.002782	-0.001810
H107	H	1.234100	0.033492	0.855184
H108	H	0.443892	0.154485	0.154956
C109	C	0.853102	0.087196	0.087903
H110	H	0.908175	0.083847	0.084572
H111	H	0.839550	0.099388	0.044750
H112	H	0.839594	0.044073	0.100235
C113	C	0.469272	0.201486	0.201803
H114	H	0.450612	0.236753	0.236944
H115	H	0.450606	0.161065	0.216816
H116	H	0.450581	0.216380	0.161331
C117	C	1.036124	0.237213	0.899422
H118	H	1.005987	0.268215	0.873448
H119	H	1.066343	0.261465	0.921771
H120	H	1.001710	0.217268	0.932947
C121	C	0.555964	0.277447	0.277552
H122	H	0.500890	0.280793	0.280893
H123	H	0.569475	0.320568	0.265234
H124	H	0.569519	0.265239	0.320704
C125	C	0.679797	0.299308	0.299344
H126	H	0.624723	0.302654	0.302682
H127	H	0.693310	0.342427	0.287022
H128	H	0.693347	0.287104	0.342499
H129	H	1.234058	0.725601	0.034384
H130	H	1.234113	0.853838	0.034398
H131	H	1.050591	0.885663	0.223047
