data_functionalizedCrystal
_audit_creation_method	'MofGen! by Chris Wilmer'
_symmetry_space_group_name_H-M	'P1'
_symmetry_Int_Tables_number	1
_symmetry_cell_setting	triclinic
loop_
_symmetry_equiv_pos_as_xyz
  x,y,z
_cell_length_a	16.109302
_cell_length_b	10.967829
_cell_length_c	15.186229
_cell_angle_alpha	77.868373
_cell_angle_beta	89.994701
_cell_angle_gamma	84.099565
loop_
_atom_site_label
_atom_site_type_symbol
_atom_site_fract_x
_atom_site_fract_y
_atom_site_fract_z
O1	O	1.104075	0.160397	-0.097606
O2	O	1.437408	0.493730	0.235727
O3	O	1.770742	0.827063	0.569061
O4	O	0.862131	0.180356	-0.100628
O5	O	1.195464	0.513690	0.232706
O6	O	1.528798	0.847023	0.566039
O7	O	0.988683	-0.011276	-0.071548
O8	O	1.322016	0.322058	0.261785
O9	O	1.655349	0.655391	0.595119
O10	O	0.977523	0.352029	-0.126685
O11	O	1.310857	0.685362	0.206648
O12	O	1.644190	1.018696	0.539981
O13	O	0.988674	-0.011278	0.074910
O14	O	1.322007	0.322055	0.408243
O15	O	1.655341	0.655388	0.741576
O16	O	0.862122	0.180354	0.045830
O17	O	1.195456	0.513687	0.379163
O18	O	1.528789	0.847020	0.712497
O19	O	1.104067	0.160394	0.048852
O20	O	1.437400	0.493727	0.382185
O21	O	1.770733	0.827061	0.715518
Zn22	Zn	0.983093	0.170374	0.070594
Zn23	Zn	1.316426	0.503707	0.403928
Zn24	Zn	1.649760	0.837040	0.737261
Zn25	Zn	0.983104	0.170377	-0.122370
Zn26	Zn	1.316438	0.503710	0.210963
Zn27	Zn	1.649771	0.837044	0.544297
O28	O	0.977515	0.352026	0.019772
O29	O	1.310848	0.685360	0.353106
O30	O	1.644182	1.018693	0.686439
C31	C	0.831147	0.179546	-0.027275
C32	C	1.164480	0.512880	0.306058
C33	C	1.497814	0.846213	0.639391
C34	C	0.738837	0.177122	-0.026905
C35	C	1.072171	0.510455	0.306429
C36	C	1.405504	0.843789	0.639762
C37	C	0.526459	0.171515	0.053772
C38	C	0.859792	0.504848	0.387105
C39	C	1.193125	0.838181	0.720438
C40	C	0.439725	0.169223	0.054116
C41	C	0.773059	0.502556	0.387450
C42	C	1.106392	0.835890	0.720783
C43	C	0.439745	0.169232	-0.105561
C44	C	0.773078	0.502566	0.227772
C45	C	1.106412	0.835899	0.561106
C46	C	0.526478	0.171515	-0.105903
C47	C	0.859811	0.504848	0.227430
C48	C	1.193144	0.838182	0.560763
C49	C	0.569832	0.172662	-0.026235
C50	C	0.903165	0.505996	0.307098
C51	C	1.236499	0.839329	0.640431
C52	C	0.396366	0.168088	-0.025548
C53	C	0.729699	0.501422	0.307785
C54	C	1.063032	0.834755	0.641118
C55	C	0.302325	0.165604	-0.025175
C56	C	0.635659	0.498937	0.308158
C57	C	0.968992	0.832271	0.641492
C58	C	0.663878	0.175144	-0.026608
C59	C	0.997212	0.508478	0.306725
C60	C	1.330545	0.841811	0.640059
C61	C	0.987866	-0.057766	0.008734
C62	C	1.321199	0.275567	0.342068
C63	C	1.654532	0.608900	0.675401
C64	C	0.985434	-0.196290	0.029752
C65	C	1.318768	0.137043	0.363086
C66	C	1.652101	0.470377	0.696419
C67	C	0.984355	-0.258041	-0.036748
C68	C	1.317688	0.075293	0.296586
C69	C	1.651022	0.408626	0.629919
C70	C	0.981842	-0.401212	-0.015026
C71	C	1.315176	-0.067879	0.318307
C72	C	1.648509	0.265455	0.651640
C73	C	1.135051	0.161204	-0.024503
C74	C	1.468384	0.494537	0.308831
C75	C	1.801717	0.827871	0.642164
C76	C	1.227360	0.163629	-0.024879
C77	C	1.560693	0.496962	0.308454
C78	C	1.894027	0.830295	0.641788
C79	C	0.978332	0.398517	-0.060512
C80	C	1.311665	0.731850	0.272821
C81	C	1.644998	1.065184	0.606154
C82	C	0.980763	0.537041	-0.081536
C83	C	1.314096	0.870374	0.251797
C84	C	1.647430	1.203707	0.585131
N85	N	0.983092	0.170370	0.202287
N86	N	1.316425	0.503704	0.535621
N87	N	1.649758	0.837037	0.868954
N88	N	0.983113	0.170370	-0.254062
N89	N	1.316446	0.503704	0.079272
N90	N	1.649779	0.837037	0.412605
C91	C	1.039148	0.085544	0.440882
C92	C	1.372481	0.418878	0.774216
C93	C	1.705815	0.752211	1.107549
C94	C	1.039151	0.085541	0.533072
C95	C	1.372484	0.418875	0.866406
C96	C	1.705817	0.752208	1.199739
C97	C	0.927050	0.255201	0.507336
C98	C	1.260383	0.588534	0.840670
C99	C	1.593717	0.921867	1.174003
C100	C	0.927044	0.255197	0.415149
C101	C	1.260377	0.588530	0.748482
C102	C	1.593711	0.921863	1.081816
C103	C	0.983098	0.170370	0.381924
C104	C	1.316431	0.503703	0.715257
C105	C	1.649764	0.837037	1.048591
C106	C	0.983106	0.170371	0.566302
C107	C	1.316440	0.503704	0.899635
C108	C	1.649773	0.837038	1.232968
C109	C	0.983109	0.170368	0.666258
C110	C	1.316442	0.503702	0.999591
C111	C	1.649775	0.837035	1.332925
C112	C	0.983095	0.170370	0.281961
C113	C	1.316428	0.503704	0.615295
C114	C	1.649761	0.837037	0.948628
H115	H	0.561755	0.172449	0.118642
H116	H	0.895089	0.505782	0.451976
H117	H	1.228422	0.839115	0.785309
H118	H	0.980901	-0.454333	0.057992
H119	H	1.314234	-0.121000	0.391325
H120	H	1.647568	0.212334	0.724659
Br121	Br	1.115219	-0.029580	0.395795
Br122	Br	1.448552	0.303754	0.729128
Br123	Br	1.781886	0.637087	1.062462
Br124	Br	0.850982	0.370321	0.552430
Br125	Br	1.184315	0.703654	0.885764
Br126	Br	1.517648	1.036987	1.219097
H127	H	0.981689	-0.409837	-0.154555
H128	H	1.315023	-0.076504	0.178778
H129	H	1.648356	0.256830	0.512111
H130	H	0.561793	0.172446	-0.171058
H131	H	0.895127	0.505779	0.162275
H132	H	1.228460	0.839113	0.495609
H133	H	0.984493	-0.249416	0.102766
H134	H	1.317826	0.083918	0.436099
H135	H	1.651160	0.417251	0.769433
Br136	Br	0.850964	0.370315	0.335127
Br137	Br	1.184298	0.703648	0.668460
Br138	Br	1.517631	1.036982	1.001794
H139	H	1.084791	0.016467	0.581075
H140	H	1.418124	0.349801	0.914408
H141	H	1.751457	0.683134	1.247742
H142	H	0.404415	0.168289	0.119266
H143	H	0.737748	0.501622	0.452599
H144	H	1.071081	0.834955	0.785933
Br145	Br	0.380905	0.167638	-0.213671
Br146	Br	0.714239	0.500971	0.119663
Br147	Br	1.047572	0.834304	0.452996
Br148	Br	0.985934	-0.169509	-0.158447
Br149	Br	1.319267	0.163824	0.174887
Br150	Br	1.652601	0.497157	0.508220
