data_functionalizedCrystal
_audit_creation_method	'MofGen! by Chris Wilmer'
_symmetry_space_group_name_H-M	'P1'
_symmetry_Int_Tables_number	1
_symmetry_cell_setting	triclinic
loop_
_symmetry_equiv_pos_as_xyz
  x,y,z
_cell_length_a	16.625547
_cell_length_b	19.120786
_cell_length_c	16.625539
_cell_angle_alpha	87.528626
_cell_angle_beta	89.975178
_cell_angle_gamma	92.464876
loop_
_atom_site_label
_atom_site_type_symbol
_atom_site_fract_x
_atom_site_fract_y
_atom_site_fract_z
Zn1	Zn	1.218969	-0.279630	-0.442286
Zn2	Zn	1.718969	0.220370	0.057714
Zn3	Zn	1.213113	-0.397095	-0.301692
Zn4	Zn	1.713113	0.102905	0.198308
Zn5	Zn	1.084130	-0.279655	-0.307455
Zn6	Zn	1.584130	0.220345	0.192545
Zn7	Zn	1.078344	-0.397052	-0.436474
Zn8	Zn	1.578344	0.102948	0.063526
O9	O	1.148639	-0.338358	-0.371977
O10	O	1.648639	0.161642	0.128023
O11	O	1.331024	-0.295220	-0.423656
O12	O	1.831024	0.204780	0.076344
O13	O	1.195973	-0.381544	-0.189623
O14	O	1.695973	0.118456	0.310377
O15	O	1.106889	-0.181361	-0.330185
O16	O	1.606889	0.318639	0.169815
O17	O	1.326721	-0.381520	-0.320363
O18	O	1.826721	0.118480	0.179637
O19	O	1.205955	-0.181343	-0.429245
O20	O	1.705955	0.318657	0.070755
O21	O	1.101210	-0.295262	-0.193857
O22	O	1.601210	0.204738	0.306143
O23	O	0.970530	-0.295220	-0.324550
O24	O	1.470530	0.204780	0.175450
O25	O	1.097027	-0.381448	-0.550079
O26	O	1.597027	0.118552	-0.050079
O27	O	0.966279	-0.381471	-0.419339
O28	O	1.466279	0.118529	0.080661
O29	O	1.200344	-0.295179	-0.554349
O30	O	1.700344	0.204821	-0.054349
O31	O	1.190363	-0.495379	-0.314727
O32	O	1.690363	0.004621	0.185273
O33	O	1.091349	-0.495348	-0.413751
O34	O	1.591349	0.004652	0.086249
C35	C	0.939149	-0.338344	-0.371940
C36	C	1.439149	0.161656	0.128060
C37	C	0.849527	-0.338355	-0.371942
C38	C	1.349527	0.161645	0.128058
C39	C	0.776744	-0.338357	-0.371952
C40	C	1.276744	0.161643	0.128048
C41	C	0.685436	-0.338361	-0.371972
C42	C	1.185436	0.161639	0.128028
C43	C	0.612659	-0.338367	-0.371992
C44	C	1.112659	0.161633	0.128008
C45	C	0.521345	-0.338372	-0.372011
C46	C	1.021345	0.161628	0.127989
C47	C	1.139614	-0.520849	-0.363000
C48	C	1.639614	-0.020849	0.137000
C49	C	1.135827	-0.598920	-0.359187
C50	C	1.635827	-0.098920	0.140813
C51	C	1.185588	-0.635528	-0.409012
C52	C	1.685588	-0.135528	0.090988
C53	C	1.182026	-0.708884	-0.405431
C54	C	1.682026	-0.208884	0.094569
C55	C	1.128708	-0.745630	-0.352019
C56	C	1.628708	-0.245630	0.147981
C57	C	1.078941	-0.709017	-0.302192
C58	C	1.578941	-0.209017	0.197808
C59	C	1.082499	-0.635663	-0.305778
C60	C	1.582499	-0.135663	0.194222
C61	C	1.115383	-0.967116	-0.338613
C62	C	1.615383	-0.467116	0.161387
C63	C	1.111830	-1.040475	-0.335029
C64	C	1.611830	-0.540475	0.164971
C65	C	1.214914	-1.040337	-0.438269
C66	C	1.714914	-0.540337	0.061731
C67	C	1.218471	-0.966981	-0.441847
C68	C	1.718471	-0.466981	0.058153
C69	C	1.168702	-0.930375	-0.392023
C70	C	1.668702	-0.430375	0.107977
C71	C	1.125068	-0.820611	-0.348355
C72	C	1.625068	-0.320611	0.151645
C73	C	1.172338	-0.855395	-0.395691
C74	C	1.672338	-0.355395	0.104309
C75	C	1.358947	-0.338372	-0.372015
C76	C	1.858947	0.161628	0.127985
C77	C	1.448568	-0.338378	-0.372031
C78	C	1.948568	0.161622	0.127969
C79	C	1.148694	-0.338306	-0.582288
C80	C	1.648694	0.161694	-0.082288
C81	C	1.148717	-0.338283	-0.671911
C82	C	1.648717	0.161717	-0.171911
C83	C	1.157721	-0.155154	-0.381006
C84	C	1.657721	0.344846	0.118994
C85	C	1.161591	-0.077083	-0.384854
C86	C	1.661591	0.422917	0.115146
C87	C	1.148758	-0.338205	-1.000090
C88	C	1.648758	0.161795	-0.500090
C89	C	1.148744	-0.338229	-0.908781
C90	C	1.648744	0.161771	-0.408781
C91	C	1.148738	-0.338245	-0.836003
C92	C	1.648738	0.161755	-0.336003
C93	C	1.148724	-0.338268	-0.744688
C94	C	1.648724	0.161732	-0.244688
C95	C	1.148633	-0.338359	-0.162486
C96	C	1.648633	0.161641	0.337514
C97	C	1.148775	-0.338184	-0.072874
C98	C	1.648775	0.161816	0.427126
H99	H	1.229009	-0.605614	-0.452502
H100	H	1.729009	-0.105614	0.047498
H101	H	1.041978	-0.605857	-0.265206
H102	H	1.541978	-0.105857	0.234794
H103	H	1.068408	-1.070392	-0.291534
H104	H	1.568408	-0.570392	0.208466
H105	H	1.255432	-1.070150	-0.478834
H106	H	1.755432	-0.570150	0.021166
H107	H	1.215748	-0.825474	-0.439182
H108	H	1.715748	-0.325474	0.060818
H109	H	1.074860	-0.937317	-0.298042
H110	H	1.574860	-0.437317	0.201958
H111	H	1.261887	-0.937064	-0.485339
H112	H	1.761887	-0.437064	0.014661
H113	H	1.081658	-0.850538	-0.304865
H114	H	1.581658	-0.350538	0.195135
H115	H	1.222553	-0.738687	-0.445998
H116	H	1.722553	-0.238687	0.054002
H117	H	1.035525	-0.738942	-0.258706
H118	H	1.535525	-0.238942	0.241294
