data_functionalizedCrystal
_audit_creation_method	'MofGen! by Chris Wilmer'
_symmetry_space_group_name_H-M	'P1'
_symmetry_Int_Tables_number	1
_symmetry_cell_setting	triclinic
loop_
_symmetry_equiv_pos_as_xyz
  x,y,z
_cell_length_a	19.805399
_cell_length_b	18.215407
_cell_length_c	18.215405
_cell_angle_alpha	89.974667
_cell_angle_beta	89.969351
_cell_angle_gamma	90.016085
loop_
_atom_site_label
_atom_site_type_symbol
_atom_site_fract_x
_atom_site_fract_y
_atom_site_fract_z
Zn1	Zn	-0.382697	-1.125045	-0.292982
Zn2	Zn	-0.269506	-1.124961	-0.416054
Zn3	Zn	-0.269524	-1.001985	-0.293007
Zn4	Zn	-0.382654	-1.001943	-0.416013
O5	O	-0.326095	-1.063484	-0.354514
O6	O	-0.367693	-1.228018	-0.309315
O7	O	-0.174792	-1.108631	-0.399759
O8	O	-0.284562	-1.018362	-0.190019
O9	O	-0.284532	-1.227957	-0.399735
O10	O	-0.367710	-1.108773	-0.190001
O11	O	-0.174805	-1.018281	-0.309356
O12	O	-0.284520	-0.898996	-0.309317
O13	O	-0.477377	-1.018290	-0.399665
O14	O	-0.367636	-0.898965	-0.399689
O15	O	-0.477408	-1.108732	-0.309275
O16	O	-0.284490	-1.108590	-0.519033
O17	O	-0.367619	-1.018209	-0.519002
C18	C	-0.326076	-0.872277	-0.354501
C19	C	-0.326084	-0.790478	-0.354514
C20	C	-0.326063	-1.063406	-0.545720
C21	C	-0.326071	-1.063440	-0.627519
C22	C	-0.502638	-1.063516	-0.354463
C23	C	-0.577870	-1.063530	-0.354441
C24	C	-0.613220	-1.016498	-0.307364
C25	C	-0.683909	-1.016508	-0.307350
C26	C	-0.719246	-1.063554	-0.354409
C27	C	-0.683890	-1.110588	-0.401491
C28	C	-0.613203	-1.110574	-0.401509
C29	C	-0.968964	-1.110646	-0.401422
C30	C	-1.039656	-1.110659	-0.401400
C31	C	-1.039670	-1.016581	-0.307263
C32	C	-0.968982	-1.016566	-0.307281
C33	C	-0.933633	-1.063597	-0.354365
C34	C	-0.856985	-1.063585	-0.354381
C35	C	-0.795893	-1.063571	-0.354390
C36	C	-0.150239	-1.063494	-0.354512
C37	C	-0.075008	-1.063623	-0.354326
C38	C	-0.326115	-1.255437	-0.354527
C39	C	-0.326124	-1.337235	-0.354533
C40	C	-0.369308	-0.602288	-0.401644
C41	C	-0.369316	-0.525429	-0.401647
C42	C	-0.282897	-0.525432	-0.307397
C43	C	-0.282893	-0.602289	-0.307391
C44	C	-0.326097	-0.640715	-0.354519
C45	C	-0.326110	-0.486999	-0.354527
C46	C	-0.326119	-0.403665	-0.354529
C47	C	-0.326089	-0.724054	-0.354516
C48	C	-0.282865	-1.110612	-0.815704
C49	C	-0.282882	-1.110645	-0.892563
C50	C	-0.369374	-1.016450	-0.892571
C51	C	-0.369360	-1.016421	-0.815714
C52	C	-0.326102	-1.063501	-0.777282
C53	C	-0.326132	-1.063563	-0.930999
C54	C	-0.326150	-1.063598	-1.014332
C55	C	-0.326085	-1.063467	-0.693944
C56	C	-0.326143	-1.063582	-0.162561
C57	C	-0.326163	-1.063623	-0.080762
H58	H	-0.584454	-0.978192	-0.269039
Br59	Br	-0.428049	-0.952486	-0.763565
H60	H	-0.584422	-1.148877	-0.439838
H61	H	-0.247675	-1.149008	-0.923843
H62	H	-0.404592	-0.978118	-0.923872
Br63	Br	-0.224159	-1.174506	-0.763549
Br64	Br	-0.920999	-1.174478	-0.465318
Br65	Br	-0.731882	-0.952636	-0.243497
Br66	Br	-0.921029	-0.952720	-0.243408
Br67	Br	-0.427966	-0.473280	-0.465601
Br68	Br	-0.427944	-0.654435	-0.465601
Br69	Br	-1.087647	-0.952751	-0.243363
Br70	Br	-0.731847	-1.174431	-0.465365
Br71	Br	-0.224265	-0.473277	-0.243441
H72	H	-1.068425	-1.148971	-0.439724
Br73	Br	-0.224251	-0.654445	-0.243424
