data_functionalizedCrystal
_audit_creation_method	'MofGen! by Chris Wilmer'
_symmetry_space_group_name_H-M	'P1'
_symmetry_Int_Tables_number	1
_symmetry_cell_setting	triclinic
loop_
_symmetry_equiv_pos_as_xyz
  x,y,z
_cell_length_a	17.639054
_cell_length_b	17.640280
_cell_length_c	13.032268
_cell_angle_alpha	87.294217
_cell_angle_beta	84.490606
_cell_angle_gamma	87.823438
loop_
_atom_site_label
_atom_site_type_symbol
_atom_site_fract_x
_atom_site_fract_y
_atom_site_fract_z
Zn1	Zn	1.159129	-0.162985	-0.857787
Zn2	Zn	1.198909	-0.268672	-0.665486
Zn3	Zn	1.047260	-0.165874	-0.652330
Zn4	Zn	1.062548	-0.308402	-0.793045
O5	O	1.116962	-0.226483	-0.742162
O6	O	1.268291	-0.159168	-0.864878
O7	O	1.189043	-0.239617	-0.524372
O8	O	1.039053	-0.061612	-0.701173
O9	O	1.297517	-0.236816	-0.723595
O10	O	1.121243	-0.059489	-0.852121
O11	O	1.077627	-0.164092	-0.514707
O12	O	0.945403	-0.202617	-0.638396
O13	O	1.065110	-0.304531	-0.941002
O14	O	0.956635	-0.307332	-0.741779
O15	O	1.136067	-0.197693	-0.988567
O16	O	1.203867	-0.377821	-0.660818
O17	O	1.103683	-0.407011	-0.754535
C18	C	0.924083	-0.259600	-0.681635
C19	C	0.841571	-0.273788	-0.655761
C20	C	0.740479	-0.334124	-0.545658
C21	C	0.818010	-0.320788	-0.569979
C22	C	0.787604	-0.240109	-0.717259
C23	C	0.710069	-0.253442	-0.692953
C24	C	0.686513	-0.300449	-0.607151
C25	C	0.656103	-0.219767	-0.754446
C26	C	0.578575	-0.233095	-0.730139
C27	C	0.555012	-0.280099	-0.644339
C28	C	0.608985	-0.313778	-0.582844
C29	C	0.679660	-0.172755	-0.840244
C30	C	0.625694	-0.139080	-0.901737
C31	C	0.548165	-0.152413	-0.877434
C32	C	0.524602	-0.199417	-0.791634
C33	C	0.494192	-0.118734	-0.938929
C34	C	0.416664	-0.132063	-0.914622
C35	C	0.447074	-0.212745	-0.767327
C36	C	1.159769	-0.419349	-0.702107
C37	C	1.178148	-0.501850	-0.685026
C38	C	0.977617	-0.849305	-0.872383
C39	C	0.994891	-0.926823	-0.856301
C40	C	1.099262	-0.896367	-0.758861
C41	C	1.081999	-0.818844	-0.774938
C42	C	1.021176	-0.795320	-0.831699
C43	C	1.125558	-0.764859	-0.734255
C44	C	1.108294	-0.687343	-0.750327
C45	C	1.047472	-0.663812	-0.807082
C46	C	1.003912	-0.717804	-0.847771
C47	C	1.186378	-0.788385	-0.677488
C48	C	1.229936	-0.734400	-0.636804
C49	C	1.212676	-0.656882	-0.652882
C50	C	1.151854	-0.633351	-0.709638
C51	C	1.256236	-0.602890	-0.612193
C52	C	1.238972	-0.525374	-0.628265
C53	C	1.134590	-0.555835	-0.725710
C54	C	1.310594	-0.193238	-0.802926
C55	C	1.393108	-0.179071	-0.828820
C56	C	1.097856	-0.255221	-1.001932
C57	C	1.089715	-0.267468	-1.112630
C58	C	1.074005	-0.032863	-0.782402
C59	C	1.055700	0.049647	-0.799549
C60	C	1.121193	-0.220067	-1.185517
C61	C	1.112779	-0.232723	-1.299931
C62	C	1.136023	-0.197796	-0.483427
C63	C	1.144262	-0.185315	-0.372818
H64	H	0.721300	-0.372410	-0.475797
O65	O	0.912015	-0.823921	-0.933604
H66	H	0.884621	-0.874482	-0.959194
H67	H	1.148782	-0.915531	-0.712642
O68	O	1.205004	-0.871990	-0.660143
H69	H	1.218995	-0.898151	-0.735736
H70	H	1.079592	-0.282674	-1.322226
O71	O	0.471391	-0.294471	-0.618116
H72	H	0.464079	-0.332809	-0.548117
H73	H	0.644884	-0.100804	-0.971595
O74	O	0.519601	-0.068030	-1.031466
H75	H	0.582577	-0.064419	-1.038037
O76	O	0.876221	-0.357116	-0.503657
H77	H	0.846813	-0.392045	-0.439917
O78	O	1.045763	-0.333636	-1.142163
H79	H	0.986127	-0.328715	-1.106615
H80	H	1.177439	-0.135356	-1.350523
H81	H	0.372722	-0.104638	-0.964692
H82	H	1.085066	-0.536682	-0.771939
O83	O	0.421657	-0.263445	-0.674781
H84	H	0.448234	-0.321042	-0.684289
O85	O	0.583568	-0.364478	-0.490298
H86	H	0.610145	-0.422075	-0.499806
O87	O	0.813011	-0.189410	-0.809801
H88	H	0.875988	-0.185801	-0.816378
H89	H	0.742789	-0.161901	-0.860028
H90	H	1.033412	-0.600693	-0.820158
O91	O	1.321849	-0.628265	-0.550998
H92	H	1.326542	-0.691236	-0.546669
O93	O	0.938307	-0.692424	-0.908991
H94	H	0.948547	-0.713753	-0.988070
O95	O	0.947912	-0.985055	-0.900192
H96	H	0.902723	-0.955670	-0.942366
H97	H	1.279457	-0.753564	-0.590586
O98	O	1.285953	-0.467139	-0.584396
H99	H	1.331153	-0.496519	-0.542238
O100	O	1.165151	-0.153900	-1.155994
H101	H	1.164869	-0.154348	-1.070763
