data_functionalizedCrystal
_audit_creation_method	'MofGen! by Chris Wilmer'
_symmetry_space_group_name_H-M	'P1'
_symmetry_Int_Tables_number	1
_symmetry_cell_setting	triclinic
loop_
_symmetry_equiv_pos_as_xyz
  x,y,z
_cell_length_a	16.992694
_cell_length_b	9.198806
_cell_length_c	10.723024
_cell_angle_alpha	89.997988
_cell_angle_beta	92.431954
_cell_angle_gamma	89.998351
loop_
_atom_site_label
_atom_site_type_symbol
_atom_site_fract_x
_atom_site_fract_y
_atom_site_fract_z
O1	O	1.041815	0.120704	-0.264729
O2	O	0.813514	0.120747	-0.261825
O3	O	0.932930	0.120719	-0.082154
O4	O	0.922398	0.120732	-0.444400
O5	O	0.932921	-0.121066	-0.082153
O6	O	0.813504	-0.121038	-0.261823
O7	O	1.041805	-0.121081	-0.264728
Cu8	Cu	0.927654	-0.143136	-0.263275
Cu9	Cu	0.927665	0.142803	-0.263277
O10	O	0.922389	-0.121053	-0.444398
C11	C	0.784276	-0.000140	-0.258088
C12	C	0.697172	-0.000123	-0.246940
N13	N	0.927652	-0.344250	-0.263274
C14	C	0.647510	-0.000121	-0.354500
C15	C	0.565667	-0.000141	-0.344018
C16	C	0.533488	-0.000154	-0.225975
C17	C	0.583156	-0.000161	-0.118407
C18	C	0.664998	-0.000151	-0.128890
C19	C	0.289657	-0.000194	-0.182527
C20	C	0.207809	-0.000200	-0.172052
C21	C	0.190326	-0.000183	-0.397665
C22	C	0.272169	-0.000164	-0.408137
C23	C	0.321830	-0.000179	-0.300569
N24	N	0.449832	-0.000170	-0.215258
N25	N	0.405485	-0.000173	-0.311287
C26	C	0.977791	-0.416459	-0.187484
C27	C	0.977804	-0.583871	-0.187481
C28	C	1.071043	-0.000191	-0.268465
C29	C	1.158147	-0.000197	-0.279612
C30	C	0.932159	-0.000171	-0.035588
C31	C	0.929866	-0.000166	0.103164
N32	N	0.927674	0.343917	-0.263269
C33	C	0.923160	-0.000159	-0.490965
C34	C	0.925453	-0.000155	-0.629716
C35	C	0.996685	-0.000176	0.172393
C36	C	0.994317	-0.000171	0.315800
H37	H	0.673704	-0.000109	-0.450624
H38	H	0.525235	-0.000137	-0.431606
H39	H	0.884731	-0.406368	-0.328154
Br40	Br	1.049361	-0.687361	-0.079335
Br41	Br	0.539485	-0.000193	0.041797
H42	H	1.055645	-0.000196	0.125494
H43	H	0.149883	-0.000174	-0.485240
H44	H	0.884748	-0.593996	-0.328165
Br45	Br	1.089664	-0.000203	0.414975
Br46	Br	0.164137	-0.000248	-0.011840
H47	H	0.705432	-0.000152	-0.041303
H48	H	0.868248	-0.000156	0.310784
Br49	Br	0.357044	-0.000218	-0.036540
Br50	Br	0.831590	-0.000126	0.181318
H51	H	0.298363	-0.000137	-0.504261
H52	H	1.020706	-0.354343	-0.122594
