data_functionalizedCrystal
_audit_creation_method	'MofGen! by Chris Wilmer'
_symmetry_space_group_name_H-M	'P1'
_symmetry_Int_Tables_number	1
_symmetry_cell_setting	triclinic
loop_
_symmetry_equiv_pos_as_xyz
  x,y,z
_cell_length_a	18.050589
_cell_length_b	17.639504
_cell_length_c	17.640968
_cell_angle_alpha	70.332680
_cell_angle_beta	101.226882
_cell_angle_gamma	78.788572
loop_
_atom_site_label
_atom_site_type_symbol
_atom_site_fract_x
_atom_site_fract_y
_atom_site_fract_z
Zn1	Zn	0.098178	-1.354400	0.721259
Zn2	Zn	0.598178	-0.854400	1.221259
Zn3	Zn	-0.057511	-1.326414	0.583417
Zn4	Zn	0.442489	-0.826414	1.083417
Zn5	Zn	0.035246	-1.188682	0.555529
Zn6	Zn	0.535246	-0.688682	1.055529
Zn7	Zn	-0.057434	-1.216503	0.693298
Zn8	Zn	0.442566	-0.716503	1.193298
O9	O	0.004620	-1.271500	0.638376
O10	O	0.504620	-0.771500	1.138376
O11	O	0.103831	-1.466039	0.726347
O12	O	0.603831	-0.966039	1.226347
O13	O	-0.071576	-1.284788	0.464373
O14	O	0.428424	-0.784788	0.964373
O15	O	0.147537	-1.210734	0.577544
O16	O	0.647537	-0.710734	1.077544
O17	O	-0.010553	-1.445478	0.625075
O18	O	0.489447	-0.945478	1.125075
O19	O	0.193773	-1.332486	0.699305
O20	O	0.693773	-0.832486	1.199305
O21	O	-0.003428	-1.183597	0.443884
O22	O	0.496572	-0.683597	0.943884
O23	O	-0.003354	-1.077021	0.550431
O24	O	0.496646	-0.577021	1.050431
O25	O	-0.010422	-1.258151	0.812352
O26	O	0.489578	-0.758151	1.312352
O27	O	-0.071445	-1.097461	0.651650
O28	O	0.428555	-0.597461	1.151650
O29	O	0.103905	-1.359463	0.832895
O30	O	0.603905	-0.859463	1.332895
O31	O	-0.161444	-1.311765	0.597963
O32	O	0.338556	-0.811765	1.097963
O33	O	-0.161388	-1.231014	0.678692
O34	O	0.338612	-0.731014	1.178692
C35	C	-0.044221	-1.057332	0.594981
C36	C	0.455779	-0.557332	1.094981
C37	C	-0.065128	-0.965713	0.576435
C38	C	0.434872	-0.465713	1.076435
C39	C	0.163564	-0.717966	0.779451
C40	C	0.663564	-0.217966	1.279451
C41	C	0.143896	-0.631873	0.762008
C42	C	0.643896	-0.131873	1.262008
C43	C	0.024911	-0.610454	0.656402
C44	C	0.524911	-0.110454	1.156402
C45	C	0.044567	-0.696547	0.673838
C46	C	0.544567	-0.196547	1.173838
C47	C	0.113895	-0.750296	0.735363
C48	C	0.613895	-0.250296	1.235363
C49	C	-0.005102	-0.728877	0.629750
C50	C	0.494898	-0.228877	1.129750
C51	C	0.014555	-0.814962	0.647183
C52	C	0.514555	-0.314962	1.147183
C53	C	0.083881	-0.868717	0.708703
C54	C	0.583881	-0.368717	1.208703
C55	C	0.133552	-0.836381	0.752795
C56	C	0.633552	-0.336381	1.252795
C57	C	-0.074427	-0.675126	0.568222
C58	C	0.425573	-0.175126	1.068222
C59	C	-0.124096	-0.707456	0.524134
C60	C	0.375904	-0.207456	1.024134
C61	C	-0.104442	-0.793544	0.541570
C62	C	0.395558	-0.293544	1.041570
C63	C	-0.035116	-0.847298	0.603091
C64	C	0.464884	-0.347298	1.103091
C65	C	-0.154113	-0.825879	0.497478
C66	C	0.345887	-0.325879	0.997478
C67	C	-0.134456	-0.911964	0.514911
C68	C	0.365544	-0.411964	1.014911
C69	C	-0.015459	-0.933383	0.620523
C70	C	0.484541	-0.433383	1.120523
C71	C	-0.188358	-1.271397	0.638342
C72	C	0.311642	-0.771397	1.138342
C73	C	-0.270892	-1.271435	0.638370
C74	C	0.229108	-0.771435	1.138370
C75	C	-0.470331	-1.227573	0.682263
C76	C	0.029669	-0.727573	1.182263
C77	C	-0.541527	-1.192267	0.602983
C78	C	-0.041527	-0.692267	1.102983
C79	C	-0.422001	-1.271518	0.638397
C80	C	0.077999	-0.771518	1.138397
C81	C	-0.497875	-1.306866	0.717694
C82	C	0.002125	-0.806866	1.217694
C83	C	-0.567965	-1.271598	0.638430
C84	C	-0.067965	-0.771598	1.138430
C85	C	-0.492129	-1.236165	0.559070
C86	C	0.007871	-0.736165	1.059070
C87	C	-0.448452	-1.350809	0.673839
C88	C	0.051548	-0.850809	1.173839
C89	C	-0.519632	-1.315521	0.594513
C90	C	-0.019632	-0.815521	1.094513
C91	C	-0.337915	-1.271470	0.638379
C92	C	0.162085	-0.771470	1.138379
C93	C	-0.652051	-1.271644	0.638440
C94	C	-0.152051	-0.771644	1.138440
C95	C	0.198360	-1.271629	0.638432
C96	C	0.698360	-0.771629	1.138432
C97	C	0.280921	-1.271683	0.638456
C98	C	0.780921	-0.771683	1.138456
C99	C	0.053770	-1.315032	0.853367
C100	C	0.553770	-0.815032	1.353367
C101	C	0.074715	-1.333583	0.944984
C102	C	0.574715	-0.833583	1.444984
C103	C	0.053660	-0.486504	0.681938
C104	C	0.553660	0.013496	1.181938
C105	C	0.074584	-0.578124	0.700494
C106	C	0.574584	-0.078124	1.200494
C107	C	-0.044275	-1.228184	0.424230
C108	C	0.455725	-0.728184	0.924230
C109	C	-0.064974	-1.209793	0.332647
C110	C	0.435026	-0.709793	0.832647
C111	C	-0.154021	-1.130887	1.192828
C112	C	0.345979	-0.630887	1.692828
C113	C	-0.134326	-1.148336	1.278919
C114	C	0.365674	-0.648336	1.778919
C115	C	-0.015287	-1.253823	1.300298
C116	C	0.484713	-0.753823	1.800298
C117	C	-0.034970	-1.236380	1.214206
C118	C	0.465030	-0.736380	1.714206
C119	C	-0.104338	-1.174912	1.160477
C120	C	0.395662	-0.674912	1.660477
C121	C	0.014713	-1.280405	1.181856
C122	C	0.514713	-0.780405	1.681856
C123	C	-0.004970	-1.262967	1.095772
C124	C	0.495030	-0.762967	1.595772
C125	C	-0.074336	-1.201503	1.042039
C126	C	0.425664	-0.701503	1.542039
C127	C	-0.124021	-1.157473	1.074394
C128	C	0.375979	-0.657473	1.574394
C129	C	0.084079	-1.341878	1.235587
C130	C	0.584079	-0.841878	1.735587
C131	C	0.133762	-1.385903	1.203237
C132	C	0.633762	-0.885903	1.703237
C133	C	0.114082	-1.368460	1.117151
C134	C	0.614082	-0.868460	1.617151
C135	C	0.044715	-1.306997	1.063417
C136	C	0.544715	-0.806997	1.563417
C137	C	0.163767	-1.412490	1.084796
C138	C	0.663767	-0.912490	1.584796
C139	C	0.144083	-1.395052	0.998712
C140	C	0.644083	-0.895052	1.498712
C141	C	0.025032	-1.289558	0.977334
C142	C	0.525032	-0.789558	1.477334
H143	H	0.220016	-0.761733	0.829553
H144	H	0.720016	-0.261733	1.329553
H145	H	-0.031534	-0.566679	0.606306
H146	H	0.468466	-0.066679	1.106306
F147	F	-0.227889	-0.768664	0.431994
F148	F	0.272111	-0.268664	0.931994
H149	H	-0.090417	-0.605027	0.554012
H150	H	0.409583	-0.105027	1.054012
H151	H	-0.541150	-1.352708	0.557378
H152	H	-0.041150	-0.852708	1.057378
H153	H	-0.180494	-1.107400	1.030640
H154	H	0.319506	-0.607400	1.530640
F155	F	-0.442068	-1.178894	0.730646
F156	F	0.057932	-0.678894	1.230646
H157	H	-0.408270	-1.417817	0.703824
H158	H	0.091730	-0.917817	1.203824
H159	H	0.099887	-0.938812	0.722893
H160	H	0.599887	-0.438812	1.222893
F161	F	0.237585	-1.477915	1.141989
F162	F	0.737585	-0.977915	1.641989
F163	F	-0.502126	-1.345899	0.805329
F164	F	-0.002126	-0.845899	1.305329
H165	H	-0.180541	-0.663682	0.474038
H166	H	0.319459	-0.163682	0.974038
H167	H	-0.210494	-1.080813	1.149074
H168	H	0.289506	-0.580813	1.649074
H169	H	-0.174790	-1.112480	1.305253
H170	H	0.325210	-0.612480	1.805253
H171	H	0.190240	-1.435953	1.246994
H172	H	0.690240	-0.935953	1.746994
F173	F	-0.048794	-1.224129	0.920145
F174	F	0.451206	-0.724129	1.420145
F175	F	-0.187324	-0.946376	0.467994
F176	F	0.312676	-0.446376	0.967994
H177	H	0.184541	-1.430900	0.972373
H178	H	0.684541	-0.930900	1.472373
F179	F	0.058536	-1.319242	1.357488
F180	F	0.558536	-0.819242	1.857488
F181	F	-0.095288	-1.182947	0.950421
F182	F	0.404712	-0.682947	1.450421
F183	F	-0.594027	-1.104665	0.563814
F184	F	-0.094027	-0.604665	1.063814
H185	H	0.040993	-0.977150	0.670626
H186	H	0.540993	-0.477150	1.170626
H187	H	0.100101	-1.356076	1.305681
H188	H	0.600101	-0.856076	1.805681
F189	F	0.207336	-0.893592	0.818284
F190	F	0.707336	-0.393592	1.318284
H191	H	0.184351	-0.605554	0.797910
H192	H	0.684351	-0.105554	1.297910
H193	H	-0.488989	-1.206224	0.491990
H194	H	0.011011	-0.706224	0.991990
