data_functionalizedCrystal
_audit_creation_method	'MofGen! by Chris Wilmer'
_symmetry_space_group_name_H-M	'P1'
_symmetry_Int_Tables_number	1
_symmetry_cell_setting	triclinic
loop_
_symmetry_equiv_pos_as_xyz
  x,y,z
_cell_length_a	19.077068
_cell_length_b	18.215407
_cell_length_c	18.215399
_cell_angle_alpha	90.020595
_cell_angle_beta	92.268164
_cell_angle_gamma	87.672995
loop_
_atom_site_label
_atom_site_type_symbol
_atom_site_fract_x
_atom_site_fract_y
_atom_site_fract_z
Zn1	Zn	-0.280210	-1.113288	-0.427884
Zn2	Zn	0.219790	-0.613288	0.072116
Zn3	Zn	-0.397912	-1.108246	-0.309754
Zn4	Zn	0.102088	-0.608246	0.190246
Zn5	Zn	-0.280232	-0.990219	-0.304831
Zn6	Zn	0.219768	-0.490219	0.195169
Zn7	Zn	-0.397872	-0.985238	-0.432776
Zn8	Zn	0.102128	-0.485238	0.067224
O9	O	-0.339056	-1.049248	-0.368811
O10	O	0.160944	-0.549248	0.131189
O11	O	-0.295831	-1.215603	-0.412227
O12	O	0.204169	-0.715603	0.087773
O13	O	-0.382327	-1.092564	-0.206118
O14	O	0.117673	-0.592564	0.293882
O15	O	-0.181738	-1.010739	-0.317046
O16	O	0.318262	-0.510739	0.182954
O17	O	-0.382306	-1.211899	-0.325438
O18	O	0.117694	-0.711899	0.174562
O19	O	-0.181722	-1.101157	-0.407453
O20	O	0.318278	-0.601157	0.092547
O21	O	-0.295869	-1.005851	-0.202500
O22	O	0.204131	-0.505851	0.297500
O23	O	-0.295830	-0.886574	-0.321789
O24	O	0.204170	-0.386574	0.178211
O25	O	-0.382238	-1.002249	-0.535110
O26	O	0.117762	-0.502249	-0.035110
O27	O	-0.382259	-0.882915	-0.415790
O28	O	0.117741	-0.382915	0.084210
O29	O	-0.295792	-1.096327	-0.531516
O30	O	0.204208	-0.596327	-0.031516
O31	O	-0.496398	-1.087734	-0.330182
O32	O	0.003602	-0.587734	0.169818
O33	O	-0.496368	-0.997360	-0.420565
O34	O	0.003632	-0.497360	0.079435
C35	C	-0.339043	-0.858042	-0.368787
C36	C	0.160957	-0.358042	0.131213
C37	C	-0.339054	-0.776243	-0.368795
C38	C	0.160946	-0.276243	0.131205
C39	C	-0.384127	-0.586159	-0.417682
C40	C	0.115873	-0.086159	0.082318
C41	C	-0.384128	-0.509300	-0.417691
C42	C	0.115872	-0.009300	0.082309
C43	C	-0.293990	-0.513088	-0.319943
C44	C	0.206010	-0.013088	0.180057
C45	C	-0.293986	-0.589945	-0.319939
C46	C	0.206014	-0.089945	0.180061
C47	C	-0.339058	-0.626479	-0.368808
C48	C	0.160942	-0.126479	0.131192
C49	C	-0.339064	-0.472763	-0.368820
C50	C	0.160936	0.027237	0.131180
C51	C	-0.339065	-0.389429	-0.368829
C52	C	0.160935	0.110571	0.131171
C53	C	-0.339056	-0.709818	-0.368800
C54	C	0.160944	-0.209818	0.131200
C55	C	-0.521920	-1.041479	-0.376454
C56	C	-0.021920	-0.541479	0.123546
C57	C	-0.600150	-1.038223	-0.379749
C58	C	-0.100150	-0.538223	0.120251
C59	C	-0.636895	-1.083783	-0.334278
C60	C	-0.136895	-0.583783	0.165722
C61	C	-0.710401	-1.080725	-0.337381
C62	C	-0.210401	-0.580725	0.162619
C63	C	-0.747160	-1.032103	-0.385952
C64	C	-0.247160	-0.532103	0.114048
C65	C	-0.710410	-0.986542	-0.431428
C66	C	-0.210410	-0.486542	0.068572
C67	C	-0.636906	-0.989604	-0.428328
C68	C	-0.136906	-0.489604	0.071672
C69	C	-0.966994	-1.017899	-0.400268
C70	C	-0.466994	-0.517899	0.099732
C71	C	-1.040504	-1.014838	-0.403362
C72	C	-0.540504	-0.514838	0.096638
C73	C	-1.040489	-1.109023	-0.309316
C74	C	-0.540489	-0.609023	0.190684
C75	C	-0.966983	-1.112078	-0.306218
C76	C	-0.466983	-0.612078	0.193782
C77	C	-0.930240	-1.066519	-0.351696
C78	C	-0.430240	-0.566519	0.148304
N79	N	-0.822294	-1.028975	-0.389123
N80	N	-0.322294	-0.528975	0.110877
N81	N	-0.855107	-1.069652	-0.348528
N82	N	-0.355107	-0.569652	0.151472
C83	C	-0.155478	-1.057066	-0.361154
C84	C	0.344522	-0.557066	0.138846
C85	C	-0.077248	-1.060398	-0.357891
C86	C	0.422752	-0.560398	0.142109
C87	C	-0.339008	-1.049294	-0.560762
C88	C	0.160992	-0.549294	-0.060762
C89	C	-0.338987	-1.049314	-0.642560
C90	C	0.161013	-0.549314	-0.142560
C91	C	-0.339068	-0.241200	-0.368833
C92	C	0.160932	0.258800	0.131167
C93	C	-0.339068	-0.322999	-0.368833
C94	C	0.160932	0.177001	0.131167
C95	C	-0.293933	-1.098319	-0.828882
C96	C	0.206067	-0.598319	-0.328882
C97	C	-0.293913	-1.098329	-0.905740
C98	C	0.206087	-0.598329	-0.405740
C99	C	-0.383933	-1.000366	-0.909472
C100	C	0.116067	-0.500366	-0.409472
C101	C	-0.383949	-1.000353	-0.832615
C102	C	0.116051	-0.500353	-0.332615
C103	C	-0.338950	-1.049334	-0.792322
C104	C	0.161050	-0.549334	-0.292322
C105	C	-0.338913	-1.049357	-0.946037
C106	C	0.161087	-0.549357	-0.446037
C107	C	-0.338891	-1.049367	-1.029370
C108	C	0.161109	-0.549367	-0.529370
C109	C	-0.338971	-1.049323	-0.708984
C110	C	0.161029	-0.549323	-0.208984
C111	C	-0.339054	-1.049245	-0.177605
C112	C	0.160946	-0.549245	0.322395
C113	C	-0.338876	-1.049376	-0.095799
C114	C	0.161124	-0.549376	0.404201
H115	H	-0.257281	-0.622775	-0.280139
H116	H	0.242719	-0.122775	0.219861
O117	O	-0.931197	-1.159349	-0.259138
O118	O	-0.431197	-0.659349	0.240862
C119	C	-0.848162	-1.262196	-0.245834
C120	C	-0.348162	-0.762196	0.254166
C121	C	-0.888635	-1.208702	-0.299234
C122	C	-0.388635	-0.708702	0.200766
H123	H	-0.813752	-1.302120	-0.278232
H124	H	-0.313752	-0.802120	0.221768
H125	H	-0.813754	-1.229900	-0.205885
H126	H	-0.313754	-0.729900	0.294115
H127	H	-0.887061	-1.294202	-0.213848
H128	H	-0.387061	-0.794202	0.286152
H129	H	-0.849787	-1.176682	-0.331270
H130	H	-0.349787	-0.676682	0.168730
H131	H	-0.923053	-1.241039	-0.339135
H132	H	-0.423053	-0.741039	0.160865
H133	H	-1.070413	-1.146115	-0.272291
H134	H	-0.570413	-0.646115	0.227709
H135	H	-0.420827	-0.476475	-0.457490
H136	H	0.079173	0.023525	0.042510
H137	H	-0.420570	-0.960489	-0.942287
H138	H	0.079430	-0.460489	-0.442287
O139	O	-0.250085	-1.145883	-0.941167
O140	O	0.249915	-0.645883	-0.441167
C141	C	-0.130357	-1.186679	-0.959724
C142	C	0.369643	-0.686679	-0.459724
C143	C	-0.179916	-1.132791	-0.919543
C144	C	0.320084	-0.632791	-0.419543
H145	H	-0.073614	-1.176103	-0.942267
H146	H	0.426386	-0.676103	-0.442267
H147	H	-0.142667	-1.245506	-0.945123
H148	H	0.357333	-0.745506	-0.445123
H149	H	-0.138104	-1.178288	-1.021575
H150	H	0.361896	-0.678288	-0.521575
H151	H	-0.172196	-1.141116	-0.857683
H152	H	0.327804	-0.641116	-0.357683
H153	H	-0.167594	-1.073984	-0.934204
H154	H	0.332406	-0.573984	-0.434204
H155	H	-0.257290	-1.138201	-0.796078
H156	H	0.242710	-0.638201	-0.296078
H157	H	-0.420607	-0.960459	-0.802847
H158	H	0.079393	-0.460459	-0.302847
O159	O	-0.601299	-1.131078	-0.287075
O160	O	-0.101299	-0.631078	0.212925
C161	C	-0.609051	-1.224141	-0.194091
C162	C	-0.109051	-0.724141	0.305909
C163	C	-0.649448	-1.170624	-0.247526
C164	C	-0.149448	-0.670624	0.252474
H165	H	-0.647962	-1.256117	-0.162090
H166	H	-0.147962	-0.756117	0.337910
H167	H	-0.574604	-1.264088	-0.226424
H168	H	-0.074604	-0.764088	0.273576
H169	H	-0.574673	-1.191795	-0.154159
H170	H	-0.074673	-0.691795	0.345841
H171	H	-0.683865	-1.202909	-0.287469
H172	H	-0.183865	-0.702909	0.212531
H173	H	-0.683851	-1.130677	-0.215145
H174	H	-0.183851	-0.630677	0.284855
H175	H	-0.740315	-1.117824	-0.300353
H176	H	-0.240315	-0.617824	0.199647
O177	O	-1.076184	-0.967689	-0.450654
O178	O	-0.576184	-0.467689	0.049346
C179	C	-1.098603	-0.930945	-0.576748
C180	C	-0.598603	-0.430945	-0.076748
C181	C	-1.058163	-0.984395	-0.523279
C182	C	-0.558163	-0.484395	-0.023279
H183	H	-1.084037	-0.944423	-0.635475
H184	H	-0.584037	-0.444423	-0.135475
H185	H	-1.157457	-0.936587	-0.571209
H186	H	-0.657457	-0.436587	-0.071209
H187	H	-1.084217	-0.872212	-0.563132
H188	H	-0.584217	-0.372212	-0.063132
H189	H	-1.072490	-1.043150	-0.536860
H190	H	-0.572490	-0.543150	-0.036860
H191	H	-0.999318	-0.978689	-0.528828
H192	H	-0.499318	-0.478689	-0.028828
O193	O	-0.427925	-0.621534	-0.465227
O194	O	0.072075	-0.121534	0.034773
C195	C	-0.517353	-0.609661	-0.562156
C196	C	-0.017353	-0.109661	-0.062156
C197	C	-0.467777	-0.569510	-0.508359
C198	C	0.032223	-0.069510	-0.008359
H199	H	-0.549597	-0.567617	-0.597031
H200	H	-0.049597	-0.067617	-0.097031
H201	H	-0.485116	-0.647007	-0.599389
H202	H	0.014884	-0.147007	-0.099389
H203	H	-0.554085	-0.644091	-0.529831
H204	H	-0.054085	-0.144091	-0.029831
H205	H	-0.431036	-0.535040	-0.540623
H206	H	0.068964	-0.035040	-0.040623
H207	H	-0.500059	-0.532208	-0.471125
H208	H	-0.000059	-0.032208	0.028875
H209	H	-0.257295	-0.483333	-0.280155
H210	H	0.242705	0.016667	0.219845
H211	H	-0.937084	-0.980802	-0.437297
H212	H	-0.437084	-0.480802	0.062703
H213	H	-0.740345	-0.946956	-0.470978
H214	H	-0.240345	-0.446956	0.029022
O215	O	-0.601319	-0.945276	-0.472529
O216	O	-0.101319	-0.445276	0.027471
C217	C	-0.609086	-0.851575	-0.566176
C218	C	-0.109086	-0.351575	-0.066176
C219	C	-0.649474	-0.901719	-0.516141
C220	C	-0.149474	-0.401719	-0.016141
H221	H	-0.648002	-0.816358	-0.601461
H222	H	-0.148002	-0.316358	-0.101461
H223	H	-0.574741	-0.814493	-0.530947
H224	H	-0.074741	-0.314493	-0.030947
H225	H	-0.574606	-0.886796	-0.603201
H226	H	-0.074606	-0.386796	-0.103201
H227	H	-0.683993	-0.866556	-0.479108
H228	H	-0.183993	-0.366556	0.020892
H229	H	-0.683775	-0.938805	-0.551415
H230	H	-0.183775	-0.438805	-0.051415
