data_functionalizedCrystal
_audit_creation_method	'MofGen! by Chris Wilmer'
_symmetry_space_group_name_H-M	'P1'
_symmetry_Int_Tables_number	1
_symmetry_cell_setting	triclinic
loop_
_symmetry_equiv_pos_as_xyz
  x,y,z
_cell_length_a	16.625548
_cell_length_b	12.759400
_cell_length_c	12.759393
_cell_angle_alpha	89.968436
_cell_angle_beta	90.021668
_cell_angle_gamma	89.984247
loop_
_atom_site_label
_atom_site_type_symbol
_atom_site_fract_x
_atom_site_fract_y
_atom_site_fract_z
Zn1	Zn	1.232733	0.418174	0.594070
Zn2	Zn	1.232652	0.593893	0.418390
Zn3	Zn	1.097892	0.418232	0.418400
Zn4	Zn	1.097883	0.593815	0.594022
O5	O	1.165290	0.506029	0.506221
O6	O	1.345554	0.441492	0.570782
O7	O	1.214745	0.570648	0.271371
O8	O	1.115817	0.271203	0.441727
O9	O	1.345495	0.570592	0.441711
O10	O	1.214883	0.271161	0.570791
O11	O	1.115738	0.441591	0.271378
O12	O	0.985059	0.441515	0.441680
O13	O	1.115802	0.570459	0.741050
O14	O	0.985052	0.570515	0.570709
O15	O	1.214875	0.441417	0.741085
O16	O	1.214737	0.740904	0.441664
O17	O	1.115723	0.740847	0.570700
C18	C	1.165242	0.778996	0.506199
C19	C	1.165295	0.895773	0.506225
C20	C	0.955799	0.506014	0.506191
C21	C	0.866178	0.506033	0.506204
C22	C	1.165346	0.505923	0.780254
C23	C	1.165371	0.505878	0.897031
C24	C	0.538002	0.506039	0.506249
C25	C	0.629311	0.506035	0.506233
C26	C	0.702087	0.506037	0.506225
C27	C	0.793402	0.506031	0.506211
C28	C	1.375599	0.506045	0.506251
C29	C	1.465220	0.506051	0.506264
C30	C	1.165360	0.231995	0.506266
C31	C	1.165390	0.115219	0.506285
C32	C	1.216909	0.950630	0.439110
C33	C	1.216959	1.060354	0.439142
C34	C	1.113774	1.060354	0.573407
C35	C	1.113729	0.950632	0.573379
C36	C	1.276480	0.950630	0.361590
C37	C	1.276529	1.060354	0.361622
C38	C	1.165280	0.506058	0.233253
C39	C	1.165412	0.505808	0.116477
C40	C	1.216965	0.438679	0.951913
C41	C	1.216984	0.438641	1.061637
C42	C	1.113812	0.573010	1.061587
C43	C	1.113789	0.573041	0.951865
C44	C	1.276533	0.361105	0.951943
C45	C	1.276552	0.361067	1.061667
H46	H	1.071709	0.905968	0.628039
C47	C	1.356656	0.400479	0.905962
N48	N	1.417007	0.430129	0.871329
H49	H	1.259827	0.279741	0.922186
H50	H	1.335857	1.094298	0.390838
C51	C	1.253987	1.100702	0.251684
N52	N	1.237007	1.131092	0.168882
H53	H	1.254209	0.283758	1.095713
C54	C	1.246266	0.904765	0.257134
N55	N	1.223500	0.870218	0.178460
H56	H	1.071791	1.105034	0.628083
C57	C	1.360814	0.910287	0.391118
N58	N	1.424333	0.879901	0.413360
C59	C	1.057075	0.646884	1.121915
N60	N	1.014339	0.702528	1.167353
C61	C	1.057019	0.646949	0.891499
N62	N	1.014256	0.702618	0.846031
C63	C	1.360913	0.390516	1.101907
N64	N	1.424451	0.412700	1.132215
