data_functionalizedCrystal
_audit_creation_method	'MofGen! by Chris Wilmer'
_symmetry_space_group_name_H-M	'P1'
_symmetry_Int_Tables_number	1
_symmetry_cell_setting	triclinic
loop_
_symmetry_equiv_pos_as_xyz
  x,y,z
_cell_length_a	10.654553
_cell_length_b	10.654549
_cell_length_c	14.048226
_cell_angle_alpha	89.992531
_cell_angle_beta	90.003021
_cell_angle_gamma	95.512292
loop_
_atom_site_label
_atom_site_type_symbol
_atom_site_fract_x
_atom_site_fract_y
_atom_site_fract_z
O1	O	-0.176430	1.667847	-0.079176
O2	O	-0.193230	1.302370	-0.079172
O3	O	-0.002092	1.493506	-0.079176
O4	O	-0.367569	1.476711	-0.079172
O5	O	-0.002080	1.493483	0.079145
O6	O	-0.193218	1.302347	0.079149
O7	O	-0.176419	1.667824	0.079145
Zn8	Zn	-0.184817	1.485082	0.104284
Zn9	Zn	-0.184832	1.485112	-0.104311
O10	O	-0.367557	1.476688	0.079149
C11	C	-0.191989	1.255560	-0.000011
C12	C	-0.188295	1.116117	-0.000010
C13	C	-0.409917	0.826140	-0.000034
C14	C	-0.525935	0.877680	-0.000029
C15	C	-0.529411	1.008698	-0.000017
C16	C	-0.416856	1.088180	-0.000012
C17	C	-0.300838	1.036640	-0.000017
C18	C	-0.297375	0.905617	-0.000027
C19	C	-0.072277	1.064577	-0.000015
C20	C	-0.068799	0.933559	-0.000021
C21	C	0.040278	1.144059	-0.000010
C22	C	0.156299	1.092518	-0.000009
C23	C	0.159770	0.961492	-0.000020
C24	C	0.047220	0.882018	-0.000026
C25	C	-0.414361	1.477935	-0.000011
C26	C	-0.553803	1.481631	-0.000010
C27	C	-0.553811	1.481622	0.172597
C28	C	-0.619324	1.483358	0.258897
C29	C	-0.750343	1.486830	0.258893
C30	C	-0.815852	1.488562	0.172580
C31	C	-0.750339	1.486826	0.086279
C32	C	-0.619317	1.483358	0.086293
C33	C	-0.750332	1.486827	-0.086326
C34	C	-0.619313	1.483364	-0.086324
C35	C	-0.815842	1.488559	-0.172639
C36	C	-0.750328	1.486833	-0.258942
C37	C	-0.619301	1.483362	-0.258934
C38	C	-0.553800	1.481628	-0.172624
C39	C	0.044712	1.492259	-0.000018
C40	C	0.184155	1.488563	-0.000025
C41	C	-0.177659	1.714634	-0.000018
C42	C	-0.181354	1.854077	-0.000025
N43	N	-0.184806	1.485070	0.246645
N44	N	-0.184833	1.485134	-0.246672
C45	C	-0.100205	1.569732	0.296461
C46	C	-0.100204	1.569741	0.396119
C47	C	-0.184811	1.485092	0.445958
C48	C	-0.269416	1.400421	0.396135
C49	C	-0.269410	1.400407	0.296479
C50	C	-0.269425	1.400457	0.603849
C51	C	-0.269434	1.400472	0.703512
C52	C	-0.100220	1.569790	0.703489
C53	C	-0.100214	1.569777	0.603833
C54	C	-0.184820	1.485107	0.554017
H55	H	0.247932	1.157242	-0.000012
H56	H	0.254246	0.919537	-0.000030
H57	H	-0.419696	1.194861	-0.000013
Cl58	Cl	0.006154	1.676173	0.458747
Cl59	Cl	-0.375799	1.294048	0.766160
H60	H	-0.803686	1.488220	0.329167
H61	H	0.050035	0.775334	-0.000027
Cl62	Cl	0.006159	1.676160	0.233816
H63	H	-0.447128	1.478809	0.172609
Cl64	Cl	-0.536966	1.481166	0.367400
H65	H	-0.617575	0.812952	-0.000036
Cl66	Cl	-0.375775	1.293997	0.458788
Cl67	Cl	-0.389089	1.477274	-0.172607
Cl68	Cl	-0.980567	1.492886	0.172577
Cl69	Cl	-0.980555	1.492896	-0.172645
Cl70	Cl	-0.832686	1.489022	-0.367438
H71	H	-0.565970	1.481938	-0.329211
Cl72	Cl	0.006142	1.676200	0.541176
Cl73	Cl	0.006138	1.676232	0.766118
Cl74	Cl	-0.375788	1.294009	0.541227
H75	H	-0.407099	0.719456	-0.000028
H76	H	-0.623883	1.050661	-0.000011
Cl77	Cl	0.035909	1.308768	-0.000001
H78	H	-0.338298	1.331465	0.255920
