data_functionalizedCrystal
_audit_creation_method	'MofGen! by Chris Wilmer'
_symmetry_space_group_name_H-M	'P1'
_symmetry_Int_Tables_number	1
_symmetry_cell_setting	triclinic
loop_
_symmetry_equiv_pos_as_xyz
  x,y,z
_cell_length_a	10.654554
_cell_length_b	10.654550
_cell_length_c	9.130313
_cell_angle_alpha	90.000110
_cell_angle_beta	89.998999
_cell_angle_gamma	95.514127
loop_
_atom_site_label
_atom_site_type_symbol
_atom_site_fract_x
_atom_site_fract_y
_atom_site_fract_z
O1	O	1.667831	-0.176421	-0.121821
O2	O	1.302353	-0.193221	-0.121818
O3	O	1.493495	-0.002082	-0.121814
O4	O	1.476689	-0.367560	-0.121825
O5	O	1.493492	-0.002087	0.121784
O6	O	1.302350	-0.193226	0.121781
O7	O	1.667828	-0.176427	0.121777
Cu8	Cu	1.485089	-0.184827	0.144022
Cu9	Cu	1.485092	-0.184821	-0.144062
O10	O	1.476686	-0.367566	0.121774
C11	C	1.255554	-0.191989	-0.000018
C12	C	1.116111	-0.188295	-0.000017
C13	C	0.933549	-0.068808	-0.000033
C14	C	1.064571	-0.072279	-0.000018
C15	C	1.036622	-0.300848	-0.000016
C16	C	0.905603	-0.297376	-0.000021
C17	C	0.949686	0.063154	-0.000040
C18	C	1.080708	0.059684	-0.000025
C19	C	1.492260	0.044713	-0.000017
C20	C	1.488568	0.184156	-0.000022
C21	C	1.714627	-0.177659	-0.000026
C22	C	1.854070	-0.181353	-0.000036
C23	C	1.477921	-0.414361	-0.000027
C24	C	1.481613	-0.553804	-0.000032
N25	N	1.485096	-0.184831	0.346644
C26	C	1.601109	0.263640	-0.000018
C27	C	1.597632	0.394661	-0.000029
C28	C	1.369063	0.366702	-0.000040
C29	C	1.372541	0.235683	-0.000040
C30	C	1.733072	0.279784	-0.000006
C31	C	1.729595	0.410805	-0.000016
N32	N	1.485095	-0.184807	-0.346685
C33	C	1.569756	-0.100223	0.423298
C34	C	1.569752	-0.100208	0.576635
C35	C	1.400426	-0.269419	0.576651
C36	C	1.400424	-0.269427	0.423317
C37	C	1.667519	-0.002534	0.423290
C38	C	1.667516	-0.002519	0.576627
H39	H	1.078596	-0.395311	-0.000002
F40	F	1.627625	0.116709	0.638786
F41	F	0.911299	0.130609	0.133201
F42	F	1.310305	-0.359461	0.341737
H43	H	0.840895	-0.389021	-0.000007
F44	F	1.786695	-0.042530	0.361118
H45	H	1.122466	0.109402	-0.101971
H46	H	0.914059	0.105177	-0.105221
H47	H	1.764027	-0.024039	0.618242
F48	F	1.140366	0.111798	0.137458
F49	F	1.245587	0.421552	-0.000062
H50	H	1.775092	0.244154	0.105175
F51	F	1.252760	0.151094	-0.000075
F52	F	1.800536	0.241406	-0.133244
F53	F	1.781722	0.470472	-0.137489
F54	F	1.794579	0.465390	0.133229
H55	H	1.331487	-0.338294	0.639094
H56	H	1.646076	0.093999	0.381673
