data_functionalizedCrystal
_audit_creation_method	'MofGen! by Chris Wilmer'
_symmetry_space_group_name_H-M	'P1'
_symmetry_Int_Tables_number	1
_symmetry_cell_setting	triclinic
loop_
_symmetry_equiv_pos_as_xyz
  x,y,z
_cell_length_a	34.408637
_cell_length_b	34.407814
_cell_length_c	34.404193
_cell_angle_alpha	60.004510
_cell_angle_beta	60.009006
_cell_angle_gamma	59.994604
loop_
_atom_site_label
_atom_site_type_symbol
_atom_site_fract_x
_atom_site_fract_y
_atom_site_fract_z
O1	O	0.053973	-0.567860	0.474801
O2	O	0.020377	-0.442124	0.382567
O3	O	0.100004	-0.521670	0.382483
O4	O	-0.025653	-0.488314	0.474886
O5	O	0.126426	-0.495253	0.408816
O6	O	0.046800	-0.415707	0.408900
O7	O	0.080396	-0.541443	0.501134
Zn8	Zn	0.067793	-0.474381	0.459198
Zn9	Zn	0.032980	-0.509186	0.424503
O10	O	0.000769	-0.461897	0.501219
N11	N	0.091552	-0.450631	0.482879
N12	N	0.009225	-0.532940	0.400823
C13	C	0.142848	-0.268847	0.534081
C14	C	0.142979	-0.399386	0.664559
C15	C	0.142862	-0.399365	0.534081
C16	C	0.273409	-0.399338	0.533986
C17	C	0.157225	-0.311914	0.548422
C18	C	0.157300	-0.385019	0.621491
C19	C	0.230339	-0.384991	0.548370
C20	C	0.157235	-0.385007	0.548422
C21	C	0.124548	-0.214028	0.515827
C22	C	0.124571	-0.417639	0.515827
C23	C	0.175526	-0.366733	0.566676
C24	C	0.353121	-0.385580	0.491988
C25	C	0.402952	-0.402180	0.475348
C26	C	0.402981	-0.482812	0.506096
C27	C	0.353151	-0.466211	0.522737
C28	C	0.136544	-0.189099	0.466839
C29	C	0.119905	-0.139265	0.450247
C30	C	0.079280	-0.139291	0.531632
C31	C	0.095918	-0.189125	0.548224
C32	C	0.075577	-0.405615	0.527900
C33	C	0.058953	-0.422228	0.511301
C34	C	0.140315	-0.462889	0.470566
C35	C	0.156941	-0.446276	0.487159
C36	C	0.075772	-0.405653	0.744326
C37	C	0.059206	-0.422280	0.794159
C38	C	0.140607	-0.462951	0.794094
C39	C	0.157172	-0.446325	0.744260
C40	C	0.124753	-0.417674	0.719377
C41	C	0.328223	-0.417595	0.515681
C42	C	-0.172390	-0.583988	0.349141
C43	C	-0.041751	-0.584138	0.218783
C44	C	-0.041941	-0.584130	0.349402
C45	C	-0.041957	-0.714607	0.349338
C46	C	-0.129326	-0.598388	0.334853
C47	C	-0.056165	-0.598473	0.261852
C48	C	-0.056282	-0.671535	0.334962
C49	C	-0.056272	-0.598469	0.334999
C50	C	-0.227205	-0.565659	0.367327
C51	C	-0.023703	-0.565882	0.367734
C52	C	-0.074511	-0.616717	0.316667
C53	C	-0.055754	-0.794298	0.391257
C54	C	-0.039181	-0.844132	0.407888
C55	C	0.041447	-0.844215	0.377269
C56	C	0.024873	-0.794381	0.360637
C57	C	-0.252183	-0.577666	0.416302
C58	C	-0.302014	-0.561001	0.432833
C59	C	-0.301886	-0.520329	0.351410
C60	C	-0.252055	-0.536994	0.334880
C61	C	-0.035709	-0.516892	0.355682
C62	C	-0.019129	-0.500308	0.372353
C63	C	0.021465	-0.581700	0.413115
C64	C	0.004884	-0.598286	0.396450
C65	C	-0.035389	-0.516907	0.139026
C66	C	-0.018707	-0.500324	0.089193
C67	C	0.021949	-0.581721	0.089240
C68	C	0.005268	-0.598303	0.139074
C69	C	-0.023402	-0.565894	0.163965
C70	C	-0.023728	-0.769425	0.367633
N71	N	0.427173	-0.450553	0.482630
O72	O	0.589997	-0.458460	0.365361
O73	O	0.590185	-0.550997	0.490963
O74	O	0.590104	-0.550786	0.411309
O75	O	0.590077	-0.458671	0.445016
O76	O	0.510940	-0.524462	0.437777
O77	O	0.511020	-0.524674	0.517432
O78	O	0.510832	-0.432136	0.391830
Zn79	Zn	0.498357	-0.474225	0.458833
Zn80	Zn	0.602660	-0.508908	0.423960
O81	O	0.510913	-0.432348	0.471484
N82	N	0.673844	-0.532580	0.400158
N83	N	0.091520	-0.115070	0.482873
O84	O	-0.025663	0.047841	0.474857
O85	O	0.099940	0.047877	0.382299
O86	O	0.020247	0.047844	0.382560
O87	O	0.054030	0.047874	0.474596
O88	O	0.046674	-0.031326	0.408942
O89	O	0.126367	-0.031293	0.408680
O90	O	0.000764	-0.031329	0.501238
Zn91	Zn	0.067761	-0.043881	0.459148
Zn92	Zn	0.032943	0.060429	0.424389
O93	O	0.080457	-0.031296	0.500977
N94	N	0.009178	0.131618	0.400665
N95	N	0.091852	-0.450680	0.818332
O96	O	0.083862	-0.567845	0.981235
O97	O	-0.008657	-0.442198	0.981276
O98	O	-0.008441	-0.521875	0.981252
O99	O	0.083646	-0.488168	0.981258
O100	O	0.017919	-0.495468	0.902085
O101	O	0.017703	-0.415791	0.902109
O102	O	0.110222	-0.541438	0.902067
Zn103	Zn	0.068148	-0.474422	0.889518
Zn104	Zn	0.033417	-0.509214	0.993825
O105	O	0.110006	-0.461761	0.902091
N106	N	0.009712	-0.532961	1.065011
C107	C	0.030439	-0.413071	0.383027
C108	C	0.129046	-0.511580	0.382922
C109	C	0.070334	-0.570496	0.500675
C110	C	-0.028274	-0.471987	0.500780
C111	C	0.550625	-0.550579	0.520021
C112	C	0.550527	-0.550317	0.421379
C113	C	0.550389	-0.432554	0.362773
C114	C	0.550491	-0.432816	0.461414
C115	C	0.128944	0.008394	0.382712
C116	C	0.030287	0.008256	0.383068
C117	C	-0.028273	0.008252	0.500793
C118	C	0.070417	0.008292	0.500470
C119	C	-0.008218	-0.413165	0.941698
C120	C	-0.007945	-0.511830	0.941653
C121	C	0.109783	-0.570471	0.941646
C122	C	0.109516	-0.471800	0.941673
H123	H	0.019320	-0.412483	0.814467
H124	H	0.019058	-0.412426	0.521121
C125	C	-0.047458	-0.364417	0.941707
H126	H	-0.075090	-0.364371	0.941703
H127	H	-0.054943	-0.358606	0.969316
H128	H	-0.036550	-0.340198	0.914097
H129	H	0.197059	-0.456117	0.723950
H130	H	0.550540	-0.579254	0.414165
C131	C	-0.047014	-0.521551	0.941606
H132	H	-0.074719	-0.494032	0.941609
H133	H	-0.036006	-0.529096	0.913985
H134	H	-0.054424	-0.547521	0.969203
C135	C	-0.077027	-0.462393	0.539979
H136	H	-0.077100	-0.489954	0.567638
H137	H	-0.082819	-0.436442	0.547426
H138	H	-0.101243	-0.454870	0.529057
C139	C	0.177799	-0.521179	0.343722
H140	H	0.197778	-0.552685	0.355263
H141	H	0.173636	-0.517599	0.316679
H142	H	0.192066	-0.499176	0.335047
H143	H	0.550329	-0.403500	0.326702
H144	H	0.164941	0.008624	0.353583
H145	H	0.550674	-0.579628	0.556096
C146	C	0.550476	-0.393723	0.471155
H147	H	0.550513	-0.405360	0.502667
H148	H	0.578057	-0.385026	0.449175
H149	H	0.522841	-0.366668	0.467639
C150	C	0.080026	-0.619290	0.539809
H151	H	0.111538	-0.639223	0.528212
H152	H	0.076476	-0.615169	0.566864
H153	H	0.058047	-0.633585	0.548487
C154	C	0.020518	0.008242	0.344006
H155	H	-0.011001	0.008227	0.355657
H156	H	0.024046	0.035850	0.316931
H157	H	0.042478	-0.019370	0.335338
C158	C	0.149025	-0.619217	0.941627
H159	H	0.137528	-0.639219	0.941624
H160	H	0.176068	-0.615044	0.914018
H161	H	0.157682	-0.633465	0.969236
H162	H	-0.064344	0.008241	0.529850
H163	H	0.138447	-0.464586	0.941669
C164	C	0.040109	-0.374138	0.716959
H165	H	0.008565	-0.369363	0.738956
H166	H	0.044877	-0.344264	0.697520
H167	H	0.044881	-0.389353	0.697523
C168	C	0.176267	-0.494432	0.821464
H169	H	0.207812	-0.499204	0.799468
H170	H	0.171478	-0.479200	0.840892
H171	H	0.171516	-0.524315	0.840911
C172	C	0.080186	0.008301	0.539535
H173	H	0.052683	0.008298	0.567247
H174	H	0.106164	-0.019300	0.546929
H175	H	0.087729	0.035920	0.528528
C176	C	0.039972	-0.374112	0.559428
H177	H	0.056890	-0.365943	0.567588
H178	H	0.020512	-0.345934	0.542539
H179	H	0.020553	-0.391029	0.587615
C180	C	0.175925	-0.494391	0.439034
H181	H	0.207485	-0.499170	0.434221
H182	H	0.171153	-0.524264	0.454247
H183	H	0.171109	-0.479166	0.409175
H184	H	0.196836	-0.456064	0.477324
H185	H	0.423275	-0.522397	0.511838
C186	C	0.325766	-0.501430	0.548796
H187	H	0.347753	-0.532759	0.550608
H188	H	0.306348	-0.500168	0.580020
H189	H	0.306309	-0.493094	0.531829
H190	H	0.332825	-0.345993	0.486242
C191	C	0.430345	-0.366965	0.449282
H192	H	0.463592	-0.383817	0.440385
H193	H	0.422151	-0.344146	0.421600
H194	H	0.422196	-0.351214	0.469786
C195	C	0.168032	-0.216489	0.431201
H196	H	0.172787	-0.194504	0.399649
H197	H	0.197914	-0.235923	0.435963
H198	H	0.152816	-0.235934	0.436003
H199	H	0.023260	-0.376951	0.354059
H200	H	0.055974	-0.119015	0.558014
C201	C	0.133097	-0.111840	0.396360
H202	H	0.119084	-0.078594	0.391118
H203	H	0.166716	-0.119993	0.382342
H204	H	0.121620	-0.120008	0.382378
C205	C	0.082723	-0.216545	0.602110
H206	H	0.096728	-0.249792	0.607353
H207	H	0.094194	-0.208377	0.616096
H208	H	0.049102	-0.208389	0.616123
C209	C	-0.031905	-0.446437	0.061765
H210	H	-0.051373	-0.429514	0.083729
H211	H	-0.003716	-0.438294	0.042369
H212	H	-0.048775	-0.438256	0.042281
H213	H	0.045284	-0.608113	0.068976
C214	C	-0.066925	-0.481255	0.166402
H215	H	-0.071672	-0.449705	0.144410
H216	H	-0.096808	-0.486007	0.185796
H217	H	-0.051743	-0.486055	0.185883
H218	H	0.015032	-0.638195	0.159378
H219	H	-0.028907	-0.460416	0.362542
C220	C	-0.067169	-0.481249	0.324112
H221	H	-0.075324	-0.498143	0.315911
H222	H	-0.095353	-0.461792	0.340995
H223	H	-0.050235	-0.461827	0.295950
C224	C	0.052913	-0.617348	0.444699
H225	H	0.057687	-0.648899	0.449489
H226	H	0.082789	-0.612594	0.429535
H227	H	0.037657	-0.612544	0.474566
H228	H	0.050956	-0.774133	0.341399
C229	C	0.018090	-0.652175	0.409702
H230	H	0.004118	-0.657412	0.395665
H231	H	0.051711	-0.666204	0.398295
H232	H	0.006578	-0.666151	0.443325
C233	C	0.094907	-0.871666	0.369573
H234	H	0.111609	-0.849715	0.353118
H235	H	0.099486	-0.891105	0.399535
H236	H	0.106611	-0.891110	0.351310
H237	H	-0.065262	-0.864385	0.427124
H238	H	-0.095331	-0.773979	0.396956
H239	H	-0.322352	-0.570775	0.472713
C240	C	-0.224852	-0.609194	0.451995
H241	H	-0.246866	-0.613951	0.483531
H242	H	-0.205420	-0.639075	0.447231
H243	H	-0.205412	-0.594001	0.447246
H244	H	-0.322118	-0.496994	0.324987
C245	C	-0.224582	-0.523787	0.281007
H246	H	-0.246521	-0.504330	0.264052
H247	H	-0.205136	-0.506909	0.272877
H248	H	-0.205146	-0.551978	0.272854
