data_functionalizedCrystal
_audit_creation_method	'MofGen! by Chris Wilmer'
_symmetry_space_group_name_H-M	'P1'
_symmetry_Int_Tables_number	1
_symmetry_cell_setting	triclinic
loop_
_symmetry_equiv_pos_as_xyz
  x,y,z
_cell_length_a	18.101398
_cell_length_b	12.759400
_cell_length_c	12.759393
_cell_angle_alpha	89.970158
_cell_angle_beta	89.987613
_cell_angle_gamma	90.010777
loop_
_atom_site_label
_atom_site_type_symbol
_atom_site_fract_x
_atom_site_fract_y
_atom_site_fract_z
Zn1	Zn	1.132222	-0.418328	-0.593824
Zn2	Zn	1.132146	-0.594047	-0.418150
Zn3	Zn	1.008375	-0.418370	-0.418182
Zn4	Zn	1.008366	-0.593952	-0.593810
O5	O	1.070277	-0.506174	-0.505991
O6	O	1.235845	-0.441661	-0.570513
O7	O	1.115700	-0.570800	-0.271133
O8	O	1.024839	-0.271343	-0.441501
O9	O	1.235789	-0.570761	-0.441446
O10	O	1.115829	-0.271313	-0.570544
O11	O	1.024766	-0.441731	-0.271157
O12	O	0.904741	-0.441638	-0.441487
O13	O	1.024824	-0.570598	-0.740833
O14	O	0.904734	-0.570638	-0.570520
O15	O	1.115820	-0.441568	-0.740843
O16	O	1.115691	-0.741056	-0.441432
O17	O	1.024750	-0.740986	-0.570489
C18	C	0.877867	-0.506133	-0.506006
C19	C	0.795553	-0.506141	-0.506037
C20	C	1.070232	-0.779142	-0.505978
C21	C	1.070280	-0.895918	-0.506007
C22	C	1.022962	-1.060513	-0.573171
C23	C	1.022918	-0.950789	-0.573156
C24	C	1.117695	-0.950777	-0.438877
C25	C	1.117742	-1.060499	-0.438898
C26	C	0.996346	-0.800781	-0.697005
C27	C	0.948925	-0.745926	-0.764123
C28	C	0.876674	-0.781608	-0.780184
C29	C	0.851829	-0.872142	-0.729110
C30	C	0.899246	-0.926992	-0.661984
C31	C	0.971508	-0.891312	-0.645943
C32	C	1.144306	-1.210510	-0.315048
C33	C	1.191720	-1.265361	-0.247915
C34	C	1.263973	-1.229681	-0.231844
C35	C	1.288815	-1.139143	-0.282899
C36	C	1.241401	-1.084292	-0.350032
C37	C	1.169149	-1.119979	-0.366105
C38	C	0.496462	-0.506203	-0.505993
C39	C	0.527808	-0.587758	-0.586777
C40	C	0.613426	-0.587503	-0.587109
C41	C	0.644844	-0.506173	-0.506015
C42	C	0.613769	-0.395510	-0.536262
C43	C	0.528124	-0.395999	-0.536837
C44	C	0.528011	-0.534334	-0.394768
C45	C	0.613662	-0.536762	-0.395363
C46	C	0.728704	-0.506149	-0.506026
C47	C	0.412602	-0.506219	-0.505985
C48	C	1.263439	-0.506217	-0.505977
C49	C	1.345753	-0.506235	-0.505971
C50	C	1.070329	-0.506068	-0.780025
C51	C	1.070351	-0.506023	-0.896802
C52	C	1.070344	-0.232141	-0.506028
C53	C	1.070372	-0.115364	-0.506044
C54	C	1.023019	-0.438804	-0.951676
C55	C	1.023036	-0.438772	-1.061400
C56	C	1.117724	-0.573180	-1.061366
C57	C	1.117703	-0.573217	-0.951644
C58	C	0.935736	-0.401162	-1.211365
C59	C	0.888410	-0.333926	-1.266242
C60	C	0.877059	-0.231421	-1.230651
C61	C	0.913045	-0.196131	-1.140185
C62	C	0.960376	-0.263360	-1.085313
C63	C	0.971713	-0.365880	-1.120902
C64	C	1.205004	-0.610816	-0.801677
C65	C	1.252340	-0.678041	-0.746803
C66	C	1.263698	-0.780548	-0.782392
C67	C	1.227726	-0.815835	-0.872862
C68	C	1.180390	-0.748610	-0.927736
C69	C	1.169030	-0.646104	-0.892140
C70	C	1.070269	-0.506204	-0.233024
C71	C	1.070390	-0.505954	-0.116248
H72	H	0.984395	-1.105181	-0.627853
N73	N	0.773897	-0.910630	-0.746423
H74	H	0.746612	-0.911840	-0.677378
H75	H	0.747687	-0.862124	-0.796732
H76	H	0.507388	-0.333056	-0.480695
H77	H	0.506412	-0.613650	-0.367279
N78	N	0.825534	-0.722440	-0.852581
H79	H	0.809365	-0.769923	-0.911589
H80	H	0.780775	-0.698084	-0.812089
H81	H	0.969161	-0.672212	-0.805707
H82	H	0.633981	-0.618194	-0.372550
N83	N	0.947964	-0.511734	-1.249737
H84	H	0.917988	-0.523880	-1.315373
H85	H	1.002101	-0.522326	-1.265688
N86	N	0.501155	-0.455664	-0.315027
H87	H	0.544918	-0.419293	-0.282054
H88	H	0.468701	-0.402117	-0.350784
N89	N	0.641988	-0.463785	-0.311358
H90	H	0.626200	-0.389669	-0.327833
H91	H	0.621039	-0.485433	-0.241243
N92	N	1.168791	-0.645647	-1.120529
H93	H	1.203130	-0.602945	-1.166058
H94	H	1.198723	-0.688228	-1.069054
N95	N	0.642186	-0.363323	-0.642798
H96	H	0.697930	-0.360207	-0.641314
H97	H	0.625735	-0.416210	-0.696840
H98	H	1.151100	-0.777348	-1.001404
H99	H	1.085473	-1.239574	-0.328135
H100	H	0.984462	-0.384090	-0.907026
H101	H	0.634119	-0.333097	-0.479259
N102	N	1.164926	-1.363014	-0.192848
H103	H	1.205925	-1.392343	-0.147878
H104	H	1.121117	-1.345066	-0.147234
N105	N	1.315111	-1.288833	-0.159425
H106	H	1.288411	-1.351598	-0.129510
H107	H	1.359900	-1.313117	-0.199893
H108	H	1.055183	-0.771729	-0.683948
H109	H	0.879018	-1.000704	-0.620402
N110	N	1.168785	-0.891601	-0.366458
H111	H	1.161561	-0.813769	-0.376628
H112	H	1.157297	-0.910848	-0.291415
N113	N	0.999192	-0.225311	-0.987748
H114	H	0.984824	-0.150167	-0.973528
H115	H	0.984324	-0.270518	-0.926261
H116	H	0.859110	-0.362670	-1.339901
N117	N	0.641264	-0.696199	-0.561998
H118	H	0.597900	-0.744712	-0.550614
H119	H	0.672189	-0.722825	-0.622253
N120	N	1.268191	-0.986637	-0.405100
H121	H	1.321158	-0.972352	-0.384734
H122	H	1.264953	-0.997050	-0.483425
N123	N	1.366743	-1.100646	-0.265566
H124	H	1.393010	-1.149132	-0.215293
H125	H	1.393977	-1.099416	-0.334648
N126	N	0.501710	-0.364318	-0.644532
H127	H	0.520978	-0.415666	-0.698190
H128	H	0.445924	-0.364269	-0.645926
N129	N	0.500525	-0.696820	-0.561958
H130	H	0.467579	-0.694424	-0.498110
H131	H	0.471671	-0.724882	-0.623601
N132	N	1.239976	-0.926394	-0.911261
H133	H	1.275419	-0.963627	-0.862771
H134	H	1.191291	-0.965055	-0.912408
H135	H	0.506296	-0.569381	-0.668711
N136	N	0.900736	-0.085606	-1.101729
H137	H	0.865266	-0.048386	-1.150190
H138	H	0.879338	-0.087705	-1.028650
N139	N	0.826015	-0.158902	-1.289836
H140	H	0.804942	-0.196810	-1.352543
H141	H	0.784454	-0.135991	-1.242257
N142	N	0.640591	-0.562846	-0.696267
H143	H	0.596930	-0.552094	-0.744356
H144	H	0.671477	-0.496942	-0.694519
N145	N	1.314761	-0.853054	-0.723216
H146	H	1.335834	-0.815148	-0.660508
H147	H	1.286252	-0.916604	-0.698842
H148	H	1.281638	-0.649297	-0.673145
N149	N	1.192746	-0.500253	-0.763286
H150	H	1.222722	-0.488097	-0.697653
H151	H	1.208676	-0.449039	-0.819283
