data_functionalizedCrystal
_audit_creation_method	'MofGen! by Chris Wilmer'
_symmetry_space_group_name_H-M	'P1'
_symmetry_Int_Tables_number	1
_symmetry_cell_setting	triclinic
loop_
_symmetry_equiv_pos_as_xyz
  x,y,z
_cell_length_a	17.699083
_cell_length_b	11.026607
_cell_length_c	16.176319
_cell_angle_alpha	89.996049
_cell_angle_beta	89.998611
_cell_angle_gamma	95.934516
loop_
_atom_site_label
_atom_site_type_symbol
_atom_site_fract_x
_atom_site_fract_y
_atom_site_fract_z
O1	O	1.025155	0.153399	-0.068626
O2	O	0.807518	0.173357	-0.068652
O3	O	0.898299	-0.013222	-0.068638
O4	O	0.934374	0.339978	-0.068640
O5	O	0.898282	-0.013234	0.068855
O6	O	0.807501	0.173345	0.068841
O7	O	1.025137	0.153387	0.068867
Cu8	Cu	0.916317	0.163365	0.081408
Cu9	Cu	0.916338	0.163379	-0.081193
O10	O	0.934357	0.339966	0.068853
C11	C	0.779214	0.172636	0.000091
C12	C	0.694902	0.170490	0.000080
C13	C	0.891635	-0.058419	0.000106
C14	C	0.871796	-0.193075	0.000101
C15	C	0.661328	0.280008	0.000080
C16	C	0.582106	0.277985	0.000091
C17	C	0.536460	0.166443	0.000096
C18	C	0.570039	0.056917	0.000099
C19	C	0.649259	0.058941	0.000094
C20	C	0.250554	0.048751	0.000119
C21	C	0.171329	0.046735	0.000121
C22	C	0.183402	0.267794	0.000116
C23	C	0.262621	0.269819	0.000111
C24	C	0.296194	0.160293	0.000118
C25	C	0.382094	0.162488	0.000108
C26	C	0.450561	0.164247	0.000100
C27	C	0.926576	-0.267042	0.000107
C28	C	0.906072	-0.406216	0.000101
C29	C	1.053441	0.154108	0.000122
C30	C	1.137754	0.156254	0.000127
C31	C	0.941021	0.385163	0.000107
C32	C	0.960860	0.519819	0.000106
N33	N	0.916308	0.163354	0.195773
N34	N	0.916352	0.163380	-0.195559
C35	C	0.956526	0.080771	0.239044
C36	C	0.956530	0.080770	0.325591
C37	C	0.916320	0.163358	0.368866
C38	C	0.876097	0.245946	0.325590
C39	C	0.876089	0.245940	0.239044
C40	C	0.876126	0.245969	0.674618
C41	C	0.876138	0.245970	0.761169
C42	C	0.956566	0.080798	0.761165
C43	C	0.956559	0.080792	0.674619
C44	C	0.916333	0.163375	0.631350
C45	C	0.916328	0.163374	0.537506
C46	C	0.916328	0.163366	0.462709
H47	H	0.554775	0.367165	0.000090
C48	C	0.710790	0.401203	-0.000055
C49	C	0.695141	0.467414	-0.070780
C50	C	0.740680	0.579075	-0.070925
H51	H	0.762801	0.386903	-0.000102
H52	H	0.700273	0.446347	0.047868
H53	H	0.705663	0.422280	-0.118691
H54	H	0.643138	0.481747	-0.070748
H55	H	0.730164	0.624219	-0.023002
H56	H	0.792689	0.564763	-0.070970
H57	H	0.730064	0.624017	-0.118907
H58	H	0.809717	-0.232783	0.000088
H59	H	0.843374	0.313212	0.639395
H60	H	0.277879	-0.040432	0.000126
C61	C	0.999990	-0.009146	0.627611
C62	C	0.949468	-0.083281	0.578019
C63	C	0.989406	-0.166235	0.534733
H64	H	1.023880	-0.058439	0.665748
H65	H	1.037458	0.034170	0.593736
H66	H	0.912014	-0.126595	0.611890
H67	H	0.925576	-0.034023	0.539866
H68	H	1.026873	-0.122918	0.500858
H69	H	1.013294	-0.215519	0.572876
H70	H	0.955134	-0.216538	0.501074
H71	H	0.134166	-0.044102	0.000127
H72	H	1.022943	-0.440480	0.000052
C73	C	1.000199	-0.009036	0.192213
C74	C	1.035403	-0.081381	0.248636
C75	C	1.075632	-0.164140	0.205528
H76	H	1.037690	0.034391	0.158440
H77	H	0.966110	-0.059547	0.158477
H78	H	1.069490	-0.030877	0.282357
H79	H	0.997930	-0.124834	0.282410
H80	H	1.041543	-0.214651	0.171793
H81	H	1.113119	-0.120703	0.171758
H82	H	1.099517	-0.213243	0.243805
C83	C	1.000167	-0.009074	0.808041
C84	C	0.971671	-0.128250	0.786978
C85	C	1.011822	-0.211066	0.830134
H86	H	0.994441	0.002580	0.865794
H87	H	1.052462	0.003924	0.793835
H88	H	0.919388	-0.141243	0.801190
H89	H	0.977397	-0.139943	0.729232
H90	H	1.064117	-0.198068	0.815928
H91	H	1.006094	-0.199401	0.887885
H92	H	0.992498	-0.291936	0.815844
H93	H	0.843392	0.313226	0.796403
H94	H	0.299783	0.360648	0.000103
H95	H	0.843353	0.313187	0.360829
C96	C	0.832540	0.335801	0.192105
C97	C	0.861060	0.454982	0.213127
C98	C	0.820964	0.537792	0.169895
H99	H	0.780240	0.322893	0.206261
H100	H	0.838307	0.324051	0.134356
H101	H	0.855286	0.466728	0.270862
H102	H	0.913355	0.467929	0.198968
H103	H	0.826732	0.526041	0.112147
H104	H	0.768666	0.524872	0.184055
H105	H	0.840314	0.618664	0.184147
C106	C	0.147094	0.386844	0.000075
C107	C	0.204026	0.484957	0.000043
C108	C	0.170611	0.594640	-0.000009
H109	H	0.116450	0.390827	0.048011
H110	H	0.116459	0.390717	-0.047889
H111	H	0.234648	0.481086	0.048002
H112	H	0.234674	0.481015	-0.047889
H113	H	0.139976	0.598513	-0.047973
H114	H	0.139968	0.598610	0.047928
H115	H	0.209234	0.661223	-0.000038
C116	C	0.520353	-0.064065	0.000063
C117	C	0.443789	-0.042401	0.000043
C118	C	0.397999	-0.153822	-0.000003
H119	H	0.530761	-0.109246	0.047997
H120	H	0.530814	-0.109157	-0.047903
H121	H	0.433333	0.002672	0.048004
H122	H	0.433359	0.002761	-0.047887
H123	H	0.408459	-0.198914	-0.047969
H124	H	0.408413	-0.198994	0.047932
H125	H	0.346045	-0.139138	-0.000024
H126	H	0.988654	-0.227333	0.000119
H127	H	0.676594	-0.030240	0.000094
H128	H	0.843990	-0.445918	0.000088
H129	H	0.989277	0.013523	0.360821
