data_functionalizedCrystal
_audit_creation_method	'MofGen! by Chris Wilmer'
_symmetry_space_group_name_H-M	'P1'
_symmetry_Int_Tables_number	1
_symmetry_cell_setting	triclinic
loop_
_symmetry_equiv_pos_as_xyz
  x,y,z
_cell_length_a	10.489741
_cell_length_b	27.732048
_cell_length_c	9.565339
_cell_angle_alpha	89.995294
_cell_angle_beta	89.999100
_cell_angle_gamma	83.590915
loop_
_atom_site_label
_atom_site_type_symbol
_atom_site_fract_x
_atom_site_fract_y
_atom_site_fract_z
O1	O	1.691056	0.068187	-0.116191
O2	O	1.319579	0.074588	-0.116214
O3	O	1.516855	0.001064	-0.116175
O4	O	1.493780	0.141712	-0.116230
O5	O	1.516839	0.001068	0.116345
O6	O	1.319563	0.074593	0.116306
O7	O	1.691040	0.068192	0.116329
Zn8	Zn	1.505299	0.071393	0.153235
Zn9	Zn	1.505320	0.071387	-0.153120
O10	O	1.493765	0.141716	0.116290
C11	C	1.272061	0.074107	0.000043
C12	C	1.130495	0.072661	0.000036
C13	C	1.064411	0.025879	0.000067
C14	C	0.971320	0.047976	-0.114583
C15	C	0.971339	0.047992	0.114663
C16	C	1.039269	0.094777	-0.114709
C17	C	1.039297	0.094786	0.114640
C18	C	0.946232	0.116916	-0.000038
C19	C	1.516363	-0.016944	0.000089
C20	C	1.514904	-0.070608	0.000100
C21	C	1.622299	-0.408745	0.000035
C22	C	1.616888	-0.610439	0.000015
O23	O	1.715093	-0.641075	-0.000040
N24	N	1.499911	-0.630301	0.000009
C25	C	1.384279	-0.599736	-0.000001
O26	O	1.284660	-0.621258	-0.000021
C27	C	1.389692	-0.398044	0.000009
C28	C	1.506676	-0.378184	0.000029
C29	C	1.739274	-0.388886	0.000054
C30	C	1.740625	-0.338465	0.000066
C31	C	1.625002	-0.307904	0.000060
C32	C	1.508028	-0.327764	0.000042
C33	C	1.274062	-0.367480	-0.000011
C34	C	1.275425	-0.317054	-0.000012
C35	C	1.392409	-0.297195	0.000008
C36	C	1.393757	-0.246783	0.000048
N37	N	1.510733	-0.226920	0.000054
C38	C	1.626356	-0.257481	0.000060
C39	C	1.381446	-0.705628	-0.000003
C40	C	1.380092	-0.756051	-0.000003
C41	C	1.612701	-0.766751	0.000010
C42	C	1.614053	-0.716327	0.000020
C43	C	1.498422	-0.685766	0.000003
C44	C	1.629186	-0.151594	0.000088
C45	C	1.630527	-0.101169	0.000106
C46	C	1.397919	-0.090474	0.000085
C47	C	1.396577	-0.140895	0.000074
C48	C	1.512221	-0.171454	0.000071
O49	O	1.295604	-0.216118	0.000088
O50	O	1.725961	-0.235950	0.000049
C51	C	1.620947	-0.459166	0.000023
C52	C	1.503973	-0.479025	0.000004
C53	C	1.388350	-0.448464	-0.000002
C54	C	1.502619	-0.529448	0.000004
C55	C	1.618242	-0.560009	0.000010
C56	C	1.735219	-0.540147	0.000016
C57	C	1.736570	-0.489727	0.000029
C58	C	1.271374	-0.468327	-0.000008
C59	C	1.270032	-0.518748	-0.000019
C60	C	1.385654	-0.549308	-0.000013
C61	C	1.738559	0.068673	0.000069
C62	C	1.880124	0.070119	0.000067
C63	C	1.494257	0.159724	0.000023
C64	C	1.495715	0.213388	0.000003
N65	N	1.505295	0.071397	0.362315
N66	N	1.505335	0.071379	-0.362199
C67	C	1.414034	0.105388	0.453500
C68	C	1.529101	0.115168	0.546682
C69	C	1.390277	0.061621	0.546688
C70	C	1.620419	0.081198	0.453445
C71	C	1.481520	0.027633	0.453443
C72	C	1.596671	0.037394	0.546583
H73	H	1.725793	-0.085003	0.000126
H74	H	1.069467	0.114566	0.211560
O75	O	1.553160	0.159274	0.595792
C76	C	1.553965	0.158515	0.743175
H77	H	1.575532	0.119496	0.781193
H78	H	1.630865	0.180979	0.783470
H79	H	1.456153	0.174454	0.784042
H80	H	1.723354	-0.176470	0.000080
H81	H	1.301319	-0.157065	0.000097
H82	H	1.178801	-0.383640	-0.000036
O83	O	1.854377	-0.319258	0.000013
C84	C	1.956124	-0.357052	0.000048
H85	H	1.921048	-0.391422	-0.043975
H86	H	2.037864	-0.346229	-0.067456
H87	H	1.991735	-0.364065	0.111601
O88	O	1.285725	-0.060713	0.000016
C89	C	1.312018	-0.011952	0.000058
H90	H	1.412164	-0.009668	-0.043943
H91	H	1.238274	0.010635	-0.067461
H92	H	1.306876	0.002608	0.111610
O93	O	1.457615	-0.016536	0.404699
C94	C	1.552741	-0.052418	0.454154
H95	H	1.597922	-0.038876	0.553009
H96	H	1.507429	-0.086945	0.478736
H97	H	1.629791	-0.060448	0.370713
H98	H	1.709312	-0.700161	0.000036
H99	H	1.292993	0.053360	0.587650
O100	O	1.125525	-0.020028	0.000133
C101	C	1.089452	-0.044866	0.119890
H102	H	0.992869	-0.027162	0.159439
H103	H	1.081353	-0.084386	0.092148
H104	H	1.164961	-0.043137	0.204919
O105	O	1.321915	0.139645	0.404658
C106	C	1.233079	0.117180	0.323564
H107	H	1.235914	0.077452	0.355313
H108	H	1.132532	0.136349	0.341605
H109	H	1.258952	0.119574	0.208204
O110	O	1.156417	-0.538059	0.000207
C111	C	1.148655	-0.566923	0.120598
H112	H	1.215048	-0.554774	0.204791
H113	H	1.045769	-0.562762	0.160996
H114	H	1.178870	-0.606574	0.093360
O115	O	1.851567	-0.418588	-0.000185
C116	C	1.857766	-0.448082	-0.120588
H117	H	1.792177	-0.429855	-0.204770
H118	H	1.960620	-0.453377	-0.160993
H119	H	1.825517	-0.484863	-0.093362
H120	H	1.706846	-0.791642	0.000016
O121	O	1.736581	0.091033	0.404831
C122	C	1.832732	0.055373	0.453353
H123	H	1.788050	0.020891	0.480096
H124	H	1.908316	0.047126	0.368477
H125	H	1.879579	0.069267	0.550720
O126	O	1.850322	-0.470519	-0.000023
C127	C	1.952069	-0.508313	0.000014
H128	H	1.916994	-0.542683	-0.044011
H129	H	2.033811	-0.497490	-0.067489
H130	H	1.987678	-0.515327	0.111567
O131	O	1.688951	0.003084	0.594813
C132	C	1.754014	-0.020619	0.480763
H133	H	1.743111	0.003908	0.384871
H134	H	1.860078	-0.029077	0.507419
H135	H	1.711466	-0.055853	0.457775
H136	H	0.941183	0.028180	-0.211498
O137	O	1.075141	0.118415	-0.230337
C138	C	1.135124	0.159212	-0.189448
H139	H	1.174346	0.153535	-0.078810
H140	H	1.217266	0.164157	-0.264256
H141	H	1.062268	0.192932	-0.192216
O142	O	0.885297	0.162851	-0.000371
C143	C	0.919940	0.187328	-0.121397
H144	H	0.953753	0.159693	-0.205491
H145	H	0.833368	0.211969	-0.161415
H146	H	1.000709	0.210114	-0.095152
H147	H	1.287280	-0.680750	-0.000017
O148	O	0.935370	0.024304	0.230158
C149	C	0.874288	-0.016201	0.189021
H150	H	0.906106	-0.027557	0.078757
H151	H	0.901504	-0.047529	0.264323
H152	H	0.765865	-0.006273	0.190720
H153	H	1.177217	-0.443448	-0.000016
H154	H	1.829363	-0.565039	0.000027
O155	O	1.266342	-0.775260	-0.000069
C156	C	1.164590	-0.737467	-0.000043
H157	H	1.199665	-0.703093	-0.044057
H158	H	1.082859	-0.748287	-0.067559
H159	H	1.128964	-0.730462	0.111506
O160	O	1.163015	-0.287417	-0.000214
C161	C	1.091963	-0.296471	-0.120668
H162	H	1.124062	-0.334601	-0.160819
H163	H	0.985518	-0.293305	-0.093599
H164	H	1.108853	-0.268830	-0.204986
