data_functionalizedCrystal
_audit_creation_method	'MofGen! by Chris Wilmer'
_symmetry_space_group_name_H-M	'P1'
_symmetry_Int_Tables_number	1
_symmetry_cell_setting	triclinic
loop_
_symmetry_equiv_pos_as_xyz
  x,y,z
_cell_length_a	12.759401
_cell_length_b	12.827892
_cell_length_c	12.759393
_cell_angle_alpha	89.970028
_cell_angle_beta	89.979007
_cell_angle_gamma	90.014683
loop_
_atom_site_label
_atom_site_type_symbol
_atom_site_fract_x
_atom_site_fract_y
_atom_site_fract_z
Zn1	Zn	1.606261	-0.416002	-0.594025
Zn2	Zn	1.606150	-0.590780	-0.418347
Zn3	Zn	1.430560	-0.416051	-0.418360
Zn4	Zn	1.430550	-0.590700	-0.593984
O5	O	1.518380	-0.503383	-0.506179
O6	O	1.753268	-0.439200	-0.570733
O7	O	1.582816	-0.567655	-0.271328
O8	O	1.453918	-0.269809	-0.441686
O9	O	1.753186	-0.567608	-0.441663
O10	O	1.583005	-0.269773	-0.570746
O11	O	1.453810	-0.439283	-0.271338
O12	O	1.283538	-0.439206	-0.441646
O13	O	1.453900	-0.567472	-0.741011
O14	O	1.283530	-0.567519	-0.570676
O15	O	1.582995	-0.439122	-0.741041
O16	O	1.582806	-0.737005	-0.441623
O17	O	1.453793	-0.736946	-0.570663
C18	C	1.245413	-0.503360	-0.506158
C19	C	1.128636	-0.503375	-0.506174
C20	C	1.518315	-0.774893	-0.506160
C21	C	1.518383	-0.891046	-0.506187
C22	C	0.964016	-0.436499	-0.439127
C23	C	1.073740	-0.436474	-0.439111
C24	C	1.073803	-0.570297	-0.573265
C25	C	0.964081	-0.570315	-0.573285
C26	C	1.223681	-0.313161	-0.401758
C27	C	1.278511	-0.246251	-0.334658
C28	C	1.242845	-0.230090	-0.232178
C29	C	1.152351	-0.280855	-0.196778
C30	C	1.097526	-0.347773	-0.263872
C31	C	1.133191	-0.363913	-0.366366
C32	C	0.814138	-0.693630	-0.610627
C33	C	0.759312	-0.760554	-0.677717
C34	C	0.794976	-0.776725	-0.780199
C35	C	0.885473	-0.725979	-0.815596
C36	C	0.940300	-0.659055	-0.748506
C37	C	0.904628	-0.642882	-0.646026
C38	C	1.582231	-0.942730	-0.570107
C39	C	1.582302	-1.062780	-0.570136
C40	C	1.792414	-0.503407	-0.506201
C41	C	1.909190	-0.503418	-0.506210
C42	C	1.518459	-0.503283	-0.780213
C43	C	1.518492	-0.503240	-0.896990
C44	C	1.518475	-0.230813	-0.506222
C45	C	1.518515	-0.114660	-0.506240
C46	C	1.585717	-0.436398	-0.951869
C47	C	1.585735	-0.436353	-1.061593
C48	C	1.451301	-0.570001	-1.061549
C49	C	1.451278	-0.570040	-0.951827
C50	C	1.623348	-0.313060	-1.211570
C51	C	1.690589	-0.246226	-1.266453
C52	C	1.793102	-0.230206	-1.230862
C53	C	1.828395	-0.281034	-1.140389
C54	C	1.761160	-0.347874	-1.085511
C55	C	1.658632	-0.363875	-1.121101
C56	C	1.413676	-0.693335	-0.801848
C57	C	1.346445	-0.760182	-0.746968
C58	C	1.243930	-0.776213	-0.782557
C59	C	1.208641	-0.725404	-0.873034
C60	C	1.275872	-0.658557	-0.927913
C61	C	1.378385	-0.642524	-0.892316
C62	C	1.518362	-0.503408	-0.233212
C63	C	1.518533	-0.503156	-0.116436
H64	H	0.919328	-0.382021	-0.384515
H65	H	1.463853	-1.070221	-0.451508
H66	H	1.189195	-0.830655	-0.737870
F67	F	1.379774	-0.641095	-1.119919
F68	F	1.036617	-0.605046	-0.786182
H69	H	1.661844	-0.204842	-1.340117
F70	F	1.653602	-0.884403	-0.641620
H71	H	1.539872	-0.326089	-1.240552
F72	F	1.653758	-1.120872	-0.641663
H73	H	1.463768	-0.935675	-0.451489
F74	F	1.001224	-0.401801	-0.226201
H75	H	1.123325	-0.267701	-0.113323
H76	H	1.640444	-0.382002	-0.907224
F77	F	1.798715	-0.401968	-0.989231
H78	H	1.911875	-0.267991	-1.111423
H79	H	1.847850	-0.175788	-1.275555
F80	F	1.238310	-0.604479	-1.024207
F81	F	0.776173	-0.676421	-0.501553
H82	H	1.125166	-0.738461	-0.902014
H83	H	1.252723	-0.326303	-0.485209
H84	H	1.375190	-0.801563	-0.673304
H85	H	1.287495	-0.175610	-0.177545
F86	F	1.132230	-0.641501	-0.644636
F87	F	1.374818	-0.192225	-0.372338
F88	F	0.923437	-0.743192	-0.924667
H89	H	1.497149	-0.680280	-0.772856
H90	H	0.750330	-0.831228	-0.834820
H91	H	0.685626	-0.801877	-0.648887
