data_functionalizedCrystal
_audit_creation_method	'MofGen! by Chris Wilmer'
_symmetry_space_group_name_H-M	'P1'
_symmetry_Int_Tables_number	1
_symmetry_cell_setting	triclinic
loop_
_symmetry_equiv_pos_as_xyz
  x,y,z
_cell_length_a	19.188925
_cell_length_b	17.666332
_cell_length_c	13.339070
_cell_angle_alpha	89.997681
_cell_angle_beta	80.614078
_cell_angle_gamma	90.010303
loop_
_atom_site_label
_atom_site_type_symbol
_atom_site_fract_x
_atom_site_fract_y
_atom_site_fract_z
O1	O	0.950859	0.062963	-0.126163
O2	O	1.450859	0.562963	0.373837
O3	O	0.750875	0.062960	-0.143156
O4	O	1.250875	0.562960	0.356844
O5	O	0.827915	0.062959	0.012502
O6	O	1.327915	0.562959	0.512502
O7	O	0.873818	0.062964	-0.281821
O8	O	1.373818	0.562964	0.218179
O9	O	0.827895	-0.062938	0.012510
O10	O	1.327895	0.437062	0.512510
O11	O	0.750854	-0.062936	-0.143148
O12	O	1.250854	0.437064	0.356852
O13	O	0.950838	-0.062934	-0.126155
O14	O	1.450838	0.437066	0.373845
Cu15	Cu	0.850844	-0.074431	-0.134651
Cu16	Cu	1.350844	0.425569	0.365349
Cu17	Cu	0.850869	0.074457	-0.134660
Cu18	Cu	1.350869	0.574457	0.365340
O19	O	0.873798	-0.062933	-0.281813
O20	O	1.373798	0.437067	0.218187
C21	C	0.724746	0.000012	-0.142602
C22	C	1.224746	0.500012	0.357398
C23	C	0.646918	0.000011	-0.140953
C24	C	1.146918	0.500011	0.359047
C25	C	0.100872	0.000014	-0.221245
C26	C	0.600872	0.500014	0.278755
C27	C	0.174000	0.000018	-0.222804
C28	C	0.674000	0.500018	0.277196
C29	C	0.201048	0.000015	-0.131469
C30	C	0.701048	0.500015	0.368531
C31	C	0.154961	0.000027	-0.038569
C32	C	0.654961	0.500027	0.461431
C33	C	0.081835	0.000031	-0.037013
C34	C	0.581835	0.500031	0.462987
N35	N	0.308769	-0.042842	-0.065343
N36	N	0.808769	0.457158	0.434657
N37	N	0.378237	-0.042847	-0.066827
N38	N	0.878237	0.457153	0.433173
C39	C	0.421374	0.000006	-0.136151
C40	C	0.921374	0.500006	0.363849
N41	N	0.392420	0.042855	-0.203949
N42	N	0.892420	0.542855	0.296051
N43	N	0.322946	0.042857	-0.202468
N44	N	0.822946	0.542857	0.297532
C45	C	0.280341	0.000012	-0.133146
C46	C	0.780341	0.500012	0.366854
C47	C	0.546746	0.000004	-0.230735
C48	C	1.046746	0.500004	0.269265
C49	C	0.619875	0.000012	-0.232289
C50	C	1.119875	0.500012	0.267711
C51	C	0.600835	0.000014	-0.048051
C52	C	1.100835	0.500014	0.451949
C53	C	0.527707	0.000013	-0.046499
C54	C	1.027707	0.500013	0.453501
C55	C	0.500667	0.000004	-0.137844
C56	C	1.000667	0.500004	0.362156
N57	N	0.850832	-0.179150	-0.134643
N58	N	1.350832	0.320850	0.365357
C59	C	0.884968	-0.218760	-0.065751
C60	C	1.384968	0.281240	0.434249
C61	C	0.884971	-0.298008	-0.065746
C62	C	1.384971	0.201992	0.434254
C63	C	0.850849	-0.337642	-0.134651
C64	C	1.350849	0.162358	0.365349
C65	C	0.816705	-0.298022	-0.203548
C66	C	1.316705	0.201978	0.296452
C67	C	0.816697	-0.218776	-0.203544
C68	C	1.316697	0.281224	0.296456
N69	N	0.859294	-0.462059	-0.224126
N70	N	1.359294	0.037941	0.275874
N71	N	0.859306	-0.537340	-0.224126
N72	N	1.359306	-0.037340	0.275874
C73	C	0.850870	-0.576406	-0.134665
C74	C	1.350870	-0.076406	0.365335
N75	N	0.842435	-0.537348	-0.045200
N76	N	1.342435	-0.037348	0.454800
N77	N	0.842428	-0.462061	-0.045200
N78	N	1.342428	0.037939	0.454800
C79	C	0.850853	-0.423571	-0.134662
C80	C	1.350853	0.076429	0.365338
C81	C	0.885010	-0.701946	-0.065762
C82	C	1.385010	-0.201946	0.434238
C83	C	0.885008	-0.781195	-0.065756
C84	C	1.385008	-0.281195	0.434244
C85	C	0.816748	-0.781208	-0.203566
C86	C	1.316748	-0.281208	0.296434
C87	C	0.816745	-0.701960	-0.203563
C88	C	1.316745	-0.201960	0.296437
C89	C	0.850880	-0.662334	-0.134663
C90	C	1.350880	-0.162334	0.365337
C91	C	0.976967	0.000016	-0.126708
C92	C	1.476967	0.500016	0.373292
C93	C	1.054795	0.000022	-0.128357
C94	C	1.554795	0.500022	0.371643
C95	C	0.820151	0.000011	0.050161
C96	C	1.320151	0.500011	0.550161
C97	C	0.797038	0.000014	0.162360
C98	C	1.297038	0.500014	0.662360
N99	N	0.850884	0.179176	-0.134660
N100	N	1.350884	0.679176	0.365340
C101	C	0.881562	0.000016	-0.319471
C102	C	1.381562	0.500016	0.180529
C103	C	0.904675	0.000018	-0.431670
C104	C	1.404675	0.500018	0.068330
C105	C	0.976751	0.000016	0.527953
C106	C	1.476751	0.500016	1.027953
C107	C	0.998469	0.000009	0.422537
C108	C	1.498469	0.500009	0.922537
C109	C	0.948113	0.000011	0.357487
C110	C	1.448113	0.500011	0.857487
C111	C	0.876035	0.000019	0.397864
C112	C	1.376035	0.500019	0.897864
C113	C	0.854315	0.000019	0.503290
C114	C	1.354315	0.500019	1.003290
C115	C	0.825677	0.000014	0.332825
C116	C	1.325677	0.500014	0.832825
C117	C	0.753600	0.000022	0.373202
C118	C	1.253600	0.500022	0.873202
C119	C	0.731884	0.000024	0.478618
C120	C	1.231884	0.500024	0.978618
C121	C	0.782240	0.000022	0.543667
C122	C	1.282240	0.500022	1.043667
C123	C	0.847397	0.000013	0.227399
C124	C	1.347397	0.500013	0.727399
C125	C	0.724962	0.000017	0.202737
C126	C	1.224962	0.500017	0.702737
C127	C	0.703244	0.000024	0.308153
C128	C	1.203244	0.500024	0.808153
H129	H	0.078861	0.000010	-0.295625
H130	H	0.578861	0.500010	0.204375
Cl131	Cl	0.231936	0.000005	-0.339586
Cl132	Cl	0.731936	0.500005	0.160414
Cl133	Cl	0.641272	0.000023	0.529375
Cl134	Cl	1.141272	0.500023	1.029375
Cl135	Cl	1.040046	-0.000000	0.609731
Cl136	Cl	1.540046	0.500000	1.109731
H137	H	0.657391	0.000012	-0.307933
H138	H	1.157391	0.500012	0.192067
Cl139	Cl	0.188964	0.000027	0.076253
Cl140	Cl	0.688964	0.500027	0.576253
Cl141	Cl	0.773844	-0.831028	-0.290181
Cl142	Cl	1.273844	-0.331028	0.209819
H143	H	0.044318	0.000038	0.038630
H144	H	0.544318	0.500038	0.538630
Cl145	Cl	0.773805	-0.347846	-0.290166
Cl146	Cl	1.273805	0.152154	0.209834
Cl147	Cl	0.773834	-0.652160	-0.290179
Cl148	Cl	1.273834	-0.152160	0.209821
H149	H	0.965800	0.000005	0.271654
H150	H	1.465800	0.500005	0.771654
Cl151	Cl	0.612635	0.000035	0.358925
Cl152	Cl	1.112635	0.500035	0.858925
Cl153	Cl	0.512749	-0.000005	-0.345565
Cl154	Cl	1.012749	0.499995	0.154435
H155	H	0.906083	0.000007	0.194535
H156	H	1.406083	0.500007	0.694535
H157	H	1.057154	0.000002	0.389670
H158	H	1.557154	0.500002	0.889670
Cl159	Cl	0.634831	0.000022	0.066771
Cl160	Cl	1.134831	0.500022	0.566771
Cl161	Cl	0.469779	0.000026	0.070281
Cl162	Cl	0.969779	0.500026	0.570281
Cl163	Cl	0.927875	-0.168945	0.020870
Cl164	Cl	1.427875	0.331055	0.520870
H165	H	0.764560	0.000030	0.629507
H166	H	1.264560	0.500030	1.129507
H167	H	0.683958	0.000014	0.149773
H168	H	1.183958	0.500014	0.649773
Cl169	Cl	0.927918	-0.652129	0.020861
Cl170	Cl	1.427918	-0.152129	0.520861
H171	H	0.912769	-0.330265	-0.009644
H172	H	1.412769	0.169735	0.490356
Cl173	Cl	0.773782	-0.168977	-0.290159
Cl174	Cl	1.273782	0.331023	0.209841
Cl175	Cl	0.927919	-0.830994	0.020864
Cl176	Cl	1.427919	-0.330994	0.520864
