data_functionalizedCrystal
_audit_creation_method	'MofGen! by Chris Wilmer'
_symmetry_space_group_name_H-M	'P1'
_symmetry_Int_Tables_number	1
_symmetry_cell_setting	triclinic
loop_
_symmetry_equiv_pos_as_xyz
  x,y,z
_cell_length_a	17.699077
_cell_length_b	10.540510
_cell_length_c	16.776229
_cell_angle_alpha	89.995854
_cell_angle_beta	89.993415
_cell_angle_gamma	83.896944
loop_
_atom_site_label
_atom_site_type_symbol
_atom_site_fract_x
_atom_site_fract_y
_atom_site_fract_z
O1	O	1.005115	0.160487	-0.066273
O2	O	1.505115	0.660487	0.433727
O3	O	0.784870	0.181379	-0.066277
O4	O	1.284870	0.681379	0.433723
O5	O	0.900029	-0.013869	-0.066275
O6	O	1.400029	0.486131	0.433725
O7	O	0.889956	0.355734	-0.066275
O8	O	1.389956	0.855734	0.433725
O9	O	0.900013	-0.013881	0.066302
O10	O	1.400013	0.486119	0.566302
O11	O	0.784855	0.181367	0.066300
O12	O	1.284855	0.681367	0.566300
O13	O	1.005099	0.160475	0.066303
O14	O	1.505099	0.660475	0.566303
Zn15	Zn	0.894974	0.170919	0.087351
Zn16	Zn	1.394974	0.670919	0.587351
Zn17	Zn	0.894995	0.170935	-0.087324
Zn18	Zn	1.394995	0.670935	0.412676
O19	O	0.889940	0.355722	0.066301
O20	O	1.389940	0.855722	0.566301
C21	C	0.756660	0.180625	0.000011
C22	C	1.256660	0.680625	0.500011
C23	C	0.672628	0.178383	0.000010
C24	C	1.172628	0.678383	0.500010
C25	C	0.633145	0.177321	0.072278
C26	C	1.133145	0.677321	0.572278
C27	C	0.554189	0.175194	0.072279
C28	C	1.054189	0.675194	0.572279
C29	C	0.514716	0.174139	0.000011
C30	C	1.014716	0.674139	0.500011
C31	C	0.554204	0.175198	-0.072263
C32	C	1.054204	0.675198	0.427737
C33	C	0.633160	0.177316	-0.072263
C34	C	1.133160	0.677316	0.427737
C35	C	0.235786	0.166656	-0.072265
C36	C	0.735786	0.666656	0.427735
C37	C	0.156825	0.164542	-0.072259
C38	C	0.656825	0.664542	0.427741
C39	C	0.156815	0.164534	0.072277
C40	C	0.656815	0.664534	0.572277
C41	C	0.235771	0.166651	0.072277
C42	C	0.735771	0.666651	0.572277
C43	C	0.275253	0.167704	0.000004
C44	C	0.775253	0.667704	0.500004
C45	C	0.360866	0.170008	0.000004
C46	C	0.860866	0.670008	0.500004
C47	C	0.429103	0.171844	0.000010
C48	C	0.929103	0.671844	0.500010
C49	C	0.899270	-0.061164	0.000012
C50	C	1.399270	0.438836	0.500012
C51	C	0.897025	-0.202073	0.000007
C52	C	1.397025	0.297927	0.500007
C53	C	0.977025	-0.420995	0.000312
C54	C	1.477025	0.079005	0.500312
C55	C	0.979421	-0.274443	0.000009
C56	C	1.479421	0.225557	0.500009
C57	C	0.854855	-0.246052	-0.075700
C58	C	1.354855	0.253948	0.424300
C59	C	0.853043	-0.392780	-0.075759
C60	C	1.353043	0.107220	0.424241
C61	C	0.851309	-0.392570	0.075005
C62	C	1.351309	0.107430	0.575005
C63	C	0.855217	-0.246301	0.076002
C64	C	1.355217	0.253699	0.576002
C65	C	1.033309	0.161228	0.000014
C66	C	1.533309	0.661228	0.500014
C67	C	1.117341	0.163470	0.000010
C68	C	1.617341	0.663470	0.500010
C69	C	0.890699	0.403018	0.000013
C70	C	1.390699	0.903018	0.500013
C71	C	0.892944	0.543926	0.000012
C72	C	1.392944	1.043926	0.500012
N73	N	0.894966	0.170907	0.206562
N74	N	1.394966	0.670907	0.706562
N75	N	0.895009	0.170936	-0.206536
N76	N	1.395009	0.670936	0.293464
C77	C	0.945974	0.084487	0.248280
C78	C	1.445974	0.584487	0.748280
C79	C	0.945978	0.084486	0.331732
C80	C	1.445978	0.584486	0.831732
C81	C	0.894977	0.170912	0.373465
C82	C	1.394977	0.670912	0.873465
C83	C	0.843964	0.257336	0.331741
C84	C	1.343964	0.757336	0.831741
C85	C	0.843957	0.257330	0.248290
C86	C	1.343957	0.757330	0.748290
C87	C	0.843991	0.257361	0.668288
C88	C	1.343991	0.757361	1.168288
C89	C	0.844004	0.257363	0.751745
C90	C	1.344004	0.757363	1.251745
C91	C	0.946013	0.084517	0.751730
C92	C	1.446013	0.584517	1.251730
C93	C	0.946006	0.084511	0.668280
C94	C	1.446006	0.584511	1.168280
C95	C	0.894990	0.170930	0.626563
C96	C	1.394990	0.670930	1.126563
C97	C	0.894985	0.170929	0.536075
C98	C	1.394985	0.670929	1.036075
C99	C	0.894985	0.170921	0.463952
C100	C	1.394985	0.670921	0.963952
H101	H	0.267923	0.167509	-0.131114
H102	H	0.767923	0.667509	0.368886
H103	H	0.802454	0.327729	0.634329
H104	H	1.302454	0.827729	1.134329
H105	H	0.802470	0.327744	0.785722
H106	H	1.302470	0.827744	1.285722
H107	H	0.987551	0.014146	0.785705
H108	H	1.487551	0.514146	1.285705
H109	H	0.522060	0.174330	-0.131105
H110	H	1.022060	0.674330	0.368895
H111	H	0.124688	0.163682	-0.131112
H112	H	0.624688	0.663682	0.368888
H113	H	0.791416	-0.414645	-0.079190
H114	H	1.291416	0.085355	0.420810
H115	H	1.012416	-0.245709	0.054278
H116	H	1.512416	0.254291	0.554278
H117	H	0.885902	-0.218257	0.132009
H118	H	1.385902	0.281743	0.632009
H119	H	0.881874	-0.433518	-0.132350
H120	H	1.381874	0.066482	0.367650
H121	H	0.665305	0.178184	-0.131112
H122	H	1.165305	0.678184	0.368888
H123	H	0.522047	0.174307	0.131127
H124	H	1.022047	0.674307	0.631127
H125	H	0.877487	-0.435237	0.132391
H126	H	1.377487	0.064763	0.632391
H127	H	0.794197	-0.197551	-0.078516
H128	H	1.294197	0.302449	0.421484
H129	H	0.884153	-0.215727	-0.132039
H130	H	1.384153	0.284273	0.367961
H131	H	0.267905	0.167517	0.131126
H132	H	0.767905	0.667517	0.631126
H133	H	0.789446	-0.413587	0.075514
H134	H	1.289446	0.086413	0.575514
H135	H	0.802420	0.327701	0.214324
H136	H	1.302420	0.827701	0.714324
H137	H	0.795061	-0.196132	0.080573
H138	H	1.295061	0.303868	0.580573
H139	H	0.987538	0.014139	0.634303
H140	H	1.487538	0.514139	1.134303
H141	H	0.802434	0.327702	0.365725
H142	H	1.302434	0.827702	0.865725
H143	H	0.987508	0.014114	0.214307
H144	H	1.487508	0.514114	0.714307
H145	H	1.009119	-0.463543	0.054605
H146	H	1.509119	0.036457	0.554605
H147	H	0.987512	0.014116	0.365699
H148	H	1.487512	0.514116	0.865699
H149	H	1.008947	-0.465080	-0.053673
H150	H	1.508947	0.034920	0.446327
H151	H	0.665277	0.178190	0.131127
H152	H	1.165277	0.678190	0.631127
H153	H	0.124660	0.163671	0.131126
H154	H	0.624660	0.663671	0.631126
H155	H	1.012621	-0.246641	-0.054353
H156	H	1.512621	0.253359	0.445647
