data_functionalizedCrystal
_audit_creation_method	'MofGen! by Chris Wilmer'
_symmetry_space_group_name_H-M	'P1'
_symmetry_Int_Tables_number	1
_symmetry_cell_setting	triclinic
loop_
_symmetry_equiv_pos_as_xyz
  x,y,z
_cell_length_a	16.625547
_cell_length_b	16.120484
_cell_length_c	16.625539
_cell_angle_alpha	87.131385
_cell_angle_beta	90.024822
_cell_angle_gamma	92.925712
loop_
_atom_site_label
_atom_site_type_symbol
_atom_site_fract_x
_atom_site_fract_y
_atom_site_fract_z
Zn1	Zn	1.216387	-0.331907	0.472258
Zn2	Zn	1.716387	0.168093	0.972258
Zn3	Zn	1.209446	-0.471332	0.344255
Zn4	Zn	1.709446	0.028668	0.844255
Zn5	Zn	1.081547	-0.331936	0.337430
Zn6	Zn	1.581547	0.168064	0.837430
Zn7	Zn	1.074677	-0.471281	0.479032
Zn8	Zn	1.574677	0.028719	0.979032
O9	O	1.145514	-0.401614	0.408244
O10	O	1.645514	0.098386	0.908244
O11	O	1.328298	-0.350411	0.455300
O12	O	1.828298	0.149589	0.955300
O13	O	1.192450	-0.452874	0.230519
O14	O	1.692450	0.047126	0.730519
O15	O	1.105214	-0.215267	0.349625
O16	O	1.605214	0.284733	0.849625
O17	O	1.323198	-0.452846	0.361256
O18	O	1.823198	0.047154	0.861256
O19	O	1.204280	-0.215245	0.448682
O20	O	1.704280	0.284755	0.948682
O21	O	1.098483	-0.350461	0.225505
O22	O	1.598483	0.149539	0.725505
O23	O	0.967804	-0.350412	0.356193
O24	O	1.467804	0.149588	0.856193
O25	O	1.093505	-0.452759	0.590964
O26	O	1.593505	0.047241	1.090964
O27	O	0.962756	-0.452787	0.460227
O28	O	1.462756	0.047213	0.960227
O29	O	1.197618	-0.350362	0.585988
O30	O	1.697618	0.149638	1.085988
O31	O	1.185788	-0.587991	0.367824
O32	O	1.685788	-0.087991	0.867824
O33	O	1.086774	-0.587953	0.466845
O34	O	1.586774	-0.087953	0.966845
C35	C	0.936024	-0.401598	0.408205
C36	C	1.436024	0.098402	0.908205
C37	C	0.846402	-0.401611	0.408209
C38	C	1.346402	0.098389	0.908209
C39	C	1.134804	-0.618222	0.418828
C40	C	1.634804	-0.118222	0.918828
C41	C	1.130296	-0.710888	0.423383
C42	C	1.630296	-0.210888	0.923383
C43	C	0.773620	-0.401613	0.408219
C44	C	1.273620	0.098387	0.908219
C45	C	0.682311	-0.401617	0.408239
C46	C	1.182311	0.098383	0.908239
C47	C	0.609534	-0.401625	0.408260
C48	C	1.109534	0.098375	0.908260
C49	C	0.518220	-0.401630	0.408279
C50	C	1.018220	0.098370	0.908279
C51	C	1.122071	-0.880550	0.431715
C52	C	1.622071	-0.380550	0.931715
C53	C	1.169102	-0.921838	0.384786
C54	C	1.669102	-0.421838	0.884786
C55	C	1.164525	-1.016243	0.389422
C56	C	1.664525	-0.516243	0.889422
C57	C	1.126646	-0.786136	0.427080
C58	C	1.626646	-0.286136	0.927080
C59	C	1.355822	-0.401631	0.408283
C60	C	1.855822	0.098369	0.908283
C61	C	1.445443	-0.401638	0.408300
C62	C	1.945443	0.098362	0.908300
C63	C	1.145570	-0.401552	0.618550
C64	C	1.645570	0.098448	1.118550
C65	C	1.145593	-0.401525	0.708170
C66	C	1.645593	0.098475	1.208170
C67	C	1.156288	-0.184160	0.397636
C68	C	1.656288	0.315840	0.897636
C69	C	1.160879	-0.091494	0.393116
C70	C	1.660879	0.408506	0.893116
C71	C	1.145508	-0.401616	0.198753
C72	C	1.645508	0.098384	0.698753
C73	C	1.145652	-0.401407	0.109122
C74	C	1.645652	0.098593	0.609122
C75	C	1.145635	-0.401432	1.036341
C76	C	1.645635	0.098568	1.536341
C77	C	1.145621	-0.401461	0.945034
C78	C	1.645621	0.098539	1.445034
C79	C	1.145615	-0.401479	0.872258
C80	C	1.645615	0.098521	1.372258
C81	C	1.145600	-0.401507	0.780945
C82	C	1.645600	0.098493	1.280945
H83	H	1.212804	-0.886285	0.341127
H84	H	1.712804	-0.386285	0.841127
H85	H	1.078372	-0.916100	0.475370
H86	H	1.578372	-0.416100	0.975370
