data_functionalizedCrystal
_audit_creation_method	'MofGen! by Chris Wilmer'
_symmetry_space_group_name_H-M	'P1'
_symmetry_Int_Tables_number	1
_symmetry_cell_setting	triclinic
loop_
_symmetry_equiv_pos_as_xyz
  x,y,z
_cell_length_a	12.827893
_cell_length_b	12.827892
_cell_length_c	19.805399
_cell_angle_alpha	89.977281
_cell_angle_beta	89.983546
_cell_angle_gamma	90.015363
loop_
_atom_site_label
_atom_site_type_symbol
_atom_site_fract_x
_atom_site_fract_y
_atom_site_fract_z
Zn1	Zn	1.597642	-0.416058	-0.382686
Zn2	Zn	1.597545	-0.590813	-0.269508
Zn3	Zn	1.422892	-0.416087	-0.269517
Zn4	Zn	1.422869	-0.590758	-0.382660
O5	O	1.510237	-0.503429	-0.326093
O6	O	1.743866	-0.439251	-0.367680
O7	O	1.574345	-0.567671	-0.174792
O8	O	1.446123	-0.269847	-0.284544
O9	O	1.743794	-0.567643	-0.284528
O10	O	1.574512	-0.269826	-0.367689
O11	O	1.446029	-0.439300	-0.174799
O12	O	1.276653	-0.439246	-0.284519
O13	O	1.446085	-0.567548	-0.477380
O14	O	1.276636	-0.567576	-0.367645
O15	O	1.574490	-0.439197	-0.477399
O16	O	1.574323	-0.737042	-0.284503
O17	O	1.445990	-0.737001	-0.367636
C18	C	1.238727	-0.503409	-0.326080
C19	C	1.122574	-0.503425	-0.326091
C20	C	1.070754	-0.566860	-0.284890
C21	C	0.950704	-0.566879	-0.284901
C22	C	1.510172	-0.774939	-0.326080
C23	C	1.510239	-0.891092	-0.326098
C24	C	1.573742	-0.942783	-0.367277
C25	C	1.573813	-1.062833	-0.367296
C26	C	1.782807	-0.503450	-0.326106
C27	C	1.898960	-0.503459	-0.326111
C28	C	1.510296	-0.503363	-0.502636
C29	C	1.510321	-0.503335	-0.577868
C30	C	1.510331	-0.230859	-0.326120
C31	C	1.510371	-0.114706	-0.326132
C32	C	1.577183	-0.436499	-0.613223
C33	C	1.577193	-0.436469	-0.683911
C34	C	1.510347	-0.503281	-0.719243
C35	C	1.443477	-0.570119	-0.683883
C36	C	1.443462	-0.570143	-0.613196
C37	C	1.443536	-0.570022	-0.968957
C38	C	1.443559	-0.569995	-1.039649
C39	C	1.577268	-0.436347	-1.039672
C40	C	1.577252	-0.436372	-0.968985
C41	C	1.510380	-0.503206	-0.933631
C42	C	1.510367	-0.503237	-0.856982
C43	C	1.510363	-0.503256	-0.795890
C44	C	1.510239	-0.503419	-0.150237
C45	C	1.510416	-0.503153	-0.075005
H46	H	1.078062	-0.449134	-0.361374
H47	H	1.628053	-0.898163	-0.402522
H48	H	0.943517	-0.449143	-0.361383
O49	O	1.638578	-1.116018	-0.409336
C50	C	1.697776	-1.284166	-0.447637
C51	C	1.624358	-1.224063	-0.400002
H52	H	1.686321	-1.371531	-0.440097
H53	H	1.679378	-1.262810	-0.502228
H54	H	1.782046	-1.262643	-0.435817
H55	H	1.540064	-1.245554	-0.411761
H56	H	1.642846	-1.245425	-0.345425
H57	H	1.456005	-1.070260	-0.290872
O58	O	1.445386	-0.944429	-0.284147
C59	C	1.304443	-1.067865	-0.275057
C60	C	1.377844	-1.007549	-0.322642
H61	H	1.249802	-1.118894	-0.306162
H62	H	1.352470	-1.119032	-0.239742
H63	H	1.256668	-1.010253	-0.244034
H64	H	1.425634	-1.065084	-0.353709
H65	H	1.329757	-0.956366	-0.357913
H66	H	0.906140	-0.621185	-0.249626
O67	O	1.642072	-0.371301	-1.074046
C68	C	1.656205	-0.230218	-1.153894
C69	C	1.582696	-0.303796	-1.114999
H70	H	1.608230	-0.175636	-1.187025
H71	H	1.703962	-0.182399	-1.116528
H72	H	1.710857	-0.278209	-1.186960
H73	H	1.527980	-0.255886	-1.081933
H74	H	1.535012	-0.351618	-1.152402
O75	O	1.642153	-0.371499	-0.579009
C76	C	1.774820	-0.238972	-0.586501
C77	C	1.701279	-0.312518	-0.625329
H78	H	1.822658	-0.191282	-0.623934
H79	H	1.726904	-0.184267	-0.553427
H80	H	1.829395	-0.286981	-0.553388
H81	H	1.646689	-0.264594	-0.658478
H82	H	1.749259	-0.367226	-0.658360
H83	H	1.115266	-0.621158	-0.249612
H84	H	1.631642	-0.382047	-0.712694
H85	H	1.631690	-0.381970	-0.940221
O86	O	1.378516	-0.634927	-1.073867
C87	C	1.245920	-0.767528	-1.066389
C88	C	1.319503	-0.694033	-1.027553
H89	H	1.198205	-0.815350	-1.028961
H90	H	1.191241	-0.719578	-1.099467
H91	H	1.293902	-0.822121	-1.099498
H92	H	1.271605	-0.639426	-0.994407
H93	H	1.374185	-0.742048	-0.994518
H94	H	1.389099	-0.624458	-0.940180
H95	H	1.389045	-0.624514	-0.712656
H96	H	1.389005	-0.624557	-0.584411
