data_functionalizedCrystal
_audit_creation_method	'MofGen! by Chris Wilmer'
_symmetry_space_group_name_H-M	'P1'
_symmetry_Int_Tables_number	1
_symmetry_cell_setting	triclinic
loop_
_symmetry_equiv_pos_as_xyz
  x,y,z
_cell_length_a	21.395362
_cell_length_b	19.077068
_cell_length_c	21.395356
_cell_angle_alpha	87.728374
_cell_angle_beta	90.035770
_cell_angle_gamma	92.343691
loop_
_atom_site_label
_atom_site_type_symbol
_atom_site_fract_x
_atom_site_fract_y
_atom_site_fract_z
Zn1	Zn	0.947810	-0.279939	0.364584
Zn2	Zn	1.197810	-0.029939	0.614584
Zn3	Zn	1.447810	0.220061	0.864584
Zn4	Zn	1.697810	0.470061	1.114584
Zn5	Zn	0.943524	-0.397635	0.264011
Zn6	Zn	1.193524	-0.147635	0.514011
Zn7	Zn	1.443524	0.102365	0.764011
Zn8	Zn	1.693524	0.352365	1.014011
Zn9	Zn	0.843039	-0.279987	0.259787
Zn10	Zn	1.093039	-0.029987	0.509787
Zn11	Zn	1.343039	0.220013	0.759787
Zn12	Zn	1.593039	0.470013	1.009787
Zn13	Zn	0.838791	-0.397635	0.368715
Zn14	Zn	1.088791	-0.147635	0.618715
Zn15	Zn	1.338791	0.102365	0.868715
Zn16	Zn	1.588791	0.352365	1.118715
O17	O	0.893291	-0.338799	0.314274
O18	O	1.143291	-0.088799	0.564274
O19	O	1.393291	0.161201	0.814274
O20	O	1.643291	0.411201	1.064274
O21	O	1.034921	-0.295532	0.351282
O22	O	1.284921	-0.045532	0.601282
O23	O	1.534921	0.204468	0.851282
O24	O	1.784921	0.454468	1.101282
O25	O	0.930178	-0.382049	0.175773
O26	O	1.180178	-0.132049	0.425773
O27	O	1.430178	0.117951	0.675773
O28	O	1.680178	0.367951	0.925773
O29	O	0.860508	-0.181488	0.270193
O30	O	1.110508	0.068512	0.520193
O31	O	1.360508	0.318512	0.770193
O32	O	1.610508	0.568512	1.020193
O33	O	1.031771	-0.382003	0.277391
O34	O	1.281771	-0.132003	0.527391
O35	O	1.531771	0.117997	0.777391
O36	O	1.781771	0.367997	1.027391
O37	O	0.937484	-0.181453	0.347186
O38	O	1.187484	0.068547	0.597186
O39	O	1.437484	0.318547	0.847186
O40	O	1.687484	0.568547	1.097186
O41	O	0.856352	-0.295613	0.172670
O42	O	1.106352	-0.045613	0.422670
O43	O	1.356352	0.204387	0.672670
O44	O	1.606352	0.454387	0.922670
O45	O	0.754797	-0.295613	0.274198
O46	O	1.004797	-0.045613	0.524198
O47	O	1.254797	0.204387	0.774198
O48	O	1.504797	0.454387	1.024198
O49	O	0.853269	-0.382003	0.455845
O50	O	1.103269	-0.132003	0.705845
O51	O	1.353269	0.117997	0.955845
O52	O	1.603269	0.367997	1.205845
O53	O	0.751676	-0.382048	0.354227
O54	O	1.001676	-0.132048	0.604227
O55	O	1.251676	0.117952	0.854227
O56	O	1.501676	0.367952	1.104227
O57	O	0.933365	-0.295532	0.452810
O58	O	1.183365	-0.045532	0.702810
O59	O	1.433365	0.204468	0.952810
O60	O	1.683365	0.454468	1.202810
O61	O	0.926060	-0.496128	0.281396
O62	O	1.176060	-0.246128	0.531396
O63	O	1.426060	0.003872	0.781396
O64	O	1.676060	0.253872	1.031396
O65	O	0.849113	-0.496128	0.358323
O66	O	1.099113	-0.246128	0.608323
O67	O	1.349113	0.003872	0.858323
O68	O	1.599113	0.253872	1.108323
C69	C	0.730502	-0.338836	0.314203
C70	C	0.980502	-0.088836	0.564203
C71	C	1.230502	0.161164	0.814203
C72	C	1.480502	0.411164	1.064203
C73	C	0.660860	-0.338869	0.314188
C74	C	0.910860	-0.088869	0.564188
C75	C	1.160860	0.161131	0.814188
C76	C	1.410860	0.411131	1.064188
C77	C	0.626536	-0.383936	0.355801
C78	C	0.876536	-0.133936	0.605801
C79	C	1.126536	0.116064	0.855801
C80	C	1.376536	0.366064	1.105801
C81	C	0.561101	-0.383919	0.355829
C82	C	0.811101	-0.133919	0.605829
C83	C	1.061101	0.116081	0.855829
C84	C	1.311101	0.366081	1.105829
C85	C	0.529992	-0.338842	0.314232
C86	C	0.779992	-0.088842	0.564232
C87	C	1.029992	0.161158	0.814232
C88	C	1.279992	0.411158	1.064232
C89	C	0.564324	-0.293766	0.272615
C90	C	0.814324	-0.043766	0.522615
C91	C	1.064324	0.206234	0.772615
C92	C	1.314324	0.456234	1.022615
C93	C	0.629758	-0.293780	0.272594
C94	C	0.879758	-0.043780	0.522594
C95	C	1.129758	0.206220	0.772594
C96	C	1.379758	0.456220	1.022594
C97	C	0.426478	-0.333180	0.257624
C98	C	0.676478	-0.083180	0.507624
C99	C	0.926478	0.166820	0.757624
C100	C	1.176478	0.416820	1.007624
C101	C	0.361045	-0.333171	0.257645
C102	C	0.611045	-0.083171	0.507645
C103	C	0.861045	0.166829	0.757645
C104	C	1.111045	0.416829	1.007645
C105	C	0.328173	-0.338796	0.314299
C106	C	0.578173	-0.088796	0.564299
C107	C	0.828173	0.161204	0.814299
C108	C	1.078173	0.411204	1.064299
C109	C	0.360741	-0.344444	0.370935
C110	C	0.610741	-0.094444	0.620935
C111	C	0.860741	0.155556	0.870935
C112	C	1.110741	0.405556	1.120935
C113	C	0.426175	-0.344458	0.370913
C114	C	0.676175	-0.094458	0.620913
C115	C	0.926175	0.155542	0.870913
C116	C	1.176175	0.405542	1.120913
C117	C	0.459041	-0.338822	0.314251
C118	C	0.709041	-0.088822	0.564251
C119	C	0.959041	0.161178	0.814251
C120	C	1.209041	0.411178	1.064251
C121	C	0.222897	-0.383847	0.355946
C122	C	0.472897	-0.133847	0.605946
C123	C	0.722897	0.116153	0.855946
C124	C	0.972897	0.366153	1.105946
C125	C	0.157462	-0.383824	0.355974
C126	C	0.407462	-0.133824	0.605974
C127	C	0.657462	0.116176	0.855974
C128	C	0.907462	0.366176	1.105974
C129	C	0.160686	-0.293676	0.272755
C130	C	0.410686	-0.043676	0.522755
C131	C	0.660686	0.206324	0.772755
C132	C	0.910686	0.456324	1.022755
C133	C	0.226121	-0.293694	0.272732
C134	C	0.476121	-0.043694	0.522732
C135	C	0.726121	0.206306	0.772732
C136	C	0.976121	0.456306	1.022732
C137	C	0.257222	-0.338783	0.314327
C138	C	0.507222	-0.088783	0.564327
C139	C	0.757222	0.161217	0.814327
C140	C	1.007222	0.411217	1.064327
C141	C	0.886677	-0.521666	0.320780
C142	C	1.136677	-0.271666	0.570780
C143	C	1.386677	-0.021666	0.820780
C144	C	1.636677	0.228334	1.070780
C145	C	0.883905	-0.599897	0.323584
C146	C	1.133905	-0.349897	0.573584
C147	C	1.383905	-0.099897	0.823584
C148	C	1.633905	0.150103	1.073584
C149	C	0.922696	-0.636626	0.284883
C150	C	1.172696	-0.386626	0.534883
C151	C	1.422696	-0.136626	0.784883
C152	C	1.672696	0.113374	1.034883
C153	C	0.920092	-0.710133	0.287524
C154	C	1.170092	-0.460133	0.537524
C155	C	1.420092	-0.210133	0.787524
C156	C	1.670092	0.039867	1.037524
C157	C	0.878694	-0.746908	0.328863
C158	C	1.128694	-0.496908	0.578863
C159	C	1.378694	-0.246908	0.828863
C160	C	1.628694	0.003092	1.078863
C161	C	0.839901	-0.710173	0.367568
C162	C	1.089901	-0.460173	0.617568
C163	C	1.339901	-0.210173	0.867568
C164	C	1.589901	0.039827	1.117568
C165	C	0.842509	-0.636668	0.364930
C166	C	1.092509	-0.386668	0.614930
C167	C	1.342509	-0.136668	0.864930
C168	C	1.592509	0.113332	1.114930
C169	C	0.866600	-0.966747	0.341047
C170	C	1.116600	-0.716747	0.591047
C171	C	1.366600	-0.466747	0.841047
C172	C	1.616600	-0.216747	1.091047
C173	C	0.863994	-1.040257	0.343681
C174	C	1.113994	-0.790257	0.593681
C175	C	1.363994	-0.540257	0.843681
C176	C	1.613994	-0.290257	1.093681
C177	C	0.944186	-1.040212	0.263638
C178	C	1.194186	-0.790212	0.513638
C179	C	1.444186	-0.540212	0.763638
C180	C	1.694186	-0.290212	1.013638
C181	C	0.946787	-0.966706	0.261001
C182	C	1.196787	-0.716706	0.511001
C183	C	1.446787	-0.466706	0.761001
C184	C	1.696787	-0.216706	1.011001
C185	C	0.907997	-0.929977	0.299708
C186	C	1.157997	-0.679977	0.549708
C187	C	1.407997	-0.429977	0.799708
C188	C	1.657997	-0.179977	1.049708
N189	N	0.876030	-0.822043	0.331562
N190	N	1.126030	-0.572043	0.581562
N191	N	1.376030	-0.322043	0.831562
N192	N	1.626030	-0.072043	1.081562
N193	N	0.910664	-0.854843	0.297012
N194	N	1.160664	-0.604843	0.547012
N195	N	1.410664	-0.354843	0.797012
N196	N	1.660664	-0.104843	1.047012
C197	C	1.056716	-0.338762	0.314347
C198	C	1.306716	-0.088762	0.564347
C199	C	1.556716	0.161238	0.814347
C200	C	1.806716	0.411238	1.064347
C201	C	1.126358	-0.338746	0.314377
C202	C	1.376358	-0.088746	0.564377
C203	C	1.626358	0.161254	0.814377
C204	C	1.876358	0.411254	1.064377
C205	C	0.893321	-0.338762	0.477697
C206	C	1.143321	-0.088762	0.727697
C207	C	1.393321	0.161238	0.977697
C208	C	1.643321	0.411238	1.227697
C209	C	0.893334	-0.338746	0.547337
C210	C	1.143334	-0.088746	0.797337
C211	C	1.393334	0.161254	1.047337
C212	C	1.643334	0.411254	1.297337
C213	C	0.899948	-0.155218	0.307758
C214	C	1.149948	0.094782	0.557758
C215	C	1.399948	0.344782	0.807758
C216	C	1.649948	0.594782	1.057758
C217	C	0.902785	-0.076987	0.304980
C218	C	1.152785	0.173013	0.554980
C219	C	1.402785	0.423013	0.804980
C220	C	1.652785	0.673013	1.054980
C221	C	0.893299	-0.338785	0.151486
C222	C	1.143299	-0.088785	0.401486
C223	C	1.393299	0.161215	0.651486
C224	C	1.643299	0.411215	0.901486
C225	C	0.893415	-0.338602	0.081839
C226	C	1.143415	-0.088602	0.331839
C227	C	1.393415	0.161398	0.581839
C228	C	1.643415	0.411398	0.831839
C229	C	0.931851	-0.383606	1.050745
C230	C	1.181851	-0.133606	1.300745
C231	C	1.431851	0.116394	1.550745
C232	C	1.681851	0.366394	1.800745
C233	C	0.931839	-0.383628	0.985310
C234	C	1.181839	-0.133628	1.235310
C235	C	1.431839	0.116372	1.485310
C236	C	1.681839	0.366372	1.735310
C237	C	0.893398	-0.338635	0.950972
C238	C	1.143398	-0.088635	1.200972
C239	C	1.393398	0.161365	1.450972
C240	C	1.643398	0.411365	1.700972
C241	C	0.854954	-0.293628	0.982074
C242	C	1.104954	-0.043628	1.232074
C243	C	1.354954	0.206372	1.482074
C244	C	1.604954	0.456372	1.732074
C245	C	0.854962	-0.293612	1.047508
C246	C	1.104962	-0.043612	1.297508
C247	C	1.354962	0.206388	1.547508
C248	C	1.604962	0.456388	1.797508
C249	C	0.890736	-0.275249	0.845051
C250	C	1.140736	-0.025249	1.095051
C251	C	1.390736	0.224751	1.345051
C252	C	1.640736	0.474751	1.595051
C253	C	0.890732	-0.275264	0.779618
C254	C	1.140732	-0.025264	1.029618
C255	C	1.390732	0.224736	1.279618
C256	C	1.640732	0.474736	1.529618
C257	C	0.893368	-0.338685	0.749153
C258	C	1.143368	-0.088685	0.999153
C259	C	1.393368	0.161315	1.249153
C260	C	1.643368	0.411315	1.499153
C261	C	0.896021	-0.402092	0.784128
C262	C	1.146021	-0.152092	1.034128
C263	C	1.396021	0.097908	1.284128
C264	C	1.646021	0.347908	1.534128
C265	C	0.896029	-0.402076	0.849561
C266	C	1.146029	-0.152076	1.099561
C267	C	1.396029	0.097924	1.349561
C268	C	1.646029	0.347924	1.599561
C269	C	0.893384	-0.338647	0.880020
C270	C	1.143384	-0.088647	1.130020
C271	C	1.393384	0.161353	1.380020
C272	C	1.643384	0.411353	1.630020
C273	C	0.931793	-0.383716	0.647107
C274	C	1.181793	-0.133716	0.897107
C275	C	1.431793	0.116284	1.147107
C276	C	1.681793	0.366284	1.397107
C277	C	0.931776	-0.383739	0.581671
C278	C	1.181776	-0.133739	0.831671
C279	C	1.431776	0.116261	1.081671
C280	C	1.681776	0.366261	1.331671
C281	C	0.854895	-0.293733	0.578436
C282	C	1.104895	-0.043733	0.828436
C283	C	1.354895	0.206267	1.078436
C284	C	1.604895	0.456267	1.328436
C285	C	0.854908	-0.293716	0.643871
C286	C	1.104908	-0.043716	0.893871
C287	C	1.354908	0.206284	1.143871
C288	C	1.604908	0.456284	1.393871
C289	C	0.893360	-0.338706	0.678202
C290	C	1.143360	-0.088706	0.928202
C291	C	1.393360	0.161294	1.178202
C292	C	1.643360	0.411294	1.428202
H293	H	0.254068	-0.257000	0.238843
H294	H	0.504068	-0.007000	0.488843
H295	H	0.754068	0.243000	0.738843
H296	H	1.004068	0.493000	0.988843
H297	H	0.888575	-0.223634	0.751147
H298	H	1.138575	0.026366	1.001147
H299	H	1.388575	0.276366	1.251147
H300	H	1.638575	0.526366	1.501147
Br301	Br	0.676344	-0.232612	0.216115
Br302	Br	0.926344	0.017388	0.466115
Br303	Br	1.176344	0.267388	0.716115
Br304	Br	1.426344	0.517388	0.966115
H305	H	0.888631	-0.223597	0.869850
H306	H	1.138631	0.026403	1.119850
H307	H	1.388631	0.276403	1.369850
H308	H	1.638631	0.526403	1.619850
Br309	Br	0.813956	-0.916910	0.393579
Br310	Br	1.063956	-0.666910	0.643579
Br311	Br	1.313956	-0.416910	0.893579
Br312	Br	1.563956	-0.166910	1.143579
Br313	Br	0.802729	-0.232649	0.686074
Br314	Br	1.052729	0.017351	0.936074
Br315	Br	1.302729	0.267351	1.186074
Br316	Br	1.552729	0.517351	1.436074
Br317	Br	0.522108	-0.232585	0.216167
Br318	Br	0.772108	0.017415	0.466167
Br319	Br	1.022108	0.267415	0.716167
Br320	Br	1.272108	0.517415	0.966167
H321	H	0.898188	-0.453705	0.878035
H322	H	1.148188	-0.203705	1.128035
H323	H	1.398188	0.046295	1.378035
H324	H	1.648188	0.296295	1.628035
H325	H	0.823654	-0.256995	0.954112
H326	H	1.073654	-0.006995	1.204112
H327	H	1.323654	0.243005	1.454112
H328	H	1.573654	0.493005	1.704112
H329	H	0.248222	-0.420557	0.389817
H330	H	0.498222	-0.170557	0.639817
H331	H	0.748222	0.079443	0.889817
H332	H	0.998222	0.329443	1.139817
H333	H	0.823662	-0.256963	1.072824
H334	H	1.073662	-0.006963	1.322824
H335	H	1.323662	0.243037	1.572824
H336	H	1.573662	0.493037	1.822824
H337	H	0.333979	-0.349023	0.417068
H338	H	0.583979	-0.099023	0.667068
H339	H	0.833979	0.150977	0.917068
H340	H	1.083979	0.400977	1.167068
Br341	Br	0.668742	-0.445126	0.412252
Br342	Br	0.918742	-0.195126	0.662252
Br343	Br	1.168742	0.054874	0.912252
Br344	Br	1.418742	0.304874	1.162252
H345	H	0.533149	-0.420617	0.389717
H346	H	0.783149	-0.170617	0.639717
H347	H	1.033149	0.079383	0.889717
H348	H	1.283149	0.329383	1.139717
Br349	Br	0.783723	-0.760082	0.423677
Br350	Br	1.033723	-0.510082	0.673677
Br351	Br	1.283723	-0.260082	0.923677
Br352	Br	1.533723	-0.010082	1.173677
H353	H	0.135358	-0.256970	0.238889
H354	H	0.385358	-0.006970	0.488889
H355	H	0.635358	0.243030	0.738889
H356	H	0.885358	0.493030	0.988889
Br357	Br	0.110878	-0.444986	0.412459
Br358	Br	0.360878	-0.194986	0.662459
Br359	Br	0.610878	0.055014	0.912459
Br360	Br	0.860878	0.305014	1.162459
H361	H	0.810922	-0.606763	0.396445
H362	H	1.060922	-0.356763	0.646445
H363	H	1.310922	-0.106763	0.896445
H364	H	1.560922	0.143237	1.146445
H365	H	0.334533	-0.328576	0.211529
H366	H	0.584533	-0.078576	0.461529
H367	H	0.834533	0.171424	0.711529
H368	H	1.084533	0.421424	0.961529
Br369	Br	0.972743	-0.759978	0.235003
Br370	Br	1.222743	-0.509978	0.485003
Br371	Br	1.472743	-0.259978	0.735003
Br372	Br	1.722743	-0.009978	0.985003
Br373	Br	0.996830	-1.090061	0.211113
Br374	Br	1.246830	-0.840061	0.461113
Br375	Br	1.496830	-0.590061	0.711113
Br376	Br	1.746830	-0.340061	0.961113
H377	H	0.956404	-0.606689	0.251218
H378	H	1.206404	-0.356689	0.501218
H379	H	1.456404	-0.106689	0.751218
H380	H	1.706404	0.143311	1.001218
Br381	Br	0.802703	-0.232691	0.531842
Br382	Br	1.052703	0.017309	0.781842
Br383	Br	1.302703	0.267309	1.031842
Br384	Br	1.552703	0.517309	1.281842
Br385	Br	0.471083	-0.325546	0.180730
Br386	Br	0.721083	-0.075546	0.430730
Br387	Br	0.971083	0.174454	0.680730
Br388	Br	1.221083	0.424454	0.930730
Br389	Br	0.470373	-0.352120	0.447771
Br390	Br	0.720373	-0.102120	0.697771
Br391	Br	0.970373	0.147880	0.947771
Br392	Br	1.220373	0.397880	1.197771
Br393	Br	0.807796	-1.090167	0.399777
Br394	Br	1.057796	-0.840167	0.649777
Br395	Br	1.307796	-0.590167	0.899777
Br396	Br	1.557796	-0.340167	1.149777
H397	H	0.963160	-0.420243	1.078693
H398	H	1.213160	-0.170243	1.328693
H399	H	1.463160	0.079757	1.578693
H400	H	1.713160	0.329757	1.828693
Br401	Br	1.002980	-0.916801	0.204904
Br402	Br	1.252980	-0.666801	0.454904
Br403	Br	1.502980	-0.416801	0.704904
Br404	Br	1.752980	-0.166801	0.954904
H405	H	0.963148	-0.420267	0.959988
H406	H	1.213148	-0.170267	1.209988
H407	H	1.463148	0.079733	1.459988
H408	H	1.713148	0.329733	1.709988
Br409	Br	0.899603	-0.488169	0.742790
Br410	Br	1.149603	-0.238169	0.992790
Br411	Br	1.399603	0.011831	1.242790
Br412	Br	1.649603	0.261831	1.492790
Br413	Br	0.983977	-0.444772	0.693703
Br414	Br	1.233977	-0.194772	0.943703
Br415	Br	1.483977	0.055228	1.193703
Br416	Br	1.733977	0.305228	1.443703
H417	H	0.963072	-0.420393	0.556355
H418	H	1.213072	-0.170393	0.806355
H419	H	1.463072	0.079607	1.056355
H420	H	1.713072	0.329607	1.306355
