data_functionalizedCrystal
_audit_creation_method	'MofGen! by Chris Wilmer'
_symmetry_space_group_name_H-M	'P1'
_symmetry_Int_Tables_number	1
_symmetry_cell_setting	triclinic
loop_
_symmetry_equiv_pos_as_xyz
  x,y,z
_cell_length_a	9.616153
_cell_length_b	16.992694
_cell_length_c	16.992695
_cell_angle_alpha	90.668223
_cell_angle_beta	89.997656
_cell_angle_gamma	89.998654
loop_
_atom_site_label
_atom_site_type_symbol
_atom_site_fract_x
_atom_site_fract_y
_atom_site_fract_z
O1	O	0.115473	-1.050853	-0.166914
O2	O	0.115514	-0.822453	-0.165082
O3	O	0.115482	-0.935738	-0.051798
O4	O	0.115504	-0.937569	-0.280198
O5	O	-0.115809	-0.935721	-0.051800
O6	O	-0.115778	-0.822437	-0.165084
O7	O	-0.115819	-1.050837	-0.166915
Zn8	Zn	-0.152521	-0.936634	-0.166000
Zn9	Zn	0.152216	-0.936656	-0.165998
O10	O	-0.115787	-0.937553	-0.280200
C11	C	-0.000127	-0.793085	-0.162727
C12	C	-0.000112	-0.705600	-0.155699
N13	N	-0.360495	-0.936625	-0.166001
C14	C	-0.000175	-1.080205	-0.169270
C15	C	-0.000181	-1.167690	-0.176299
C16	C	-0.580849	-0.875819	-0.226375
C17	C	-0.419681	-0.875973	-0.226622
C18	C	-0.418958	-1.019888	-0.189089
C19	C	-0.580175	-1.019563	-0.189522
C20	C	-0.580411	-0.914977	-0.082373
C21	C	-0.419184	-0.913118	-0.082808
N22	N	0.360190	-0.936671	-0.165991
C23	C	-0.000163	-0.933374	-0.022439
C24	C	-0.000161	-0.926345	0.065046
C25	C	-0.000106	-0.659610	-0.223517
C26	C	-0.000126	-0.577409	-0.216908
C27	C	-0.000141	-0.541201	-0.142480
C28	C	-0.000151	-0.587198	-0.074657
C29	C	-0.000141	-0.669397	-0.081267
C30	C	-0.000181	-0.295886	-0.115086
C31	C	-0.000187	-0.213681	-0.108481
C32	C	-0.000165	-0.203898	-0.250732
C33	C	-0.000146	-0.286099	-0.257336
C34	C	-0.000163	-0.332089	-0.189512
N35	N	-0.000157	-0.457178	-0.135723
N36	N	-0.000157	-0.416110	-0.196270
C37	C	-0.000139	-0.939917	-0.309559
C38	C	-0.000132	-0.946945	-0.397044
C39	C	-0.000175	-0.994163	0.111037
C40	C	-0.000161	-0.987554	0.193238
C41	C	-0.000142	-0.913127	0.229446
C42	C	-0.000125	-0.845303	0.183449
C43	C	-0.000129	-0.851913	0.101250
C44	C	-0.000118	-0.885732	0.474760
C45	C	-0.000118	-0.879127	0.556966
C46	C	-0.000151	-1.021379	0.566749
C47	C	-0.000164	-1.027982	0.484547
C48	C	-0.000139	-0.960159	0.438558
N49	N	-0.000132	-0.906369	0.313468
N50	N	-0.000139	-0.966917	0.354537
H51	H	-0.380156	-0.814248	-0.212107
O52	O	-0.634481	-0.894649	-0.307961
H53	H	-0.545401	-0.906876	-0.347803
O54	O	-0.000083	-0.798849	0.596024
H55	H	-0.000050	-0.752796	0.550235
H56	H	-0.380974	-0.851843	-0.065407
O57	O	-0.000223	-0.174623	-0.028202
H58	H	0.094031	-0.192747	0.004648
O59	O	-0.632259	-0.793813	-0.207382
H60	H	-0.700392	-0.795547	-0.154704
O61	O	-0.000183	-1.108256	0.445490
H62	H	0.094079	-1.114670	0.408265
H63	H	-0.000169	-1.076596	0.604202
H64	H	-0.621139	-0.855307	-0.061449
H65	H	-0.000098	-0.830505	0.437325
O66	O	-0.000165	-0.325153	-0.337611
H67	H	-0.000186	-0.279362	-0.383660
H68	H	-0.000101	-0.784703	0.212936
O69	O	-0.000198	-1.060704	0.242838
H70	H	0.094050	-1.096095	0.229397
H71	H	-0.000154	-0.166444	-0.305950
H72	H	-0.618539	-0.959293	-0.037376
H73	H	-0.000093	-0.689084	-0.284124
O74	O	-0.000199	-0.345486	-0.041938
H75	H	-0.000199	-0.306495	0.010925
O76	O	-0.368551	-0.895025	-0.308672
H77	H	-0.407600	-0.953894	-0.327053
O78	O	-0.365478	-1.044565	-0.269201
H79	H	-0.250162	-1.047068	-0.267902
O80	O	-0.000129	-0.778768	0.051639
H81	H	-0.000132	-0.725903	0.090625
O82	O	-0.000126	-0.527803	-0.290055
H83	H	0.094159	-0.541224	-0.325422
O84	O	-0.629980	-1.043842	-0.270504
H85	H	-0.538917	-1.055700	-0.308990
H86	H	-0.000183	-0.557710	-0.014056
H87	H	-0.619176	-1.066532	-0.147551
O88	O	-0.000181	-1.074439	0.071984
H89	H	-0.000170	-1.120486	0.117778
H90	H	-0.380618	-1.066461	-0.146494
H91	H	-0.000145	-0.706842	-0.026042
H92	H	-0.378901	-0.954160	-0.035370
