data_functionalizedCrystal
_audit_creation_method	'MofGen! by Chris Wilmer'
_symmetry_space_group_name_H-M	'P1'
_symmetry_Int_Tables_number	1
_symmetry_cell_setting	triclinic
loop_
_symmetry_equiv_pos_as_xyz
  x,y,z
_cell_length_a	10.723024
_cell_length_b	9.730223
_cell_length_c	10.723024
_cell_angle_alpha	89.999810
_cell_angle_beta	95.532131
_cell_angle_gamma	89.999921
loop_
_atom_site_label
_atom_site_type_symbol
_atom_site_fract_x
_atom_site_fract_y
_atom_site_fract_z
O1	O	1.657181	0.114277	-0.175022
O2	O	2.157181	0.614277	0.324978
O3	O	1.294029	0.114282	-0.191775
O4	O	1.794029	0.614282	0.308225
O5	O	1.483982	0.114274	-0.001822
O6	O	1.983982	0.614274	0.498178
O7	O	1.467228	0.114285	-0.364975
O8	O	1.967228	0.614285	0.135025
O9	O	1.483980	-0.114306	-0.001827
O10	O	1.983980	0.385694	0.498173
O11	O	1.294027	-0.114298	-0.191780
O12	O	1.794027	0.385702	0.308220
O13	O	1.657179	-0.114303	-0.175027
O14	O	2.157179	0.385697	0.324973
Zn15	Zn	1.475603	-0.150593	-0.183404
Zn16	Zn	1.975603	0.349407	0.316596
Zn17	Zn	1.475605	0.150571	-0.183398
Zn18	Zn	1.975605	0.650571	0.316602
O19	O	1.467226	-0.114295	-0.364979
O20	O	1.967226	0.385705	0.135021
C21	C	1.247528	-0.000008	-0.190558
C22	C	1.747528	0.499992	0.309442
C23	C	1.108974	-0.000006	-0.186911
C24	C	1.608974	0.499994	0.313089
N25	N	1.475610	-0.356129	-0.183408
N26	N	1.975610	0.143871	0.316592
C27	C	1.033991	-0.000002	-0.293198
C28	C	1.533991	0.499998	0.206802
C29	C	0.890788	-0.000001	-0.289431
C30	C	1.390788	0.499999	0.210569
C31	C	1.559743	-0.428058	-0.099325
C32	C	2.059743	0.071942	0.400675
C33	C	1.559739	-0.571941	-0.099310
C34	C	2.059739	-0.071941	0.400690
C35	C	1.391466	-0.571953	-0.267471
C36	C	1.891466	-0.071953	0.232529
C37	C	1.391464	-0.428073	-0.267479
C38	C	1.891464	0.071927	0.232521
C39	C	1.643888	-0.356115	-0.015254
C40	C	2.143888	0.143885	0.484746
C41	C	1.728029	-0.428044	0.068834
C42	C	2.228029	0.071956	0.568834
C43	C	1.728025	-0.571927	0.068849
C44	C	2.228025	-0.071927	0.568849
C45	C	1.643881	-0.643881	-0.015224
C46	C	2.143881	-0.143881	0.484776
C47	C	1.703680	-0.000010	-0.176243
C48	C	2.203680	0.499990	0.323757
C49	C	1.842234	-0.000003	-0.179891
C50	C	2.342234	0.499997	0.320109
N51	N	1.475608	0.356108	-0.183384
N52	N	1.975608	0.856108	0.316616
C53	C	1.482762	-0.000014	0.044675
C54	C	1.982762	0.499986	0.544675
C55	C	1.479114	-0.000009	0.183229
C56	C	1.979114	0.499991	0.683229
C57	C	1.468447	-0.000004	-0.411477
C58	C	1.968447	0.499996	0.088523
C59	C	1.472094	0.000000	-0.550031
C60	C	1.972094	0.500000	-0.050031
C61	C	1.585401	-0.000009	0.258212
C62	C	2.085401	0.499991	0.758212
C63	C	1.581634	-0.000004	0.401415
C64	C	2.081634	0.499996	0.901415
H65	H	1.075814	-0.000007	-0.386984
H66	H	1.575814	0.499993	0.113016
F67	F	1.054316	-0.000019	-0.064321
F68	F	1.554316	0.499981	0.435679
F69	F	0.926441	0.000003	-0.060950
F70	F	1.426441	0.500003	0.439050
H71	H	0.826355	0.000008	-0.380421
H72	H	1.326355	0.500008	0.119579
F73	F	1.643901	-0.202982	-0.015268
F74	F	2.143901	0.297018	0.484732
F75	F	1.817566	-0.351466	0.158315
F76	F	2.317566	0.148534	0.658315
F77	F	1.817563	-0.648478	0.158350
F78	F	2.317563	-0.148478	0.658350
F79	F	1.643874	-0.797015	-0.015191
F80	F	2.143874	-0.297015	0.484809
F81	F	1.353153	-0.000011	0.365762
F82	F	1.853153	0.499989	0.865762
H83	H	1.322961	-0.630547	-0.335921
H84	H	1.822961	-0.130547	0.164079
H85	H	1.322955	-0.369507	-0.335945
H86	H	1.822955	0.130493	0.164055
H87	H	1.385328	0.000001	0.225051
H88	H	1.885328	0.500001	0.725051
H89	H	1.679187	-0.000018	0.216390
H90	H	2.179187	0.499982	0.716390
H91	H	1.672624	-0.000009	0.465848
H92	H	2.172624	0.499991	0.965848
