data_functionalizedCrystal
_audit_creation_method	'MofGen! by Chris Wilmer'
_symmetry_space_group_name_H-M	'P1'
_symmetry_Int_Tables_number	1
_symmetry_cell_setting	triclinic
loop_
_symmetry_equiv_pos_as_xyz
  x,y,z
_cell_length_a	18.215407
_cell_length_b	18.101395
_cell_length_c	18.215398
_cell_angle_alpha	89.976098
_cell_angle_beta	89.980536
_cell_angle_gamma	90.031552
loop_
_atom_site_label
_atom_site_type_symbol
_atom_site_fract_x
_atom_site_fract_y
_atom_site_fract_z
Zn1	Zn	1.125037	-0.294847	-0.416124
Zn2	Zn	1.124933	-0.418688	-0.293061
Zn3	Zn	1.001971	-0.294866	-0.293071
Zn4	Zn	1.001923	-0.418652	-0.416086
O5	O	1.063466	-0.356763	-0.354585
O6	O	1.228008	-0.311282	-0.399811
O7	O	1.108599	-0.402285	-0.190078
O8	O	1.018360	-0.191230	-0.309414
O9	O	1.227931	-0.402267	-0.309397
O10	O	1.108776	-0.191216	-0.399821
O11	O	1.018259	-0.311314	-0.190085
O12	O	0.898980	-0.311279	-0.309378
O13	O	1.018277	-0.402206	-0.519075
O14	O	0.898945	-0.402224	-0.399756
O15	O	1.108729	-0.311247	-0.519103
O16	O	1.108552	-0.522316	-0.309360
O17	O	1.018176	-0.522290	-0.399746
C18	C	0.872260	-0.356750	-0.354564
C19	C	0.790461	-0.356763	-0.354572
C20	C	0.602268	-0.404192	-0.401573
C21	C	0.525409	-0.404195	-0.401583
C22	C	0.525416	-0.309347	-0.307613
C23	C	0.602274	-0.309342	-0.307608
C24	C	0.640697	-0.356768	-0.354587
C25	C	0.486981	-0.356776	-0.354601
C26	C	0.403648	-0.356778	-0.354611
C27	C	0.724036	-0.356766	-0.354579
C28	C	1.063368	-0.549174	-0.354564
C29	C	1.063393	-0.631488	-0.354579
C30	C	1.063554	-0.930579	-0.354619
C31	C	1.006824	-0.899268	-0.411628
C32	C	1.006555	-0.813650	-0.411450
C33	C	1.063474	-0.782196	-0.354600
C34	C	1.042477	-0.813343	-0.277038
C35	C	1.042111	-0.898988	-0.277380
C36	C	1.141406	-0.898923	-0.374487
C37	C	1.140948	-0.813272	-0.376188
C38	C	1.063430	-0.698337	-0.354584
C39	C	1.063596	-1.014438	-0.354629
C40	C	1.255419	-0.356776	-0.354607
C41	C	1.337218	-0.356782	-0.354616
C42	C	1.063510	-0.356721	-0.546538
C43	C	1.063528	-0.356702	-0.628337
C44	C	1.063585	-0.163601	-0.354623
C45	C	1.063636	-0.081287	-0.354639
C46	C	1.110602	-0.403980	-0.893395
C47	C	1.110591	-0.404006	-0.816536
C48	C	1.016510	-0.309282	-0.816528
C49	C	1.016518	-0.309261	-0.893385
C50	C	1.063568	-0.356608	-0.931817
C51	C	1.063549	-0.356655	-0.778101
C52	C	1.063536	-0.356683	-0.694767
C53	C	1.063580	-0.356582	-1.015156
C54	C	1.063465	-0.356752	-0.163379
C55	C	1.063589	-0.356561	-0.081580
H56	H	0.633564	-0.270719	-0.269346
Cl57	Cl	0.955542	-0.780332	-0.250586
Cl58	Cl	1.026833	-0.781130	-0.500243
Cl59	Cl	1.209661	-0.780204	-0.316758
H60	H	1.081638	-0.919703	-0.233455
Cl61	Cl	1.169720	-0.463562	-0.768238
Cl62	Cl	0.957374	-0.249714	-0.941690
Cl63	Cl	1.026900	-0.931000	-0.500711
H64	H	0.494123	-0.442811	-0.439845
H65	H	0.949470	-0.920854	-0.398633
Cl66	Cl	0.477107	-0.249730	-0.248555
H67	H	0.948849	-0.793226	-0.398289
H68	H	1.148912	-0.442534	-0.924684
H69	H	0.985202	-0.919031	-0.260549
Cl70	Cl	0.957382	-0.249745	-0.768208
Cl71	Cl	1.104261	-0.781891	-0.209666
H72	H	0.633550	-0.442809	-0.439829
H73	H	1.183672	-0.919170	-0.332965
H74	H	1.160549	-0.920474	-0.430081
H75	H	1.156782	-0.792912	-0.433269
