data_functionalizedCrystal
_audit_creation_method	'MofGen! by Chris Wilmer'
_symmetry_space_group_name_H-M	'P1'
_symmetry_Int_Tables_number	1
_symmetry_cell_setting	triclinic
loop_
_symmetry_equiv_pos_as_xyz
  x,y,z
_cell_length_a	11.026607
_cell_length_b	11.026607
_cell_length_c	9.482900
_cell_angle_alpha	101.400185
_cell_angle_beta	78.636152
_cell_angle_gamma	108.586017
loop_
_atom_site_label
_atom_site_type_symbol
_atom_site_fract_x
_atom_site_fract_y
_atom_site_fract_z
O1	O	-1.742236	-0.518010	0.120892
O2	O	-1.375656	-0.457246	0.120894
O3	O	-1.528564	-0.304339	0.120888
O4	O	-1.589328	-0.670917	0.120898
O5	O	-1.497539	-0.335557	-0.120903
O6	O	-1.344632	-0.488465	-0.120897
O7	O	-1.711212	-0.549228	-0.120899
Cu8	Cu	-1.525089	-0.521697	-0.142976
Cu9	Cu	-1.561779	-0.484778	0.142971
O10	O	-1.558304	-0.702136	-0.120893
C11	C	-1.312485	-0.461645	-0.000001
C12	C	-1.170471	-0.428228	-0.000000
N13	N	-1.499293	-0.547665	-0.344095
C14	C	-1.774384	-0.544829	-0.000001
C15	C	-1.916399	-0.578244	0.000008
C16	C	-1.501842	-0.272288	-0.000006
C17	C	-1.468426	-0.130273	-0.000000
C18	C	-1.116822	-0.520498	0.000003
C19	C	-0.970043	-0.485962	0.000004
C20	C	-1.585026	-0.734186	0.000004
C21	C	-1.618444	-0.876199	0.000008
C22	C	-1.560695	-0.076624	0.000001
C23	C	-1.526161	0.070155	0.000007
C24	C	-1.554160	-0.492428	-0.416296
C25	C	-1.532708	-0.514046	-0.583713
N26	N	-1.587583	-0.458801	0.344090
H27	H	-1.179554	-0.625061	-0.000002
H28	H	-0.907319	-0.381388	0.000039
H29	H	-0.979125	-0.682816	0.000001
H30	H	-1.107742	-0.323661	0.000034
C31	C	-1.701952	-0.161360	-0.000005
H32	H	-1.706631	-0.248897	-0.000018
H33	H	-1.754008	-0.132853	0.084310
H34	H	-1.732358	-0.154619	-0.084336
H35	H	-1.421592	0.132886	0.000017
C36	C	-1.414358	-0.633152	-0.428005
H37	H	-1.382703	-0.664990	-0.360996
H38	H	-1.464330	-0.703759	-0.487387
H39	H	-1.343612	-0.583425	-0.487380
C40	C	-1.759707	0.039070	-0.000006
H41	H	-1.764389	-0.048468	-0.000022
H42	H	-1.811767	0.067576	0.084306
H43	H	-1.790107	0.045815	-0.084340
H44	H	-1.363864	-0.067539	0.000010
C45	C	-1.639070	-0.406919	-0.332379
H46	H	-1.642354	-0.403613	-0.230865
H47	H	-1.603257	-0.322050	-0.357260
H48	H	-1.723998	-0.442360	-0.357230
C49	C	-1.447794	-0.599559	-0.667624
H50	H	-1.444523	-0.602879	-0.769138
H51	H	-1.362873	-0.564134	-0.642770
H52	H	-1.483621	-0.684436	-0.642746
H53	H	-1.650436	-0.395497	-0.593788
