data_functionalizedCrystal
_audit_creation_method	'MofGen! by Chris Wilmer'
_symmetry_space_group_name_H-M	'P1'
_symmetry_Int_Tables_number	1
_symmetry_cell_setting	triclinic
loop_
_symmetry_equiv_pos_as_xyz
  x,y,z
_cell_length_a	12.759401
_cell_length_b	12.759400
_cell_length_c	19.076919
_cell_angle_alpha	92.274856
_cell_angle_beta	92.283212
_cell_angle_gamma	90.014696
loop_
_atom_site_label
_atom_site_type_symbol
_atom_site_fract_x
_atom_site_fract_y
_atom_site_fract_z
Zn1	Zn	1.582346	-0.442153	-0.397926
Zn2	Zn	1.589311	-0.610789	-0.280238
Zn3	Zn	1.413718	-0.435125	-0.280249
Zn4	Zn	1.406638	-0.617789	-0.397898
O5	O	1.498003	-0.526464	-0.339077
O6	O	1.730290	-0.464534	-0.382321
O7	O	1.571897	-0.581616	-0.181750
O8	O	1.436135	-0.289037	-0.295875
O9	O	1.735408	-0.588430	-0.295856
O10	O	1.560025	-0.294201	-0.382332
O11	O	1.442890	-0.452557	-0.181758
O12	O	1.265759	-0.459344	-0.295848
O13	O	1.424068	-0.600361	-0.496391
O14	O	1.260557	-0.593546	-0.382284
O15	O	1.553159	-0.471322	-0.496411
O16	O	1.565031	-0.758737	-0.295829
O17	O	1.430822	-0.763880	-0.382274
C18	C	1.225037	-0.526443	-0.339065
C19	C	1.108259	-0.526460	-0.339076
C20	C	1.497942	-0.799430	-0.339063
C21	C	1.498010	-0.916208	-0.339080
C22	C	0.940995	-0.596455	-0.384025
C23	C	1.050720	-0.596441	-0.384014
C24	C	1.056069	-0.456497	-0.294142
C25	C	0.946347	-0.456517	-0.294151
C26	C	0.883460	-0.666433	-0.428970
C27	C	0.935643	-0.736398	-0.473904
C28	C	1.045368	-0.736384	-0.473892
C29	C	1.102910	-0.666404	-0.428947
C30	C	1.567965	-0.968360	-0.294118
C31	C	1.568028	-1.078086	-0.294140
C32	C	1.428173	-1.083497	-0.384087
C33	C	1.428116	-0.973774	-0.384069
C34	C	1.637859	-0.910795	-0.249130
C35	C	1.707818	-0.962947	-0.204163
C36	C	1.707882	-1.072672	-0.204185
C37	C	1.637986	-1.130245	-0.249173
C38	C	1.772036	-0.526486	-0.339090
C39	C	1.888812	-0.526495	-0.339096
C40	C	1.487047	-0.537406	-0.522652
C41	C	1.482378	-0.542069	-0.600881
C42	C	1.498093	-0.252432	-0.339108
C43	C	1.498131	-0.135656	-0.339120
C44	C	1.547392	-0.477079	-0.637645
C45	C	1.542992	-0.481457	-0.711149
C46	C	1.473582	-0.550830	-0.747888
C47	C	1.408561	-0.615822	-0.711119
C48	C	1.412956	-0.611439	-0.637616
C49	C	1.453225	-0.571139	-0.967717
C50	C	1.448836	-0.575519	-1.041225
C51	C	1.583266	-0.441151	-1.041249
C52	C	1.587660	-0.436779	-0.967745
C53	C	1.522635	-0.501767	-0.930983
N54	N	1.469085	-0.555308	-0.823021
N55	N	1.527127	-0.497283	-0.855851
C56	C	1.508978	-0.515488	-0.156217
C57	C	1.513851	-0.510529	-0.077988
H58	H	0.794117	-0.666450	-0.428986
O59	O	1.349694	-0.674426	-0.601874
C60	C	1.212843	-0.683614	-0.518847
C61	C	1.284413	-0.612158	-0.559289
H62	H	1.160060	-0.633300	-0.484396
H63	H	1.162410	-0.733929	-0.557703
H64	H	1.263136	-0.736526	-0.484465
H65	H	1.234200	-0.559183	-0.593672
H66	H	1.334851	-0.561915	-0.520395
O67	O	0.879591	-0.804274	-0.517536
C68	C	0.708189	-0.866365	-0.557354
C69	C	0.771534	-0.789421	-0.507916
H70	H	0.620814	-0.854398	-0.549583
H71	H	0.726316	-0.851427	-0.614139
H72	H	0.730554	-0.950296	-0.544903
H73	H	0.749205	-0.705461	-0.520304
H74	H	0.753401	-0.804450	-0.451145
O75	O	1.096114	-0.804450	-0.517435
C76	C	1.219474	-0.946809	-0.526742
C77	C	1.162059	-0.869805	-0.477344
H78	H	1.272821	-0.999654	-0.494349
H79	H	1.159551	-0.996900	-0.558853
H80	H	1.268612	-0.900820	-0.563605
H81	H	1.112923	-0.915710	-0.440439
H82	H	1.222036	-0.819714	-0.445282
H83	H	1.638051	-1.219591	-0.249193
H84	H	1.371266	-1.130382	-0.420714
O85	O	1.614845	-0.409597	-0.602068
C86	C	1.747754	-0.276825	-0.609859
C87	C	1.671397	-0.353188	-0.650234
H88	H	1.793513	-0.231213	-0.648784
H89	H	1.701645	-0.219764	-0.575468
H90	H	1.804689	-0.323027	-0.575428
H91	H	1.614445	-0.307073	-0.684704
H92	H	1.717574	-0.410248	-0.684580
H93	H	1.400292	-0.624072	-0.937794
O94	O	1.112082	-0.388663	-0.250456
C95	C	1.241569	-0.368628	-0.155416
C96	C	1.178222	-0.445568	-0.204856
H97	H	1.295042	-0.414605	-0.118527
H98	H	1.291091	-0.315704	-0.187752
H99	H	1.185404	-0.318604	-0.123336
H100	H	1.234310	-0.495660	-0.236947
H101	H	1.128686	-0.498420	-0.172480
O102	O	0.895813	-0.388456	-0.250487
C103	C	0.912690	-0.249692	-0.161315
C104	C	0.970051	-0.326694	-0.210744
H105	H	0.972687	-0.199752	-0.129160
H106	H	0.859431	-0.196699	-0.193661
H107	H	0.863477	-0.295679	-0.124495
H108	H	1.019321	-0.280793	-0.247574
H109	H	1.023247	-0.379687	-0.178355
O110	O	1.341283	-0.683324	-0.746838
C111	C	1.322136	-0.830077	-0.829838
C112	C	1.398444	-0.753712	-0.789420
H113	H	1.368318	-0.886990	-0.864286
H114	H	1.276436	-0.875852	-0.790966
H115	H	1.265142	-0.783864	-0.864220
H116	H	1.455501	-0.799844	-0.755037
H117	H	1.444067	-0.707935	-0.828330
O118	O	1.775614	-0.906864	-0.160489
C119	C	1.837545	-0.735434	-0.120621
C120	C	1.760693	-0.798814	-0.170107
H121	H	1.825524	-0.648064	-0.128391
H122	H	1.822562	-0.753600	-0.063848
H123	H	1.921507	-0.757731	-0.133026
H124	H	1.676702	-0.776553	-0.157765
H125	H	1.775767	-0.780642	-0.226865
O126	O	1.605992	-0.418206	-0.746887
C127	C	1.615201	-0.281327	-0.829905
C128	C	1.543734	-0.352890	-0.789467
H129	H	1.564895	-0.228517	-0.864352
H130	H	1.665540	-0.230922	-0.791047
H131	H	1.668090	-0.331624	-0.864292
H132	H	1.490781	-0.302675	-0.755079
H133	H	1.493466	-0.403301	-0.828363
O134	O	1.655109	-0.369293	-0.932168
C135	C	1.788024	-0.236525	-0.939952
C136	C	1.711666	-0.312883	-0.980330
H137	H	1.833786	-0.190912	-0.978873
H138	H	1.741915	-0.179465	-0.905560
H139	H	1.844955	-0.282731	-0.905520
H140	H	1.654717	-0.266763	-1.014800
H141	H	1.757843	-0.369943	-1.014677
H142	H	1.192255	-0.666404	-0.428938
O143	O	1.646315	-0.378059	-1.077070
C144	C	1.699165	-0.325295	-1.190315
C145	C	1.627688	-0.396796	-1.149838
H146	H	1.684147	-0.340434	-1.249155
H147	H	1.681599	-0.239697	-1.175923
H148	H	1.784731	-0.342872	-1.175827
H149	H	1.542099	-0.379311	-1.164305
H150	H	1.645345	-0.482371	-1.164234
O151	O	1.381313	-0.642938	-1.076806
C152	C	1.248482	-0.775791	-1.069029
C153	C	1.324876	-0.699474	-1.028646
H154	H	1.202848	-0.821537	-1.030110
H155	H	1.191443	-0.729651	-1.103426
H156	H	1.294661	-0.832740	-1.103455
H157	H	1.278784	-0.642509	-0.994182
H158	H	1.381915	-0.745683	-0.994293
H159	H	1.764853	-1.115131	-0.167577
H160	H	1.637813	-0.821450	-0.249105
H161	H	1.371154	-0.931311	-0.420681
