data_functionalizedCrystal
_audit_creation_method	'MofGen! by Chris Wilmer'
_symmetry_space_group_name_H-M	'P1'
_symmetry_Int_Tables_number	1
_symmetry_cell_setting	triclinic
loop_
_symmetry_equiv_pos_as_xyz
  x,y,z
_cell_length_a	14.971490
_cell_length_b	12.996460
_cell_length_c	14.971496
_cell_angle_alpha	90.007054
_cell_angle_beta	96.383114
_cell_angle_gamma	89.992083
loop_
_atom_site_label
_atom_site_type_symbol
_atom_site_fract_x
_atom_site_fract_y
_atom_site_fract_z
O1	O	-1.186948	0.085625	0.116580
O2	O	-0.686948	0.585625	0.616580
O3	O	-0.926549	0.085615	0.130535
O4	O	-0.426549	0.585615	0.630535
O5	O	-1.063723	0.085611	-0.006642
O6	O	-0.563723	0.585611	0.493358
O7	O	-1.049774	0.085629	0.253757
O8	O	-0.549774	0.585629	0.753757
O9	O	-1.063709	-0.085523	-0.006650
O10	O	-0.563709	0.414477	0.493350
O11	O	-0.926534	-0.085519	0.130527
O12	O	-0.426534	0.414481	0.630527
O13	O	-1.186934	-0.085509	0.116572
O14	O	-0.686934	0.414491	0.616572
Cu15	Cu	-1.056733	-0.101140	0.123549
Cu16	Cu	-0.556733	0.398860	0.623549
Cu17	Cu	-1.056750	0.101246	0.123558
Cu18	Cu	-0.556750	0.601246	0.623558
O19	O	-1.049759	-0.085505	0.253749
O20	O	-0.549759	0.414495	0.753749
C21	C	-0.893217	0.000047	0.129906
C22	C	-0.393217	0.500047	0.629906
C23	C	-0.793920	0.000042	0.128034
C24	C	-0.293920	0.500042	0.628034
C25	C	-0.366222	0.093347	0.119961
C26	C	0.133778	0.593347	0.619961
C27	C	-0.459522	0.093344	0.121717
C28	C	0.040478	0.593344	0.621717
C29	C	-0.506160	0.000056	0.122597
C30	C	-0.006160	0.500056	0.622597
C31	C	-0.459494	-0.093236	0.121711
C32	C	0.040506	0.406764	0.621711
C33	C	-0.366196	-0.093232	0.119948
C34	C	0.133804	0.406768	0.619948
C35	C	-0.653956	-0.093237	0.125387
C36	C	-0.153956	0.406763	0.625387
C37	C	-0.747260	-0.093242	0.127152
C38	C	-0.247260	0.406758	0.627152
C39	C	-0.747282	0.093338	0.127156
C40	C	-0.247282	0.593338	0.627156
C41	C	-0.653984	0.093342	0.125393
C42	C	-0.153984	0.593342	0.625393
C43	C	-0.607324	0.000050	0.124509
C44	C	-0.107324	0.500050	0.624509
N45	N	-1.056727	-0.243487	0.123542
N46	N	-0.556727	0.256513	0.623542
C47	C	-1.056748	-0.663301	0.123559
C48	C	-0.556748	-0.163301	0.623559
C49	C	-1.056740	-0.546496	0.123557
C50	C	-0.556740	-0.046496	0.623557
C51	C	-1.056738	-0.453398	0.123551
C52	C	-0.556738	0.046602	0.623551
C53	C	-1.056729	-0.336585	0.123548
C54	C	-0.556729	0.163415	0.623548
C55	C	-0.220265	0.000059	0.117202
C56	C	0.279735	0.500059	0.617202
C57	C	-0.319562	0.000062	0.119078
C58	C	0.180438	0.500062	0.619078
C59	C	-1.063091	0.000044	-0.039970
C60	C	-0.563091	0.500044	0.460030
C61	C	-1.061216	0.000043	-0.139267
C62	C	-0.561216	0.500043	0.360733
N63	N	-1.056762	0.243593	0.123558
N64	N	-0.556762	0.743593	0.623558
C65	C	-1.053156	0.093355	-0.566967
C66	C	-0.553156	0.593355	-0.066967
C67	C	-1.054922	0.093350	-0.473668
C68	C	-0.554922	0.593350	0.026332
C69	C	-1.055791	0.000061	-0.427028
C70	C	-0.555791	0.500061	0.072972
C71	C	-1.054903	-0.093229	-0.473694
C72	C	-0.554903	0.406771	0.026306
C73	C	-1.053144	-0.093224	-0.566993
C74	C	-0.553144	0.406776	-0.066993
C75	C	-1.058568	-0.093234	-0.279231
C76	C	-0.558568	0.406766	0.220769
C77	C	-1.060326	-0.093240	-0.185926
C78	C	-0.560326	0.406760	0.314074
C79	C	-1.060346	0.093340	-0.185906
C80	C	-0.560346	0.593340	0.314094
C81	C	-1.058587	0.093345	-0.279205
C82	C	-0.558587	0.593345	0.220795
C83	C	-1.057698	0.000054	-0.325864
C84	C	-0.557698	0.500054	0.174136
C85	C	-1.050392	0.000064	0.287077
C86	C	-0.550392	0.500064	0.787077
C87	C	-1.052266	0.000071	0.386374
C88	C	-0.552266	0.500071	0.886374
H89	H	-0.616013	0.169306	0.124683
H90	H	-0.116013	0.669306	0.624683
H91	H	-0.785277	0.169300	0.127877
H92	H	-0.285277	0.669300	0.627877
H93	H	-1.061063	0.169301	-0.147911
H94	H	-0.561063	0.669301	0.352089
H95	H	-1.055649	0.169311	-0.435683
H96	H	-0.555649	0.669311	0.064317
H97	H	-0.497509	0.169305	0.122430
H98	H	0.002491	0.669305	0.622430
H99	H	-0.615967	-0.169205	0.124678
H100	H	-0.115967	0.330795	0.624678
H101	H	-1.057845	-0.169202	-0.317218
H102	H	-0.557845	0.330798	0.182782
H103	H	-0.328206	-0.169193	0.119239
H104	H	0.171794	0.330807	0.619239
H105	H	-1.057874	0.169309	-0.317175
H106	H	-0.557874	0.669309	0.182825
H107	H	-1.052440	0.169322	-0.604933
H108	H	-0.552440	0.669322	-0.104933
H109	H	-1.061005	-0.169204	-0.147951
H110	H	-0.561005	0.330796	0.352049
H111	H	-1.055617	-0.169187	-0.435714
H112	H	-0.555617	0.330813	0.064286
H113	H	-0.328255	0.169313	0.119250
H114	H	0.171745	0.669313	0.619250
H115	H	-0.785230	-0.169205	0.127873
H116	H	-0.285230	0.330795	0.627873
H117	H	-0.497475	-0.169193	0.122422
H118	H	0.002525	0.330807	0.622422
H119	H	-1.052419	-0.169185	-0.604981
H120	H	-0.552419	0.330815	-0.104981
