data_functionalizedCrystal
_audit_creation_method	'MofGen! by Chris Wilmer'
_symmetry_space_group_name_H-M	'P1'
_symmetry_Int_Tables_number	1
_symmetry_cell_setting	triclinic
loop_
_symmetry_equiv_pos_as_xyz
  x,y,z
_cell_length_a	16.109302
_cell_length_b	27.732048
_cell_length_c	14.586319
_cell_angle_alpha	89.991275
_cell_angle_beta	89.994552
_cell_angle_gamma	83.052218
loop_
_atom_site_label
_atom_site_type_symbol
_atom_site_fract_x
_atom_site_fract_y
_atom_site_fract_z
O1	O	1.102361	0.062132	-0.076292
O2	O	1.602361	0.562132	0.423708
O3	O	0.860204	0.069863	-0.076286
O4	O	1.360204	0.569863	0.423714
O5	O	0.988803	-0.004368	-0.076271
O6	O	1.488803	0.495632	0.423729
O7	O	0.973761	0.136363	-0.076306
O8	O	1.473761	0.636363	0.423694
O9	O	0.988794	-0.004369	0.076209
O10	O	1.488794	0.495631	0.576209
O11	O	0.860195	0.069862	0.076195
O12	O	1.360195	0.569862	0.576195
O13	O	1.102352	0.062131	0.076189
O14	O	1.602352	0.562131	0.576189
Cu15	Cu	0.981273	0.065996	0.090115
Cu16	Cu	1.481273	0.565996	0.590115
Cu17	Cu	0.981283	0.065998	-0.090211
Cu18	Cu	1.481283	0.565998	0.409789
O19	O	0.973753	0.136362	0.076175
O20	O	1.473753	0.636362	0.576175
C21	C	0.829228	0.069550	-0.000044
C22	C	1.329228	0.569550	0.499956
C23	C	0.736944	0.068610	-0.000041
C24	C	1.236944	0.568610	0.499959
C25	C	0.524626	0.066438	0.083068
C26	C	1.024626	0.566438	0.583068
C27	C	0.437917	0.065551	0.083065
C28	C	0.937917	0.565551	0.583065
C29	C	0.437937	0.065554	-0.083178
C30	C	0.937937	0.565554	0.416822
C31	C	0.524645	0.066438	-0.083174
C32	C	1.024645	0.566438	0.416826
C33	C	0.567987	0.066883	-0.000049
C34	C	1.067987	0.566883	0.499951
C35	C	0.394569	0.065111	-0.000056
C36	C	0.894569	0.565111	0.499944
C37	C	0.300555	0.064149	-0.000060
C38	C	0.800555	0.564149	0.499940
C39	C	0.662007	0.067844	-0.000045
C40	C	1.162007	0.567844	0.499955
C41	C	0.988483	-0.022376	-0.000028
C42	C	1.488483	0.477624	0.499972
C43	C	0.987532	-0.076035	-0.000021
C44	C	1.487532	0.423965	0.499979
C45	C	1.057541	-0.414557	-0.000070
C46	C	1.557541	0.085443	0.499930
C47	C	1.054013	-0.616232	-0.000082
C48	C	1.554013	-0.116232	0.499918
O49	O	1.118031	-0.647219	-0.000124
O50	O	1.618031	-0.147219	0.499876
N51	N	0.977759	-0.635675	-0.000080
N52	N	1.477759	-0.135675	0.499920
C53	C	0.902381	-0.604696	-0.000080
C54	C	1.402381	-0.104696	0.499920
O55	O	0.837441	-0.625861	-0.000087
O56	O	1.337441	-0.125861	0.499913
C57	C	0.905910	-0.403022	-0.000074
C58	C	1.405910	0.096978	0.499926
C59	C	0.982169	-0.383582	-0.000067
C60	C	1.482169	0.116418	0.499933
C61	C	1.133794	-0.395117	-0.000064
C62	C	1.633794	0.104883	0.499936
C63	C	1.134675	-0.344701	-0.000056
C64	C	1.634675	0.155299	0.499944
C65	C	1.059303	-0.313726	-0.000053
C66	C	1.559303	0.186274	0.499947
C67	C	0.983050	-0.333167	-0.000059
C68	C	1.483050	0.166833	0.499941
C69	C	0.830533	-0.372044	-0.000080
C70	C	1.330533	0.127956	0.499920
C71	C	0.831422	-0.321623	-0.000081
C72	C	1.331422	0.178377	0.499919
C73	C	0.907681	-0.302183	-0.000074
C74	C	1.407681	0.197817	0.499926
C75	C	0.908559	-0.251776	-0.000048
C76	C	1.408559	0.248224	0.499952
N77	N	0.984813	-0.232333	-0.000051
N78	N	1.484813	0.267667	0.499949
C79	C	1.060185	-0.263308	-0.000053
C80	C	1.560185	0.236692	0.499947
C81	C	0.900534	-0.710577	-0.000081
C82	C	1.400534	-0.210577	0.499919
C83	C	0.899652	-0.760996	-0.000081
C84	C	1.399652	-0.260996	0.499919
C85	C	1.051284	-0.772528	-0.000085
C86	C	1.551284	-0.272528	0.499915
C87	C	1.052165	-0.722109	-0.000079
C88	C	1.552165	-0.222109	0.499921
C89	C	0.976788	-0.691134	-0.000084
C90	C	1.476788	-0.191134	0.499916
C91	C	1.062030	-0.157431	-0.000035
C92	C	1.562030	0.342569	0.499965
C93	C	1.062904	-0.107010	-0.000023
C94	C	1.562904	0.392990	0.499977
C95	C	0.911272	-0.095482	-0.000024
C96	C	1.411272	0.404518	0.499976
C97	C	0.910397	-0.145898	-0.000031
C98	C	1.410397	0.354102	0.499969
C99	C	0.985783	-0.176872	-0.000040
C100	C	1.485783	0.323128	0.499960
O101	O	0.844576	-0.220760	-0.000017
O102	O	1.344576	0.279240	0.499983
O103	O	1.125116	-0.242134	-0.000066
O104	O	1.625116	0.257866	0.499934
C105	C	1.056660	-0.464973	-0.000078
C106	C	1.556660	0.035027	0.499922
C107	C	0.980407	-0.484413	-0.000083
C108	C	1.480407	0.015587	0.499917
C109	C	0.905035	-0.453438	-0.000081
C110	C	1.405035	0.046562	0.499919
C111	C	0.979524	-0.534832	-0.000083
C112	C	1.479524	-0.034832	0.499917
C113	C	1.054896	-0.565807	-0.000086
C114	C	1.554896	-0.065807	0.499914
C115	C	1.131150	-0.546364	-0.000089
C116	C	1.631150	-0.046364	0.499911
C117	C	1.132032	-0.495948	-0.000080
C118	C	1.632032	0.004052	0.499920
C119	C	0.828780	-0.472881	-0.000078
C120	C	1.328780	0.027119	0.499922
C121	C	0.827905	-0.523298	-0.000085
C122	C	1.327905	-0.023298	0.499915
C123	C	0.903277	-0.554273	-0.000088
C124	C	1.403277	-0.054273	0.499912
C125	C	1.133328	0.062444	-0.000054
C126	C	1.633328	0.562444	0.499946
C127	C	1.225611	0.063384	-0.000063
C128	C	1.725611	0.563384	0.499937
C129	C	0.974073	0.154370	-0.000070
C130	C	1.474073	0.654370	0.499930
C131	C	0.975023	0.208029	-0.000084
C132	C	1.475023	0.708029	0.499916
N133	N	0.981271	0.065995	0.216947
N134	N	1.481271	0.565995	0.716947
N135	N	0.981291	0.065995	-0.217043
N136	N	1.481291	0.565995	0.282957
C137	C	1.038234	0.033137	0.451959
C138	C	1.538234	0.533137	0.951959
C139	C	1.038236	0.033135	0.547941
C140	C	1.538236	0.533135	1.047941
C141	C	0.924323	0.098855	0.547937
C142	C	1.424323	0.598855	1.047937
C143	C	0.924317	0.098854	0.451958
C144	C	1.424317	0.598854	0.951958
C145	C	0.981277	0.065995	0.403971
C146	C	1.481277	0.565995	0.903971
C147	C	0.981285	0.065995	0.595932
C148	C	1.481285	0.565995	1.095932
C149	C	0.981287	0.065994	0.699999
C150	C	1.481287	0.565994	1.199999
C151	C	0.981274	0.065995	0.299898
C152	C	1.481274	0.565995	0.799898
H153	H	0.559951	0.066799	-0.150862
H154	H	1.059951	0.566799	0.349138
H155	H	1.125006	-0.091186	-0.000016
H156	H	1.625006	0.408814	0.499984
H157	H	0.877932	0.125611	0.412883
H158	H	1.377932	0.625611	0.912883
C159	C	0.749606	-0.287970	-0.000272
C160	C	1.249606	0.212030	0.499728
C161	C	0.745678	-0.258688	-0.078729
C162	C	1.245678	0.241312	0.421271
C163	C	0.670319	-0.227687	-0.078940
C164	C	1.170319	0.272313	0.421060
H165	H	0.746709	-0.268022	0.052841
H166	H	1.246709	0.231978	0.552841
H167	H	0.704043	-0.306755	-0.000326
H168	H	1.204043	0.193245	0.499674
H169	H	0.791228	-0.239905	-0.078666
H170	H	1.291228	0.260095	0.421334
H171	H	0.748560	-0.278623	-0.131855
H172	H	1.248560	0.221377	0.368145
H173	H	0.624756	-0.246472	-0.078994
H174	H	1.124756	0.253528	0.421006
H175	H	0.667429	-0.207742	-0.025823
H176	H	1.167429	0.292258	0.474177
H177	H	0.667640	-0.207819	-0.132175
H178	H	1.167640	0.292181	0.367825
H179	H	1.112655	-0.797757	-0.000087
H180	H	1.612655	-0.297757	0.499913
C181	C	0.571541	0.066888	0.173411
C182	C	1.071541	0.566888	0.673411
C183	C	0.515007	0.066295	0.246199
C184	C	1.015007	0.566295	0.746199
C185	C	0.558194	0.066700	0.329439
C186	C	1.058194	0.566700	0.829439
H187	H	0.598668	0.095395	0.176999
H188	H	1.098668	0.595395	0.676999
H189	H	0.612053	0.039051	0.176919
H190	H	1.112053	0.539051	0.676919
H191	H	0.474510	0.094130	0.242692
H192	H	0.974510	0.594130	0.742692
H193	H	0.487878	0.037790	0.242642
H194	H	0.987878	0.537790	0.742642
H195	H	0.598706	0.038863	0.332947
H196	H	1.098706	0.538863	0.832947
H197	H	0.585320	0.095208	0.333017
H198	H	1.085320	0.595208	0.833017
H199	H	0.519844	0.066293	0.378835
H200	H	1.019844	0.566293	0.878835
C201	C	0.390822	0.064967	0.173280
C202	C	0.890822	0.564967	0.673280
C203	C	0.350956	0.022890	0.178155
C204	C	0.850956	0.522890	0.678155
C205	C	0.307576	0.022330	0.261257
C206	C	0.807576	0.522330	0.761257
H207	H	0.350230	0.092757	0.176823
H208	H	0.850230	0.592757	0.676823
H209	H	0.429038	0.065330	0.222808
H210	H	0.929038	0.565330	0.722808
H211	H	0.312743	0.022531	0.128640
H212	H	0.812743	0.522531	0.628640
H213	H	0.391529	-0.004907	0.174628
H214	H	0.891529	0.495093	0.674628
H215	H	0.345792	0.022694	0.310786
H216	H	0.845792	0.522694	0.810786
H217	H	0.266988	0.050122	0.264792
H218	H	0.766988	0.550122	0.764792
H219	H	0.280528	-0.006220	0.264579
H220	H	0.780528	0.493780	0.764579
H221	H	0.402637	0.065193	-0.150856
H222	H	0.902637	0.565193	0.349144
C223	C	1.143814	-0.191111	0.000103
C224	C	1.643814	0.308889	0.500103
C225	C	1.147727	-0.220410	0.078537
C226	C	1.647727	0.279590	0.578537
C227	C	1.223047	-0.251446	0.078696
C228	C	1.723047	0.248554	0.578696
H229	H	1.189417	-0.172367	0.000156
H230	H	1.689417	0.327633	0.500156
H231	H	1.146641	-0.211043	-0.053045
H232	H	1.646641	0.288957	0.446955
H233	H	1.144908	-0.200481	0.131671
H234	H	1.644908	0.299519	0.631671
H235	H	1.102141	-0.239165	0.078500
H236	H	1.602141	0.260835	0.578500
H237	H	1.225875	-0.271378	0.025548
H238	H	1.725875	0.228622	0.525548
H239	H	1.268645	-0.232698	0.078746
H240	H	1.768645	0.267302	0.578746
H241	H	1.225710	-0.271332	0.131907
H242	H	1.725710	0.228668	0.631907
H243	H	1.196773	-0.328878	-0.000054
H244	H	1.696773	0.171122	0.499946
H245	H	1.195174	-0.420332	-0.000070
H246	H	1.695174	0.079668	0.499930
H247	H	0.837554	-0.776819	-0.000070
H248	H	1.337554	-0.276819	0.499930
H249	H	1.114262	-0.706285	-0.000074
H250	H	1.614262	-0.206285	0.499926
C251	C	1.214769	-0.474780	-0.000225
C252	C	1.714769	0.025220	0.499775
C253	C	1.219707	-0.446156	-0.078660
C254	C	1.719707	0.053844	0.421340
C255	C	1.295911	-0.426647	-0.078821
C256	C	1.795911	0.073353	0.421179
H257	H	1.259596	-0.500404	-0.000276
H258	H	1.759596	-0.000404	0.499724
H259	H	1.218277	-0.455330	0.052922
H260	H	1.718277	0.044670	0.552922
H261	H	1.216206	-0.465605	-0.131793
H262	H	1.716206	0.034395	0.368207
H263	H	1.174897	-0.420525	-0.078626
H264	H	1.674897	0.079475	0.421374
H265	H	1.299420	-0.407197	-0.025674
H266	H	1.799420	0.092803	0.474326
H267	H	1.340732	-0.452274	-0.078870
H268	H	1.840732	0.047726	0.421130
H269	H	1.299268	-0.407220	-0.132033
H270	H	1.799268	0.092780	0.367967
C271	C	0.818600	-0.677032	-0.000030
C272	C	1.318600	-0.177032	0.499970
C273	C	0.751641	-0.704857	-0.000000
C274	C	1.251641	-0.204857	0.500000
C275	C	0.676151	-0.673974	0.000065
C276	C	1.176151	-0.173974	0.500065
H277	H	0.815666	-0.657107	-0.053187
H278	H	1.315666	-0.157107	0.446813
H279	H	0.815742	-0.657136	0.053167
H280	H	1.315742	-0.157136	0.553167
H281	H	0.754497	-0.724744	-0.053191
H282	H	1.254497	-0.224744	0.446809
H283	H	0.754547	-0.724780	0.053153
H284	H	1.254547	-0.224780	0.553153
H285	H	0.673293	-0.654079	0.053262
H286	H	1.173293	-0.154079	0.553262
H287	H	0.673225	-0.654051	-0.053093
H288	H	1.173225	-0.154051	0.446907
H289	H	0.630710	-0.692849	0.000094
H290	H	1.130710	-0.192849	0.500094
H291	H	1.084613	0.006380	0.412891
H292	H	1.584613	0.506380	0.912891
C293	C	1.099945	-0.002594	0.600090
C294	C	1.599945	0.497406	1.100090
C295	C	1.056046	-0.032201	0.655189
C296	C	1.556046	0.467799	1.155189
C297	C	1.112865	-0.065128	0.703232
C298	C	1.612865	0.434872	1.203232
H299	H	1.134352	0.014743	0.637597
H300	H	1.634352	0.514743	1.137597
H301	H	1.133853	-0.022191	0.557791
H302	H	1.633853	0.477809	1.057791
H303	H	1.022152	-0.012608	0.697483
H304	H	1.522152	0.487392	1.197483
H305	H	1.021642	-0.049549	0.617705
H306	H	1.521642	0.450451	1.117705
H307	H	1.146774	-0.084724	0.660933
H308	H	1.646774	0.415276	1.160933
H309	H	1.147269	-0.047786	0.740734
H310	H	1.647269	0.452214	1.240734
H311	H	1.083088	-0.085223	0.740615
H312	H	1.583088	0.414777	1.240615
C313	C	0.747648	-0.393048	-0.000139
C314	C	1.247648	0.106952	0.499861
C315	C	0.681841	-0.355121	-0.000167
C316	C	1.181841	0.144879	0.499833
C317	C	0.605472	-0.374449	-0.000235
C318	C	1.105472	0.125551	0.499765
H319	H	0.744017	-0.412474	0.053016
H320	H	1.244017	0.087526	0.553016
H321	H	0.744110	-0.412455	-0.053337
H322	H	1.244110	0.087545	0.446663
H323	H	0.685378	-0.335721	0.053026
H324	H	1.185378	0.164279	0.553026
H325	H	0.685445	-0.335692	-0.053319
H326	H	1.185445	0.164308	0.446681
H327	H	0.601933	-0.393857	-0.053434
H328	H	1.101933	0.106143	0.446566
H329	H	0.601849	-0.393875	0.052921
H330	H	1.101849	0.106125	0.552921
H331	H	0.560812	-0.348719	-0.000263
H332	H	1.060812	0.151281	0.499737
H333	H	0.848301	-0.161727	-0.000011
H334	H	1.348301	0.338273	0.499989
C335	C	0.829470	-0.061822	-0.000214
C336	C	1.329470	0.438178	0.499786
C337	C	0.825559	-0.032543	-0.078674
C338	C	1.325559	0.467457	0.421326
C339	C	0.750210	-0.001532	-0.078894
C340	C	1.250210	0.498468	0.421106
H341	H	0.826578	-0.041872	0.052897
H342	H	1.326578	0.458128	0.552897
H343	H	0.783898	-0.080600	-0.000269
H344	H	1.283898	0.419400	0.499731
H345	H	0.871118	-0.013767	-0.078611
H346	H	1.371118	0.486233	0.421389
H347	H	0.828436	-0.052480	-0.131798
H348	H	1.328436	0.447520	0.368202
H349	H	0.704639	-0.020310	-0.078949
H350	H	1.204639	0.479690	0.421051
H351	H	0.747325	0.018414	-0.025780
H352	H	1.247325	0.518414	0.474220
H353	H	0.747543	0.018334	-0.132132
H354	H	1.247543	0.518334	0.367868
C355	C	1.212896	-0.580080	-0.000141
C356	C	1.712896	-0.080080	0.499859
C357	C	1.195790	-0.628393	-0.000173
C358	C	1.695790	-0.128393	0.499827
C359	C	1.271067	-0.659468	-0.000240
C360	C	1.771067	-0.159468	0.499760
H361	H	1.244256	-0.574261	0.053016
H362	H	1.744256	-0.074261	0.553016
H363	H	1.244199	-0.574212	-0.053338
H364	H	1.744199	-0.074212	0.446662
H365	H	1.164500	-0.634259	0.053018
H366	H	1.664500	-0.134259	0.553018
H367	H	1.164442	-0.634228	-0.053326
H368	H	1.664442	-0.134228	0.446674
H369	H	1.302370	-0.653600	-0.053437
H370	H	1.802370	-0.153600	0.446563
H371	H	1.302422	-0.653644	0.052918
H372	H	1.802422	-0.153644	0.552918
H373	H	1.259471	-0.692252	-0.000270
H374	H	1.759471	-0.192252	0.499730
H375	H	0.765801	-0.539120	-0.000082
H376	H	1.265801	-0.039120	0.499918
C377	C	0.862582	0.134511	0.600205
C378	C	1.362582	0.634511	1.100205
C379	C	0.874792	0.127490	0.694532
C380	C	1.374792	0.627490	1.194532
C381	C	0.817941	0.160334	0.742707
C382	C	1.317941	0.660334	1.242707
H383	H	0.807125	0.129285	0.584600
H384	H	1.307125	0.629285	1.084600
H385	H	0.871203	0.166782	0.584513
H386	H	1.371203	0.666782	1.084513
H387	H	0.866164	0.095227	0.710218
H388	H	1.366164	0.595227	1.210218
H389	H	0.930238	0.132720	0.710164
H390	H	1.430238	0.632720	1.210164
H391	H	0.826562	0.192605	0.727014
H392	H	1.326562	0.692605	1.227014
H393	H	0.762488	0.155105	0.727095
H394	H	1.262488	0.655105	1.227095
H395	H	0.826223	0.155577	0.806712
H396	H	1.326223	0.655577	1.306712
H397	H	0.767402	-0.447666	-0.000078
H398	H	1.267402	0.052334	0.499922
