data_functionalizedCrystal
_audit_creation_method	'MofGen! by Chris Wilmer'
_symmetry_space_group_name_H-M	'P1'
_symmetry_Int_Tables_number	1
_symmetry_cell_setting	triclinic
loop_
_symmetry_equiv_pos_as_xyz
  x,y,z
_cell_length_a	16.120297
_cell_length_b	12.759401
_cell_length_c	12.759399
_cell_angle_alpha	90.016641
_cell_angle_beta	87.125037
_cell_angle_gamma	87.120011
loop_
_atom_site_label
_atom_site_type_symbol
_atom_site_fract_x
_atom_site_fract_y
_atom_site_fract_z
Zn1	Zn	-0.471361	-1.576116	0.448371
Zn2	Zn	-0.331955	-1.584922	0.615155
Zn3	Zn	-0.331968	-1.409330	0.439497
Zn4	Zn	-0.471326	-1.400408	0.624011
O5	O	-0.401653	-1.492694	0.531759
O6	O	-0.452877	-1.724305	0.470503
O7	O	-0.215294	-1.569049	0.584434
O8	O	-0.350479	-1.431503	0.293654
O9	O	-0.350457	-1.730774	0.593039
O10	O	-0.452890	-1.554040	0.300174
O11	O	-0.215303	-1.440042	0.455378
O12	O	-0.350445	-1.261126	0.463965
O13	O	-0.587994	-1.416296	0.608132
O14	O	-0.452831	-1.254571	0.599527
O15	O	-0.588019	-1.545389	0.479090
O16	O	-0.350423	-1.560397	0.763350
O17	O	-0.452818	-1.424835	0.769856
C18	C	-0.401636	-1.219728	0.531745
C19	C	-0.401649	-1.102950	0.531765
C20	C	-0.619102	-1.478865	0.545589
C21	C	-0.711766	-1.472972	0.551483
C22	C	-0.401634	-1.492631	0.804725
C23	C	-0.401653	-1.492698	0.921503
C24	C	-0.881424	-1.462174	0.562219
C25	C	-0.922733	-1.523421	0.500983
C26	C	-1.017137	-1.517413	0.506957
C27	C	-0.787012	-1.468181	0.556247
C28	C	-0.185049	-1.506530	0.517906
C29	C	-0.092386	-1.512626	0.511717
C30	C	-0.401670	-1.766726	0.531773
C31	C	-0.401677	-1.883502	0.531780
C32	C	-0.454877	-1.044708	0.602449
C33	C	-0.454893	-0.934983	0.602454
C34	C	-0.348446	-0.941753	0.461088
C35	C	-0.348435	-1.051475	0.461079
C36	C	-0.401690	-1.492785	0.257728
C37	C	-0.401706	-1.492824	0.140952
C38	C	-0.348397	-1.563358	0.972946
C39	C	-0.348425	-1.563424	1.082672
C40	C	-0.454968	-1.422160	1.089502
C41	C	-0.454944	-1.422101	0.979778
H42	H	-0.887200	-1.580367	0.444069
C43	C	-0.289788	-1.641021	0.908847
H44	H	-0.258081	-1.683119	0.955204
H45	H	-0.253424	-1.603162	0.863784
H46	H	-0.321709	-1.684715	0.868020
C47	C	-0.513409	-1.101332	0.680197
H48	H	-0.505773	-1.175022	0.670079
H49	H	-0.569448	-1.079808	0.668503
H50	H	-0.501103	-1.084110	0.749984
H51	H	-0.498315	-1.364560	0.937891
C52	C	-0.289907	-0.885127	0.383351
H53	H	-0.297529	-0.811439	0.393486
H54	H	-0.302199	-0.902342	0.313563
H55	H	-0.233868	-0.906659	0.395062
C56	C	-0.929416	-1.385254	0.639108
H57	H	-0.891086	-1.347610	0.676745
H58	H	-0.963391	-1.423317	0.686987
H59	H	-0.963379	-1.337367	0.601020
H60	H	-0.305090	-1.098898	0.403513
C61	C	-0.513446	-0.870920	0.680204
H62	H	-0.545132	-0.917295	0.722301
H63	H	-0.549832	-0.825826	0.642402
H64	H	-0.481495	-0.830128	0.723893
C65	C	-0.289839	-1.641145	1.139254
H66	H	-0.258096	-1.683173	1.088829
H67	H	-0.321767	-1.684887	1.184030
H68	H	-0.253495	-1.603318	1.179800
H69	H	-0.498354	-1.364681	1.136962
