data_functionalizedCrystal
_audit_creation_method	'MofGen! by Chris Wilmer'
_symmetry_space_group_name_H-M	'P1'
_symmetry_Int_Tables_number	1
_symmetry_cell_setting	triclinic
loop_
_symmetry_equiv_pos_as_xyz
  x,y,z
_cell_length_a	19.077269
_cell_length_b	13.897447
_cell_length_c	19.076919
_cell_angle_alpha	92.274152
_cell_angle_beta	94.669058
_cell_angle_gamma	87.722543
loop_
_atom_site_label
_atom_site_type_symbol
_atom_site_fract_x
_atom_site_fract_y
_atom_site_fract_z
Zn1	Zn	1.061684	-0.462033	-0.355283
Zn2	Zn	1.066348	-0.617106	-0.237407
Zn3	Zn	0.948540	-0.449603	-0.242151
Zn4	Zn	0.943779	-0.617057	-0.359990
O5	O	1.005088	-0.536450	-0.298708
O6	O	1.160949	-0.487826	-0.335692
O7	O	1.054665	-0.589705	-0.139389
O8	O	0.963589	-0.316274	-0.257173
O9	O	1.164376	-0.601757	-0.249089
O10	O	1.046715	-0.325406	-0.340292
O11	O	0.968112	-0.466641	-0.142874
O12	O	0.849262	-0.466594	-0.261737
O13	O	0.955475	-0.601675	-0.458013
O14	O	0.845764	-0.589622	-0.348313
O15	O	1.042099	-0.487779	-0.454556
O16	O	1.050048	-0.752078	-0.253653
O17	O	0.959997	-0.752042	-0.343714
C18	C	0.821935	-0.526755	-0.306051
C19	C	0.743581	-0.522632	-0.309209
C20	C	1.005031	-0.787060	-0.298694
C21	C	1.005070	-0.894277	-0.298709
C22	C	0.708554	-0.579909	-0.265536
C23	C	0.634931	-0.576035	-0.268513
C24	C	0.596337	-0.514879	-0.315160
C25	C	0.631369	-0.457600	-0.358837
C26	C	0.704990	-0.461479	-0.355864
C27	C	0.375962	-0.496931	-0.328899
C28	C	0.302336	-0.493054	-0.331868
C29	C	0.305903	-0.611491	-0.241544
C30	C	0.379526	-0.615361	-0.238572
C31	C	0.414551	-0.558086	-0.282252
N32	N	0.521083	-0.510916	-0.318202
N33	N	0.489804	-0.562055	-0.279213
C34	C	1.005104	-0.981350	-0.298723
C35	C	1.005152	-1.090586	-0.298740
C36	C	1.188956	-0.546183	-0.291336
C37	C	1.267309	-0.550331	-0.288195
C38	C	0.997735	-0.546108	-0.482578
C39	C	0.994602	-0.550223	-0.560932
C40	C	1.005163	-0.284863	-0.298737
C41	C	1.005195	-0.177651	-0.298749
C42	C	1.038229	-0.492860	-0.595944
C43	C	1.035276	-0.496723	-0.669567
C44	C	0.988700	-0.557955	-0.708176
C45	C	0.945069	-0.615320	-0.673159
C46	C	0.948019	-0.611452	-0.599538
C47	C	0.975040	-0.575879	-0.928554
C48	C	0.972095	-0.579745	-1.002180
C49	C	1.062301	-0.461146	-0.998582
C50	C	1.065250	-0.457287	-0.924960
C51	C	1.021616	-0.514649	-0.889949
N52	N	0.985683	-0.561907	-0.783431
N53	N	1.024630	-0.510691	-0.814697
C54	C	1.012452	-0.526762	-0.115551
C55	C	1.015722	-0.522382	-0.037192
H56	H	0.739972	-0.629705	-0.227549
C57	C	1.109749	-0.398823	-1.036465
C58	C	1.151179	-0.344388	-0.986894
C59	C	1.194902	-0.286969	-1.021764
H60	H	1.081723	-0.356797	-1.066268
H61	H	1.139342	-0.438833	-1.063934
H62	H	1.121589	-0.304382	-0.959436
H63	H	1.179220	-0.386390	-0.957089
H64	H	1.224496	-0.326978	-1.049233
H65	H	1.166870	-0.244948	-1.051566
H66	H	1.223022	-0.250034	-0.988135
H67	H	0.939521	-0.622601	-0.900057
C68	C	0.260308	-0.426679	-0.382445
C69	C	0.188338	-0.435520	-0.375681
C70	C	0.149601	-0.374382	-0.422249
H71	H	0.270400	-0.443956	-0.429338
H72	H	0.272752	-0.361922	-0.371719
H73	H	0.175899	-0.500263	-0.386411
H74	H	0.178225	-0.418235	-0.328799
H75	H	0.162045	-0.309625	-0.411524
H76	H	0.159699	-0.391665	-0.469139
H77	H	0.100766	-0.380366	-0.417662
C78	C	0.413856	-0.434624	-0.376345
C79	C	0.364297	-0.380214	-0.417813
C80	C	0.399182	-0.322790	-0.461521
H81	H	0.441353	-0.474600	-0.405920
H82	H	0.443634	-0.392588	-0.348285
H83	H	0.334532	-0.422245	-0.445870
H84	H	0.336798	-0.340219	-0.388256
H85	H	0.428960	-0.280753	-0.433460
H86	H	0.426678	-0.362773	-0.491091
H87	H	0.365563	-0.285859	-0.489657
H88	H	0.934166	-0.629610	-1.033614
C89	C	0.900749	-0.673909	-0.561551
C90	C	0.915372	-0.771097	-0.578817
C91	C	0.871848	-0.828662	-0.543828
H92	H	0.852879	-0.658053	-0.575478
H93	H	0.909186	-0.662898	-0.512169
H94	H	0.906929	-0.782104	-0.628188
H95	H	0.963233	-0.786983	-0.564888
H96	H	0.880285	-0.817651	-0.494446
H97	H	0.823980	-0.812798	-0.557759
H98	H	0.881768	-0.894611	-0.555533
C99	C	0.596810	-0.638058	-0.221061
C100	C	0.556325	-0.578751	-0.177671
C101	C	0.521190	-0.635857	-0.133956
H102	H	0.630258	-0.675049	-0.192787
H103	H	0.566978	-0.680027	-0.249119
H104	H	0.586155	-0.536799	-0.149615
H105	H	0.522865	-0.541760	-0.205926
H106	H	0.491358	-0.677826	-0.162015
H107	H	0.554643	-0.672846	-0.105687
H108	H	0.493712	-0.595626	-0.104516
H109	H	0.410944	-0.665160	-0.200586
H110	H	0.277377	-0.658123	-0.205983
C111	C	0.894571	-0.681774	-0.715200
C112	C	0.901338	-0.672906	-0.787168
C113	C	0.854837	-0.734120	-0.825915
H114	H	0.847662	-0.664579	-0.705119
H115	H	0.905356	-0.746518	-0.702753
H116	H	0.890548	-0.608176	-0.799610
H117	H	0.948236	-0.690109	-0.797271
H118	H	0.865622	-0.798865	-0.813468
H119	H	0.807932	-0.716919	-0.815828
H120	H	0.859427	-0.728118	-0.874749
H121	H	0.599940	-0.407809	-0.396821
H122	H	0.733508	-0.414837	-0.391426
H123	H	1.076158	-0.443002	-0.564514
C124	C	1.082728	-0.434407	-0.707450
C125	C	1.124165	-0.379980	-0.657879
C126	C	1.167894	-0.322571	-0.692750
H127	H	1.054706	-0.392376	-0.737252
H128	H	1.112317	-0.474424	-0.734920
H129	H	1.094579	-0.339968	-0.630421
H130	H	1.152201	-0.421987	-0.628075
H131	H	1.197483	-0.362587	-0.720220
H132	H	1.139867	-0.280545	-0.722551
H133	H	1.196019	-0.285642	-0.659122
H134	H	1.103179	-0.407429	-0.893529
