data_functionalizedCrystal
_audit_creation_method	'MofGen! by Chris Wilmer'
_symmetry_space_group_name_H-M	'P1'
_symmetry_Int_Tables_number	1
_symmetry_cell_setting	triclinic
loop_
_symmetry_equiv_pos_as_xyz
  x,y,z
_cell_length_a	10.654550
_cell_length_b	27.732048
_cell_length_c	9.730223
_cell_angle_alpha	89.993758
_cell_angle_beta	89.996251
_cell_angle_gamma	83.563778
loop_
_atom_site_label
_atom_site_type_symbol
_atom_site_fract_x
_atom_site_fract_y
_atom_site_fract_z
O1	O	1.664980	0.067884	-0.114419
O2	O	1.299230	0.074351	-0.114399
O3	O	1.493465	0.000792	-0.114384
O4	O	1.470746	0.141444	-0.114435
O5	O	1.493462	0.000793	0.114196
O6	O	1.299228	0.074353	0.114181
O7	O	1.664978	0.067886	0.114161
Zn8	Zn	1.482102	0.071120	0.150463
Zn9	Zn	1.482105	0.071117	-0.150701
O10	O	1.470743	0.141445	0.114145
C11	C	1.252451	0.073878	-0.000106
C12	C	1.113067	0.072457	-0.000097
C13	C	1.031761	0.115768	-0.000133
C14	C	0.900796	0.114430	-0.000156
C15	C	0.932457	0.026466	-0.000114
C16	C	1.063419	0.027805	-0.000080
C17	C	1.081409	0.160420	-0.000149
C18	C	1.000101	0.203734	-0.000187
C19	C	0.869136	0.202396	-0.000210
C20	C	0.819479	0.157744	-0.000196
C21	C	1.492987	-0.017217	-0.000090
C22	C	1.491551	-0.070881	-0.000078
C23	C	1.597290	-0.409038	-0.000155
C24	C	1.591962	-0.610731	-0.000174
O25	O	1.688653	-0.641384	-0.000239
N26	N	1.476789	-0.630572	-0.000166
C27	C	1.362940	-0.599986	-0.000163
O28	O	1.264856	-0.621490	-0.000171
C29	C	1.368269	-0.398294	-0.000154
C30	C	1.483449	-0.378456	-0.000147
C31	C	1.712461	-0.389199	-0.000150
C32	C	1.713792	-0.338779	-0.000138
C33	C	1.599951	-0.308197	-0.000131
C34	C	1.484780	-0.328036	-0.000135
C35	C	1.254421	-0.367709	-0.000160
C36	C	1.255764	-0.317284	-0.000161
C37	C	1.370944	-0.297446	-0.000155
C38	C	1.372271	-0.247034	-0.000115
N39	N	1.487444	-0.227193	-0.000123
C40	C	1.601284	-0.257775	-0.000131
C41	C	1.360150	-0.705877	-0.000165
C42	C	1.358817	-0.756300	-0.000164
C43	C	1.587840	-0.767041	-0.000178
C44	C	1.589171	-0.716618	-0.000169
C45	C	1.475323	-0.686036	-0.000172
C46	C	1.604070	-0.151888	-0.000104
C47	C	1.605391	-0.101463	-0.000086
C48	C	1.376369	-0.090726	-0.000080
C49	C	1.375047	-0.141147	-0.000090
C50	C	1.488908	-0.171727	-0.000107
O51	O	1.275631	-0.216352	-0.000065
O52	O	1.699354	-0.236261	-0.000153
C53	C	1.595959	-0.459458	-0.000167
C54	C	1.480788	-0.479296	-0.000172
C55	C	1.366948	-0.448715	-0.000164
C56	C	1.479455	-0.529719	-0.000172
C57	C	1.593296	-0.560301	-0.000179
C58	C	1.708469	-0.540460	-0.000187
C59	C	1.709800	-0.490040	-0.000175
C60	C	1.251774	-0.468556	-0.000157
C61	C	1.250453	-0.518976	-0.000167
C62	C	1.364293	-0.549558	-0.000175
C63	C	1.711757	0.068360	-0.000135
C64	C	1.851141	0.069780	-0.000153
C65	C	1.471221	0.159454	-0.000152
C66	C	1.472657	0.213118	-0.000172
N67	N	1.482110	0.071121	0.355999
N68	N	1.482108	0.071112	-0.356238
C69	C	1.568138	0.038560	0.427932
C70	C	1.568135	0.038554	0.571815
C71	C	1.396071	0.103675	0.571820
C72	C	1.396069	0.103678	0.427939
C73	C	1.654179	0.006003	0.355992
C74	C	1.740215	-0.026560	0.427925
C75	C	1.740212	-0.026566	0.571808
C76	C	1.654173	0.005991	0.643758
H77	H	1.129622	-0.007463	-0.000055
H78	H	1.326022	0.130182	0.630411
C79	C	1.228744	-0.642944	-0.117667
C80	C	1.234993	-0.672267	-0.000162
H81	H	1.151472	-0.622199	-0.117662
H82	H	1.297505	-0.623907	-0.117663
H83	H	1.232994	-0.662840	-0.197368
H84	H	1.230751	-0.652371	0.079540
H85	H	1.166212	-0.691306	-0.000154
C86	C	1.120055	-0.418162	-0.117695
C87	C	1.127809	-0.389506	-0.000183
H88	H	1.041887	-0.431619	-0.117706
H89	H	1.125357	-0.398709	-0.197384
H90	H	1.187656	-0.443596	-0.117676
H91	H	1.060213	-0.364069	-0.000208
H92	H	1.122495	-0.408959	0.079526
C93	C	0.745756	-0.014641	-0.000164
C94	C	0.877876	-0.022613	-0.000118
H95	H	0.712064	-0.044942	-0.000179
H96	H	0.717775	0.003207	0.079532
H97	H	0.717828	0.003212	-0.079891
H98	H	0.905804	-0.040463	0.079615
H99	H	0.905869	-0.040468	-0.079821
H100	H	1.699189	-0.085314	-0.000077
C101	C	1.816553	-0.055495	0.207363
C102	C	1.834733	-0.062367	0.348843
H103	H	1.874896	-0.077605	0.158547
H104	H	1.732843	-0.061025	0.183824
H105	H	1.829612	-0.023193	0.183766
H106	H	1.821665	-0.094668	0.372441
H107	H	1.918464	-0.056840	0.372391
H108	H	1.326015	0.130192	0.369371
C109	C	1.817557	-0.266260	-0.000148
C110	C	1.840402	-0.316977	-0.000152
H111	H	1.895727	-0.252804	-0.000154
H112	H	1.770731	-0.255787	-0.079846
H113	H	1.770736	-0.255794	0.079576
H114	H	1.887215	-0.327443	-0.079882
H115	H	1.887248	-0.327454	0.079554
H116	H	0.712838	0.156658	-0.000193
C117	C	1.260417	0.186281	-0.117631
C118	C	1.225365	0.161893	-0.000121
H119	H	1.349288	0.187192	-0.117609
H120	H	1.236660	0.169729	-0.197321
H121	H	1.219087	0.218465	-0.117643
H122	H	1.266687	0.129708	-0.000115
H123	H	1.249135	0.178444	0.079589
H124	H	1.040540	0.240088	-0.000186
C125	C	1.723541	-0.666145	-0.117682
C126	C	1.715777	-0.694812	-0.000176
H127	H	1.801703	-0.652683	-0.117681
H128	H	1.718263	-0.685591	-0.197374
H129	H	1.655931	-0.640714	-0.117666
H130	H	1.783382	-0.720245	-0.000197
H131	H	1.721068	-0.675365	0.079538
C132	C	1.910294	-0.090932	0.557344
C133	C	1.834778	-0.062359	0.650879
H134	H	1.968684	-0.113026	0.606160
H135	H	1.858371	-0.108504	0.501233
H136	H	1.955059	-0.070642	0.501219
H137	H	1.790006	-0.082649	0.706997
H138	H	1.886709	-0.044786	0.707013
H139	H	1.680533	-0.791950	-0.000184
H140	H	0.802938	0.237665	-0.000226
H141	H	1.696787	-0.176781	-0.000123
C142	C	1.181561	-0.066038	0.117419
C143	C	1.251238	-0.057105	-0.000079
H144	H	1.104314	-0.045279	0.117411
H145	H	1.164277	-0.098902	0.117407
H146	H	1.228833	-0.059984	0.197125
H147	H	1.203970	-0.063162	-0.079786
H148	H	1.268519	-0.024233	-0.000080
H149	H	1.654192	0.006006	0.238835
C150	C	1.029248	-0.311735	-0.000163
C151	C	1.130614	-0.283669	-0.000160
H152	H	0.951989	-0.290983	-0.000152
H153	H	1.033500	-0.331619	-0.079873
H154	H	1.033500	-0.331631	0.079549
H155	H	1.126367	-0.263775	-0.079878
H156	H	1.126359	-0.263777	0.079558
C157	C	1.843869	-0.452125	-0.117661
C158	C	1.837612	-0.422808	-0.000158
H159	H	1.921142	-0.472868	-0.117660
H160	H	1.775110	-0.471162	-0.117650
H161	H	1.839620	-0.432223	-0.197364
H162	H	1.841852	-0.442710	0.079545
H163	H	1.906390	-0.403769	-0.000156
H164	H	1.281258	-0.157300	-0.000057
H165	H	1.156652	-0.535123	-0.000160
H166	H	1.265026	-0.772447	-0.000146
H167	H	1.803591	-0.473893	-0.000170
H168	H	1.801162	-0.565369	-0.000187
H169	H	1.159070	-0.443660	-0.000153
H170	H	1.654169	0.005981	0.760917
