data_functionalizedCrystal
_audit_creation_method	'MofGen! by Chris Wilmer'
_symmetry_space_group_name_H-M	'P1'
_symmetry_Int_Tables_number	1
_symmetry_cell_setting	triclinic
loop_
_symmetry_equiv_pos_as_xyz
  x,y,z
_cell_length_a	14.560438
_cell_length_b	23.196402
_cell_length_c	14.560438
_cell_angle_alpha	60.002038
_cell_angle_beta	90.001994
_cell_angle_gamma	60.000805
loop_
_atom_site_label
_atom_site_type_symbol
_atom_site_fract_x
_atom_site_fract_y
_atom_site_fract_z
Zr1	Zr	0.884795	0.630987	-0.120453
O2	O	0.738149	0.751254	-0.267097
O3	O	0.929746	0.510722	-0.075504
O4	O	0.929749	0.630987	-0.267099
O5	O	0.738148	0.630989	0.075637
O6	O	1.080890	0.630985	-0.267094
O7	O	0.738146	0.630989	-0.075502
O8	O	1.080884	0.415852	0.075634
O9	O	0.738154	0.846122	-0.267090
O10	O	1.061716	0.560187	-0.056324
O11	O	0.948922	0.560188	0.056466
O12	O	0.948926	0.701785	-0.169112
O13	O	0.836132	0.701786	-0.056321
Zr14	Zr	1.125850	0.630984	0.120605
Zr15	Zr	1.125847	0.630985	-0.120445
Zr16	Zr	0.884797	0.630987	0.120597
Zr17	Zr	0.884801	0.782290	-0.120443
Zr18	Zr	1.125843	0.479682	0.120595
O19	O	1.080899	0.751250	0.075657
O20	O	1.080895	0.751250	-0.267086
O21	O	0.738153	0.751254	0.075645
O22	O	1.272495	0.510717	0.267249
O23	O	1.272491	0.510718	-0.075493
O24	O	0.929750	0.510721	0.267238
O25	O	1.272496	0.630983	-0.075485
O26	O	1.080896	0.630985	0.267251
O27	O	0.929755	0.630987	0.267246
O28	O	1.272498	0.630983	0.075655
O29	O	0.929758	0.846119	-0.267084
O30	O	1.080886	0.415852	0.267236
O31	O	1.272491	0.415850	0.267243
O32	O	1.272489	0.415850	0.075640
O33	O	0.738156	0.846122	-0.075488
O34	O	0.929760	0.846119	-0.075481
O35	O	1.061719	0.560187	0.169264
O36	O	1.174512	0.560186	0.056474
O37	O	1.061722	0.701784	-0.056314
O38	O	0.948929	0.701785	0.056476
C39	C	1.005314	0.441730	0.000063
C40	C	1.005311	0.377498	0.000059
C41	C	1.064180	0.347327	-0.058821
C42	C	1.064191	0.286966	-0.058812
C43	C	1.005311	0.256790	0.000062
C44	C	0.946439	0.286965	0.058954
C45	C	0.946439	0.347319	0.058953
C46	C	0.906689	0.194762	-0.008344
C47	C	0.906686	0.134412	-0.008351
C48	C	1.005312	0.070635	0.000073
C49	C	1.103941	0.067222	0.008481
C50	C	1.103941	0.127576	0.008479
C51	C	1.005305	0.191345	0.000071
C52	C	1.064199	-0.024987	-0.058799
C53	C	1.064213	-0.085353	-0.058782
C54	C	0.946450	-0.085347	0.058976
C55	C	0.946446	-0.024988	0.058966
C56	C	1.005318	0.005191	0.000073
C57	C	0.703802	0.630989	0.000066
C58	C	0.601469	0.630991	0.000063
C59	C	0.553385	0.630992	-0.083199
C60	C	0.457239	0.630984	-0.083184
C61	C	0.457268	0.630977	0.083360
C62	C	0.553417	0.630979	0.083348
C63	C	0.601438	0.631003	-0.166485
C64	C	0.553353	0.631006	-0.249754
C65	C	0.457207	0.630998	-0.249739
C66	C	0.409146	0.630988	-0.166455
C67	C	1.306842	0.630982	0.000086
C68	C	1.409175	0.630981	0.000089
C69	C	1.005319	0.630986	-0.301441
C70	C	1.005318	0.630986	-0.403773
C71	C	1.005331	0.820242	0.000089
C72	C	1.005333	0.884474	0.000093
C73	C	0.946452	0.704899	-0.606877
C74	C	0.946443	0.704900	-0.510726
C75	C	1.064195	0.557067	-0.392972
C76	C	1.064196	0.557067	-0.489123
C77	C	0.887583	0.778818	-0.713829
C78	C	0.828704	0.852738	-0.724637
C79	C	0.828695	0.852738	-0.628485
C80	C	0.887566	0.778819	-0.521527
C81	C	1.005326	0.630986	0.301593
C82	C	1.005327	0.630986	0.403925
C83	C	1.306834	0.441726	0.000073
C84	C	1.409164	0.377493	0.000072
C85	C	1.005317	0.441730	0.301580
C86	C	1.005316	0.377498	0.403908
C87	C	1.306837	0.441726	0.301590
C88	C	1.409169	0.377493	0.403921
C89	C	0.703807	0.820246	-0.301438
C90	C	0.601476	0.884479	-0.403769
C91	C	0.703811	0.820246	0.000079
C92	C	0.601481	0.884479	0.000080
C93	C	1.005327	0.820242	-0.301428
C94	C	1.005329	0.884474	-0.403756
C95	C	1.398341	0.347329	-0.058818
C96	C	1.494482	0.286984	-0.058841
C97	C	1.601445	0.256799	0.000032
C98	C	1.612266	0.286969	0.058924
C99	C	1.516126	0.347317	0.058940
C100	C	1.064193	0.347333	0.510851
C101	C	1.064188	0.286989	0.607008
C102	C	1.005310	0.256806	0.596219
C103	C	0.946425	0.286977	0.489265
C104	C	0.946425	0.347324	0.393110
C105	C	1.516112	0.347328	0.393102
C106	C	1.612272	0.286982	0.489243
C107	C	1.601487	0.256799	0.596203
C108	C	1.494533	0.286970	0.607021
C109	C	1.398375	0.347319	0.510880
C110	C	0.494533	0.914651	-0.392949
C111	C	0.398372	0.975016	-0.489091
C112	C	0.409157	1.005202	-0.596051
C113	C	0.516112	0.975027	-0.606869
C114	C	0.612270	0.914668	-0.510728
C115	C	0.612304	0.914649	0.058960
C116	C	0.516163	0.975011	0.058957
C117	C	0.409200	1.005198	0.000080
C118	C	0.398379	0.975025	-0.058807
C119	C	0.494519	0.914668	-0.058810
C120	C	1.064218	0.914638	-0.392931
C121	C	1.064241	0.974982	-0.489069
C122	C	1.005368	1.005166	-0.596032
C123	C	0.946478	0.974997	-0.606854
C124	C	0.946461	0.914649	-0.510717
H125	H	1.112140	-0.000417	-0.106750
F126	F	0.604594	0.630975	0.171969
H127	H	0.330926	1.054344	0.000092
H128	H	0.898545	0.999582	-0.693956
F129	F	1.726090	0.254880	0.477707
H130	H	1.112132	0.262396	-0.106760
F131	F	0.883784	-0.117459	0.121634
H132	H	0.898484	0.371876	0.306036
F133	F	0.306806	1.069441	-0.698364
H134	H	0.887543	0.778826	-0.443238
H135	H	0.311277	0.999612	-0.106743
F136	F	1.126856	0.478400	-0.477626
H137	H	1.524915	0.371894	0.306018
F138	F	0.482983	0.882561	-0.121475
H139	H	1.112143	0.262431	0.694086
F140	F	0.406114	0.630969	0.171989
F141	F	1.527662	0.379409	0.121629
H142	H	1.311300	0.371871	0.519705
H143	H	1.112159	0.890071	-0.305845
H144	H	0.699345	0.890102	-0.519551
H145	H	1.005390	1.054306	-0.674304
F146	F	1.126918	1.007083	-0.477527
F147	F	1.726113	0.254834	0.121580
F148	F	0.883780	0.379430	0.121624
H149	H	0.485730	0.890077	-0.305866
F150	F	0.801716	0.138052	-0.017305
H151	H	0.311295	0.999574	-0.480261
F152	F	1.126870	-0.117461	-0.121456
H153	H	1.005319	0.207668	0.674524
F154	F	0.883770	0.882559	-0.522255
F155	F	1.126840	0.379441	-0.121499
F156	F	1.482942	0.254883	-0.121520
F157	F	0.883786	0.007125	0.121632
H158	H	0.887586	0.778826	-0.792127
F159	F	0.703761	0.631015	-0.166510
F160	F	0.406040	0.630991	-0.338352
F161	F	1.208907	0.123941	0.017432
H162	H	0.592494	0.631007	-0.317557
F163	F	0.766041	0.931403	-0.838467
F164	F	0.306826	0.630970	-0.166437
H165	H	0.826364	0.246699	-0.015227
F166	F	1.126867	0.379442	0.522359
F167	F	0.766014	0.931408	-0.639989
F168	F	0.726133	0.882535	0.121626
H169	H	1.112125	0.496885	-0.305882
H170	H	1.679794	0.207659	0.674478
H171	H	0.524880	0.999613	-0.693967
H172	H	1.679719	0.207659	0.000011
F173	F	0.527703	1.007110	0.121639
F174	F	1.208914	-0.000650	0.017442
H175	H	1.311255	0.371905	-0.106773
F176	F	0.883782	0.254844	0.121619
F177	F	0.883768	0.254845	0.477800
F178	F	1.483072	0.254839	0.720865
