data_functionalizedCrystal
_audit_creation_method	'MofGen! by Chris Wilmer'
_symmetry_space_group_name_H-M	'P1'
_symmetry_Int_Tables_number	1
_symmetry_cell_setting	triclinic
loop_
_symmetry_equiv_pos_as_xyz
  x,y,z
_cell_length_a	10.908937
_cell_length_b	14.044220
_cell_length_c	9.482900
_cell_angle_alpha	100.188801
_cell_angle_beta	83.036371
_cell_angle_gamma	76.637417
loop_
_atom_site_label
_atom_site_type_symbol
_atom_site_fract_x
_atom_site_fract_y
_atom_site_fract_z
O1	O	1.705363	-0.161474	-0.120930
O2	O	2.205363	0.338526	0.379070
O3	O	1.339830	-0.088769	-0.120927
O4	O	1.839830	0.411231	0.379073
O5	O	1.517108	-0.262239	-0.120914
O6	O	2.017108	0.237761	0.379086
O7	O	1.528085	0.011996	-0.120943
O8	O	2.028085	0.511996	0.379057
O9	O	1.481112	-0.226887	0.120876
O10	O	1.981112	0.273113	0.620876
O11	O	1.303834	-0.053416	0.120863
O12	O	1.803834	0.446584	0.620863
O13	O	1.669367	-0.126122	0.120860
O14	O	2.169367	0.373878	0.620860
Cu15	Cu	1.483314	-0.086541	0.142939
Cu16	Cu	1.983314	0.413459	0.642939
Cu17	Cu	1.525883	-0.128349	-0.143006
Cu18	Cu	2.025883	0.371651	0.356994
O19	O	1.492090	0.047349	0.120847
O20	O	1.992090	0.547349	0.620847
C21	C	1.274769	-0.064298	-0.000031
C22	C	1.774769	0.435702	0.499969
C23	C	1.134535	-0.044063	-0.000030
C24	C	1.634535	0.455937	0.499970
C25	C	0.932134	-0.096995	-0.000050
C26	C	1.432134	0.403005	0.499950
C27	C	1.077069	-0.117907	-0.000030
C28	C	1.577069	0.382093	0.499970
C29	C	1.494306	-0.279120	-0.000019
C30	C	1.994306	0.220880	0.499981
C31	C	1.479978	-0.382087	-0.000017
C32	C	1.979978	0.117913	0.499983
C33	C	1.453788	-0.570623	-0.000037
C34	C	1.953788	-0.070623	0.499963
C35	C	1.555406	-0.644274	-0.000043
C36	C	2.055406	-0.144274	0.499957
C37	C	1.540833	-0.749182	-0.000054
C38	C	2.040833	-0.249182	0.499946
C39	C	1.468359	-0.465705	-0.000026
C40	C	1.968359	0.034295	0.499974
C41	C	1.734429	-0.150593	-0.000039
C42	C	2.234429	0.349407	0.499961
C43	C	1.874664	-0.170829	-0.000051
C44	C	2.374664	0.329171	0.499949
C45	C	1.514891	0.064229	-0.000052
C46	C	2.014891	0.564229	0.499948
C47	C	1.529221	0.167195	-0.000063
C48	C	2.029221	0.667195	0.499937
N49	N	1.453382	-0.057138	0.344057
N50	N	1.953382	0.442862	0.844057
N51	N	1.555824	-0.157762	-0.344124
N52	N	2.055824	0.342238	0.155876
C53	C	1.517045	-0.119680	0.416260
C54	C	2.017045	0.380320	0.916260
C55	C	1.492152	-0.095210	0.583676
C56	C	1.992152	0.404790	1.083676
H57	H	1.135165	-0.196608	-0.000024
H58	H	1.635165	0.303392	0.499976
C59	C	1.237455	-0.532681	0.124267
C60	C	1.737455	-0.032681	0.624267
C61	C	1.321569	-0.591849	-0.000033
C62	C	1.821569	-0.091849	0.499967
H63	H	1.155828	-0.545790	0.124265
H64	H	1.655828	-0.045790	0.624265
H65	H	1.269436	-0.548179	0.208563
H66	H	1.769436	-0.048179	0.708563
H67	H	1.230040	-0.463944	0.124258
H68	H	1.730040	0.036056	0.624258
H69	H	1.328992	-0.660587	-0.000018
H70	H	1.828992	-0.160587	0.499982
H71	H	1.289580	-0.576358	-0.084351
H72	H	1.789580	-0.076358	0.415649
C73	C	1.720706	-0.587316	-0.124305
C74	C	2.220706	-0.087316	0.375695
C75	C	1.687627	-0.623041	-0.000023
C76	C	2.187627	-0.123041	0.499977
H77	H	1.802326	-0.574199	-0.124281
H78	H	2.302326	-0.074199	0.375719
H79	H	1.723376	-0.636192	-0.208613
H80	H	2.223376	-0.136192	0.291387
H81	H	1.658855	-0.527319	-0.124290
H82	H	2.158855	-0.027319	0.375710
H83	H	1.749473	-0.683043	-0.000043
H84	H	2.249473	-0.183043	0.499957
H85	H	1.684966	-0.574162	0.084307
H86	H	2.184966	-0.074162	0.584307
H87	H	1.628758	-0.229430	0.593757
H88	H	2.128758	0.270570	1.093757
H89	H	1.589975	-0.191344	0.354138
H90	H	2.089975	0.308656	0.854138
C91	C	1.339571	0.054684	0.568749
C92	C	1.839571	0.554684	1.068749
C93	C	1.393680	0.001535	0.667521
C94	C	1.893680	0.501535	1.167521
H95	H	1.278774	0.114405	0.620515
H96	H	1.778774	0.614405	1.120515
H97	H	1.404822	0.071149	0.509372
H98	H	1.904822	0.571149	1.009372
H99	H	1.298401	0.014546	0.509388
H100	H	1.798401	0.514546	1.009388
H101	H	1.434858	0.041670	0.726876
H102	H	1.934858	0.541670	1.226876
H103	H	1.328418	-0.014928	0.726923
H104	H	1.828418	0.485072	1.226923
C105	C	0.725314	0.009397	-0.000078
C106	C	1.225314	0.509397	0.499922
C107	C	0.853715	0.009244	-0.000065
C108	C	1.353715	0.509244	0.499935
H109	H	0.676905	0.074988	-0.000077
H110	H	1.176905	0.574988	0.499923
H111	H	0.718535	-0.035662	-0.084392
H112	H	1.218535	0.464338	0.415608
H113	H	0.693417	-0.011017	0.084244
H114	H	1.193417	0.488983	0.584244
H115	H	0.885615	0.029650	-0.084392
H116	H	1.385615	0.529650	0.415608
H117	H	0.860500	0.054318	0.084258
H118	H	1.360500	0.554318	0.584258
C119	C	1.103186	0.092244	-0.124351
C120	C	1.603186	0.592244	0.375649
C121	C	1.056126	0.062181	-0.000054
C122	C	1.556126	0.562181	0.499946
H123	H	1.054774	0.157831	-0.124367
H124	H	1.554774	0.657831	0.375633
H125	H	1.190286	0.092126	-0.124326
H126	H	1.690286	0.592126	0.375674
H127	H	1.096392	0.047169	-0.208658
H128	H	1.596392	0.547169	0.291342
H129	H	1.062929	0.107252	0.084254
H130	H	1.562929	0.607252	0.584254
H131	H	0.969004	0.062306	-0.000065
H132	H	1.469004	0.562306	0.499935
C133	C	1.081482	-0.277219	-0.000010
C134	C	1.581482	0.222781	0.499990
C135	C	0.953082	-0.277067	-0.000028
C136	C	1.453082	0.222933	0.499972
H137	H	1.129888	-0.342807	0.000012
H138	H	1.629888	0.157193	0.500012
H139	H	1.113383	-0.256816	-0.084325
H140	H	1.613383	0.243184	0.415675
H141	H	1.088254	-0.232147	0.084311
H142	H	1.588254	0.267853	0.584311
H143	H	0.946308	-0.322133	-0.084356
H144	H	1.446308	0.177867	0.415644
H145	H	0.921172	-0.297482	0.084295
H146	H	1.421172	0.202518	0.584295
H147	H	1.380443	0.014521	0.406181
H148	H	1.880443	0.514521	0.906181
