data_functionalizedCrystal
_audit_creation_method	'MofGen! by Chris Wilmer'
_symmetry_space_group_name_H-M	'P1'
_symmetry_Int_Tables_number	1
_symmetry_cell_setting	triclinic
loop_
_symmetry_equiv_pos_as_xyz
  x,y,z
_cell_length_a	10.908937
_cell_length_b	15.995292
_cell_length_c	9.482900
_cell_angle_alpha	99.335510
_cell_angle_beta	83.036371
_cell_angle_gamma	71.777286
loop_
_atom_site_label
_atom_site_type_symbol
_atom_site_fract_x
_atom_site_fract_y
_atom_site_fract_z
O1	O	1.723909	-0.145225	-0.120950
O2	O	1.350025	-0.079836	-0.120938
O3	O	1.547227	-0.235850	-0.120947
O4	O	1.526707	0.010789	-0.120942
O5	O	1.507171	-0.204056	0.120848
O6	O	1.309969	-0.048041	0.120856
O7	O	1.683853	-0.113430	0.120844
Cu8	Cu	1.493254	-0.077833	0.142928
Cu9	Cu	1.540625	-0.115434	-0.143022
O10	O	1.486651	0.042584	0.120853
C11	C	1.282154	-0.057828	-0.000039
C12	C	1.139596	-0.039629	-0.000035
C13	C	0.943274	-0.087235	-0.000062
C14	C	1.090611	-0.106043	-0.000045
C15	C	1.526364	-0.251033	-0.000053
C16	C	1.523862	-0.343639	-0.000064
C17	C	1.514656	-0.680094	-0.000050
C18	C	1.656901	-0.676530	0.000485
C19	C	1.659697	-0.580303	-0.000065
C20	C	1.519224	-0.513174	-0.000056
C21	C	1.470937	-0.550523	-0.138126
C22	C	1.469242	-0.647089	-0.138236
C23	C	1.420784	-0.610385	0.136729
C24	C	1.425757	-0.514387	0.138549
C25	C	1.521799	-0.418838	-0.000065
C26	C	1.512079	-0.774431	-0.000052
C27	C	1.751725	-0.135439	-0.000058
C28	C	1.894284	-0.153639	-0.000072
C29	C	1.507514	0.057766	-0.000044
C30	C	1.510018	0.150370	-0.000043
N31	N	1.459945	-0.051388	0.344049
N32	N	1.573944	-0.141887	-0.344144
C33	C	1.530791	-0.107637	0.416245
C34	C	1.503087	-0.085629	0.583664
H35	H	1.699032	-0.556024	0.098906
H36	H	1.727770	-0.726091	-0.097979
Cl37	Cl	1.699539	-0.241260	0.559947
H38	H	1.157746	-0.176823	-0.000049
H39	H	1.695360	-0.699146	0.099500
Cl40	Cl	1.035960	0.069650	-0.000050
Cl41	Cl	0.997930	-0.262915	-0.000075
H42	H	1.368417	-0.504936	-0.143253
H43	H	1.732182	-0.582742	-0.099216
Cl44	Cl	1.377760	0.013880	0.679578
Cl45	Cl	1.571738	-0.720046	-0.297586
Cl46	Cl	1.334623	0.048117	0.439969
H47	H	0.876139	-0.016461	-0.000076
Cl48	Cl	1.309727	-0.648397	-0.147913
H49	H	1.537375	-0.550855	-0.240883
H50	H	1.448270	-0.630953	0.241386
Cl51	Cl	1.479617	-0.476116	0.296255
Cl52	Cl	1.265317	-0.439752	0.151435
H53	H	1.315860	-0.609664	0.137666
Cl54	Cl	1.655816	-0.207292	0.320327
