data_functionalizedCrystal
_audit_creation_method	'MofGen! by Chris Wilmer'
_symmetry_space_group_name_H-M	'P1'
_symmetry_Int_Tables_number	1
_symmetry_cell_setting	triclinic
loop_
_symmetry_equiv_pos_as_xyz
  x,y,z
_cell_length_a	18.101398
_cell_length_b	18.101397
_cell_length_c	16.625539
_cell_angle_alpha	90.031854
_cell_angle_beta	90.026387
_cell_angle_gamma	90.018196
loop_
_atom_site_label
_atom_site_type_symbol
_atom_site_fract_x
_atom_site_fract_y
_atom_site_fract_z
Zn1	Zn	1.132187	-0.294873	0.456015
Zn2	Zn	1.132103	-0.418722	0.321173
Zn3	Zn	1.008343	-0.294894	0.321181
Zn4	Zn	1.008320	-0.418672	0.455950
O5	O	1.070238	-0.356790	0.388580
O6	O	1.235809	-0.311314	0.438151
O7	O	1.115660	-0.402326	0.208342
O8	O	1.024816	-0.191258	0.339098
O9	O	1.235747	-0.402305	0.339084
O10	O	1.115804	-0.191243	0.438159
O11	O	1.024734	-0.311350	0.208348
O12	O	0.904707	-0.311301	0.339035
O13	O	1.024777	-0.402221	0.568791
O14	O	0.904690	-0.402241	0.438049
O15	O	1.115782	-0.311266	0.568838
O16	O	1.115638	-0.522348	0.339021
O17	O	1.024695	-0.522312	0.438041
C18	C	0.877828	-0.356769	0.388536
C19	C	0.795514	-0.356777	0.388536
C20	C	0.644805	-0.356792	0.388573
C21	C	0.613437	-0.299494	0.326380
C22	C	0.527819	-0.299278	0.326584
C23	C	0.496423	-0.356807	0.388607
C24	C	0.527561	-0.335973	0.473679
C25	C	0.613206	-0.335549	0.473300
C26	C	0.613215	-0.435073	0.366443
C27	C	0.527564	-0.434661	0.364590
C28	C	0.412563	-0.356817	0.388632
C29	C	0.728665	-0.356781	0.388554
C30	C	1.070175	-0.549201	0.388541
C31	C	1.070216	-0.631515	0.388551
C32	C	1.070310	-0.930606	0.388625
C33	C	1.127369	-0.899273	0.326157
C34	C	1.127567	-0.813654	0.326319
C35	C	1.070263	-0.782223	0.388587
C36	C	1.091421	-0.813230	0.473580
C37	C	1.091863	-0.898875	0.473240
C38	C	0.991941	-0.899112	0.366835
C39	C	0.992328	-0.813463	0.364938
C40	C	1.070235	-0.698364	0.388572
C41	C	1.070340	-1.014465	0.388646
C42	C	1.263400	-0.356813	0.388624
C43	C	1.345714	-0.356822	0.388643
C44	C	1.070286	-0.356735	0.598889
C45	C	1.070307	-0.356712	0.688510
C46	C	1.070322	-0.163628	0.388637
C47	C	1.070358	-0.081314	0.388661
C48	C	1.070233	-0.356792	0.179089
C49	C	1.070356	-0.356607	0.089468
C50	C	1.070341	-0.356629	1.016686
C51	C	1.070330	-0.356654	0.925377
C52	C	1.070324	-0.356671	0.852601
C53	C	1.070312	-0.356695	0.761286
H54	H	0.634975	-0.241817	0.340883
C55	C	1.169249	-0.925790	0.498161
H56	H	1.200123	-0.884383	0.508394
H57	H	1.165485	-0.954989	0.545441
H58	H	1.189891	-0.954593	0.456010
H59	H	0.506763	-0.312276	0.263515
C60	C	0.641210	-0.316830	0.240898
H61	H	0.672189	-0.359165	0.242370
H62	H	0.600212	-0.326160	0.206679
H63	H	0.668383	-0.275860	0.220915
C64	C	0.640631	-0.492743	0.427620
H65	H	0.671181	-0.469270	0.466461
H66	H	0.599469	-0.514753	0.453711
H67	H	0.668177	-0.529778	0.400426
H68	H	1.052124	-0.919599	0.521387
C69	C	0.641248	-0.389494	0.538067
H70	H	0.600295	-0.411566	0.564498
H71	H	0.670389	-0.426835	0.513477
H72	H	0.670349	-0.363349	0.576196
H73	H	1.051133	-0.792868	0.521375
C74	C	0.500092	-0.390626	0.538017
H75	H	0.469312	-0.426720	0.513509
H76	H	0.541224	-0.414236	0.562468
H77	H	0.472776	-0.364638	0.577761
H78	H	0.507346	-0.241277	0.341276
H79	H	1.148064	-0.791724	0.492348
H80	H	0.972693	-0.920773	0.305933
C81	C	0.498700	-0.495391	0.421289
H82	H	0.467142	-0.473964	0.460530
H83	H	0.471928	-0.531005	0.391051
H84	H	0.539228	-0.518661	0.447283
C85	C	0.970768	-0.786092	0.280447
H86	H	1.009095	-0.755749	0.259665
H87	H	0.963580	-0.827282	0.245886
H88	H	0.926330	-0.758342	0.283668
C89	C	1.205986	-0.785899	0.345801
H90	H	1.237845	-0.826967	0.353655
H91	H	1.223747	-0.756777	0.302403
H92	H	1.204748	-0.756838	0.393380
H93	H	0.633200	-0.278337	0.492004
H94	H	0.634778	-0.454098	0.305444
C95	C	0.500063	-0.455898	0.280014
H96	H	0.469726	-0.417486	0.259421
H97	H	0.541201	-0.462965	0.245403
H98	H	0.472279	-0.500342	0.283045
C99	C	0.931803	-0.784572	0.421897
H100	H	0.953369	-0.752943	0.461024
H101	H	0.896072	-0.757871	0.391807
H102	H	0.908638	-0.825084	0.448016
C103	C	1.109694	-0.785334	0.241184
H104	H	1.102250	-0.826173	0.206187
H105	H	1.066144	-0.756106	0.242819
H106	H	1.149678	-0.756262	0.222015
H107	H	0.949427	-0.919375	0.412332
C108	C	0.498619	-0.259540	0.499394
H109	H	0.467568	-0.240223	0.458406
H110	H	0.471292	-0.264170	0.547897
H111	H	0.539148	-0.227065	0.507726
H112	H	1.185104	-0.920743	0.340409
C113	C	1.109782	-0.927260	0.240786
H114	H	1.067479	-0.958298	0.242469
H115	H	1.100318	-0.886367	0.206515
H116	H	1.150719	-0.954424	0.220715
