data_functionalizedCrystal
_audit_creation_method	'MofGen! by Chris Wilmer'
_symmetry_space_group_name_H-M	'P1'
_symmetry_Int_Tables_number	1
_symmetry_cell_setting	triclinic
loop_
_symmetry_equiv_pos_as_xyz
  x,y,z
_cell_length_a	11.026607
_cell_length_b	13.339070
_cell_length_c	9.482900
_cell_angle_alpha	101.886775
_cell_angle_beta	101.363848
_cell_angle_gamma	67.892344
loop_
_atom_site_label
_atom_site_type_symbol
_atom_site_fract_x
_atom_site_fract_y
_atom_site_fract_z
O1	O	-1.776580	0.438084	-0.120889
O2	O	-1.405971	0.386696	-0.120892
O3	O	-1.548741	0.257381	-0.120886
O4	O	-1.633810	0.567399	-0.120894
O5	O	-1.519787	0.283783	0.120905
O6	O	-1.377017	0.413097	0.120900
O7	O	-1.747625	0.464486	0.120902
Cu8	Cu	-1.559677	0.441202	0.142979
Cu9	Cu	-1.593919	0.409979	-0.142968
O10	O	-1.604855	0.593800	0.120897
C11	C	-1.343091	0.390416	0.000004
C12	C	-1.198862	0.362155	0.000003
C13	C	-1.519894	0.230276	0.000007
C14	C	-1.477063	0.110173	0.000001
C15	C	-1.810506	0.460765	0.000004
C16	C	-1.954736	0.489025	-0.000004
C17	C	-1.151330	0.440188	-0.000000
C18	C	-1.002262	0.410981	-0.000002
C19	C	-1.810104	-0.193970	0.000004
C20	C	-1.850350	-0.081127	0.000018
C21	C	-1.757032	-0.033296	0.000014
C22	C	-1.623461	-0.098320	-0.000004
C23	C	-1.583210	-0.211174	-0.000007
C24	C	-1.530137	-0.050500	0.000002
C25	C	-1.396566	-0.115524	-0.000015
C26	C	-1.356322	-0.228366	-0.000019
C27	C	-1.449641	-0.276197	-0.000014
C28	C	-1.570388	0.062354	0.000005
C29	C	-1.343493	0.045150	-0.000006
C30	C	-1.303248	-0.067693	-0.000020
C31	C	-1.633702	0.620905	0.000000
C32	C	-1.676535	0.741007	-0.000003
N33	N	-1.535603	0.463164	0.344098
N34	N	-1.618001	0.388011	-0.344087
C35	C	-1.586807	0.416450	0.416299
C36	C	-1.566789	0.434732	0.583716
H37	H	-1.220995	0.528618	0.000006
H38	H	-1.508121	0.488260	0.645838
C39	C	-1.717314	0.133866	0.000014
N40	N	-1.827987	0.187728	0.000016
C41	C	-1.156319	-0.139232	-0.000019
N42	N	-1.045652	-0.193115	-0.000013
C43	C	-1.048840	0.608498	-0.000009
N44	N	-1.119720	0.698484	-0.000015
C45	C	-1.997273	-0.009609	0.000036
N46	N	-2.107944	0.044259	0.000048
H47	H	-0.932604	0.322542	-0.000036
C48	C	-1.912737	-0.246591	0.000020
N49	N	-1.990047	-0.286226	0.000032
C50	C	-1.104752	0.242688	0.000006
N51	N	-1.033869	0.152703	0.000006
H52	H	-1.789808	0.058587	0.000025
C53	C	-1.456350	0.535476	0.428025
N54	N	-1.396655	0.589943	0.491237
H55	H	-1.267505	0.084094	-0.000003
C56	C	-1.666026	0.344111	0.332372
N57	N	-1.725687	0.289617	0.269160
H58	H	-1.676657	0.334474	0.593791
C59	C	-1.405374	-0.400330	-0.000012
N60	N	-1.372036	-0.493827	-0.000004
H61	H	-1.247559	-0.281305	-0.000023
