data_functionalizedCrystal
_audit_creation_method	'MofGen! by Chris Wilmer'
_symmetry_space_group_name_H-M	'P1'
_symmetry_Int_Tables_number	1
_symmetry_cell_setting	triclinic
loop_
_symmetry_equiv_pos_as_xyz
  x,y,z
_cell_length_a	19.121102
_cell_length_b	21.295417
_cell_length_c	21.295412
_cell_angle_alpha	89.968813
_cell_angle_beta	87.544905
_cell_angle_gamma	87.584620
loop_
_atom_site_label
_atom_site_type_symbol
_atom_site_fract_x
_atom_site_fract_y
_atom_site_fract_z
Zn1	Zn	1.073671	-0.291740	-0.396909
Zn2	Zn	1.407004	0.041593	-0.063576
Zn3	Zn	1.740337	0.374926	0.269758
Zn4	Zn	1.073578	-0.397006	-0.291631
Zn5	Zn	1.406912	-0.063673	0.041702
Zn6	Zn	1.740245	0.269660	0.375036
Zn7	Zn	0.956227	-0.287261	-0.287170
Zn8	Zn	1.289560	0.046073	0.046164
Zn9	Zn	1.622894	0.379406	0.379497
Zn10	Zn	0.956176	-0.392476	-0.392380
Zn11	Zn	1.289510	-0.059143	-0.059046
Zn12	Zn	1.622843	0.274191	0.274287
O13	O	1.014913	-0.342121	-0.342022
O14	O	1.348246	-0.008787	-0.008689
O15	O	1.681580	0.324546	0.324644
O16	O	1.171942	-0.309475	-0.386706
O17	O	1.505275	0.023859	-0.053373
O18	O	1.838609	0.357192	0.279960
O19	O	1.057994	-0.382469	-0.202949
O20	O	1.391327	-0.049136	0.130384
O21	O	1.724661	0.284197	0.463718
O22	O	0.971866	-0.199768	-0.301755
O23	O	1.305199	0.133566	0.031578
O24	O	1.638533	0.466899	0.364911
O25	O	1.171874	-0.386813	-0.309359
O26	O	1.505208	-0.053480	0.023974
O27	O	1.838541	0.279853	0.357308
O28	O	1.058151	-0.203059	-0.382380
O29	O	1.391485	0.130274	-0.049047
O30	O	1.724818	0.463608	0.284286
O31	O	0.971777	-0.301840	-0.199671
O32	O	1.305110	0.031494	0.133662
O33	O	1.638443	0.364827	0.466995
O34	O	0.857936	-0.297447	-0.297363
O35	O	1.191270	0.035886	0.035970
O36	O	1.524603	0.369220	0.369303
O37	O	0.971779	-0.379092	-0.481071
O38	O	1.305113	-0.045759	-0.147737
O39	O	1.638446	0.287575	0.185596
O40	O	0.857899	-0.374748	-0.374661
O41	O	1.191232	-0.041415	-0.041327
O42	O	1.524566	0.291919	0.292006
O43	O	1.058102	-0.305082	-0.484398
O44	O	1.391435	0.028251	-0.151065
O45	O	1.724769	0.361585	0.182268
O46	O	1.057945	-0.484492	-0.304967
O47	O	1.391278	-0.151159	0.028366
O48	O	1.724611	0.182174	0.361700
O49	O	0.971690	-0.481164	-0.378987
O50	O	1.305023	-0.147831	-0.045653
O51	O	1.638357	0.185503	0.287680
C52	C	0.832434	-0.335120	-0.335037
C53	C	1.165767	-0.001787	-0.001703
C54	C	1.499101	0.331546	0.331630
C55	C	0.754369	-0.332141	-0.332063
C56	C	1.087702	0.001193	0.001270
C57	C	1.421035	0.334526	0.334603
C58	C	0.717692	-0.371048	-0.370848
C59	C	1.051026	-0.037715	-0.037514
C60	C	1.384359	0.295619	0.295819
C61	C	0.644342	-0.368240	-0.368057
C62	C	0.977675	-0.034907	-0.034723
C63	C	1.311008	0.298427	0.298610
C64	C	0.607668	-0.326527	-0.326478
C65	C	0.941002	0.006806	0.006856
C66	C	1.274335	0.340139	0.340189
C67	C	0.644350	-0.287616	-0.287692
C68	C	0.977683	0.045718	0.045642
C69	C	1.311017	0.379051	0.378975
C70	C	0.717699	-0.290421	-0.290486
C71	C	1.051033	0.042913	0.042847
C72	C	1.384366	0.376246	0.376180
C73	C	0.386201	-0.316038	-0.316033
C74	C	0.719534	0.017296	0.017301
C75	C	1.052868	0.350629	0.350634
C76	C	0.312846	-0.313237	-0.313240
C77	C	0.646180	0.020097	0.020094
C78	C	0.979513	0.353430	0.353427
C79	C	0.312843	-0.393861	-0.393606
C80	C	0.646176	-0.060527	-0.060273
C81	C	0.979510	0.272806	0.273061
C82	C	0.386194	-0.396665	-0.396394
C83	C	0.719527	-0.063332	-0.063061
C84	C	1.052860	0.270002	0.270273
C85	C	0.422869	-0.357751	-0.357610
C86	C	0.756202	-0.024418	-0.024277
C87	C	1.089535	0.308916	0.309056
C88	C	0.532692	-0.323657	-0.323623
C89	C	0.866026	0.009676	0.009711
C90	C	1.199359	0.343009	0.343044
C91	C	0.497844	-0.360618	-0.360469
C92	C	0.831177	-0.027285	-0.027136
C93	C	1.164510	0.306049	0.306197
C94	C	1.014821	-0.505669	-0.341984
C95	C	1.348154	-0.172336	-0.008651
C96	C	1.681488	0.160998	0.324683
C97	C	1.014846	-0.575638	-0.341991
C98	C	1.348179	-0.242305	-0.008658
C99	C	1.681512	0.091029	0.324676
C100	C	1.059799	-0.610218	-0.303492
C101	C	1.393132	-0.276885	0.029842
C102	C	1.726465	0.056448	0.363175
C103	C	1.059832	-0.675962	-0.303507
C104	C	1.393165	-0.342629	0.029826
C105	C	1.726498	-0.009295	0.363159
C106	C	1.014899	-0.707122	-0.342015
C107	C	1.348232	-0.373789	-0.008681
C108	C	1.681566	-0.040456	0.324652
C109	C	0.969943	-0.672534	-0.380522
C110	C	1.303276	-0.339201	-0.047188
C111	C	1.636610	-0.005867	0.286145
C112	C	0.969917	-0.606792	-0.380510
C113	C	1.303250	-0.273458	-0.047177
C114	C	1.636583	0.059875	0.286157
N115	N	0.953459	-0.808035	-0.344462
N116	N	1.286792	-0.474702	-0.011128
N117	N	1.620125	-0.141369	0.322205
N118	N	0.953486	-0.870488	-0.344469
N119	N	1.286819	-0.537154	-0.011136
N120	N	1.620153	-0.203821	0.322197
C121	C	1.014978	-0.905200	-0.342054
C122	C	1.348311	-0.571867	-0.008721
C123	C	1.681644	-0.238533	0.324613
N124	N	1.076443	-0.875101	-0.339618
N125	N	1.409776	-0.541767	-0.006285
N126	N	1.743109	-0.208434	0.327048
N127	N	1.076415	-0.812643	-0.339607
N128	N	1.409748	-0.479309	-0.006274
N129	N	1.743081	-0.145976	0.327059
C130	C	1.014923	-0.778409	-0.342032
C131	C	1.348257	-0.445075	-0.008699
C132	C	1.681590	-0.111742	0.324634
C133	C	1.059970	-1.011068	-0.303569
C134	C	1.393303	-0.677734	0.029764
C135	C	1.726637	-0.344401	0.363097
C136	C	1.060004	-1.076813	-0.303589
C137	C	1.393337	-0.743479	0.029744
C138	C	1.726671	-0.410146	0.363077
C139	C	0.970110	-1.073383	-0.380600
C140	C	1.303443	-0.740050	-0.047267
C141	C	1.636776	-0.406716	0.286066
C142	C	0.970082	-1.007640	-0.380584
C143	C	1.303415	-0.674306	-0.047251
C144	C	1.636748	-0.340973	0.286083
C145	C	1.015011	-0.976486	-0.342065
C146	C	1.348344	-0.643152	-0.008732
C147	C	1.681678	-0.309819	0.324602
C148	C	1.198105	-0.349149	-0.349036
C149	C	1.531438	-0.015816	-0.015702
C150	C	1.864771	0.317518	0.317631
C151	C	1.276170	-0.352144	-0.352024
C152	C	1.609503	-0.018811	-0.018691
C153	C	1.942837	0.314523	0.314642
C154	C	1.014945	-0.342081	-0.506214
C155	C	1.348279	-0.008748	-0.172881
C156	C	1.681612	0.324585	0.160453
C157	C	1.014959	-0.342065	-0.576183
C158	C	1.348293	-0.008731	-0.242849
C159	C	1.681626	0.324602	0.090484
C160	C	1.015025	-0.177935	-0.342075
C161	C	1.348358	0.155399	-0.008742
C162	C	1.681691	0.488732	0.324591
C163	C	1.015072	-0.107968	-0.342098
C164	C	1.348405	0.225365	-0.008765
C165	C	1.681739	0.558698	0.324569
C166	C	1.059974	-0.303430	-1.077377
C167	C	1.393307	0.029903	-0.744044
C168	C	1.726641	0.363236	-0.410710
C169	C	1.059969	-0.303445	-1.011634
C170	C	1.393302	0.029888	-0.678301
C171	C	1.726635	0.363221	-0.344968
C172	C	1.015020	-0.341984	-0.977025
C173	C	1.348353	-0.008650	-0.643691
C174	C	1.681687	0.324683	-0.310358
C175	C	0.970086	-0.380522	-1.008163
C176	C	1.303420	-0.047188	-0.674830
C177	C	1.636753	0.286145	-0.341497
C178	C	0.970098	-0.380510	-1.073905
C179	C	1.303432	-0.047177	-0.740572
C180	C	1.636765	0.286156	-0.407238
N181	N	0.953520	-0.344472	-0.871447
N182	N	1.286853	-0.011139	-0.538114
N183	N	1.620186	0.322195	-0.204781
N184	N	0.953511	-0.344479	-0.808996
N185	N	1.286844	-0.011146	-0.475662
N186	N	1.620177	0.322187	-0.142329
C187	C	1.014983	-0.342022	-0.778948
C188	C	1.348316	-0.008688	-0.445615
C189	C	1.681650	0.324645	-0.112282
N190	N	1.076467	-0.339544	-0.813712
N191	N	1.409800	-0.006211	-0.480379
N192	N	1.743133	0.327123	-0.147045
N193	N	1.076475	-0.339533	-0.876170
N194	N	1.409808	-0.006200	-0.542836
N195	N	1.743142	0.327133	-0.209503
C196	C	1.015003	-0.342001	-0.905738
C197	C	1.348336	-0.008667	-0.572405
C198	C	1.681669	0.324666	-0.239072
C199	C	1.059912	-0.303506	-0.676532
C200	C	1.393245	0.029828	-0.343198
C201	C	1.726578	0.363161	-0.009865
C202	C	1.059907	-0.303525	-0.610788
C203	C	1.393241	0.029808	-0.277454
C204	C	1.726574	0.363142	0.055879
C205	C	0.970019	-0.380598	-0.607318
C206	C	1.303352	-0.047265	-0.273984
C207	C	1.636686	0.286069	0.059349
C208	C	0.970029	-0.380582	-0.673061
C209	C	1.303363	-0.047249	-0.339727
C210	C	1.636696	0.286085	-0.006394
C211	C	1.014975	-0.342032	-0.707664
C212	C	1.348308	-0.008699	-0.374330
C213	C	1.681641	0.324634	-0.040997
C214	C	1.014921	-0.342116	-0.178471
C215	C	1.348255	-0.008783	0.154862
C216	C	1.681588	0.324551	0.488196
C217	C	1.015044	-0.341961	-0.108508
C218	C	1.348377	-0.008627	0.224825
C219	C	1.681710	0.324706	0.558159
H220	H	0.416048	-0.430633	-0.430251
H221	H	0.749381	-0.097300	-0.096917
H222	H	1.082715	0.236033	0.236416
H223	H	0.747560	-0.258735	-0.258907
H224	H	1.080894	0.074599	0.074426
H225	H	1.414227	0.407932	0.407760
H226	H	1.096615	-1.104967	-0.272240
H227	H	1.429948	-0.771634	0.061093
H228	H	1.763281	-0.438300	0.394427
H229	H	0.527706	-0.394578	-0.394325
H230	H	0.861039	-0.061244	-0.060992
H231	H	1.194373	0.272089	0.272341
F232	F	1.107831	-0.262423	-1.114201
F233	F	1.441164	0.070911	-0.780868
F234	F	1.774497	0.404244	-0.447535
H235	H	0.933528	-1.098753	-0.411957
H236	H	1.266861	-0.765420	-0.078623
H237	H	1.600194	-0.432087	0.254710
F238	F	0.493656	-0.279265	-0.279372
F239	F	0.826989	0.054069	0.053961
F240	F	1.160322	0.387402	0.387294
F241	F	0.922233	-0.970835	-0.421558
F242	F	1.255567	-0.637502	-0.088225
F243	F	1.588900	-0.304168	0.245109
H244	H	1.096556	-0.272067	-0.986282
H245	H	1.429889	0.061266	-0.652949
H246	H	1.763223	0.394600	-0.319616
F247	F	0.605318	-0.243217	-0.243444
F248	F	0.938651	0.090116	0.089889
F249	F	1.271985	0.423449	0.423223
H250	H	0.933310	-0.578636	-0.411861
H251	H	1.266643	-0.245302	-0.078528
H252	H	1.599977	0.088031	0.254805
H253	H	0.933490	-0.411901	-0.979980
H254	H	1.266824	-0.078568	-0.646647
H255	H	1.600157	0.254766	-0.313313
F256	F	0.922275	-0.421522	-1.107038
F257	F	1.255609	-0.088189	-0.773704
F258	F	1.588942	0.245145	-0.440371
H259	H	1.096508	-0.272116	-0.704707
H260	H	1.429842	0.061217	-0.371374
H261	H	1.763175	0.394551	-0.038040
H262	H	0.614483	-0.399923	-0.399639
H263	H	0.947816	-0.066590	-0.066305
H264	H	1.281150	0.266743	0.267028
H265	H	1.096500	-0.272151	-0.585442
H266	H	1.429833	0.061182	-0.252109
H267	H	1.763167	0.394516	0.081224
H268	H	0.282974	-0.425541	-0.425182
H269	H	0.616308	-0.092208	-0.091849
H270	H	0.949641	0.241125	0.241485
F271	F	1.107624	-0.577066	-0.262504
F272	F	1.440958	-0.243733	0.070830
F273	F	1.774291	0.089601	0.404163
F274	F	0.425224	-0.274620	-0.274757
F275	F	0.758557	0.058714	0.058576
F276	F	1.091891	0.392047	0.391910
F277	F	0.922187	-0.421620	-0.570488
F278	F	1.255521	-0.088286	-0.237155
F279	F	1.588854	0.245047	0.096179
F280	F	0.756716	-0.415448	-0.415099
F281	F	1.090049	-0.082115	-0.081766
F282	F	1.423383	0.251219	0.251568
H283	H	0.933439	-0.411955	-0.698408
H284	H	1.266773	-0.078622	-0.365074
H285	H	1.600106	0.254712	-0.031741
H286	H	0.282989	-0.279262	-0.279385
H287	H	0.616323	0.054072	0.053948
H288	H	0.949656	0.387405	0.387282
F289	F	0.922126	-0.705698	-0.421507
F290	F	1.255459	-0.372365	-0.088173
F291	F	1.588792	-0.039031	0.245160
H292	H	1.096440	-0.704123	-0.272157
H293	H	1.429773	-0.370790	0.061177
H294	H	1.763107	-0.037456	0.394510
F295	F	1.107787	-0.977909	-0.262574
F296	F	1.441120	-0.644576	0.070759
F297	F	1.774453	-0.311242	0.404092
