data_functionalizedCrystal
_audit_creation_method	'MofGen! by Chris Wilmer'
_symmetry_space_group_name_H-M	'P1'
_symmetry_Int_Tables_number	1
_symmetry_cell_setting	triclinic
loop_
_symmetry_equiv_pos_as_xyz
  x,y,z
_cell_length_a	14.853566
_cell_length_b	13.330367
_cell_length_c	8.559649
_cell_angle_alpha	90.003345
_cell_angle_beta	76.706539
_cell_angle_gamma	90.004705
loop_
_atom_site_label
_atom_site_type_symbol
_atom_site_fract_x
_atom_site_fract_y
_atom_site_fract_z
O1	O	1.181781	0.083353	0.208571
O2	O	0.917584	0.083369	0.233420
O3	O	1.072959	0.083359	-0.011555
O4	O	1.026406	0.083364	0.453546
O5	O	1.072939	-0.083488	-0.011560
O6	O	0.917564	-0.083478	0.233415
O7	O	1.181762	-0.083494	0.208566
Cu8	Cu	1.049661	-0.098720	0.220990
Cu9	Cu	1.049684	0.098596	0.220996
O10	O	1.026387	-0.083484	0.453541
C11	C	0.884064	-0.000052	0.232292
C12	C	0.784216	-0.000046	0.228919
N13	N	1.049651	-0.237502	0.220984
C14	C	0.362040	0.090885	0.214656
C15	C	0.362040	-0.091019	0.214651
C16	C	0.455852	-0.091016	0.217818
C17	C	0.502762	-0.000061	0.219407
C18	C	0.455860	0.090890	0.217828
C19	C	0.502759	-0.181965	0.219413
C20	C	0.596577	-0.181966	0.222583
C21	C	0.643491	-0.091010	0.224160
C22	C	0.596583	-0.000055	0.222579
C23	C	0.643493	0.090899	0.224168
C24	C	0.596589	0.181856	0.222576
C25	C	0.502774	0.181846	0.219406
C26	C	0.737306	-0.091001	0.227331
C27	C	0.737314	0.090905	0.227341
C28	C	0.980885	-0.710120	0.329429
C29	C	1.118509	-0.710098	0.112552
C30	C	1.118499	-0.605079	0.112547
C31	C	1.049682	-0.552576	0.220986
C32	C	0.980874	-0.605092	0.329430
C33	C	1.187311	-0.552556	0.004115
C34	C	1.187305	-0.447531	0.004107
C35	C	1.118482	-0.395026	0.112540
C36	C	1.049671	-0.447548	0.220988
C37	C	0.980854	-0.395046	0.329427
C38	C	0.912038	-0.447566	0.437868
C39	C	0.912052	-0.552588	0.437863
C40	C	1.118469	-0.290005	0.112545
C41	C	0.980844	-0.290018	0.329429
C42	C	1.215282	-0.000070	0.209694
C43	C	1.315129	-0.000070	0.213067
C44	C	1.076477	-0.000063	-0.071079
C45	C	1.086978	-0.000058	-0.248436
N46	N	1.049702	0.237377	0.220989
C47	C	1.022869	-0.000059	0.513066
C48	C	1.012368	-0.000058	0.690423
H49	H	0.775502	0.164973	0.228629
N50	N	0.837843	-0.609226	0.554840
H51	H	0.775145	-0.590970	0.536240
H52	H	0.848376	-0.683706	0.538338
N53	N	1.182243	-0.000065	-0.358815
H54	H	1.217019	-0.061916	-0.338134
H55	H	1.176422	-0.000033	-0.474072
N56	N	1.261521	-0.390888	-0.112848
H57	H	1.305117	-0.440085	-0.181541
H58	H	1.231902	-0.347327	-0.183592
H59	H	0.634794	0.255911	0.223881
H60	H	0.634759	-0.256028	0.223876
H61	H	0.940457	-0.000057	-0.226240
N62	N	1.261525	-0.609166	-0.112872
H63	H	1.324221	-0.590883	-0.094279
H64	H	1.251010	-0.683650	-0.096388
N65	N	0.906622	-0.233388	0.446392
H66	H	0.870944	-0.189822	0.385209
H67	H	0.863096	-0.282657	0.515056
H68	H	0.924854	-0.752885	0.417716
H69	H	0.464576	0.255898	0.218107
N70	N	0.787894	-0.189089	0.229065
H71	H	0.743939	-0.246709	0.227587
H72	H	0.840978	-0.193057	0.131420
H73	H	0.856010	-0.404806	0.526167
N74	N	1.192721	-0.766732	-0.004401
H75	H	1.190189	-0.748465	-0.117823
H76	H	1.255378	-0.748424	0.014332
N77	N	0.311453	0.188979	0.212927
H78	H	0.258365	0.193037	0.310563
H79	H	0.355470	0.246541	0.214356
N80	N	0.311447	-0.189116	0.212955
H81	H	0.244595	-0.175326	0.212894
H82	H	0.341237	-0.228240	0.113441
N83	N	0.452167	-0.280062	0.217718
H84	H	0.385313	-0.266273	0.217671
H85	H	0.481951	-0.319183	0.118196
N86	N	1.192686	-0.233357	-0.004389
H87	H	1.236286	-0.282553	-0.073077
H88	H	1.163074	-0.189793	-0.075138
