data_functionalizedCrystal
_audit_creation_method	'MofGen! by Chris Wilmer'
_symmetry_space_group_name_H-M	'P1'
_symmetry_Int_Tables_number	1
_symmetry_cell_setting	triclinic
loop_
_symmetry_equiv_pos_as_xyz
  x,y,z
_cell_length_a	14.044220
_cell_length_b	14.044220
_cell_length_c	9.730217
_cell_angle_alpha	89.995579
_cell_angle_beta	90.003455
_cell_angle_gamma	93.188878
loop_
_atom_site_label
_atom_site_type_symbol
_atom_site_fract_x
_atom_site_fract_y
_atom_site_fract_z
O1	O	1.277164	0.230166	-0.114149
O2	O	1.000492	0.221860	-0.114184
O3	O	1.134675	0.087677	-0.114153
O4	O	1.142981	0.364348	-0.114180
O5	O	1.134671	0.087675	0.114427
O6	O	1.000488	0.221858	0.114396
O7	O	1.277159	0.230164	0.114431
Zn8	Zn	1.138823	0.226011	0.150706
Zn9	Zn	1.138829	0.226013	-0.150459
O10	O	1.142976	0.364347	0.114400
C11	C	0.964868	0.218223	0.000102
C12	C	0.858725	0.207379	0.000089
C13	C	0.664388	0.187553	0.000118
C14	C	0.613258	0.264467	0.000117
C15	C	0.505122	0.253435	0.000133
C16	C	0.772534	0.198583	0.000102
C17	C	1.131037	0.052054	0.000137
C18	C	1.120193	-0.054088	0.000137
C19	C	1.100366	-0.248426	0.000115
C20	C	1.177281	-0.299556	0.000120
C21	C	1.166249	-0.407692	0.000108
C22	C	1.111397	-0.140280	0.000127
C23	C	1.312783	0.233800	0.000142
C24	C	1.418926	0.244645	0.000146
C25	C	1.146614	0.399969	0.000107
C26	C	1.157459	0.506112	0.000098
N27	N	1.138825	0.226009	0.356242
N28	N	1.138833	0.226008	-0.355995
C29	C	1.257700	0.107232	0.356260
C30	C	1.317144	0.047847	0.428208
C31	C	1.317154	0.047847	0.572088
C32	C	1.257711	0.107237	0.644022
C33	C	1.198267	0.166622	0.572074
C34	C	1.198266	0.166618	0.428191
C35	C	1.079389	0.285393	0.572056
C36	C	1.079383	0.285399	0.428176
C37	C	1.019946	0.344783	0.643991
C38	C	0.960506	0.404174	0.572042
C39	C	0.960499	0.404173	0.428154
C40	C	1.019939	0.344784	0.356228
H41	H	1.251414	-0.262117	0.000037
O42	O	1.012000	-0.293233	0.000170
C43	C	1.020521	-0.392791	0.000130
H44	H	1.093086	-0.409753	0.043401
H45	H	1.013592	-0.420902	-0.109533
C46	C	0.852040	-0.419821	0.036626
C47	C	0.941163	-0.440655	0.089783
H48	H	0.803086	-0.449347	0.091922
H49	H	0.846298	-0.352747	0.036648
H50	H	0.846279	-0.443248	-0.054759
H51	H	0.946927	-0.417218	0.181159
H52	H	0.946904	-0.507726	0.089778
O53	O	1.257873	0.107247	0.216496
C54	C	1.350126	0.134406	0.168431
H55	H	1.404725	0.119634	0.251350
H56	H	1.354321	0.213754	0.142901
C57	C	1.304420	0.094983	-0.063437
C58	C	1.371479	0.076832	0.038401
H59	H	1.317591	0.059473	-0.143649
H60	H	1.242265	0.076689	-0.031057
H61	H	1.307922	0.161108	-0.084695
H62	H	1.367968	0.010710	0.059670
H63	H	1.433634	0.095114	0.006021
H64	H	1.365540	-0.000510	0.369627
O65	O	1.374979	-0.009873	0.641773
C66	C	1.427419	-0.062316	0.547439
H67	H	1.431808	-0.023085	0.444869
H68	H	1.390426	-0.135877	0.532146
C69	C	1.523356	-0.121410	0.729585
C70	C	1.528753	-0.073222	0.603611
H71	H	1.585862	-0.128142	0.764236
H72	H	1.488024	-0.086081	0.793141
H73	H	1.492524	-0.182706	0.716824
H74	H	1.559573	-0.011923	0.616376
H75	H	1.564092	-0.108541	0.540058
O76	O	1.019804	0.344870	0.783755
C77	C	0.954612	0.410038	0.831812
H78	H	0.899142	0.421838	0.748895
H79	H	0.994413	0.480791	0.857329
C80	C	0.972697	0.355216	1.063688
C81	C	0.904562	0.369703	0.961851
H82	H	0.941826	0.330338	1.143905
H83	H	1.016620	0.311313	1.031312
H84	H	1.005859	0.414181	1.084935
H85	H	0.871410	0.310737	0.940593
H86	H	0.860631	0.413595	0.994226
H87	H	0.650697	0.338600	0.000103
H88	H	1.257714	0.107225	0.761177
O89	O	0.902627	0.461750	0.641857
C90	C	0.806811	0.438192	0.606670
H91	H	0.799893	0.361718	0.567110
H92	H	0.783233	0.488727	0.523157
C93	C	0.751839	0.541424	0.783070
C94	C	0.743341	0.447494	0.734493
H95	H	0.712686	0.547166	0.861915
H96	H	0.816392	0.557299	0.806774
H97	H	0.732192	0.583526	0.713464
H98	H	0.762999	0.405396	0.804092
H99	H	0.678789	0.431613	0.710804
H100	H	0.626951	0.113425	0.000133
H101	H	0.912089	0.452527	0.369580
H102	H	1.019942	0.344781	0.239073
