data_functionalizedCrystal
_audit_creation_method	'MofGen! by Chris Wilmer'
_symmetry_space_group_name_H-M	'P1'
_symmetry_Int_Tables_number	1
_symmetry_cell_setting	triclinic
loop_
_symmetry_equiv_pos_as_xyz
  x,y,z
_cell_length_a	11.792241
_cell_length_b	14.044190
_cell_length_c	10.868271
_cell_angle_alpha	89.990065
_cell_angle_beta	89.999893
_cell_angle_gamma	88.692597
loop_
_atom_site_label
_atom_site_type_symbol
_atom_site_fract_x
_atom_site_fract_y
_atom_site_fract_z
O1	O	1.519115	0.129987	-0.102217
O2	O	1.852448	0.463320	0.231116
O3	O	2.185782	0.796654	0.564450
O4	O	1.190032	0.143384	-0.102247
O5	O	1.523365	0.476717	0.231086
O6	O	1.856699	0.810050	0.564420
O7	O	1.349630	-0.001325	-0.102208
O8	O	1.682963	0.332008	0.231125
O9	O	2.016297	0.665342	0.564459
O10	O	1.359517	0.274696	-0.102256
O11	O	1.692851	0.608029	0.231078
O12	O	2.026184	0.941362	0.564411
O13	O	1.349615	-0.001331	0.102436
O14	O	1.682948	0.332003	0.435770
O15	O	2.016282	0.665336	0.769103
O16	O	1.190017	0.143378	0.102398
O17	O	1.523351	0.476711	0.435731
O18	O	1.856684	0.810045	0.769064
O19	O	1.519100	0.129981	0.102428
O20	O	1.852434	0.463315	0.435761
O21	O	2.185767	0.796648	0.769094
Zn22	Zn	1.354556	0.136679	0.134904
Zn23	Zn	1.687890	0.470012	0.468238
Zn24	Zn	2.021223	0.803345	0.801571
Zn25	Zn	1.354576	0.136686	-0.134724
Zn26	Zn	1.687909	0.470020	0.198610
Zn27	Zn	2.021243	0.803353	0.531943
O28	O	1.359502	0.274690	0.102389
O29	O	1.692836	0.608023	0.435722
O30	O	2.026169	0.941357	0.769056
C31	C	1.147655	0.142539	0.000072
C32	C	1.480988	0.475873	0.333405
C33	C	1.814321	0.809206	0.666738
C34	C	1.021404	0.140021	0.000061
C35	C	1.354738	0.473354	0.333395
C36	C	1.688071	0.806687	0.666728
C37	C	1.345297	-0.036664	0.000117
C38	C	1.678630	0.296669	0.333451
C39	C	2.011964	0.630002	0.666784
C40	C	1.332395	-0.141957	0.000127
C41	C	1.665728	0.191377	0.333460
C42	C	1.999062	0.524710	0.666794
C43	C	0.790257	0.135389	0.000097
C44	C	1.123591	0.468722	0.333431
C45	C	1.456924	0.802056	0.666764
C46	C	0.918884	0.137962	0.000078
C47	C	1.252217	0.471296	0.333411
C48	C	1.585551	0.804629	0.666744
C49	C	1.400312	-0.391894	0.000085
C50	C	1.733645	-0.058561	0.333418
C51	C	2.066979	0.274773	0.666752
C52	C	1.308825	-0.334735	0.000085
C53	C	1.642159	-0.001402	0.333418
C54	C	1.975492	0.331931	0.666752
C55	C	1.321943	-0.227463	0.000108
C56	C	1.655276	0.105870	0.333442
C57	C	1.988609	0.439203	0.666775
C58	C	1.387197	-0.499176	0.000062
C59	C	1.720530	-0.165843	0.333395
C60	C	2.053863	0.167491	0.666728
C61	C	1.561478	0.130826	0.000106
C62	C	1.894811	0.464159	0.333440
C63	C	2.228144	0.797492	0.666773
C64	C	1.687728	0.133344	0.000109
C65	C	2.021061	0.466678	0.333442
C66	C	2.354395	0.800011	0.666775
C67	C	1.363835	0.310029	0.000061
C68	C	1.697169	0.643363	0.333394
C69	C	2.030502	0.976696	0.666727
C70	C	1.376737	0.415322	0.000043
C71	C	1.710071	0.748655	0.333376
C72	C	2.043404	1.081988	0.666710
N73	N	1.354551	0.136673	0.318919
N74	N	1.687885	0.470006	0.652252
N75	N	2.021218	0.803340	0.985585
N76	N	1.354589	0.136684	-0.318738
N77	N	1.687923	0.470018	0.014596
N78	N	2.021256	0.803351	0.347929
C79	C	1.354570	0.136684	0.569925
C80	C	1.687903	0.470018	0.903258
C81	C	2.021236	0.803351	1.236591
C82	C	1.354556	0.136681	0.430247
C83	C	1.687889	0.470014	0.763580
C84	C	2.021223	0.803347	1.096914
H85	H	1.220649	-0.366364	0.000070
H86	H	1.553983	-0.033030	0.333403
H87	H	1.887316	0.300303	0.666737
H88	H	1.488481	-0.360267	0.000106
H89	H	1.821814	-0.026934	0.333439
H90	H	2.155148	0.306399	0.666772
