data_functionalizedCrystal
_audit_creation_method	'MofGen! by Chris Wilmer'
_symmetry_space_group_name_H-M	'P1'
_symmetry_Int_Tables_number	1
_symmetry_cell_setting	triclinic
loop_
_symmetry_equiv_pos_as_xyz
  x,y,z
_cell_length_a	19.077312
_cell_length_b	13.033855
_cell_length_c	19.076919
_cell_angle_alpha	94.625887
_cell_angle_beta	85.331053
_cell_angle_gamma	80.847641
loop_
_atom_site_label
_atom_site_type_symbol
_atom_site_fract_x
_atom_site_fract_y
_atom_site_fract_z
Zn1	Zn	1.106337	-0.500460	0.310718
Zn2	Zn	1.125992	-0.668457	0.177882
Zn3	Zn	0.991993	-0.487003	0.198784
Zn4	Zn	1.003420	-0.668414	0.300469
O5	O	1.056935	-0.581083	0.246963
O6	O	1.208094	-0.528395	0.288639
O7	O	1.111660	-0.638773	0.082507
O8	O	0.994153	-0.342560	0.226669
O9	O	1.222535	-0.651821	0.191045
O10	O	1.078161	-0.352446	0.308907
O11	O	1.013212	-0.505460	0.097863
O12	O	0.894358	-0.505418	0.216730
O13	O	1.013628	-0.651748	0.399976
O14	O	0.902753	-0.638700	0.291438
O15	O	1.089241	-0.528353	0.407506
O16	O	1.122740	-0.814680	0.181106
O17	O	1.032687	-0.814648	0.271170
C18	C	0.872847	-0.570595	0.255240
C19	C	0.794095	-0.566133	0.258796
C20	C	0.349991	-0.534054	0.284311
C21	C	0.423989	-0.538265	0.280965
C22	C	0.468490	-0.604518	0.228417
C23	C	0.438990	-0.666572	0.179216
C24	C	0.364994	-0.662366	0.182566
C25	C	0.690600	-0.623981	0.212945
C26	C	0.764600	-0.628180	0.209598
C27	C	0.749594	-0.499874	0.311348
C28	C	0.675597	-0.495670	0.314690
C29	C	0.646104	-0.557728	0.265492
N30	N	0.544127	-0.608822	0.224993
N31	N	0.570468	-0.553429	0.268919
C32	C	1.081105	-0.852581	0.222772
C33	C	1.091509	-0.968734	0.212444
C34	C	1.051560	-1.020533	0.252365
C35	C	1.062312	-1.140584	0.241691
C36	C	1.241742	-0.591614	0.238654
C37	C	1.320496	-0.596101	0.235113
C38	C	1.050517	-0.591547	0.429901
C39	C	1.047781	-0.596006	0.507859
C40	C	1.032690	-0.308527	0.271263
C41	C	1.022358	-0.192380	0.281618
C42	C	1.063363	-0.570588	0.064741
C43	C	1.066209	-0.565842	-0.013196
C44	C	1.085862	-0.533858	0.548405
C45	C	1.083283	-0.538043	0.621655
C46	C	1.042627	-0.604382	0.654357
C47	C	1.004542	-0.666532	0.613806
C48	C	1.007117	-0.662341	0.540558
C49	C	1.030699	-0.623801	0.873005
C50	C	1.028129	-0.627990	0.946258
C51	C	1.106869	-0.499499	0.954103
C52	C	1.109444	-0.495318	0.880852
C53	C	1.071356	-0.557464	0.840308
N54	N	1.039992	-0.608664	0.729230
N55	N	1.073988	-0.553176	0.765437
H56	H	0.639368	-0.441723	0.357483
H57	H	0.666596	-0.674510	0.172883
C58	C	0.813552	-0.701079	0.151802
H59	H	0.785390	-0.737447	0.122986
H60	H	0.839918	-0.660940	0.123544
H61	H	0.845541	-0.749840	0.173226
C62	C	0.965393	-1.132246	0.338468
H63	H	0.941721	-1.180314	0.362125
H64	H	0.987604	-1.092901	0.371596
H65	H	0.931702	-1.086436	0.316747
H66	H	1.104475	-1.185108	0.199607
C67	C	1.148465	-1.028878	0.155594
H68	H	1.148221	-1.101676	0.155880
H69	H	1.138204	-1.007797	0.110498
H70	H	1.194112	-1.014277	0.165340
H71	H	1.137877	-0.448902	0.987122
C72	C	1.130580	-0.460880	0.512440
H73	H	1.152883	-0.424458	0.547082
H74	H	1.166013	-0.500969	0.478914
H75	H	1.100423	-0.412167	0.489146
C76	C	0.983400	-0.700956	0.982233
H77	H	0.987329	-0.694556	1.031663
H78	H	0.934856	-0.682257	0.973734
H79	H	1.000436	-0.771076	0.963504
C80	C	0.487939	-0.739447	0.121413
H81	H	0.536232	-0.733058	0.126458
H82	H	0.481712	-0.809576	0.125886
H83	H	0.476075	-0.720647	0.076227
C84	C	1.125175	-0.469686	0.666252
H85	H	1.149765	-0.429588	0.636284
H86	H	1.093021	-0.424242	0.700103
H87	H	1.158599	-0.513063	0.689875
H88	H	0.976100	-0.712937	0.507547
H89	H	0.313762	-0.480097	0.327098
C90	C	0.332549	-0.730615	0.128447
H91	H	0.369649	-0.770669	0.096667
H92	H	0.306811	-0.776100	0.152469
H93	H	0.301179	-0.687177	0.102806
C94	C	1.154166	-0.422346	0.844885
H95	H	1.176473	-0.385927	0.879525
H96	H	1.189596	-0.462447	0.811362
H97	H	1.124014	-0.373631	0.821588
H98	H	0.773615	-0.449351	0.351403
H99	H	0.999697	-0.674420	0.840000
C100	C	0.959822	-0.739504	0.649776
H101	H	0.963748	-0.733109	0.699206
H102	H	0.911278	-0.720814	0.641274
H103	H	0.976865	-0.809621	0.631043
H104	H	1.009395	-0.976007	0.294443
C105	C	0.456430	-0.470005	0.335078
H106	H	0.419328	-0.429933	0.366847
H107	H	0.487799	-0.513429	0.360721
H108	H	0.482166	-0.424519	0.311047
