data_functionalizedCrystal
_audit_creation_method	'MofGen! by Chris Wilmer'
_symmetry_space_group_name_H-M	'P1'
_symmetry_Int_Tables_number	1
_symmetry_cell_setting	triclinic
loop_
_symmetry_equiv_pos_as_xyz
  x,y,z
_cell_length_a	19.077105
_cell_length_b	17.637651
_cell_length_c	19.076919
_cell_angle_alpha	99.433464
_cell_angle_beta	89.923776
_cell_angle_gamma	98.499620
loop_
_atom_site_label
_atom_site_type_symbol
_atom_site_fract_x
_atom_site_fract_y
_atom_site_fract_z
Zn1	Zn	0.993412	-0.376382	0.369993
Zn2	Zn	0.976496	-0.501474	0.229080
Zn3	Zn	0.882426	-0.365960	0.249736
Zn4	Zn	0.854398	-0.501005	0.341921
O5	O	0.926683	-0.436205	0.297682
O6	O	1.088714	-0.397534	0.354404
O7	O	0.968667	-0.479332	0.134268
O8	O	0.915957	-0.258475	0.286082
O9	O	1.076286	-0.489438	0.250876
O10	O	0.997498	-0.266132	0.374434
O11	O	0.899554	-0.379771	0.149444
O12	O	0.781161	-0.379316	0.258861
O13	O	0.868189	-0.488639	0.443196
O14	O	0.760570	-0.478533	0.326588
O15	O	0.970321	-0.397079	0.463821
O16	O	0.941491	-0.610280	0.223656
O17	O	0.851786	-0.609935	0.306559
C18	C	0.745573	-0.427743	0.291920
C19	C	0.668089	-0.424142	0.289468
C20	C	0.620975	-0.474180	0.323494
C21	C	0.548173	-0.470786	0.321195
C22	C	0.522485	-0.417359	0.284866
C23	C	0.569605	-0.367316	0.250840
C24	C	0.642407	-0.370706	0.253143
C25	C	0.305902	-0.401669	0.274209
C26	C	0.233094	-0.398284	0.271907
C27	C	0.211666	-0.501754	0.342264
C28	C	0.284470	-0.505142	0.344561
C29	C	0.331584	-0.455097	0.310537
N30	N	0.448069	-0.413891	0.282514
N31	N	0.405999	-0.458562	0.312894
C32	C	0.891780	-0.638337	0.259835
C33	C	0.876910	-0.724814	0.243670
C34	C	1.040085	-1.028866	0.420726
C35	C	1.026091	-1.110122	0.405523
C36	C	0.941246	-1.102255	0.313438
C37	C	0.955235	-1.020996	0.328631
C38	C	1.004654	-0.984308	0.382276
C39	C	0.919805	-0.976439	0.290181
C40	C	0.933790	-0.895187	0.305376
C41	C	0.983205	-0.858493	0.359020
C42	C	1.018640	-0.903056	0.397471
C43	C	0.870382	-1.013129	0.236540
C44	C	0.834951	-0.968571	0.198090
C45	C	0.848940	-0.887318	0.213281
C46	C	0.898356	-0.850623	0.266925
C47	C	0.813506	-0.842754	0.174830
C48	C	0.827491	-0.761502	0.190024
C49	C	0.912341	-0.769372	0.282119
C50	C	1.108500	-0.444701	0.303467
C51	C	1.185980	-0.448321	0.305933
C52	C	0.918016	-0.443969	0.479510
C53	C	0.914322	-0.447278	0.556994
C54	C	0.961741	-0.233286	0.335693
C55	C	0.976681	-0.146813	0.351891
C56	C	0.935366	-0.428417	0.116574
C57	C	0.939233	-0.424896	0.039136
C58	C	0.965759	-0.401164	0.604135
C59	C	0.962281	-0.404269	0.676940
C60	C	0.907368	-0.453493	0.702601
C61	C	0.855926	-0.499608	0.655455
C62	C	0.859402	-0.496498	0.582652
C63	C	0.891267	-0.467902	0.919187
C64	C	0.887796	-0.471010	0.991995
C65	C	0.994151	-0.375669	1.013475
C66	C	0.997624	-0.372567	0.940669
C67	C	0.946180	-0.418679	0.893530
N68	N	0.903812	-0.456670	0.777019
N69	N	0.949733	-0.415498	0.819114
H70	H	0.305378	-0.548650	0.374142
O71	O	1.093390	-0.989283	0.478585
H72	H	1.115679	-1.033916	0.502773
H73	H	0.641883	-0.517689	0.353075
H74	H	1.058888	-0.873184	0.441150
O75	O	1.056853	-0.319472	0.912997
H76	H	1.050633	-0.325063	0.854452
O77	O	0.789285	-0.713438	0.148549
H78	H	0.731306	-0.727026	0.155785
H79	H	0.952589	-0.739499	0.325798
H80	H	0.344253	-0.360924	0.246499
H81	H	0.773264	-0.872638	0.131156
O82	O	0.541899	-0.309689	0.211659
H83	H	0.586895	-0.275459	0.188391
H84	H	0.849385	-0.505462	0.880812
H85	H	1.054937	-1.146399	0.436847
O86	O	0.796692	-0.552697	0.683128
H87	H	0.802918	-0.547117	0.741671
H88	H	1.036033	-0.338126	1.051864
H89	H	0.173299	-0.542497	0.369965
H90	H	0.843076	-0.511095	1.012885
O91	O	0.803917	-0.546224	0.531803
H92	H	0.765148	-0.580975	0.561877
H93	H	1.010477	-0.361083	0.583247
H94	H	0.680768	-0.329957	0.225440
H95	H	0.794712	-0.998454	0.154413
O96	O	1.017761	-0.354535	0.727786
H97	H	1.070828	-0.369849	0.713061
O98	O	0.497405	-0.524901	0.357796
H99	H	0.511037	-0.514759	0.415453
O100	O	0.205384	-0.340651	0.232728
H101	H	0.250377	-0.306415	0.209462
H102	H	0.901007	-1.132138	0.269762
O103	O	0.998299	-0.770856	0.375407
H104	H	0.948724	-0.747605	0.391773
O105	O	0.855306	-1.100766	0.220145
H106	H	0.834994	-1.123773	0.268259
