data_functionalizedCrystal
_audit_creation_method	'MofGen! by Chris Wilmer'
_symmetry_space_group_name_H-M	'P1'
_symmetry_Int_Tables_number	1
_symmetry_cell_setting	triclinic
loop_
_symmetry_equiv_pos_as_xyz
  x,y,z
_cell_length_a	6.817900
_cell_length_b	14.125469
_cell_length_c	10.992410
_cell_angle_alpha	94.598388
_cell_angle_beta	108.764651
_cell_angle_gamma	100.398878
loop_
_atom_site_label
_atom_site_type_symbol
_atom_site_fract_x
_atom_site_fract_y
_atom_site_fract_z
V1	V	-4.071585	-0.133114	-0.400097
O2	O	-4.074426	0.006397	-0.392991
O3	O	-4.007233	-0.263943	-0.396869
O4	O	-4.049833	-0.131066	-0.574817
O5	O	-4.031531	-0.127399	-0.213812
V6	V	-4.553827	-0.116427	-0.377875
O7	O	-4.335653	-0.169718	-0.448842
O8	O	-4.739956	-0.079822	-0.329131
O9	O	-4.394972	0.014402	-0.381103
O10	O	-4.668382	-0.255937	-0.384981
O11	O	-4.711278	-0.122141	-0.564160
O12	O	-4.352372	-0.118474	-0.203155
C13	C	-3.847491	-0.295836	-0.390431
C14	C	-3.876340	-0.402790	-0.388957
C15	C	-3.929229	-0.598615	-0.386276
C16	C	-4.115550	-0.650937	-0.391700
C17	C	-4.144980	-0.759901	-0.390209
C18	C	-3.899791	-0.489641	-0.387768
C19	C	-3.901831	-0.126338	-0.617419
C20	C	-3.965224	-0.125529	-0.760251
C21	C	-3.834708	-0.118163	-0.955401
C22	C	-3.768761	-0.119403	-0.806913
C23	C	-4.132836	-0.220392	-0.837001
C24	C	-4.197419	-0.219553	-0.985571
C25	C	-4.134058	-0.035864	-0.948224
C26	C	-4.063493	-0.035415	-0.799212
C27	C	-4.218055	0.046290	-0.387538
C28	C	-4.168446	0.153243	-0.389020
C29	C	-4.163715	-0.123206	-0.160546
C30	C	-4.079560	-0.124010	-0.017714
H31	H	-3.739516	-0.049484	-0.974487
C32	C	-4.332552	-0.231088	-0.798048
H33	H	-4.315442	-0.177669	-0.734475
H34	H	-4.452752	-0.232148	-0.872389
H35	H	-4.352647	-0.290043	-0.763222
C36	C	-3.743596	-0.648641	-0.378478
H37	H	-3.622817	-0.601487	-0.375275
H38	H	-3.710648	-0.678863	-0.302440
H39	H	-3.782799	-0.696436	-0.452926
C40	C	-4.301188	-0.600910	-0.399479
H41	H	-4.421965	-0.648070	-0.402691
H42	H	-4.261977	-0.553115	-0.325038
H43	H	-4.334166	-0.570690	-0.475525
C44	C	-3.663732	-0.206152	-0.773053
H45	H	-3.623009	-0.207203	-0.682080
H46	H	-3.761631	-0.265037	-0.817866
H47	H	-3.541732	-0.199726	-0.798306
H48	H	-4.311937	-0.039312	-0.989051
C49	C	-3.773586	-0.203721	-1.019903
H50	H	-3.896640	-0.242991	-1.084639
H51	H	-3.672693	-0.179218	-1.058771
H52	H	-3.713752	-0.241750	-0.956086
C53	C	-3.597720	-0.027267	-0.735192
H54	H	-3.568000	0.011258	-0.796753
H55	H	-3.647637	0.009200	-0.679523
H56	H	-3.471967	-0.045421	-0.685072
H57	H	-4.160466	-0.286295	-1.031592
C58	C	-4.439711	-0.230710	-1.043130
H59	H	-4.498274	-0.235740	-0.975696
H60	H	-4.470658	-0.175526	-1.083367
H61	H	-4.499684	-0.287772	-1.105826
C62	C	-4.042057	-0.310779	-0.802088
H63	H	-3.902106	-0.290902	-0.740795
H64	H	-4.129183	-0.350885	-0.765639
H65	H	-4.038833	-0.346301	-0.878299
C66	C	-4.026209	0.061452	-0.976075
H67	H	-3.946927	0.049232	-1.030350
H68	H	-4.131373	0.095191	-1.018468
H69	H	-3.933738	0.099962	-0.896581
H70	H	-3.942730	0.034761	-0.747116
C71	C	-4.255934	-0.033894	-0.755280
H72	H	-4.278982	-0.088446	-0.712420
H73	H	-4.229222	0.024330	-0.697356
H74	H	-4.378345	-0.036652	-0.828973
