data_functionalizedCrystal
_audit_creation_method	'MofGen! by Chris Wilmer'
_symmetry_space_group_name_H-M	'P1'
_symmetry_Int_Tables_number	1
_symmetry_cell_setting	triclinic
loop_
_symmetry_equiv_pos_as_xyz
  x,y,z
_cell_length_a	14.519731
_cell_length_b	15.944499
_cell_length_c	13.596369
_cell_angle_alpha	89.997258
_cell_angle_beta	89.994584
_cell_angle_gamma	83.583231
loop_
_atom_site_label
_atom_site_type_symbol
_atom_site_fract_x
_atom_site_fract_y
_atom_site_fract_z
O1	O	1.223641	0.110197	-0.081786
O2	O	0.955142	0.123145	-0.081787
O3	O	1.096748	-0.005596	-0.081788
O4	O	1.082034	0.238938	-0.081785
O5	O	1.096734	-0.005603	0.081795
O6	O	0.955128	0.123138	0.081796
O7	O	1.223627	0.110190	0.081797
Zn8	Zn	1.089375	0.116663	0.107769
Zn9	Zn	1.089394	0.116672	-0.107759
O10	O	1.082020	0.238931	0.081798
C11	C	0.920776	0.122535	0.000004
C12	C	0.818400	0.120717	0.000004
C13	C	0.735258	0.119240	-0.000000
C14	C	0.630953	0.117394	-0.000001
C15	C	0.547817	0.115929	-0.000000
C16	C	0.443505	0.114083	-0.000003
C17	C	1.096139	-0.036895	0.000001
C18	C	1.094333	-0.130146	-0.000007
C19	C	1.176603	-0.421557	-0.000001
C20	C	1.133830	-0.360600	0.080657
C21	C	1.087771	-0.465792	0.000005
C22	C	1.133820	-0.360599	-0.080623
C23	C	1.091000	-0.300879	-0.000002
C24	C	1.044974	-0.406064	0.080730
C25	C	1.044976	-0.406069	-0.080623
C26	C	1.002139	-0.345130	0.000055
C27	C	1.085914	-0.560795	0.000010
C28	C	1.092851	-0.205877	-0.000000
C29	C	1.257992	0.110800	0.000003
C30	C	1.360369	0.112618	-0.000003
C31	C	1.082630	0.270230	0.000007
C32	C	1.084436	0.363481	0.000008
N33	N	1.089369	0.116656	0.254861
N34	N	1.089407	0.116672	-0.254851
C35	C	1.089392	0.116673	0.656151
C36	C	1.089383	0.116671	0.544500
C37	C	1.089381	0.116665	0.455510
C38	C	1.089371	0.116662	0.343851
H39	H	1.171397	-0.340455	0.148846
H40	H	0.928354	-0.312060	0.000102
H41	H	1.007426	-0.426105	0.148991
H42	H	1.007441	-0.426236	-0.148815
H43	H	1.171413	-0.340459	-0.148807
H44	H	1.250324	-0.454774	0.000076
