data_functionalizedCrystal
_audit_creation_method	'MofGen! by Chris Wilmer'
_symmetry_space_group_name_H-M	'P1'
_symmetry_Int_Tables_number	1
_symmetry_cell_setting	triclinic
loop_
_symmetry_equiv_pos_as_xyz
  x,y,z
_cell_length_a	14.044191
_cell_length_b	10.967819
_cell_length_c	10.066291
_cell_angle_alpha	86.871631
_cell_angle_beta	99.595759
_cell_angle_gamma	91.143123
loop_
_atom_site_label
_atom_site_type_symbol
_atom_site_fract_x
_atom_site_fract_y
_atom_site_fract_z
O1	O	-0.192658	1.598438	-0.489396
O2	O	-0.195371	1.248671	-0.407139
O3	O	-0.055844	1.418299	-0.447034
O4	O	-0.332185	1.428809	-0.449501
O5	O	-0.029128	1.450602	-0.227658
O6	O	-0.168655	1.280974	-0.187763
O7	O	-0.165941	1.630741	-0.270019
Zn8	Zn	-0.163056	1.460986	-0.194060
Zn9	Zn	-0.198256	1.418425	-0.483098
O10	O	-0.305468	1.461112	-0.230124
C11	C	-0.179796	1.219789	-0.286860
C12	C	-0.173179	1.085604	-0.255304
C13	C	-0.177242	0.870361	-0.322288
C14	C	-0.184074	1.009050	-0.354896
C15	C	-0.354304	1.449558	-0.340893
C16	C	-0.460015	1.463271	-0.344116
C17	C	-0.707749	1.391083	-0.327152
C18	C	-0.653560	1.488321	-0.350017
C19	C	-0.545861	1.474380	-0.346733
C20	C	-0.815457	1.405023	-0.330435
C21	C	-0.007009	1.429853	-0.336268
C22	C	0.098701	1.416138	-0.333054
C23	C	-0.181517	1.659622	-0.390301
C24	C	-0.188135	1.793806	-0.421866
N25	N	-0.139033	1.490041	0.003198
C26	C	-0.189902	1.428514	0.085476
C27	C	-0.171404	1.450906	0.237367
N28	N	-0.222280	1.389370	0.319643
H29	H	-0.202525	0.830940	-0.531258
F30	F	-0.662669	1.268595	-0.298344
F31	F	-0.154383	1.037081	-0.112308
H32	H	-0.247151	1.359265	0.043471
F33	F	-0.158449	0.821830	-0.179301
H34	H	-0.114158	1.520169	0.279366
F35	F	-0.064212	1.580568	0.058096
F36	F	-0.698639	1.610818	-0.378824
F37	F	-0.297114	1.298851	0.264749
H38	H	-0.198464	1.046178	-0.464295
