data_functionalizedCrystal
_audit_creation_method	'MofGen! by Chris Wilmer'
_symmetry_space_group_name_H-M	'P1'
_symmetry_Int_Tables_number	1
_symmetry_cell_setting	triclinic
loop_
_symmetry_equiv_pos_as_xyz
  x,y,z
_cell_length_a	6.817900
_cell_length_b	11.102294
_cell_length_c	10.943624
_cell_angle_alpha	91.861364
_cell_angle_beta	108.838799
_cell_angle_gamma	108.605785
loop_
_atom_site_label
_atom_site_type_symbol
_atom_site_fract_x
_atom_site_fract_y
_atom_site_fract_z
V1	V	-4.114282	-0.175806	-0.402550
O2	O	-4.073263	0.008482	-0.394888
O3	O	-4.091040	-0.348626	-0.399795
O4	O	-4.092263	-0.173086	-0.578116
O5	O	-4.072031	-0.168272	-0.215333
V6	V	-4.591232	-0.153764	-0.380157
O7	O	-4.389960	-0.224155	-0.451669
O8	O	-4.765751	-0.105415	-0.331037
O9	O	-4.391267	0.019056	-0.382912
O10	O	-4.749648	-0.338052	-0.387819
O11	O	-4.750880	-0.161298	-0.567374
O12	O	-4.390044	-0.156484	-0.204591
C13	C	-3.941307	-0.390756	-0.393444
C14	C	-4.003767	-0.532039	-0.392362
C15	C	-4.275848	-0.737648	-0.397296
C16	C	-4.217168	-0.604896	-0.398298
C17	C	-3.849029	-0.591939	-0.385411
C18	C	-3.907706	-0.724687	-0.384400
C19	C	-3.942866	-0.166836	-0.620909
C20	C	-4.006314	-0.165757	-0.764435
C21	C	-3.851194	-0.158485	-0.841583
C22	C	-4.039807	-0.266416	-0.947572
C23	C	-3.930779	-0.055914	-0.914187
C24	C	-4.194137	-0.273789	-0.868548
C25	C	-4.085029	-0.063191	-0.835139
C26	C	-4.273779	-0.171153	-0.941099
C27	C	-4.204342	0.061180	-0.389259
C28	C	-4.121123	0.202461	-0.390349
C29	C	-4.202782	-0.162738	-0.161791
C30	C	-4.118572	-0.163811	-0.018263
H31	H	-3.672029	-0.153274	-0.798135
H32	H	-4.343164	-0.556138	-0.403952
H33	H	-4.304884	-0.365970	-0.848003
H34	H	-3.820065	0.036144	-0.934950
H35	H	-3.675266	-0.532607	-0.380569
H36	H	-3.781697	-0.773450	-0.378740
H37	H	-4.449620	-0.796960	-0.402138
H38	H	-4.021353	-0.352332	-0.996520
H39	H	-4.453056	-0.176534	-0.984343
H40	H	-4.103399	0.022729	-0.786156
