data_functionalizedCrystal
_audit_creation_method	'MofGen! by Chris Wilmer'
_symmetry_space_group_name_H-M	'P1'
_symmetry_Int_Tables_number	1
_symmetry_cell_setting	triclinic
loop_
_symmetry_equiv_pos_as_xyz
  x,y,z
_cell_length_a	12.759401
_cell_length_b	12.645329
_cell_length_c	12.759393
_cell_angle_alpha	89.969649
_cell_angle_beta	89.979062
_cell_angle_gamma	90.019502
loop_
_atom_site_label
_atom_site_type_symbol
_atom_site_fract_x
_atom_site_fract_y
_atom_site_fract_z
Zn1	Zn	1.606242	-0.421945	-0.594021
Zn2	Zn	1.606123	-0.599246	-0.418342
Zn3	Zn	1.430541	-0.422001	-0.418356
Zn4	Zn	1.430523	-0.599172	-0.593979
O5	O	1.518358	-0.510591	-0.506175
O6	O	1.753248	-0.445472	-0.570728
O7	O	1.582790	-0.575788	-0.271323
O8	O	1.453906	-0.273647	-0.441682
O9	O	1.753160	-0.575734	-0.441658
O10	O	1.582993	-0.273605	-0.570743
O11	O	1.453790	-0.445568	-0.271333
O12	O	1.283518	-0.445496	-0.441641
O13	O	1.453875	-0.575607	-0.741006
O14	O	1.283504	-0.575662	-0.570671
O15	O	1.582975	-0.445400	-0.741037
O16	O	1.582772	-0.747583	-0.441617
O17	O	1.453759	-0.747529	-0.570657
C18	C	1.245390	-0.510578	-0.506154
C19	C	1.128614	-0.510598	-0.506170
C20	C	1.073772	-0.578479	-0.573249
C21	C	0.964048	-0.578483	-0.573270
C22	C	0.964016	-0.442722	-0.439123
C23	C	1.073739	-0.442714	-0.439108
C24	C	1.518279	-0.786021	-0.506153
C25	C	1.518342	-0.903851	-0.506179
C26	C	1.437142	-0.948743	-0.587311
C27	C	1.437478	-1.071302	-0.587663
C28	C	1.629265	-1.071612	-0.536014
C29	C	1.628698	-0.949014	-0.536569
C30	C	1.489792	-0.949150	-0.395080
C31	C	1.487446	-1.071758	-0.395706
C32	C	1.792391	-0.510605	-0.506196
C33	C	1.909167	-0.510611	-0.506205
C34	C	1.518436	-0.510489	-0.780208
C35	C	1.518470	-0.510446	-0.896985
C36	C	1.518464	-0.234086	-0.506219
C37	C	1.518510	-0.116255	-0.506238
C38	C	1.585697	-0.442636	-0.951865
C39	C	1.585715	-0.442590	-1.061589
C40	C	1.451275	-0.578173	-1.061544
C41	C	1.451252	-0.578213	-0.951821
C42	C	1.518340	-0.510616	-0.233207
C43	C	1.518510	-0.510360	-0.116431
H44	H	0.919401	-0.633756	-0.627895
H45	H	1.456482	-1.100550	-0.669992
Br46	Br	1.148173	-0.350573	-0.348074
H47	H	1.118448	-0.633752	-0.627858
Br48	Br	0.889537	-0.350599	-0.348114
H49	H	1.396551	-0.633349	-1.106205
H50	H	1.355361	-1.101494	-0.569053
Br51	Br	1.351586	-1.120405	-0.358269
H52	H	1.354718	-0.919373	-0.568905
Br53	Br	1.468296	-0.897277	-0.723743
Br54	Br	1.668979	-0.901205	-0.671914
Br55	Br	1.732990	-0.899496	-0.442327
Br56	Br	1.732940	-1.120103	-0.440565
Br57	Br	1.670329	-1.122641	-0.669901
H58	H	1.410357	-0.918333	-0.367907
Br59	Br	1.676964	-0.350566	-1.136065
Br60	Br	1.578875	-1.122761	-0.289620
Br61	Br	1.359999	-0.670238	-0.877334
H62	H	1.548927	-0.920106	-0.334634
H63	H	1.640427	-0.387452	-0.907220
