data_functionalizedCrystal
_audit_creation_method	'MofGen! by Chris Wilmer'
_symmetry_space_group_name_H-M	'P1'
_symmetry_Int_Tables_number	1
_symmetry_cell_setting	triclinic
loop_
_symmetry_equiv_pos_as_xyz
  x,y,z
_cell_length_a	25.427154
_cell_length_b	25.426324
_cell_length_c	25.422586
_cell_angle_alpha	60.006367
_cell_angle_beta	60.012446
_cell_angle_gamma	59.992398
loop_
_atom_site_label
_atom_site_type_symbol
_atom_site_fract_x
_atom_site_fract_y
_atom_site_fract_z
O1	O	0.072968	-0.768436	0.642532
O2	O	0.572968	-0.268436	1.142532
O3	O	0.027520	-0.598284	0.517710
O4	O	0.527520	-0.098284	1.017710
O5	O	0.135268	-0.705940	0.517611
O6	O	0.635268	-0.205940	1.017611
O7	O	-0.034780	-0.660780	0.642632
O8	O	0.465220	-0.160780	1.142632
O9	O	0.171018	-0.670200	0.553260
O10	O	0.671018	-0.170200	1.053260
O11	O	0.063270	-0.562544	0.553360
O12	O	0.563270	-0.062544	1.053360
O13	O	0.108718	-0.732696	0.678182
O14	O	0.608718	-0.232696	1.178182
Zn15	Zn	0.091670	-0.641945	0.621431
Zn16	Zn	0.591670	-0.141945	1.121431
Zn17	Zn	0.044568	-0.689034	0.574461
Zn18	Zn	0.544568	-0.189034	1.074461
O19	O	0.000970	-0.625039	0.678281
O20	O	0.500970	-0.125039	1.178281
N21	N	0.123818	-0.609812	0.653490
N22	N	0.623818	-0.109812	1.153490
N23	N	0.012426	-0.721173	0.542402
N24	N	0.512426	-0.221173	1.042402
C25	C	0.168482	-0.466269	0.698103
C26	C	0.668482	0.033731	1.198103
C27	C	0.168494	-0.565177	0.698095
C28	C	0.668494	-0.065177	1.198095
C29	C	0.193243	-0.540453	0.722807
C30	C	0.693243	-0.040453	1.222807
C31	C	0.301113	-0.521853	0.665993
C32	C	0.801113	-0.021853	1.165993
C33	C	0.368545	-0.544324	0.643486
C34	C	0.868545	-0.044324	1.143486
C35	C	0.368579	-0.653434	0.685090
C36	C	0.868579	-0.153434	1.185090
C37	C	0.301149	-0.630961	0.707599
C38	C	0.801149	-0.130961	1.207599
C39	C	0.184722	-0.432539	0.631812
C40	C	0.684722	0.067461	1.131812
C41	C	0.162210	-0.365100	0.609357
C42	C	0.662210	0.134900	1.109357
C43	C	0.107225	-0.365129	0.719489
C44	C	0.607225	0.134871	1.219489
C45	C	0.129737	-0.432567	0.741943
C46	C	0.629737	0.067433	1.241943
C47	C	0.102194	-0.548896	0.714421
C48	C	0.602194	-0.048896	1.214421
C49	C	0.079702	-0.571372	0.691949
C50	C	0.579702	-0.071372	1.191949
C51	C	0.189805	-0.626409	0.636839
C52	C	0.689805	-0.126409	1.136839
C53	C	0.212300	-0.603934	0.659303
C54	C	0.712300	-0.103934	1.159303
C55	C	0.102289	-0.548918	0.830735
C56	C	0.602289	-0.048918	1.330735
C57	C	0.079866	-0.571415	0.898171
C58	C	0.579866	-0.071415	1.398171
C59	C	0.190015	-0.626466	0.898104
C60	C	0.690015	-0.126466	1.398104
C61	C	0.212437	-0.603971	0.830666
C62	C	0.712437	-0.103971	1.330666
C63	C	0.168573	-0.565195	0.796984
C64	C	0.668573	-0.065195	1.296984
C65	C	0.267418	-0.565170	0.698047
C66	C	0.767418	-0.065170	1.198047
C67	C	-0.130981	-0.765617	0.497386
C68	C	0.369019	-0.265617	0.997386
C69	C	-0.032127	-0.765741	0.497606
C70	C	0.467873	-0.265741	0.997606
C71	C	-0.056804	-0.790430	0.472789
C72	C	0.443196	-0.290430	0.972789
C73	C	-0.075480	-0.898263	0.529507
C74	C	0.424520	-0.398263	1.029507
C75	C	-0.053057	-0.965702	0.552014
C76	C	0.446943	-0.465702	1.052014
C77	C	0.056052	-0.965829	0.510599
C78	C	0.556052	-0.465829	1.010599
C79	C	0.033627	-0.898392	0.488091
C80	C	0.533627	-0.398392	0.988091
C81	C	-0.164787	-0.781859	0.563659
C82	C	0.335213	-0.281859	1.063659
C83	C	-0.232219	-0.759299	0.586018
C84	C	0.267781	-0.259299	1.086018
C85	C	-0.232034	-0.704261	0.475827
C86	C	0.267966	-0.204261	0.975827
C87	C	-0.164602	-0.726821	0.453469
C88	C	0.335398	-0.226821	0.953469
C89	C	-0.048372	-0.699446	0.481299
C90	C	0.451628	-0.199446	0.981299
C91	C	-0.025938	-0.677008	0.503867
C92	C	0.474062	-0.177008	1.003867
C93	C	0.028987	-0.787155	0.559036
C94	C	0.528987	-0.287155	1.059036
C95	C	0.006552	-0.809596	0.536475
C96	C	0.506552	-0.309596	1.036475
C97	C	-0.048188	-0.699454	0.364860
C98	C	0.451812	-0.199454	0.864860
C99	C	-0.025608	-0.677017	0.297425
C100	C	0.474392	-0.177017	0.797425
C101	C	0.029406	-0.787170	0.297492
C102	C	0.529406	-0.287170	0.797492
C103	C	0.006827	-0.809605	0.364929
C104	C	0.506827	-0.309605	0.864929
C105	C	-0.031972	-0.765745	0.398611
C106	C	0.468028	-0.265745	0.898611
C107	C	-0.032140	-0.864611	0.497548
C108	C	0.467860	-0.364611	0.997548
N109	N	0.401319	-0.609788	0.653344
N110	N	0.901319	-0.109788	1.153344
O111	O	0.621664	-0.620517	0.494685
O112	O	1.121664	-0.120517	0.994685
O113	O	0.621901	-0.745740	0.664659
O114	O	1.121901	-0.245740	1.164659
O115	O	0.621803	-0.745452	0.556857
O116	O	1.121803	-0.245452	1.056857
O117	O	0.621762	-0.620805	0.602487
O118	O	1.121762	-0.120805	1.102487
O119	O	0.514676	-0.709815	0.592658
O120	O	1.014676	-0.209815	1.092658
O121	O	0.514774	-0.710104	0.700460
O122	O	1.014774	-0.210104	1.200460
O123	O	0.514537	-0.584881	0.530485
O124	O	1.014537	-0.084881	1.030485
Zn125	Zn	0.497647	-0.641834	0.621157
Zn126	Zn	0.997647	-0.141834	1.121157
Zn127	Zn	0.638791	-0.688787	0.573988
Zn128	Zn	1.138791	-0.188787	1.073988
O129	O	0.514635	-0.585169	0.638287
O130	O	1.014635	-0.085169	1.138287
N131	N	0.735119	-0.720834	0.541794
N132	N	1.235119	-0.220834	1.041794
N133	N	0.123794	-0.332357	0.653504
N134	N	0.623794	0.167643	1.153504
O135	O	-0.034774	-0.111885	0.642639
O136	O	0.465226	0.388115	1.142639
O137	O	0.135202	-0.111860	0.517412
O138	O	0.635202	0.388140	1.017412
O139	O	0.027364	-0.111888	0.517742
O140	O	0.527364	0.388112	1.017742
O141	O	0.073064	-0.111857	0.642310
O142	O	0.573064	0.388143	1.142310
O143	O	0.063120	-0.219026	0.553444
O144	O	0.563120	0.280974	1.053444
O145	O	0.170958	-0.218998	0.553115
O146	O	0.670958	0.281002	1.053115
O147	O	0.000983	-0.219022	0.678342
O148	O	0.500983	0.280978	1.178342
Zn149	Zn	0.091647	-0.236020	0.621397
Zn150	Zn	0.591647	0.263980	1.121397
Zn151	Zn	0.044537	-0.094862	0.574357
Zn152	Zn	0.544537	0.405138	1.074357
O153	O	0.108821	-0.218994	0.678013
O154	O	0.608821	0.281006	1.178013
N155	N	0.012383	0.001474	0.542251
N156	N	0.512383	0.501474	1.042251
N157	N	0.124036	-0.609854	0.930891
N158	N	0.624036	-0.109854	1.430891
O159	O	0.113202	-0.768401	1.151342
O160	O	0.613202	-0.268401	1.651342
O161	O	-0.011992	-0.598359	1.151385
O162	O	0.488008	-0.098359	1.651385
O163	O	-0.011700	-0.706176	1.151343
O164	O	0.488300	-0.206176	1.651343
O165	O	0.112910	-0.660584	1.151384
O166	O	0.612910	-0.160584	1.651384
O167	O	0.023980	-0.670446	1.044212
O168	O	0.523980	-0.170446	1.544212
O169	O	0.023689	-0.562630	1.044253
O170	O	0.523689	-0.062630	1.544253
O171	O	0.148882	-0.732671	1.044211
O172	O	0.648882	-0.232671	1.544211
Zn173	Zn	0.091951	-0.641977	1.027223
Zn174	Zn	0.591951	-0.141977	1.527223
Zn175	Zn	0.044940	-0.689053	1.168373
Zn176	Zn	0.544940	-0.189053	1.668373
O177	O	0.148590	-0.624854	1.044252
O178	O	0.648590	-0.124854	1.544252
N179	N	0.012853	-0.721183	1.264704
N180	N	0.512853	-0.221183	1.764704
C181	C	0.041135	-0.558973	0.518338
C182	C	0.541135	-0.058973	1.018338
C183	C	0.174567	-0.692292	0.518215
C184	C	0.674567	-0.192292	1.018215
C185	C	0.095103	-0.772007	0.677553
C186	C	0.595103	-0.272007	1.177553
C187	C	-0.038330	-0.638687	0.677677
C188	C	0.461670	-0.138687	1.177677
C189	C	0.568366	-0.745166	0.703974
C190	C	1.068366	-0.245166	1.203974
C191	C	0.568246	-0.744810	0.570474
C192	C	1.068246	-0.244810	1.070474
C193	C	0.568069	-0.585454	0.491172
C194	C	1.068069	-0.085454	0.991172
C195	C	0.568192	-0.585812	0.624671
C196	C	1.068192	-0.085812	1.124671
C197	C	0.174449	-0.165294	0.517975
C198	C	0.674449	0.334706	1.017975
C199	C	0.040949	-0.165460	0.518427
C200	C	0.540949	0.334540	1.018427
C201	C	-0.038309	-0.165456	0.677735
C202	C	0.461691	0.334544	1.177735
C203	C	0.095236	-0.165423	0.677328
C204	C	0.595236	0.334577	1.177328
C205	C	-0.011393	-0.559072	1.097824
C206	C	0.488607	-0.059072	1.597824
C207	C	-0.011024	-0.692583	1.097752
C208	C	0.488976	-0.192583	1.597752
C209	C	0.148283	-0.771958	1.097772
C210	C	0.648283	-0.271958	1.597772
C211	C	0.147922	-0.638440	1.097820
C212	C	0.647922	-0.138440	1.597820
H213	H	0.025889	-0.558152	0.925643
H214	H	0.525889	-0.058152	1.425643
H215	H	0.104814	-0.820885	0.716757
H216	H	0.604814	-0.320885	1.216757
H217	H	0.187590	-0.820792	1.097751
H218	H	0.687590	-0.320792	1.597751
H219	H	-0.087172	-0.629063	0.716934
H220	H	0.412828	-0.129063	1.216934
O221	O	-0.268303	-0.662415	0.428462
O222	O	0.231697	-0.162415	0.928462
H223	H	-0.299031	-0.686459	0.435996
H224	H	0.200969	-0.186459	0.935996
H225	H	0.568183	-0.546658	0.634434
H226	H	1.068183	-0.046658	1.134434
O227	O	0.112190	-0.468941	0.813451
O228	O	0.612190	0.031059	1.313451
H229	H	0.130332	-0.456010	0.835550
H230	H	0.630332	0.043990	1.335550
O231	O	0.568450	-0.797244	0.768636
O232	O	1.068450	-0.297244	1.268636
H233	H	0.568469	-0.779029	0.800227
H234	H	1.068469	-0.279029	1.300227
O235	O	-0.102973	-0.165451	0.729807
O236	O	0.397027	0.334549	1.229807
H237	H	-0.112116	-0.209120	0.741626
H238	H	0.387884	0.290880	1.241626
O239	O	0.199784	-0.625527	1.097826
O240	O	0.699784	-0.125527	1.597826
H241	H	0.181356	-0.575682	1.097835
H242	H	0.681356	-0.075682	1.597835
H243	H	0.223406	-0.701920	0.478955
H244	H	0.723406	-0.201920	0.978955
H245	H	0.175430	-0.337636	0.555374
H246	H	0.675430	0.162364	1.055374
H247	H	0.105023	-0.165413	0.716462
H248	H	0.605023	0.334587	1.216462
H249	H	0.066565	-0.517338	0.803314
H250	H	0.566565	-0.017338	1.303314
H251	H	0.223163	-0.164989	0.478564
H252	H	0.723163	0.335011	0.978564
H253	H	0.568264	-0.783967	0.560707
H254	H	1.068264	-0.283967	1.060707
O255	O	0.567985	-0.533376	0.426509
O256	O	1.067985	-0.033376	0.926509
H257	H	0.567976	-0.551594	0.394916
H258	H	1.067976	-0.051594	0.894916
O259	O	0.027989	-0.165463	0.466581
O260	O	0.527989	0.334537	0.966581
H261	H	0.016063	-0.209137	0.484012
H262	H	0.516063	0.290863	0.984012
O263	O	0.237325	-0.668334	0.934430
O264	O	0.737325	-0.168334	1.434430
H265	H	0.287183	-0.675892	0.899629
H266	H	0.787183	-0.175892	1.399629
O267	O	0.283933	-0.621524	0.794262
O268	O	0.783933	-0.121524	1.294262
H269	H	0.310664	-0.652258	0.829015
H270	H	0.810664	-0.152258	1.329015
O271	O	0.054950	-0.507105	0.756268
O272	O	0.554950	-0.007105	1.256268
H273	H	0.005069	-0.499558	0.763840
H274	H	0.505069	0.000442	1.263840
O275	O	0.008193	-0.553822	0.709556
O276	O	0.508193	-0.053822	1.209556
H277	H	-0.018490	-0.523104	0.740312
H278	H	0.481510	-0.023104	1.240312
H279	H	-0.050697	-0.510236	1.097837
H280	H	0.449303	-0.010236	1.597837
H281	H	0.031425	-0.510094	0.479136
H282	H	0.531425	-0.010094	0.979136
H283	H	0.225479	-0.657972	0.605261
H284	H	0.725479	-0.157972	1.105261
O285	O	-0.062859	-0.705469	1.097666
O286	O	0.437141	-0.205469	1.597666
H287	H	-0.044421	-0.755304	1.097627
H288	H	0.455579	-0.255304	1.597627
H289	H	0.266286	-0.617183	0.646003
H290	H	0.766286	-0.117183	1.146003
H291	H	0.396045	-0.707006	0.692856
H292	H	0.896045	-0.207006	1.192856
O293	O	0.264806	-0.677685	0.742163
O294	O	0.764806	-0.177685	1.242163
H295	H	0.277790	-0.713756	0.785923
H296	H	0.777790	-0.213756	1.285923
O297	O	0.404892	-0.497607	0.608914
O298	O	0.904892	0.002393	1.108914
H299	H	0.370108	-0.448082	0.606049
H300	H	0.870108	0.051918	1.106049
H301	H	0.216267	-0.459978	0.596113
H302	H	0.716267	0.040022	1.096113
O303	O	0.264731	-0.450894	0.655698
O304	O	0.764731	0.049106	1.155698
H305	H	0.299494	-0.424551	0.629632
H306	H	0.799494	0.075449	1.129632
O307	O	0.065437	-0.328770	0.766768
O308	O	0.565437	0.171230	1.266768
H309	H	0.057931	-0.363556	0.816640
H310	H	0.557931	0.136444	1.316640
H311	H	-0.079784	-0.663733	0.392281
H312	H	0.420216	-0.163733	0.892281
O313	O	-0.043111	-0.605512	0.261026
O314	O	0.456889	-0.105512	0.761026
H315	H	-0.073889	-0.578787	0.295780
H316	H	0.426111	-0.078787	0.795780
O317	O	-0.268689	-0.776816	0.657502
O318	O	0.231311	-0.276816	1.157502
H319	H	-0.233981	-0.807589	0.684284
H320	H	0.266019	-0.307589	1.184284
O321	O	0.071248	-0.834479	0.261171
O322	O	0.571248	-0.334479	0.761171
H323	H	0.044470	-0.865153	0.274057
H324	H	0.544470	-0.365153	0.774057
O325	O	0.024319	-0.881110	0.401333
O326	O	0.524319	-0.381110	0.901333
H327	H	0.055084	-0.907835	0.366580
H328	H	0.555084	-0.407835	0.866580
H329	H	-0.039168	-0.623025	0.490592
H330	H	0.460832	-0.123025	0.990592
O331	O	-0.090095	-0.652148	0.439383
O332	O	0.409905	-0.152148	0.939383
H333	H	-0.097629	-0.602279	0.431846
H334	H	0.402371	-0.102279	0.931846
H335	H	0.019779	-0.863579	0.549754
H336	H	0.519779	-0.363579	1.049754
O337	O	0.070702	-0.834456	0.600958
O338	O	0.570702	-0.334456	1.100958
H339	H	0.078222	-0.884323	0.608506
H340	H	0.578222	-0.384323	1.108506
H341	H	0.068924	-0.870994	0.462067
H342	H	0.568924	-0.370994	0.962067
H343	H	0.109606	-0.993335	0.502902
H344	H	0.609606	-0.493335	1.002902
H345	H	-0.088349	-0.993100	0.578027
H346	H	0.411651	-0.493100	1.078027
H347	H	-0.129033	-0.870764	0.537213
H348	H	0.370967	-0.370764	1.037213
H349	H	-0.137077	-0.713589	0.399501
H350	H	0.362923	-0.213589	0.899501
O351	O	-0.128520	-0.823698	0.611022
O352	O	0.371480	-0.323698	1.111022
H353	H	-0.163358	-0.831192	0.660864
H354	H	0.336642	-0.331192	1.160864
