data_functionalizedCrystal
_audit_creation_method	'MofGen! by Chris Wilmer'
_symmetry_space_group_name_H-M	'P1'
_symmetry_Int_Tables_number	1
_symmetry_cell_setting	triclinic
loop_
_symmetry_equiv_pos_as_xyz
  x,y,z
_cell_length_a	10.654550
_cell_length_b	12.503552
_cell_length_c	14.044220
_cell_angle_alpha	93.839943
_cell_angle_beta	91.163096
_cell_angle_gamma	93.554123
loop_
_atom_site_label
_atom_site_type_symbol
_atom_site_fract_x
_atom_site_fract_y
_atom_site_fract_z
O1	O	1.687865	0.089243	-0.127801
O2	O	1.323664	0.089263	-0.140493
O3	O	1.500297	0.089243	0.003873
O4	O	1.511232	0.089263	-0.272167
O5	O	1.486997	-0.089398	-0.006994
O6	O	1.310364	-0.089378	-0.151360
O7	O	1.674566	-0.089398	-0.138668
Cu8	Cu	1.491251	-0.105699	-0.146006
Cu9	Cu	1.506979	0.105564	-0.133155
O10	O	1.497932	-0.089378	-0.283034
C11	C	1.270122	-0.000055	-0.144994
C12	C	1.130400	-0.000048	-0.142205
C13	C	1.059456	-0.000044	-0.227206
C14	C	0.928170	-0.000063	-0.224582
C15	C	0.938783	-0.000084	-0.051948
C16	C	1.070066	-0.000073	-0.054574
N17	N	1.480197	-0.254291	-0.155044
C18	C	1.534294	-0.526730	-0.110810
C19	C	1.463948	-0.473398	-0.168340
C20	C	1.472991	-0.351475	-0.160940
C21	C	1.525252	-0.648664	-0.118209
C22	C	1.728107	-0.000078	-0.134166
C23	C	1.867830	-0.000078	-0.136955
C24	C	1.488861	-0.000078	0.033785
C25	C	1.474586	-0.000079	0.139105
N26	N	1.518041	0.254156	-0.124109
C27	C	1.509368	-0.000055	-0.312946
C28	C	1.523644	-0.000047	-0.418265
C29	C	1.448488	-0.000062	0.331939
C30	C	1.549736	-0.000064	0.388906
C31	C	1.535215	-0.000055	0.496206
C32	C	1.463007	-0.000071	0.224630
H33	H	0.889643	-0.000112	0.019399
H34	H	1.350909	-0.000054	0.363750
H35	H	1.647328	0.000003	0.357098
H36	H	0.870413	-0.000063	-0.293798
N37	N	1.623078	-0.465928	-0.038225
H38	H	1.668775	-0.518505	-0.000861
H39	H	1.573650	-0.419267	0.006813
H40	H	1.396932	-0.519306	-0.223150
H41	H	1.108574	-0.000032	-0.298562
H42	H	1.127831	-0.000079	0.014649
