data_functionalizedCrystal
_audit_creation_method	'MofGen! by Chris Wilmer'
_symmetry_space_group_name_H-M	'P1'
_symmetry_Int_Tables_number	1
_symmetry_cell_setting	triclinic
loop_
_symmetry_equiv_pos_as_xyz
  x,y,z
_cell_length_a	19.121102
_cell_length_b	21.295416
_cell_length_c	19.120904
_cell_angle_alpha	87.589183
_cell_angle_beta	90.088173
_cell_angle_gamma	92.415449
loop_
_atom_site_label
_atom_site_type_symbol
_atom_site_fract_x
_atom_site_fract_y
_atom_site_fract_z
Zn1	Zn	1.054815	0.307921	-0.442046
Zn2	Zn	1.388148	0.641255	-0.108713
Zn3	Zn	1.721481	0.974588	0.224620
Zn4	Zn	1.059724	0.408896	-0.324805
Zn5	Zn	1.393057	0.742229	0.008529
Zn6	Zn	1.726391	1.075562	0.341862
Zn7	Zn	0.942585	0.298968	-0.319831
Zn8	Zn	1.275918	0.632301	0.013503
Zn9	Zn	1.609251	0.965635	0.346836
Zn10	Zn	0.937536	0.408472	-0.437007
Zn11	Zn	1.270869	0.741806	-0.103674
Zn12	Zn	1.604202	1.075139	0.229660
O13	O	0.998665	0.356064	-0.380922
O14	O	1.331998	0.689398	-0.047589
O15	O	1.665331	1.022731	0.285744
O16	O	1.153571	0.325240	-0.430685
O17	O	1.486904	0.658573	-0.097351
O18	O	1.820238	0.991907	0.235982
O19	O	1.048353	0.390744	-0.226040
O20	O	1.381686	0.724077	0.107293
O21	O	1.715020	1.057410	0.440627
O22	O	0.957531	0.212069	-0.336070
O23	O	1.290864	0.545403	-0.002737
O24	O	1.624197	0.878736	0.330596
O25	O	1.157178	0.399425	-0.344548
O26	O	1.490511	0.732759	-0.011214
O27	O	1.823845	1.066092	0.322119
O28	O	1.039986	0.218648	-0.425862
O29	O	1.373319	0.551981	-0.092528
O30	O	1.706652	0.885314	0.240805
O31	O	0.962291	0.309980	-0.222386
O32	O	1.295624	0.643313	0.110948
O33	O	1.628958	0.976647	0.444281
O34	O	0.843810	0.309570	-0.331184
O35	O	1.177143	0.642903	0.002150
O36	O	1.510476	0.976236	0.335483
O37	O	0.948925	0.398704	-0.535780
O38	O	1.282259	0.732037	-0.202447
O39	O	1.615592	1.065371	0.130886
O40	O	0.840100	0.390022	-0.417273
O41	O	1.173434	0.723356	-0.083939
O42	O	1.506767	1.056689	0.249394
O43	O	1.035090	0.324830	-0.539483
O44	O	1.368423	0.658163	-0.206149
O45	O	1.701756	0.991496	0.127184
O46	O	1.043457	0.496926	-0.339661
O47	O	1.376791	0.830259	-0.006328
O48	O	1.710124	1.163592	0.327006
O49	O	0.953686	0.496615	-0.422096
O50	O	1.287019	0.829948	-0.088762
O51	O	1.620352	1.163281	0.244571
C52	C	0.816518	0.348779	-0.373142
C53	C	1.149851	0.682112	-0.039809
C54	C	1.483184	1.015446	0.293525
C55	C	0.738593	0.345678	-0.369830
C56	C	1.071927	0.679011	-0.036497
C57	C	1.405260	1.012345	0.296836
C58	C	0.700075	0.386167	-0.413026
C59	C	1.033408	0.719500	-0.079693
C60	C	1.366741	1.052833	0.253641
C61	C	0.626856	0.383245	-0.409918
C62	C	0.960190	0.716578	-0.076584
C63	C	1.293523	1.049912	0.256749
C64	C	0.592159	0.339837	-0.363610
C65	C	0.925492	0.673170	-0.030276
C66	C	1.258825	1.006504	0.303057
C67	C	0.630683	0.299344	-0.320412
C68	C	0.964016	0.632677	0.012921
C69	C	1.297349	0.966011	0.346254
C70	C	0.703899	0.302263	-0.323525
C71	C	1.037233	0.635597	0.009809
C72	C	1.370566	0.968930	0.343142
C73	C	0.371187	0.328922	-0.351977
C74	C	0.704521	0.662255	-0.018643
C75	C	1.037854	0.995588	0.314690
C76	C	0.297965	0.326007	-0.348866
C77	C	0.631299	0.659340	-0.015533
C78	C	0.964632	0.992673	0.317801
C79	C	0.294144	0.409907	-0.438373
C80	C	0.627477	0.743241	-0.105039
C81	C	0.960811	1.076574	0.228294
C82	C	0.367362	0.412825	-0.441478
C83	C	0.700696	0.746158	-0.108145
C84	C	1.034029	1.079492	0.225189
C85	C	0.405880	0.372330	-0.398283
C86	C	0.739213	0.705663	-0.064950
C87	C	1.072547	1.038997	0.268383
C88	C	0.517318	0.336851	-0.360430
C89	C	0.850651	0.670184	-0.027096
C90	C	1.183985	1.003518	0.306237
C91	C	0.480719	0.375314	-0.401467
C92	C	0.814052	0.708647	-0.068134
C93	C	1.147386	1.041980	0.265200
C94	C	0.998575	0.519611	-0.380887
C95	C	1.331908	0.852945	-0.047554
C96	C	1.665241	1.186278	0.285779
C97	C	0.998599	0.589581	-0.380899
C98	C	1.331933	0.922914	-0.047565
C99	C	1.665266	1.256247	0.285768
C100	C	1.045381	0.622592	-0.338024
C101	C	1.378715	0.955925	-0.004691
C102	C	1.712048	1.289258	0.328643
C103	C	1.045413	0.688336	-0.338044
C104	C	1.378747	1.021669	-0.004711
C105	C	1.712080	1.355003	0.328622
C106	C	0.998652	0.721066	-0.380931
C107	C	1.331985	1.054400	-0.047598
C108	C	1.665318	1.387733	0.285735
C109	C	0.951866	0.688048	-0.423814
C110	C	1.285200	1.021381	-0.090481
C111	C	1.618533	1.354714	0.242852
C112	C	0.951840	0.622305	-0.423798
C113	C	1.285173	0.955638	-0.090465
C114	C	1.618507	1.288972	0.242869
N115	N	0.937095	0.822079	-0.383661
N116	N	1.270428	1.155413	-0.050328
N117	N	1.603762	1.488746	0.283005
N118	N	0.937122	0.884532	-0.383673
N119	N	1.270455	1.217865	-0.050340
N120	N	1.603789	1.551199	0.282994
C121	C	0.998729	0.919146	-0.380984
C122	C	1.332062	1.252479	-0.047651
C123	C	1.665395	1.585813	0.285682
N124	N	1.060309	0.888947	-0.378270
N125	N	1.393643	1.222281	-0.044937
N126	N	1.726976	1.555614	0.288396
N127	N	1.060282	0.826489	-0.378255
N128	N	1.393615	1.159822	-0.044922
N129	N	1.726948	1.493155	0.288411
C130	C	0.998675	0.792354	-0.380954
C131	C	1.332009	1.125687	-0.047621
C132	C	1.665342	1.459020	0.285712
C133	C	1.045550	1.023445	-0.338130
C134	C	1.378883	1.356778	-0.004796
C135	C	1.712216	1.690111	0.328537
C136	C	1.045583	1.089191	-0.338155
C137	C	1.378916	1.422524	-0.004822
C138	C	1.712249	1.755857	0.328512
C139	C	0.952030	1.088901	-0.423921
C140	C	1.285363	1.422234	-0.090588
C141	C	1.618696	1.755567	0.242746
C142	C	0.952002	1.023156	-0.423900
C143	C	1.285336	1.356490	-0.090566
C144	C	1.618669	1.689823	0.242767
C145	C	0.998762	0.990432	-0.381000
C146	C	1.332095	1.323766	-0.047667
C147	C	1.665428	1.657099	0.285666
C148	C	1.181523	0.363379	-0.388733
C149	C	1.514857	0.696712	-0.055400
C150	C	1.848190	1.030045	0.277934
C151	C	1.259447	0.366495	-0.392062
C152	C	1.592780	0.699829	-0.058728
C153	C	1.926113	1.033162	0.274605
C154	C	0.990897	0.362718	-0.563780
C155	C	1.324230	0.696052	-0.230447
C156	C	1.657563	1.029385	0.102887
C157	C	0.987586	0.365554	-0.641703
C158	C	1.320920	0.698887	-0.308370
C159	C	1.654253	1.032221	0.024963
C160	C	0.998774	1.191881	-0.380985
C161	C	1.332107	1.525214	-0.047652
C162	C	1.665441	1.858547	0.285681
C163	C	0.998821	1.121917	-0.381043
C164	C	1.332155	1.455250	-0.047710
C165	C	1.665488	1.788583	0.285623
C166	C	1.030890	0.328425	-0.680240
C167	C	1.364224	0.661759	-0.346907
C168	C	1.697557	0.995092	-0.013574
C169	C	1.027771	0.331087	-0.753457
C170	C	1.361105	0.664420	-0.420124
C171	C	1.694438	0.997754	-0.086790
C172	C	0.981352	0.370881	-0.788136
C173	C	1.314685	0.704214	-0.454802
C174	C	1.648018	1.037548	-0.121469
C175	C	0.938043	0.408011	-0.749593
C176	C	1.271377	0.741344	-0.416260
C177	C	1.604710	1.074678	-0.082926
C178	C	0.941159	0.405346	-0.676377
C179	C	1.274492	0.738679	-0.343044
C180	C	1.607826	1.072012	-0.009711
C181	C	0.969696	0.380850	-1.009102
C182	C	1.303030	0.714183	-0.675769
C183	C	1.636363	1.047516	-0.342436
C184	C	0.966585	0.383513	-1.082323
C185	C	1.299919	0.716847	-0.748990
C186	C	1.633252	1.050180	-0.415657
C187	C	1.056313	0.306588	-1.086182
C188	C	1.389646	0.639922	-0.752849
C189	C	1.722979	0.973255	-0.419516
C190	C	1.059427	0.303929	-1.012965
C191	C	1.392761	0.637263	-0.679632
C192	C	1.726094	0.970596	-0.346299
C193	C	1.016116	0.341057	-0.974429
C194	C	1.349450	0.674390	-0.641096
C195	C	1.682783	1.007724	-0.307762
C196	C	0.978164	0.373604	-0.862975
C197	C	1.311498	0.706937	-0.529641
C198	C	1.644831	1.040271	-0.196308
C199	C	1.019301	0.338330	-0.899591
C200	C	1.352634	0.671664	-0.566258
C201	C	1.685968	1.004997	-0.232924
C202	C	1.006443	0.349392	-0.198777
C203	C	1.339776	0.682726	0.134556
C204	C	1.673110	1.016059	0.467889
C205	C	1.009889	0.346385	-0.120860
C206	C	1.343222	0.679718	0.212473
C207	C	1.676556	1.013052	0.545806
H208	H	0.395608	0.448174	-0.479185
H209	H	0.728942	0.781507	-0.145852
H210	H	1.062275	1.114840	0.187482
H211	H	0.934440	0.411091	-0.977735
H212	H	1.267773	0.744424	-0.644402
H213	H	1.601106	1.077758	-0.311069
N214	N	0.593258	0.252537	-0.270455
N215	N	0.926591	0.585870	0.062878
N216	N	1.259925	0.919203	0.396212
H217	H	0.561679	0.223233	-0.297703
H218	H	0.895013	0.556566	0.035630
H219	H	1.228346	0.889900	0.368964
H220	H	0.564291	0.275740	-0.236641
H221	H	0.897625	0.609073	0.096693
H222	H	1.230958	0.942406	0.430026
N223	N	0.745448	0.258590	-0.276941
N224	N	1.078782	0.591923	0.056393
N225	N	1.412115	0.925256	0.389726
H226	H	0.712359	0.230648	-0.247132
H227	H	1.045692	0.563981	0.086201
H228	H	1.379025	0.897314	0.419535
H229	H	0.777190	0.284192	-0.245735
H230	H	1.110523	0.617526	0.087598
H231	H	1.443856	0.950859	0.420932
H232	H	0.262775	0.442875	-0.473540
H233	H	0.596109	0.776209	-0.140207
H234	H	0.929442	1.109542	0.193126
N235	N	1.095982	0.988139	-0.291870
N236	N	1.429315	1.321473	0.041463
N237	N	1.762648	1.654806	0.374796
H238	H	1.087270	0.997356	-0.241310
H239	H	1.420603	1.330689	0.092023
H240	H	1.753937	1.664022	0.425356
H241	H	1.145583	1.001944	-0.305002
H242	H	1.478917	1.335277	0.028332
H243	H	1.812250	1.668611	0.361665
N244	N	1.074485	0.291038	-0.795010
N245	N	1.407818	0.624371	-0.461677
N246	N	1.741151	0.957704	-0.128343
H247	H	1.105664	0.319020	-0.826772
H248	H	1.438998	0.652354	-0.493438
H249	H	1.772331	0.985687	-0.160105
H250	H	1.044678	0.261831	-0.824132
H251	H	1.378011	0.595165	-0.490798
H252	H	1.711344	0.928498	-0.157465
H253	H	1.097229	0.271527	-0.984735
H254	H	1.430562	0.604860	-0.651402
H255	H	1.763896	0.938193	-0.318069
H256	H	0.508973	0.410653	-0.439174
H257	H	0.842306	0.743987	-0.105840
H258	H	1.175640	1.077320	0.227493
N259	N	0.737493	0.432986	-0.462975
N260	N	1.070827	0.766319	-0.129642
N261	N	1.404160	1.099652	0.203692
H262	H	0.789721	0.428694	-0.458392
H263	H	1.123055	0.762027	-0.125059
H264	H	1.456388	1.095361	0.208274
H265	H	0.725135	0.477015	-0.451426
H266	H	1.058468	0.810349	-0.118093
H267	H	1.391802	1.143682	0.215240
N268	N	1.095822	0.587297	-0.291767
N269	N	1.429155	0.920630	0.041566
N270	N	1.762488	1.253964	0.374900
H271	H	1.125466	0.618190	-0.264612
H272	H	1.458800	0.951523	0.068721
H273	H	1.792133	1.284857	0.402054
H274	H	1.127016	0.562322	-0.321716
H275	H	1.460350	0.895655	0.011617
H276	H	1.793683	1.228988	0.344950
H277	H	1.083511	0.715219	-0.303131
H278	H	1.416845	1.048552	0.030202
H279	H	1.750178	1.381886	0.363535
N280	N	0.901427	0.723341	-0.470072
N281	N	1.234760	1.056675	-0.136739
N282	N	1.568094	1.390008	0.196595
H283	H	0.928520	0.752904	-0.503805
H284	H	1.261853	1.086237	-0.170472
H285	H	1.595186	1.419570	0.162862
H286	H	0.870193	0.748282	-0.440126
H287	H	1.203526	1.081615	-0.106792
H288	H	1.536860	1.414948	0.226541
H289	H	0.489059	0.301509	-0.322724
H290	H	0.822392	0.634843	0.010609
H291	H	1.155726	0.968176	0.343942
H292	H	0.928783	0.415920	-1.110556
H293	H	1.262116	0.749253	-0.777223
H294	H	1.595449	1.082587	-0.443889
H295	H	0.913744	0.595427	-0.458712
H296	H	1.247077	0.928760	-0.125379
H297	H	1.580411	1.262093	0.207954
N298	N	1.103023	0.266544	-1.127745
N299	N	1.436356	0.599878	-0.794412
N300	N	1.769690	0.933211	-0.461079
H301	H	1.094007	0.274269	-1.179389
H302	H	1.427341	0.607602	-0.846056
H303	H	1.760674	0.940936	-0.512723
H304	H	1.092685	0.220687	-1.114494
H305	H	1.426018	0.554020	-0.781161
H306	H	1.759351	0.887353	-0.447827
H307	H	0.402540	0.295952	-0.316799
H308	H	0.735873	0.629285	0.016534
H309	H	1.069206	0.962619	0.349868
N310	N	1.096047	1.124799	-0.291914
N311	N	1.429380	1.458133	0.041420
N312	N	1.762713	1.791466	0.374753
H313	H	1.125661	1.094090	-0.264736
H314	H	1.458994	1.427423	0.068598
H315	H	1.792327	1.760757	0.401931
H316	H	1.068924	1.149795	-0.258240
H317	H	1.402257	1.483129	0.075093
H318	H	1.735590	1.816462	0.408427
N319	N	0.901535	0.987545	-0.470131
N320	N	1.234868	1.320878	-0.136798
N321	N	1.568201	1.654211	0.196535
H322	H	0.928604	0.962550	-0.503853
H323	H	1.261938	1.295883	-0.170520
H324	H	1.595271	1.629217	0.162814
H325	H	0.871925	1.018291	-0.497257
H326	H	1.205259	1.351624	-0.163923
H327	H	1.538592	1.684957	0.169410
H328	H	0.595497	0.416216	-0.445091
H329	H	0.928831	0.749549	-0.111758
H330	H	1.262164	1.082882	0.221575
H331	H	0.900245	0.440410	-0.777834
H332	H	1.233578	0.773743	-0.444500
H333	H	1.566912	1.107076	-0.111167
H334	H	1.057093	0.305927	-0.871353
H335	H	1.390426	0.639261	-0.538019
H336	H	1.723759	0.972594	-0.204686
H337	H	0.269717	0.290652	-0.311161
H338	H	0.603050	0.623985	0.022173
H339	H	0.936383	0.957318	0.355506
H340	H	0.913958	1.115549	-0.458844
H341	H	1.247291	1.448883	-0.125510
H342	H	1.580625	1.782216	0.207823
N343	N	1.080962	0.285509	-0.642840
N344	N	1.414295	0.618842	-0.309507
N345	N	1.747629	0.952175	0.023827
H346	H	1.107920	0.262392	-0.678366
H347	H	1.441253	0.595725	-0.345033
H348	H	1.774587	0.929058	-0.011699
H349	H	1.053738	0.254131	-0.611250
H350	H	1.387072	0.587464	-0.277917
H351	H	1.720405	0.920797	0.055417
N352	N	0.894447	0.445385	-0.634808
N353	N	1.227780	0.778718	-0.301475
N354	N	1.561114	1.112051	0.031858
H355	H	0.864566	0.470998	-0.667885
H356	H	1.197900	0.804331	-0.334552
H357	H	1.531233	1.137665	-0.001219
H358	H	0.924251	0.474552	-0.605638
H359	H	1.257585	0.807885	-0.272305
H360	H	1.590918	1.141219	0.061029
H361	H	0.940372	0.406007	-0.891218
H362	H	1.273706	0.739341	-0.557885
H363	H	1.607039	1.072674	-0.224552
