data_functionalizedCrystal
_audit_creation_method	'MofGen! by Chris Wilmer'
_symmetry_space_group_name_H-M	'P1'
_symmetry_Int_Tables_number	1
_symmetry_cell_setting	triclinic
loop_
_symmetry_equiv_pos_as_xyz
  x,y,z
_cell_length_a	10.654562
_cell_length_b	15.538191
_cell_length_c	9.130313
_cell_angle_alpha	90.002806
_cell_angle_beta	89.996930
_cell_angle_gamma	65.881099
loop_
_atom_site_label
_atom_site_type_symbol
_atom_site_fract_x
_atom_site_fract_y
_atom_site_fract_z
O1	O	1.606134	0.131966	-0.121876
O2	O	1.234788	0.144521	-0.121856
O3	O	1.492747	0.001589	-0.121877
O4	O	1.348176	0.274898	-0.121856
O5	O	1.492743	0.001593	0.121722
O6	O	1.234784	0.144525	0.121742
O7	O	1.606130	0.131970	0.121722
Cu8	Cu	1.420457	0.138248	0.143975
Cu9	Cu	1.420462	0.138243	-0.144109
O10	O	1.348171	0.274902	0.121743
C11	C	1.188421	0.143599	-0.000055
C12	C	1.050271	0.140833	-0.000048
C13	C	0.985341	0.139546	0.132726
C14	C	0.855530	0.136954	0.132702
C15	C	0.855588	0.136943	-0.132883
C16	C	0.985401	0.139528	-0.132857
C17	C	0.985304	0.139556	0.286060
C18	C	0.855493	0.136965	0.286035
C19	C	1.507870	-0.033405	-0.000084
C20	C	1.552926	-0.137683	-0.000101
C21	C	1.105314	-0.428413	-0.000045
C22	C	1.147682	-0.526401	-0.000044
C23	C	1.385991	-0.547279	-0.000057
C24	C	1.343643	-0.449291	-0.000066
C25	C	1.203303	-0.389865	-0.000058
C26	C	1.441632	-0.410743	-0.000078
C27	C	1.399287	-0.312764	-0.000079
C28	C	1.258953	-0.253332	-0.000067
C29	C	1.160958	-0.291886	-0.000058
C30	C	1.581971	-0.470170	-0.000076
C31	C	1.679960	-0.431622	-0.000089
C32	C	1.637616	-0.333642	-0.000100
C33	C	1.497282	-0.274210	-0.000087
C34	C	1.735611	-0.295088	-0.000108
C35	C	1.693266	-0.197108	-0.000108
C36	C	1.454937	-0.176231	-0.000088
C37	C	1.652498	0.132892	-0.000083
C38	C	1.790647	0.135658	-0.000099
C39	C	1.333048	0.309897	-0.000054
C40	C	1.287992	0.414174	-0.000046
N41	N	1.420463	0.138251	0.346598
N42	N	1.420469	0.138233	-0.346732
C43	C	1.534698	0.074982	0.423240
C44	C	1.534700	0.074971	0.576577
C45	C	1.306223	0.201505	0.576615
C46	C	1.306218	0.201511	0.423281
C47	C	1.666611	0.001931	0.423220
C48	C	1.666612	0.001920	0.576557
H49	H	1.038271	0.140562	-0.240975
Br50	Br	1.112985	0.031383	0.384195
H51	H	0.778863	0.201874	0.344905
H52	H	1.213207	0.253010	0.639067
H53	H	1.500256	-0.595676	-0.000058
Br54	Br	0.767552	0.135156	-0.313115
Br55	Br	1.814933	0.028733	0.645929
H56	H	0.991035	-0.380025	-0.000049
H57	H	0.857924	0.068470	0.333609
H58	H	0.982857	0.208053	0.333642
Br59	Br	1.201479	-0.120358	-0.000047
Br60	Br	0.970494	-0.211228	-0.000069
Br61	Br	1.151167	0.287361	0.319262
Br62	Br	1.014681	-0.578713	-0.000011
H63	H	1.340658	-0.127843	-0.000092
Br64	Br	1.639441	-0.603144	-0.000059
H65	H	1.678914	-0.070258	0.381595
Br66	Br	1.870415	-0.512279	-0.000082
H67	H	1.849876	-0.343486	-0.000100
H68	H	1.773058	-0.165723	-0.000117
H69	H	1.747099	0.024808	0.375658
H70	H	1.667990	-0.066299	0.624100
