data_functionalizedCrystal
_audit_creation_method	'MofGen! by Chris Wilmer'
_symmetry_space_group_name_H-M	'P1'
_symmetry_Int_Tables_number	1
_symmetry_cell_setting	triclinic
loop_
_symmetry_equiv_pos_as_xyz
  x,y,z
_cell_length_a	23.532407
_cell_length_b	23.532357
_cell_length_c	22.610064
_cell_angle_alpha	89.998517
_cell_angle_beta	89.994501
_cell_angle_gamma	82.838519
loop_
_atom_site_label
_atom_site_type_symbol
_atom_site_fract_x
_atom_site_fract_y
_atom_site_fract_z
O1	O	0.755251	0.069129	-0.049154
O2	O	1.005251	0.319129	0.200846
O3	O	1.255251	0.569129	0.450846
O4	O	1.505251	0.819129	0.700846
O5	O	0.589386	0.079133	-0.049165
O6	O	0.839386	0.329133	0.200835
O7	O	1.089386	0.579133	0.450835
O8	O	1.339386	0.829133	0.700835
O9	O	0.677335	-0.008803	-0.049147
O10	O	0.927335	0.241197	0.200853
O11	O	1.177335	0.491197	0.450853
O12	O	1.427335	0.741197	0.700853
O13	O	0.667302	0.157065	-0.049172
O14	O	0.917302	0.407065	0.200828
O15	O	1.167302	0.657065	0.450828
O16	O	1.417302	0.907065	0.700828
O17	O	0.677319	-0.008790	0.049222
O18	O	0.927319	0.241210	0.299222
O19	O	1.177319	0.491210	0.549222
O20	O	1.427319	0.741210	0.799222
O21	O	0.589370	0.079145	0.049205
O22	O	0.839370	0.329145	0.299205
O23	O	1.089370	0.579145	0.549205
O24	O	1.339370	0.829145	0.799205
O25	O	0.755236	0.069142	0.049215
O26	O	1.005236	0.319142	0.299215
O27	O	1.255236	0.569142	0.549215
O28	O	1.505236	0.819142	0.799215
Zn29	Zn	0.672300	0.074146	0.064828
Zn30	Zn	0.922300	0.324146	0.314828
Zn31	Zn	1.172300	0.574146	0.564828
Zn32	Zn	1.422300	0.824146	0.814828
Zn33	Zn	0.672321	0.074129	-0.064778
Zn34	Zn	0.922321	0.324129	0.185222
Zn35	Zn	1.172321	0.574129	0.435222
Zn36	Zn	1.422321	0.824129	0.685222
O37	O	0.667286	0.157077	0.049197
O38	O	0.917286	0.407077	0.299197
O39	O	1.167286	0.657077	0.549197
O40	O	1.417286	0.907077	0.799197
C41	C	0.568162	0.078884	0.000019
C42	C	0.818162	0.328884	0.250019
C43	C	1.068162	0.578884	0.500019
C44	C	1.318162	0.828884	0.750019
C45	C	0.504945	0.078118	0.000015
C46	C	0.754945	0.328118	0.250015
C47	C	1.004945	0.578118	0.500015
C48	C	1.254945	0.828118	0.750015
C49	C	0.238788	0.022922	0.000040
C50	C	0.488788	0.272922	0.250040
C51	C	0.738788	0.522922	0.500040
C52	C	0.988788	0.772922	0.750040
C53	C	0.298188	0.023633	0.000040
C54	C	0.548188	0.273633	0.250040
C55	C	0.798188	0.523633	0.500040
C56	C	1.048188	0.773633	0.750040
O57	O	0.334940	-0.020154	0.000067
O58	O	0.584940	0.229846	0.250067
O59	O	0.834940	0.479846	0.500067
O60	O	1.084940	0.729846	0.750067
N61	N	0.320805	0.075911	0.000028
N62	N	0.570805	0.325911	0.250028
N63	N	0.820805	0.575911	0.500028
N64	N	1.070805	0.825911	0.750028
C65	C	0.284018	0.127480	0.000022
C66	C	0.534018	0.377480	0.250022
C67	C	0.784018	0.627480	0.500022
C68	C	1.034018	0.877480	0.750022
O69	O	0.308710	0.172012	0.000012
O70	O	0.558710	0.422012	0.250012
O71	O	0.808710	0.672012	0.500012
O72	O	1.058710	0.922012	0.750012
C73	C	0.224619	0.126768	0.000027
C74	C	0.474619	0.376768	0.250027
C75	C	0.724619	0.626768	0.500027
C76	C	0.974619	0.876768	0.750027
C77	C	0.202006	0.074487	0.000032
C78	C	0.452006	0.324487	0.250032
C79	C	0.702006	0.574487	0.500032
C80	C	0.952006	0.824487	0.750032
C81	C	0.216174	-0.029355	0.000046
C82	C	0.466174	0.220645	0.250046
C83	C	0.716174	0.470645	0.500046
C84	C	0.966174	0.720645	0.750046
C85	C	0.156778	-0.030066	0.000045
C86	C	0.406778	0.219934	0.250045
C87	C	0.656778	0.469934	0.500045
C88	C	0.906778	0.719934	0.750045
C89	C	0.119996	0.021499	0.000038
C90	C	0.369996	0.271499	0.250038
C91	C	0.619996	0.521499	0.500038
C92	C	0.869996	0.771499	0.750038
C93	C	0.142610	0.073776	0.000032
C94	C	0.392610	0.323776	0.250032
C95	C	0.642610	0.573776	0.500032
C96	C	0.892610	0.823776	0.750032
C97	C	0.187833	0.178337	0.000025
C98	C	0.437833	0.428337	0.250025
C99	C	0.687833	0.678337	0.500025
C100	C	0.937833	0.928337	0.750025
C101	C	0.128431	0.177620	0.000030
C102	C	0.378431	0.427620	0.250030
C103	C	0.628431	0.677620	0.500030
C104	C	0.878431	0.927620	0.750030
C105	C	0.105818	0.125339	0.000036
C106	C	0.355818	0.375339	0.250036
C107	C	0.605818	0.625339	0.500036
C108	C	0.855818	0.875339	0.750036
C109	C	0.046431	0.124630	0.000023
C110	C	0.296431	0.374630	0.250023
C111	C	0.546431	0.624630	0.500023
C112	C	0.796431	0.874630	0.750023
N113	N	0.023815	0.072353	0.000035
N114	N	0.273815	0.322353	0.250035
N115	N	0.523815	0.572353	0.500035
N116	N	0.773815	0.822353	0.750035
C117	C	0.060597	0.020787	0.000043
C118	C	0.310597	0.270787	0.250043
C119	C	0.560597	0.520787	0.500043
C120	C	0.810597	0.770787	0.750043
C121	C	0.408760	0.128971	0.000014
C122	C	0.658760	0.378971	0.250014
C123	C	0.908760	0.628971	0.500014
C124	C	1.158760	0.878971	0.750014
C125	C	0.468158	0.129684	0.000005
C126	C	0.718158	0.379684	0.250005
C127	C	0.968158	0.629684	0.500005
C128	C	1.218158	0.879684	0.750005
C129	C	0.482324	0.025837	0.000023
C130	C	0.732324	0.275837	0.250023
C131	C	0.982324	0.525837	0.500023
C132	C	1.232324	0.775837	0.750023
C133	C	0.422925	0.025125	0.000028
C134	C	0.672925	0.275125	0.250028
C135	C	0.922925	0.525125	0.500028
C136	C	1.172925	0.775125	0.750028
C137	C	0.386143	0.076694	0.000026
C138	C	0.636143	0.326694	0.250026
C139	C	0.886143	0.576694	0.500026
C140	C	1.136143	0.826694	0.750026
C141	C	-0.064140	0.019297	0.000040
C142	C	0.185860	0.269297	0.250040
C143	C	0.435860	0.519297	0.500040
C144	C	0.685860	0.769297	0.750040
C145	C	-0.123542	0.018591	0.000037
C146	C	0.126458	0.268591	0.250037
C147	C	0.376458	0.518591	0.500037
C148	C	0.626458	0.768591	0.750037
C149	C	-0.137702	0.122438	0.000022
C150	C	0.112298	0.372438	0.250022
C151	C	0.362298	0.622438	0.500022
C152	C	0.612298	0.872438	0.750022
C153	C	-0.078306	0.123145	0.000022
C154	C	0.171694	0.373145	0.250022
C155	C	0.421694	0.623145	0.500022
C156	C	0.671694	0.873145	0.750022
C157	C	-0.041525	0.071570	0.000033
C158	C	0.208475	0.321570	0.250033
C159	C	0.458475	0.571570	0.500033
C160	C	0.708475	0.821570	0.750033
O161	O	0.009644	0.168394	-0.000001
O162	O	0.259644	0.418394	0.249999
O163	O	0.509644	0.668394	0.499999
O164	O	0.759644	0.918394	0.749999
O165	O	0.035897	-0.023737	0.000060
O166	O	0.285897	0.226263	0.250060
O167	O	0.535897	0.476263	0.500060
O168	O	0.785897	0.726263	0.750060
C169	C	0.677076	-0.030013	0.000039
C170	C	0.927076	0.219987	0.250039
C171	C	1.177076	0.469987	0.500039
C172	C	1.427076	0.719987	0.750039
C173	C	0.676322	-0.093232	0.000045
C174	C	0.926322	0.156768	0.250045
C175	C	1.176322	0.406768	0.500045
C176	C	1.426322	0.656768	0.750045
C177	C	0.671593	-0.485250	-0.053608
C178	C	0.921593	-0.235250	0.196392
C179	C	1.171593	0.014750	0.446392
C180	C	1.421593	0.264750	0.696392
C181	C	0.670876	-0.544649	-0.053612
C182	C	0.920876	-0.294649	0.196388
C183	C	1.170876	-0.044649	0.446388
C184	C	1.420876	0.205351	0.696388
O185	O	0.670493	-0.575372	-0.099214
O186	O	0.920493	-0.325372	0.150786
O187	O	1.170493	-0.075372	0.400786
O188	O	1.420493	0.174628	0.650786
N189	N	0.670512	-0.574354	0.000009
N190	N	0.920512	-0.324354	0.250009
N191	N	1.170512	-0.074354	0.500009
N192	N	1.420512	0.175646	0.750009
C193	C	0.670859	-0.544654	0.053636
C194	C	0.920859	-0.294654	0.303636
C195	C	1.170859	-0.044654	0.553636
C196	C	1.420859	0.205346	0.803636
O197	O	0.670483	-0.575374	0.099244
O198	O	0.920483	-0.325374	0.349244
O199	O	1.170483	-0.075374	0.599244
O200	O	1.420483	0.174626	0.849244
C201	C	0.671573	-0.485255	0.053639
C202	C	0.921573	-0.235255	0.303639
C203	C	1.171573	0.014745	0.553639
C204	C	1.421573	0.264745	0.803639
C205	C	0.671942	-0.455555	0.000015
C206	C	0.921942	-0.205555	0.250015
C207	C	1.171942	0.044445	0.500015
C208	C	1.421942	0.294445	0.750015
C209	C	0.671963	-0.455549	-0.107228
C210	C	0.921963	-0.205549	0.142772
C211	C	1.171963	0.044451	0.392772
C212	C	1.421963	0.294451	0.642772
C213	C	0.672681	-0.396154	-0.107224
C214	C	0.922681	-0.146154	0.142776
C215	C	1.172681	0.103846	0.392776
C216	C	1.422681	0.353846	0.642776
C217	C	0.673030	-0.366459	-0.053601
C218	C	0.923030	-0.116459	0.196399
C219	C	1.173030	0.133541	0.446399
C220	C	1.423030	0.383541	0.696399
C221	C	0.672661	-0.396160	0.000018
C222	C	0.922661	-0.146160	0.250018
C223	C	1.172661	0.103840	0.500018
C224	C	1.422661	0.353840	0.750018
C225	C	0.671916	-0.455557	0.107265
C226	C	0.921916	-0.205557	0.357265
C227	C	1.171916	0.044443	0.607265
C228	C	1.421916	0.294443	0.857265
C229	C	0.672629	-0.396154	0.107263
C230	C	0.922629	-0.146154	0.357263
C231	C	1.172629	0.103846	0.607263
C232	C	1.422629	0.353846	0.857263
C233	C	0.672998	-0.366454	0.053640
C234	C	0.922998	-0.116454	0.303640
C235	C	1.172998	0.133546	0.553640
C236	C	1.422998	0.383546	0.803640
C237	C	0.673728	-0.307070	0.053645
C238	C	0.923728	-0.057070	0.303645
C239	C	1.173728	0.192930	0.553645
C240	C	1.423728	0.442930	0.803645
N241	N	0.674092	-0.277366	0.000025
N242	N	0.924092	-0.027366	0.250025
N243	N	1.174092	0.222634	0.500025
N244	N	1.424092	0.472634	0.750025
C245	C	0.673743	-0.307061	-0.053598
C246	C	0.923743	-0.057061	0.196402
C247	C	1.173743	0.192939	0.446402
C248	C	1.423743	0.442939	0.696402
C249	C	0.669361	-0.669396	0.053626
C250	C	0.919361	-0.419396	0.303626
C251	C	1.169361	-0.169396	0.553626
C252	C	1.419361	0.080604	0.803626
C253	C	0.668652	-0.728794	0.053624
C254	C	0.918652	-0.478794	0.303624
C255	C	1.168652	-0.228794	0.553624
C256	C	1.418652	0.021206	0.803624
C257	C	0.668668	-0.728785	-0.053624
C258	C	0.918668	-0.478785	0.196376
C259	C	1.168668	-0.228785	0.446376
C260	C	1.418668	0.021215	0.696376
C261	C	0.669381	-0.669386	-0.053621
C262	C	0.919381	-0.419386	0.196379
C263	C	1.169381	-0.169386	0.446379
C264	C	1.419381	0.080614	0.696379
C265	C	0.669725	-0.639692	0.000005
C266	C	0.919725	-0.389692	0.250005
C267	C	1.169725	-0.139692	0.500005
C268	C	1.419725	0.110308	0.750005
C269	C	0.675252	-0.182326	-0.053587
C270	C	0.925252	0.067674	0.196413
C271	C	1.175252	0.317674	0.446413
C272	C	1.425252	0.567674	0.696413
C273	C	0.675973	-0.122926	-0.053578
C274	C	0.925973	0.127074	0.196422
C275	C	1.175973	0.377074	0.446422
C276	C	1.425973	0.627074	0.696422
C277	C	0.675954	-0.122940	0.053669
C278	C	0.925954	0.127060	0.303669
C279	C	1.175954	0.377060	0.553669
C280	C	1.425954	0.627060	0.803669
C281	C	0.675236	-0.182336	0.053661
C282	C	0.925236	0.067664	0.303661
C283	C	1.175236	0.317664	0.553661
C284	C	1.425236	0.567664	0.803661
C285	C	0.674883	-0.212027	0.000028
C286	C	0.924883	0.037973	0.250028
C287	C	1.174883	0.287973	0.500028
C288	C	1.424883	0.537973	0.750028
O289	O	0.674109	-0.276310	0.099224
O290	O	0.924109	-0.026310	0.349224
O291	O	1.174109	0.223690	0.599224
O292	O	1.424109	0.473690	0.849224
O293	O	0.674112	-0.276332	-0.099199
O294	O	0.924112	-0.026332	0.150801
O295	O	1.174112	0.223668	0.400801
O296	O	1.424112	0.473668	0.650801
C297	C	0.776459	0.069390	0.000030
C298	C	1.026459	0.319390	0.250030
C299	C	1.276459	0.569390	0.500030
C300	C	1.526459	0.819390	0.750030
C301	C	0.839676	0.070156	0.000030
C302	C	1.089676	0.320156	0.250030
C303	C	1.339676	0.570156	0.500030
C304	C	1.589676	0.820156	0.750030
C305	C	0.667545	0.178288	0.000010
C306	C	0.917545	0.428288	0.250010
C307	C	1.167545	0.678288	0.500010
C308	C	1.417545	0.928288	0.750010
C309	C	0.668300	0.241506	0.000000
C310	C	0.918300	0.491506	0.250000
C311	C	1.168300	0.741506	0.500000
C312	C	1.418300	0.991506	0.750000
N313	N	0.672291	0.074157	0.153280
N314	N	0.922291	0.324157	0.403280
N315	N	1.172291	0.574157	0.653280
N316	N	1.422291	0.824157	0.903280
N317	N	0.672335	0.074113	-0.153230
N318	N	0.922335	0.324113	0.096770
N319	N	1.172335	0.574113	0.346770
N320	N	1.422335	0.824113	0.596770
C321	C	0.711266	0.035197	0.561930
C322	C	0.961266	0.285197	0.811930
C323	C	1.211266	0.535197	1.061930
C324	C	1.461266	0.785197	1.311930
C325	C	0.711269	0.035193	0.623850
C326	C	0.961269	0.285193	0.873850
C327	C	1.211269	0.535193	1.123850
C328	C	1.461269	0.785193	1.373850
O329	O	0.744384	0.002076	0.655875
O330	O	0.994384	0.252076	0.905875
O331	O	1.244384	0.502076	1.155875
O332	O	1.494384	0.752076	1.405875
N333	N	0.672321	0.074117	0.654818
N334	N	0.922321	0.324117	0.904818
N335	N	1.172321	0.574117	1.154818
N336	N	1.422321	0.824117	1.404818
C337	C	0.633362	0.113044	0.623862
C338	C	0.883362	0.363044	0.873862
C339	C	1.133362	0.613044	1.123862
C340	C	1.383362	0.863044	1.373862
O341	O	0.600233	0.146151	0.655889
O342	O	0.850233	0.396151	0.905889
O343	O	1.100233	0.646151	1.155889
O344	O	1.350233	0.896151	1.405889
C345	C	0.633357	0.113045	0.561944
C346	C	0.883357	0.363045	0.811944
C347	C	1.133357	0.613045	1.061944
C348	C	1.383357	0.863045	1.311944
C349	C	0.672312	0.074122	0.530979
C350	C	0.922312	0.324122	0.780979
C351	C	1.172312	0.574122	1.030979
C352	C	1.422312	0.824122	1.280979
C353	C	0.750218	-0.003723	0.530965
C354	C	1.000218	0.246277	0.780965
C355	C	1.250218	0.496277	1.030965
C356	C	1.500218	0.746277	1.280965
C357	C	0.750216	-0.003718	0.469049
C358	C	1.000216	0.246282	0.719049
C359	C	1.250216	0.496282	0.969049
C360	C	1.500216	0.746282	1.219049
C361	C	0.711262	0.035207	0.438098
C362	C	0.961262	0.285207	0.688098
C363	C	1.211262	0.535207	0.938098
C364	C	1.461262	0.785207	1.188098
C365	C	0.672310	0.074127	0.469063
C366	C	0.922310	0.324127	0.719063
C367	C	1.172310	0.574127	0.969063
C368	C	1.422310	0.824127	1.219063
C369	C	0.594397	0.151969	0.530990
C370	C	0.844397	0.401969	0.780990
C371	C	1.094397	0.651969	1.030990
C372	C	1.344397	0.901969	1.280990
C373	C	0.594395	0.151966	0.469067
C374	C	0.844395	0.401966	0.719067
C375	C	1.094395	0.651966	0.969067
C376	C	1.344395	0.901966	1.219067
C377	C	0.633350	0.113043	0.438102
C378	C	0.883350	0.363043	0.688102
C379	C	1.133350	0.613043	0.938102
C380	C	1.383350	0.863043	1.188102
C381	C	0.633354	0.113057	0.376197
C382	C	0.883354	0.363057	0.626197
C383	C	1.133354	0.613057	0.876197
C384	C	1.383354	0.863057	1.126197
N385	N	0.672303	0.074133	0.345229
N386	N	0.922303	0.324133	0.595229
N387	N	1.172303	0.574133	0.845229
N388	N	1.422303	0.824133	1.095229
C389	C	0.711257	0.035208	0.376180
C390	C	0.961257	0.285208	0.626180
C391	C	1.211257	0.535208	0.876180
C392	C	1.461257	0.785208	1.126180
C393	C	0.633376	0.113038	0.753896
C394	C	0.883376	0.363038	1.003896
C395	C	1.133376	0.613038	1.253896
C396	C	1.383376	0.863038	1.503896
C397	C	0.633383	0.113041	0.815814
C398	C	0.883383	0.363041	1.065814
C399	C	1.133383	0.613041	1.315814
C400	C	1.383383	0.863041	1.565814
C401	C	0.711289	0.035188	0.815797
C402	C	0.961289	0.285188	1.065797
C403	C	1.211289	0.535188	1.315797
C404	C	1.461289	0.785188	1.565797
C405	C	0.711284	0.035189	0.753878
C406	C	0.961284	0.285189	1.003878
C407	C	1.211284	0.535189	1.253878
C408	C	1.461284	0.785189	1.503878
C409	C	0.672324	0.074114	0.722928
C410	C	0.922324	0.324114	0.972928
C411	C	1.172324	0.574114	1.222928
C412	C	1.422324	0.824114	1.472928
C413	C	0.711249	0.035222	0.246152
C414	C	0.961249	0.285222	0.496152
C415	C	1.211249	0.535222	0.746152
C416	C	1.461249	0.785222	0.996152
C417	C	0.711245	0.035232	0.184231
C418	C	0.961245	0.285232	0.434231
C419	C	1.211245	0.535232	0.684231
C420	C	1.461245	0.785232	0.934231
C421	C	0.633336	0.113082	0.184254
C422	C	0.883336	0.363082	0.434254
C423	C	1.133336	0.613082	0.684254
C424	C	1.383336	0.863082	0.934254
C425	C	0.633342	0.113074	0.246169
C426	C	0.883342	0.363074	0.496169
C427	C	1.133342	0.613074	0.746169
C428	C	1.383342	0.863074	0.996169
C429	C	0.672301	0.074139	0.277117
C430	C	0.922301	0.324139	0.527117
C431	C	1.172301	0.574139	0.777117
C432	C	1.422301	0.824139	1.027117
O433	O	0.600255	0.146155	0.344132
O434	O	0.850255	0.396155	0.594132
O435	O	1.100255	0.646155	0.844132
O436	O	1.350255	0.896155	1.094132
O437	O	0.744375	0.002101	0.344146
O438	O	0.994375	0.252101	0.594146
O439	O	1.244375	0.502101	0.844146
O440	O	1.494375	0.752101	1.094146
H441	H	0.486564	0.172256	-0.000008
H442	H	0.736564	0.422256	0.249992
H443	H	0.986564	0.672256	0.499992
H444	H	1.236564	0.922256	0.749992
F445	F	0.671591	-0.487144	-0.164306
F446	F	0.921591	-0.237144	0.085694
F447	F	1.171591	0.012856	0.335694
F448	F	1.421591	0.262856	0.585694
H449	H	0.676241	-0.098753	0.097328
H450	H	0.926241	0.151247	0.347328
H451	H	1.176241	0.401247	0.597328
H452	H	1.426241	0.651247	0.847328
H453	H	0.781939	-0.035423	0.556159
H454	H	1.031939	0.214577	0.806159
H455	H	1.281939	0.464577	1.056159
H456	H	1.531939	0.714577	1.306159
H457	H	-0.167661	0.164421	0.000013
H458	H	0.082339	0.414421	0.250013
H459	H	0.332339	0.664421	0.500013
H460	H	0.582339	0.914421	0.750013
H461	H	0.676275	-0.098747	-0.097247
H462	H	0.926275	0.151253	0.152753
H463	H	1.176275	0.401253	0.402753
H464	H	1.426275	0.651253	0.652753
H465	H	0.246117	-0.071348	0.000054
H466	H	0.496117	0.178652	0.250054
H467	H	0.746117	0.428652	0.500054
H468	H	0.996117	0.678652	0.750054
H469	H	0.743007	0.003493	0.841008
H470	H	0.993007	0.253493	1.091008
H471	H	1.243007	0.503493	1.341008
H472	H	1.493007	0.753493	1.591008
H473	H	0.672980	-0.371977	-0.150890
H474	H	0.922980	-0.121977	0.099110
H475	H	1.172980	0.128023	0.349110
H476	H	1.422980	0.378023	0.599110
F477	F	0.591929	0.154474	0.848763
F478	F	0.841929	0.404474	1.098763
F479	F	1.091929	0.654474	1.348763
F480	F	1.341929	0.904474	1.598763
F481	F	0.089288	0.232509	0.000030
F482	F	0.339288	0.482509	0.250030
F483	F	0.589288	0.732509	0.500030
F484	F	0.839288	0.982509	0.750030
H485	H	0.562676	0.183663	0.556193
H486	H	0.812676	0.433663	0.806193
H487	H	1.062676	0.683663	1.056193
H488	H	1.312676	0.933663	1.306193
H489	H	0.404518	-0.017447	0.000033
H490	H	0.654518	0.232553	0.250033
H491	H	0.904518	0.482553	0.500033
H492	H	1.154518	0.732553	0.750033
H493	H	0.668381	-0.752973	-0.097287
H494	H	0.918381	-0.502973	0.152713
H495	H	1.168381	-0.252973	0.402713
H496	H	1.418381	-0.002973	0.652713
H497	H	0.378815	0.170968	0.000007
H498	H	0.628815	0.420968	0.250007
H499	H	0.878815	0.670968	0.500007
H500	H	1.128815	0.920968	0.750007
F501	F	0.674876	-0.213918	-0.110668
F502	F	0.924876	0.036082	0.139332
F503	F	1.174876	0.286082	0.389332
F504	F	1.424876	0.536082	0.639332
F505	F	0.791674	-0.045147	0.436100
F506	F	1.041674	0.204853	0.686100
F507	F	1.291674	0.454853	0.936100
F508	F	1.541674	0.704853	1.186100
H509	H	0.668359	-0.752973	0.097289
H510	H	0.918359	-0.502973	0.347289
H511	H	1.168359	-0.252973	0.597289
H512	H	1.418359	-0.002973	0.847289
F513	F	0.552925	0.193396	0.436132
F514	F	0.802925	0.443396	0.686132
F515	F	1.052925	0.693396	0.936132
F516	F	1.302925	0.943396	1.186132
F517	F	-0.147604	-0.037056	0.000040
F518	F	0.102396	0.212944	0.250040
F519	F	0.352396	0.462944	0.500040
F520	F	0.602396	0.712944	0.750040
H521	H	-0.034199	-0.022700	0.000049
H522	H	0.215801	0.227300	0.250049
H523	H	0.465801	0.477300	0.500049
H524	H	0.715801	0.727300	0.750049
H525	H	0.669681	-0.645208	-0.097287
H526	H	0.919681	-0.395208	0.152713
H527	H	1.169681	-0.145208	0.402713
H528	H	1.419681	0.104792	0.652713
F529	F	0.211887	0.233982	0.000019
F530	F	0.461887	0.483982	0.250019
F531	F	0.711887	0.733982	0.500019
F532	F	0.961887	0.983982	0.750019
F533	F	0.591910	0.154474	0.720962
F534	F	0.841910	0.404474	0.970962
F535	F	1.091910	0.654474	1.220962
F536	F	1.341910	0.904474	1.470962
F537	F	0.521481	-0.029044	0.000031
F538	F	0.771481	0.220956	0.250031
F539	F	1.021481	0.470956	0.500031
F540	F	1.271481	0.720956	0.750031
F541	F	0.132719	-0.085711	0.000047
F542	F	0.382719	0.164289	0.250047
F543	F	0.632719	0.414289	0.500047
F544	F	0.882719	0.664289	0.750047
H545	H	-0.059893	0.165716	0.000016
H546	H	0.190107	0.415716	0.250016
H547	H	0.440107	0.665716	0.500016
H548	H	0.690107	0.915716	0.750016
F549	F	0.669732	-0.637799	0.110707
F550	F	0.919732	-0.387799	0.360707
F551	F	1.169732	-0.137799	0.610707
F552	F	1.419732	0.112201	0.860707
H553	H	0.671615	-0.479729	0.150931
H554	H	0.921615	-0.229729	0.400931
H555	H	1.171615	0.020271	0.650931
H556	H	1.421615	0.270271	0.900931
F557	F	0.672995	-0.364554	0.164342
F558	F	0.922995	-0.114554	0.414342
F559	F	1.172995	0.135446	0.664342
F560	F	1.422995	0.385446	0.914342
H561	H	0.743005	0.003495	0.728670
H562	H	0.993005	0.253495	0.978670
H563	H	1.243005	0.503495	1.228670
H564	H	1.493005	0.753495	1.478670
F565	F	0.674853	-0.213947	0.110733
F566	F	0.924853	0.036053	0.360733
F567	F	1.174853	0.286053	0.610733
F568	F	1.424853	0.536053	0.860733
F569	F	0.752709	-0.006196	0.151279
F570	F	1.002709	0.243804	0.401279
F571	F	1.252709	0.493804	0.651279
F572	F	1.502709	0.743804	0.901279
H573	H	0.601627	0.144774	0.271381
H574	H	0.851627	0.394774	0.521381
H575	H	1.101627	0.644774	0.771381
H576	H	1.351627	0.894774	1.021381
H577	H	0.742972	0.003517	0.271343
H578	H	0.992972	0.253517	0.521343
H579	H	1.242972	0.503517	0.771343
H580	H	1.492972	0.753517	1.021343
F581	F	0.591881	0.154508	0.151304
F582	F	0.841881	0.404508	0.401304
F583	F	1.091881	0.654508	0.651304
F584	F	1.341881	0.904508	0.901304
