data_functionalizedCrystal
_audit_creation_method	'MofGen! by Chris Wilmer'
_symmetry_space_group_name_H-M	'P1'
_symmetry_Int_Tables_number	1
_symmetry_cell_setting	triclinic
loop_
_symmetry_equiv_pos_as_xyz
  x,y,z
_cell_length_a	27.732048
_cell_length_b	10.654550
_cell_length_c	9.730223
_cell_angle_alpha	90.000193
_cell_angle_beta	89.994683
_cell_angle_gamma	83.563779
loop_
_atom_site_label
_atom_site_type_symbol
_atom_site_fract_x
_atom_site_fract_y
_atom_site_fract_z
O1	O	-0.641855	-0.149411	-0.114110
O2	O	-0.501203	-0.172130	-0.114151
O3	O	-0.574763	0.022105	-0.114124
O4	O	-0.568295	-0.343646	-0.114136
O5	O	-0.574762	0.022100	0.114456
O6	O	-0.501202	-0.172135	0.114429
O7	O	-0.641854	-0.149416	0.114470
Zn8	Zn	-0.571528	-0.160776	0.150742
Zn9	Zn	-0.571529	-0.160770	-0.150422
O10	O	-0.568294	-0.343651	0.114444
C11	C	-0.483193	-0.171655	0.000134
C12	C	-0.429529	-0.170219	0.000118
C13	C	-0.574287	0.068880	0.000164
C14	C	-0.572867	0.208264	0.000159
C15	C	-0.659864	-0.149890	0.000182
C16	C	-0.713528	-0.151326	0.000189
C17	C	-0.091372	-0.275959	0.000174
C18	C	0.110321	-0.270631	0.000187
O19	O	0.140974	-0.367322	0.000243
N20	N	0.130162	-0.155458	0.000188
C21	C	0.099576	-0.041609	0.000195
O22	O	0.121080	0.056475	0.000211
C23	C	-0.102116	-0.046938	0.000193
C24	C	-0.121954	-0.162118	0.000177
C25	C	-0.111211	-0.391130	0.000160
C26	C	-0.161631	-0.392461	0.000150
C27	C	-0.192213	-0.278620	0.000153
C28	C	-0.172374	-0.163449	0.000167
C29	C	-0.132701	0.066910	0.000210
C30	C	-0.183126	0.065567	0.000213
C31	C	-0.202964	-0.049613	0.000197
C32	C	-0.253376	-0.050940	0.000159
N33	N	-0.273217	-0.166113	0.000158
C34	C	-0.242635	-0.279953	0.000155
C35	C	0.205467	-0.038819	0.000194
C36	C	0.255890	-0.037486	0.000192
C37	C	0.266631	-0.266509	0.000186
C38	C	0.216208	-0.267840	0.000178
C39	C	0.185626	-0.153992	0.000193
C40	C	-0.348522	-0.282739	0.000131
C41	C	-0.398947	-0.284060	0.000115
C42	C	-0.409684	-0.055038	0.000128
C43	C	-0.359263	-0.053716	0.000137
C44	C	-0.328683	-0.167577	0.000144
O45	O	-0.284058	0.045700	0.000118
O46	O	-0.264149	-0.378023	0.000170
C47	C	-0.040952	-0.274628	0.000185
C48	C	-0.021113	-0.159457	0.000199
C49	C	-0.051695	-0.045616	0.000202
C50	C	0.029309	-0.158124	0.000197
C51	C	0.059891	-0.271965	0.000194
C52	C	0.040050	-0.387138	0.000192
C53	C	-0.010370	-0.388469	0.000182
C54	C	-0.031854	0.069557	0.000203
C55	C	0.018567	0.070878	0.000212
C56	C	0.049148	-0.042962	0.000209
C57	C	-0.568769	-0.390426	0.000152
C58	C	-0.570190	-0.529810	0.000149
N59	N	-0.571531	-0.160780	0.356278
C60	C	-0.616177	0.289570	0.000175
C61	C	-0.614840	0.420535	0.000165
C62	C	-0.526876	0.388874	0.000128
C63	C	-0.528215	0.257912	0.000128
C64	C	-0.660830	0.239922	0.000206
C65	C	-0.704144	0.321230	0.000225
C66	C	-0.702806	0.452195	0.000215
C67	C	-0.658154	0.501852	0.000186
N68	N	-0.571530	-0.160756	-0.355959
C69	C	-0.604111	-0.074801	0.428216
C70	C	-0.604110	-0.074786	0.572099
C71	C	-0.538946	-0.246739	0.572093
C72	C	-0.538945	-0.246747	0.428213
C73	C	-0.636697	0.011166	0.356281
C74	C	-0.669281	0.097151	0.428219
C75	C	-0.669279	0.097166	0.572102
C76	C	-0.636694	0.011197	0.644047
H77	H	-0.415096	-0.377858	0.000102
H78	H	-0.116558	0.160702	0.000223
H79	H	-0.740498	0.280791	0.000213
H80	H	-0.512417	-0.316733	0.630680
H81	H	-0.512414	-0.316758	0.369641
O82	O	0.069742	-0.497757	-0.000053
C83	C	0.060692	-0.567767	-0.118421
H84	H	0.043688	-0.501141	-0.201168
H85	H	0.096294	-0.618819	-0.158151
H86	H	0.034777	-0.639952	-0.091660
O87	O	-0.700896	0.180581	0.358125
C88	C	-0.693895	0.162179	0.215706
H89	H	-0.676187	0.061997	0.196041
H90	H	-0.730444	0.176875	0.161009
H91	H	-0.669394	0.232781	0.174902
O92	O	-0.318772	-0.393260	-0.000055
C93	C	-0.289288	-0.399357	-0.118455
H94	H	-0.286390	-0.299735	-0.157908
H95	H	-0.251560	-0.446904	-0.091835
H96	H	-0.306071	-0.456360	-0.201361
O97	O	-0.744924	0.531000	0.000286
C98	C	-0.784619	0.459090	0.000276
H99	H	-0.772678	0.361096	0.043550
H100	H	-0.814991	0.508001	0.066652
H101	H	-0.798288	0.450025	-0.109378
H102	H	0.034713	0.164679	0.000214
H103	H	-0.056749	0.162261	0.000209
O104	O	-0.483474	0.436957	0.000293
C105	C	-0.457049	0.395351	0.118683
H106	H	-0.470525	0.304763	0.158155
H107	H	-0.416860	0.376390	0.092044
H108	H	-0.462392	0.471251	0.201583
O109	O	-0.656792	0.629049	0.000353
C110	C	-0.632231	0.664133	0.118743
H111	H	-0.607320	0.579424	0.158211
H112	H	-0.609715	0.743966	0.092105
H113	H	-0.659796	0.697380	0.201646
O114	O	-0.486112	0.179047	-0.000070
C115	C	-0.459036	0.201394	-0.118483
H116	H	-0.470567	0.300985	-0.157942
H117	H	-0.418755	0.191381	-0.091877
H118	H	-0.465892	0.129887	-0.201379
O119	O	-0.180836	-0.504434	-0.000039
C120	C	-0.165244	-0.573746	-0.118440
H121	H	-0.130165	-0.540186	-0.157907
H122	H	-0.158591	-0.678454	-0.091816
H123	H	-0.194365	-0.558647	-0.201338
H124	H	-0.086315	-0.483838	0.000163
O125	O	-0.029697	-0.500273	0.000346
C126	C	-0.058538	-0.507932	0.118739
H127	H	-0.070762	-0.408717	0.158220
H128	H	-0.091718	-0.557338	0.092097
H129	H	-0.036458	-0.563932	0.201631
H130	H	0.200059	-0.361630	0.000173
H131	H	-0.695807	0.167186	0.630672
O132	O	0.296392	-0.377015	0.000005
C133	C	0.325877	-0.383113	-0.118394
H134	H	0.328763	-0.283494	-0.157872
H135	H	0.363608	-0.430624	-0.091761
H136	H	0.309102	-0.440150	-0.201286
H137	H	-0.636702	0.011159	0.239124
O138	O	0.175833	0.071897	0.000138
C139	C	0.204165	0.173823	0.000171
H140	H	0.241682	0.141184	-0.043104
H141	H	0.185846	0.253530	-0.066193
H142	H	0.207874	0.209174	0.109832
O143	O	0.275180	0.074369	-0.000054
C144	C	0.304038	0.081993	-0.118420
H145	H	0.291898	0.016607	-0.201167
H146	H	0.299855	0.183286	-0.158152
H147	H	0.343696	0.052251	-0.091656
O148	O	-0.212882	0.176081	0.000038
C149	C	-0.242355	0.182189	-0.118368
H150	H	-0.245245	0.082572	-0.157846
H151	H	-0.280087	0.229721	-0.091746
H152	H	-0.225567	0.239213	-0.201257
H153	H	-0.661924	0.133286	0.000219
H154	H	-0.636693	0.011225	0.761206
O155	O	-0.340045	0.058244	-0.000046
C156	C	-0.355614	0.127569	-0.118450
H157	H	-0.390694	0.094045	-0.157934
H158	H	-0.362255	0.232279	-0.091822
H159	H	-0.326484	0.112445	-0.201335
H160	H	-0.434592	0.037648	0.000126
