data_functionalizedCrystal
_audit_creation_method	'MofGen! by Chris Wilmer'
_symmetry_space_group_name_H-M	'P1'
_symmetry_Int_Tables_number	1
_symmetry_cell_setting	triclinic
loop_
_symmetry_equiv_pos_as_xyz
  x,y,z
_cell_length_a	19.121102
_cell_length_b	19.121063
_cell_length_c	16.120297
_cell_angle_alpha	95.179432
_cell_angle_beta	90.563713
_cell_angle_gamma	90.126902
loop_
_atom_site_label
_atom_site_type_symbol
_atom_site_fract_x
_atom_site_fract_y
_atom_site_fract_z
Zn1	Zn	1.035783	-0.347015	-0.541312
Zn2	Zn	1.036635	-0.458791	-0.407594
Zn3	Zn	0.925017	-0.336083	-0.395761
Zn4	Zn	0.913533	-0.459183	-0.540754
O5	O	0.977742	-0.400268	-0.471355
O6	O	1.133771	-0.366254	-0.528760
O7	O	1.026990	-0.437775	-0.289383
O8	O	0.944160	-0.239237	-0.410349
O9	O	1.134396	-0.448375	-0.430518
O10	O	1.025540	-0.247269	-0.517285
O11	O	0.944985	-0.347622	-0.280689
O12	O	0.825619	-0.348001	-0.409808
O13	O	0.924588	-0.449042	-0.657469
O14	O	0.817182	-0.438442	-0.516334
O15	O	1.014405	-0.366633	-0.657879
O16	O	1.015855	-0.557139	-0.429977
O17	O	0.925413	-0.557427	-0.527809
C18	C	0.796023	-0.392078	-0.461727
C19	C	0.718281	-0.388593	-0.457629
C20	C	0.969498	-0.582772	-0.480136
C21	C	0.966035	-0.660852	-0.483923
C22	C	0.677384	-0.434107	-0.511085
C23	C	0.604337	-0.430822	-0.507238
C24	C	0.572189	-0.382027	-0.449930
C25	C	0.613092	-0.336508	-0.396471
C26	C	0.686137	-0.339789	-0.400323
C27	C	0.351859	-0.369756	-0.435533
C28	C	0.278808	-0.366480	-0.431684
C29	C	0.270059	-0.460794	-0.542452
C30	C	0.343106	-0.464074	-0.546295
C31	C	0.384002	-0.418553	-0.492840
C32	C	0.497524	-0.378670	-0.445994
C33	C	0.458666	-0.421907	-0.496780
C34	C	1.011528	-0.697364	-0.434813
C35	C	1.008274	-0.770729	-0.438380
C36	C	0.959523	-0.807580	-0.491054
C37	C	0.914027	-0.771062	-0.540170
C38	C	0.917285	-0.697699	-0.536606
C39	C	0.947332	-1.029097	-0.504364
C40	C	0.944077	-1.102466	-0.507922
C41	C	1.038325	-1.102127	-0.406133
C42	C	1.041576	-1.028763	-0.402570
C43	C	0.996083	-0.992252	-0.451689
C44	C	0.956194	-0.882570	-0.494700
C45	C	0.999415	-0.917263	-0.448047
C46	C	1.160171	-0.408490	-0.481021
C47	C	1.237911	-0.411994	-0.485140
C48	C	0.968120	-0.409101	-0.688763
C49	C	0.964020	-0.412865	-0.781410
C50	C	0.986036	-0.217053	-0.462559
C51	C	0.989570	-0.138978	-0.458811
C52	C	0.956509	-0.419720	-0.951034
C53	C	0.999122	-0.380612	-0.992525
C54	C	0.994943	-0.384426	-1.086910
C55	C	0.960687	-0.415906	-0.856641
C56	C	0.987369	-0.391421	-0.254792
C57	C	0.991613	-0.387465	-0.162144
H58	H	0.703553	-0.473844	-0.557749
H59	H	1.045320	-0.800454	-0.398389
H60	H	0.916892	-0.456063	-0.986395
H61	H	1.038743	-0.344266	-0.957161
H62	H	0.571042	-0.467886	-0.550767
H63	H	0.910289	-0.999376	-0.544357
N64	N	0.375931	-0.513924	-0.604838
N65	N	0.339407	-0.554559	-0.652563
H66	H	0.362589	-0.589769	-0.693908
N67	N	1.084787	-1.139434	-0.355966
N68	N	1.081873	-1.204936	-0.359151
H69	H	1.114689	-1.231284	-0.323721
N70	N	1.061335	-0.659726	-0.381018
N71	N	1.106405	-0.621940	-0.410757
H72	H	1.141585	-0.595359	-0.372765
H73	H	0.719435	-0.302723	-0.356797
N74	N	0.228285	-0.507296	-0.597046
N75	N	0.186805	-0.548995	-0.567636
H76	H	0.157302	-0.581839	-0.606196
N77	N	0.245980	-0.316629	-0.373136
N78	N	0.282501	-0.275989	-0.325414
H79	H	0.259316	-0.240783	-0.284066
H80	H	0.385148	-0.332695	-0.391999
H81	H	0.586911	-0.296774	-0.349813
N82	N	0.491513	-0.471750	-0.555305
N83	N	0.531554	-0.517101	-0.530180
H84	H	0.554759	-0.552306	-0.571511
H85	H	0.471341	-0.338942	-0.399332
N86	N	1.091376	-0.991134	-0.348757
N87	N	1.131993	-1.023743	-0.304911
H88	H	1.167164	-0.997168	-0.266902
H89	H	0.874336	-0.801072	-0.583062
N90	N	0.894266	-1.140098	-0.561727
N91	N	0.853648	-1.107491	-0.605575
H92	H	0.818469	-1.134068	-0.643571
H93	H	0.880240	-0.667971	-0.576598
N94	N	1.049201	-0.879614	-0.394239
N95	N	1.028786	-0.835450	-0.337821
H96	H	1.063945	-0.808853	-0.299815
N97	N	0.906394	-0.920226	-0.548487
N98	N	0.861333	-0.958018	-0.518739
H99	H	0.826163	-0.984616	-0.556727
