data_functionalizedCrystal
_audit_creation_method	'MofGen! by Chris Wilmer'
_symmetry_space_group_name_H-M	'P1'
_symmetry_Int_Tables_number	1
_symmetry_cell_setting	triclinic
loop_
_symmetry_equiv_pos_as_xyz
  x,y,z
_cell_length_a	19.288864
_cell_length_b	15.538191
_cell_length_c	18.366186
_cell_angle_alpha	89.995484
_cell_angle_beta	89.977106
_cell_angle_gamma	65.204172
loop_
_atom_site_label
_atom_site_type_symbol
_atom_site_fract_x
_atom_site_fract_y
_atom_site_fract_z
O1	O	0.891965	0.117639	-0.060769
O2	O	1.391965	0.617639	0.439231
O3	O	0.685740	0.133508	-0.060717
O4	O	1.185740	0.633508	0.439283
O5	O	0.828996	-0.011726	-0.060756
O6	O	1.328996	0.488274	0.439244
O7	O	0.748709	0.262873	-0.060729
O8	O	1.248709	0.762873	0.439271
O9	O	0.828980	-0.011734	0.060343
O10	O	1.328980	0.488266	0.560343
O11	O	0.685724	0.133501	0.060382
O12	O	1.185724	0.633501	0.560382
O13	O	0.891949	0.117632	0.060331
O14	O	1.391949	0.617632	0.560331
Zn15	Zn	0.788834	0.125565	0.079584
Zn16	Zn	1.288834	0.625565	0.579584
Zn17	Zn	0.788855	0.125574	-0.079970
Zn18	Zn	1.288855	0.625574	0.420030
O19	O	0.748693	0.262866	0.060370
O20	O	1.248693	0.762866	0.560370
C21	C	0.659983	0.132994	-0.000161
C22	C	1.159983	0.632994	0.499839
C23	C	0.583263	0.131461	-0.000142
C24	C	1.083263	0.631461	0.499858
C25	C	0.517278	0.216678	-0.000145
C26	C	1.017278	0.716678	0.499855
C27	C	0.445191	0.215238	-0.000153
C28	C	0.945191	0.715238	0.499847
C29	C	0.439092	0.128576	-0.000173
C30	C	0.939092	0.628576	0.499827
C31	C	0.505089	0.043348	-0.000166
C32	C	1.005089	0.543348	0.499834
C33	C	0.577175	0.044790	-0.000150
C34	C	1.077175	0.544790	0.499850
C35	C	0.347855	0.060453	-0.042631
C36	C	0.847855	0.560453	0.457369
C37	C	0.275770	0.059014	-0.042651
C38	C	0.775770	0.559014	0.457349
C39	C	0.216759	0.124123	-0.000218
C40	C	0.716759	0.624123	0.499782
C41	C	0.229837	0.190688	0.042226
C42	C	0.729837	0.690688	0.542226
C43	C	0.301922	0.192131	0.042242
C44	C	0.801922	0.692131	0.542242
C45	C	0.360931	0.127002	-0.000189
C46	C	0.860931	0.627002	0.499811
C47	C	0.072607	0.207785	-0.000228
C48	C	0.572607	0.707785	0.499772
C49	C	0.000520	0.206341	-0.000232
C50	C	0.500520	0.706341	0.499768
C51	C	0.060421	0.034449	-0.000252
C52	C	0.560421	0.534449	0.499748
C53	C	0.132506	0.035895	-0.000241
C54	C	0.632506	0.535895	0.499759
C55	C	0.138594	0.122565	-0.000233
C56	C	0.638594	0.622565	0.499767
C57	C	0.837388	-0.046861	-0.000211
C58	C	1.337388	0.453139	0.499789
C59	C	0.862409	-0.151541	-0.000225
C60	C	1.362409	0.348459	0.499775
C61	C	0.613831	-0.438277	-0.000147
C62	C	1.113831	0.061723	0.499853
C63	C	0.637359	-0.536642	-0.000151
C64	C	1.137359	-0.036642	0.499849
C65	C	0.769703	-0.559647	-0.000185
C66	C	1.269703	-0.059647	0.499815
C67	C	0.746185	-0.461281	-0.000184
C68	C	1.246185	0.038719	0.499816
C69	C	0.668248	-0.400603	-0.000164
C70	C	1.168248	0.099397	0.499836
C71	C	0.800603	-0.423608	-0.000201
C72	C	1.300603	0.076392	0.499799
C73	C	0.777087	-0.325251	-0.000197
C74	C	1.277087	0.174749	0.499803
C75	C	0.699153	-0.264567	-0.000175
C76	C	1.199153	0.235433	0.499825
C77	C	0.644732	-0.302246	-0.000160
C78	C	1.144732	0.197754	0.499840
C79	C	0.878540	-0.484287	-0.000216
C80	C	1.378540	0.015713	0.499784
C81	C	0.932957	-0.446614	-0.000233
C82	C	1.432957	0.053386	0.499767
C83	C	0.909441	-0.348255	-0.000234
C84	C	1.409441	0.151745	0.499766
C85	C	0.831508	-0.287571	-0.000212
C86	C	1.331508	0.212429	0.499788
C87	C	0.963863	-0.310576	-0.000249
C88	C	1.463863	0.189424	0.499751
C89	C	0.940346	-0.212219	-0.000244
C90	C	1.440346	0.287781	0.499756
C91	C	0.807992	-0.189214	-0.000207
C92	C	1.307992	0.310786	0.499793
C93	C	0.917706	0.118146	-0.000227
C94	C	1.417706	0.618146	0.499773
C95	C	0.994427	0.119679	-0.000251
C96	C	1.494427	0.619679	0.499749
C97	C	0.740301	0.298001	-0.000177
C98	C	1.240301	0.798001	0.499823
C99	C	0.715280	0.402681	-0.000168
C100	C	1.215280	0.902681	0.499832
N101	N	0.788824	0.125558	0.188475
N102	N	1.288824	0.625558	0.688475
N103	N	0.788872	0.125574	-0.188861
N104	N	1.288872	0.625574	0.311139
C105	C	0.852266	0.061280	0.226558
C106	C	1.352266	0.561280	0.726558
C107	C	0.852271	0.061276	0.302786
C108	C	1.352271	0.561276	0.802786
C109	C	0.788838	0.125566	0.340928
C110	C	1.288838	0.625566	0.840928
C111	C	0.725386	0.189849	0.302835
C112	C	1.225386	0.689849	0.802835
C113	C	0.725380	0.189845	0.226609
C114	C	1.225380	0.689845	0.726609
C115	C	0.758075	0.211489	0.461698
C116	C	1.258075	0.711489	0.961698
C117	C	0.758086	0.211494	0.537923
C118	C	1.258086	0.711494	1.037923
C119	C	0.788855	0.125578	0.576035
C120	C	1.288855	0.625578	1.076035
C121	C	0.819627	0.039653	0.537913
C122	C	1.319627	0.539653	1.037913
C123	C	0.819621	0.039649	0.461687
C124	C	1.319621	0.539649	0.961687
C125	C	0.788838	0.125577	0.423582
C126	C	1.288838	0.625577	0.923582
C127	C	0.852306	0.061290	0.696773
C128	C	1.352306	0.561290	1.196773
C129	C	0.852307	0.061284	0.773002
C130	C	1.352307	0.561284	1.273002
C131	C	0.725423	0.189866	0.773051
C132	C	1.225423	0.689866	1.273051
C133	C	0.725421	0.189863	0.696823
C134	C	1.225421	0.689863	1.196823
C135	C	0.788866	0.125576	0.658689
C136	C	1.288866	0.625576	1.158689
H137	H	0.630903	-0.024606	-0.000148
H138	H	1.130903	0.475394	0.499852
C139	C	0.922069	-0.009429	0.344685
C140	C	1.422069	0.490571	0.844685
N141	N	0.974642	-0.062680	0.376242
N142	N	1.474642	0.437320	0.876242
H143	H	0.996414	-0.496031	-0.000246
H144	H	1.496414	0.003969	0.499754
H145	H	0.673717	0.242189	0.195601
H146	H	1.173717	0.742189	0.695601
C147	C	0.079306	0.303123	-0.000210
C148	C	0.579306	0.803123	0.499790
N149	N	0.084350	0.374933	-0.000195
N150	N	0.584350	0.874933	0.499805
C151	C	0.205093	-0.057852	-0.000246
C152	C	0.705093	0.442148	0.499754
N153	N	0.259767	-0.128467	-0.000249
N154	N	0.759767	0.371533	0.499751
C155	C	0.853461	-0.054867	0.419756
C156	C	1.353461	0.445133	0.919756
N157	N	0.878945	-0.126058	0.388173
N158	N	1.378945	0.373942	0.888173
H159	H	0.500120	-0.027213	-0.000192
H160	H	1.000120	0.472787	0.499808
C161	C	0.528095	-0.371525	-0.000126
C162	C	1.028095	0.128475	0.499874
N163	N	0.463522	-0.321248	-0.000107
N164	N	0.963522	0.178752	0.499893
C165	C	0.261393	-0.014213	-0.089334
C166	C	0.761393	0.485787	0.410666
N167	N	0.250568	-0.069373	-0.124495
N168	N	0.750568	0.430627	0.375505
H169	H	-0.053208	0.275738	-0.000230
H170	H	0.446792	0.775738	0.499770
C171	C	0.412761	-0.011174	-0.089317
C172	C	0.912761	0.488826	0.410683
N173	N	0.461647	-0.065121	-0.124481
N174	N	0.961647	0.434879	0.375519
C175	C	0.577489	-0.578078	-0.000136
C176	C	1.077489	-0.078078	0.499864
N177	N	0.532395	-0.609287	-0.000125
N178	N	1.032395	-0.109287	0.499875
H179	H	0.744528	-0.139806	-0.000197
H180	H	1.244528	0.360194	0.499803
H181	H	0.055457	-0.036113	-0.000313
H182	H	0.555457	0.463887	0.499687
H183	H	0.680008	-0.184479	-0.000167
H184	H	1.180008	0.315521	0.499833
H185	H	0.581268	-0.252838	-0.000149
H186	H	1.081268	0.247162	0.499851
C187	C	0.853473	-0.054863	0.579831
C188	C	1.353473	0.445137	1.079831
N189	N	0.878966	-0.126050	0.611407
N190	N	1.378966	0.373950	1.111407
H191	H	0.897684	-0.564375	-0.000226
H192	H	1.397684	-0.064375	0.499774
C193	C	0.372596	0.308987	-0.000165
C194	C	0.872596	0.808987	0.499835
N195	N	0.317920	0.379599	-0.000178
N196	N	0.817920	0.879599	0.499822
C197	C	0.922093	-0.009447	0.814893
C198	C	1.422093	0.490553	1.314893
N199	N	0.974656	-0.062727	0.846446
N200	N	1.474656	0.437273	1.346446
H201	H	0.833159	-0.609064	-0.000198
H202	H	1.333159	-0.109064	0.499802
C203	C	0.655663	0.260643	0.654930
C204	C	1.155663	0.760643	1.154930
N205	N	0.603128	0.313979	0.623376
N206	N	1.103128	0.813979	1.123376
H207	H	1.027319	-0.359994	-0.000258
H208	H	1.527319	0.140006	0.499742
H209	H	0.984659	-0.181545	-0.000258
H210	H	1.484659	0.318455	0.499742
H211	H	0.903925	0.008931	0.195511
H212	H	1.403925	0.508931	0.695511
H213	H	0.903965	0.008940	0.665723
H214	H	1.403965	0.508940	1.165723
H215	H	0.673773	0.242208	0.804105
H216	H	1.173773	0.742208	1.304105
H217	H	0.733034	0.281459	0.568956
H218	H	1.233034	0.781459	1.068956
H219	H	0.673737	0.242194	0.333894
H220	H	1.173737	0.742194	0.833894
C221	C	0.316308	0.265341	0.088937
C222	C	0.816308	0.765341	0.588937
N223	N	0.327145	0.320481	0.124111
N224	N	0.827145	0.820481	0.624111
C225	C	0.724226	0.306010	0.419782
C226	C	1.224226	0.806010	0.919782
N227	N	0.698731	0.377201	0.388212
N228	N	1.198731	0.877201	0.888212
C229	C	0.164930	0.262312	0.088909
C230	C	0.664930	0.762312	0.588909
N231	N	0.116039	0.316257	0.124069
N232	N	0.616039	0.816257	0.624069
H233	H	0.522228	0.287252	-0.000140
H234	H	1.022228	0.787252	0.499860
