data_functionalizedCrystal
_audit_creation_method	'MofGen! by Chris Wilmer'
_symmetry_space_group_name_H-M	'P1'
_symmetry_Int_Tables_number	1
_symmetry_cell_setting	triclinic
loop_
_symmetry_equiv_pos_as_xyz
  x,y,z
_cell_length_a	15.944551
_cell_length_b	27.732048
_cell_length_c	15.021413
_cell_angle_alpha	89.999048
_cell_angle_beta	89.997174
_cell_angle_gamma	83.070697
loop_
_atom_site_label
_atom_site_type_symbol
_atom_site_fract_x
_atom_site_fract_y
_atom_site_fract_z
O1	O	1.113714	0.062334	-0.073949
O2	O	0.869064	0.070020	-0.073973
O3	O	0.998987	-0.004187	-0.073943
O4	O	0.983790	0.136541	-0.073979
O5	O	0.998966	-0.004176	0.074121
O6	O	0.869043	0.070030	0.074092
O7	O	1.113693	0.062345	0.074115
Zn8	Zn	0.991365	0.066189	0.097612
Zn9	Zn	0.991392	0.066175	-0.097469
O10	O	0.983770	0.136551	0.074086
C11	C	0.837763	0.069706	0.000057
C12	C	0.744530	0.068749	0.000049
C13	C	0.530305	0.020466	0.000078
C14	C	0.469001	0.042882	-0.072931
C15	C	0.573827	0.067019	0.000060
C16	C	0.469003	0.042904	0.073049
C17	C	0.408936	0.065344	0.000074
C18	C	0.513752	0.089448	-0.073010
C19	C	0.513760	0.089463	0.073036
C20	C	0.452474	0.111912	0.000009
C21	C	0.668816	0.067983	0.000051
C22	C	0.313947	0.064384	0.000077
C23	C	0.998658	-0.022190	0.000091
C24	C	0.997697	-0.075849	0.000099
C25	C	1.068426	-0.414358	0.000060
C26	C	1.064862	-0.616033	0.000047
O27	O	1.129539	-0.647008	0.000014
N28	N	0.987823	-0.635490	0.000040
C29	C	0.911669	-0.604525	0.000031
O30	O	0.846061	-0.625703	0.000016
C31	C	0.915234	-0.402851	0.000038
C32	C	0.992278	-0.383397	0.000053
C33	C	1.145464	-0.394903	0.000074
C34	C	1.146354	-0.344487	0.000082
C35	C	1.070206	-0.313526	0.000076
C36	C	0.993168	-0.332981	0.000061
C37	C	0.839081	-0.371887	0.000022
C38	C	0.839979	-0.321466	0.000021
C39	C	0.917024	-0.302012	0.000037
C40	C	0.917911	-0.251604	0.000063
N41	N	0.994950	-0.232147	0.000069
C42	C	1.071098	-0.263108	0.000076
C43	C	0.909803	-0.710408	0.000030
C44	C	0.908912	-0.760826	0.000030
C45	C	1.062105	-0.772330	0.000044
C46	C	1.062995	-0.721911	0.000050
C47	C	0.986842	-0.690950	0.000036
C48	C	1.072961	-0.157231	0.000093
C49	C	1.073845	-0.106810	0.000105
C50	C	0.920652	-0.095310	0.000086
C51	C	0.919768	-0.145727	0.000079
C52	C	0.995930	-0.176686	0.000080
O53	O	0.853269	-0.220600	0.000085
O54	O	1.136697	-0.241921	0.000071
C55	C	1.067536	-0.464774	0.000052
C56	C	0.990498	-0.484228	0.000037
C57	C	0.914350	-0.453268	0.000031
C58	C	0.989607	-0.534647	0.000037
C59	C	1.065754	-0.565608	0.000044
C60	C	1.142794	-0.546150	0.000050
C61	C	1.143684	-0.495734	0.000058
C62	C	0.837311	-0.472725	0.000024
C63	C	0.836427	-0.523141	0.000017
C64	C	0.912575	-0.554102	0.000023
C65	C	1.144993	0.062658	0.000084
C66	C	1.238227	0.063615	0.000086
C67	C	0.984099	0.154554	0.000049
C68	C	0.985059	0.208213	0.000036
N69	N	0.991352	0.066198	0.230749
N70	N	0.991411	0.066162	-0.230607
C71	C	0.931267	0.100495	0.470419
C72	C	1.007044	0.109879	0.529758
C73	C	0.991374	0.066186	0.412356
C74	C	0.915617	0.056813	0.529759
C75	C	0.991388	0.066176	0.587780
C76	C	1.067190	0.075592	0.470389
C77	C	0.975712	0.022507	0.470385
C78	C	1.051545	0.031872	0.529697
C79	C	0.991365	0.066194	0.311299
C80	C	0.991406	0.066168	0.688836
H81	H	0.418809	0.150587	-0.000042
C82	C	0.442207	0.016302	0.156431
H83	H	0.469147	-0.016179	0.156342
H84	H	0.382664	0.016143	0.156124
H85	H	0.458296	0.032527	0.208269
C86	C	1.024962	0.159771	0.564997
H87	H	1.075088	0.155942	0.599777
H88	H	0.978920	0.173404	0.600692
H89	H	1.031943	0.180745	0.516251
H90	H	1.125732	-0.706075	0.000062
C91	C	1.158594	-0.085411	0.000123
H92	H	1.148224	-0.050949	0.000136
H93	H	1.189929	-0.096035	-0.051506
H94	H	1.189907	-0.096041	0.051767
C95	C	1.120290	-0.007330	0.564647
H96	H	1.174052	-0.000594	0.544208
H97	H	1.109617	-0.038275	0.543419
H98	H	1.119623	-0.007296	0.627887
C99	C	0.540407	0.116018	-0.156489
H100	H	0.491883	0.126515	-0.191306
H101	H	0.578727	0.094561	-0.190610
H102	H	0.567045	0.143378	-0.139047
C103	C	0.836896	-0.061247	0.000074
H104	H	0.848468	-0.028435	0.000070
H105	H	0.805261	-0.067143	0.051699
H106	H	0.805293	-0.067144	-0.051574
C107	C	1.226556	-0.580211	0.000056
H108	H	1.272572	-0.561408	0.000068
H109	H	1.229392	-0.600117	-0.051579
H110	H	1.229381	-0.600120	0.051694
C111	C	0.575989	-0.031731	0.000001
H112	H	0.609979	-0.036730	0.051898
H113	H	0.610742	-0.036503	-0.051373
H114	H	0.535425	-0.054164	-0.000556
H115	H	1.124107	-0.797547	0.000049
H116	H	0.449157	0.023188	-0.134645
C117	C	0.540607	0.116044	0.156407
H118	H	0.525476	0.099460	0.208235
H119	H	0.512889	0.148347	0.156924
H120	H	0.600032	0.116712	0.155508
H121	H	1.134979	-0.182432	0.000090
H122	H	0.880487	0.129533	0.444392
C123	C	1.231103	-0.323093	0.000082
H124	H	1.276320	-0.348759	0.000075
H125	H	1.234642	-0.303664	0.051713
H126	H	1.234640	-0.303667	-0.051560
C127	C	0.824164	-0.782220	0.000020
H128	H	0.778945	-0.756556	0.000006
H129	H	0.820616	-0.801650	0.051650
H130	H	0.820639	-0.801647	-0.051623
H131	H	1.131275	0.083560	0.444419
H132	H	1.207476	-0.420107	0.000076
H133	H	0.962429	-0.014416	0.444285
H134	H	0.851544	0.048890	0.555840
C135	C	0.826029	-0.676357	0.000026
H136	H	0.780026	-0.695170	0.000032
H137	H	0.823187	-0.656447	-0.051604
H138	H	0.823186	-0.656452	0.051669
H139	H	0.777965	-0.296260	0.000009
C140	C	0.835023	-0.167128	0.000060
H141	H	0.789800	-0.141466	0.000052
H142	H	0.831475	-0.186563	0.051683
H143	H	0.831505	-0.186549	-0.051590
C144	C	0.754331	-0.393276	-0.000003
H145	H	0.709116	-0.367610	-0.000018
H146	H	0.750776	-0.412707	0.051626
H147	H	0.750808	-0.412701	-0.051647
C148	C	1.228433	-0.474341	0.000066
H149	H	1.273649	-0.500006	0.000061
H150	H	1.231967	-0.454913	0.051699
H151	H	1.231975	-0.454913	-0.051574
C152	C	0.751673	-0.544535	-0.000003
H153	H	0.706454	-0.518871	-0.000015
H154	H	0.748121	-0.563968	0.051623
H155	H	0.748152	-0.563959	-0.051650
H156	H	0.775301	-0.447521	0.000017
