data_functionalizedCrystal
_audit_creation_method	'MofGen! by Chris Wilmer'
_symmetry_space_group_name_H-M	'P1'
_symmetry_Int_Tables_number	1
_symmetry_cell_setting	triclinic
loop_
_symmetry_equiv_pos_as_xyz
  x,y,z
_cell_length_a	14.853567
_cell_length_b	16.109301
_cell_length_c	14.586319
_cell_angle_alpha	89.999213
_cell_angle_beta	89.999998
_cell_angle_gamma	96.451795
loop_
_atom_site_label
_atom_site_type_symbol
_atom_site_fract_x
_atom_site_fract_y
_atom_site_fract_z
O1	O	0.115881	-1.103294	0.076175
O2	O	0.130302	-0.861252	0.076188
O3	O	-0.008149	-0.988738	0.076184
O4	O	0.254332	-0.975807	0.076179
O5	O	-0.008151	-0.988729	-0.076297
O6	O	0.130300	-0.861243	-0.076293
O7	O	0.115879	-1.103285	-0.076306
Cu8	Cu	0.123089	-0.982263	-0.090222
Cu9	Cu	0.123091	-0.982274	0.090104
O10	O	0.254330	-0.975799	-0.076302
C11	C	0.129717	-0.830272	-0.000050
C12	C	0.127965	-0.737974	-0.000045
C13	C	-0.041738	-0.988148	-0.000054
C14	C	-0.141819	-0.986392	-0.000046
N15	N	0.123087	-0.982262	-0.217054
C16	C	-0.554215	-0.903241	-0.000059
C17	C	-0.575746	-1.054697	-0.000067
C18	C	-0.481715	-1.056348	-0.000062
C19	C	-0.423930	-0.981444	-0.000056
C20	C	-0.460175	-0.904889	-0.000056
C21	C	-0.445463	-1.132901	-0.000071
C22	C	-0.351426	-1.134555	-0.000067
C23	C	-0.293639	-1.059650	-0.000055
C24	C	-0.329890	-0.983093	-0.000054
C25	C	-0.272104	-0.908189	-0.000048
C26	C	-0.308353	-0.831630	-0.000040
C27	C	-0.402388	-0.829984	-0.000044
C28	C	-0.199604	-1.061296	-0.000051
C29	C	-0.178064	-0.909837	-0.000046
C30	C	0.287918	-0.976389	-0.000062
C31	C	0.387999	-0.978145	-0.000064
C32	C	0.116464	-1.134265	-0.000066
C33	C	0.118215	-1.226563	-0.000065
C34	C	0.206047	-0.515811	-0.000057
C35	C	0.204395	-0.429089	-0.000063
C36	C	0.040127	-0.448732	-0.000056
C37	C	0.041781	-0.535453	-0.000057
C38	C	0.124743	-0.568990	-0.000052
C39	C	0.121437	-0.395546	-0.000058
C40	C	0.119645	-0.301518	-0.000064
C41	C	0.126536	-0.663025	-0.000048
C42	C	0.061801	-1.038731	-0.452062
C43	C	0.061799	-1.038734	-0.548044
C44	C	0.184375	-0.925806	-0.548049
C45	C	0.184372	-0.925800	-0.452070
C46	C	0.123086	-0.982268	-0.404079
C47	C	0.123087	-0.982276	-0.596039
C48	C	0.123085	-0.982278	-0.700107
C49	C	0.123087	-0.982265	-0.300005
N50	N	0.123087	-0.982281	0.216936
H51	H	-0.261292	-0.770643	-0.000042
C52	C	-0.508049	-1.214311	-0.000120
C53	C	-0.456181	-1.281708	-0.000150
C54	C	-0.513809	-1.356718	-0.000203
H55	H	-0.545197	-1.216934	0.053041
H56	H	-0.545170	-1.216858	-0.053312
H57	H	-0.419076	-1.279163	0.053037
H58	H	-0.419035	-1.279113	-0.053307
H59	H	-0.550930	-1.359265	-0.053395
H60	H	-0.550954	-1.359333	0.052959
H61	H	-0.478625	-1.402456	-0.000232
C62	C	-0.441920	-0.746954	-0.000093
C63	C	-0.536639	-0.761545	-0.000127
C64	C	-0.573090	-0.685079	-0.000188
H65	H	-0.422192	-0.716044	0.053067
H66	H	-0.422132	-0.716101	-0.053287
H67	H	-0.556419	-0.792385	0.053061
H68	H	-0.556391	-0.792443	-0.053283
H69	H	-0.553302	-0.654226	-0.053382
H70	H	-0.553356	-0.654174	0.052972
H71	H	-0.637360	-0.694969	-0.000220
C72	C	0.250954	-0.864410	-0.599990
C73	C	0.304606	-0.814943	-0.537421
C74	C	0.365941	-0.758367	-0.585233
H75	H	0.288581	-0.894261	-0.637432
H76	H	0.218532	-0.829723	-0.637415
H77	H	0.337025	-0.849625	-0.500012
H78	H	0.267004	-0.785073	-0.499977
H79	H	0.333520	-0.723680	-0.622658
H80	H	0.403562	-0.788225	-0.622673
H81	H	0.402346	-0.724792	-0.542788
C82	C	0.292600	-0.371254	0.000082
C83	C	0.296440	-0.320878	0.078516
C84	C	0.377680	-0.267584	0.078674
H85	H	0.342317	-0.403547	0.000131
H86	H	0.295379	-0.336967	-0.053065
H87	H	0.293670	-0.355161	0.131649
H88	H	0.246743	-0.288568	0.078483
H89	H	0.380459	-0.233297	0.025527
H90	H	0.427390	-0.299884	0.078721
H91	H	0.380293	-0.233393	0.131886
C92	C	-0.160422	-1.144491	-0.000009
C93	C	-0.231155	-1.209735	0.000004
C94	C	-0.195096	-1.286391	0.000059
H95	H	-0.124193	-1.148398	-0.053164
H96	H	-0.124219	-1.148331	0.053190
H97	H	-0.267343	-1.205898	-0.053190
H98	H	-0.267389	-1.205856	0.053155
H99	H	-0.158893	-1.290230	0.053258
H100	H	-0.158868	-1.290289	-0.053097
H101	H	-0.243082	-1.330668	0.000077
C102	C	0.296210	-0.552063	-0.000108
C103	C	0.367057	-0.486925	-0.000139
C104	C	0.450130	-0.520285	-0.000202
H105	H	0.300404	-0.585473	0.053050
H106	H	0.300314	-0.585460	-0.053304
H107	H	0.362955	-0.453542	0.053051
H108	H	0.362893	-0.453510	-0.053293
H109	H	0.454234	-0.553682	-0.053397
H110	H	0.454314	-0.553694	0.052958
H111	H	0.498209	-0.476095	-0.000231
H112	H	0.011897	-1.084709	-0.412990
H113	H	-0.131020	-0.848840	-0.000037
H114	H	-0.583733	-0.840908	-0.000049
C115	C	-0.050035	-0.412479	-0.000093
C116	C	-0.120884	-0.477616	-0.000113
C117	C	-0.203955	-0.444254	-0.000155
H118	H	-0.054217	-0.379073	0.053068
H119	H	-0.054149	-0.379078	-0.053285
H120	H	-0.116772	-0.511002	0.053074
H121	H	-0.116731	-0.511028	-0.053271
H122	H	-0.208069	-0.410853	-0.053347
H123	H	-0.208128	-0.410848	0.053007
H124	H	-0.252036	-0.488444	-0.000177
C125	C	-0.046429	-0.593295	0.000094
C126	C	-0.050262	-0.643672	0.078529
C127	C	-0.131497	-0.696973	0.078689
H128	H	-0.096150	-0.561007	0.000145
H129	H	-0.049206	-0.627581	-0.053053
H130	H	-0.047494	-0.609391	0.131662
H131	H	-0.000560	-0.675978	0.078494
H132	H	-0.134273	-0.731259	0.025542
H133	H	-0.181210	-0.664679	0.078738
H134	H	-0.134104	-0.731166	0.131901
C135	C	-0.004778	-1.100133	-0.599974
C136	C	-0.058432	-1.149593	-0.537399
C137	C	-0.119768	-1.206172	-0.585203
H138	H	-0.042405	-1.070285	-0.637421
H139	H	0.027642	-1.134824	-0.637394
H140	H	-0.090850	-1.114907	-0.499995
H141	H	-0.020830	-1.179460	-0.499950
H142	H	-0.087348	-1.240863	-0.622623
H143	H	-0.157388	-1.176317	-0.622648
H144	H	-0.156174	-1.239743	-0.542753
C145	C	0.250963	-0.864627	-0.399850
C146	C	0.306145	-0.908975	-0.344724
C147	C	0.367486	-0.852653	-0.296599
H148	H	0.287555	-0.830980	-0.442072
H149	H	0.218544	-0.829993	-0.362360
H150	H	0.338562	-0.943595	-0.382212
H151	H	0.269579	-0.942620	-0.302485
H152	H	0.335067	-0.818018	-0.259108
H153	H	0.404071	-0.819008	-0.338827
H154	H	0.404929	-0.882734	-0.259184
H155	H	-0.622800	-1.115680	-0.000079
H156	H	-0.321921	-1.196894	-0.000072
