data_functionalizedCrystal
_audit_creation_method	'MofGen! by Chris Wilmer'
_symmetry_space_group_name_H-M	'P1'
_symmetry_Int_Tables_number	1
_symmetry_cell_setting	triclinic
loop_
_symmetry_equiv_pos_as_xyz
  x,y,z
_cell_length_a	23.532355
_cell_length_b	22.610064
_cell_length_c	15.944551
_cell_angle_alpha	89.996881
_cell_angle_beta	83.163118
_cell_angle_gamma	90.002356
loop_
_atom_site_label
_atom_site_type_symbol
_atom_site_fract_x
_atom_site_fract_y
_atom_site_fract_z
O1	O	0.755677	0.049105	0.101745
O2	O	0.589867	0.049124	0.116544
O3	O	0.677300	0.049109	-0.013169
O4	O	0.668244	0.049121	0.231459
O5	O	0.677284	-0.049260	-0.013150
O6	O	0.589851	-0.049245	0.116563
O7	O	0.755661	-0.049264	0.101764
Zn8	Zn	0.672754	-0.064872	0.109167
Zn9	Zn	0.672774	0.064733	0.109142
O10	O	0.668228	-0.049248	0.231478
C11	C	0.568641	-0.000058	0.116184
C12	C	0.505418	-0.000051	0.115072
N13	N	0.672744	-0.153325	0.109183
C14	C	0.113369	-0.053697	0.108094
C15	C	0.053965	-0.053699	0.107036
O16	O	0.023237	-0.099301	0.106469
N17	N	0.024263	-0.000078	0.106501
C18	C	0.053968	0.053548	0.107015
O19	O	0.023250	0.099157	0.106462
C20	C	0.113371	0.053550	0.108068
C21	C	0.143069	-0.000074	0.108611
C22	C	0.143067	-0.107317	0.108637
C23	C	0.202466	-0.107314	0.109696
C24	C	0.232167	-0.053692	0.110213
C25	C	0.202469	-0.000072	0.109671
C26	C	0.143076	0.107176	0.108576
C27	C	0.202483	0.107173	0.109628
C28	C	0.232181	0.053549	0.110171
C29	C	0.291569	0.053553	0.111247
N30	N	0.321271	-0.000067	0.111782
C31	C	0.291570	-0.053690	0.111265
C32	C	-0.070782	0.053541	0.104805
C33	C	-0.130184	0.053539	0.103759
C34	C	-0.130183	-0.053708	0.103777
C35	C	-0.070780	-0.053707	0.104829
C36	C	-0.041080	-0.000080	0.105340
C37	C	0.416313	-0.053681	0.113491
C38	C	0.475717	-0.053673	0.114555
C39	C	0.475711	0.053574	0.114531
C40	C	0.416312	0.053567	0.113473
C41	C	0.386614	-0.000065	0.112950
O42	O	0.322335	0.099132	0.111812
O43	O	0.322297	-0.099291	0.111807
C44	C	0.711491	-0.561973	0.051713
C45	C	0.711494	-0.623893	0.051707
O46	O	0.744414	-0.655918	0.002857
N47	N	0.672774	-0.654862	0.109124
C48	C	0.634044	-0.623908	0.166546
O49	O	0.601109	-0.655935	0.215382
C50	C	0.634039	-0.561989	0.166547
C51	C	0.672766	-0.531023	0.109132
C52	C	0.750215	-0.531007	-0.005698
C53	C	0.750212	-0.469092	-0.005690
C54	C	0.711487	-0.438142	0.051728
C55	C	0.672763	-0.469108	0.109139
C56	C	0.595307	-0.531036	0.223964
C57	C	0.595305	-0.469113	0.223960
C58	C	0.634031	-0.438147	0.166545
C59	C	0.634035	-0.376242	0.166565
N60	N	0.672756	-0.345273	0.109148
C61	C	0.711481	-0.376223	0.051730
C62	C	0.634057	-0.753942	0.166537
C63	C	0.634065	-0.815859	0.166541
C64	C	0.711514	-0.815840	0.051701
C65	C	0.711509	-0.753921	0.051702
C66	C	0.672778	-0.722973	0.109120
C67	C	0.711474	-0.246196	0.051750
C68	C	0.711470	-0.184275	0.051765
C69	C	0.634018	-0.184299	0.166601
C70	C	0.634024	-0.246215	0.166590
C71	C	0.672754	-0.277162	0.109157
O72	O	0.601131	-0.344179	0.215388
O73	O	0.744406	-0.344188	0.002894
C74	C	0.776887	-0.000080	0.102125
C75	C	0.840110	-0.000083	0.103237
C76	C	0.676916	-0.000076	-0.044451
C77	C	0.675789	-0.000076	-0.137687
N78	N	0.672788	0.153186	0.109119
C79	C	0.618900	-0.000061	-0.352049
C80	C	0.645310	-0.048566	-0.413286
C81	C	0.673750	-0.000071	-0.308395
C82	C	0.645338	0.048418	-0.413289
C83	C	0.671776	-0.000064	-0.473290
C84	C	0.700175	-0.048616	-0.368405
C85	C	0.700195	0.048412	-0.368400
C86	C	0.726645	-0.000105	-0.429621
C87	C	0.674885	-0.000076	-0.213403
C88	C	0.670645	-0.000063	-0.568282
C89	C	0.668612	-0.000062	0.262759
C90	C	0.669739	-0.000058	0.355995
H91	H	0.392139	-0.097353	0.113073
N92	N	0.592265	-0.279624	0.228519
H93	H	0.598824	-0.268856	0.288086
H94	H	0.551864	-0.268837	0.219090
N95	N	0.614579	-0.102878	-0.439660
H96	H	0.634887	-0.139510	-0.422529
H97	H	0.573888	-0.102788	-0.411144
N98	N	0.753273	-0.720534	-0.010242
H99	H	0.731506	-0.694850	-0.047268
H100	H	0.778482	-0.694872	0.021705
N101	N	0.111058	0.165016	0.107979
H102	H	0.091033	0.167401	0.055461
H103	H	0.081821	0.167386	0.159649
N104	N	0.234517	0.165014	0.110172
H105	H	0.206686	0.198980	0.109667
H106	H	0.254545	0.167359	0.162688
H107	H	-0.046604	0.097212	0.105228
N108	N	0.614604	0.102732	-0.439643
H109	H	0.601086	0.127192	-0.388106
H110	H	0.641594	0.126989	-0.479951
N111	N	0.592289	-0.720560	0.228481
H112	H	0.567069	-0.694872	0.196585
H113	H	0.567802	-0.749614	0.264838
N114	N	0.234488	-0.165156	0.110278
H115	H	0.228763	-0.188597	0.058021
H116	H	0.276615	-0.156981	0.111058
N117	N	0.558596	-0.000113	-0.307396
H118	H	0.537661	0.036145	-0.324401
H119	H	0.537992	-0.036807	-0.323604
H120	H	0.781745	-0.443883	-0.052445
N121	N	0.730874	-0.102994	-0.342193
H122	H	0.731428	-0.102671	-0.278953
H123	H	0.710289	-0.139551	-0.358951
N124	N	0.787003	-0.000142	-0.474074
H125	H	0.807634	-0.036795	-0.457773
H126	H	0.785869	0.000228	-0.537192
N127	N	0.111039	-0.165158	0.108076
H128	H	0.138924	-0.199118	0.108006
H129	H	0.082040	-0.167669	0.160009
H130	H	0.392129	0.097232	0.113044
N131	N	0.730908	0.102726	-0.342013
H132	H	0.704154	0.126604	-0.300861
H133	H	0.765376	0.090321	-0.314133
H134	H	0.499894	-0.097343	0.115000
N135	N	0.592251	-0.150912	0.228529
H136	H	0.598128	-0.106989	0.219813
H137	H	0.551853	-0.161737	0.219131
H138	H	-0.046604	-0.097372	0.105273
H139	H	-0.154376	-0.097371	0.103355
H140	H	-0.154361	0.097206	0.103329
H141	H	0.499904	0.097232	0.114956
H142	H	0.743008	-0.159064	0.005010
N143	N	0.753249	-0.279569	-0.010188
H144	H	0.777779	-0.250549	-0.046549
H145	H	0.778426	-0.305256	0.021777
H146	H	0.781750	-0.556201	-0.052459
H147	H	0.743046	-0.841051	0.004946
H148	H	0.602536	-0.841067	0.213302
H149	H	0.563772	-0.556240	0.270716
N150	N	0.553526	-0.435733	0.285887
H151	H	0.528997	-0.464750	0.322254
H152	H	0.575323	-0.410043	0.322860
