data_functionalizedCrystal
_audit_creation_method	'MofGen! by Chris Wilmer'
_symmetry_space_group_name_H-M	'P1'
_symmetry_Int_Tables_number	1
_symmetry_cell_setting	triclinic
loop_
_symmetry_equiv_pos_as_xyz
  x,y,z
_cell_length_a	16.120490
_cell_length_b	29.839125
_cell_length_c	16.120484
_cell_angle_alpha	87.117439
_cell_angle_beta	89.835900
_cell_angle_gamma	87.092839
loop_
_atom_site_label
_atom_site_type_symbol
_atom_site_fract_x
_atom_site_fract_y
_atom_site_fract_z
Zn1	Zn	1.254395	-0.299041	0.395807
Zn2	Zn	1.754395	0.200959	0.895807
Zn3	Zn	1.247258	-0.227516	0.534835
Zn4	Zn	1.747258	0.272484	1.034835
Zn5	Zn	1.115356	-0.219937	0.388732
Zn6	Zn	1.615356	0.280063	0.888732
Zn7	Zn	1.108248	-0.298632	0.527752
Zn8	Zn	1.608248	0.201368	1.027752
O9	O	1.181314	-0.261281	0.461781
O10	O	1.681314	0.238719	0.961781
O11	O	1.369813	-0.292896	0.420174
O12	O	1.869813	0.207104	0.920174
O13	O	1.229748	-0.163643	0.515457
O14	O	1.729748	0.336357	1.015457
O15	O	1.139762	-0.227430	0.273306
O16	O	1.639762	0.272570	0.773306
O17	O	1.364569	-0.240347	0.522318
O18	O	1.864569	0.259653	1.022318
O19	O	1.241914	-0.285547	0.278504
O20	O	1.741914	0.214453	0.778504
O21	O	1.132841	-0.158075	0.408116
O22	O	1.632841	0.341925	0.908116
O23	O	0.998048	-0.227033	0.401247
O24	O	1.498048	0.272967	0.901247
O25	O	1.127647	-0.361553	0.510245
O26	O	1.627647	0.138447	1.010245
O27	O	0.992826	-0.284850	0.503385
O28	O	1.492826	0.215150	1.003385
O29	O	1.235021	-0.361854	0.413306
O30	O	1.735021	0.138146	0.913306
O31	O	1.222856	-0.239950	0.650259
O32	O	1.722856	0.260050	1.150259
O33	O	1.120725	-0.292198	0.645055
O34	O	1.620725	0.207802	1.145055
C35	C	0.965265	-0.255075	0.450780
C36	C	1.465265	0.244925	0.950780
C37	C	0.872837	-0.252431	0.446094
C38	C	1.372837	0.247569	0.946094
C39	C	0.659861	-0.274996	0.486082
C40	C	1.159861	0.225004	0.986082
C41	C	0.703615	-0.247604	0.437546
C42	C	1.203615	0.252396	0.937546
C43	C	0.797779	-0.250291	0.442304
C44	C	1.297779	0.249709	0.942304
C45	C	0.565689	-0.272310	0.481326
C46	C	1.065689	0.227690	0.981326
C47	C	1.181337	-0.378460	0.461775
C48	C	1.681337	0.121540	0.961775
C49	C	1.181347	-0.428395	0.461772
C50	C	1.681347	0.071605	0.961772
C51	C	1.237320	-0.738196	0.411159
C52	C	1.737320	-0.238196	0.911159
C53	C	1.237364	-0.925868	0.411091
C54	C	1.737364	-0.425868	0.911091
O55	O	1.284889	-0.950268	0.368133
O56	O	1.784889	-0.450268	0.868133
N57	N	1.181468	-0.949178	0.461555
N58	N	1.681468	-0.449178	0.961555
C59	C	1.125553	-0.925565	0.512036
C60	C	1.625553	-0.425565	1.012036
O61	O	1.078006	-0.949697	0.554951
O62	O	1.578006	-0.449697	1.054951
C63	C	1.125505	-0.737894	0.512100
C64	C	1.625505	-0.237894	1.012100
C65	C	1.181411	-0.714587	0.461639
C66	C	1.681411	-0.214587	0.961639
C67	C	1.293220	-0.714890	0.360701
C68	C	1.793220	-0.214890	0.860701
C69	C	1.293211	-0.667974	0.360722
C70	C	1.793211	-0.167974	0.860722
C71	C	1.237302	-0.644366	0.411202
C72	C	1.737302	-0.144366	0.911202
C73	C	1.181402	-0.667672	0.461660
C74	C	1.681402	-0.167672	0.961660
C75	C	1.069587	-0.714282	0.562576
C76	C	1.569587	-0.214282	1.062576
C77	C	1.069578	-0.667361	0.562586
C78	C	1.569578	-0.167361	1.062586
C79	C	1.125484	-0.644055	0.512125
C80	C	1.625484	-0.144055	1.012125
C81	C	1.125484	-0.597148	0.512160
C82	C	1.625484	-0.097148	1.012160
N83	N	1.181380	-0.573839	0.461695
N84	N	1.681380	-0.073839	0.961695
C85	C	1.237289	-0.597448	0.411216
C86	C	1.737289	-0.097448	0.911216
C87	C	1.125584	-1.024096	0.512000
C88	C	1.625584	-0.524096	1.012000
C89	C	1.125597	-1.071014	0.511986
C90	C	1.625597	-0.571014	1.011986
C91	C	1.237407	-1.071313	0.411039
C92	C	1.737407	-0.571313	0.911039
C93	C	1.237397	-1.024395	0.411058
C94	C	1.737397	-0.524395	0.911058
C95	C	1.181480	-1.000787	0.461536
C96	C	1.681480	-0.500787	0.961536
C97	C	1.237267	-0.498923	0.411265
C98	C	1.737267	0.001077	0.911265
C99	C	1.237256	-0.452004	0.411293
C100	C	1.737256	0.047996	0.911293
C101	C	1.125443	-0.451708	0.512236
C102	C	1.625443	0.048292	1.012236
C103	C	1.125457	-0.498623	0.512212
C104	C	1.625457	0.001377	1.012212
C105	C	1.181372	-0.522229	0.461720
C106	C	1.681372	-0.022229	0.961720
O107	O	1.077979	-0.572720	0.555088
O108	O	1.577979	-0.072720	1.055088
O109	O	1.284817	-0.573307	0.368294
O110	O	1.784817	-0.073307	0.868294
C111	C	1.237328	-0.785111	0.411138
C112	C	1.737328	-0.285111	0.911138
C113	C	1.181428	-0.808418	0.461596
C114	C	1.681428	-0.308418	0.961596
C115	C	1.125519	-0.784809	0.512076
C116	C	1.625519	-0.284809	1.012076
C117	C	1.181441	-0.855335	0.461582
C118	C	1.681441	-0.355335	0.961582
C119	C	1.237350	-0.878944	0.411103
C120	C	1.737350	-0.378944	0.911103
C121	C	1.293246	-0.855635	0.360638
C122	C	1.793246	-0.355635	0.860638
C123	C	1.293237	-0.808720	0.360659
C124	C	1.793237	-0.308720	0.860659
C125	C	1.069623	-0.808118	0.562540
C126	C	1.569623	-0.308118	1.062540
C127	C	1.069637	-0.855033	0.562516
C128	C	1.569637	-0.355033	1.062516
C129	C	1.125546	-0.878642	0.512036
C130	C	1.625546	-0.378642	1.012036
C131	C	1.398207	-0.267512	0.472825
C132	C	1.898207	0.232488	0.972825
C133	C	1.490634	-0.270167	0.477532
C134	C	1.990634	0.229833	0.977532
C135	C	1.170267	-0.266862	0.677830
C136	C	1.670267	0.233138	1.177830
C137	C	1.165617	-0.269267	0.770261
C138	C	1.665617	0.230733	1.270261
C139	C	1.181342	-0.144558	0.461730
C140	C	1.681342	0.355442	0.961730
C141	C	1.181506	-0.094622	0.461507
C142	C	1.681506	0.405378	0.961507
C143	C	1.192427	-0.255689	0.244889
C144	C	1.692427	0.244311	0.744889
C145	C	1.197162	-0.253306	0.152463
C146	C	1.697162	0.246694	0.652463
C147	C	1.157133	-0.273667	0.939493
C148	C	1.657133	0.226333	1.439493
C149	C	1.205644	-0.248908	0.983236
C150	C	1.705644	0.251092	1.483236
C151	C	1.200924	-0.251356	1.077403
C152	C	1.700924	0.248644	1.577403
C153	C	1.161853	-0.271219	0.845318
C154	C	1.661853	0.228781	1.345318
H155	H	1.282784	-0.433030	0.370201
H156	H	1.782784	0.066970	0.870201
C157	C	1.008144	-0.880667	0.618031
C158	C	1.508144	-0.380667	1.118031
H159	H	1.016154	-0.911992	0.610800
H160	H	1.516154	-0.411992	1.110800
H161	H	0.952896	-0.871056	0.603020
H162	H	1.452896	-0.371056	1.103020
H163	H	1.017456	-0.874773	0.674528
H164	H	1.517456	-0.374773	1.174528
H165	H	0.670354	-0.222134	0.392420
H166	H	1.170354	0.277866	0.892420
H167	H	0.693120	-0.300463	0.531206
H168	H	1.193120	0.199537	1.031206
H169	H	1.024095	-0.788900	0.603648
H170	H	1.524095	-0.288900	1.103648
C171	C	1.298778	-0.524883	0.355731
C172	C	1.798778	-0.024883	0.855731
H173	H	1.332070	-0.504278	0.325694
H174	H	1.832070	-0.004278	0.825694
H175	H	1.268840	-0.541336	0.317867
H176	H	1.768840	-0.041336	0.817867
H177	H	1.333388	-0.545048	0.389385
H178	H	1.833388	-0.045048	0.889385
C179	C	1.354700	-0.642343	0.305206
C180	C	1.854700	-0.142343	0.805206
H181	H	1.387988	-0.663128	0.275138
H182	H	1.887988	-0.163128	0.775138
H183	H	1.389303	-0.625902	0.338857
H184	H	1.889303	-0.125902	0.838857
H185	H	1.324737	-0.622191	0.267355
H186	H	1.824737	-0.122191	0.767355
C187	C	1.096233	-0.304779	0.984435
C188	C	1.596233	0.195221	1.484435
H189	H	1.101006	-0.302358	1.042747
H190	H	1.601006	0.197642	1.542747
H191	H	1.109051	-0.334957	0.970834
H192	H	1.609051	0.165043	1.470834
H193	H	1.041063	-0.296208	0.967466
H194	H	1.541063	0.203792	1.467466
H195	H	1.250721	-0.225872	0.949963
H196	H	1.750721	0.274128	1.449963
C197	C	1.354730	-0.740852	0.305174
C198	C	1.854730	-0.240852	0.805174
H199	H	1.388019	-0.720246	0.275135
H200	H	1.888019	-0.220246	0.775135
H201	H	1.324795	-0.757307	0.267311
H202	H	1.824795	-0.257307	0.767311
H203	H	1.389343	-0.761015	0.338830
H204	H	1.889343	-0.261015	0.838830
H205	H	1.024034	-0.648141	0.603683
H206	H	1.524034	-0.148141	1.103683
H207	H	1.282919	-1.005422	0.369967
H208	H	1.782919	-0.505422	0.869967
H209	H	1.282931	-1.090544	0.369937
H210	H	1.782931	-0.590544	0.869937
H211	H	1.080049	-1.004879	0.553111
H212	H	1.580049	-0.504879	1.053111
C213	C	1.064106	-1.096646	0.567499
C214	C	1.564106	-0.596646	1.067499
H215	H	1.030804	-1.075861	0.597556
H216	H	1.530804	-0.575861	1.097556
H217	H	1.094057	-1.116800	0.605347
H218	H	1.594057	-0.616800	1.105347
H219	H	1.029504	-1.113083	0.533833
H220	H	1.529504	-0.613083	1.033833
H221	H	1.024063	-0.733250	0.603667
H222	H	1.524063	-0.233250	1.103667
C223	C	1.063968	-0.524261	0.567723
C224	C	1.563968	-0.024261	1.067723
H225	H	1.030668	-0.503479	0.597787
H226	H	1.530668	-0.003479	1.097787
H227	H	1.093920	-0.544419	0.605565
H228	H	1.593920	-0.044419	1.105565
H229	H	1.029364	-0.540695	0.534054
H230	H	1.529364	-0.040695	1.034054
C231	C	1.063944	-0.425732	0.567755
C232	C	1.563944	0.074268	1.067755
H233	H	1.071943	-0.394452	0.560528
H234	H	1.571943	0.105548	1.060528
H235	H	1.073242	-0.435213	0.624246
H236	H	1.573242	0.064787	1.124246
H237	H	1.008697	-0.431500	0.552724
H238	H	1.508697	0.068500	1.052724
H239	H	1.338761	-0.789748	0.319568
H240	H	1.838761	-0.289748	0.819568
H241	H	1.338772	-0.874866	0.319539
H242	H	1.838772	-0.374866	0.819539
