data_functionalizedCrystal
_audit_creation_method	'MofGen! by Chris Wilmer'
_symmetry_space_group_name_H-M	'P1'
_symmetry_Int_Tables_number	1
_symmetry_cell_setting	triclinic
loop_
_symmetry_equiv_pos_as_xyz
  x,y,z
_cell_length_a	19.188930
_cell_length_b	19.188928
_cell_length_c	8.965430
_cell_angle_alpha	89.986605
_cell_angle_beta	90.011458
_cell_angle_gamma	96.855705
loop_
_atom_site_label
_atom_site_type_symbol
_atom_site_fract_x
_atom_site_fract_y
_atom_site_fract_z
O1	O	0.926137	-0.087170	0.124543
O2	O	0.722825	-0.098904	0.124444
O3	O	0.830349	0.008619	0.124458
O4	O	0.818613	-0.194693	0.124528
O5	O	0.830354	0.008626	-0.123620
O6	O	0.722831	-0.098897	-0.123635
O7	O	0.926142	-0.087162	-0.123536
Cu8	Cu	0.824487	-0.093029	-0.146237
Cu9	Cu	0.824481	-0.093038	0.147145
O10	O	0.818618	-0.194685	-0.123551
C11	C	0.696817	-0.098520	0.000391
C12	C	0.619313	-0.097380	0.000352
C13	C	0.574388	-0.160471	0.000397
C14	C	0.501564	-0.159399	0.000413
C15	C	0.473668	-0.095233	0.000414
C16	C	0.518603	-0.032134	0.000360
C17	C	0.591425	-0.033207	0.000329
N18	N	0.365687	-0.046188	0.084889
N19	N	0.296508	-0.045173	0.084922
C20	C	0.254260	-0.091995	0.000504
N21	N	0.283802	-0.139881	-0.083929
N22	N	0.352986	-0.140898	-0.083955
C23	C	0.394706	-0.094062	0.000446
C24	C	0.130371	-0.153928	0.000564
C25	C	0.057546	-0.152854	0.000571
C26	C	0.074586	-0.025586	0.000533
C27	C	0.147409	-0.026662	0.000512
C28	C	0.175297	-0.090835	0.000534
C29	C	0.829972	0.034634	0.000412
C30	C	0.828832	0.112138	0.000392
C31	C	0.891923	0.157062	0.000412
C32	C	0.890852	0.229886	0.000430
C33	C	0.826686	0.257783	0.000397
C34	C	0.763587	0.212849	0.000385
C35	C	0.764660	0.140027	0.000383
N36	N	0.777642	0.365790	-0.084062
N37	N	0.776627	0.434969	-0.084064
C38	C	0.823450	0.477192	0.000407
N39	N	0.871337	0.447623	0.084859
N40	N	0.872354	0.378439	0.084854
C41	C	0.825516	0.336745	0.000400
C42	C	0.885384	0.601080	0.000448
C43	C	0.884311	0.673905	0.000474
C44	C	0.757043	0.656866	0.000414
C45	C	0.758119	0.584043	0.000403
C46	C	0.822291	0.556155	0.000413
C47	C	0.952150	-0.087546	0.000520
C48	C	1.029655	-0.088687	0.000569
C49	C	0.818998	0.779300	0.000477
C50	C	0.820144	0.701797	0.000444
N51	N	0.824477	-0.093039	0.353494
N52	N	0.824496	-0.093022	-0.352586
C53	C	0.774654	-0.142670	0.450784
C54	C	0.761461	-0.079567	0.550171
C55	C	0.837658	-0.156120	0.550234
C56	C	0.811253	-0.029904	0.450692
C57	C	0.887477	-0.106498	0.450747
C58	C	0.874311	-0.043350	0.550089
H59	H	0.183988	0.024713	0.000483
H60	H	0.708193	-0.068173	0.593854
H61	H	0.628003	0.018171	0.000293
H62	H	0.800050	0.023461	0.407152
H63	H	0.935689	0.710482	0.000499
H64	H	0.153078	-0.206181	0.000560
H65	H	0.916456	-0.001325	0.593418
H66	H	0.020968	-0.204232	0.000599
H67	H	0.597089	-0.212725	0.000418
H68	H	0.937637	0.578372	0.000462
H69	H	0.848808	-0.209475	0.593931
H70	H	0.711342	0.235567	0.000362
H71	H	0.944177	0.134361	0.000425
H72	H	0.940728	-0.117916	0.407038
H73	H	0.713281	0.103449	0.000366
H74	H	0.464980	-0.210777	0.000445
H75	H	0.051874	0.026659	0.000627
H76	H	0.495885	0.020111	0.000381
H77	H	0.942230	0.266470	0.000452
H78	H	0.704798	0.679579	0.000395
H79	H	0.706743	0.547464	0.000378
H80	H	0.732484	-0.184600	0.407179
