data_functionalizedCrystal
_audit_creation_method	'MofGen! by Chris Wilmer'
_symmetry_space_group_name_H-M	'P1'
_symmetry_Int_Tables_number	1
_symmetry_cell_setting	triclinic
loop_
_symmetry_equiv_pos_as_xyz
  x,y,z
_cell_length_a	27.440280
_cell_length_b	15.698487
_cell_length_c	15.698487
_cell_angle_alpha	90.001001
_cell_angle_beta	59.992596
_cell_angle_gamma	60.001451
loop_
_atom_site_label
_atom_site_type_symbol
_atom_site_fract_x
_atom_site_fract_y
_atom_site_fract_z
Zr1	Zr	0.533493	0.820571	-0.111951
O2	O	0.635172	0.684546	-0.247995
O3	O	0.431814	0.862275	-0.070226
O4	O	0.533495	0.862263	-0.247969
O5	O	0.533488	0.684563	0.069933
O6	O	0.533497	1.002444	-0.247971
O7	O	0.533490	0.684558	-0.070252
O8	O	0.351608	1.002466	0.069979
O9	O	0.715378	0.684540	-0.248017
O10	O	0.473637	0.984672	-0.052456
O11	O	0.473634	0.880059	0.052163
O12	O	0.593351	0.880045	-0.157106
O13	O	0.593348	0.775432	-0.052487
Zr14	Zr	0.533493	1.044152	0.111624
Zr15	Zr	0.533496	1.044144	-0.111954
Zr16	Zr	0.533490	0.820579	0.111628
Zr17	Zr	0.661412	0.820563	-0.111986
Zr18	Zr	0.405573	1.044160	0.111660
O19	O	0.635172	1.002448	0.069900
O20	O	0.635176	1.002437	-0.248000
O21	O	0.635167	0.684556	0.069904
O22	O	0.431814	1.180177	0.247668
O23	O	0.431818	1.180167	-0.070231
O24	O	0.431810	0.862286	0.247673
O25	O	0.533497	1.180160	-0.070259
O26	O	0.533490	1.002460	0.247643
O27	O	0.533488	0.862279	0.247645
O28	O	0.533495	1.180165	0.069925
O29	O	0.715380	0.862251	-0.248020
O30	O	0.351606	1.002472	0.247693
O31	O	0.351608	1.180183	0.247691
O32	O	0.351610	1.180177	0.069976
O33	O	0.715375	0.684546	-0.070302
O34	O	0.715378	0.862257	-0.070305
O35	O	0.473634	0.984678	0.156780
O36	O	0.473637	1.089291	0.052160
O37	O	0.593351	0.984664	-0.052490
O38	O	0.593348	0.880051	0.052130
C39	C	0.373485	0.932372	-0.000119
C40	C	0.319180	0.932376	-0.000103
C41	C	0.026682	0.855127	-0.077433
C42	C	-0.024335	0.855127	-0.077444
O43	O	-0.013143	0.789465	-0.143158
N44	N	-0.094039	0.932358	-0.000204
C45	C	-0.112727	1.009601	0.077046
O46	O	-0.176700	1.075292	0.142743
C47	C	-0.061710	1.009605	0.077051
C48	C	0.007994	0.932363	-0.000188
C49	C	0.096383	0.777892	-0.154667
C50	C	0.147396	0.777892	-0.154654
C51	C	0.128708	0.855127	-0.077409
C52	C	0.059008	0.932362	-0.000175
C53	C	-0.080398	1.086851	0.154296
C54	C	-0.029374	1.086849	0.154295
C55	C	0.040331	1.009607	0.077056
C56	C	0.091334	1.009598	0.077083
N57	N	0.161038	0.932366	-0.000157
C58	C	0.179725	0.855131	-0.077403
C59	C	-0.219862	1.009587	0.077027
C60	C	-0.270878	1.009580	0.077026
C61	C	-0.182483	0.855107	-0.077465
C62	C	-0.131466	0.855111	-0.077459
C63	C	-0.150158	0.932356	-0.000213
C64	C	0.286854	0.855136	-0.077371
C65	C	0.337867	0.855140	-0.077349
C66	C	0.249468	1.009616	0.077138
C67	C	0.198459	1.009609	0.077121
C68	C	0.217156	0.932365	-0.000143
O69	O	0.080193	1.075228	0.142760
O70	O	0.243698	0.789459	-0.143097
C71	C	0.533489	0.652706	-0.000159
C72	C	0.533488	0.557794	-0.000157
C73	C	0.533497	0.932352	-0.279825
C74	C	0.533498	0.932349	-0.374740
C75	C	0.693500	0.932351	-0.000208
C76	C	0.747805	0.932347	-0.000223
C77	C	0.533500	0.384008	-0.000167
C78	C	0.533496	0.480712	-0.000164
C79	C	0.533497	1.212017	-0.000168
C80	C	0.533498	1.306929	-0.000169
C81	C	0.533486	0.932373	-0.548504
C82	C	0.533490	0.932362	-0.451807
C83	C	0.533489	0.932371	0.279499
C84	C	0.533488	0.932374	0.374414
C85	C	0.373489	1.212027	-0.000123
C86	C	0.319185	1.306943	-0.000109
C87	C	0.373481	0.932381	0.279543
C88	C	0.319175	0.932388	0.374473
C89	C	0.373485	1.212037	0.279539
C90	C	0.319180	1.306956	0.374468
C91	C	0.693500	0.652686	-0.279866
C92	C	0.747805	0.557767	-0.374794
C93	C	0.693496	0.652696	-0.000204
C94	C	0.747800	0.557780	-0.000217
C95	C	0.693504	0.932342	-0.279870
C96	C	0.747811	0.932335	-0.374800
C97	C	0.293684	1.296907	-0.054721
C98	C	0.242666	1.386082	-0.054729
C99	C	0.217148	1.485293	-0.000119
C100	C	0.242655	1.495327	0.054495
C101	C	0.293675	1.406153	0.054496
C102	C	0.293672	0.987001	0.473672
C103	C	0.242653	0.987003	0.562877
C104	C	0.217133	0.932398	0.552882
C105	C	0.242641	0.877778	0.453673
C106	C	0.293663	0.877770	0.364470
C107	C	0.293679	1.406147	0.364437
C108	C	0.242661	1.495342	0.453623
C109	C	0.217141	1.485344	0.552840
C110	C	0.242647	1.386143	0.562869
C111	C	0.293668	1.296950	0.473683
C112	C	0.773312	0.458576	-0.364763
C113	C	0.824346	0.369381	-0.453950
C114	C	0.849869	0.379379	-0.553167
C115	C	0.824360	0.478580	-0.563196
C116	C	0.773330	0.567773	-0.474010
C117	C	0.773307	0.567816	0.054385
C118	C	0.824338	0.478641	0.054368
C119	C	0.849858	0.379430	-0.000245
C120	C	0.824349	0.369396	-0.054854
C121	C	0.773322	0.458570	-0.054843
C122	C	0.773314	0.986951	-0.364771
C123	C	0.824333	0.986965	-0.453959
C124	C	0.849853	0.932357	-0.553175
C125	C	0.824345	0.877739	-0.563202
C126	C	0.773322	0.877731	-0.474015
H127	H	0.394625	0.792234	-0.140245
C128	C	0.902568	0.184198	-0.103334
C129	C	0.852400	0.260337	-0.114873
H130	H	0.919880	0.116869	-0.140378
H131	H	0.939192	0.192025	-0.130321
H132	H	0.882651	0.192054	-0.031475
H133	H	0.872319	0.252486	-0.186732
H134	H	0.815770	0.252507	-0.087891
H135	H	0.845148	0.486709	-0.643989
H136	H	0.891399	0.932371	-0.625789
C137	C	0.144060	1.672563	0.621099
C138	C	0.161052	1.583394	0.650869
H139	H	0.109429	1.733096	0.681616
H140	H	0.183872	1.672542	0.580752
H141	H	0.127344	1.672533	0.580752
H142	H	0.177773	1.583420	0.691210
H143	H	0.121232	1.583416	0.691233
H144	H	0.221871	1.576116	0.098956
C145	C	0.674257	1.123151	-0.201089
C146	C	0.745266	1.046988	-0.255719
H147	H	0.656943	1.160215	-0.133765
H148	H	0.665900	1.170274	-0.238150
H149	H	0.651770	1.090611	-0.194289
H150	H	0.767754	1.079528	-0.262525
H151	H	0.753629	0.999857	-0.218649
C152	C	-0.197857	1.155468	0.222901
C153	C	-0.157010	1.171762	0.239199
H154	H	-0.245155	1.207890	0.275324
H155	H	-0.188056	1.158667	0.156233
H156	H	-0.188067	1.088802	0.226110
H157	H	-0.166796	1.238425	0.235981
H158	H	-0.166815	1.168573	0.305883
C159	C	0.371864	1.111730	0.385495
C160	C	0.321691	1.187918	0.484719
H161	H	0.389165	1.044421	0.392316
H162	H	0.351960	1.119550	0.348452
H163	H	0.408500	1.119539	0.348430
H164	H	0.285052	1.180114	0.521782
H165	H	0.341595	1.180094	0.521777
H166	H	0.302088	0.792238	-0.140288
C167	C	0.881689	0.248857	-0.388262
C168	C	0.852372	0.260349	-0.442906
H169	H	0.898984	0.181550	-0.381438
H170	H	0.918322	0.256661	-0.425326
H171	H	0.847636	0.300560	-0.320956
H172	H	0.886426	0.208650	-0.510216
H173	H	0.815735	0.252535	-0.405844
H174	H	0.314444	1.031468	0.481830
H175	H	0.175604	1.557896	-0.000127
C176	C	0.778456	0.341612	-0.162779
C177	C	0.745280	0.447526	-0.114853
H178	H	0.761142	0.334791	-0.199822
H179	H	0.826621	0.309108	-0.209928
H180	H	0.770095	0.309111	-0.111083
H181	H	0.753646	0.480026	-0.166549
H182	H	0.697104	0.480044	-0.067699
H183	H	0.845097	1.031440	-0.445775
H184	H	-0.044601	1.149754	0.217199
C185	C	0.778468	0.666729	-0.590970
C186	C	0.745288	0.676804	-0.485047
H187	H	0.761153	0.734040	-0.597787
H188	H	0.826632	0.629681	-0.623481
H189	H	0.770109	0.629648	-0.623473
H190	H	0.753651	0.713879	-0.452546
H191	H	0.697112	0.713868	-0.452523
H192	H	0.752533	0.648590	0.098865
C193	C	0.288514	1.523111	0.162479
C194	C	0.321694	1.417197	0.114546
H195	H	0.305808	1.529932	0.199558
H196	H	0.296889	1.555608	0.110794
H197	H	0.240340	1.555619	0.209609
H198	H	0.369867	1.384690	0.067410
H199	H	0.313324	1.384686	0.166238
H200	H	0.314421	0.833301	0.283702
C201	C	0.923370	0.441764	0.044914
C202	C	0.852364	0.489685	0.114412
H203	H	0.940668	0.448590	0.081985
H204	H	0.945873	0.369924	0.012389
H205	H	0.931724	0.474294	-0.006757
H206	H	0.844011	0.457149	0.166079
H207	H	0.829854	0.561539	0.146953
H208	H	0.845131	0.833278	-0.643995
C209	C	0.164412	1.474406	0.748086
C210	C	0.214584	1.375164	0.671935
H211	H	0.147081	1.467627	0.815418
H212	H	0.184327	1.511437	0.740250
H213	H	0.127795	1.511451	0.740242
H214	H	0.251203	1.338121	0.679774
H215	H	0.194669	1.338118	0.679774
C216	C	0.264857	0.709300	-0.223276
C217	C	0.224013	0.693001	-0.239575
H218	H	0.312156	0.656888	-0.275708
H219	H	0.255058	0.775966	-0.226463
H220	H	0.255065	0.706080	-0.156608
H221	H	0.233802	0.696229	-0.306240
H222	H	0.233816	0.626318	-0.236398
H223	H	-0.235091	1.072489	0.139939
C224	C	0.695086	0.546795	-0.179531
C225	C	0.745266	0.447569	-0.255710
H226	H	0.677775	0.539990	-0.112209
H227	H	0.714988	0.583846	-0.187360
H228	H	0.658459	0.583835	-0.187352
H229	H	0.781897	0.410532	-0.247894
H230	H	0.725365	0.410503	-0.247877
H231	H	0.221890	1.031485	0.643648
C232	C	0.288566	1.197905	-0.162696
C233	C	0.321728	1.187861	-0.114760
H234	H	0.305883	1.130586	-0.199770
H235	H	0.240399	1.234962	-0.111011
H236	H	0.296937	1.234967	-0.209829
H237	H	0.313353	1.150806	-0.067620
H238	H	0.369907	1.150789	-0.166450
C239	C	0.695156	0.829141	-0.385822
C240	C	0.745320	0.817644	-0.485048
H241	H	0.677874	0.792037	-0.392642
H242	H	0.715061	0.802204	-0.348776
H243	H	0.658505	0.900982	-0.348762
H244	H	0.781973	0.745804	-0.522105
H245	H	0.725415	0.844577	-0.522110
H246	H	0.175588	0.932413	0.625525
C247	C	0.371895	1.317928	0.179205
C248	C	0.321727	1.417154	0.255383
H249	H	0.389206	1.324733	0.111883
H250	H	0.408520	1.280875	0.187019
H251	H	0.351979	1.280890	0.187040
H252	H	0.341645	1.454189	0.247553
H253	H	0.285096	1.454223	0.247565
H254	H	0.141701	1.072497	0.140024
H255	H	-0.074712	0.792208	-0.140349
H256	H	0.234263	1.072497	0.140032
H257	H	0.891408	0.306827	-0.000246
H258	H	-0.167274	0.792221	-0.140366
C259	C	-0.353114	1.162268	0.229732
C260	C	-0.347495	1.094481	0.161936
H261	H	-0.400414	1.214689	0.282146
H262	H	-0.331383	1.124119	0.261454
H263	H	-0.331364	1.193980	0.191574
H264	H	-0.369240	1.062763	0.200093
H265	H	-0.369235	1.132635	0.130212
C266	C	0.226971	1.422946	-0.190947
C267	C	0.214630	1.375036	-0.114752
H268	H	0.209666	1.416118	-0.228004
H269	H	0.204474	1.494787	-0.158434
H270	H	0.275147	1.390410	-0.238089
H271	H	0.166454	1.407578	-0.067606
H272	H	0.237126	1.303182	-0.147267
C273	C	0.164393	0.829351	0.541950
C274	C	0.214570	0.817785	0.442697
H275	H	0.147055	0.792328	0.535173
H276	H	0.184306	0.802362	0.578977
H277	H	0.127782	0.901209	0.579004
H278	H	0.251184	0.745927	0.405646
H279	H	0.194657	0.844770	0.405655
C280	C	0.247795	1.594304	0.336661
C281	C	0.214626	1.604375	0.442583
H282	H	0.230483	1.661615	0.329846
H283	H	0.295961	1.557244	0.304135
H284	H	0.239423	1.557234	0.304171
H285	H	0.223001	1.641438	0.475071
H286	H	0.166448	1.641451	0.475122
H287	H	0.111611	0.714997	-0.217575
C288	C	0.922946	0.192160	-0.621425
C289	C	0.905957	0.281329	-0.651196
H290	H	0.957568	0.131627	-0.681943
H291	H	0.939668	0.192179	-0.581093
H292	H	0.883125	0.192192	-0.581064
H293	H	0.945777	0.281301	-0.691551
H294	H	0.889237	0.281310	-0.691545
