data_functionalizedCrystal
_audit_creation_method	'MofGen! by Chris Wilmer'
_symmetry_space_group_name_H-M	'P1'
_symmetry_Int_Tables_number	1
_symmetry_cell_setting	triclinic
loop_
_symmetry_equiv_pos_as_xyz
  x,y,z
_cell_length_a	21.295418
_cell_length_b	25.639239
_cell_length_c	21.295411
_cell_angle_alpha	90.019526
_cell_angle_beta	90.043738
_cell_angle_gamma	90.054499
loop_
_atom_site_label
_atom_site_type_symbol
_atom_site_fract_x
_atom_site_fract_y
_atom_site_fract_z
Zn1	Zn	0.962320	-0.207990	0.356243
Zn2	Zn	0.962207	-0.295410	0.250972
Zn3	Zn	0.857043	-0.208014	0.250953
Zn4	Zn	0.856998	-0.295420	0.356169
O5	O	0.909642	-0.251708	0.303584
O6	O	1.050395	-0.219572	0.342318
O7	O	0.948229	-0.283822	0.162880
O8	O	0.871075	-0.134846	0.264943
O9	O	1.050312	-0.283799	0.264976
O10	O	0.948421	-0.134828	0.342299
O11	O	0.870965	-0.219613	0.162866
O12	O	0.768948	-0.219623	0.264871
O13	O	0.870997	-0.283816	0.444268
O14	O	0.768914	-0.283840	0.342172
O15	O	0.948377	-0.219582	0.444322
O16	O	0.948185	-0.368576	0.264904
O17	O	0.870888	-0.368584	0.342191
C18	C	0.746090	-0.251736	0.303512
C19	C	0.676122	-0.251760	0.303496
C20	C	0.909536	-0.387551	0.303555
C21	C	0.909548	-0.445665	0.303564
C22	C	0.643255	-0.285242	0.343686
C23	C	0.577512	-0.285229	0.343715
C24	C	0.544640	-0.251740	0.303541
C25	C	0.577515	-0.218252	0.263347
C26	C	0.643257	-0.218262	0.263325
N27	N	0.441365	-0.247648	0.248483
N28	N	0.378913	-0.247641	0.248506
C29	C	0.346565	-0.251707	0.303608
N30	N	0.379028	-0.255789	0.358686
N31	N	0.441485	-0.255799	0.358662
C32	C	0.473354	-0.251725	0.303561
C33	C	0.242412	-0.285176	0.343832
C34	C	0.176668	-0.285160	0.343862
C35	C	0.176673	-0.218185	0.263489
C36	C	0.242415	-0.218199	0.263465
C37	C	0.275281	-0.251697	0.303636
C38	C	0.949996	-0.806011	0.263409
C39	C	0.950020	-0.860616	0.263418
O40	O	0.984300	-0.888838	0.229245
N41	N	0.909753	-0.887947	0.303626
C42	C	0.869463	-0.860672	0.343833
O43	O	0.835215	-0.888934	0.378034
C44	C	0.869442	-0.806069	0.343827
C45	C	0.909708	-0.778740	0.303612
C46	C	0.990259	-0.778683	0.223198
C47	C	0.990233	-0.724082	0.223188
C48	C	0.949945	-0.696810	0.263391
C49	C	0.909682	-0.724139	0.303603
C50	C	0.829156	-0.778794	0.384037
C51	C	0.829139	-0.724187	0.384028
C52	C	0.869404	-0.696858	0.343812
C53	C	0.869369	-0.642267	0.343796
N54	N	0.909636	-0.614935	0.303588
C55	C	0.949924	-0.642207	0.263385
C56	C	0.869510	-0.975343	0.343842
C57	C	0.869527	-1.029945	0.343845
C58	C	0.950086	-1.029885	0.263431
C59	C	0.950065	-0.975282	0.263425
C60	C	0.909778	-0.948011	0.303634
C61	C	0.949868	-0.527542	0.263369
C62	C	0.949837	-0.472937	0.263361
C63	C	0.869281	-0.473001	0.343778
C64	C	0.869309	-0.527602	0.343783
C65	C	0.909607	-0.554871	0.303577
O66	O	0.835108	-0.614010	0.377953
O67	O	0.984172	-0.613939	0.229195
C68	C	1.073832	-0.251681	0.303657
C69	C	1.143801	-0.251670	0.303688
C70	C	0.909694	-0.251697	0.467774
C71	C	0.909717	-0.251693	0.537743
C72	C	0.909766	-0.115335	0.303627
C73	C	0.909818	-0.057221	0.303645
C74	C	0.909626	-0.251682	0.140032
C75	C	0.909726	-0.251539	0.070065
C76	C	0.950007	-0.218244	0.570639
C77	C	0.950006	-0.218221	0.636381
C78	C	0.909721	-0.251657	0.669225
C79	C	0.869424	-0.285108	0.636321
C80	C	0.869421	-0.285126	0.570580
N81	N	0.904857	-0.297396	0.772441
N82	N	0.904863	-0.297377	0.834892
C83	C	0.909725	-0.251604	0.867300
N84	N	0.914594	-0.205848	0.834897
N85	N	0.914591	-0.205867	0.772440
C86	C	0.909719	-0.251641	0.740511
C87	C	0.950017	-0.218128	0.971482
C88	C	0.950011	-0.218104	1.037225
C89	C	0.869433	-0.284995	1.037164
C90	C	0.869435	-0.285014	0.971422
C91	C	0.909730	-0.251581	0.938584
H92	H	0.550746	-0.312494	0.376445
C93	C	0.140524	-0.181345	0.219299
H94	H	0.169518	-0.161403	0.195360
H95	H	0.114818	-0.201305	0.191837
H96	H	0.114940	-0.158587	0.243444
C97	C	0.824970	-0.442996	0.388000
H98	H	0.830731	-0.406563	0.382237
H99	H	0.782681	-0.451989	0.378744
H100	H	0.834175	-0.451917	0.430310
H101	H	0.982818	-0.191020	0.543907
H102	H	0.982824	-0.190902	0.944744
C103	C	0.825184	-0.945349	0.388068
H104	H	0.801204	-0.969451	0.412008
H105	H	0.849236	-0.924012	0.415527
H106	H	0.797755	-0.924088	0.363947
C107	C	0.994331	-0.181431	0.672575
H108	H	1.018332	-0.161525	0.643602
H109	H	0.970279	-0.158646	0.698207
H110	H	1.021740	-0.201429	0.698236
C111	C	0.784822	-0.694190	0.428257
H112	H	0.790575	-0.657755	0.422499
H113	H	0.742535	-0.703190	0.418996
H114	H	0.794026	-0.703114	0.470566
H115	H	0.836622	-0.312329	0.663067
C116	C	0.825109	-0.321928	0.534393
H117	H	0.801120	-0.341841	0.563366
H118	H	0.797699	-0.301944	0.508721
H119	H	0.849179	-0.344713	0.508771
H120	H	0.836626	-0.312213	1.063905
C121	C	0.679413	-0.181433	0.219109
H122	H	0.650422	-0.161487	0.195184
H123	H	0.705119	-0.158687	0.243229
H124	H	0.704997	-0.201409	0.191626
H125	H	0.670010	-0.312519	0.376398
H126	H	0.836630	-0.312254	0.944637
C127	C	0.140514	-0.321999	0.388065
H128	H	0.169505	-0.341955	0.411977
H129	H	0.114922	-0.302038	0.415552
H130	H	0.114814	-0.344743	0.363930
C131	C	0.541359	-0.181414	0.219157
H132	H	0.497498	-0.186207	0.224922
H133	H	0.552190	-0.146298	0.228443
H134	H	0.552076	-0.189018	0.176839
H135	H	0.796364	-0.801036	0.416781
H136	H	0.982819	-0.190863	1.064008
H137	H	0.269176	-0.190937	0.230734
C138	C	0.278570	-0.322015	0.388024
H139	H	0.322431	-0.317230	0.382250
H140	H	0.267854	-0.314411	0.430339
H141	H	0.267736	-0.357134	0.378738
C142	C	0.994133	-0.442878	0.219126
H143	H	1.018135	-0.466944	0.195190
H144	H	0.970061	-0.421614	0.191662
H145	H	1.021543	-0.421539	0.243241
H146	H	1.023023	-0.701834	0.190444
C147	C	0.994190	-0.557530	0.219138
H148	H	1.018158	-0.533428	0.195187
H149	H	1.021620	-0.578793	0.243248
H150	H	0.970128	-0.578865	0.191679
H151	H	1.023070	-0.800881	0.190460
H152	H	0.982853	-0.953034	0.230679
C153	C	0.994401	-1.059891	0.219207
H154	H	0.988646	-1.096324	0.224976
H155	H	0.985205	-1.050969	0.176899
H156	H	1.036692	-1.050897	0.228472
C157	C	0.825232	-1.060003	0.388077
H158	H	0.831010	-1.096430	0.382326
H159	H	0.834421	-1.051025	0.430381
H160	H	0.782936	-1.051103	0.378805
C161	C	0.825018	-0.557665	0.388018
H162	H	0.801022	-0.533600	0.411961
H163	H	0.797612	-0.579010	0.363913
H164	H	0.849102	-0.578923	0.415483
