data_functionalizedCrystal
_audit_creation_method	'MofGen! by Chris Wilmer'
_symmetry_space_group_name_H-M	'P1'
_symmetry_Int_Tables_number	1
_symmetry_cell_setting	triclinic
loop_
_symmetry_equiv_pos_as_xyz
  x,y,z
_cell_length_a	10.654545
_cell_length_b	10.654547
_cell_length_c	9.130313
_cell_angle_alpha	90.002666
_cell_angle_beta	90.003066
_cell_angle_gamma	84.483465
loop_
_atom_site_label
_atom_site_type_symbol
_atom_site_fract_x
_atom_site_fract_y
_atom_site_fract_z
O1	O	1.667841	0.176372	0.121778
O2	O	1.302362	0.193184	0.121784
O3	O	1.493506	0.002038	0.121778
O4	O	1.476697	0.367518	0.121784
O5	O	1.493493	0.002033	-0.121821
O6	O	1.302349	0.193178	-0.121815
O7	O	1.667828	0.176366	-0.121821
Cu8	Cu	1.485087	0.184772	-0.144060
Cu9	Cu	1.485103	0.184778	0.144024
O10	O	1.476683	0.367512	-0.121815
C11	C	1.255557	0.191948	-0.000015
C12	C	1.116114	0.188258	-0.000013
C13	C	1.050602	0.186518	-0.132799
C14	C	0.919582	0.183031	-0.132799
C15	C	0.919597	0.183028	0.132785
C16	C	1.050616	0.186507	0.132784
C17	C	1.714633	0.177602	-0.000019
C18	C	1.854076	0.181292	-0.000011
C19	C	1.492266	-0.044762	-0.000019
C20	C	1.488575	-0.184206	-0.000012
C21	C	1.477924	0.414313	-0.000015
C22	C	1.481614	0.553756	-0.000012
N23	N	1.485085	0.184766	-0.346683
C24	C	1.483357	0.619266	0.132775
C25	C	1.486842	0.750286	0.132776
C26	C	1.486836	0.750275	-0.132809
C27	C	1.483360	0.619256	-0.132808
C28	C	1.569753	0.100163	-0.423337
C29	C	1.569765	0.100163	-0.576674
C30	C	1.400438	0.269381	-0.576689
C31	C	1.400421	0.269374	-0.423355
N32	N	1.485114	0.184774	0.346646
H33	H	1.103957	0.187920	0.240921
H34	H	1.103927	0.187944	-0.240931
H35	H	1.481934	0.565940	0.240906
Cl36	Cl	0.837230	0.180846	-0.299739
H37	H	1.331507	0.338269	-0.639130
H38	H	1.481945	0.565916	-0.240946
Cl39	Cl	1.489037	0.832635	0.299716
H40	H	1.488255	0.803621	-0.240927
H41	H	1.638690	0.031269	-0.360915
H42	H	1.331468	0.338269	-0.360938
H43	H	1.638707	0.031270	-0.639082
H44	H	0.866253	0.181604	0.240904
