data_functionalizedCrystal
_audit_creation_method	'MofGen! by Chris Wilmer'
_symmetry_space_group_name_H-M	'P1'
_symmetry_Int_Tables_number	1
_symmetry_cell_setting	triclinic
loop_
_symmetry_equiv_pos_as_xyz
  x,y,z
_cell_length_a	19.288864
_cell_length_b	14.971486
_cell_length_c	13.448316
_cell_angle_alpha	90.006811
_cell_angle_beta	90.020610
_cell_angle_gamma	83.375187
loop_
_atom_site_label
_atom_site_type_symbol
_atom_site_fract_x
_atom_site_fract_y
_atom_site_fract_z
O1	O	-0.921714	-0.111582	-0.083011
O2	O	-0.719503	-0.126634	-0.082943
O3	O	-0.826028	0.011122	-0.082972
O4	O	-0.815189	-0.249337	-0.082983
O5	O	-0.826015	0.011130	0.082412
O6	O	-0.719489	-0.126625	0.082440
O7	O	-0.921701	-0.111573	0.082372
Cu8	Cu	-0.820594	-0.119098	0.097507
Cu9	Cu	-0.820610	-0.119108	-0.098078
O10	O	-0.815175	-0.249329	0.082401
C11	C	-0.693618	-0.126145	-0.000243
C12	C	-0.616510	-0.124691	-0.000217
C13	C	-0.825537	0.044448	-0.000280
C14	C	-0.824084	0.143737	-0.000281
C15	C	-0.947586	-0.112062	-0.000330
C16	C	-1.024694	-0.113516	-0.000363
C17	C	-0.572077	-0.205520	-0.000236
C18	C	-0.499625	-0.204154	-0.000246
C19	C	-0.471610	-0.121955	-0.000258
C20	C	-0.516052	-0.041116	-0.000234
C21	C	-0.588502	-0.042484	-0.000213
C22	C	-0.363142	-0.057340	-0.058231
C23	C	-0.290693	-0.055975	-0.058258
C24	C	-0.248150	-0.117732	-0.000318
C25	C	-0.278064	-0.180868	0.057635
C26	C	-0.350514	-0.182236	0.057656
C27	C	-0.393051	-0.120462	-0.000281
C28	C	-0.125157	-0.197085	-0.000348
C29	C	-0.052704	-0.195715	-0.000353
C30	C	-0.069133	-0.032675	-0.000350
C31	C	-0.141584	-0.034046	-0.000335
C32	C	-0.169591	-0.116254	-0.000339
N33	N	-0.820588	-0.119091	0.235072
C34	C	-0.815667	-0.282655	-0.000293
C35	C	-0.817119	-0.381944	-0.000299
C36	C	-0.886665	0.201301	-0.000301
C37	C	-0.885296	0.294593	-0.000311
C38	C	-0.821345	0.330320	-0.000293
C39	C	-0.758759	0.272749	-0.000275
C40	C	-0.760129	0.179458	-0.000273
C41	C	-0.755909	0.467196	-0.000278
C42	C	-0.754538	0.560492	-0.000279
C43	C	-0.881075	0.582330	-0.000316
C44	C	-0.882445	0.489040	-0.000313
C45	C	-0.819859	0.431475	-0.000294
N46	N	-0.820621	-0.119109	-0.235643
C47	C	-0.867772	-0.058118	0.287099
C48	C	-0.867776	-0.058117	0.391203
C49	C	-0.820599	-0.119094	0.443276
C50	C	-0.773410	-0.180070	0.391241
C51	C	-0.773403	-0.180066	0.287140
C52	C	-0.773429	-0.180076	0.608221
C53	C	-0.773437	-0.180082	0.712330
C54	C	-0.867803	-0.058127	0.712284
C55	C	-0.867796	-0.058123	0.608183
C56	C	-0.820607	-0.119100	0.556155
H57	H	-0.594875	-0.272460	-0.000240
H58	H	-0.463441	-0.269976	-0.000259
O59	O	-0.692358	0.595050	-0.000321
C60	C	-0.566995	0.563551	-0.000261
C61	C	-0.637365	0.524294	-0.000231
H62	H	-0.522515	0.506364	-0.000167
H63	H	-0.563162	0.606640	-0.069493
H64	H	-0.563214	0.606721	0.068933
H65	H	-0.641194	0.481084	-0.069378
H66	H	-0.641167	0.481256	0.069047
H67	H	-0.906192	-0.008467	0.244708
O68	O	-0.941937	0.638116	-0.000295
C69	C	-1.067588	0.649932	-0.000383
C70	C	-0.998719	0.586648	-0.000390
H71	H	-1.113514	0.608345	-0.000480
H72	H	-1.070150	0.694148	0.068843
H73	H	-1.070082	0.694162	-0.069583
H74	H	-0.996179	0.542362	0.068764
H75	H	-0.996185	0.542493	-0.069661
H76	H	-0.493237	0.025811	-0.000257
O77	O	-0.727607	-0.239425	0.441710
C78	C	-0.687052	-0.395089	0.473597
C79	C	-0.738953	-0.327967	0.416367
H80	H	-0.696217	-0.466690	0.453145
H81	H	-0.631399	-0.383684	0.453147
H82	H	-0.695150	-0.384578	0.556935
H83	H	-0.730919	-0.338438	0.333017
H84	H	-0.794588	-0.339389	0.436901
H85	H	-0.016527	-0.261539	-0.000362
H86	H	-0.704944	0.420328	-0.000265
O87	O	-0.696577	0.307301	-0.000305
C88	C	-0.571214	0.275787	-0.000212
C89	C	-0.641589	0.236540	-0.000203
H90	H	-0.526738	0.218596	-0.000108
H91	H	-0.567370	0.318877	-0.069441
H92	H	-0.567440	0.318956	0.068985
H93	H	-0.645411	0.193331	-0.069353
H94	H	-0.645403	0.193501	0.069071
H95	H	-0.374867	-0.233641	0.104847
H96	H	-0.709169	0.132590	-0.000257
O97	O	-0.042043	0.047253	-0.000316
C98	C	-0.065984	0.208819	-0.000369
C99	C	-0.096759	0.118362	-0.000389
H100	H	-0.110207	0.266335	-0.000449
H101	H	-0.032476	0.213601	0.068853
H102	H	-0.032476	0.213484	-0.069573
H103	H	-0.130299	0.113637	0.068768
H104	H	-0.130228	0.113620	-0.069656
H105	H	-0.624680	0.023339	-0.000198
O106	O	-0.913737	0.001019	0.762776
C107	C	-1.034468	0.053844	0.794518
C108	C	-0.982524	-0.013193	0.737284
H109	H	-1.090093	0.042390	0.773913
H110	H	-1.026428	0.043370	0.877877
H111	H	-1.025331	0.125452	0.774081
H112	H	-0.991630	-0.084827	0.757638
H113	H	-0.990576	-0.002640	0.653939
H114	H	-0.936256	0.341458	-0.000325
O115	O	-0.727533	-0.239335	0.762762
C116	C	-0.633939	-0.360304	0.751828
C117	C	-0.685881	-0.293240	0.694590
H118	H	-0.600260	-0.403916	0.696737
H119	H	-0.599178	-0.321828	0.800564
H120	H	-0.663967	-0.404860	0.800570
H121	H	-0.655911	-0.248667	0.645794
H122	H	-0.720642	-0.331772	0.645917
O123	O	-0.944523	0.454229	-0.000463
C124	C	-1.019526	0.361608	-0.086197
C125	C	-0.949192	0.400954	-0.086136
H126	H	-1.023330	0.318542	-0.155467
H127	H	-1.023335	0.318427	-0.017032
H128	H	-1.064010	0.418790	-0.086166
H129	H	-0.904667	0.343829	-0.086203
H130	H	-0.945444	0.444159	-0.155295
H131	H	-0.906197	-0.008468	0.433563
O132	O	-0.913553	0.001321	0.557756
C133	C	-0.954060	0.157075	0.526310
C134	C	-0.902192	0.089792	0.583387
H135	H	-0.944902	0.228618	0.547027
H136	H	-0.946022	0.146816	0.442926
H137	H	-1.009694	0.145594	0.546773
H138	H	-0.846537	0.101233	0.563006
H139	H	-0.910290	0.100068	0.666756
H140	H	-0.735001	-0.229728	0.565864
H141	H	-0.243427	-0.231155	0.104815
H142	H	-0.147961	-0.264023	-0.000336
H143	H	-0.734980	-0.229716	0.244780
H144	H	-0.177762	0.031773	-0.000325
H145	H	-0.266343	-0.004570	-0.105451
H146	H	-0.938741	0.172220	-0.000309
O147	O	-0.404360	0.002687	-0.114615
C148	C	-0.409241	0.126724	-0.229545
C149	C	-0.362481	0.058788	-0.165754
H150	H	-0.375402	0.172112	-0.270891
H151	H	-0.439424	0.089005	-0.285507
H152	H	-0.447527	0.169392	-0.179397
H153	H	-0.324156	0.016102	-0.215823
H154	H	-0.332348	0.096562	-0.109784
