data_functionalizedCrystal
_audit_creation_method	'MofGen! by Chris Wilmer'
_symmetry_space_group_name_H-M	'P1'
_symmetry_Int_Tables_number	1
_symmetry_cell_setting	triclinic
loop_
_symmetry_equiv_pos_as_xyz
  x,y,z
_cell_length_a	16.625548
_cell_length_b	16.625545
_cell_length_c	12.827885
_cell_angle_alpha	90.030495
_cell_angle_beta	89.978764
_cell_angle_gamma	89.971982
loop_
_atom_site_label
_atom_site_type_symbol
_atom_site_fract_x
_atom_site_fract_y
_atom_site_fract_z
Zn1	Zn	1.232661	0.320940	-0.590898
Zn2	Zn	1.732661	0.820940	-0.090898
Zn3	Zn	1.232552	0.455794	-0.416156
Zn4	Zn	1.732552	0.955794	0.083844
Zn5	Zn	1.097821	0.320981	-0.416166
Zn6	Zn	1.597821	0.820981	0.083834
Zn7	Zn	1.097782	0.455736	-0.590850
Zn8	Zn	1.597782	0.955736	-0.090850
O9	O	1.165204	0.388363	-0.503518
O10	O	1.665204	0.888363	-0.003518
O11	O	1.345479	0.338835	-0.567734
O12	O	1.845479	0.838835	-0.067734
O13	O	1.214650	0.437952	-0.269922
O14	O	1.714650	0.937952	0.230078
O15	O	1.115769	0.208143	-0.439369
O16	O	1.615769	0.708143	0.060631
O17	O	1.345399	0.437912	-0.439352
O18	O	1.845399	0.937912	0.060648
O19	O	1.214836	0.208113	-0.567744
O20	O	1.714836	0.708113	-0.067744
O21	O	1.115664	0.338906	-0.269929
O22	O	1.615664	0.838906	0.230071
O23	O	0.984983	0.338850	-0.439322
O24	O	1.484983	0.838850	0.060678
O25	O	1.115704	0.437814	-0.737093
O26	O	1.615704	0.937814	-0.237093
O27	O	0.984955	0.437854	-0.567662
O28	O	1.484955	0.937854	-0.067662
O29	O	1.214798	0.338779	-0.737128
O30	O	1.714798	0.838779	-0.237128
O31	O	1.214613	0.568619	-0.439306
O32	O	1.714613	1.068619	0.060694
O33	O	1.115598	0.568576	-0.567653
O34	O	1.615598	1.068576	-0.067653
C35	C	0.955713	0.388351	-0.503489
C36	C	1.455713	0.888351	-0.003489
C37	C	0.866092	0.388366	-0.503501
C38	C	1.366092	0.888366	-0.003501
C39	C	1.165111	0.597854	-0.503496
C40	C	1.665111	1.097854	-0.003496
C41	C	1.165145	0.687475	-0.503522
C42	C	1.665145	1.187475	-0.003522
C43	C	1.165259	0.388285	-0.776088
C44	C	1.665259	0.888285	-0.276088
C45	C	1.165282	0.388252	-0.892241
C46	C	1.665282	0.888252	-0.392241
C47	C	0.537916	0.388371	-0.503546
C48	C	1.037916	0.888371	-0.003546
C49	C	0.629225	0.388367	-0.503530
C50	C	1.129225	0.888367	-0.003530
C51	C	0.702001	0.388369	-0.503522
C52	C	1.202001	0.888369	-0.003522
C53	C	0.793316	0.388364	-0.503508
C54	C	1.293316	0.888364	-0.003508
C55	C	1.375513	0.388375	-0.503548
C56	C	1.875513	0.888375	-0.003548
C57	C	1.465134	0.388380	-0.503560
C58	C	1.965134	0.888380	-0.003560
C59	C	1.165175	0.760257	-0.503546
C60	C	1.665175	1.260257	-0.003546
C61	C	1.165220	0.851566	-0.503574
C62	C	1.665220	1.351566	-0.003574
C63	C	1.165260	0.924342	-0.503591
C64	C	1.665260	1.424342	-0.003591
C65	C	1.165304	1.015656	-0.503617
C66	C	1.665304	1.515656	-0.003617
C67	C	1.165313	1.178054	-0.503576
C68	C	1.665313	1.678054	-0.003576
C69	C	1.165344	1.088433	-0.503635
C70	C	1.665344	1.588433	-0.003635
C71	C	1.214323	0.339237	-0.944043
C72	C	1.714323	0.839237	-0.444043
C73	C	1.214348	0.339202	-1.064094
C74	C	1.714348	0.839202	-0.564094
C75	C	1.165196	0.388382	-0.232008
C76	C	1.665196	0.888382	0.267992
C77	C	1.165329	0.388188	-0.115855
C78	C	1.665329	0.888188	0.384145
H79	H	1.256286	0.297297	-0.899516
H80	H	1.756286	0.797297	-0.399516
Cl81	Cl	1.279178	0.274414	-1.132867
Cl82	Cl	1.779178	0.774414	-0.632867
Cl83	Cl	1.100505	0.452987	-1.047088
Cl84	Cl	1.600505	0.952987	-0.547088
H85	H	1.123310	0.430185	-0.936768
H86	H	1.623310	0.930185	-0.436768
