data_functionalizedCrystal
_audit_creation_method	'MofGen! by Chris Wilmer'
_symmetry_space_group_name_H-M	'P1'
_symmetry_Int_Tables_number	1
_symmetry_cell_setting	triclinic
loop_
_symmetry_equiv_pos_as_xyz
  x,y,z
_cell_length_a	16.120530
_cell_length_b	25.639240
_cell_length_c	16.120297
_cell_angle_alpha	87.138170
_cell_angle_beta	89.871860
_cell_angle_gamma	87.127770
loop_
_atom_site_label
_atom_site_type_symbol
_atom_site_fract_x
_atom_site_fract_y
_atom_site_fract_z
Zn1	Zn	1.247376	-0.264883	0.534485
Zn2	Zn	1.254307	-0.348114	0.395403
Zn3	Zn	1.115369	-0.256048	0.388406
Zn4	Zn	1.108263	-0.347633	0.527372
O5	O	1.181329	-0.304169	0.461417
O6	O	1.364661	-0.279823	0.521941
O7	O	1.241750	-0.332405	0.278110
O8	O	1.132953	-0.184058	0.407832
O9	O	1.369753	-0.340972	0.419757
O10	O	1.229938	-0.190549	0.515156
O11	O	1.139673	-0.264765	0.272970
O12	O	0.998061	-0.264298	0.400935
O13	O	1.120843	-0.340152	0.644680
O14	O	0.992840	-0.331585	0.503033
O15	O	1.223048	-0.279356	0.649906
O16	O	1.234860	-0.421212	0.412860
O17	O	1.127563	-0.420858	0.509818
C18	C	0.965278	-0.296931	0.450453
C19	C	0.872850	-0.293847	0.445783
C20	C	0.703622	-0.288205	0.437263
C21	C	0.659873	-0.320174	0.485630
C22	C	0.565708	-0.317035	0.480890
C23	C	0.797795	-0.291344	0.442003
C24	C	1.181214	-0.440006	0.461345
C25	C	1.181240	-0.498121	0.461347
C26	C	1.231850	-0.861834	0.517397
C27	C	1.231874	-0.916440	0.517416
O28	O	1.274768	-0.947518	0.564998
N29	N	1.181440	-0.940415	0.461503
C30	C	1.130972	-0.909781	0.405574
O31	O	1.088076	-0.935187	0.358018
C32	C	1.130945	-0.855176	0.405560
C33	C	1.181389	-0.831204	0.461471
C34	C	1.282289	-0.837862	0.573304
C35	C	1.282267	-0.783260	0.573285
C36	C	1.231805	-0.752630	0.517359
C37	C	1.181366	-0.776603	0.461452
C38	C	1.080474	-0.824543	0.349636
C39	C	1.080450	-0.769935	0.349628
C40	C	1.130894	-0.745964	0.405539
C41	C	1.130882	-0.691371	0.405506
N42	N	1.181316	-0.667396	0.461419
C43	C	1.231778	-0.698026	0.517345
C44	C	1.131033	-1.024454	0.405608
C45	C	1.131064	-1.079058	0.405616
C46	C	1.231965	-1.085713	0.517459
C47	C	1.231937	-1.031109	0.517446
C48	C	1.181467	-1.000480	0.461520
C49	C	1.231727	-0.583358	0.517300
C50	C	1.231702	-0.528751	0.517273
C51	C	1.130798	-0.522100	0.405433
C52	C	1.130826	-0.576703	0.405457
C53	C	1.181292	-0.607330	0.461397
O54	O	1.088007	-0.660259	0.357950
O55	O	1.274659	-0.672612	0.564900
C56	C	1.398223	-0.311437	0.472423
C57	C	1.490650	-0.314534	0.477113
C58	C	1.170380	-0.310686	0.678309
C59	C	1.165714	-0.313462	0.770735
C60	C	1.181465	-0.167804	0.461507
C61	C	1.181523	-0.109693	0.461546
C62	C	1.192283	-0.297642	0.245371
C63	C	1.197109	-0.294724	0.152953
C64	C	1.157165	-0.318519	0.939958
C65	C	1.205656	-0.289668	0.983735
C66	C	1.200899	-0.292482	1.077896
C67	C	1.161921	-0.315706	0.845788
H68	H	1.272815	-0.608289	0.562857
H69	H	1.039397	-0.844052	0.304107
O70	O	1.259332	-0.257641	0.943998
C71	C	1.214505	-0.220805	0.891383
H72	H	1.152113	-0.236758	0.875251
H73	H	1.203744	-0.182738	0.924358
C74	C	1.340989	-0.190848	0.830971
C75	C	1.264360	-0.210443	0.811152
H76	H	1.371742	-0.184454	0.781482
H77	H	1.371190	-0.215664	0.866420
H78	H	1.332010	-0.159128	0.858451
H79	H	1.273339	-0.242167	0.783682
H80	H	1.234161	-0.185633	0.775696
O81	O	1.281057	-1.115395	0.571823
C82	C	1.325557	-1.082532	0.621190
H83	H	1.330174	-1.042692	0.587274
H84	H	1.291862	-1.077597	0.682768
C85	C	1.407775	-1.156054	0.679403
C86	C	1.413452	-1.107122	0.637744
H87	H	1.461991	-1.171222	0.689618
H88	H	1.377793	-1.178195	0.646146
H89	H	1.379692	-1.151934	0.730714
H90	H	1.441525	-1.111243	0.586430
H91	H	1.443441	-1.084982	0.670992
H92	H	0.693138	-0.349899	0.530600
H93	H	0.670359	-0.258482	0.392298
O94	O	1.031398	-0.740261	0.295221
C95	C	0.986868	-0.773133	0.245898
H96	H	1.021096	-0.813093	0.244787
H97	H	0.922160	-0.777765	0.273102
C98	C	0.937363	-0.699726	0.158141
C99	C	0.979405	-0.748804	0.156769
H100	H	0.932755	-0.684718	0.103163
H101	H	0.967360	-0.677579	0.191372
H102	H	0.883443	-0.703593	0.180814
H103	H	1.033326	-0.744935	0.134106
H104	H	0.949416	-0.770950	0.123532
H105	H	1.112083	-0.345331	0.973196
H106	H	1.272782	-0.509235	0.562802
O107	O	1.331286	-0.760062	0.627681
C108	C	1.375838	-0.798815	0.677026
H109	H	1.341643	-0.836700	0.678151
H110	H	1.440555	-0.805800	0.649835
C111	C	1.425273	-0.734002	0.764760
C112	C	1.383270	-0.780532	0.766147
H113	H	1.429861	-0.722724	0.819733
H114	H	1.395260	-0.707893	0.731514
H115	H	1.479199	-0.739829	0.742097
H116	H	1.329342	-0.774702	0.788800
H117	H	1.413274	-0.806639	0.799399
O118	O	1.081660	-0.492395	0.351150
C119	C	0.997859	-0.503536	0.365079
H120	H	0.994515	-0.544077	0.396955
H121	H	0.967657	-0.473154	0.406392
C122	C	0.955740	-0.452188	0.242278
C123	C	0.951633	-0.501984	0.281423
H124	H	0.927223	-0.451229	0.190676
H125	H	1.012198	-0.444680	0.232895
H126	H	0.930572	-0.426875	0.276714
H127	H	0.976809	-0.527295	0.246992
H128	H	0.895178	-0.509496	0.290798
H129	H	1.323381	-0.862796	0.618851
H130	H	1.089997	-1.098571	0.360080
O131	O	1.280814	-1.007764	0.571796
C132	C	1.230701	-0.976227	0.623071
H133	H	1.169187	-0.965099	0.590494
H134	H	1.218413	-0.998804	0.684223
C135	C	1.351208	-0.939982	0.680495
C136	C	1.275658	-0.926310	0.640480
H137	H	1.378940	-0.909192	0.691237
H138	H	1.384971	-0.961230	0.645953
H139	H	1.340957	-0.958797	0.731450
H140	H	1.285910	-0.907502	0.589522
H141	H	1.241897	-0.905058	0.675014
O142	O	1.081988	-0.994781	0.351190
C143	C	1.037470	-1.027656	0.301863
H144	H	1.071701	-1.067615	0.300759
H145	H	0.972758	-1.032290	0.329056
C146	C	0.987971	-0.954253	0.214093
C147	C	1.030019	-1.003330	0.212731
H148	H	0.983371	-0.939247	0.159113
H149	H	1.017961	-0.932104	0.247327
H150	H	0.934049	-0.958121	0.236758
H151	H	1.083943	-0.999460	0.190076
H152	H	1.000037	-1.025478	0.179491
H153	H	1.089757	-0.596221	0.359923
