data_functionalizedCrystal
_audit_creation_method	'MofGen! by Chris Wilmer'
_symmetry_space_group_name_H-M	'P1'
_symmetry_Int_Tables_number	1
_symmetry_cell_setting	triclinic
loop_
_symmetry_equiv_pos_as_xyz
  x,y,z
_cell_length_a	13.897448
_cell_length_b	21.395362
_cell_length_c	21.395356
_cell_angle_alpha	89.957023
_cell_angle_beta	89.975201
_cell_angle_gamma	90.033571
loop_
_atom_site_label
_atom_site_type_symbol
_atom_site_fract_x
_atom_site_fract_y
_atom_site_fract_z
Zn1	Zn	-0.383630	0.957910	-0.354598
Zn2	Zn	-0.544936	0.957838	-0.249826
Zn3	Zn	-0.383701	0.853127	-0.249799
Zn4	Zn	-0.544930	0.853118	-0.354531
O5	O	-0.464299	0.905498	-0.302189
O6	O	-0.405001	1.045579	-0.340739
O7	O	-0.523580	0.943922	-0.162145
O8	O	-0.248710	0.867060	-0.263718
O9	O	-0.523511	1.045526	-0.263764
O10	O	-0.248658	0.944044	-0.340714
O11	O	-0.405121	0.866991	-0.162125
O12	O	-0.405116	0.765448	-0.263653
O13	O	-0.523501	0.867045	-0.442218
O14	O	-0.523570	0.765441	-0.340599
O15	O	-0.404995	0.944036	-0.442267
O16	O	-0.679917	0.943913	-0.263698
O17	O	-0.679912	0.866976	-0.340624
C18	C	-0.464350	0.742711	-0.302116
C19	C	-0.464395	0.673069	-0.302100
C20	C	-0.526156	0.640369	-0.342105
C21	C	-0.526133	0.574934	-0.342133
C22	C	-0.464358	0.542201	-0.302144
C23	C	-0.402585	0.574909	-0.262136
C24	C	-0.402604	0.640343	-0.262114
C25	C	-0.456601	0.438476	-0.245739
C26	C	-0.456590	0.373043	-0.245760
C27	C	-0.464295	0.340380	-0.302214
C28	C	-0.472033	0.373159	-0.358647
C29	C	-0.472052	0.438593	-0.358625
C30	C	-0.464331	0.471249	-0.302164
C31	C	-0.526034	0.236728	-0.342253
C32	C	-0.526003	0.171291	-0.342282
C33	C	-0.402461	0.171268	-0.262279
C34	C	-0.402487	0.236703	-0.262255
C35	C	-0.464278	0.269429	-0.302242
C36	C	-0.714914	0.905453	-0.302170
C37	C	-0.822128	0.905490	-0.302184
C38	C	-1.018423	0.905556	-0.302223
C39	C	-0.909190	0.905518	-0.302203
C40	C	-0.212706	0.905561	-0.302221
C41	C	-0.105492	0.905588	-0.302234
C42	C	-0.464240	0.905548	-0.465612
C43	C	-0.464214	0.905569	-0.535253
C44	C	-0.464249	1.068922	-0.302262
C45	C	-0.464227	1.138563	-0.302293
C46	C	-0.402526	0.865521	-0.567946
C47	C	-0.402508	0.865519	-0.633382
C48	C	-0.464168	0.905576	-0.666122
C49	C	-0.525868	0.945626	-0.633421
C50	C	-0.525891	0.945622	-0.567986
C51	C	-0.471728	0.962029	-0.769827
C52	C	-0.471698	0.962033	-0.835260
C53	C	-0.464103	0.905586	-0.867942
C54	C	-0.456518	0.849132	-0.835184
C55	C	-0.456540	0.849129	-0.769749
C56	C	-0.464151	0.905583	-0.737074
C57	C	-0.402392	0.865533	-0.971588
C58	C	-0.402381	0.865530	-1.037025
C59	C	-0.525736	0.945642	-1.037062
C60	C	-0.525753	0.945639	-0.971627
C61	C	-0.464075	0.905586	-0.938894
C62	C	-0.464289	0.905485	-0.139401
C63	C	-0.464043	0.905586	-0.069760
H64	H	-0.576343	0.263375	-0.374815
Cl65	Cl	-0.324956	0.681454	-0.211816
H66	H	-0.352307	0.832904	-0.541299
H67	H	-0.450366	0.803162	-0.743080
H68	H	-0.450295	0.346360	-0.199808
H69	H	-0.576295	0.144668	-0.374863
Cl70	Cl	-0.324850	0.815162	-1.078125
H71	H	-0.352159	0.144617	-0.229722
H72	H	-0.352171	0.832919	-0.944935
H73	H	-0.352199	0.263328	-0.229675
Cl74	Cl	-0.446917	0.479531	-0.174761
H75	H	-0.575939	0.978258	-1.063719
H76	H	-0.575984	0.978252	-0.945008
Cl77	Cl	-0.481283	1.032998	-0.728748
Cl78	Cl	-0.481245	1.033002	-0.876436
Cl79	Cl	-0.324922	0.533760	-0.211867
H80	H	-0.352269	0.832909	-0.660006
Cl81	Cl	-0.603389	0.995979	-0.674578
H82	H	-0.576124	0.978236	-0.541368
H83	H	-0.450326	0.803168	-0.861792
H84	H	-0.576470	0.667011	-0.374666
H85	H	-0.576425	0.548304	-0.374713
Cl86	Cl	-0.481715	0.332104	-0.429623
Cl87	Cl	-0.481772	0.479798	-0.429567
