data_functionalizedCrystal
_audit_creation_method	'MofGen! by Chris Wilmer'
_symmetry_space_group_name_H-M	'P1'
_symmetry_Int_Tables_number	1
_symmetry_cell_setting	triclinic
loop_
_symmetry_equiv_pos_as_xyz
  x,y,z
_cell_length_a	21.295419
_cell_length_b	21.295417
_cell_length_c	16.625539
_cell_angle_alpha	89.969538
_cell_angle_beta	89.982931
_cell_angle_gamma	90.044503
loop_
_atom_site_label
_atom_site_type_symbol
_atom_site_fract_x
_atom_site_fract_y
_atom_site_fract_z
Zn1	Zn	0.962313	-0.250371	-0.455887
Zn2	Zn	0.962230	-0.355641	-0.321045
Zn3	Zn	0.857050	-0.250417	-0.321068
Zn4	Zn	0.857007	-0.355634	-0.455835
O5	O	0.909650	-0.303016	-0.388459
O6	O	1.050391	-0.264319	-0.438013
O7	O	0.948261	-0.341705	-0.208216
O8	O	0.871065	-0.162321	-0.338983
O9	O	1.050331	-0.341661	-0.338945
O10	O	0.948402	-0.162288	-0.438035
O11	O	0.870985	-0.264397	-0.208232
O12	O	0.768955	-0.264390	-0.338932
O13	O	0.870992	-0.341648	-0.568674
O14	O	0.768923	-0.341692	-0.437945
O15	O	0.948360	-0.264312	-0.568713
O16	O	0.948220	-0.443729	-0.338894
O17	O	0.870912	-0.443724	-0.437923
C18	C	0.746098	-0.303046	-0.388436
C19	C	0.676130	-0.303074	-0.388446
C20	C	0.643317	-0.262868	-0.440110
C21	C	0.577575	-0.262851	-0.440113
C22	C	0.544648	-0.303051	-0.388460
C23	C	0.577468	-0.343260	-0.336786
C24	C	0.643209	-0.343271	-0.336778
N25	N	0.441374	-0.358129	-0.382160
N26	N	0.378922	-0.358117	-0.382172
C27	C	0.346573	-0.303019	-0.388478
N28	N	0.379034	-0.247932	-0.394788
N29	N	0.441492	-0.247946	-0.394781
C30	C	0.473362	-0.303043	-0.388462
C31	C	0.242475	-0.262791	-0.440149
C32	C	0.176731	-0.262773	-0.440146
C33	C	0.176626	-0.343188	-0.336823
C34	C	0.242368	-0.343200	-0.336821
C35	C	0.275289	-0.303003	-0.388488
C36	C	0.909570	-0.466567	-0.388418
C37	C	0.909593	-0.536535	-0.388427
C38	C	0.949839	-0.569327	-0.440040
C39	C	0.949861	-0.635070	-0.440060
C40	C	0.909644	-0.668018	-0.388453
C41	C	0.869390	-0.635218	-0.336836
C42	C	0.869365	-0.569477	-0.336824
N43	N	0.904892	-0.771281	-0.317887
N44	N	0.904920	-0.833732	-0.317902
C45	C	0.909717	-0.866093	-0.388489
N46	N	0.914499	-0.833642	-0.459063
N47	N	0.914474	-0.771185	-0.459048
C48	C	0.909667	-0.739303	-0.388461
C49	C	0.949990	-0.970170	-0.440128
C50	C	0.950007	-1.035914	-0.440149
C51	C	0.869540	-1.036061	-0.336918
C52	C	0.869519	-0.970318	-0.336904
C53	C	0.909747	-0.937377	-0.388508
C54	C	1.073840	-0.302986	-0.388482
C55	C	1.143808	-0.302973	-0.388492
C56	C	0.909681	-0.302974	-0.598768
C57	C	0.909694	-0.302956	-0.688389
C58	C	0.909748	-0.138825	-0.388517
C59	C	0.909789	-0.068857	-0.388542
C60	C	0.909704	-0.302942	-0.761171
C61	C	0.909719	-0.302919	-0.852480
C62	C	0.909734	-0.302897	-0.925256
C63	C	0.909749	-0.302874	-1.016571
C64	C	0.909655	-0.303012	-0.178968
C65	C	0.909764	-0.302852	-0.089347
H66	H	0.550655	-0.375991	-0.294729
H67	H	0.836591	-0.542777	-0.294793
H68	H	0.269084	-0.375943	-0.294754
H69	H	0.149817	-0.375919	-0.294766
H70	H	0.836749	-0.943617	-0.294873
C71	C	0.278301	-0.219108	-0.496105
C72	C	0.316083	-0.178733	-0.450545
C73	C	0.349098	-0.138489	-0.502065
H74	H	0.249411	-0.195097	-0.526890
H75	H	0.303968	-0.243211	-0.531168
H76	H	0.290418	-0.154633	-0.415496
H77	H	0.344984	-0.202727	-0.419763
H78	H	0.374765	-0.162592	-0.537128
H79	H	0.320204	-0.114482	-0.532847
H80	H	0.374742	-0.111094	-0.471161
H81	H	0.550854	-0.230108	-0.482183
C82	C	0.993535	-0.533677	-0.496158
C83	C	1.028775	-0.576471	-0.541377
C84	C	1.069028	-0.543652	-0.593088
H85	H	1.021023	-0.508013	-0.465430
H86	H	0.969444	-0.508054	-0.531302
H87	H	1.052865	-0.602083	-0.506236
H88	H	1.001304	-0.602137	-0.572121
H89	H	1.044937	-0.518029	-0.628232
H90	H	1.096512	-0.517989	-0.562354
H91	H	1.092939	-0.572683	-0.623780
H92	H	0.669925	-0.376013	-0.294706
H93	H	0.150016	-0.230029	-0.482216
H94	H	0.982744	-0.943348	-0.482150
H95	H	0.982629	-0.661774	-0.482099
H96	H	0.836790	-1.062886	-0.294904
H97	H	0.836644	-0.662048	-0.294819
C98	C	0.678977	-0.219255	-0.496327
C99	C	0.662984	-0.233029	-0.576073
C100	C	0.695815	-0.192858	-0.627879
H101	H	0.722840	-0.224976	-0.489036
H102	H	0.668221	-0.176937	-0.484673
H103	H	0.673744	-0.275337	-0.587723
H104	H	0.619126	-0.227304	-0.583390
H105	H	0.685060	-0.150540	-0.616225
H106	H	0.739677	-0.198582	-0.620581
H107	H	0.684965	-0.202194	-0.681992
C108	C	0.993777	-1.071406	-0.496218
C109	C	1.029013	-1.028482	-0.541386
C110	C	1.069348	-1.061155	-0.593036
H111	H	0.969765	-1.097063	-0.531403
H112	H	1.021259	-1.097023	-0.465423
H113	H	1.001534	-1.002876	-0.572179
H114	H	1.053038	-1.002824	-0.506222
H115	H	1.096830	-1.086772	-0.562241
H116	H	1.045330	-1.086811	-0.628216
H117	H	1.093264	-1.032037	-0.623683
