data_functionalizedCrystal
_audit_creation_method	'MofGen! by Chris Wilmer'
_symmetry_space_group_name_H-M	'P1'
_symmetry_Int_Tables_number	1
_symmetry_cell_setting	triclinic
loop_
_symmetry_equiv_pos_as_xyz
  x,y,z
_cell_length_a	17.077404
_cell_length_b	19.805404
_cell_length_c	17.077396
_cell_angle_alpha	90.029459
_cell_angle_beta	90.019501
_cell_angle_gamma	90.029818
loop_
_atom_site_label
_atom_site_type_symbol
_atom_site_fract_x
_atom_site_fract_y
_atom_site_fract_z
Zn1	Zn	1.200018	-0.269459	0.443837
Zn2	Zn	1.533351	0.063874	0.777171
Zn3	Zn	1.866685	0.397208	1.110504
Zn4	Zn	1.199910	-0.382652	0.312569
Zn5	Zn	1.533243	-0.049319	0.645902
Zn6	Zn	1.866576	0.284015	0.979236
Zn7	Zn	1.068750	-0.269483	0.312585
Zn8	Zn	1.402083	0.063850	0.645919
Zn9	Zn	1.735417	0.397184	0.979252
Zn10	Zn	1.068702	-0.382612	0.443793
Zn11	Zn	1.402036	-0.049279	0.777126
Zn12	Zn	1.735369	0.284055	1.110459
O13	O	1.134345	-0.326052	0.378196
O14	O	1.467678	0.007282	0.711529
O15	O	1.801012	0.340615	1.044863
O16	O	1.309851	-0.284481	0.426436
O17	O	1.643184	0.048852	0.759770
O18	O	1.976517	0.382185	1.093103
O19	O	1.182486	-0.367667	0.202724
O20	O	1.515819	-0.034333	0.536058
O21	O	1.849152	0.299000	0.869391
O22	O	1.086228	-0.174763	0.330022
O23	O	1.419561	0.158570	0.663355
O24	O	1.752895	0.491904	0.996688
O25	O	1.309771	-0.367644	0.329994
O26	O	1.643104	-0.034310	0.663327
O27	O	1.976438	0.299023	0.996661
O28	O	1.182670	-0.174746	0.426452
O29	O	1.516004	0.158588	0.759785
O30	O	1.849337	0.491921	1.093119
O31	O	1.086123	-0.284522	0.202736
O32	O	1.419456	0.048812	0.536070
O33	O	1.752790	0.382145	0.869403
O34	O	0.958897	-0.284483	0.329978
O35	O	1.292230	0.048851	0.663312
O36	O	1.625563	0.382184	0.996645
O37	O	1.086147	-0.367575	0.553646
O38	O	1.419481	-0.034242	0.886979
O39	O	1.752814	0.299091	1.220312
O40	O	0.958862	-0.367598	0.426376
O41	O	1.292195	-0.034265	0.759709
O42	O	1.625529	0.299068	1.093043
O43	O	1.182624	-0.284442	0.553678
O44	O	1.515958	0.048891	0.887012
O45	O	1.849291	0.382224	1.220345
O46	O	1.182440	-0.477363	0.329951
O47	O	1.515773	-0.144030	0.663284
O48	O	1.849106	0.189303	0.996617
O49	O	1.086042	-0.477334	0.426360
O50	O	1.419376	-0.144001	0.759693
O51	O	1.752709	0.189333	1.093027
C52	C	0.930397	-0.326039	0.378174
C53	C	1.263731	0.007294	0.711508
C54	C	1.597064	0.340627	1.044841
C55	C	0.843147	-0.326050	0.378184
C56	C	1.176481	0.007283	0.711517
C57	C	1.509814	0.340616	1.044850
C58	C	1.134245	-0.501908	0.378166
C59	C	1.467579	-0.168574	0.711499
C60	C	1.800912	0.164759	1.044833
C61	C	1.134275	-0.577140	0.378179
C62	C	1.467608	-0.243806	0.711513
C63	C	1.800941	0.089527	1.044846
C64	C	0.802160	-0.369394	0.428297
C65	C	1.135493	-0.036061	0.761631
C66	C	1.468826	0.297273	1.094964
C67	C	0.720179	-0.369395	0.428310
C68	C	1.053513	-0.036062	0.761643
C69	C	1.386846	0.297271	1.094977
C70	C	0.679188	-0.326056	0.378204
C71	C	1.012521	0.007277	0.711538
C72	C	1.345855	0.340611	1.044871
C73	C	0.720181	-0.282708	0.328089
C74	C	1.053515	0.050625	0.661422
C75	C	1.386848	0.383959	0.994755
C76	C	0.802160	-0.282703	0.328080
C77	C	1.135494	0.050630	0.661414
C78	C	1.468827	0.383963	0.994747
C79	C	0.549311	-0.282721	0.328107
C80	C	0.882645	0.050612	0.661441
C81	C	1.215978	0.383945	0.994774
C82	C	0.467327	-0.282726	0.328114
C83	C	0.800660	0.050607	0.661447
C84	C	1.133993	0.383940	0.994781
C85	C	0.467330	-0.369413	0.428337
C86	C	0.800664	-0.036080	0.761670
C87	C	1.133997	0.297254	1.095004
C88	C	0.549309	-0.369409	0.428329
C89	C	0.882642	-0.036075	0.761662
C90	C	1.215976	0.297258	1.094996
C91	C	0.590297	-0.326061	0.378212
C92	C	0.923630	0.007272	0.711545
C93	C	1.256964	0.340606	1.044878
C94	C	1.184732	-1.038923	0.328106
C95	C	1.518065	-0.705590	0.661439
C96	C	1.851399	-0.372257	0.994772
C97	C	1.184695	-0.968235	0.328090
C98	C	1.518029	-0.634902	0.661424
C99	C	1.851362	-0.301568	0.994757
C100	C	1.134448	-0.932901	0.378238
C101	C	1.467781	-0.599568	0.711571
C102	C	1.801115	-0.266235	1.044904
C103	C	1.084229	-0.968260	0.428398
C104	C	1.417562	-0.634926	0.761731
C105	C	1.750895	-0.301593	1.095065
C106	C	1.084262	-1.038947	0.428409
C107	C	1.417595	-0.705613	0.761742
C108	C	1.750929	-0.372280	1.095076
C109	C	1.084092	-0.683186	0.428355
C110	C	1.417425	-0.349853	0.761688
C111	C	1.750759	-0.016520	1.095022
C112	C	1.084064	-0.612494	0.428342
C113	C	1.417397	-0.279161	0.761675
C114	C	1.750731	0.054172	1.095009
C115	C	1.184525	-0.612475	0.328036
C116	C	1.517858	-0.279141	0.661370
C117	C	1.851192	0.054192	0.994703
C118	C	1.184559	-0.683162	0.328047
C119	C	1.517892	-0.349828	0.661381
C120	C	1.851225	-0.016495	0.994714
C121	C	1.134337	-0.718514	0.378204
C122	C	1.467670	-0.385181	0.711538
C123	C	1.801003	-0.051847	1.044871
C124	C	1.134376	-0.795162	0.378219
C125	C	1.467709	-0.461829	0.711553
C126	C	1.801043	-0.128496	1.044886
C127	C	1.134412	-0.856254	0.378227
C128	C	1.467745	-0.522921	0.711561
C129	C	1.801079	-0.189587	1.044894
C130	C	1.339089	-0.326064	0.378218
C131	C	1.672423	0.007269	0.711552
C132	C	2.005756	0.340602	1.044885
C133	C	1.426339	-0.326070	0.378228
C134	C	1.759672	0.007264	0.711561
C135	C	2.093006	0.340597	1.044894
C136	C	1.134393	-0.326002	0.582940
C137	C	1.467726	0.007332	0.916274
C138	C	1.801059	0.340665	1.249607
C139	C	1.134413	-0.325980	0.670190
C140	C	1.467746	0.007353	1.003524
C141	C	1.801079	0.340686	1.336857
C142	C	1.134466	-0.149509	0.378244
C143	C	1.467800	0.183825	0.711577
C144	C	1.801133	0.517158	1.044910
C145	C	1.134518	-0.074277	0.378264
C146	C	1.467852	0.259057	0.711597
C147	C	1.801185	0.592390	1.044931
C148	C	1.134343	-0.326052	0.174248
C149	C	1.467676	0.007281	0.507582
C150	C	1.801010	0.340614	0.840915
C151	C	1.134475	-0.325883	0.086999
C152	C	1.467808	0.007450	0.420332
C153	C	1.801141	0.340784	0.753666
C154	C	1.184650	-0.282690	0.711199
C155	C	1.517983	0.050644	1.044532
C156	C	1.851317	0.383977	1.377866
C157	C	1.184660	-0.282667	0.793179
C158	C	1.517993	0.050666	1.126513
C159	C	1.851326	0.384000	1.459846
C160	C	1.134435	-0.325939	0.834150
C161	C	1.467768	0.007394	1.167483
C162	C	1.801102	0.340727	1.500817
C163	C	1.084192	-0.369232	0.793136
C164	C	1.417525	-0.035899	1.126469
C165	C	1.750859	0.297435	1.459802
C166	C	1.084179	-0.369251	0.711157
C167	C	1.417513	-0.035917	1.044490
C168	C	1.750846	0.297416	1.377823
C169	C	1.084224	-0.369191	0.964006
C170	C	1.417557	-0.035858	1.297339
C171	C	1.750890	0.297475	1.630672
C172	C	1.084237	-0.369174	1.045990
C173	C	1.417571	-0.035841	1.379324
C174	C	1.750904	0.297493	1.712657
C175	C	1.184704	-0.282608	1.046029
C176	C	1.518037	0.050726	1.379362
C177	C	1.851371	0.384059	1.712695
C178	C	1.184691	-0.282626	0.964050
C179	C	1.518025	0.050707	1.297383
C180	C	1.851358	0.384040	1.630716
C181	C	1.134449	-0.325920	0.923041
C182	C	1.467782	0.007413	1.256374
C183	C	1.801116	0.340746	1.589708
H184	H	0.835529	-0.404688	0.469097
H185	H	1.168862	-0.071355	0.802430
H186	H	1.502195	0.261979	1.135763
Br187	Br	1.252879	-0.223944	0.848831
Br188	Br	1.586212	0.109389	1.182164
Br189	Br	1.919545	0.442723	1.515498
H190	H	1.225593	-0.247394	0.930694
H191	H	1.558926	0.085939	1.264027
H192	H	1.892260	0.419273	1.597360
Br193	Br	0.604937	-0.223890	0.260092
Br194	Br	0.938271	0.109443	0.593426
Br195	Br	1.271604	0.442776	0.926759
H196	H	1.043144	-0.583727	0.469179
H197	H	1.376477	-0.250393	0.802513
H198	H	1.709811	0.082940	1.135846
H199	H	1.043312	-0.939487	0.469226
H200	H	1.376646	-0.606153	0.802560
H201	H	1.709979	-0.272820	1.135893
H202	H	0.433954	-0.404706	0.469146
H203	H	0.767287	-0.071373	0.802480
H204	H	1.100621	0.261960	1.135813
H205	H	1.043192	-0.711962	0.469190
H206	H	1.376526	-0.378628	0.802523
H207	H	1.709859	-0.045295	1.135857
Br208	Br	1.016035	-0.427946	0.908352
Br209	Br	1.349368	-0.094612	1.241685
Br210	Br	1.682701	0.238721	1.575018
H211	H	1.225612	-0.247355	1.079422
H212	H	1.558945	0.085978	1.412755
H213	H	1.892278	0.419312	1.746088
Br214	Br	0.664552	-0.223883	0.260094
Br215	Br	0.997885	0.109450	0.593428
Br216	Br	1.331218	0.442784	0.926761
H217	H	0.582682	-0.404703	0.469125
H218	H	0.916015	-0.071370	0.802458
H219	H	1.249349	0.261964	1.135792
Br220	Br	0.411696	-0.223913	0.260107
Br221	Br	0.745029	0.109420	0.593440
Br222	Br	1.078362	0.442753	0.926774
H223	H	1.043338	-0.404408	1.079346
H224	H	1.376672	-0.071075	1.412680
H225	H	1.710005	0.262258	1.746013
Br226	Br	1.016024	-0.427956	0.848737
Br227	Br	1.349358	-0.094622	1.182071
Br228	Br	1.682691	0.238711	1.515404
Br229	Br	1.015992	-0.428001	0.655501
Br230	Br	1.349326	-0.094667	0.988834
Br231	Br	1.682659	0.238666	1.322168
Br232	Br	0.857788	-0.223874	0.260071
Br233	Br	1.191121	0.109459	0.593404
Br234	Br	1.524455	0.442793	0.926737
Br235	Br	1.016105	-1.086927	0.496476
Br236	Br	1.349438	-0.753594	0.829809
Br237	Br	1.682771	-0.420261	1.163143
H238	H	0.686811	-0.404691	0.469117
H239	H	1.020144	-0.071357	0.802450
H240	H	1.353477	0.261976	1.135784
Br241	Br	1.252934	-1.086869	0.260050
Br242	Br	1.586268	-0.753536	0.593384
Br243	Br	1.919601	-0.420203	0.926717
Br244	Br	1.252759	-0.731111	0.259993
Br245	Br	1.586092	-0.397778	0.593326
Br246	Br	1.919425	-0.064445	0.926659
Br247	Br	1.252853	-0.920258	0.260023
Br248	Br	1.586187	-0.586924	0.593357
Br249	Br	1.919520	-0.253591	0.926690
H250	H	1.225416	-0.583683	0.287193
H251	H	1.558750	-0.250350	0.620526
H252	H	1.892083	0.082983	0.953860
Br253	Br	1.252822	-0.223965	0.655604
Br254	Br	1.586155	0.109369	0.988937
Br255	Br	1.919489	0.442702	1.322271
