data_functionalizedCrystal
_audit_creation_method	'MofGen! by Chris Wilmer'
_symmetry_space_group_name_H-M	'P1'
_symmetry_Int_Tables_number	1
_symmetry_cell_setting	triclinic
loop_
_symmetry_equiv_pos_as_xyz
  x,y,z
_cell_length_a	33.592126
_cell_length_b	33.591377
_cell_length_c	33.588093
_cell_angle_alpha	60.004089
_cell_angle_beta	60.008299
_cell_angle_gamma	59.994549
loop_
_atom_site_label
_atom_site_type_symbol
_atom_site_fract_x
_atom_site_fract_y
_atom_site_fract_z
O1	O	0.055297	-0.581666	0.486338
O2	O	0.555297	-0.081666	0.986338
O3	O	0.020882	-0.452873	0.391864
O4	O	0.520882	0.047127	0.891864
O5	O	0.102445	-0.534352	0.391775
O6	O	0.602445	-0.034352	0.891775
O7	O	-0.026266	-0.500187	0.486427
O8	O	0.473734	-0.000187	0.986427
O9	O	0.129510	-0.507292	0.418747
O10	O	0.629510	-0.007292	0.918747
O11	O	0.047947	-0.425814	0.418835
O12	O	0.547947	0.074186	0.918835
O13	O	0.082362	-0.554606	0.513309
O14	O	0.582362	-0.054606	1.013309
Cu15	Cu	0.067626	-0.487739	0.468535
Cu16	Cu	0.567626	0.012261	0.968535
Cu17	Cu	0.035618	-0.519740	0.436638
Cu18	Cu	0.535618	-0.019740	0.936638
O19	O	0.000799	-0.473128	0.513398
O20	O	0.500799	0.026872	1.013398
N21	N	0.090139	-0.465235	0.490972
N22	N	0.590139	0.034765	0.990972
N23	N	0.013110	-0.542249	0.414202
N24	N	0.513110	-0.042249	0.914202
C25	C	0.124394	-0.431229	0.734914
C26	C	0.624394	0.068771	1.234914
C27	C	0.334265	-0.431145	0.524799
C28	C	0.834265	0.068855	1.024799
C29	C	0.124204	-0.431200	0.524965
C30	C	0.624204	0.068800	1.024965
C31	C	0.124184	-0.221175	0.524955
C32	C	0.624184	0.278825	1.024955
C33	C	0.158017	-0.322536	0.558710
C34	C	0.658017	0.177464	1.058710
C35	C	0.158027	-0.397406	0.558711
C36	C	0.658027	0.102594	1.058711
C37	C	0.176763	-0.378688	0.577408
C38	C	0.676763	0.121312	1.077408
C39	C	0.258412	-0.364594	0.534386
C40	C	0.758412	0.135406	1.034386
C41	C	0.309454	-0.381596	0.517340
C42	C	0.809454	0.118404	1.017340
C43	C	0.309485	-0.464188	0.548836
C44	C	0.809485	0.035812	1.048836
C45	C	0.258444	-0.447186	0.565883
C46	C	0.758444	0.052814	1.065883
C47	C	0.170304	-0.297002	0.508532
C48	C	0.670304	0.202998	1.008532
C49	C	0.153260	-0.245956	0.491537
C50	C	0.653260	0.254044	0.991537
C51	C	0.111648	-0.245983	0.574901
C52	C	0.611648	0.254017	1.074901
C53	C	0.128691	-0.297029	0.591896
C54	C	0.628691	0.202971	1.091896
C55	C	0.107841	-0.385091	0.571080
C56	C	0.607841	0.114909	1.071080
C57	C	0.090813	-0.402108	0.554078
C58	C	0.590813	0.097892	1.054078
C59	C	0.174153	-0.443755	0.512351
C60	C	0.674153	0.056245	1.012351
C61	C	0.191183	-0.426739	0.529347
C62	C	0.691183	0.073261	1.029347
C63	C	0.107923	-0.385106	0.659111
C64	C	0.607923	0.114894	1.159111
C65	C	0.090955	-0.402138	0.710156
C66	C	0.590955	0.097862	1.210156
C67	C	0.174335	-0.443795	0.710087
C68	C	0.674335	0.056205	1.210087
C69	C	0.191302	-0.426764	0.659041
C70	C	0.691302	0.073236	1.159041
C71	C	0.158095	-0.397418	0.633555
C72	C	0.658095	0.102582	1.133555
C73	C	0.232909	-0.397388	0.558656
C74	C	0.732909	0.102612	1.058656
C75	C	0.105069	-0.449619	0.791057
C76	C	0.605069	0.050381	1.291057
C77	C	0.390406	-0.449193	0.505789
C78	C	0.890406	0.050807	1.005789
C79	C	0.104813	-0.449599	0.506607
C80	C	0.604813	0.050401	1.006607
C81	C	0.105125	-0.165028	0.506915
C82	C	0.605125	0.334972	1.006915
C83	C	-0.020560	-0.576246	0.169890
C84	C	0.479440	-0.076246	0.669890
C85	C	-0.020889	-0.786183	0.379970
C86	C	0.479111	-0.286183	0.879970
C87	C	-0.020859	-0.576235	0.380063
C88	C	0.479141	-0.076235	0.880063
C89	C	-0.230772	-0.576015	0.379658
C90	C	0.269228	-0.076015	0.879658
C91	C	-0.129417	-0.609898	0.346025
C92	C	0.370583	-0.109898	0.846025
C93	C	-0.054587	-0.609979	0.346172
C94	C	0.445413	-0.109979	0.846172
C95	C	-0.073269	-0.628671	0.327396
C96	C	0.426731	-0.128671	0.827396
C97	C	-0.087401	-0.710299	0.370335
C98	C	0.412599	-0.210299	0.870335
C99	C	-0.070424	-0.761345	0.387369
C100	C	0.429576	-0.261345	0.887369
C101	C	0.012165	-0.761428	0.356003
C102	C	0.512165	-0.261428	0.856003
C103	C	-0.004813	-0.710383	0.338967
C104	C	0.495187	-0.210383	0.838967
C105	C	-0.155001	-0.622196	0.396191
C106	C	0.344999	-0.122196	0.896191
C107	C	-0.206043	-0.605128	0.413125
C108	C	0.293957	-0.105128	0.913125
C109	C	-0.205914	-0.563467	0.329724
C110	C	0.294086	-0.063467	0.829724
C111	C	-0.154872	-0.580535	0.312790
C112	C	0.345128	-0.080535	0.812790
C113	C	-0.066886	-0.559797	0.333828
C114	C	0.433114	-0.059797	0.833828
C115	C	-0.049903	-0.542809	0.350903
C116	C	0.450097	-0.042809	0.850903
C117	C	-0.008321	-0.626180	0.392654
C118	C	0.491679	-0.126180	0.892654
C119	C	-0.025304	-0.643170	0.375585
C120	C	0.474696	-0.143170	0.875585
C121	C	-0.066758	-0.559805	0.245702
C122	C	0.433242	-0.059805	0.745702
C123	C	-0.049671	-0.542819	0.194658
C124	C	0.450329	-0.042819	0.694658
C125	C	-0.008026	-0.626194	0.194706
C126	C	0.491974	-0.126194	0.694706
C127	C	-0.025111	-0.643179	0.245752
C128	C	0.474889	-0.143179	0.745752
C129	C	-0.054479	-0.609983	0.271248
C130	C	0.445521	-0.109983	0.771248
C131	C	-0.054597	-0.684821	0.346135
C132	C	0.445403	-0.184821	0.846135
C133	C	-0.002109	-0.556901	0.113746
C134	C	0.497891	-0.056901	0.613746
C135	C	-0.002869	-0.842328	0.398966
C136	C	0.497131	-0.342328	0.898966
C137	C	-0.002496	-0.556887	0.398501
C138	C	0.497504	-0.056887	0.898501
C139	C	-0.286914	-0.556929	0.397631
C140	C	0.213086	-0.056929	0.897631
N141	N	0.436349	-0.465146	0.490703
N142	N	0.936349	0.034854	0.990703
O143	O	0.592194	-0.469605	0.374236
O144	O	1.092194	0.030395	0.874236
O145	O	0.592389	-0.564393	0.502890
O146	O	1.092389	-0.064393	1.002890
O147	O	0.592305	-0.564176	0.421300
O148	O	1.092305	-0.064176	0.921300
O149	O	0.592277	-0.469822	0.455826
O150	O	1.092277	0.030178	0.955826
O151	O	0.511216	-0.537214	0.448415
O152	O	1.011216	-0.037214	0.948415
O153	O	0.511300	-0.537431	0.530004
O154	O	1.011300	-0.037431	1.030004
O155	O	0.511104	-0.442643	0.401350
O156	O	1.011104	0.057357	0.901350
Cu157	Cu	0.503798	-0.487575	0.468153
Cu158	Cu	1.003798	0.012425	0.968153
Cu159	Cu	0.599695	-0.519461	0.436087
Cu160	Cu	1.099695	-0.019461	0.936087
O161	O	0.511188	-0.442860	0.482940
O162	O	1.011188	0.057140	0.982940
N163	N	0.667145	-0.541890	0.413532
N164	N	1.167145	-0.041890	0.913532
N165	N	0.090108	-0.119085	0.490958
N166	N	0.590108	0.380915	0.990958
O167	O	-0.026275	0.036848	0.486394
O168	O	0.473725	0.536848	0.986394
O169	O	0.102381	0.036888	0.391584
O170	O	0.602381	0.536888	0.891584
O171	O	0.020751	0.036852	0.391854
O172	O	0.520751	0.536852	0.891854
O173	O	0.055356	0.036884	0.486124
O174	O	0.555356	0.536884	0.986124
O175	O	0.047821	-0.044242	0.418876
O176	O	0.547821	0.455758	0.918876
O177	O	0.129452	-0.044207	0.418606
O178	O	0.629452	0.455793	0.918606
O179	O	0.000796	-0.044246	0.513417
O180	O	0.500796	0.455754	1.013417
Cu181	Cu	0.067596	-0.051631	0.468479
Cu182	Cu	0.567596	0.448369	0.968479
Cu183	Cu	0.035582	0.044273	0.436522
Cu184	Cu	0.535582	0.544273	0.936522
O185	O	0.082426	-0.044211	0.513146
O186	O	0.582426	0.455789	1.013146
N187	N	0.013063	0.111726	0.414043
N188	N	0.513063	0.611726	0.914043
N189	N	0.090453	-0.465282	0.837001
N190	N	0.590453	0.034718	1.337001
O191	O	0.085913	-0.581648	0.992925
O192	O	0.585913	-0.081648	1.492925
O193	O	-0.008857	-0.452947	0.992970
O194	O	0.491143	0.047053	1.492970
O195	O	-0.008635	-0.534562	0.992946
O196	O	0.491365	-0.034562	1.492946
O197	O	0.085691	-0.500033	0.992949
O198	O	0.585691	-0.000033	1.492949
O199	O	0.018365	-0.507512	0.911855
O200	O	0.518365	-0.007512	1.411855
O201	O	0.018143	-0.425898	0.911878
O202	O	0.518143	0.074102	1.411878
O203	O	0.112912	-0.554598	0.911834
O204	O	0.612912	-0.054598	1.411834
Cu205	Cu	0.067993	-0.487778	0.904452
Cu206	Cu	0.567993	0.012222	1.404452
Cu207	Cu	0.036063	-0.519767	1.000352
Cu208	Cu	0.536063	-0.019767	1.500352
O209	O	0.112691	-0.472984	0.911857
O210	O	0.612691	0.027016	1.411857
N211	N	0.013602	-0.542269	1.067803
N212	N	0.513602	-0.042269	1.567803
C213	C	0.031188	-0.423114	0.392334
C214	C	0.531188	0.076886	0.892334
C215	C	0.132194	-0.524016	0.392223
C216	C	0.632194	-0.024016	0.892223
C217	C	0.072056	-0.584366	0.512840
C218	C	0.572056	-0.084366	1.012840
C219	C	-0.028950	-0.483464	0.512950
C220	C	0.471050	0.016536	1.012950
C221	C	0.551868	-0.563965	0.532655
C222	C	1.051868	-0.063965	1.032655
C223	C	0.551766	-0.563697	0.431617
C224	C	1.051766	-0.063697	0.931617
C225	C	0.551623	-0.443070	0.371586
C226	C	1.051623	0.056930	0.871586
C227	C	0.551728	-0.443339	0.472623
C228	C	1.051728	0.056661	0.972623
C229	C	0.132090	-0.003555	0.392006
C230	C	0.632090	0.496445	0.892006
C231	C	0.031035	-0.003698	0.392374
C232	C	0.531035	0.496302	0.892374
C233	C	-0.028947	-0.003703	0.512961
C234	C	0.471053	0.496297	1.012961
C235	C	0.072143	-0.003661	0.512626
C236	C	0.572143	0.496339	1.012626
C237	C	-0.008408	-0.423209	0.952430
C238	C	0.491592	0.076791	1.452430
C239	C	-0.008128	-0.524272	0.952385
C240	C	0.491872	-0.024272	1.452385
C241	C	0.112464	-0.584336	0.952374
C242	C	0.612464	-0.084336	1.452374
C243	C	0.112190	-0.483267	0.952401
C244	C	0.612190	0.016733	1.452401
H245	H	0.050098	-0.392105	0.730957
H246	H	0.550098	0.107895	1.230957
O247	O	0.080819	-0.628539	0.548197
O248	O	0.580819	-0.128539	1.048197
C249	C	0.102238	-0.715292	0.571565
C250	C	0.602238	-0.215292	1.071565
C251	C	0.092315	-0.665296	0.531486
C252	C	0.592315	-0.165296	1.031486
H253	H	0.111545	-0.745025	0.558065
H254	H	0.611545	-0.245025	1.058065
H255	H	0.068408	-0.715499	0.605605
H256	H	0.568408	-0.215499	1.105605
H257	H	0.134142	-0.722367	0.580685
H258	H	0.634142	-0.222367	1.080685
H259	H	0.060426	-0.658190	0.522324
H260	H	0.560426	-0.158190	1.022324
H261	H	0.126170	-0.665114	0.497471
H262	H	0.626170	-0.165114	0.997471
O263	O	-0.073070	-0.474695	0.548364
O264	O	0.426930	0.025305	1.048364
C265	C	-0.153373	-0.416944	0.570919
C266	C	0.346627	0.083056	1.070919
C267	C	-0.103427	-0.426807	0.530773
C268	C	0.396573	0.073193	1.030773
H269	H	-0.177934	-0.378231	0.556709
H270	H	0.322066	0.121769	1.056709
H271	H	-0.148283	-0.421307	0.604163
H272	H	0.351717	0.078693	1.104163
H273	H	-0.170890	-0.444012	0.581598
H274	H	0.329110	0.055988	1.081598
H275	H	-0.085883	-0.399747	0.520053
H276	H	0.414117	0.100253	1.020053
H277	H	-0.108549	-0.422461	0.497556
H278	H	0.391451	0.077539	0.997556
H279	H	0.551560	-0.413310	0.334638
H280	H	1.051560	0.086690	0.834638
O281	O	0.551954	-0.599421	0.576755
O282	O	1.051954	-0.099421	1.076755
C283	C	0.552013	-0.622082	0.657065
C284	C	1.052013	-0.122082	1.157065
C285	C	0.551928	-0.581889	0.607141
C286	C	1.051928	-0.081889	1.107141
H287	H	0.551982	-0.607919	0.681650
H288	H	1.051982	-0.107919	1.181650
H289	H	0.585977	-0.655320	0.651940
H290	H	1.085977	-0.155320	1.151940
H291	H	0.518105	-0.632754	0.674577
H292	H	1.018105	-0.132754	1.174577
H293	H	0.585812	-0.571176	0.589602
H294	H	1.085812	-0.071176	1.089602
H295	H	0.517941	-0.548678	0.612298
H296	H	1.017941	-0.048678	1.112298
O297	O	0.176291	-0.532776	0.356779
O298	O	0.676291	-0.032776	0.856779
C299	C	0.234975	-0.582068	0.305311
C300	C	0.734975	-0.082068	0.805311
C301	C	0.185031	-0.572207	0.345461
C302	C	0.685031	-0.072207	0.845461
H303	H	0.242052	-0.613940	0.296140
H304	H	0.742052	-0.113940	0.796140
H305	H	0.264769	-0.591354	0.318718
H306	H	0.764769	-0.091354	0.818718
H307	H	0.235062	-0.548180	0.271324
H308	H	0.735062	-0.048180	0.771324
H309	H	0.184896	-0.606077	0.379461
H310	H	0.684896	-0.106077	0.879461
H311	H	0.155258	-0.562899	0.332014
H312	H	0.655258	-0.062899	0.832014
O313	O	0.080893	-0.003632	0.548009
O314	O	0.580893	0.496368	1.048009
C315	C	0.049060	-0.003667	0.630168
C316	C	0.549060	0.496333	1.130168
C317	C	0.039082	-0.003688	0.590137
C318	C	0.539082	0.496312	1.090137
H319	H	0.015266	-0.003722	0.664242
H320	H	0.515266	0.496278	1.164242
H321	H	0.058310	0.030287	0.616677
H322	H	0.558310	0.530287	1.116677
H323	H	0.081011	-0.037589	0.639230
H324	H	0.581011	0.462411	1.139230
H325	H	0.007125	0.030211	0.581058
H326	H	0.507125	0.530211	1.081058
H327	H	0.029860	-0.037664	0.603649
H328	H	0.529860	0.462336	1.103649
H329	H	0.168963	-0.003318	0.362168
H330	H	0.668963	0.496682	0.862168
O331	O	0.551757	-0.598999	0.422734
O332	O	1.051757	-0.098999	0.922734
C333	C	0.551740	-0.621315	0.364812
C334	C	1.051740	-0.121315	0.864812
C335	C	0.551739	-0.581289	0.374810
C336	C	1.051739	-0.081289	0.874810
H337	H	0.551736	-0.607015	0.326063
H338	H	1.051736	-0.107015	0.826063
H339	H	0.517826	-0.632002	0.391801
H340	H	1.017826	-0.132002	0.891801
H341	H	0.585698	-0.654578	0.369164
H342	H	1.085698	-0.154578	0.869164
H343	H	0.517804	-0.548000	0.370453
H344	H	1.017804	-0.048000	0.870453
H345	H	0.585675	-0.570643	0.347824
H346	H	1.085675	-0.070643	0.847824
O347	O	0.551695	-0.408023	0.481520
O348	O	1.051695	0.091977	0.981520
C349	C	0.551774	-0.385728	0.539421
C350	C	1.051774	0.114272	1.039421
C351	C	0.551801	-0.425763	0.529414
C352	C	1.051801	0.074237	1.029414
H353	H	0.551870	-0.400059	0.578139
H354	H	1.051870	0.099941	1.078139
H355	H	0.517800	-0.352466	0.535133
H356	H	1.017800	0.147534	1.035133
H357	H	0.585672	-0.375030	0.512380
H358	H	1.085672	0.124970	1.012380
H359	H	0.517926	-0.436502	0.556446
H360	H	1.017926	0.063498	1.056446
H361	H	0.585797	-0.458999	0.533686
H362	H	1.085797	0.041001	1.033686
O363	O	0.022128	-0.003743	0.357105
O364	O	0.522128	0.496257	0.857105
C365	C	-0.035828	-0.003775	0.334852
C366	C	0.464172	0.496225	0.834852
C367	C	-0.025806	-0.003725	0.374838
C368	C	0.474194	0.496275	0.874838
H369	H	-0.074585	-0.003749	0.349171
H370	H	0.425415	0.496251	0.849171
H371	H	-0.008860	-0.037724	0.324205
H372	H	0.491140	0.462276	0.824205
H373	H	-0.031466	0.030152	0.301560
H374	H	0.468534	0.530152	0.801560
H375	H	-0.030175	-0.037629	0.408155
H376	H	0.469825	0.462371	0.908155
H377	H	-0.052772	0.030247	0.385443
H378	H	0.447228	0.530247	0.885443
O379	O	-0.073061	-0.003686	0.548408
O380	O	0.426939	0.496314	1.048408
C381	C	-0.153381	-0.003727	0.571123
C382	C	0.346619	0.496273	1.071123
C383	C	-0.103446	-0.003741	0.530936
C384	C	0.396554	0.496259	1.030936
H385	H	-0.177957	-0.003782	0.557016
H386	H	0.322043	0.496218	1.057016
H387	H	-0.170916	0.030224	0.581744
H388	H	0.329084	0.530224	1.081744
H389	H	-0.148222	-0.037652	0.604380
H390	H	0.351778	0.462348	1.104380
H391	H	-0.108562	0.030161	0.497653
H392	H	0.391438	0.530161	0.997653
H393	H	-0.085928	-0.037715	0.520357
H394	H	0.414072	0.462285	1.020357
H395	H	-0.038161	-0.386246	0.952443
H396	H	0.461839	0.113754	1.452443
O397	O	-0.043450	-0.533148	0.952408
O398	O	0.456550	-0.033148	1.452408
C399	C	-0.094726	-0.582599	0.994365
C400	C	0.405274	-0.082599	1.494365
C401	C	-0.054714	-0.572608	0.994394
C402	C	0.445286	-0.072608	1.494394
H403	H	-0.103852	-0.614497	1.028312
H404	H	0.396148	-0.114497	1.528312
H405	H	-0.081206	-0.591907	0.960434
H406	H	0.418794	-0.091907	1.460434
H407	H	-0.128768	-0.548762	0.994342
H408	H	0.371232	-0.048762	1.494342
H409	H	-0.020659	-0.606429	0.994435
H410	H	0.479341	-0.106429	1.494435
H411	H	-0.068274	-0.563280	1.028322
H412	H	0.431726	-0.063280	1.528322
O413	O	0.147559	-0.474403	0.952307
O414	O	0.647559	0.025597	1.452307
C415	C	0.198785	-0.424895	0.910309
C416	C	0.698785	0.075105	1.410309
C417	C	0.158737	-0.434888	0.910348
C418	C	0.658737	0.065112	1.410348
H419	H	0.207828	-0.392941	0.876394
H420	H	0.707828	0.107059	1.376394
H421	H	0.232870	-0.458690	0.910263
H422	H	0.732870	0.041310	1.410263
H423	H	0.185279	-0.415635	0.944266
H424	H	0.685279	0.084365	1.444266
H425	H	0.172198	-0.444135	0.876398
H426	H	0.672198	0.055865	1.376398
H427	H	0.124661	-0.401085	0.910420
H428	H	0.624661	0.098915	1.410420
O429	O	0.075597	-0.356622	0.634430
O430	O	0.575597	0.143378	1.134430
C431	C	-0.008896	-0.317075	0.639886
C432	C	0.491104	0.182925	1.139886
C433	C	0.027656	-0.349343	0.667898
C434	C	0.527656	0.150657	1.167898
H435	H	-0.047664	-0.311171	0.666933
H436	H	0.452336	0.188829	1.166933
H437	H	-0.003072	-0.335767	0.616006
H438	H	0.496928	0.164233	1.116006
H439	H	-0.003008	-0.280365	0.615975
H440	H	0.496992	0.219635	1.115975
H441	H	0.021791	-0.386059	0.691835
H442	H	0.521791	0.113941	1.191835
H443	H	0.021823	-0.330613	0.691747
H444	H	0.521823	0.169387	1.191747
O445	O	0.206660	-0.472305	0.734765
O446	O	0.706660	0.027695	1.234765
C447	C	0.291154	-0.511788	0.729302
C448	C	0.791154	-0.011788	1.229302
C449	C	0.254599	-0.479506	0.701294
C450	C	0.754599	0.020494	1.201294
H451	H	0.329921	-0.517612	0.702253
H452	H	0.829921	-0.017612	1.202253
H453	H	0.285341	-0.548534	0.753186
H454	H	0.785341	-0.048534	1.253186
H455	H	0.285260	-0.493087	0.753210
H456	H	0.785260	0.006913	1.253210
H457	H	0.260472	-0.498164	0.677360
H458	H	0.760472	0.001836	1.177360
H459	H	0.260422	-0.442762	0.677441
H460	H	0.760422	0.057238	1.177441
O461	O	0.147901	-0.628464	0.952377
O462	O	0.647901	-0.128464	1.452377
C463	C	0.170586	-0.708776	0.952316
C464	C	0.670586	-0.208776	1.452316
C465	C	0.130406	-0.658828	0.952325
C466	C	0.630406	-0.158828	1.452325
H467	H	0.156460	-0.733335	0.952263
H468	H	0.656460	-0.233335	1.452263
H469	H	0.181231	-0.726326	0.986256
H470	H	0.681231	-0.226326	1.486256
H471	H	0.203831	-0.703628	0.918383
H472	H	0.703831	-0.203628	1.418383
H473	H	0.097136	-0.663933	0.986235
H474	H	0.597136	-0.163933	1.486235
H475	H	0.119803	-0.641294	0.918362
H476	H	0.619803	-0.141294	1.418362
H477	H	0.232159	-0.436796	0.638236
H478	H	0.732159	0.063204	1.138236
O479	O	0.042059	-0.390209	0.566175
O480	O	0.542059	0.109791	1.066175
C481	C	-0.034349	-0.394119	0.630935
C482	C	0.465651	0.105881	1.130935
C483	C	0.020858	-0.407634	0.617303
C484	C	0.520858	0.092366	1.117303
H485	H	-0.051508	-0.408193	0.672272
H486	H	0.448492	0.091807	1.172272
H487	H	-0.040850	-0.411337	0.613777
H488	H	0.459150	0.088663	1.113777
H489	H	-0.051568	-0.352788	0.616844
H490	H	0.448432	0.147212	1.116844
H491	H	0.038114	-0.448958	0.631391
H492	H	0.538114	0.051042	1.131391
H493	H	0.027324	-0.390382	0.634454
H494	H	0.527324	0.109618	1.134454
O495	O	0.206429	-0.472228	0.483817
O496	O	0.706429	0.027772	0.983817
C497	C	0.290892	-0.511768	0.444252
C498	C	0.790892	-0.011768	0.944252
C499	C	0.254392	-0.479510	0.476561
C500	C	0.754392	0.020490	0.976561
H501	H	0.329678	-0.517673	0.438384
H502	H	0.829678	-0.017673	0.938384
H503	H	0.285013	-0.493066	0.407529
H504	H	0.785013	0.006934	0.907529
H505	H	0.285000	-0.548478	0.462953
H506	H	0.785000	-0.048478	0.962953
H507	H	0.260261	-0.442794	0.457903
H508	H	0.760261	0.057206	0.957903
H509	H	0.260279	-0.498250	0.513283
H510	H	0.760279	0.001750	1.013283
H511	H	0.080840	-0.361208	0.594989
H512	H	0.580840	0.138792	1.094989
H513	H	-0.015291	-0.684031	0.385637
H514	H	0.484709	-0.184031	0.885637
O515	O	0.233744	-0.479106	0.589429
O516	O	0.733744	0.020894	1.089429
C517	C	0.239164	-0.562825	0.618891
C518	C	0.739164	-0.062825	1.118891
C519	C	0.267196	-0.526727	0.592207
C520	C	0.767196	-0.026727	1.092207
H521	H	0.266197	-0.601336	0.621155
H522	H	0.766197	-0.101336	1.121155
H523	H	0.215255	-0.552619	0.598045
H524	H	0.715255	-0.052619	1.098045
H525	H	0.215282	-0.561245	0.657264
H526	H	0.715282	-0.061245	1.157264
H527	H	0.291104	-0.528288	0.553834
H528	H	0.791104	-0.028288	1.053834
H529	H	0.291075	-0.536945	0.613091
H530	H	0.791075	-0.036945	1.113091
H531	H	-0.127938	-0.689491	0.376175
H532	H	0.372062	-0.189491	0.876175
H533	H	0.330277	-0.504737	0.554712
H534	H	0.830277	-0.004737	1.054712
O535	O	0.334206	-0.349709	0.493690
O536	O	0.834206	0.150291	0.993690
C537	C	0.349740	-0.278925	0.424906
C538	C	0.849740	0.221075	0.924906
C539	C	0.321687	-0.315011	0.451635
C540	C	0.821687	0.184989	0.951635
H541	H	0.339621	-0.250857	0.390905
H542	H	0.839621	0.249143	0.890905
H543	H	0.390614	-0.299601	0.413924
H544	H	0.890614	0.200399	0.913924
H545	H	0.339728	-0.259583	0.450124
H546	H	0.839728	0.240417	0.950124
H547	H	0.331659	-0.334363	0.426444
H548	H	0.831659	0.165637	0.926444
H549	H	0.280820	-0.294308	0.462625
H550	H	0.780820	0.205692	0.962625
O551	O	0.233556	-0.316241	0.527452
O552	O	0.733556	0.183759	1.027452
C553	C	0.175968	-0.254484	0.565079
C554	C	0.675968	0.245516	1.065079
C555	C	0.204079	-0.309259	0.573001
C556	C	0.704079	0.190741	1.073001
H557	H	0.152137	-0.248820	0.601899
H558	H	0.652137	0.251180	1.101899
H559	H	0.152011	-0.240098	0.542685
H560	H	0.652011	0.259902	1.042685
H561	H	0.202976	-0.233975	0.544782
H562	H	0.702976	0.266025	1.044782
H563	H	0.177106	-0.329807	0.593310
H564	H	0.677106	0.170193	1.093310
H565	H	0.228043	-0.323607	0.595375
H566	H	0.728043	0.176393	1.095375
H567	H	0.232048	-0.436761	0.519270
H568	H	0.732048	0.063239	1.019270
O569	O	0.020548	-0.658393	0.169888
O570	O	0.520548	-0.158393	0.669888
C571	C	0.098298	-0.687668	0.112377
C572	C	0.598298	-0.187668	0.612377
C573	C	0.065985	-0.651168	0.140445
C574	C	0.565985	-0.151168	0.640445
H575	H	0.135045	-0.681846	0.088574
H576	H	0.635045	-0.181846	0.588574
H577	H	0.079671	-0.681763	0.088396
H578	H	0.579671	-0.181763	0.588396
H579	H	0.104109	-0.726445	0.139414
H580	H	0.604109	-0.226445	0.639414
H581	H	0.060163	-0.612376	0.113444
H582	H	0.560163	-0.112376	0.613444
H583	H	0.084627	-0.657115	0.164435
H584	H	0.584627	-0.157115	0.664435
O585	O	0.022506	-0.378999	0.356884
O586	O	0.522506	0.121001	0.856884
C587	C	0.054454	-0.328869	0.274686
C588	C	0.554454	0.171131	0.774686
C589	C	0.064355	-0.378847	0.314793
C590	C	0.564355	0.121153	0.814793
H591	H	0.088279	-0.328733	0.240642
H592	H	0.588279	0.171267	0.740642
H593	H	0.045215	-0.299108	0.288114
H594	H	0.545215	0.200892	0.788114
H595	H	0.022518	-0.321776	0.265602
H596	H	0.522518	0.178224	0.765602
H597	H	0.096296	-0.385986	0.323895
H598	H	0.596296	0.114014	0.823895
H599	H	0.073565	-0.408580	0.301344
H600	H	0.573565	0.091420	0.801344
H601	H	0.163263	-0.225165	0.450676
H602	H	0.663263	0.274835	0.950676
O603	O	0.198716	-0.321760	0.476281
O604	O	0.698716	0.178240	0.976281
C605	C	0.205188	-0.337346	0.410242
C606	C	0.705188	0.162654	0.910242
C607	C	0.172956	-0.309286	0.446750
C608	C	0.672956	0.190714	0.946750
H609	H	0.184378	-0.327264	0.386350
H610	H	0.684378	0.172736	0.886350
H611	H	0.215249	-0.378221	0.430985
H612	H	0.715249	0.121779	0.930985
H613	H	0.239817	-0.327300	0.386342
H614	H	0.739817	0.172700	0.886342
H615	H	0.138307	-0.319291	0.470660
H616	H	0.638307	0.180709	0.970660
H617	H	0.162934	-0.268417	0.425977
H618	H	0.662934	0.231583	0.925977
O619	O	0.083230	-0.221177	0.607113
O620	O	0.583230	0.278823	1.107113
C621	C	0.074126	-0.163513	0.636245
C622	C	0.574126	0.336487	1.136245
C623	C	0.106367	-0.191585	0.599748
C624	C	0.606367	0.308415	1.099748
H625	H	0.092815	-0.139573	0.630297
H626	H	0.592815	0.360427	1.130297
H627	H	0.068283	-0.190506	0.675043
H628	H	0.568283	0.309494	1.175043
H629	H	0.037390	-0.139652	0.630393
H630	H	0.537390	0.360348	1.130393
H631	H	0.143121	-0.215447	0.605555
H632	H	0.643121	0.284553	1.105555
H633	H	0.112169	-0.164565	0.560963
H634	H	0.612169	0.335435	1.060963
O635	O	0.116730	-0.321761	0.640658
O636	O	0.616730	0.178239	1.140658
C637	C	0.073631	-0.316404	0.721552
C638	C	0.573631	0.183596	1.221552
C639	C	0.087151	-0.288335	0.666344
C640	C	0.587151	0.211665	1.166344
H641	H	0.049707	-0.289392	0.742335
H642	H	0.549707	0.210608	1.242335
H643	H	0.108270	-0.340281	0.731600
H644	H	0.608270	0.159719	1.231600
H645	H	0.052879	-0.340325	0.731591
H646	H	0.552879	0.159675	1.231591
H647	H	0.107891	-0.264388	0.656265
H648	H	0.607891	0.235612	1.156265
H649	H	0.052495	-0.264489	0.656325
H650	H	0.552495	0.235511	1.156325
H651	H	-0.097137	-0.782089	0.407066
H652	H	0.402863	-0.282089	0.907066
O653	O	-0.061671	-0.494056	0.169923
O654	O	0.438329	0.005944	0.669923
C655	C	-0.104767	-0.413154	0.175268
C656	C	0.395233	0.086846	0.675268
C657	C	-0.091224	-0.468363	0.203342
C658	C	0.408776	0.031637	0.703342
H659	H	-0.128654	-0.392365	0.202275
H660	H	0.371346	0.107635	0.702275
H661	H	-0.125532	-0.403064	0.151331
H662	H	0.374468	0.096936	0.651331
H663	H	-0.070106	-0.403161	0.151409
H664	H	0.429894	0.096839	0.651409
H665	H	-0.125860	-0.478395	0.227228
H666	H	0.374140	0.021605	0.727228
H667	H	-0.070439	-0.478422	0.227249
H668	H	0.429561	0.021578	0.727249
H669	H	-0.090673	-0.532769	0.266460
H670	H	0.409327	-0.032769	0.766460
O671	O	0.027118	-0.685707	0.315488
O672	O	0.527118	-0.185707	0.815488
C673	C	0.110831	-0.691178	0.286150
C674	C	0.610831	-0.191178	0.786150
C675	C	0.074721	-0.719183	0.312759
C676	C	0.574721	-0.219183	0.812759
H677	H	0.149327	-0.718232	0.283926
H678	H	0.649327	-0.218232	0.783926
H679	H	0.100601	-0.667289	0.307027
H680	H	0.600601	-0.167289	0.807027
H681	H	0.109298	-0.667276	0.247763
H682	H	0.609298	-0.167276	0.747763
H683	H	0.076235	-0.743113	0.351146
H684	H	0.576235	-0.243113	0.851146
H685	H	0.084963	-0.743042	0.291845
H686	H	0.584963	-0.243042	0.791845
O687	O	-0.013241	-0.691929	0.270545
O688	O	0.486759	-0.191929	0.770545
C689	C	-0.017139	-0.768353	0.286114
C690	C	0.482861	-0.268353	0.786114
C691	C	-0.030622	-0.713150	0.258015
C692	C	0.469378	-0.213150	0.758015
H693	H	-0.031177	-0.785528	0.275986
H694	H	0.468823	-0.285528	0.775986
H695	H	-0.034408	-0.774821	0.326981
H696	H	0.465592	-0.274821	0.826981
H697	H	0.024185	-0.785585	0.276150
H698	H	0.524185	-0.285585	0.776150
H699	H	-0.071940	-0.695882	0.267938
H700	H	0.428060	-0.195882	0.767938
H701	H	-0.013320	-0.706717	0.217155
H702	H	0.486680	-0.206717	0.717155
O703	O	-0.095346	-0.527489	0.305282
O704	O	0.404654	-0.027489	0.805282
C705	C	-0.134776	-0.443002	0.265650
C706	C	0.365224	0.056998	0.765650
C707	C	-0.102552	-0.479538	0.297993
C708	C	0.397448	0.020462	0.797993
H709	H	-0.140604	-0.404225	0.259738
H710	H	0.359396	0.095775	0.759738
H711	H	-0.171521	-0.448806	0.284285
H712	H	0.328479	0.051194	0.784285
H713	H	-0.116028	-0.448931	0.228951
H714	H	0.383972	0.051069	0.728951
H715	H	-0.121257	-0.473630	0.334698
H716	H	0.378743	0.026370	0.834698
H717	H	-0.065808	-0.473724	0.279320
H718	H	0.434192	0.026276	0.779320
H719	H	-0.059919	-0.501948	0.340854
H720	H	0.440081	-0.001948	0.840854
H721	H	0.015526	-0.653210	0.416597
H722	H	0.515526	-0.153210	0.916597
H723	H	0.052703	-0.782242	0.350169
H724	H	0.552703	-0.282242	0.850169
H725	H	-0.226875	-0.615140	0.453976
H726	H	0.273125	-0.115140	0.953976
O727	O	-0.130349	-0.650695	0.428539
O728	O	0.369651	-0.150695	0.928539
C729	C	-0.135866	-0.690235	0.513051
C730	C	0.364134	-0.190235	1.013051
C731	C	-0.163844	-0.657946	0.476468
C732	C	0.336156	-0.157946	0.976468
H733	H	-0.162934	-0.696115	0.551809
H734	H	0.337066	-0.196115	1.051809
H735	H	-0.111979	-0.671571	0.507254
H736	H	0.388021	-0.171571	1.007254
H737	H	-0.111966	-0.726953	0.507167
H738	H	0.388034	-0.226953	1.007167
H739	H	-0.187770	-0.621222	0.482330
H740	H	0.312230	-0.121222	0.982330
H741	H	-0.187699	-0.676648	0.482274
H742	H	0.312301	-0.176648	0.982274
H743	H	-0.226640	-0.539563	0.302661
H744	H	0.273360	-0.039563	0.802661
H745	H	-0.134040	-0.570516	0.271939
H746	H	0.365960	-0.070516	0.771939
