data_functionalizedCrystal
_audit_creation_method	'MofGen! by Chris Wilmer'
_symmetry_space_group_name_H-M	'P1'
_symmetry_Int_Tables_number	1
_symmetry_cell_setting	triclinic
loop_
_symmetry_equiv_pos_as_xyz
  x,y,z
_cell_length_a	18.215405
_cell_length_b	12.759401
_cell_length_c	12.759393
_cell_angle_alpha	90.020473
_cell_angle_beta	89.962950
_cell_angle_gamma	89.973590
loop_
_atom_site_label
_atom_site_type_symbol
_atom_site_fract_x
_atom_site_fract_y
_atom_site_fract_z
Zn1	Zn	-0.292915	-1.606187	-0.593976
Zn2	Zn	-0.416000	-1.606048	-0.418278
Zn3	Zn	-0.292955	-1.430487	-0.418311
Zn4	Zn	-0.415947	-1.430447	-0.593915
O5	O	-0.354454	-1.518292	-0.506120
O6	O	-0.309247	-1.753190	-0.570681
O7	O	-0.399717	-1.582719	-0.271261
O8	O	-0.189965	-1.453869	-0.441653
O9	O	-0.399678	-1.753088	-0.441596
O10	O	-0.189936	-1.582955	-0.570714
O11	O	-0.309316	-1.453735	-0.271286
O12	O	-0.309265	-1.283461	-0.441594
O13	O	-0.399588	-1.453800	-0.740944
O14	O	-0.399627	-1.283431	-0.570609
O15	O	-0.309196	-1.582916	-0.740989
O16	O	-0.518977	-1.582679	-0.441537
O17	O	-0.518939	-1.453665	-0.570577
C18	C	-0.354445	-1.245325	-0.506099
C19	C	-0.354459	-1.128548	-0.506115
C20	C	-0.545661	-1.518181	-0.506070
C21	C	-0.627459	-1.518230	-0.506083
C22	C	-0.354382	-1.518369	-0.780154
C23	C	-0.354351	-1.518401	-0.896930
C24	C	-0.815649	-1.585565	-0.439016
C25	C	-0.892508	-1.585612	-0.439041
C26	C	-0.892507	-1.451154	-0.573300
C27	C	-0.815650	-1.451113	-0.573279
C28	C	-0.777223	-1.518317	-0.506131
C29	C	-0.930939	-1.518405	-0.506178
C30	C	-1.014273	-1.518455	-0.506206
C31	C	-0.693884	-1.518268	-0.506104
C32	C	-0.162501	-1.518432	-0.506194
C33	C	-0.080702	-1.518492	-0.506225
C34	C	-0.354464	-1.792326	-0.506142
C35	C	-0.354468	-1.909102	-0.506151
C36	C	-0.401582	-1.073698	-0.573188
C37	C	-0.401585	-0.963974	-0.573209
C38	C	-0.307340	-0.963960	-0.439076
C39	C	-0.307334	-1.073682	-0.439061
C40	C	-0.307249	-1.585659	-1.061549
C41	C	-0.307277	-1.585639	-0.951825
C42	C	-0.401404	-1.451187	-0.951766
C43	C	-0.401379	-1.451214	-1.061488
C44	C	-0.354473	-1.518277	-0.233153
C45	C	-0.354297	-1.518448	-0.116377
H46	H	-0.784363	-1.640289	-0.384341
Br47	Br	-0.243387	-0.889492	-0.348077
H48	H	-0.439953	-1.118367	-0.627791
H49	H	-0.268956	-1.118342	-0.384442
H50	H	-0.439736	-1.396446	-0.907063
Br51	Br	-0.944655	-1.676888	-0.347958
Br52	Br	-0.465243	-1.360003	-1.135905
H53	H	-0.923804	-1.396437	-0.627968
H54	H	-0.268911	-1.640404	-1.106236
Br55	Br	-0.763495	-1.359850	-0.664380
Br56	Br	-0.465537	-0.889539	-0.664245
H57	H	-0.268966	-1.640369	-0.907188
