data_functionalizedCrystal
_audit_creation_method	'MofGen! by Chris Wilmer'
_symmetry_space_group_name_H-M	'P1'
_symmetry_Int_Tables_number	1
_symmetry_cell_setting	triclinic
loop_
_symmetry_equiv_pos_as_xyz
  x,y,z
_cell_length_a	18.101398
_cell_length_b	18.050589
_cell_length_c	18.050582
_cell_angle_alpha	89.981795
_cell_angle_beta	89.979764
_cell_angle_gamma	90.023488
loop_
_atom_site_label
_atom_site_type_symbol
_atom_site_fract_x
_atom_site_fract_y
_atom_site_fract_z
Zn1	Zn	1.132106	-0.295800	-0.420040
Zn2	Zn	1.132017	-0.419984	-0.295860
Zn3	Zn	1.008274	-0.295802	-0.295853
Zn4	Zn	1.008222	-0.419943	-0.419997
O5	O	1.070155	-0.357882	-0.357937
O6	O	1.235727	-0.312290	-0.403589
O7	O	1.115587	-0.403528	-0.191934
O8	O	1.024759	-0.191877	-0.312342
O9	O	1.235662	-0.403527	-0.312354
O10	O	1.115738	-0.191876	-0.403582
O11	O	1.024673	-0.312292	-0.191929
O12	O	0.904634	-0.312253	-0.312300
O13	O	1.024671	-0.403457	-0.523927
O14	O	0.904596	-0.403459	-0.403508
O15	O	1.115688	-0.312250	-0.523959
O16	O	1.115536	-0.523903	-0.312311
O17	O	1.024585	-0.523873	-0.403514
C18	C	0.877744	-0.357852	-0.357899
C19	C	0.795430	-0.357857	-0.357900
C20	C	0.496339	-0.357903	-0.357962
C21	C	0.527663	-0.300232	-0.300857
C22	C	0.613282	-0.300387	-0.300613
C23	C	0.644722	-0.357880	-0.357931
C24	C	0.613609	-0.436109	-0.336553
C25	C	0.527964	-0.435788	-0.336156
C26	C	0.527947	-0.338025	-0.436581
C27	C	0.613598	-0.336283	-0.436152
C28	C	0.728581	-0.357871	-0.357915
C29	C	0.412480	-0.357917	-0.357977
C30	C	1.070065	-0.550834	-0.357925
C31	C	1.070095	-0.633380	-0.357945
C32	C	1.020684	-0.832841	-0.407524
C33	C	1.002637	-0.882274	-0.339755
C34	C	1.070167	-0.784510	-0.357954
C35	C	1.088251	-0.882160	-0.425731
C36	C	1.070236	-0.930495	-0.357970
C37	C	1.052085	-0.832856	-0.290149
C38	C	1.137730	-0.832737	-0.376172
C39	C	1.119709	-0.882147	-0.308356
C40	C	1.070126	-0.700412	-0.357947
C41	C	1.070278	-1.014592	-0.357970
C42	C	1.263316	-0.357913	-0.357977
C43	C	1.345631	-0.357926	-0.357994
C44	C	1.070184	-0.357849	-0.551643
C45	C	1.070196	-0.357835	-0.634189
C46	C	1.070265	-0.164177	-0.357966
C47	C	1.070311	-0.081631	-0.357978
C48	C	1.020739	-0.407366	-0.833622
C49	C	1.088304	-0.425525	-0.883021
C50	C	1.070233	-0.357779	-0.785319
C51	C	1.002705	-0.339599	-0.883002
C52	C	1.070262	-0.357725	-0.931305
C53	C	1.137833	-0.375973	-0.833631
C54	C	1.052188	-0.290016	-0.833608
C55	C	1.119800	-0.308149	-0.882984
C56	C	1.070215	-0.357811	-0.701221
C57	C	1.070287	-0.357692	-1.015401
C58	C	1.070168	-0.357861	-0.164985
C59	C	1.070299	-0.357666	-0.082440
H60	H	0.634318	-0.242377	-0.314013
H61	H	1.194969	-0.391392	-0.812035
H62	H	1.036889	-0.232749	-0.811886
H63	H	1.194821	-0.810964	-0.391599
H64	H	1.036751	-0.811288	-0.232822
H65	H	1.161716	-0.266192	-0.904521
H66	H	0.945533	-0.904049	-0.324360
C67	C	0.925545	-0.318850	-0.912301
H68	H	0.928926	-0.275020	-0.941259
H69	H	0.893132	-0.310632	-0.871731
H70	H	0.906980	-0.358100	-0.942002
H71	H	0.633938	-0.278715	-0.452272
C72	C	0.964249	-0.464082	-0.804335
H73	H	0.928066	-0.439300	-0.775371
H74	H	0.988872	-0.499837	-0.774658
H75	H	0.940949	-0.488090	-0.844916
C76	C	0.642506	-0.388890	-0.496715
H77	H	0.622828	-0.374539	-0.543344
H78	H	0.627625	-0.438161	-0.485747
H79	H	0.694904	-0.386419	-0.498424
H80	H	0.507089	-0.242045	-0.314109
C81	C	0.498805	-0.262306	-0.462846
H82	H	0.518540	-0.251368	-0.510385
H83	H	0.513473	-0.225035	-0.428739
H84	H	0.446418	-0.263808	-0.465624
C85	C	1.108965	-0.502908	-0.912325
H86	H	1.152681	-0.499535	-0.941274
H87	H	1.069824	-0.521524	-0.942019
H88	H	1.117154	-0.535407	-0.871746
H89	H	0.506119	-0.313224	-0.242940
C90	C	1.108880	-0.911415	-0.503152
H91	H	1.073649	-0.894524	-0.538302
H92	H	1.109201	-0.964036	-0.502496
H93	H	1.156514	-0.893718	-0.516427
H94	H	1.161585	-0.903660	-0.266395
H95	H	0.978776	-0.811191	-0.449383
H96	H	0.507957	-0.452647	-0.278682
C97	C	0.640928	-0.318143	-0.221919
H98	H	0.693410	-0.318292	-0.221499
H99	H	0.623158	-0.365461	-0.207282
H100	H	0.623282	-0.281620	-0.188424
C101	C	0.499965	-0.495738	-0.389958
H102	H	0.540935	-0.520192	-0.411949
H103	H	0.470852	-0.473273	-0.427531
H104	H	0.470844	-0.530728	-0.363599
H105	H	0.633973	-0.480229	-0.376844
H106	H	0.635029	-0.453260	-0.279700
H107	H	0.507690	-0.380031	-0.479130
