data_functionalizedCrystal
_audit_creation_method	'MofGen! by Chris Wilmer'
_symmetry_space_group_name_H-M	'P1'
_symmetry_Int_Tables_number	1
_symmetry_cell_setting	triclinic
loop_
_symmetry_equiv_pos_as_xyz
  x,y,z
_cell_length_a	14.908520
_cell_length_b	14.908571
_cell_length_c	14.908308
_cell_angle_alpha	90.175053
_cell_angle_beta	96.360765
_cell_angle_gamma	90.205961
loop_
_atom_site_label
_atom_site_type_symbol
_atom_site_fract_x
_atom_site_fract_y
_atom_site_fract_z
Zn1	Zn	-0.470613	1.316651	-0.613065
Zn2	Zn	0.029387	1.816651	-0.113065
Zn3	Zn	-0.613252	1.316549	-0.470429
Zn4	Zn	-0.113252	1.816549	0.029571
Zn5	Zn	-0.453291	1.176020	-0.453125
Zn6	Zn	0.046709	1.676020	0.046875
Zn7	Zn	-0.612180	1.157642	-0.612023
Zn8	Zn	-0.112180	1.657642	-0.112023
O9	O	-0.537334	1.241715	-0.537161
O10	O	-0.037334	1.741715	-0.037161
O11	O	-0.497231	1.441995	-0.601822
O12	O	0.002769	1.941995	-0.101822
O13	O	-0.585232	1.305556	-0.341941
O14	O	-0.085232	1.805556	0.158059
O15	O	-0.329399	1.202409	-0.467536
O16	O	0.170601	1.702409	0.032464
O17	O	-0.602028	1.441920	-0.497029
O18	O	-0.102028	1.941920	0.002971
O19	O	-0.342124	1.305730	-0.585043
O20	O	0.157876	1.805730	-0.085043
O21	O	-0.467710	1.202310	-0.329228
O22	O	0.032290	1.702310	0.170772
O23	O	-0.466671	1.048225	-0.466525
O24	O	0.033329	1.548225	0.033475
O25	O	-0.600202	1.171086	-0.738354
O26	O	-0.100202	1.671086	-0.238354
O27	O	-0.583406	1.034722	-0.583267
O28	O	-0.083406	1.534722	-0.083267
O29	O	-0.496192	1.287909	-0.739120
O30	O	0.003808	1.787909	-0.239120
O31	O	-0.739300	1.287736	-0.496018
O32	O	-0.239300	1.787736	0.003982
O33	O	-0.738513	1.170987	-0.600046
O34	O	-0.238513	1.670987	-0.100046
C35	C	-0.523043	1.008970	-0.522906
C36	C	-0.023043	1.508970	-0.022906
C37	C	-0.516953	0.909397	-0.516830
C38	C	-0.016953	1.409397	-0.016830
C39	C	-0.771629	1.227379	-0.549818
C40	C	-0.271629	1.727379	-0.049818
C41	C	-0.871868	1.221326	-0.555268
C42	C	-0.371868	1.721326	-0.055268
C43	C	-0.627234	0.708277	-0.626831
C44	C	-0.127234	1.208277	-0.126831
C45	C	-0.621514	0.614720	-0.621125
C46	C	-0.121514	1.114720	-0.121125
C47	C	-0.499789	0.628723	-0.499719
C48	C	0.000211	1.128723	0.000281
C49	C	-0.505509	0.722281	-0.505424
C50	C	-0.005509	1.222281	-0.005424
C51	C	-0.569235	0.762054	-0.568981
C52	C	-0.069235	1.262054	-0.068981
C53	C	-0.574958	0.855613	-0.574682
C54	C	-0.074958	1.355613	-0.074682
C55	C	-0.453230	0.869615	-0.453280
C56	C	0.046770	1.369615	0.046720
C57	C	-0.447510	0.776058	-0.447575
C58	C	0.052490	1.276058	0.052425
C59	C	-1.060998	1.331634	-0.457284
C60	C	-0.560998	1.831634	0.042716
C61	C	-1.155181	1.325950	-0.462402
C62	C	-0.655181	1.825950	0.037598
C63	C	-1.154420	1.204279	-0.570626
C64	C	-0.654420	1.704279	-0.070626
C65	C	-1.060237	1.209963	-0.565508
C66	C	-0.560237	1.709963	-0.065508
C67	C	-1.013529	1.273642	-0.508834
C68	C	-0.513529	1.773642	-0.008834
C69	C	-0.919343	1.279321	-0.503712
C70	C	-0.419343	1.779321	-0.003712
C71	C	-0.918584	1.157655	-0.611940
C72	C	-0.418584	1.657655	-0.111940
C73	C	-1.012768	1.151970	-0.617058
C74	C	-0.512768	1.651970	-0.117058
C75	C	-0.302127	1.256131	-0.524476
C76	C	0.197873	1.756131	-0.024476
C77	C	-0.201896	1.262274	-0.519070
C78	C	0.298104	1.762274	-0.019070
C79	C	-0.550010	1.227459	-0.772372
C80	C	-0.050010	1.727459	-0.272372
C81	C	-0.555411	1.221383	-0.872606
C82	C	-0.055411	1.721383	-0.372606
C83	C	-0.551681	1.475370	-0.551472
C84	C	-0.051681	1.975370	-0.051472
C85	C	-0.557795	1.574939	-0.557571
C86	C	-0.057795	2.074939	-0.057571
C87	C	-0.457236	1.331614	-1.061752
C88	C	0.042764	1.831614	-0.561752
C89	C	-0.462308	1.325908	-1.155930
C90	C	0.037692	1.825908	-0.655930
C91	C	-0.570623	1.204264	-1.155141
C92	C	-0.070623	1.704264	-0.655141
C93	C	-0.565551	1.209969	-1.060963
C94	C	-0.065551	1.709969	-0.560963
C95	C	-0.508856	1.273647	-1.014272
C96	C	-0.008856	1.773647	-0.514272
C97	C	-0.503789	1.279356	-0.920093
C98	C	-0.003789	1.779356	-0.420093
C99	C	-0.612099	1.157708	-0.919305
C100	C	-0.112099	1.657708	-0.419305
C101	C	-0.617171	1.152002	-1.013483
C102	C	-0.117171	1.652002	-0.513483
C103	C	-0.524646	1.255972	-0.302864
C104	C	-0.024646	1.755972	0.197136
C105	C	-0.519001	1.262236	-0.202628
C106	C	-0.019001	1.762236	0.297372
H107	H	-0.626848	0.887995	-0.626432
H108	H	-0.126848	1.387995	-0.126432
O109	O	-0.412032	1.382189	-1.201943
O110	O	0.087968	1.882189	-0.701943
C111	C	-0.262855	1.433281	-1.225177
C112	C	0.237145	1.933281	-0.725177
C113	C	-0.319689	1.369511	-1.172989
C114	C	0.180311	1.869511	-0.672989
H115	H	-0.188184	1.423040	-1.201801
H116	H	0.311816	1.923040	-0.701801
H117	H	-0.282049	1.505687	-1.211914
H118	H	0.217951	2.005687	-0.711914
H119	H	-0.276263	1.418282	-1.300509
H120	H	0.223737	1.918282	-0.800509
H121	H	-0.306311	1.384429	-1.097643
H122	H	0.193689	1.884429	-0.597643
H123	H	-0.300484	1.297125	-1.186327
H124	H	0.199516	1.797125	-0.686327
H125	H	-0.411077	1.383467	-1.023736
H126	H	0.088923	1.883467	-0.523736
H127	H	-0.654134	1.110509	-0.880636
H128	H	-0.154134	1.610509	-0.380636
H129	H	-0.395624	0.743661	-0.395831
H130	H	0.104376	1.243661	0.104169
H131	H	-1.050810	1.100127	-0.663202
H132	H	-0.550810	1.600127	-0.163202
H133	H	-1.193828	1.373175	-0.420427
H134	H	-0.693828	1.873175	0.079573
O135	O	-0.625705	1.142333	-1.200361
O136	O	-0.125705	1.642333	-0.700361
C137	C	-0.732645	1.022314	-1.189656
C138	C	-0.232645	1.522314	-0.689656
C139	C	-0.670286	1.092395	-1.138331
C140	C	-0.170286	1.592395	-0.638331
H141	H	-0.768719	0.981933	-1.139529
H142	H	-0.268719	1.481933	-0.639529
H143	H	-0.690778	0.975277	-1.228616
H144	H	-0.190778	1.475277	-0.728616
H145	H	-0.784654	1.057899	-1.238839
H146	H	-0.284654	1.557899	-0.738839
H147	H	-0.618266	1.056885	-1.089103
H148	H	-0.118266	1.556885	-0.589103
H149	H	-0.712212	1.139428	-1.099431
H150	H	-0.212212	1.639428	-0.599431
H151	H	-0.879924	1.110431	-0.653913
H152	H	-0.379924	1.610431	-0.153913
H153	H	-0.663328	1.100156	-1.051511
H154	H	-0.163328	1.600156	-0.551511
O155	O	-1.015708	1.393439	-0.402107
O156	O	-0.515708	1.893439	0.097893
C157	C	-0.981264	1.448037	-0.249843
C158	C	-0.481264	1.948037	0.250157
C159	C	-1.032618	1.378004	-0.312234
C160	C	-0.532618	1.878004	0.187766
H161	H	-0.994902	1.435570	-0.177165
H162	H	-0.494902	1.935570	0.322835
H163	H	-1.005008	1.518202	-0.271086
H164	H	-0.505008	2.018202	0.228914
H165	H	-0.905803	1.442146	-0.255090
H166	H	-0.405803	1.942146	0.244910
H167	H	-1.108088	1.383812	-0.307018
H168	H	-0.608088	1.883812	0.192982
H169	H	-1.008800	1.307868	-0.290973
H170	H	-0.508800	1.807868	0.209027
H171	H	-1.192467	1.152440	-0.616773
H172	H	-0.692467	1.652440	-0.116773
O173	O	-0.677730	0.562441	-0.677405
O174	O	-0.177730	1.062441	-0.177405
C175	C	-0.690142	0.448672	-0.793322
C176	C	-0.190142	0.948672	-0.293322
C177	C	-0.626377	0.507840	-0.729645
C178	C	-0.126377	1.007840	-0.229645
H179	H	-0.648649	0.404499	-0.835561
H180	H	-0.148649	0.904499	-0.335561
H181	H	-0.736654	0.493129	-0.839789
H182	H	-0.236654	0.993129	-0.339789
H183	H	-0.732339	0.404540	-0.751703
H184	H	-0.232339	0.904540	-0.251703
H185	H	-0.584122	0.551981	-0.771192
H186	H	-0.084122	1.051981	-0.271192
H187	H	-0.579925	0.463331	-0.683175
H188	H	-0.079925	0.963331	-0.183175
H189	H	-0.679126	0.740661	-0.678577
H190	H	-0.179126	1.240661	-0.178577
O191	O	-0.874112	1.341253	-0.448645
O192	O	-0.374112	1.841253	0.051355
C193	C	-0.884808	1.461299	-0.341804
C194	C	-0.384808	1.961299	0.158196
C195	C	-0.936142	1.391215	-0.404145
C196	C	-0.436142	1.891215	0.095855
H197	H	-0.934936	1.501699	-0.305794
H198	H	-0.434936	2.001699	0.194206
H199	H	-0.845785	1.508318	-0.383675
H200	H	-0.345785	2.008318	0.116325
H201	H	-0.835682	1.425715	-0.289740
H202	H	-0.335682	1.925715	0.210260
H203	H	-0.985313	1.426723	-0.456220
H204	H	-0.485313	1.926723	0.043780
H205	H	-0.975105	1.344201	-0.362215
H206	H	-0.475105	1.844201	0.137785
O207	O	-0.448641	1.341233	-0.874871
O208	O	0.051359	1.841233	-0.374871
C209	C	-0.341778	1.461315	-0.885602
C210	C	0.158222	1.961315	-0.385602
C211	C	-0.404183	1.391268	-0.936923
C212	C	0.095817	1.891268	-0.436923
H213	H	-0.305831	1.501800	-0.935750
H214	H	0.194169	2.001800	-0.435750
H215	H	-0.289673	1.425789	-0.836472
H216	H	0.210327	1.925789	-0.336472
H217	H	-0.383686	1.508258	-0.846587
H218	H	0.116314	2.008258	-0.346587
H219	H	-0.362350	1.344306	-0.975991
H220	H	0.137650	1.844306	-0.475991
H221	H	-0.456291	1.426854	-0.986000
H222	H	0.043709	1.926854	-0.486000
H223	H	-0.406004	0.913411	-0.406173
H224	H	0.093996	1.413411	0.093827
O225	O	-0.437940	0.589933	-0.438039
O226	O	0.062060	1.089933	0.061961
C227	C	-0.375081	0.452003	-0.375562
C228	C	0.124919	0.952003	0.124438
C229	C	-0.445199	0.495815	-0.445422
C230	C	0.054801	0.995815	0.054578
H231	H	-0.380913	0.375901	-0.381519
H232	H	0.119087	0.875901	0.118481
H233	H	-0.387964	0.473736	-0.304748
H234	H	0.112036	0.973736	0.195252
H235	H	-0.304406	0.473946	-0.388742
H236	H	0.195594	0.973946	0.111258
H237	H	-0.515902	0.473893	-0.432326
H238	H	-0.015902	0.973893	0.067674
H239	H	-0.432237	0.474083	-0.516213
H240	H	0.067763	0.974083	-0.016213
