data_functionalizedCrystal
_audit_creation_method	'MofGen! by Chris Wilmer'
_symmetry_space_group_name_H-M	'P1'
_symmetry_Int_Tables_number	1
_symmetry_cell_setting	triclinic
loop_
_symmetry_equiv_pos_as_xyz
  x,y,z
_cell_length_a	17.077404
_cell_length_b	19.121063
_cell_length_c	17.077396
_cell_angle_alpha	87.591200
_cell_angle_beta	90.019501
_cell_angle_gamma	92.469213
loop_
_atom_site_label
_atom_site_type_symbol
_atom_site_fract_x
_atom_site_fract_y
_atom_site_fract_z
Zn1	Zn	1.186697	-0.279610	0.457152
Zn2	Zn	1.520031	0.053724	0.790485
Zn3	Zn	1.853364	0.387057	1.123818
Zn4	Zn	1.180993	-0.397067	0.331476
Zn5	Zn	1.514327	-0.063733	0.664810
Zn6	Zn	1.847660	0.269600	0.998143
Zn7	Zn	1.055428	-0.279634	0.325901
Zn8	Zn	1.388761	0.053699	0.659234
Zn9	Zn	1.722095	0.387032	0.992567
Zn10	Zn	1.049788	-0.397025	0.462698
Zn11	Zn	1.383121	-0.063692	0.796031
Zn12	Zn	1.716455	0.269642	1.129365
O13	O	1.118227	-0.338334	0.394307
O14	O	1.451560	-0.005001	0.727640
O15	O	1.784893	0.328333	1.060973
O16	O	1.295787	-0.295198	0.440493
O17	O	1.629121	0.038136	0.773826
O18	O	1.962454	0.371469	1.107159
O19	O	1.164310	-0.381517	0.220891
O20	O	1.497643	-0.048184	0.554224
O21	O	1.830977	0.285150	0.887558
O22	O	1.077589	-0.181347	0.338657
O23	O	1.410922	0.151987	0.671990
O24	O	1.744255	0.485320	1.005324
O25	O	1.291597	-0.381493	0.348160
O26	O	1.624930	-0.048160	0.681493
O27	O	1.958263	0.285174	1.014826
O28	O	1.174032	-0.181328	0.435086
O29	O	1.507365	0.152005	0.768420
O30	O	1.840698	0.485338	1.101753
O31	O	1.072058	-0.295240	0.216795
O32	O	1.405391	0.038094	0.550128
O33	O	1.738724	0.371427	0.883461
O34	O	0.944833	-0.295199	0.344035
O35	O	1.278167	0.038134	0.677368
O36	O	1.611500	0.371467	1.010702
O37	O	1.067976	-0.381422	0.571808
O38	O	1.401309	-0.048089	0.905141
O39	O	1.734643	0.285245	1.238475
O40	O	0.940690	-0.381446	0.444539
O41	O	1.274023	-0.048112	0.777873
O42	O	1.607356	0.285221	1.111206
O43	O	1.168563	-0.295157	0.567733
O44	O	1.501896	0.038176	0.901066
O45	O	1.835229	0.371509	1.234400
O46	O	1.158841	-0.495346	0.353538
O47	O	1.492175	-0.162012	0.686871
O48	O	1.825508	0.171321	1.020204
O49	O	1.062445	-0.495315	0.449946
O50	O	1.395779	-0.161982	0.783279
O51	O	1.729112	0.171351	1.116612
C52	C	0.914279	-0.338321	0.394284
C53	C	1.247613	-0.004988	0.727618
C54	C	1.580946	0.328345	1.060951
C55	C	0.827029	-0.338333	0.394294
C56	C	1.160362	-0.004999	0.727628
C57	C	1.493696	0.328334	1.060961
C58	C	0.783899	-0.383309	0.446550
C59	C	1.117232	-0.049976	0.779883
C60	C	1.450565	0.283358	1.113216
C61	C	0.701918	-0.383311	0.446562
C62	C	1.035251	-0.049977	0.779896
C63	C	1.368585	0.283356	1.113229
C64	C	0.663069	-0.338339	0.394315
C65	C	0.996403	-0.005005	0.727648
C66	C	1.329736	0.328328	1.060982
C67	C	0.706206	-0.293358	0.342057
C68	C	1.039539	0.039976	0.675391
C69	C	1.372872	0.373309	1.008724
C70	C	0.788185	-0.293353	0.342049
C71	C	1.121518	0.039980	0.675382
C72	C	1.454852	0.373314	1.008716
C73	C	0.535335	-0.293371	0.342077
C74	C	0.868668	0.039962	0.675410
C75	C	1.202002	0.373295	1.008744
C76	C	0.453350	-0.293377	0.342084
C77	C	0.786684	0.039957	0.675417
C78	C	1.120017	0.373290	1.008751
C79	C	0.449068	-0.383329	0.446590
C80	C	0.782402	-0.049996	0.779923
C81	C	1.115735	0.283338	1.113257
C82	C	0.531047	-0.383324	0.446582
C83	C	0.864381	-0.049991	0.779915
C84	C	1.197714	0.283342	1.113248
C85	C	0.574178	-0.338344	0.394323
C86	C	0.907511	-0.005011	0.727656
C87	C	1.240845	0.328323	1.060989
C88	C	1.109434	-0.520815	0.402966
C89	C	1.442767	-0.187481	0.736299
C90	C	1.776100	0.145852	1.069632
C91	C	1.105744	-0.598881	0.406696
C92	C	1.439077	-0.265547	0.740030
C93	C	1.772410	0.067786	1.073363
C94	C	1.154237	-0.635549	0.358296
C95	C	1.487571	-0.302215	0.691629
C96	C	1.820904	0.031118	1.024963
C97	C	1.150772	-0.708900	0.361809
C98	C	1.484105	-0.375567	0.695143
C99	C	1.817438	-0.042233	1.028476
C100	C	1.098808	-0.745582	0.413719
C101	C	1.432141	-0.412248	0.747053
C102	C	1.765474	-0.078915	1.080386
C103	C	1.050312	-0.708908	0.462125
C104	C	1.383645	-0.375575	0.795458
C105	C	1.716979	-0.042242	1.128792
C106	C	1.053782	-0.635558	0.458615
C107	C	1.387116	-0.302225	0.791948
C108	C	1.720449	0.031108	1.125282
C109	C	1.085821	-0.967052	0.426830
C110	C	1.419154	-0.633718	0.760163
C111	C	1.752487	-0.300385	1.093496
C112	C	1.082353	-1.040407	0.430334
C113	C	1.415686	-0.707073	0.763667
C114	C	1.749019	-0.373740	1.097001
C115	C	1.182814	-1.040393	0.330019
C116	C	1.516147	-0.707060	0.663353
C117	C	1.849480	-0.373726	0.996686
C118	C	1.186276	-0.967042	0.326511
C119	C	1.519609	-0.633708	0.659844
C120	C	1.852943	-0.300375	0.993177
C121	C	1.137783	-0.930375	0.374919
C122	C	1.471117	-0.597042	0.708252
C123	C	1.804450	-0.263708	1.041586
C124	C	1.095262	-0.820559	0.417310
C125	C	1.428596	-0.487225	0.750643
C126	C	1.761929	-0.153892	1.083977
C127	C	1.141333	-0.855399	0.371332
C128	C	1.474667	-0.522066	0.704665
C129	C	1.808000	-0.188733	1.037998
C130	C	1.322970	-0.338347	0.394329
C131	C	1.656304	-0.005014	0.727663
C132	C	1.989637	0.328319	1.060996
C133	C	1.410220	-0.338353	0.394339
C134	C	1.743553	-0.005020	0.727673
C135	C	2.076886	0.328314	1.061006
C136	C	1.118277	-0.338282	0.599049
C137	C	1.451610	-0.004949	0.932382
C138	C	1.784943	0.328384	1.265715
C139	C	1.118298	-0.338260	0.686297
C140	C	1.451631	-0.004927	1.019631
C141	C	1.784965	0.328406	1.352964
C142	C	1.127075	-0.155141	0.385631
C143	C	1.460409	0.178193	0.718964
C144	C	1.793742	0.511526	1.052298
C145	C	1.130846	-0.077075	0.381934
C146	C	1.464180	0.256259	0.715267
C147	C	1.797513	0.589592	1.048601
C148	C	1.118224	-0.338335	0.190359
C149	C	1.451558	-0.005001	0.523692
C150	C	1.784891	0.328332	0.857026
C151	C	1.118365	-0.338159	0.103101
C152	C	1.451698	-0.004826	0.436434
C153	C	1.785031	0.328508	0.769768
C154	C	1.170675	-0.293338	0.725167
C155	C	1.504009	0.039995	1.058500
C156	C	1.837342	0.373328	1.391833
C157	C	1.170686	-0.293315	0.807146
C158	C	1.504019	0.040018	1.140480
C159	C	1.837353	0.373352	1.473813
C160	C	1.118322	-0.338217	0.850255
C161	C	1.451656	-0.004884	1.183588
C162	C	1.784989	0.328449	1.516921
C163	C	1.065939	-0.383141	0.811380
C164	C	1.399272	-0.049808	1.144713
C165	C	1.732606	0.283526	1.478046
C166	C	1.065925	-0.383160	0.729402
C167	C	1.399259	-0.049827	1.062735
C168	C	1.732592	0.283506	1.396068
C169	C	1.065973	-0.383099	0.982248
C170	C	1.399306	-0.049766	1.315581
C171	C	1.732639	0.283568	1.648915
C172	C	1.065987	-0.383081	1.064232
C173	C	1.399321	-0.049747	1.397565
C174	C	1.732654	0.283586	1.730898
C175	C	1.170733	-0.293254	1.059992
C176	C	1.504067	0.040080	1.393326
C177	C	1.837400	0.373413	1.726659
C178	C	1.170720	-0.293273	0.978014
C179	C	1.504053	0.040060	1.311348
C180	C	1.837386	0.373394	1.644681
C181	C	1.118337	-0.338198	0.939145
C182	C	1.451671	-0.004864	1.272478
C183	C	1.785004	0.328469	1.605812
H184	H	0.666805	-0.419935	0.489113
H185	H	1.000138	-0.086602	0.822446
H186	H	1.333471	0.246731	1.155780
H187	H	0.570450	-0.256737	0.299529
H188	H	0.903783	0.076596	0.632862
H189	H	1.237117	0.409929	0.966195
H190	H	0.562675	-0.419948	0.489122
H191	H	0.896009	-0.086615	0.822455
H192	H	1.229342	0.246718	1.155788
H193	H	1.014295	-0.605704	0.498029
H194	H	1.347628	-0.272371	0.831362
H195	H	1.680961	0.060963	1.164695
Br196	Br	1.224756	-0.585773	0.287836
Br197	Br	1.558089	-0.252440	0.621169
Br198	Br	1.891423	0.080893	0.954503
Br199	Br	0.836614	-0.444351	0.517455
Br200	Br	1.169947	-0.111018	0.850788
Br201	Br	1.503280	0.222316	1.184121
Br202	Br	0.390536	-0.444365	0.517523
Br203	Br	0.723869	-0.111032	0.850856
Br204	Br	1.057202	0.222302	1.184189
H205	H	1.046335	-0.937203	0.466244
H206	H	1.379668	-0.603870	0.799578
H207	H	1.713001	-0.270536	1.132911
H208	H	0.823301	-0.256725	0.299501
H209	H	1.156634	0.076608	0.632835
H210	H	1.489968	0.409942	0.966168
Br211	Br	1.216593	-0.758662	0.296125
Br212	Br	1.549926	-0.425328	0.629458
Br213	Br	1.883259	-0.091995	0.962792
Br214	Br	1.024743	-0.870347	0.487759
Br215	Br	1.358076	-0.537013	0.821092
Br216	Br	1.691410	-0.203680	1.154426
Br217	Br	0.400627	-0.232348	0.271171
Br218	Br	0.733960	0.100985	0.604504
Br219	Br	1.067293	0.434318	0.937837
Br220	Br	1.256811	-0.917264	0.256069
Br221	Br	1.590144	-0.583931	0.589402
Br222	Br	1.923478	-0.250598	0.922735
H223	H	1.222295	-1.070255	0.290609
H224	H	1.555628	-0.736922	0.623942
H225	H	1.888961	-0.403589	0.957276
H226	H	1.213384	-0.256673	1.091644
H227	H	1.546717	0.076660	1.424977
H228	H	1.880050	0.409994	1.758310
Br229	Br	0.653484	-0.232317	0.271157
Br230	Br	0.986817	0.101016	0.604490
Br231	Br	1.320151	0.434350	0.937823
Br232	Br	1.011812	-1.090189	0.500775
Br233	Br	1.345145	-0.756856	0.834108
Br234	Br	1.678479	-0.423522	1.167442
Br235	Br	0.994834	-0.444124	0.676649
Br236	Br	1.328168	-0.110790	1.009982
Br237	Br	1.661501	0.222543	1.343316
Br238	Br	0.979795	-0.758690	0.532582
Br239	Br	1.313129	-0.425357	0.865915
Br240	Br	1.646462	-0.092023	1.199249
Br241	Br	1.241750	-0.232401	0.666670
Br242	Br	1.575084	0.100932	1.000004
Br243	Br	1.908417	0.434265	1.333337
H244	H	1.183645	-0.825531	0.329069
H245	H	1.516979	-0.492198	0.662403
H246	H	1.850312	-0.158864	0.995736
Br247	Br	1.241808	-0.232380	0.859896
Br248	Br	1.575141	0.100953	1.193230
Br249	Br	1.908475	0.434287	1.526563
Br250	Br	0.994868	-0.444077	0.869883
Br251	Br	1.328202	-0.110743	1.203216
Br252	Br	1.661535	0.222590	1.536550
Br253	Br	1.241792	-0.232340	0.919510
Br254	Br	1.575125	0.100994	1.252843
Br255	Br	1.908459	0.434327	1.586177
H256	H	1.023346	-0.419643	1.099329
H257	H	1.356680	-0.086309	1.432662
H258	H	1.690013	0.247024	1.765995
Br259	Br	0.994879	-0.444066	0.929497
Br260	Br	1.328212	-0.110733	1.262830
Br261	Br	1.661546	0.222600	1.596163
