data_functionalizedCrystal
_audit_creation_method	'MofGen! by Chris Wilmer'
_symmetry_space_group_name_H-M	'P1'
_symmetry_Int_Tables_number	1
_symmetry_cell_setting	triclinic
loop_
_symmetry_equiv_pos_as_xyz
  x,y,z
_cell_length_a	10.489741
_cell_length_b	10.489689
_cell_length_c	8.965430
_cell_angle_alpha	89.994703
_cell_angle_beta	90.002666
_cell_angle_gamma	84.528498
loop_
_atom_site_label
_atom_site_type_symbol
_atom_site_fract_x
_atom_site_fract_y
_atom_site_fract_z
O1	O	-1.694023	-0.179960	-0.123935
O2	O	-1.322824	-0.196853	-0.123957
O3	O	-1.516905	-0.002804	-0.123948
O4	O	-1.499942	-0.374008	-0.123943
O5	O	-1.516882	-0.002823	0.124131
O6	O	-1.322801	-0.196871	0.124122
O7	O	-1.694000	-0.179978	0.124144
Cu8	Cu	-1.508399	-0.188427	0.146785
Cu9	Cu	-1.508425	-0.188405	-0.146597
O10	O	-1.499920	-0.374027	0.124136
C11	C	-1.275281	-0.195586	0.000080
C12	C	-1.133652	-0.191769	0.000071
C13	C	-1.515626	0.044719	0.000087
C14	C	-1.511836	0.186352	0.000075
N15	N	-1.508389	-0.188441	0.353134
C16	C	-1.741543	-0.181245	0.000105
C17	C	-1.883172	-0.185062	0.000104
C18	C	-1.065536	-0.068301	0.000083
C19	C	-0.973409	-0.126617	-0.122229
C20	C	-0.973421	-0.126665	0.122358
C21	C	-1.043391	-0.250135	-0.122342
C22	C	-1.043413	-0.250166	0.122354
C23	C	-0.951313	-0.308571	0.000013
C24	C	-1.628555	0.368740	0.000098
C25	C	-1.570241	0.276586	0.122409
C26	C	-1.570232	0.276629	-0.122178
C27	C	-1.446704	0.346538	0.122516
C28	C	-1.446712	0.346590	-0.122180
C29	C	-1.388308	0.254463	0.000161
C30	C	-1.501218	0.578452	0.000099
C31	C	-1.505069	0.436827	0.000105
C32	C	-1.418603	-0.278155	0.450436
C33	C	-1.534092	-0.303969	0.549857
C34	C	-1.392941	-0.162646	0.549840
C35	C	-1.623937	-0.214313	0.450366
C36	C	-1.482710	-0.072940	0.450341
C37	C	-1.598282	-0.098705	0.549717
N38	N	-1.508420	-0.188403	0.647054
H39	H	-1.115244	0.033197	-0.000071
O40	O	-0.936504	-0.064085	-0.245482
C41	C	-0.995231	0.062547	-0.245075
H42	H	-1.022671	0.091889	-0.126047
H43	H	-0.925616	0.129734	-0.291273
H44	H	-1.084889	0.068418	-0.317573
O45	O	-1.079933	-0.312475	-0.245898
C46	C	-0.971120	-0.352463	-0.332319
H47	H	-0.882373	-0.360064	-0.258265
H48	H	-0.983219	-0.449928	-0.383847
H49	H	-0.959779	-0.279735	-0.424724
H50	H	-1.622482	0.245591	0.225820
O51	O	-1.267193	0.195240	0.000146
C52	C	-1.272139	0.061394	-0.001051
H53	H	-1.367973	0.038098	-0.048695
H54	H	-1.191043	0.014922	-0.073104
H55	H	-1.261401	0.022932	0.117674
O56	O	-1.384334	0.383049	0.246070
C57	C	-1.344358	0.274217	0.332490
H58	H	-1.336790	0.185479	0.258437
H59	H	-1.246880	0.286287	0.384014
H60	H	-1.417075	0.262882	0.424898
O61	O	-1.328247	-0.368905	0.398482
C62	C	-1.355816	-0.490508	0.449224
H63	H	-1.462066	-0.487884	0.477099
H64	H	-1.330896	-0.564687	0.358303
H65	H	-1.296782	-0.517284	0.553297
O66	O	-0.892374	-0.429804	-0.000322
C67	C	-0.928084	-0.494401	-0.129435
H68	H	-0.960699	-0.421464	-0.219169
H69	H	-0.842584	-0.559435	-0.172120
H70	H	-1.009843	-0.554539	-0.101424
H71	H	-1.730060	0.418431	0.000225
O72	O	-1.689141	-0.008308	0.601341
C73	C	-1.810642	-0.035953	0.550348
H74	H	-1.807948	-0.142234	0.522615
H75	H	-1.884993	-0.010947	0.641062
H76	H	-1.837234	0.022967	0.446137
H77	H	-1.074439	-0.302373	0.225768
O78	O	-1.559853	-0.420469	0.602199
C79	C	-1.456820	-0.472734	0.690900
H80	H	-1.401155	-0.392297	0.734486
H81	H	-1.495301	-0.526648	0.788988
H82	H	-1.390690	-0.541517	0.620955
H83	H	-1.721605	-0.236231	0.406855
O84	O	-1.632606	0.239489	-0.245431
C85	C	-1.634337	0.105256	-0.244445
H86	H	-1.622018	0.068330	-0.125225
H87	H	-1.729641	0.079082	-0.290769
H88	H	-1.552757	0.059813	-0.316543
O89	O	-1.456507	0.043481	0.398208
C90	C	-1.334638	0.070298	0.448833
H91	H	-1.274939	-0.023190	0.476800
H92	H	-1.284687	0.122861	0.357806
H93	H	-1.345741	0.132909	0.552825
O94	O	-1.276350	-0.136777	0.601786
C95	C	-1.181978	-0.231642	0.551229
H96	H	-1.217609	-0.278705	0.446542
H97	H	-1.090400	-0.185821	0.524431
H98	H	-1.161613	-0.307107	0.641831
H99	H	-1.394514	0.377618	-0.225596
H100	H	-0.942443	-0.074409	0.225763
