data_functionalizedCrystal
_audit_creation_method	'MofGen! by Chris Wilmer'
_symmetry_space_group_name_H-M	'P1'
_symmetry_Int_Tables_number	1
_symmetry_cell_setting	triclinic
loop_
_symmetry_equiv_pos_as_xyz
  x,y,z
_cell_length_a	10.654543
_cell_length_b	10.654550
_cell_length_c	9.130313
_cell_angle_alpha	89.994910
_cell_angle_beta	90.004176
_cell_angle_gamma	84.483552
loop_
_atom_site_label
_atom_site_type_symbol
_atom_site_fract_x
_atom_site_fract_y
_atom_site_fract_z
O1	O	-1.667839	-0.176360	0.121641
O2	O	-1.302359	-0.193175	0.121679
O3	O	-1.493502	-0.002028	0.121650
O4	O	-1.476696	-0.367507	0.121670
O5	O	-1.493500	-0.002019	-0.121949
O6	O	-1.302357	-0.193166	-0.121920
O7	O	-1.667837	-0.176351	-0.121957
Cu8	Cu	-1.485097	-0.184758	-0.144181
Cu9	Cu	-1.485099	-0.184769	0.143903
O10	O	-1.476694	-0.367498	-0.121929
C11	C	-1.255560	-0.191938	-0.000116
C12	C	-1.116116	-0.188249	-0.000102
C13	C	-1.492267	0.044774	-0.000148
C14	C	-1.488575	0.184217	-0.000146
C15	C	-1.036631	-0.300793	-0.000098
C16	C	-0.905609	-0.297319	-0.000120
C17	C	-0.933573	-0.068749	-0.000144
C18	C	-1.064591	-0.072224	-0.000132
C19	C	-0.714635	-0.177595	-0.000152
C20	C	-0.854077	-0.181301	-0.000135
N21	N	-1.485101	-0.184767	0.346525
C22	C	-1.477929	-0.414300	-0.000127
C23	C	-1.481621	-0.553744	-0.000120
C24	C	-1.601117	0.263706	-0.000157
C25	C	-1.597641	0.394726	-0.000139
C26	C	-1.369070	0.366758	-0.000105
C27	C	-1.372548	0.235740	-0.000112
N28	N	-1.485105	-0.184749	-0.346804
C29	C	-1.569900	-0.100295	0.423164
C30	C	-1.569905	-0.100289	0.576501
C31	C	-1.400302	-0.269230	0.576546
C32	C	-1.400304	-0.269242	0.423212
H33	H	-1.078578	-0.395268	-0.000084
O34	O	-1.263252	0.158464	0.000158
C35	C	-1.258450	0.081809	0.126301
H36	H	-1.322257	0.129224	0.214470
H37	H	-1.157415	0.067946	0.168666
H38	H	-1.291792	-0.013726	0.097770
O39	O	-1.652391	-0.018197	0.348896
C40	C	-1.727214	0.056384	0.449429
H41	H	-1.728985	0.004869	0.558738
H42	H	-1.827357	0.074435	0.405115
H43	H	-1.685805	0.150153	0.465727
H44	H	-1.129313	0.019428	-0.000140
O45	O	-1.652015	-0.018006	0.650998
C46	C	-1.584087	0.060248	0.739498
H47	H	-1.486262	0.011153	0.762598
H48	H	-1.636354	0.079817	0.847269
H49	H	-1.574717	0.153050	0.680193
O50	O	-1.317750	-0.351175	0.348821
C51	C	-1.193314	-0.329390	0.386313
H52	H	-1.192013	-0.228808	0.428446
H53	H	-1.130403	-0.343143	0.285477
H54	H	-1.156903	-0.398603	0.475329
O55	O	-1.318099	-0.351329	0.651206
C56	C	-1.385863	-0.429590	0.739891
H57	H	-1.483776	-0.380654	0.762846
H58	H	-1.333586	-0.448864	0.847722
H59	H	-1.395021	-0.522533	0.680820
O60	O	-1.706846	0.472121	-0.000086
C61	C	-1.678904	0.598811	-0.000101
H62	H	-1.580215	0.604683	0.046033
H63	H	-1.750574	0.657522	0.070618
H64	H	-1.683331	0.636674	-0.116964
H65	H	-0.840896	-0.388964	-0.000119
O66	O	-0.883456	0.043920	0.000100
C67	C	-0.808468	0.052751	0.126239
H68	H	-0.840010	-0.013151	0.214426
H69	H	-0.819341	0.153866	0.168580
H70	H	-0.705419	0.024679	0.097713
O71	O	-1.256475	0.417017	-0.000151
C72	C	-1.277535	0.549703	-0.000115
H73	H	-1.375276	0.579620	-0.046243
H74	H	-1.203226	0.590572	-0.070829
H75	H	-1.271132	0.586210	0.116753
O76	O	-1.713928	0.213863	-0.000106
C77	C	-1.812513	0.312124	-0.000144
H78	H	-1.776527	0.401413	0.045979
H79	H	-1.893445	0.284044	0.070575
H80	H	-1.847287	0.330371	-0.117011
