data_functionalizedCrystal
_audit_creation_method	'MofGen! by Chris Wilmer'
_symmetry_space_group_name_H-M	'P1'
_symmetry_Int_Tables_number	1
_symmetry_cell_setting	triclinic
loop_
_symmetry_equiv_pos_as_xyz
  x,y,z
_cell_length_a	10.654559
_cell_length_b	11.792241
_cell_length_c	9.730223
_cell_angle_alpha	89.998500
_cell_angle_beta	89.999563
_cell_angle_gamma	84.341050
loop_
_atom_site_label
_atom_site_type_symbol
_atom_site_fract_x
_atom_site_fract_y
_atom_site_fract_z
O1	O	1.667376	0.159465	-0.114298
O2	O	1.301856	0.174642	-0.114299
O3	O	1.493486	0.001904	-0.114289
O4	O	1.475746	0.332203	-0.114308
O5	O	1.493484	0.001908	0.114291
O6	O	1.301854	0.174647	0.114281
O7	O	1.667374	0.159469	0.114282
Zn8	Zn	1.484614	0.167059	0.150573
Zn9	Zn	1.484617	0.167053	-0.150591
O10	O	1.475744	0.332208	0.114272
C11	C	1.255060	0.173528	-0.000009
C12	C	1.115627	0.170187	-0.000010
C13	C	1.492371	-0.040388	0.000001
C14	C	1.489035	-0.166409	-0.000001
C15	C	1.064384	0.065341	0.000000
C16	C	0.933371	0.062209	-0.000010
C17	C	0.904854	0.268778	-0.000034
C18	C	1.035865	0.271909	-0.000033
C19	C	1.080847	-0.053920	0.000020
C20	C	0.949833	-0.057052	0.000010
C21	C	1.482902	-0.397136	-0.000024
C22	C	1.486310	-0.268743	-0.000011
C23	C	1.714170	0.160584	-0.000011
C24	C	1.853603	0.163924	-0.000020
C25	C	1.476859	0.374499	-0.000021
C26	C	1.480195	0.500521	-0.000029
N27	N	1.484621	0.167062	0.356110
N28	N	1.484619	0.167041	-0.356127
C29	C	1.569496	0.090599	0.428040
C30	C	1.569493	0.090586	0.571923
C31	C	1.399734	0.243507	0.571932
C32	C	1.399733	0.243514	0.428052
C33	C	1.667509	0.002315	0.428036
C34	C	1.667506	0.002301	0.571919
H35	H	0.839897	0.351596	-0.000053
O36	O	1.788181	0.038932	0.368898
H37	H	1.834640	-0.030845	0.304698
O38	O	1.136334	-0.113444	-0.126679
H39	H	1.059597	-0.145058	-0.188717
O40	O	1.141456	-0.101641	0.130750
H41	H	1.190865	-0.034852	0.182420
O42	O	0.911092	-0.118790	0.126743
H43	H	0.807218	-0.121235	0.126653
H44	H	1.763962	0.021751	0.610969
H45	H	1.077581	0.357284	-0.000065
O46	O	1.627458	-0.106919	0.631045
H47	H	1.606227	-0.164814	0.546034
O48	O	0.902783	-0.107395	-0.130705
H49	H	0.927828	-0.055277	-0.219753
H50	H	1.330610	0.305766	0.369487
H51	H	1.330620	0.305751	0.630523
O52	O	1.639446	-0.113234	0.376259
H53	H	1.545525	-0.132136	0.414289
