data_functionalizedCrystal
_audit_creation_method	'MofGen! by Chris Wilmer'
_symmetry_space_group_name_H-M	'P1'
_symmetry_Int_Tables_number	1
_symmetry_cell_setting	triclinic
loop_
_symmetry_equiv_pos_as_xyz
  x,y,z
_cell_length_a	17.077404
_cell_length_b	10.685194
_cell_length_c	17.077396
_cell_angle_alpha	85.602381
_cell_angle_beta	89.978556
_cell_angle_gamma	94.375108
loop_
_atom_site_label
_atom_site_type_symbol
_atom_site_fract_x
_atom_site_fract_y
_atom_site_fract_z
Zn1	Zn	1.176177	-0.502467	-0.419923
Zn2	Zn	1.676177	-0.002467	0.080077
Zn3	Zn	1.166056	-0.713513	-0.278593
Zn4	Zn	1.666056	-0.213513	0.221407
Zn5	Zn	1.044907	-0.502504	-0.288665
Zn6	Zn	1.544907	-0.002504	0.211335
Zn7	Zn	1.034852	-0.713431	-0.409816
Zn8	Zn	1.534852	-0.213431	0.090184
O9	O	1.105498	-0.607979	-0.349249
O10	O	1.605498	-0.107979	0.150751
O11	O	1.284681	-0.530482	-0.401190
O12	O	1.784681	-0.030482	0.098810
O13	O	1.149957	-0.685573	-0.170080
O14	O	1.649957	-0.185573	0.329920
O15	O	1.070765	-0.325902	-0.314521
O16	O	1.570765	0.174098	0.185479
O17	O	1.277244	-0.685537	-0.297356
O18	O	1.777244	-0.185537	0.202644
O19	O	1.167208	-0.325875	-0.410956
O20	O	1.667208	0.174125	0.089044
O21	O	1.060950	-0.530545	-0.177480
O22	O	1.560950	-0.030545	0.322520
O23	O	0.933728	-0.530465	-0.304721
O24	O	1.433728	-0.030465	0.195279
O25	O	1.053627	-0.685397	-0.521006
O26	O	1.553627	-0.185397	-0.021006
O27	O	0.926340	-0.685433	-0.393731
O28	O	1.426340	-0.185433	0.106269
O29	O	1.157458	-0.530402	-0.528432
O30	O	1.657458	-0.030402	-0.028432
O31	O	1.140207	-0.890100	-0.287556
O32	O	1.640207	-0.390100	0.212444
O33	O	1.043813	-0.890039	-0.383965
O34	O	1.543813	-0.390039	0.116035
C35	C	0.901552	-0.607945	-0.349223
C36	C	1.401552	-0.107945	0.150777
C37	C	0.814301	-0.607961	-0.349228
C38	C	1.314301	-0.107961	0.150772
C39	C	1.089842	-0.935859	-0.333588
C40	C	1.589842	-0.435859	0.166412
C41	C	1.083215	-1.076128	-0.326914
C42	C	1.583215	-0.576128	0.173086
C43	C	0.442347	-0.527422	-0.403416
C44	C	0.942347	-0.027422	0.096584
C45	C	0.524328	-0.527413	-0.403408
C46	C	1.024328	-0.027413	0.096592
C47	C	0.561450	-0.608006	-0.349268
C48	C	1.061450	-0.108006	0.150732
C49	C	0.516587	-0.688622	-0.295138
C50	C	1.016587	-0.188622	0.204862
C51	C	0.434608	-0.688637	-0.295150
C52	C	0.934608	-0.188637	0.204850
C53	C	0.687459	-0.688584	-0.295114
C54	C	1.187459	-0.188584	0.204886
C55	C	0.769444	-0.688568	-0.295101
C56	C	1.269444	-0.188568	0.204899
C57	C	0.777179	-0.527360	-0.403372
C58	C	1.277179	-0.027360	0.096628
C59	C	0.695200	-0.527375	-0.403385
C60	C	1.195200	-0.027375	0.096615
C61	C	0.650342	-0.607990	-0.349253
C62	C	1.150342	-0.107990	0.150747
C63	C	1.310241	-0.608014	-0.349277
C64	C	1.810241	-0.108014	0.150723
C65	C	1.397490	-0.608029	-0.349289
C66	C	1.897490	-0.108029	0.150711
C67	C	1.105550	-0.607886	-0.553998
C68	C	1.605550	-0.107886	-0.053998
C69	C	1.105572	-0.607847	-0.641250
C70	C	1.605572	-0.107847	-0.141250
C71	C	1.121237	-0.278819	-0.364989
C72	C	1.621237	0.221181	0.135011
C73	C	1.127944	-0.138550	-0.371697
C74	C	1.627944	0.361450	0.128303
C75	C	1.159639	-0.527134	-0.686108
C76	C	1.659639	-0.027134	-0.186108
C77	C	1.159651	-0.527092	-0.768091
C78	C	1.659651	-0.027092	-0.268091
C79	C	1.105598	-0.607770	-0.805213
C80	C	1.605598	-0.107770	-0.305213
C81	C	1.051526	-0.688486	-0.760349
C82	C	1.551526	-0.188486	-0.260349
C83	C	1.051511	-0.688520	-0.678368
C84	C	1.551511	-0.188520	-0.178368
C85	C	1.051561	-0.688410	-0.931223
C86	C	1.551561	-0.188410	-0.431223
C87	C	1.051576	-0.688377	-1.013209
C88	C	1.551576	-0.188377	-0.513209
C89	C	1.159700	-0.526982	-1.020945
C90	C	1.659700	-0.026982	-0.520945
C91	C	1.159686	-0.527016	-0.938964
C92	C	1.659686	-0.027016	-0.438964
C93	C	1.105614	-0.607734	-0.894106
C94	C	1.605614	-0.107734	-0.394106
C95	C	1.105496	-0.607981	-0.145302
C96	C	1.605496	-0.107981	0.354698
C97	C	1.105643	-0.607665	-0.058067
C98	C	1.605643	-0.107665	0.441933
H99	H	0.412128	-0.461786	-0.447499
H100	H	0.912128	0.038214	0.052501
H101	H	1.007518	-0.754119	-0.894702
H102	H	1.507518	-0.254119	-0.394702
H103	H	1.203726	-0.461256	-1.057473
H104	H	1.703726	0.038744	-0.557473
H105	H	1.171309	-1.084685	-0.415147
H106	H	1.671309	-0.584685	0.084853
H107	H	1.007477	-0.754232	-0.641846
H108	H	1.507477	-0.254232	-0.141846
H109	H	0.650938	-0.754235	-0.251038
H110	H	1.150938	-0.254235	0.248962
H111	H	1.203679	-0.461371	-0.804611
H112	H	1.703679	0.038629	-0.304611
F113	F	1.026523	-1.146538	-0.270125
F114	F	1.526523	-0.646538	0.229875
H115	H	0.560847	-0.461779	-0.447487
H116	H	1.060847	0.038221	0.052513
H117	H	1.007560	-0.754069	-1.043432
H118	H	1.507560	-0.254069	-0.543432
H119	H	1.203657	-0.461441	-0.655889
H120	H	1.703657	0.038559	-0.155889
F121	F	0.556098	-0.774401	-0.237521
F122	F	1.056098	-0.274401	0.262479
H123	H	1.203704	-0.461329	-0.908741
H124	H	1.703704	0.038671	-0.408741
H125	H	0.664977	-0.461744	-0.447467
H126	H	1.164977	0.038256	0.052533
F127	F	0.386867	-0.774438	-0.237545
F128	F	0.886867	-0.274438	0.262455
F129	F	0.993996	-0.774344	-0.799860
F130	F	1.493996	-0.274344	-0.299860
H131	H	0.813706	-0.461719	-0.447447
H132	H	1.313706	0.038281	0.052553
H133	H	0.799667	-0.754197	-0.251017
H134	H	1.299667	-0.254197	0.248983
