data_functionalizedCrystal
_audit_creation_method	'MofGen! by Chris Wilmer'
_symmetry_space_group_name_H-M	'P1'
_symmetry_Int_Tables_number	1
_symmetry_cell_setting	triclinic
loop_
_symmetry_equiv_pos_as_xyz
  x,y,z
_cell_length_a	12.827893
_cell_length_b	12.759394
_cell_length_c	12.827885
_cell_angle_alpha	90.031224
_cell_angle_beta	90.019272
_cell_angle_gamma	90.014808
loop_
_atom_site_label
_atom_site_type_symbol
_atom_site_fract_x
_atom_site_fract_y
_atom_site_fract_z
Zn1	Zn	1.597674	-0.418216	0.590838
Zn2	Zn	2.097674	0.081784	1.090838
Zn3	Zn	1.597569	-0.593932	0.416094
Zn4	Zn	2.097569	-0.093932	0.916094
Zn5	Zn	1.422915	-0.418268	0.416112
Zn6	Zn	1.922915	0.081732	0.916112
Zn7	Zn	1.422902	-0.593854	0.590794
Zn8	Zn	1.922902	-0.093854	1.090794
O9	O	1.510265	-0.506068	0.503460
O10	O	2.010265	-0.006068	1.003460
O11	O	1.743896	-0.441537	0.567669
O12	O	2.243896	0.058463	1.067669
O13	O	1.574363	-0.570684	0.269860
O14	O	2.074363	-0.070684	0.769860
O15	O	1.446146	-0.271240	0.439316
O16	O	1.946146	0.228760	0.939316
O17	O	1.743819	-0.570634	0.439285
O18	O	2.243819	-0.070634	0.939285
O19	O	1.574541	-0.271202	0.567686
O20	O	2.074541	0.228798	1.067686
O21	O	1.446045	-0.441624	0.269873
O22	O	1.946045	0.058376	0.769873
O23	O	1.276677	-0.441548	0.439273
O24	O	1.776677	0.058452	0.939273
O25	O	1.446124	-0.570501	0.737036
O26	O	1.946124	-0.070501	1.237036
O27	O	1.276668	-0.570551	0.567611
O28	O	1.776668	-0.070551	1.067611
O29	O	1.574528	-0.441461	0.737069
O30	O	2.074528	0.058539	1.237069
O31	O	1.574350	-0.740943	0.439243
O32	O	2.074350	-0.240943	0.939243
O33	O	1.446023	-0.740885	0.567594
O34	O	1.946023	-0.240885	1.067594
C35	C	1.238755	-0.506047	0.503440
C36	C	1.738755	-0.006047	1.003440
C37	C	1.122602	-0.506064	0.503456
C38	C	1.622602	-0.006064	1.003456
C39	C	1.070840	-0.569998	0.566864
C40	C	1.570840	-0.069998	1.066864
C41	C	0.950790	-0.570017	0.566882
C42	C	1.450790	-0.070017	1.066882
C43	C	1.510202	-0.779035	0.503434
C44	C	2.010202	-0.279035	1.003434
C45	C	1.510271	-0.895812	0.503458
C46	C	2.010271	-0.395812	1.003458
C47	C	1.643999	-0.895818	0.369906
C48	C	2.143999	-0.395818	0.869906
C49	C	1.710890	-0.950682	0.303143
C50	C	2.210890	-0.450682	0.803143
C51	C	1.710951	-1.060404	0.303171
C52	C	2.210951	-0.560404	0.803171
C53	C	1.644116	-1.115264	0.369973
C54	C	2.144116	-0.615264	0.869973
C55	C	1.577225	-1.060400	0.436736
C56	C	2.077225	-0.560400	0.936736
C57	C	1.577169	-0.950676	0.436698
C58	C	2.077169	-0.450676	0.936698
C59	C	1.443504	-1.060393	0.570292
C60	C	1.943504	-0.560393	1.070292
C61	C	1.443436	-0.950672	0.570260
C62	C	1.943436	-0.450672	1.070260
C63	C	1.376670	-1.115253	0.637094
C64	C	1.876670	-0.615253	1.137094
C65	C	1.309772	-1.060389	0.703854
C66	C	1.809772	-0.560389	1.203854
C67	C	1.309712	-0.950661	0.703822
C68	C	1.809712	-0.450661	1.203822
C69	C	1.376545	-0.895808	0.637024
C70	C	1.876545	-0.395808	1.137024
C71	C	1.782835	-0.506089	0.503480
C72	C	2.282835	-0.006089	1.003480
C73	C	1.898988	-0.506098	0.503489
C74	C	2.398988	-0.006098	1.003489
C75	C	1.510336	-0.505967	0.776030
C76	C	2.010336	-0.005967	1.276030
C77	C	1.510366	-0.505924	0.892183
C78	C	2.010366	-0.005924	1.392183
C79	C	1.510356	-0.232034	0.503508
C80	C	2.010356	0.267966	1.003508
C81	C	1.510395	-0.115257	0.503528
C82	C	2.010395	0.384743	1.003528
C83	C	1.510254	-0.506092	0.231950
C84	C	2.010254	-0.006092	0.731950
C85	C	1.510426	-0.505839	0.115797
C86	C	2.010426	-0.005839	0.615797
C87	C	1.573912	-0.442058	0.943984
C88	C	2.073912	0.057942	1.443984
C89	C	1.573944	-0.442012	1.064034
C90	C	2.073944	0.057988	1.564034
H91	H	1.115402	-0.624717	0.621140
H92	H	1.615402	-0.124717	1.121140
H93	H	1.628351	-0.387338	1.108582
H94	H	2.128351	0.112662	1.608582
H95	H	0.906276	-0.624756	0.621165
H96	H	1.406276	-0.124756	1.121165
H97	H	0.943496	-0.451362	0.449197
H98	H	1.443496	0.048638	0.949197
H99	H	1.765425	-1.105074	0.248811
H100	H	2.265425	-0.605074	0.748811
H101	H	1.643942	-0.806477	0.369863
H102	H	2.143942	-0.306477	0.869863
H103	H	1.078041	-0.451337	0.449188
H104	H	1.578041	0.048663	0.949188
H105	H	1.456024	-0.560524	1.071256
H106	H	1.956024	-0.060524	1.571256
O107	O	1.376463	-0.777465	0.636996
O108	O	1.876463	-0.277465	1.136996
H109	H	1.455252	-0.748443	0.658177
H110	H	1.955252	-0.248443	1.158177
H111	H	1.255365	-1.105065	0.758243
H112	H	1.755365	-0.605065	1.258243
O113	O	1.782980	-0.891519	0.231095
O114	O	2.282980	-0.391519	0.731095
H115	H	1.864995	-0.912501	0.249104
H116	H	2.364995	-0.412501	0.749104
H117	H	1.628287	-0.387411	0.899456
H118	H	2.128287	0.112589	1.399456
O119	O	1.644177	-1.233607	0.370007
O120	O	2.144177	-0.733607	0.870007
H121	H	1.701915	-1.262540	0.312357
H122	H	2.201915	-0.762540	0.812357
H123	H	1.376729	-1.204595	0.637117
H124	H	1.876729	-0.704595	1.137117
O125	O	1.438322	-0.578305	0.951151
O126	O	1.938322	-0.078305	1.451151
H127	H	1.485130	-0.631704	1.000871
H128	H	1.985130	-0.131704	1.500871
O129	O	1.237554	-0.891486	0.775821
O130	O	1.737554	-0.391486	1.275821
H131	H	1.191087	-0.948070	0.822263
H132	H	1.691087	-0.448070	1.322263
