data_functionalizedCrystal
_audit_creation_method	'MofGen! by Chris Wilmer'
_symmetry_space_group_name_H-M	'P1'
_symmetry_Int_Tables_number	1
_symmetry_cell_setting	triclinic
loop_
_symmetry_equiv_pos_as_xyz
  x,y,z
_cell_length_a	17.639054
_cell_length_b	17.637651
_cell_length_c	17.639252
_cell_angle_alpha	109.652606
_cell_angle_beta	109.662713
_cell_angle_gamma	109.615240
loop_
_atom_site_label
_atom_site_type_symbol
_atom_site_fract_x
_atom_site_fract_y
_atom_site_fract_z
Zn1	Zn	1.383795	0.116340	0.750850
Zn2	Zn	1.309094	-0.068262	0.566171
Zn3	Zn	1.199214	0.041744	0.566186
Zn4	Zn	1.199158	-0.068230	0.676047
O5	O	1.272815	0.005398	0.639814
O6	O	1.497143	0.123058	0.757651
O7	O	1.263279	-0.084902	0.442907
O8	O	1.254985	0.174920	0.621994
O9	O	1.442260	-0.012569	0.621968
O10	O	1.390596	0.229726	0.757666
O11	O	1.182550	-0.004081	0.442918
O12	O	1.075949	-0.004050	0.549461
O13	O	1.254890	-0.012514	0.809236
O14	O	1.075908	-0.084847	0.630175
O15	O	1.390542	0.123089	0.864193
O16	O	1.263224	-0.191539	0.549434
O17	O	1.182455	-0.191516	0.630160
C18	C	1.043970	-0.052541	0.581702
C19	C	0.946069	-0.077343	0.556858
C20	C	1.214756	-0.223482	0.581704
C21	C	1.190007	-0.321370	0.556894
C22	C	0.779509	-0.182843	0.451139
C23	C	0.871505	-0.159529	0.474493
C24	C	0.928659	-0.018440	0.615905
C25	C	0.836666	-0.041745	0.592565
C26	C	0.762097	-0.123947	0.510181
C27	C	0.819254	0.017151	0.651607
C28	C	0.727268	-0.006149	0.628267
C29	C	0.652695	-0.088346	0.545885
C30	C	0.670111	-0.147247	0.486841
C31	C	0.893824	0.099356	0.733987
C32	C	0.876412	0.158253	0.793029
C33	C	0.784426	0.134949	0.769693
C34	C	0.709852	0.052753	0.687311
C35	C	0.767009	0.193851	0.828737
C36	C	0.675024	0.170550	0.805397
C37	C	0.617867	0.029452	0.663971
C38	C	1.461479	-0.500329	0.828713
C39	C	1.438191	-0.592320	0.805378
C40	C	1.297026	-0.649505	0.664014
C41	C	1.320304	-0.557517	0.687335
C42	C	1.402531	-0.482935	0.769686
C43	C	1.261357	-0.540123	0.628307
C44	C	1.284632	-0.448142	0.651629
C45	C	1.366854	-0.373556	0.733978
C46	C	1.425806	-0.390954	0.793008
C47	C	1.179127	-0.614707	0.545959
C48	C	1.120180	-0.597313	0.486932
C49	C	1.143458	-0.505331	0.510250
C50	C	1.225679	-0.430744	0.592599
C51	C	1.084505	-0.487933	0.451220
C52	C	1.107780	-0.395952	0.474542
C53	C	1.248954	-0.338764	0.615921
C54	C	1.502554	0.063562	0.698152
C55	C	1.600455	0.088348	0.723012
C56	C	1.331042	0.063612	0.869569
C57	C	1.355855	0.088420	0.967478
C58	C	1.331129	0.235182	0.698176
C59	C	1.355979	0.333103	0.723046
C60	C	1.084359	-0.182997	1.146425
C61	C	1.107697	-0.159671	1.238432
C62	C	1.248939	-0.018480	1.295644
C63	C	1.225612	-0.041792	1.203640
C64	C	1.143321	-0.124052	1.129036
C65	C	1.284574	0.017153	1.186252
C66	C	1.261250	-0.006160	1.094255
C67	C	1.178965	-0.088418	1.019647
C68	C	1.119998	-0.147365	1.037040
C69	C	1.366867	0.099410	1.260856
C70	C	1.425829	0.158355	1.243468
C71	C	1.402502	0.135046	1.151470
C72	C	1.320217	0.052788	1.076862
C73	C	1.461469	0.193993	1.134078
C74	C	1.438146	0.170680	1.042081
C75	C	1.296894	0.029475	0.984866
C76	C	1.214798	-0.052614	1.410943
C77	C	1.189971	-0.077430	1.313030
H78	H	0.557147	-0.037491	0.596891
Cl79	Cl	1.529277	0.261763	1.337261
Cl80	Cl	1.564923	0.297395	1.227873
Cl81	Cl	1.512310	-0.614181	0.879590
H82	H	0.577796	-0.107305	0.526873
Cl83	Cl	0.576360	-0.250606	0.383287
H84	H	0.718789	-0.249786	0.384060
Cl85	Cl	0.893388	-0.233590	0.400269
H86	H	1.492769	-0.330224	0.860062
H87	H	1.230075	-0.710242	0.596965
H88	H	0.989384	0.048490	0.682980
H89	H	0.968723	0.118327	0.752986
Cl90	Cl	1.033676	-0.374082	0.400334
H91	H	0.937138	0.225183	0.860105
Cl92	Cl	1.352388	0.084928	1.389437
H93	H	1.052973	-0.214334	0.976292
H94	H	1.528441	-0.439599	0.895768
H95	H	0.827736	0.260784	0.895809
Cl96	Cl	0.653131	0.244595	0.879617
H97	H	1.315916	-0.278034	0.682975
H98	H	1.385802	-0.298661	0.752965
H99	H	1.160174	-0.689602	0.526980
H100	H	1.053229	-0.658049	0.419883
Cl101	Cl	0.981129	-0.581701	0.347707
H102	H	1.385856	0.118387	1.335764
H103	H	1.229869	-0.037494	0.924118
H104	H	1.486158	0.218680	1.027925
H105	H	1.159979	-0.107400	0.944739
H106	H	1.017335	-0.249966	1.085677
H107	H	1.059677	-0.207678	1.252581
