data_functionalizedCrystal
_audit_creation_method	'MofGen! by Chris Wilmer'
_symmetry_space_group_name_H-M	'P1'
_symmetry_Int_Tables_number	1
_symmetry_cell_setting	triclinic
loop_
_symmetry_equiv_pos_as_xyz
  x,y,z
_cell_length_a	16.625548
_cell_length_b	18.050589
_cell_length_c	16.625539
_cell_angle_alpha	89.975176
_cell_angle_beta	89.979432
_cell_angle_gamma	90.029289
loop_
_atom_site_label
_atom_site_type_symbol
_atom_site_fract_x
_atom_site_fract_y
_atom_site_fract_z
Zn1	Zn	1.232648	-0.295637	-0.455929
Zn2	Zn	1.482648	-0.045637	-0.205929
Zn3	Zn	1.732648	0.204363	0.044071
Zn4	Zn	1.982648	0.454363	0.294071
Zn5	Zn	1.232538	-0.419835	-0.321104
Zn6	Zn	1.482538	-0.169835	-0.071104
Zn7	Zn	1.732538	0.080165	0.178896
Zn8	Zn	1.982538	0.330165	0.428896
Zn9	Zn	1.097810	-0.295665	-0.321109
Zn10	Zn	1.347810	-0.045665	-0.071109
Zn11	Zn	1.597810	0.204335	0.178891
Zn12	Zn	1.847810	0.454335	0.428891
Zn13	Zn	1.097767	-0.419792	-0.455894
Zn14	Zn	1.347767	-0.169792	-0.205894
Zn15	Zn	1.597767	0.080208	0.044106
Zn16	Zn	1.847767	0.330208	0.294106
O17	O	1.165191	-0.357732	-0.388509
O18	O	1.415191	-0.107732	-0.138509
O19	O	1.665191	0.142268	0.111491
O20	O	1.915191	0.392268	0.361491
O21	O	1.345466	-0.312118	-0.438056
O22	O	1.595466	-0.062118	-0.188056
O23	O	1.845466	0.187882	0.061944
O24	O	2.095466	0.437882	0.311944
O25	O	1.214638	-0.403393	-0.208272
O26	O	1.464638	-0.153393	0.041728
O27	O	1.714638	0.096607	0.291728
O28	O	1.964638	0.346607	0.541728
O29	O	1.115761	-0.191737	-0.339010
O30	O	1.365761	0.058263	-0.089010
O31	O	1.615761	0.308263	0.160990
O32	O	1.865761	0.558263	0.410990
O33	O	1.345385	-0.403366	-0.339001
O34	O	1.595385	-0.153366	-0.089001
O35	O	1.845385	0.096634	0.160999
O36	O	2.095385	0.346634	0.410999
O37	O	1.214826	-0.191716	-0.438061
O38	O	1.464826	0.058284	-0.188061
O39	O	1.714826	0.308284	0.061939
O40	O	1.964826	0.558284	0.311939
O41	O	1.115654	-0.312166	-0.208276
O42	O	1.365654	-0.062166	0.041724
O43	O	1.615654	0.187834	0.291724
O44	O	1.865654	0.437834	0.541724
O45	O	0.984972	-0.312125	-0.338976
O46	O	1.234972	-0.062125	-0.088976
O47	O	1.484972	0.187875	0.161024
O48	O	1.734972	0.437875	0.411024
O49	O	1.115687	-0.403293	-0.568731
O50	O	1.365687	-0.153293	-0.318731
O51	O	1.615687	0.096707	-0.068731
O52	O	1.865687	0.346707	0.181269
O53	O	0.984940	-0.403320	-0.438002
O54	O	1.234940	-0.153320	-0.188002
O55	O	1.484940	0.096680	0.061998
O56	O	1.734940	0.346680	0.311998
O57	O	1.214784	-0.312077	-0.568757
O58	O	1.464784	-0.062077	-0.318757
O59	O	1.714784	0.187923	-0.068757
O60	O	1.964784	0.437923	0.181243
O61	O	1.214596	-0.523754	-0.338968
O62	O	1.464596	-0.273754	-0.088968
O63	O	1.714596	-0.023754	0.161032
O64	O	1.964596	0.226246	0.411032
O65	O	1.115580	-0.523722	-0.437997
O66	O	1.365580	-0.273722	-0.187997
O67	O	1.615580	-0.023722	0.062003
O68	O	1.865580	0.226278	0.312003
C69	C	0.955700	-0.357722	-0.388487
C70	C	1.205700	-0.107722	-0.138487
C71	C	1.455700	0.142278	0.111513
C72	C	1.705700	0.392278	0.361513
C73	C	0.866079	-0.357735	-0.388496
C74	C	1.116079	-0.107735	-0.138496
C75	C	1.366079	0.142265	0.111504
C76	C	1.616079	0.392265	0.361504
C77	C	0.537903	-0.357740	-0.388531
C78	C	0.787903	-0.107740	-0.138531
C79	C	1.037903	0.142260	0.111469
C80	C	1.287903	0.392260	0.361469
C81	C	0.629212	-0.357736	-0.388518
C82	C	0.879212	-0.107736	-0.138518
C83	C	1.129212	0.142264	0.111482
C84	C	1.379212	0.392264	0.361482
C85	C	0.701988	-0.357738	-0.388513
C86	C	0.951988	-0.107738	-0.138513
C87	C	1.201988	0.142262	0.111487
C88	C	1.451988	0.392262	0.361487
C89	C	0.793302	-0.357734	-0.388502
C90	C	1.043302	-0.107734	-0.138502
C91	C	1.293302	0.142266	0.111498
C92	C	1.543302	0.392266	0.361498
C93	C	1.165093	-0.550684	-0.388496
C94	C	1.415093	-0.300684	-0.138496
C95	C	1.665093	-0.050684	0.111504
C96	C	1.915093	0.199316	0.361504
C97	C	1.165126	-0.633230	-0.388517
C98	C	1.415126	-0.383230	-0.138517
C99	C	1.665126	-0.133230	0.111483
C100	C	1.915126	0.116770	0.361483
C101	C	1.111334	-0.832691	-0.442350
C102	C	1.361334	-0.582691	-0.192350
C103	C	1.611334	-0.332691	0.057650
C104	C	1.861334	-0.082691	0.307650
C105	C	1.091677	-0.882133	-0.368775
C106	C	1.341677	-0.632133	-0.118775
C107	C	1.591677	-0.382133	0.131225
C108	C	1.841677	-0.132133	0.381225
C109	C	1.165205	-0.784360	-0.388528
C110	C	1.415205	-0.534360	-0.138528
C111	C	1.665205	-0.284360	0.111472
C112	C	1.915205	-0.034360	0.361472
C113	C	1.184901	-0.882000	-0.462112
C114	C	1.434901	-0.632000	-0.212112
C115	C	1.684901	-0.382000	0.037888
C116	C	1.934901	-0.132000	0.287888
C117	C	1.165280	-0.930346	-0.388544
C118	C	1.415280	-0.680346	-0.138544
C119	C	1.665280	-0.430346	0.111456
C120	C	1.915280	-0.180346	0.361456
C121	C	1.145510	-0.832715	-0.314913
C122	C	1.395510	-0.582715	-0.064913
C123	C	1.645510	-0.332715	0.185087
C124	C	1.895510	-0.082715	0.435087
C125	C	1.238767	-0.832578	-0.408300
C126	C	1.488767	-0.582578	-0.158300
C127	C	1.738767	-0.332578	0.091700
C128	C	1.988767	-0.082578	0.341700
C129	C	1.219139	-0.881998	-0.334673
C130	C	1.469139	-0.631998	-0.084673
C131	C	1.719139	-0.381998	0.165327
C132	C	1.969139	-0.131998	0.415327
C133	C	1.165160	-0.700262	-0.388519
C134	C	1.415160	-0.450262	-0.138519
C135	C	1.665160	-0.200262	0.111481
C136	C	1.915160	0.049738	0.361481
C137	C	1.165325	-1.014442	-0.388544
C138	C	1.415325	-0.764442	-0.138544
C139	C	1.665325	-0.514442	0.111456
C140	C	1.915325	-0.264442	0.361456
C141	C	1.375500	-0.357743	-0.388532
C142	C	1.625500	-0.107743	-0.138532
C143	C	1.875500	0.142257	0.111468
C144	C	2.125500	0.392257	0.361468
C145	C	1.465121	-0.357748	-0.388542
C146	C	1.715121	-0.107748	-0.138542
C147	C	1.965121	0.142252	0.111458
C148	C	2.215121	0.392252	0.361458
C149	C	1.165243	-0.357677	-0.598818
C150	C	1.415243	-0.107677	-0.348818
C151	C	1.665243	0.142323	-0.098818
C152	C	1.915243	0.392323	0.151182
C153	C	1.165266	-0.357653	-0.688439
C154	C	1.415266	-0.107653	-0.438439
C155	C	1.665266	0.142347	-0.188439
C156	C	1.915266	0.392347	0.061561
C157	C	1.165310	-0.164027	-0.388540
C158	C	1.415310	0.085973	-0.138540
C159	C	1.665310	0.335973	0.111460
C160	C	1.915310	0.585973	0.361460
C161	C	1.165361	-0.081481	-0.388553
C162	C	1.415361	0.168519	-0.138553
C163	C	1.665361	0.418519	0.111447
C164	C	1.915361	0.668519	0.361447
C165	C	1.165303	-0.357570	-1.016615
C166	C	1.415303	-0.107570	-0.766615
C167	C	1.665303	0.142430	-0.516615
C168	C	1.915303	0.392430	-0.266615
C169	C	1.165290	-0.357596	-0.925307
C170	C	1.415290	-0.107596	-0.675307
C171	C	1.665290	0.142404	-0.425307
C172	C	1.915290	0.392404	-0.175307
C173	C	1.165285	-0.357612	-0.852530
C174	C	1.415285	-0.107612	-0.602530
C175	C	1.665285	0.142388	-0.352530
C176	C	1.915285	0.392388	-0.102530
C177	C	1.165271	-0.357637	-0.761216
C178	C	1.415271	-0.107637	-0.511216
C179	C	1.665271	0.142363	-0.261216
C180	C	1.915271	0.392363	-0.011216
C181	C	1.165185	-0.357734	-0.179018
C182	C	1.415185	-0.107734	0.070982
C183	C	1.665185	0.142266	0.320982
C184	C	1.915185	0.392266	0.570982
C185	C	1.165319	-0.357548	-0.089398
C186	C	1.415319	-0.107548	0.160602
C187	C	1.665319	0.142452	0.410602
C188	C	1.915319	0.392452	0.660602
H189	H	1.065710	-0.811040	-0.487802
H190	H	1.315710	-0.561040	-0.237802
H191	H	1.565710	-0.311040	0.012198
H192	H	1.815710	-0.061040	0.262198
H193	H	1.264728	-0.903512	-0.289111
H194	H	1.514728	-0.653512	-0.039111
H195	H	1.764728	-0.403512	0.210889
H196	H	2.014728	-0.153512	0.460889
Cl197	Cl	0.995681	-0.915737	-0.342956
Cl198	Cl	1.245681	-0.665737	-0.092956
Cl199	Cl	1.495681	-0.415737	0.157044
Cl200	Cl	1.745681	-0.165737	0.407044
H201	H	1.128809	-0.811156	-0.252673
H202	H	1.378809	-0.561156	-0.002673
H203	H	1.628809	-0.311156	0.247327
H204	H	1.878809	-0.061156	0.497327
H205	H	1.300928	-0.810797	-0.425043
H206	H	1.550928	-0.560797	-0.175043
H207	H	1.800928	-0.310797	0.074957
H208	H	2.050928	-0.060797	0.324957
H209	H	1.201530	-0.903649	-0.524335
H210	H	1.451530	-0.653649	-0.274335
H211	H	1.701530	-0.403649	-0.024335
H212	H	1.951530	-0.153649	0.225665
