data_functionalizedCrystal
_audit_creation_method	'MofGen! by Chris Wilmer'
_symmetry_space_group_name_H-M	'P1'
_symmetry_Int_Tables_number	1
_symmetry_cell_setting	triclinic
loop_
_symmetry_equiv_pos_as_xyz
  x,y,z
_cell_length_a	27.732048
_cell_length_b	17.038272
_cell_length_c	15.500227
_cell_angle_alpha	86.966746
_cell_angle_beta	87.176649
_cell_angle_gamma	93.122895
loop_
_atom_site_label
_atom_site_type_symbol
_atom_site_fract_x
_atom_site_fract_y
_atom_site_fract_z
O1	O	0.647280	-0.089326	-0.071995
O2	O	0.507133	-0.103465	-0.071986
O3	O	0.576373	0.017410	-0.071983
O4	O	0.578040	-0.210201	-0.071997
O5	O	0.572170	0.010103	0.071905
O6	O	0.502930	-0.110771	0.071903
O7	O	0.643077	-0.096633	0.071894
Cu8	Cu	0.572620	-0.104369	0.085037
Cu9	Cu	0.577590	-0.095728	-0.085128
O10	O	0.573837	-0.217507	0.071892
C11	C	0.572757	0.042867	-0.000039
C12	C	0.568236	0.129607	-0.000039
C13	C	0.487011	-0.106821	-0.000040
C14	C	0.433315	-0.105928	-0.000037
C15	C	0.663199	-0.093276	-0.000053
C16	C	0.716895	-0.094169	-0.000063
C17	C	1.052699	-0.028368	-0.000029
C18	C	1.254511	-0.031684	-0.000026
O19	O	1.283013	0.028486	0.000015
N20	N	1.276913	-0.103357	-0.000033
C21	C	1.248859	-0.174207	-0.000035
O22	O	1.272544	-0.235246	-0.000032
C23	C	1.047049	-0.170891	-0.000031
C24	C	1.024649	-0.099212	-0.000033
C25	C	1.030300	0.043305	-0.000030
C26	C	0.979850	0.044133	-0.000035
C27	C	0.951800	-0.026711	-0.000040
C28	C	0.974200	-0.098384	-0.000039
C29	C	1.018996	-0.241740	-0.000027
C30	C	0.968540	-0.240904	-0.000024
C31	C	0.946141	-0.169226	-0.000026
C32	C	0.895700	-0.168399	-0.000048
N33	N	0.873298	-0.096726	-0.000042
C34	C	0.901348	-0.025882	-0.000037
C35	C	1.354813	-0.175943	-0.000039
C36	C	1.405265	-0.176772	-0.000041
C37	C	1.410913	-0.034249	-0.000031
C38	C	1.360460	-0.033420	-0.000034
C39	C	1.332410	-0.104270	-0.000032
C40	C	0.795399	-0.024147	-0.000049
C41	C	0.744945	-0.023325	-0.000058
C42	C	0.739302	-0.165848	-0.000064
C43	C	0.789752	-0.166671	-0.000060
C44	C	0.817799	-0.095814	-0.000049
O45	O	0.867168	-0.228538	-0.000080
O46	O	0.877653	0.035147	-0.000021
C47	C	1.103149	-0.029196	-0.000024
C48	C	1.125549	-0.100869	-0.000023
C49	C	1.097499	-0.171713	-0.000027
C50	C	1.176001	-0.101698	-0.000025
C51	C	1.204051	-0.030854	-0.000021
C52	C	1.181649	0.040819	-0.000014
C53	C	1.131199	0.041648	-0.000019
C54	C	1.119901	-0.243387	-0.000034
C55	C	1.170351	-0.244209	-0.000030
C56	C	1.198401	-0.173365	-0.000025
C57	C	0.577453	-0.242965	-0.000055
C58	C	0.581974	-0.329705	-0.000060
N59	N	0.569127	-0.110446	0.204721
C60	C	0.609739	0.180205	-0.000041
C61	C	0.605489	0.261707	-0.000049
C62	C	0.559736	0.292608	-0.000049
C63	C	0.518230	0.242004	-0.000049
C64	C	0.522480	0.160504	-0.000048
C65	C	0.544719	0.538192	-0.000059
C66	C	0.540471	0.619697	-0.000059
C67	C	0.627731	0.639395	-0.000059
C68	C	0.631978	0.557893	-0.000052
C69	C	0.590472	0.507296	-0.000058
C70	C	0.555390	0.375915	-0.000054
C71	C	0.594818	0.423990	-0.000059
N72	N	0.581086	-0.089645	-0.204813
C73	C	0.598479	-0.059246	0.249999
C74	C	0.595842	-0.063849	0.340572
C75	C	0.563857	-0.119656	0.385865
C76	C	0.534502	-0.170859	0.340581
C77	C	0.537137	-0.166252	0.250010
C78	C	0.554366	-0.136241	0.659332
C79	C	0.551735	-0.140846	0.749909
C80	C	0.613075	-0.033834	0.749894
C81	C	0.615708	-0.029235	0.659321
C82	C	0.586352	-0.080435	0.614045
C83	C	0.561162	-0.124364	0.478445
C84	C	0.589044	-0.075722	0.521466
H85	H	0.726710	0.035047	-0.000062
Cl86	Cl	0.830652	0.064931	-0.000039
Cl87	Cl	0.494289	-0.241014	0.397520
H88	H	0.480976	0.267170	-0.000055
H89	H	0.646996	0.155052	-0.000035
Cl90	Cl	0.482948	0.658543	-0.000054
H91	H	0.510922	0.497005	-0.000064
Cl92	Cl	0.638694	0.010913	0.193068
H93	H	0.488684	0.119307	-0.000046
Cl94	Cl	0.933281	-0.329979	-0.000017
Cl95	Cl	0.817912	-0.256781	-0.000068
Cl96	Cl	0.520953	-0.194523	0.535389
H97	H	0.961617	0.102501	-0.000033
Cl98	Cl	0.679906	0.703006	-0.000055
H99	H	1.433760	0.023435	-0.000030
H100	H	0.632071	0.398828	-0.000078
H101	H	0.525687	-0.186294	0.786783
H102	H	0.513235	-0.207943	0.213146
H103	H	0.619742	-0.022157	0.377437
Cl104	Cl	1.216921	0.129880	-0.000011
Cl105	Cl	0.657667	0.325313	-0.000048
H106	H	1.053133	0.100998	-0.000023
Cl107	Cl	0.497873	0.414770	-0.000059
H108	H	0.641753	0.016208	0.622445
H109	H	0.530464	-0.177931	0.622475
Cl110	Cl	0.649976	0.030530	0.806816
Cl111	Cl	0.629252	-0.005564	0.464526
H112	H	1.342226	0.024947	-0.000035
H113	H	1.423499	-0.235139	-0.000052
H114	H	1.037224	-0.300108	-0.000029
Cl115	Cl	1.103048	0.131763	-0.000025
Cl116	Cl	1.319557	-0.265020	-0.000043
H117	H	0.669235	0.532739	-0.000052
H118	H	0.716454	-0.223527	-0.000072
H119	H	1.188584	-0.302582	-0.000034
H120	H	1.097068	-0.301078	-0.000036
