data_functionalizedCrystal
_audit_creation_method	'MofGen! by Chris Wilmer'
_symmetry_space_group_name_H-M	'P1'
_symmetry_Int_Tables_number	1
_symmetry_cell_setting	triclinic
loop_
_symmetry_equiv_pos_as_xyz
  x,y,z
_cell_length_a	21.295418
_cell_length_b	25.639239
_cell_length_c	21.295411
_cell_angle_alpha	90.019526
_cell_angle_beta	90.043738
_cell_angle_gamma	90.054499
loop_
_atom_site_label
_atom_site_type_symbol
_atom_site_fract_x
_atom_site_fract_y
_atom_site_fract_z
Zn1	Zn	0.962320	-0.207990	0.356243
Zn2	Zn	1.462320	0.292010	0.856243
Zn3	Zn	0.962207	-0.295410	0.250972
Zn4	Zn	1.462207	0.204590	0.750972
Zn5	Zn	0.857043	-0.208014	0.250953
Zn6	Zn	1.357043	0.291986	0.750953
Zn7	Zn	0.856998	-0.295420	0.356169
Zn8	Zn	1.356998	0.204580	0.856169
O9	O	0.909642	-0.251708	0.303584
O10	O	1.409642	0.248292	0.803584
O11	O	1.050395	-0.219572	0.342318
O12	O	1.550395	0.280428	0.842318
O13	O	0.948229	-0.283822	0.162880
O14	O	1.448229	0.216178	0.662880
O15	O	0.871075	-0.134846	0.264943
O16	O	1.371075	0.365154	0.764943
O17	O	1.050312	-0.283799	0.264976
O18	O	1.550312	0.216201	0.764976
O19	O	0.948421	-0.134828	0.342299
O20	O	1.448421	0.365172	0.842299
O21	O	0.870965	-0.219613	0.162866
O22	O	1.370965	0.280387	0.662866
O23	O	0.768948	-0.219623	0.264871
O24	O	1.268948	0.280377	0.764871
O25	O	0.870997	-0.283816	0.444268
O26	O	1.370997	0.216184	0.944268
O27	O	0.768914	-0.283840	0.342172
O28	O	1.268914	0.216160	0.842172
O29	O	0.948377	-0.219582	0.444322
O30	O	1.448377	0.280418	0.944322
O31	O	0.948185	-0.368576	0.264904
O32	O	1.448185	0.131424	0.764904
O33	O	0.870888	-0.368584	0.342191
O34	O	1.370888	0.131416	0.842191
C35	C	0.746090	-0.251736	0.303512
C36	C	1.246090	0.248264	0.803512
C37	C	0.676122	-0.251760	0.303496
C38	C	1.176122	0.248240	0.803496
C39	C	0.643255	-0.285242	0.343686
C40	C	1.143255	0.214758	0.843686
C41	C	0.577512	-0.285229	0.343715
C42	C	1.077512	0.214771	0.843715
C43	C	0.544640	-0.251740	0.303541
C44	C	1.044640	0.248260	0.803541
C45	C	0.577515	-0.218252	0.263347
C46	C	1.077515	0.281748	0.763347
C47	C	0.643257	-0.218262	0.263325
C48	C	1.143257	0.281738	0.763325
N49	N	0.441365	-0.247648	0.248483
N50	N	0.941365	0.252352	0.748483
N51	N	0.378913	-0.247641	0.248506
N52	N	0.878913	0.252359	0.748506
C53	C	0.346565	-0.251707	0.303608
C54	C	0.846565	0.248293	0.803608
N55	N	0.379028	-0.255789	0.358686
N56	N	0.879028	0.244211	0.858686
N57	N	0.441485	-0.255799	0.358662
N58	N	0.941485	0.244201	0.858662
C59	C	0.473354	-0.251725	0.303561
C60	C	0.973354	0.248275	0.803561
C61	C	0.242412	-0.285176	0.343832
C62	C	0.742412	0.214824	0.843832
C63	C	0.176668	-0.285160	0.343862
C64	C	0.676668	0.214840	0.843862
C65	C	0.176673	-0.218185	0.263489
C66	C	0.676673	0.281815	0.763489
C67	C	0.242415	-0.218199	0.263465
C68	C	0.742415	0.281801	0.763465
C69	C	0.275281	-0.251697	0.303636
C70	C	0.775281	0.248303	0.803636
C71	C	0.909536	-0.387551	0.303555
C72	C	1.409536	0.112449	0.803555
C73	C	0.909548	-0.445665	0.303564
C74	C	1.409548	0.054335	0.803564
C75	C	0.949996	-0.806011	0.263409
C76	C	1.449996	-0.306011	0.763409
C77	C	0.950020	-0.860616	0.263418
C78	C	1.450020	-0.360616	0.763418
O79	O	0.984300	-0.888838	0.229245
O80	O	1.484300	-0.388838	0.729245
N81	N	0.909753	-0.887947	0.303626
N82	N	1.409753	-0.387947	0.803626
C83	C	0.869463	-0.860672	0.343833
C84	C	1.369463	-0.360672	0.843833
O85	O	0.835215	-0.888934	0.378034
O86	O	1.335215	-0.388934	0.878034
C87	C	0.869442	-0.806069	0.343827
C88	C	1.369442	-0.306069	0.843827
C89	C	0.909708	-0.778740	0.303612
C90	C	1.409708	-0.278740	0.803612
C91	C	0.990259	-0.778683	0.223198
C92	C	1.490259	-0.278683	0.723198
C93	C	0.990233	-0.724082	0.223188
C94	C	1.490233	-0.224082	0.723188
C95	C	0.949945	-0.696810	0.263391
C96	C	1.449945	-0.196810	0.763391
C97	C	0.909682	-0.724139	0.303603
C98	C	1.409682	-0.224139	0.803603
C99	C	0.829156	-0.778794	0.384037
C100	C	1.329156	-0.278794	0.884037
C101	C	0.829139	-0.724187	0.384028
C102	C	1.329139	-0.224187	0.884028
C103	C	0.869404	-0.696858	0.343812
C104	C	1.369404	-0.196858	0.843812
C105	C	0.869369	-0.642267	0.343796
C106	C	1.369369	-0.142267	0.843796
N107	N	0.909636	-0.614935	0.303588
N108	N	1.409636	-0.114935	0.803588
C109	C	0.949924	-0.642207	0.263385
C110	C	1.449924	-0.142207	0.763385
C111	C	0.869510	-0.975343	0.343842
C112	C	1.369510	-0.475343	0.843842
C113	C	0.869527	-1.029945	0.343845
C114	C	1.369527	-0.529945	0.843845
C115	C	0.950086	-1.029885	0.263431
C116	C	1.450086	-0.529885	0.763431
C117	C	0.950065	-0.975282	0.263425
C118	C	1.450065	-0.475282	0.763425
C119	C	0.909778	-0.948011	0.303634
C120	C	1.409778	-0.448011	0.803634
C121	C	0.949868	-0.527542	0.263369
C122	C	1.449868	-0.027542	0.763369
C123	C	0.949837	-0.472937	0.263361
C124	C	1.449837	0.027063	0.763361
C125	C	0.869281	-0.473001	0.343778
C126	C	1.369281	0.026999	0.843778
C127	C	0.869309	-0.527602	0.343783
C128	C	1.369309	-0.027602	0.843783
C129	C	0.909607	-0.554871	0.303577
C130	C	1.409607	-0.054871	0.803577
O131	O	0.835108	-0.614010	0.377953
O132	O	1.335108	-0.114010	0.877953
O133	O	0.984172	-0.613939	0.229195
O134	O	1.484172	-0.113939	0.729195
C135	C	1.073832	-0.251681	0.303657
C136	C	1.573832	0.248319	0.803657
C137	C	1.143801	-0.251670	0.303688
C138	C	1.643801	0.248330	0.803688
C139	C	0.909694	-0.251697	0.467774
C140	C	1.409694	0.248303	0.967774
C141	C	0.909717	-0.251693	0.537743
C142	C	1.409717	0.248307	1.037743
C143	C	0.909766	-0.115335	0.303627
C144	C	1.409766	0.384665	0.803627
C145	C	0.909818	-0.057221	0.303645
C146	C	1.409818	0.442779	0.803645
C147	C	0.909626	-0.251682	0.140032
C148	C	1.409626	0.248318	0.640032
C149	C	0.909726	-0.251539	0.070065
C150	C	1.409726	0.248461	0.570065
C151	C	0.950007	-0.218244	0.570639
C152	C	1.450007	0.281756	1.070639
C153	C	0.950006	-0.218221	0.636381
C154	C	1.450006	0.281779	1.136381
C155	C	0.909721	-0.251657	0.669225
C156	C	1.409721	0.248343	1.169225
C157	C	0.869424	-0.285108	0.636321
C158	C	1.369424	0.214892	1.136321
C159	C	0.869421	-0.285126	0.570580
C160	C	1.369421	0.214874	1.070580
N161	N	0.904857	-0.297396	0.772441
N162	N	1.404857	0.202604	1.272441
N163	N	0.904863	-0.297377	0.834892
N164	N	1.404863	0.202623	1.334892
C165	C	0.909725	-0.251604	0.867300
C166	C	1.409725	0.248396	1.367300
N167	N	0.914594	-0.205848	0.834897
N168	N	1.414594	0.294152	1.334897
N169	N	0.914591	-0.205867	0.772440
N170	N	1.414591	0.294133	1.272440
C171	C	0.909719	-0.251641	0.740511
C172	C	1.409719	0.248359	1.240511
C173	C	0.950017	-0.218128	0.971482
C174	C	1.450017	0.281872	1.471482
C175	C	0.950011	-0.218104	1.037225
C176	C	1.450011	0.281896	1.537225
C177	C	0.869433	-0.284995	1.037164
C178	C	1.369433	0.215005	1.537164
C179	C	0.869435	-0.285014	0.971422
C180	C	1.369435	0.214986	1.471422
C181	C	0.909730	-0.251581	0.938584
C182	C	1.409730	0.248419	1.438584
H183	H	0.269176	-0.190937	0.230734
H184	H	0.769176	0.309063	0.730734
H185	H	0.550747	-0.190983	0.230639
H186	H	1.050747	0.309017	0.730639
C187	C	0.784753	-0.292312	0.897429
C188	C	1.284753	0.207688	1.397429
C189	C	0.825151	-0.321786	0.935257
C190	C	1.325151	0.178214	1.435257
H191	H	0.757410	-0.315015	0.875106
H192	H	1.257410	0.184985	1.375106
H193	H	0.808747	-0.272407	0.868466
H194	H	1.308747	0.227593	1.368466
H195	H	0.760697	-0.269531	0.923065
H196	H	1.260697	0.230469	1.423065
H197	H	0.849211	-0.344564	0.909620
H198	H	1.349211	0.155436	1.409620
H199	H	0.801155	-0.341699	0.964224
H200	H	1.301155	0.158301	1.464224
H201	H	0.836477	-0.450788	0.376509
H202	H	1.336477	0.049212	0.876509
H203	H	0.982893	-1.052099	0.230698
H204	H	1.482893	-0.552099	0.730698
H205	H	0.796364	-0.801036	0.416781
H206	H	1.296364	-0.301036	0.916781
C207	C	0.749519	-0.729735	0.463524
C208	C	1.249519	-0.229735	0.963524
C209	C	0.784853	-0.694212	0.428229
C210	C	1.284853	-0.194212	0.928229
H211	H	0.722178	-0.711230	0.490808
H212	H	1.222178	-0.211230	0.990808
H213	H	0.776947	-0.750992	0.487635
H214	H	1.276947	-0.250992	0.987635
H215	H	0.725463	-0.751070	0.436064
H216	H	1.225463	-0.251070	0.936064
H217	H	0.808913	-0.672880	0.455688
H218	H	1.308913	-0.172880	0.955688
H219	H	0.757422	-0.672946	0.404116
H220	H	1.257422	-0.172946	0.904116
C221	C	0.636656	-0.152061	0.183880
C222	C	1.136656	0.347939	0.683880
C223	C	0.679389	-0.181460	0.219138
C224	C	1.179389	0.318540	0.719138
H225	H	0.658965	-0.129345	0.156598
H226	H	1.158965	0.370655	0.656598
H227	H	0.611077	-0.132090	0.211360
H228	H	1.111077	0.367910	0.711360
H229	H	0.610952	-0.174812	0.159764
H230	H	1.110952	0.325188	0.659764
H231	H	0.705090	-0.158709	0.243258
H232	H	1.205090	0.341291	0.743258
H233	H	0.704978	-0.201433	0.191655
H234	H	1.204978	0.298567	0.691655
H235	H	0.269173	-0.312450	0.376545
H236	H	0.769173	0.187550	0.876545
H237	H	0.836626	-0.312213	1.063905
H238	H	1.336626	0.187787	1.563905
C239	C	1.029654	-0.152124	0.577308
C240	C	1.529654	0.347876	1.077308
C241	C	0.994292	-0.181489	0.534545
C242	C	1.494292	0.318511	1.034545
H243	H	1.056989	-0.129430	0.555023
H244	H	1.556989	0.370570	1.055023
H245	H	1.053713	-0.174893	0.602963
H246	H	1.553713	0.325107	1.102963
H247	H	1.002239	-0.132124	0.602933
H248	H	1.502239	0.367876	1.102933
H249	H	1.021706	-0.201492	0.508923
H250	H	1.521706	0.298508	1.008923
H251	H	0.970231	-0.158717	0.508879
H252	H	1.470231	0.341283	1.008879
C253	C	0.789682	-0.522174	0.423272
C254	C	1.289682	-0.022174	0.923272
C255	C	0.825049	-0.557645	0.387988
C256	C	1.325049	-0.057645	0.887988
H257	H	0.762365	-0.540719	0.450569
H258	H	1.262365	-0.040719	0.950569
H259	H	0.765604	-0.500920	0.395811
H260	H	1.265604	-0.000920	0.895811
H261	H	0.817094	-0.500831	0.447375
H262	H	1.317094	-0.000831	0.947375
H263	H	0.797637	-0.578985	0.363882
H264	H	1.297637	-0.078985	0.863882
H265	H	0.849129	-0.578908	0.415453
H266	H	1.349129	-0.078908	0.915453
C267	C	0.958831	-0.147874	0.710327
C268	C	1.458831	0.352126	1.210327
C269	C	0.994299	-0.181455	0.672551
C270	C	1.494299	0.318545	1.172551
H271	H	0.986177	-0.125175	0.732653
H272	H	1.486177	0.374825	1.232653
H273	H	0.934840	-0.167783	0.739289
H274	H	1.434840	0.332217	1.239289
H275	H	0.931428	-0.127882	0.684656
H276	H	1.431428	0.372118	1.184656
H277	H	1.021698	-0.201450	0.698223
H278	H	1.521698	0.298550	1.198223
H279	H	1.018300	-0.161544	0.643586
H280	H	1.518300	0.338456	1.143586
C281	C	0.156377	-0.192589	0.156954
C282	C	0.656377	0.307411	0.656954
C283	C	0.140559	-0.181371	0.219320
C284	C	0.640559	0.318629	0.719320
H285	H	0.134086	-0.169857	0.129685
H286	H	0.634086	0.330143	0.629685
H287	H	0.145536	-0.227700	0.147675
H288	H	0.645536	0.272300	0.647675
H289	H	0.200238	-0.187809	0.151205
H290	H	0.700238	0.312191	0.651205
H291	H	0.096699	-0.186155	0.225070
H292	H	0.596699	0.313845	0.725070
H293	H	0.151396	-0.146251	0.228602
H294	H	0.651396	0.353749	0.728602
C295	C	0.636642	-0.351443	0.423133
C296	C	1.136642	0.148557	0.923133
C297	C	0.679380	-0.322058	0.387848
C298	C	1.179380	0.177942	0.887848
H299	H	0.658946	-0.374168	0.450399
H300	H	1.158946	0.125832	0.950399
H301	H	0.610946	-0.371404	0.395670
H302	H	1.110946	0.128596	0.895670
H303	H	0.611055	-0.328683	0.447268
H304	H	1.111055	0.171317	0.947268
H305	H	0.704963	-0.344818	0.363709
H306	H	1.204963	0.155182	0.863709
H307	H	0.705086	-0.302096	0.415314
H308	H	1.205086	0.197904	0.915314
H309	H	0.836733	-1.052191	0.376587
H310	H	1.336733	-0.552191	0.876587
C311	C	0.503656	-0.292589	0.428394
C312	C	1.003656	0.207411	0.928394
C313	C	0.541371	-0.322035	0.387893
C314	C	1.041371	0.177965	0.887893
H315	H	0.481348	-0.315311	0.455669
H316	H	0.981348	0.184689	0.955669
H317	H	0.474679	-0.272643	0.404470
H318	H	0.974679	0.227357	0.904470
H319	H	0.529367	-0.269848	0.452517
H320	H	1.029367	0.230152	0.952517
H321	H	0.515659	-0.344773	0.363767
H322	H	1.015659	0.155227	0.863767
H323	H	0.570351	-0.341990	0.411819
H324	H	1.070351	0.158010	0.911819
C325	C	0.860622	-0.355424	0.710239
C326	C	1.360622	0.144576	1.210239
C327	C	0.825144	-0.321863	0.672419
C328	C	1.325144	0.178137	1.172419
H329	H	0.833283	-0.378117	0.732520
H330	H	1.333283	0.121883	1.232520
H331	H	0.884611	-0.335499	0.739240
H332	H	1.384611	0.164501	1.239240
H333	H	0.888027	-0.375423	0.684603
H334	H	1.388027	0.124577	1.184603
H335	H	0.797742	-0.301862	0.698055
H336	H	1.297742	0.198138	1.198055
H337	H	0.801145	-0.341790	0.643414
H338	H	1.301145	0.158210	1.143414
H339	H	0.836698	-0.953141	0.376584
H340	H	1.336698	-0.453141	0.876584
H341	H	0.982626	-0.450687	0.230611
H342	H	1.482626	0.049313	0.730611
H343	H	0.836609	-0.312363	0.543796
H344	H	1.336609	0.187637	1.043796
H345	H	0.982684	-0.549738	0.230630
H346	H	1.482684	-0.049738	0.730630
H347	H	0.149909	-0.312424	0.376594
H348	H	0.649909	0.187576	0.876594
C349	C	1.029659	-0.152003	0.978143
C350	C	1.529659	0.347997	1.478143
C351	C	0.994300	-0.181373	0.935382
C352	C	1.494300	0.318627	1.435382
H353	H	1.056994	-0.129310	0.955856
H354	H	1.556994	0.370690	1.455856
H355	H	1.053718	-0.174770	1.003801
H356	H	1.553718	0.325230	1.503801
H357	H	1.002242	-0.132003	1.003765
H358	H	1.502242	0.367997	1.503765
H359	H	1.021717	-0.201376	0.909763
H360	H	1.521717	0.298624	1.409763
H361	H	0.970239	-0.158604	0.909712
H362	H	1.470239	0.341396	1.409712
H363	H	0.982819	-0.190863	1.064008
H364	H	1.482819	0.309137	1.564008
H365	H	1.023023	-0.701834	0.190444
H366	H	1.523023	-0.201834	0.690444
C367	C	1.069873	-0.773124	0.143706
C368	C	1.569873	-0.273124	0.643706
C369	C	1.034545	-0.808654	0.178998
C370	C	1.534545	-0.308654	0.678998
H371	H	1.097210	-0.791625	0.116412
H372	H	1.597210	-0.291625	0.616412
H373	H	1.093930	-0.751796	0.171163
H374	H	1.593930	-0.251796	0.671163
H375	H	1.042438	-0.751862	0.119601
H376	H	1.542438	-0.251862	0.619601
H377	H	1.061980	-0.829914	0.203107
H378	H	1.561980	-0.329914	0.703107
H379	H	1.010487	-0.829991	0.151537
H380	H	1.510487	-0.329991	0.651537
C381	C	1.029692	-0.980720	0.183940
C382	C	1.529692	-0.480720	0.683940
C383	C	0.994330	-0.945245	0.219224
C384	C	1.494330	-0.445245	0.719224
H385	H	1.057023	-0.962177	0.156654
H386	H	1.557023	-0.462177	0.656654
H387	H	1.002283	-1.002052	0.159832
H388	H	1.502283	-0.502052	0.659832
H389	H	1.053762	-1.001984	0.211407
H390	H	1.553762	-0.501984	0.711407
H391	H	0.970256	-0.923983	0.191756
H392	H	1.470256	-0.423983	0.691756
H393	H	1.021743	-0.923904	0.243334
H394	H	1.521743	-0.423904	0.743334
