data_functionalizedCrystal
_audit_creation_method	'MofGen! by Chris Wilmer'
_symmetry_space_group_name_H-M	'P1'
_symmetry_Int_Tables_number	1
_symmetry_cell_setting	triclinic
loop_
_symmetry_equiv_pos_as_xyz
  x,y,z
_cell_length_a	19.188933
_cell_length_b	17.666332
_cell_length_c	10.723024
_cell_angle_alpha	90.003996
_cell_angle_beta	83.806719
_cell_angle_gamma	90.007838
loop_
_atom_site_label
_atom_site_type_symbol
_atom_site_fract_x
_atom_site_fract_y
_atom_site_fract_z
O1	O	0.927161	0.062921	0.155793
O2	O	1.177161	0.312921	0.405793
O3	O	1.427161	0.562921	0.655793
O4	O	1.677161	0.812921	0.905793
O5	O	0.723986	0.062928	0.176761
O6	O	0.973986	0.312928	0.426761
O7	O	1.223986	0.562928	0.676761
O8	O	1.473986	0.812928	0.926761
O9	O	0.830260	0.062922	-0.015397
O10	O	1.080260	0.312922	0.234603
O11	O	1.330260	0.562922	0.484603
O12	O	1.580260	0.812922	0.734603
O13	O	0.820887	0.062928	0.347950
O14	O	1.070887	0.312928	0.597950
O15	O	1.320887	0.562928	0.847950
O16	O	1.570887	0.812928	1.097950
O17	O	0.830241	-0.062975	-0.015402
O18	O	1.080241	0.187025	0.234598
O19	O	1.330241	0.437025	0.484598
O20	O	1.580241	0.687025	0.734598
O21	O	0.723967	-0.062969	0.176755
O22	O	0.973967	0.187031	0.426755
O23	O	1.223967	0.437031	0.676755
O24	O	1.473967	0.687031	0.926755
O25	O	0.927142	-0.062976	0.155787
O26	O	1.177142	0.187024	0.405787
O27	O	1.427142	0.437024	0.655787
O28	O	1.677142	0.687024	0.905787
Cu29	Cu	0.825553	-0.074467	0.166271
Cu30	Cu	1.075553	0.175533	0.416271
Cu31	Cu	1.325553	0.425533	0.666271
Cu32	Cu	1.575553	0.675533	0.916271
Cu33	Cu	0.825575	0.074420	0.166277
Cu34	Cu	1.075575	0.324420	0.416277
Cu35	Cu	1.325575	0.574420	0.666277
Cu36	Cu	1.575575	0.824420	0.916277
O37	O	0.820868	-0.062969	0.347945
O38	O	1.070868	0.187031	0.597945
O39	O	1.320868	0.437031	0.847945
O40	O	1.570868	0.687031	1.097945
C41	C	0.697961	-0.000019	0.176079
C42	C	0.947961	0.249981	0.426079
C43	C	1.197961	0.499981	0.676079
C44	C	1.447961	0.749981	0.926079
C45	C	0.620444	-0.000017	0.174039
C46	C	0.870444	0.249983	0.424039
C47	C	1.120444	0.499983	0.674039
C48	C	1.370444	0.749983	0.924039
C49	C	0.067104	0.068601	0.159485
C50	C	0.317104	0.318601	0.409485
C51	C	0.567104	0.568601	0.659485
C52	C	0.817104	0.818601	0.909485
C53	C	0.139941	0.068604	0.161394
C54	C	0.389941	0.318604	0.411394
C55	C	0.639941	0.568604	0.661394
C56	C	0.889941	0.818604	0.911394
C57	C	0.176354	-0.000022	0.162352
C58	C	0.426354	0.249978	0.412352
C59	C	0.676354	0.499978	0.662352
C60	C	0.926354	0.749978	0.912352
C61	C	0.139926	-0.068656	0.161368
C62	C	0.389926	0.181344	0.411368
C63	C	0.639926	0.431344	0.661368
C64	C	0.889926	0.681344	0.911368
C65	C	0.067092	-0.068657	0.159446
C66	C	0.317092	0.181343	0.409446
C67	C	0.567092	0.431343	0.659446
C68	C	0.817092	0.681343	0.909446
N69	N	0.285847	-0.051102	0.236370
N70	N	0.535847	0.198898	0.486370
N71	N	0.785847	0.448898	0.736370
N72	N	1.035847	0.698898	0.986370
N73	N	0.355036	-0.051097	0.238198
N74	N	0.605036	0.198903	0.488198
N75	N	0.855036	0.448903	0.738198
N76	N	1.105036	0.698903	0.988198
C77	C	0.395800	-0.000023	0.168138
C78	C	0.645800	0.249977	0.418138
C79	C	0.895800	0.499977	0.668138
C80	C	1.145800	0.749977	0.918138
N81	N	0.364759	0.051056	0.096197
N82	N	0.614759	0.301056	0.346197
N83	N	0.864759	0.551056	0.596197
N84	N	1.114759	0.801056	0.846197
N85	N	0.295563	0.051053	0.094374
N86	N	0.545563	0.301053	0.344374
N87	N	0.795563	0.551053	0.594374
N88	N	1.045563	0.801053	0.844374
C89	C	0.255330	-0.000029	0.164434
C90	C	0.505330	0.249971	0.414434
C91	C	0.755330	0.499971	0.664434
C92	C	1.005330	0.749971	0.914434
C93	C	0.511197	0.068610	0.171183
C94	C	0.761197	0.318610	0.421183
C95	C	1.011197	0.568610	0.671183
C96	C	1.261197	0.818610	0.921183
C97	C	0.584036	0.068610	0.173084
C98	C	0.834036	0.318610	0.423084
C99	C	1.084036	0.568610	0.673084
C100	C	1.334036	0.818610	0.923084
C101	C	0.584019	-0.068652	0.173070
C102	C	0.834019	0.181348	0.423070
C103	C	1.084019	0.431348	0.673070
C104	C	1.334019	0.681348	0.923070
C105	C	0.511182	-0.068650	0.171156
C106	C	0.761182	0.181350	0.421156
C107	C	1.011182	0.431350	0.671156
C108	C	1.261182	0.681350	0.921156
C109	C	0.474776	-0.000017	0.170219
C110	C	0.724776	0.249983	0.420219
C111	C	0.974776	0.499983	0.670219
C112	C	1.224776	0.749983	0.920219
N113	N	0.825542	-0.179187	0.166265
N114	N	1.075542	0.070813	0.416265
N115	N	1.325542	0.320813	0.666265
N116	N	1.575542	0.570813	0.916265
C117	C	0.868242	-0.218791	0.241765
C118	C	1.118242	0.031209	0.491765
C119	C	1.368242	0.281209	0.741765
C120	C	1.618242	0.531209	0.991765
C121	C	0.868253	-0.298038	0.241761
C122	C	1.118253	-0.048038	0.491761
C123	C	1.368253	0.201962	0.741761
C124	C	1.618253	0.451962	0.991761
C125	C	0.825552	-0.337679	0.166272
C126	C	1.075552	-0.087679	0.416272
C127	C	1.325552	0.162321	0.666272
C128	C	1.575552	0.412321	0.916272
C129	C	0.782850	-0.298066	0.090758
C130	C	1.032850	-0.048066	0.340758
C131	C	1.282850	0.201934	0.590758
C132	C	1.532850	0.451934	0.840758
C133	C	0.782845	-0.218820	0.090754
C134	C	1.032845	0.031180	0.340754
C135	C	1.282845	0.281180	0.590754
C136	C	1.532845	0.531180	0.840754
N137	N	0.764384	-0.462117	0.163198
N138	N	1.014384	-0.212117	0.413198
N139	N	1.264384	0.037883	0.663198
N140	N	1.514384	0.287883	0.913198
N141	N	0.764390	-0.537397	0.163208
N142	N	1.014390	-0.287397	0.413208
N143	N	1.264390	-0.037397	0.663208
N144	N	1.514390	0.212603	0.913208
C145	C	0.825565	-0.576443	0.166277
C146	C	1.075565	-0.326443	0.416277
C147	C	1.325565	-0.076443	0.666277
C148	C	1.575565	0.173557	0.916277
N149	N	0.886733	-0.537365	0.169359
N150	N	1.136733	-0.287365	0.419359
N151	N	1.386733	-0.037365	0.669359
N152	N	1.636733	0.212635	0.919359
N153	N	0.886726	-0.462077	0.169355
N154	N	1.136726	-0.212077	0.419355
N155	N	1.386726	0.037923	0.669355
N156	N	1.636726	0.287923	0.919355
C157	C	0.825552	-0.423608	0.166267
C158	C	1.075552	-0.173608	0.416267
C159	C	1.325552	0.076392	0.666267
C160	C	1.575552	0.326392	0.916267
C161	C	0.868280	-0.701976	0.241776
C162	C	1.118280	-0.451976	0.491776
C163	C	1.368280	-0.201976	0.741776
C164	C	1.618280	0.048024	0.991776
C165	C	0.868292	-0.781225	0.241763
C166	C	1.118292	-0.531225	0.491763
C167	C	1.368292	-0.281225	0.741763
C168	C	1.618292	-0.031225	0.991763
C169	C	0.782882	-0.781251	0.090768
C170	C	1.032882	-0.531251	0.340768
C171	C	1.282882	-0.281251	0.590768
C172	C	1.532882	-0.031251	0.840768
C173	C	0.782876	-0.702004	0.090773
C174	C	1.032876	-0.452004	0.340773
C175	C	1.282876	-0.202004	0.590773
C176	C	1.532876	0.047996	0.840773
C177	C	0.825574	-0.662371	0.166284
C178	C	1.075574	-0.412371	0.416284
C179	C	1.325574	-0.162371	0.666284
C180	C	1.575574	0.087629	0.916284
C181	C	0.953167	-0.000026	0.156469
C182	C	1.203167	0.249974	0.406469
C183	C	1.453167	0.499974	0.656469
C184	C	1.703167	0.749974	0.906469
C185	C	1.030685	-0.000024	0.158509
C186	C	1.280685	0.249976	0.408509
C187	C	1.530685	0.499976	0.658509
C188	C	1.780685	0.749976	0.908509
C189	C	0.829569	-0.000026	-0.061885
C190	C	1.079569	0.249974	0.188115
C191	C	1.329569	0.499974	0.438115
C192	C	1.579569	0.749974	0.688115
C193	C	0.827528	-0.000023	-0.200397
C194	C	1.077528	0.249977	0.049603
C195	C	1.327528	0.499977	0.299603
C196	C	1.577528	0.749977	0.549603
N197	N	0.825592	0.179139	0.166273
N198	N	1.075592	0.429139	0.416273
N199	N	1.325592	0.679139	0.666273
N200	N	1.575592	0.929139	0.916273
C201	C	0.886993	-0.000024	-0.276613
C202	C	1.136993	0.249976	-0.026613
C203	C	1.386993	0.499976	0.223387
C204	C	1.636993	0.749976	0.473387
C205	C	0.884885	-0.000021	-0.419773
C206	C	1.134885	0.249979	-0.169773
C207	C	1.384885	0.499979	0.080227
C208	C	1.634885	0.749979	0.330227
C209	C	0.821560	-0.000020	0.394433
C210	C	1.071560	0.249980	0.644433
C211	C	1.321560	0.499980	0.894433
C212	C	1.571560	0.749980	1.144433
C213	C	0.823601	-0.000018	0.532945
C214	C	1.073601	0.249982	0.782945
C215	C	1.323601	0.499982	1.032945
C216	C	1.573601	0.749982	1.282945
H217	H	0.481553	0.124495	0.170415
H218	H	0.731553	0.374495	0.420415
H219	H	0.981553	0.624495	0.670415
H220	H	1.231553	0.874495	0.920415
H221	H	0.169578	-0.124532	0.162145
H222	H	0.419578	0.125468	0.412145
H223	H	0.669578	0.375468	0.662145
H224	H	0.919578	0.625468	0.912145
Cl225	Cl	0.629822	0.154890	0.174299
Cl226	Cl	0.879822	0.404890	0.424299
Cl227	Cl	1.129822	0.654890	0.674299
Cl228	Cl	1.379822	0.904890	0.924299
Cl229	Cl	0.746513	-0.000013	-0.263275
Cl230	Cl	0.996513	0.249987	-0.013275
Cl231	Cl	1.246513	0.499987	0.236725
Cl232	Cl	1.496513	0.749987	0.486725
H233	H	0.903025	-0.330290	0.303245
H234	H	1.153025	-0.080290	0.553245
H235	H	1.403025	0.169710	0.803245
H236	H	1.653025	0.419710	1.053245
Cl237	Cl	0.021305	-0.154936	0.158224
Cl238	Cl	0.271305	0.095064	0.408224
Cl239	Cl	0.521305	0.345064	0.658224
Cl240	Cl	0.771305	0.595064	0.908224
Cl241	Cl	0.629790	-0.154926	0.174253
Cl242	Cl	0.879790	0.095074	0.424253
Cl243	Cl	1.129790	0.345074	0.674253
Cl244	Cl	1.379790	0.595074	0.924253
H245	H	0.037466	0.124488	0.158717
H246	H	0.287466	0.374488	0.408717
H247	H	0.537466	0.624488	0.658717
H248	H	0.787466	0.874488	0.908717
H249	H	0.772691	-0.000022	-0.401574
H250	H	1.022691	0.249978	-0.151574
H251	H	1.272691	0.499978	0.098426
H252	H	1.522691	0.749978	0.348426
H253	H	0.481529	-0.124532	0.170365
H254	H	0.731529	0.125468	0.420365
H255	H	0.981529	0.375468	0.670365
H256	H	1.231529	0.625468	0.920365
Cl257	Cl	0.968009	-0.000022	-0.213735
Cl258	Cl	1.218009	0.249978	0.036265
Cl259	Cl	1.468009	0.499978	0.286265
Cl260	Cl	1.718009	0.749978	0.536265
H261	H	0.169599	0.124489	0.162197
H262	H	0.419599	0.374489	0.412197
H263	H	0.669599	0.624489	0.662197
H264	H	0.919599	0.874489	0.912197
H265	H	0.748083	-0.330347	0.029293
H266	H	0.998083	-0.080347	0.279293
H267	H	1.248083	0.169653	0.529293
H268	H	1.498083	0.419653	0.779293
H269	H	0.903012	-0.186526	0.303247
H270	H	1.153012	0.063474	0.553247
H271	H	1.403012	0.313474	0.803247
H272	H	1.653012	0.563474	1.053247
Cl273	Cl	0.963486	-0.000028	-0.520876
Cl274	Cl	1.213486	0.249972	-0.270876
Cl275	Cl	1.463486	0.499972	-0.020876
Cl276	Cl	1.713486	0.749972	0.229124
H277	H	0.748072	-0.186575	0.029272
H278	H	0.998072	0.063425	0.279272
H279	H	1.248072	0.313425	0.529272
H280	H	1.498072	0.563425	0.779272
Cl281	Cl	0.729180	-0.652214	-0.004121
Cl282	Cl	0.979180	-0.402214	0.245879
Cl283	Cl	1.229180	-0.152214	0.495879
Cl284	Cl	1.479180	0.097786	0.745879
Cl285	Cl	0.921971	-0.652148	0.336674
Cl286	Cl	1.171971	-0.402148	0.586674
Cl287	Cl	1.421971	-0.152148	0.836674
Cl288	Cl	1.671971	0.097852	1.086674
Cl289	Cl	0.921981	-0.831013	0.336680
Cl290	Cl	1.171981	-0.581013	0.586680
Cl291	Cl	1.421981	-0.331013	0.836680
Cl292	Cl	1.671981	-0.081013	1.086680
Cl293	Cl	0.729208	-0.831078	-0.004148
Cl294	Cl	0.979208	-0.581078	0.245852
Cl295	Cl	1.229208	-0.331078	0.495852
Cl296	Cl	1.479208	-0.081078	0.745852
