data_functionalizedCrystal
_audit_creation_method	'MofGen! by Chris Wilmer'
_symmetry_space_group_name_H-M	'P1'
_symmetry_Int_Tables_number	1
_symmetry_cell_setting	triclinic
loop_
_symmetry_equiv_pos_as_xyz
  x,y,z
_cell_length_a	10.654562
_cell_length_b	16.109301
_cell_length_c	15.186229
_cell_angle_alpha	90.005167
_cell_angle_beta	89.993826
_cell_angle_gamma	96.024208
loop_
_atom_site_label
_atom_site_type_symbol
_atom_site_fract_x
_atom_site_fract_y
_atom_site_fract_z
O1	O	1.666245	-0.116823	-0.073290
O2	O	2.166245	0.383177	0.426710
O3	O	1.300618	-0.127938	-0.073279
O4	O	1.800618	0.372062	0.426721
O5	O	1.493476	-0.001409	-0.073276
O6	O	1.993476	0.498591	0.426724
O7	O	1.473387	-0.243351	-0.073293
O8	O	1.973387	0.256649	0.426707
O9	O	1.493463	-0.001407	0.073182
O10	O	1.993463	0.498593	0.573182
O11	O	1.300605	-0.127936	0.073178
O12	O	1.800605	0.372064	0.573178
O13	O	1.666232	-0.116821	0.073168
O14	O	2.166232	0.383179	0.573168
Zn15	Zn	1.483417	-0.122378	0.096426
Zn16	Zn	1.983417	0.377622	0.596426
Zn17	Zn	1.483434	-0.122381	-0.096538
Zn18	Zn	1.983434	0.377619	0.403462
O19	O	1.473375	-0.243349	0.073164
O20	O	1.973375	0.256651	0.573164
C21	C	1.253825	-0.127118	-0.000049
C22	C	1.753825	0.372882	0.499951
C23	C	1.114416	-0.124670	-0.000044
C24	C	1.614416	0.375330	0.499956
C25	C	1.048893	-0.123527	0.079783
C26	C	1.548893	0.376473	0.579783
C27	C	0.917902	-0.121233	0.079768
C28	C	1.417902	0.378767	0.579768
C29	C	0.917967	-0.121229	-0.079908
C30	C	1.417967	0.378771	0.420092
C31	C	1.048956	-0.123517	-0.079892
C32	C	1.548956	0.376483	0.420108
C33	C	1.114353	-0.124680	0.159630
C34	C	1.614353	0.375320	0.659630
C35	C	1.048830	-0.123538	0.239464
C36	C	1.548830	0.376462	0.739464
C37	C	0.917839	-0.121245	0.239449
C38	C	1.417839	0.378755	0.739449
C39	C	0.852370	-0.120093	0.159601
C40	C	1.352370	0.379907	0.659601
C41	C	1.492656	0.029571	-0.000047
C42	C	1.992656	0.529571	0.499953
C43	C	1.490216	0.121881	-0.000045
C44	C	1.990216	0.621881	0.499955
C45	C	1.713025	-0.117640	-0.000064
C46	C	2.213025	0.382360	0.499936
C47	C	1.852435	-0.120089	-0.000075
C48	C	2.352435	0.379911	0.499925
C49	C	1.474195	-0.274330	-0.000067
C50	C	1.974195	0.225670	0.499933
C51	C	1.476634	-0.366640	-0.000074
C52	C	1.976634	0.133360	0.499926
N53	N	1.483414	-0.122376	0.228119
N54	N	1.983414	0.377624	0.728119
C55	C	1.598981	0.343504	-0.000062
C56	C	2.098981	0.843504	0.499938
C57	C	1.596679	0.430238	-0.000069
C58	C	2.096679	0.930238	0.499931
C59	C	1.367860	0.411731	-0.000059
C60	C	1.867860	0.911731	0.499941
C61	C	1.370164	0.324998	-0.000058
C62	C	1.870164	0.824998	0.499942
C63	C	1.485728	0.290887	-0.000055
C64	C	1.985728	0.790887	0.499945
C65	C	1.481122	0.464354	-0.000064
C66	C	1.981122	0.964354	0.499936
C67	C	1.478626	0.558395	-0.000071
C68	C	1.978626	1.058395	0.499929
C69	C	1.488225	0.196840	-0.000049
C70	C	1.988225	0.696840	0.499951
N71	N	1.483446	-0.122376	-0.228230
N72	N	1.983446	0.377624	0.271770
C73	C	1.568841	-0.066368	0.453843
C74	C	2.068841	0.433632	0.953843
C75	C	1.568845	-0.066367	0.546033
C76	C	2.068845	0.433633	1.046033
C77	C	1.398010	-0.178386	0.546039
C78	C	1.898010	0.321614	1.046039
C79	C	1.398001	-0.178384	0.453851
C80	C	1.898001	0.321616	0.953851
C81	C	1.483424	-0.122376	0.407756
C82	C	1.983424	0.377624	0.907756
C83	C	1.483437	-0.122376	0.592133
C84	C	1.983437	0.377624	1.092133
C85	C	1.483440	-0.122375	0.692089
C86	C	1.983440	0.377625	1.192089
C87	C	1.483419	-0.122376	0.307793
C88	C	1.983419	0.377624	0.807793
H89	H	0.745709	-0.118223	0.159596
H90	H	1.245709	0.381777	0.659596
N91	N	1.119444	-0.124781	0.325578
N92	N	1.619444	0.375219	0.825578
H93	H	1.086437	-0.175829	0.360472
H94	H	1.586437	0.324171	0.860472
H95	H	1.106811	-0.072900	0.360415
H96	H	1.606811	0.427100	0.860415
H97	H	1.693081	0.315734	-0.000062
H98	H	2.193081	0.815734	0.499938
H99	H	1.221012	-0.126551	0.159651
H100	H	1.721012	0.373449	0.659651
N101	N	1.718829	0.486991	-0.000066
N102	N	2.218829	0.986991	0.499934
H103	H	1.722983	0.523383	-0.054359
H104	H	2.222983	1.023383	0.445641
H105	H	1.792313	0.452162	-0.000029
H106	H	2.292313	0.952162	0.499971
H107	H	0.864651	-0.120294	-0.144916
H108	H	1.364651	0.379706	0.355084
H109	H	1.273772	0.439515	-0.000060
H110	H	1.773772	0.939515	0.499940
N111	N	1.660956	-0.005942	0.404138
N112	N	2.160956	0.494058	0.904138
H113	H	1.612971	0.031165	0.365905
H114	H	2.112971	0.531165	0.865905
H115	H	1.716533	-0.038099	0.365925
H116	H	2.216533	0.461901	0.865925
N117	N	0.847167	-0.120002	0.325549
N118	N	1.347167	0.379998	0.825549
H119	H	0.908516	-0.121078	0.376131
H120	H	1.408516	0.378922	0.876131
H121	H	0.782623	-0.170499	0.329015
H122	H	1.282623	0.329501	0.829015
N123	N	1.248006	0.268240	-0.000057
N124	N	1.748006	0.768240	0.499943
H125	H	1.174447	0.303008	-0.000053
H126	H	1.674447	0.803008	0.499947
H127	H	1.243977	0.231854	0.054235
H128	H	1.743977	0.731854	0.554235
N129	N	1.660990	-0.005971	0.595743
N130	N	2.160990	0.494029	1.095743
H131	H	1.715105	0.029504	0.552550
H132	H	2.215105	0.529504	1.052550
H133	H	1.716483	-0.038158	0.633975
H134	H	2.216483	0.461842	1.133975
N135	N	1.119639	-0.124746	-0.165989
N136	N	1.619639	0.375254	0.334011
H137	H	1.058295	-0.123674	-0.216574
H138	H	1.558295	0.376326	0.283426
H139	H	1.163802	-0.177143	-0.169465
H140	H	1.663802	0.322857	0.330535
H141	H	1.328463	-0.223988	0.583579
H142	H	1.828463	0.276012	1.083579
H143	H	1.328439	-0.223992	0.416324
H144	H	1.828439	0.276008	0.916324
