data_functionalizedCrystal
_audit_creation_method	'MofGen! by Chris Wilmer'
_symmetry_space_group_name_H-M	'P1'
_symmetry_Int_Tables_number	1
_symmetry_cell_setting	triclinic
loop_
_symmetry_equiv_pos_as_xyz
  x,y,z
_cell_length_a	21.606444
_cell_length_b	23.196402
_cell_length_c	23.196401
_cell_angle_alpha	59.997774
_cell_angle_beta	90.006526
_cell_angle_gamma	60.004848
loop_
_atom_site_label
_atom_site_type_symbol
_atom_site_fract_x
_atom_site_fract_y
_atom_site_fract_z
Zr1	Zr	0.596288	0.630989	-0.075628
O2	O	0.497458	0.751266	-0.167684
O3	O	0.626575	0.510723	-0.047411
O4	O	0.626564	0.631005	-0.167687
O5	O	0.497487	0.630968	0.047470
O6	O	0.728416	0.631004	-0.167685
O7	O	0.497468	0.630984	-0.047409
O8	O	0.728436	0.415842	0.047465
O9	O	0.497468	0.846130	-0.167680
O10	O	0.715515	0.560186	-0.035372
O11	O	0.639518	0.560174	0.035434
O12	O	0.639505	0.701790	-0.106175
O13	O	0.563508	0.701778	-0.035369
Zr14	Zr	0.758760	0.630963	0.075695
Zr15	Zr	0.758730	0.630989	-0.075626
Zr16	Zr	0.596318	0.630963	0.075693
Zr17	Zr	0.596304	0.782286	-0.075623
Zr18	Zr	0.758743	0.479665	0.075689
O19	O	0.728472	0.751229	0.047478
O20	O	0.728429	0.751266	-0.167681
O21	O	0.497500	0.751229	0.047475
O22	O	0.857590	0.510685	0.167751
O23	O	0.857547	0.510722	-0.047408
O24	O	0.626618	0.510686	0.167747
O25	O	0.857560	0.630984	-0.047403
O26	O	0.728483	0.630947	0.167753
O27	O	0.626631	0.630947	0.167752
O28	O	0.857579	0.630967	0.047475
O29	O	0.626588	0.846130	-0.167679
O30	O	0.728460	0.415822	0.167745
O31	O	0.857580	0.415821	0.167747
O32	O	0.857556	0.415842	0.047467
O33	O	0.497492	0.846109	-0.047401
O34	O	0.626612	0.846109	-0.047399
O35	O	0.715543	0.560161	0.106242
O36	O	0.791540	0.560173	0.035436
O37	O	0.715530	0.701778	-0.035367
O38	O	0.639533	0.701766	0.035439
C39	C	0.677503	0.441726	0.000026
C40	C	0.677496	0.377496	0.000024
C41	C	0.733618	0.295059	0.052289
C42	C	0.733624	0.234698	0.052296
C43	C	0.677512	0.256780	0.000026
C44	C	0.621380	0.339232	-0.052244
C45	C	0.621372	0.399590	-0.052245
C46	C	0.660029	0.201204	-0.063771
C47	C	0.660042	0.140845	-0.063771
C48	C	0.677533	0.070619	0.000029
C49	C	0.695027	0.060749	0.063832
C50	C	0.695019	0.121107	0.063831
C51	C	0.677514	0.191338	0.000022
C52	C	0.733664	-0.077272	0.052306
C53	C	0.733664	-0.137632	0.052313
C54	C	0.621423	-0.033095	-0.052233
C55	C	0.621420	0.027262	-0.052234
C56	C	0.677544	0.005168	0.000035
C57	C	0.474333	0.630976	0.000030
C58	C	0.405372	0.630976	0.000029
C59	C	0.372964	0.630987	-0.052242
C60	C	0.308170	0.630983	-0.052239
C61	C	0.275783	0.630974	0.000032
C62	C	0.308197	0.630960	0.052309
C63	C	0.372993	0.630958	0.052309
C64	C	0.046883	0.630966	0.052311
C65	C	-0.017918	0.630970	0.052306
C66	C	-0.017940	0.630991	-0.052237
C67	C	0.046856	0.630989	-0.052237
C68	C	0.079267	0.630971	0.000042
C69	C	0.149525	0.630974	0.000039
C70	C	0.205523	0.630977	0.000032
C71	C	0.880714	0.630975	0.000036
C72	C	0.949675	0.630975	0.000037
C73	C	0.677486	0.631008	-0.189246
C74	C	0.677473	0.631019	-0.253485
C75	C	0.677544	0.820225	0.000040
C76	C	0.677551	0.884455	0.000043
C77	C	0.733586	0.631021	-0.283648
C78	C	0.733603	0.631004	-0.343994
C79	C	0.677495	0.631003	-0.374185
C80	C	0.621378	0.630997	-0.344013
C81	C	0.621367	0.631005	-0.283663
C82	C	0.609024	0.678496	-0.493566
C83	C	0.609035	0.678493	-0.553916
C84	C	0.677529	0.630974	-0.560321
C85	C	0.746017	0.583469	-0.506372
C86	C	0.746006	0.583477	-0.446023
C87	C	0.677501	0.630993	-0.439623
C88	C	0.733664	0.630956	-0.655917
C89	C	0.733682	0.630935	-0.716263
C90	C	0.621450	0.630936	-0.716284
C91	C	0.621439	0.630949	-0.655936
C92	C	0.677546	0.630963	-0.625758
C93	C	0.677561	0.630943	0.189313
C94	C	0.677574	0.630932	0.253552
C95	C	0.880694	0.441726	0.000029
C96	C	0.949648	0.377496	0.000028
C97	C	0.677541	0.441693	0.189305
C98	C	0.677547	0.377453	0.253543
C99	C	0.880731	0.441693	0.189308
C100	C	0.949698	0.377452	0.253547
C101	C	0.474316	0.820258	-0.189242
C102	C	0.405350	0.884499	-0.253480
C103	C	0.474354	0.820226	0.000038
C104	C	0.405400	0.884455	0.000039
C105	C	0.677507	0.820258	-0.189239
C106	C	0.677501	0.884499	-0.253476
C107	C	0.942345	0.347339	-0.036940
C108	C	1.007128	0.286997	-0.036956
C109	C	1.079214	0.256808	0.000001
C110	C	1.086515	0.286971	0.036971
C111	C	1.021732	0.347316	0.036982
C112	C	0.717234	0.347278	0.320677
C113	C	0.717236	0.286926	0.381040
C114	C	0.677556	0.256745	0.374268
C115	C	0.637864	0.286925	0.307127
C116	C	0.637857	0.347281	0.246765
C117	C	1.021762	0.347291	0.246754
C118	C	1.086570	0.286938	0.307106
C119	C	1.079312	0.256744	0.374252
C120	C	1.007240	0.286912	0.381043
C121	C	0.942434	0.347267	0.320691
C122	C	0.333286	0.914668	-0.246687
C123	C	0.268478	0.975040	-0.307040
C124	C	0.275736	1.005237	-0.374185
C125	C	0.347807	0.975065	-0.380977
C126	C	0.412613	0.914699	-0.320624
C127	C	0.412703	0.914618	0.037001
C128	C	0.347919	0.974977	0.037000
C129	C	0.275834	1.005168	0.000040
C130	C	0.268533	0.975003	-0.036926
C131	C	0.333315	0.914649	-0.036929
C132	C	0.717189	0.914661	-0.246681
C133	C	0.717198	0.975014	-0.307033
C134	C	0.677515	1.005208	-0.374179
C135	C	0.637825	0.975040	-0.380972
C136	C	0.637821	0.914684	-0.320621
H137	H	0.709261	0.113068	0.115781
H138	H	0.883655	0.371918	-0.067044
O139	O	-0.052847	0.630955	0.108692
H140	H	-0.103353	0.630969	0.099902
O141	O	0.759997	0.882099	-0.174264
H142	H	0.803842	0.815520	-0.145000
H143	H	1.027686	0.371865	0.192086
O144	O	0.560914	0.630971	-0.748859
H145	H	0.521885	0.630983	-0.717749
H146	H	0.605499	0.890133	-0.326163
O147	O	0.794146	0.271226	0.108670
H148	H	0.826494	0.296228	0.083537
O149	O	1.164299	0.254397	0.299774
H150	H	1.158451	0.285523	0.242943
O151	O	1.149213	0.191637	0.439345
H152	H	1.200540	0.175733	0.423333
O153	O	0.560840	0.488512	-0.108621
H154	H	0.587818	0.518518	-0.138753
H155	H	0.677524	1.054354	-0.423315
H156	H	0.779352	0.630964	-0.631344
H157	H	0.605516	0.999633	-0.435651
O158	O	0.641176	0.151494	-0.132585
H159	H	0.644130	0.097721	-0.121867
O160	O	0.760062	0.254367	0.453452
H161	H	0.787665	0.285483	0.448013
H162	H	0.223090	1.054312	0.000048
H163	H	0.779364	-0.204759	0.094878
O164	O	0.999417	0.254339	0.453466
H165	H	0.967956	0.226840	0.459605
H166	H	0.209832	0.999593	-0.067017
H167	H	0.779326	0.167565	0.094859
H168	H	0.709264	0.003571	0.115783
O169	O	0.325435	0.882110	-0.076789
H170	H	0.264424	0.913242	-0.102480
O171	O	0.760008	1.007544	-0.299697
H172	H	0.737076	1.035042	-0.270395
H173	H	1.027689	0.371862	0.067089
H174	H	0.779360	-0.095263	0.094869
O175	O	0.864711	0.379776	0.328028
H176	H	0.858129	0.407255	0.357348
O177	O	0.560903	-0.009265	-0.108615
H178	H	0.570339	-0.065085	-0.099838
H179	H	0.575723	0.094388	-0.094798
O180	O	-0.052901	0.631010	-0.108624
H181	H	-0.010805	0.575753	-0.106065
O182	O	0.641165	0.276950	-0.132586
H183	H	0.682480	0.259454	-0.159221
O184	O	0.560865	0.363057	-0.108629
H185	H	0.570305	0.307236	-0.099855
O186	O	0.407947	0.630947	0.108689
H187	H	0.467132	0.575670	0.138827
O188	O	0.407896	0.630997	-0.108620
H189	H	0.374476	0.630996	-0.144963
H190	H	0.749546	0.371845	0.326204
H191	H	0.327362	0.890085	-0.192019
O192	O	0.490331	0.882183	-0.327975
H193	H	0.521755	0.893772	-0.302255
O194	O	0.560909	0.630961	-0.623404
H195	H	0.521892	0.630965	-0.654537
H196	H	0.281783	0.630992	-0.094802
O197	O	0.819867	0.532233	-0.387830
H198	H	0.867500	0.499181	-0.402413
H199	H	1.001168	0.262446	-0.067060
H200	H	0.209801	0.999595	-0.301496
H201	H	0.471392	0.890041	0.067102
O202	O	0.081790	0.630999	-0.108614
H203	H	0.048372	0.630999	-0.144959
H204	H	0.281827	0.630947	0.094873
O205	O	0.081840	0.630944	0.108695
H206	H	0.048428	0.630944	0.145038
H207	H	0.677567	0.207599	0.423424
H208	H	0.779273	0.631029	-0.259078
O209	O	0.794120	0.631018	-0.376545
H210	H	0.833128	0.631037	-0.345425
H211	H	0.353708	0.999659	-0.435653
O212	O	0.595172	0.379711	0.174356
H213	H	0.567632	0.348535	0.179796
H214	H	0.222960	1.054390	-0.423322
H215	H	0.801792	0.544774	-0.511583
H216	H	0.605557	0.262343	0.301624
O217	O	0.355804	1.007493	0.076885
H218	H	0.387284	1.034971	0.055541
O219	O	0.794199	0.630949	-0.748806
H220	H	0.833202	0.630973	-0.717686
H221	H	0.553243	0.717184	-0.488355
O222	O	0.535168	0.729742	-0.612105
H223	H	0.498083	0.710185	-0.590756
O224	O	0.560855	0.631002	-0.376573
H225	H	0.570284	0.631007	-0.423611
H226	H	0.575672	0.631004	-0.259104
O227	O	1.149086	0.191719	-0.000009
H228	H	1.149036	0.136728	0.023118
O229	O	1.164266	0.254400	0.076838
H230	H	1.208080	0.207365	0.070622
