data_functionalizedCrystal
_audit_creation_method	'MofGen! by Chris Wilmer'
_symmetry_space_group_name_H-M	'P1'
_symmetry_Int_Tables_number	1
_symmetry_cell_setting	triclinic
loop_
_symmetry_equiv_pos_as_xyz
  x,y,z
_cell_length_a	10.654558
_cell_length_b	10.654551
_cell_length_c	9.130313
_cell_angle_alpha	89.998309
_cell_angle_beta	89.997106
_cell_angle_gamma	84.486839
loop_
_atom_site_label
_atom_site_type_symbol
_atom_site_fract_x
_atom_site_fract_y
_atom_site_fract_z
O1	O	1.667834	0.176448	-0.121769
O2	O	1.302357	0.193243	-0.121775
O3	O	1.493498	0.002107	-0.121773
O4	O	1.476693	0.367585	-0.121772
O5	O	1.493485	0.002101	0.121826
O6	O	1.302344	0.193238	0.121823
O7	O	1.667821	0.176443	0.121830
Cu8	Cu	1.485081	0.184840	0.144069
Cu9	Cu	1.485097	0.184846	-0.144015
O10	O	1.476680	0.367579	0.121827
C11	C	1.492257	-0.044694	0.000023
C12	C	1.488565	-0.184137	0.000013
C13	C	1.255553	0.192005	0.000023
C14	C	1.116110	0.188309	0.000020
C15	C	1.486840	-0.249646	-0.132770
C16	C	1.483359	-0.380667	-0.132763
C17	C	1.483335	-0.380658	0.132822
C18	C	1.486806	-0.249639	0.132814
C19	C	1.488598	-0.184144	-0.265570
C20	C	1.486875	-0.249653	-0.398364
C21	C	1.483395	-0.380674	-0.398357
C22	C	1.481638	-0.446185	-0.265557
C23	C	0.919578	0.183117	-0.132766
C24	C	1.050601	0.186578	-0.132767
C25	C	1.050591	0.186565	0.132818
C26	C	0.919571	0.183095	0.132818
C27	C	0.854075	0.181399	-0.265562
C28	C	0.919585	0.183140	-0.398360
C29	C	1.050608	0.186602	-0.398361
C30	C	1.116120	0.188322	-0.265565
C31	C	1.714625	0.177681	0.000028
C32	C	1.854068	0.181377	0.000021
C33	C	1.477921	0.414380	0.000028
C34	C	1.481613	0.553823	0.000028
N35	N	1.485079	0.184834	0.346692
N36	N	1.485108	0.184842	-0.346637
C37	C	1.569745	0.100235	0.423345
C38	C	1.569757	0.100235	0.576682
C39	C	1.400433	0.269445	0.576699
C40	C	1.400416	0.269438	0.423365
H41	H	1.488293	-0.196304	-0.506485
H42	H	0.747389	0.178584	-0.265576
O43	O	1.661024	0.008950	0.340652
H44	H	1.646790	0.023152	0.221150
H45	H	0.866238	0.181730	-0.506478
O46	O	1.488671	-0.178975	0.276029
H47	H	1.575696	-0.129722	0.282370
O48	O	1.661090	0.008991	0.659344
H49	H	1.607715	-0.052560	0.729209
O50	O	1.309134	0.360709	0.659394
H51	H	1.323379	0.346514	0.778895
H52	H	1.222809	0.191134	-0.265576
O53	O	1.492646	-0.042867	-0.265572
H54	H	1.493679	-0.008334	-0.380220
O55	O	1.481493	-0.451333	-0.541573
H56	H	1.483295	-0.383768	-0.633912
O57	O	1.477900	-0.587503	-0.265540
H58	H	1.477006	-0.622056	-0.380185
H59	H	1.481905	-0.434008	0.240942
O60	O	1.121260	0.188470	-0.541591
H61	H	1.191385	0.104592	-0.547956
O62	O	1.309098	0.360692	0.340672
H63	H	1.250243	0.419537	0.419745
H64	H	1.103941	0.187969	0.240934
H65	H	0.866229	0.181702	0.240945
