data_functionalizedCrystal
_audit_creation_method	'MofGen! by Chris Wilmer'
_symmetry_space_group_name_H-M	'P1'
_symmetry_Int_Tables_number	1
_symmetry_cell_setting	triclinic
loop_
_symmetry_equiv_pos_as_xyz
  x,y,z
_cell_length_a	12.759401
_cell_length_b	18.101397
_cell_length_c	12.759393
_cell_angle_alpha	89.962348
_cell_angle_beta	89.981433
_cell_angle_gamma	90.019510
loop_
_atom_site_label
_atom_site_type_symbol
_atom_site_fract_x
_atom_site_fract_y
_atom_site_fract_z
Zn1	Zn	1.606213	-0.294805	-0.593939
Zn2	Zn	1.606090	-0.418666	-0.418240
Zn3	Zn	1.430515	-0.294841	-0.418278
Zn4	Zn	1.430486	-0.418607	-0.593882
O5	O	1.518326	-0.356730	-0.506085
O6	O	1.753218	-0.311245	-0.570640
O7	O	1.582760	-0.402281	-0.271224
O8	O	1.453886	-0.191203	-0.441620
O9	O	1.753127	-0.402246	-0.441555
O10	O	1.582970	-0.191177	-0.570677
O11	O	1.453766	-0.311307	-0.271252
O12	O	1.283490	-0.311249	-0.441564
O13	O	1.453836	-0.402144	-0.740910
O14	O	1.283469	-0.402180	-0.570579
O15	O	1.582942	-0.311187	-0.740952
O16	O	1.582732	-0.522291	-0.441500
O17	O	1.453717	-0.522248	-0.570543
C18	C	1.245359	-0.356712	-0.506070
C19	C	1.128582	-0.356723	-0.506089
C20	C	1.073760	-0.309428	-0.573407
C21	C	0.964036	-0.309442	-0.573414
C22	C	0.963966	-0.404052	-0.438780
C23	C	1.073688	-0.404034	-0.438769
C24	C	1.073800	-0.254808	-0.651140
C25	C	0.964076	-0.254822	-0.651147
C26	C	1.518236	-0.549140	-0.506034
C27	C	1.518294	-0.631454	-0.506047
C28	C	1.518428	-0.930545	-0.506143
C29	C	1.599375	-0.899217	-0.424735
C30	C	1.599655	-0.813598	-0.424946
C31	C	1.518362	-0.782163	-0.506095
C32	C	1.548380	-0.813161	-0.616835
C33	C	1.549006	-0.898806	-0.616392
C34	C	1.407247	-0.899056	-0.477768
C35	C	1.407796	-0.813406	-0.475296
C36	C	1.518322	-0.698303	-0.506074
C37	C	1.518470	-1.014405	-0.506171
C38	C	1.792359	-0.356748	-0.506100
C39	C	1.909136	-0.356755	-0.506106
C40	C	1.518400	-0.356655	-0.780118
C41	C	1.518431	-0.356623	-0.896895
C42	C	1.518445	-0.163568	-0.506159
C43	C	1.518496	-0.081254	-0.506190
C44	C	1.585666	-0.309257	-0.951781
C45	C	1.585691	-0.309231	-1.061505
C46	C	1.451243	-0.403942	-1.061448
C47	C	1.451214	-0.403964	-0.951726
C48	C	1.663291	-0.254579	-0.951814
C49	C	1.663316	-0.254552	-1.061538
C50	C	1.518313	-0.356751	-0.233117
C51	C	1.518486	-0.356574	-0.116341
H52	H	0.919257	-0.442571	-0.383972
O53	O	1.118925	-0.282094	-0.753449
H54	H	1.167854	-0.331702	-0.738656
O55	O	1.113257	-0.178810	-0.622452
H56	H	1.045557	-0.141619	-0.608406
H57	H	1.682011	-0.793054	-0.443719
O58	O	0.918978	-0.182628	-0.612741
H59	H	0.945899	-0.137050	-0.664393
O60	O	1.323604	-0.785070	-0.548080
H61	H	1.285237	-0.832431	-0.587805
H62	H	0.934329	-0.270256	-0.732481
O63	O	1.771092	-0.274900	-1.100994
H64	H	1.765820	-0.325738	-1.149300
H65	H	1.641531	-0.197226	-0.922067
O66	O	1.765646	-0.281800	-0.906716
H67	H	1.780210	-0.339193	-0.933595
H68	H	1.346936	-0.919315	-0.537061
H69	H	1.580874	-0.792644	-0.342833
O70	O	1.624778	-0.182366	-1.106653
H71	H	1.554374	-0.192681	-1.155581
H72	H	1.118319	-0.442538	-0.383942
H73	H	1.580820	-0.919867	-0.342376
O74	O	1.378747	-0.455002	-1.120585
H75	H	1.390063	-0.447031	-1.206103
H76	H	1.630275	-0.918724	-0.640428
O77	O	1.707878	-0.927636	-0.449317
H78	H	1.704405	-0.963975	-0.519264
O79	O	1.474318	-0.926263	-0.699484
H80	H	1.437917	-0.878366	-0.739811
O81	O	1.378641	-0.455025	-0.892547
H82	H	1.396588	-0.513154	-0.913562
H83	H	1.491225	-0.792795	-0.679121
H84	H	1.628739	-0.791652	-0.641278
O85	O	1.371072	-0.927740	-0.372651
H86	H	1.431941	-0.964766	-0.339455
H87	H	1.385161	-0.793155	-0.393800
