data_functionalizedCrystal
_audit_creation_method	'MofGen! by Chris Wilmer'
_symmetry_space_group_name_H-M	'P1'
_symmetry_Int_Tables_number	1
_symmetry_cell_setting	triclinic
loop_
_symmetry_equiv_pos_as_xyz
  x,y,z
_cell_length_a	14.044220
_cell_length_b	27.732048
_cell_length_c	13.101039
_cell_angle_alpha	93.329410
_cell_angle_beta	86.340132
_cell_angle_gamma	87.915767
loop_
_atom_site_label
_atom_site_type_symbol
_atom_site_fract_x
_atom_site_fract_y
_atom_site_fract_z
O1	O	1.261246	0.114020	-0.085126
O2	O	0.985339	0.109817	-0.085151
O3	O	1.131860	0.041925	-0.085119
O4	O	1.114725	0.181913	-0.085159
O5	O	1.121348	0.046805	0.085309
O6	O	0.974827	0.114697	0.085276
O7	O	1.250733	0.118900	0.085301
Zn8	Zn	1.111111	0.117574	0.112348
Zn9	Zn	1.124962	0.111144	-0.112198
O10	O	1.104212	0.186793	0.085268
C11	C	0.944796	0.110418	0.000059
C12	C	0.839651	0.104930	0.000051
C13	C	1.126244	0.026341	0.000098
C14	C	1.125160	-0.027364	0.000106
C15	C	0.647135	0.094899	0.000074
C16	C	0.588932	0.133816	0.000067
C17	C	0.481810	0.128235	0.000080
C18	C	0.754268	0.100480	0.000061
C19	C	1.204929	-0.362438	0.000061
C20	C	1.200910	-0.564286	0.000046
O21	O	1.273853	-0.592120	0.000008
N22	N	1.114029	-0.587487	0.000039
C23	C	1.028146	-0.560223	0.000029
O24	O	0.954156	-0.584589	0.000012
C25	C	1.032166	-0.358376	0.000037
C26	C	1.119052	-0.335177	0.000054
C27	C	1.291808	-0.339239	0.000077
C28	C	1.292812	-0.288779	0.000086
C29	C	1.206935	-0.261519	0.000079
C30	C	1.120056	-0.284718	0.000063
C31	C	0.946285	-0.331113	0.000019
C32	C	0.947297	-0.280648	0.000018
C33	C	1.034184	-0.257449	0.000036
C34	C	1.035183	-0.206998	0.000066
N35	N	1.122064	-0.183797	0.000072
C36	C	1.207941	-0.211057	0.000079
C37	C	1.026042	-0.666196	0.000027
C38	C	1.025036	-0.716658	0.000027
C39	C	1.197801	-0.720717	0.000043
C40	C	1.198805	-0.670255	0.000050
C41	C	1.112923	-0.642995	0.000034
C42	C	1.210041	-0.105089	0.000100
C43	C	1.211037	-0.054625	0.000113
C44	C	1.038273	-0.050570	0.000093
C45	C	1.037276	-0.101030	0.000085
C46	C	1.123168	-0.128288	0.000085
O47	O	0.962280	-0.179134	0.000092
O48	O	1.281921	-0.186683	0.000073
C49	C	1.203925	-0.412897	0.000052
C50	C	1.117046	-0.436096	0.000035
C51	C	1.031169	-0.408835	0.000029
C52	C	1.116040	-0.486557	0.000035
C53	C	1.201917	-0.513818	0.000042
C54	C	1.288798	-0.490617	0.000049
C55	C	1.289802	-0.440157	0.000059
C56	C	0.944288	-0.432037	0.000022
C57	C	0.943292	-0.482496	0.000013
C58	C	1.029168	-0.509756	0.000020
C59	C	1.291277	0.118300	0.000088
C60	C	1.396422	0.123787	0.000090
C61	C	1.109828	0.202376	0.000050
C62	C	1.110913	0.256082	0.000034
N63	N	1.101664	0.121962	0.265594
N64	N	1.134415	0.106752	-0.265444
C65	C	1.088813	0.127936	0.474634
C66	C	1.147264	0.100779	0.525523
C67	C	1.140113	0.104104	0.641839
C68	C	1.095962	0.124612	0.358306
H69	H	0.619555	0.171325	0.000051
C70	C	0.555102	0.036186	-0.087526
C71	C	0.605805	0.044265	0.000082
H72	H	0.529584	0.004925	-0.087526
H73	H	0.504515	0.059869	-0.087516
H74	H	0.596829	0.038277	-0.146953
H75	H	0.564076	0.042177	0.059509
H76	H	0.656398	0.020574	0.000081
C77	C	1.205750	0.018572	0.492542
C78	C	1.222067	0.065975	0.466543
H79	H	1.251925	-0.002927	0.456160
H80	H	1.210621	0.016330	0.564104
H81	H	1.143641	0.010161	0.474978
H82	H	1.284174	0.074387	0.484115
H83	H	1.217205	0.068219	0.394966
C84	C	1.030218	0.210128	0.507878
C85	C	1.014012	0.162694	0.533734
H86	H	0.984036	0.231585	0.544368
H87	H	1.092323	0.218551	0.525399
H88	H	1.025269	0.212419	0.436330
H89	H	1.018967	0.160402	0.605281
H90	H	0.951891	0.154269	0.516219
H91	H	0.872532	-0.501380	0.000008
H92	H	1.281793	-0.035739	0.000130
H93	H	1.363564	-0.269896	0.000096
C94	C	1.380913	-0.104018	0.000130
C95	C	1.304454	-0.135046	0.000109
H96	H	1.439196	-0.122513	0.000147
H97	H	1.381375	-0.085951	-0.059297
H98	H	1.374026	-0.082554	0.059567
H99	H	1.311337	-0.156509	-0.059333
H100	H	1.303992	-0.153122	0.059542
H101	H	1.361743	-0.361429	0.000079
C102	C	1.305571	-0.618369	-0.087552
C103	C	1.294311	-0.644755	0.000059
H104	H	1.364533	-0.602627	-0.087543
H105	H	1.305254	-0.639670	-0.146971
H106	H	1.254569	-0.594911	-0.087548
H107	H	1.345310	-0.668217	0.000050
H108	H	1.294636	-0.623453	0.059493
C109	C	1.272958	-0.799878	0.000025
C110	C	1.292200	-0.750689	0.000035
H111	H	1.331234	-0.818382	0.000007
H112	H	1.233652	-0.805613	0.059457
H113	H	1.240951	-0.809001	-0.059407
H114	H	1.324200	-0.741565	0.059472
H115	H	1.331522	-0.744952	-0.059402
C116	C	0.882880	-0.731228	-0.087602
C117	C	0.929528	-0.742155	0.000017
H118	H	0.823919	-0.746971	-0.087614
H119	H	0.871198	-0.697277	-0.087593
H120	H	0.921884	-0.742035	-0.147021
H121	H	0.890527	-0.731345	0.059437
H122	H	0.941207	-0.776113	0.000018
C123	C	0.932318	-0.609604	-0.087596
C124	C	0.931629	-0.636238	0.000016
H125	H	0.874028	-0.591114	-0.087601
H126	H	0.984189	-0.588561	-0.087585
H127	H	0.939190	-0.631077	-0.147020
H128	H	0.924764	-0.614765	0.059441
H129	H	0.879744	-0.657283	0.000014
H130	H	0.877360	-0.258456	0.000004
H131	H	0.875533	-0.349993	-0.000001
H132	H	0.966524	-0.119918	0.000099
C133	C	0.963121	0.028591	0.000081
C134	C	0.943881	-0.020599	0.000079
H135	H	0.904847	0.047093	0.000060
H136	H	0.995100	0.037719	0.059518
H137	H	1.002455	0.034320	-0.059347
H138	H	0.904553	-0.026329	0.059510
H139	H	0.911887	-0.029730	-0.059364
H140	H	1.358722	-0.512821	0.000060
C141	C	1.460466	-0.449254	0.000065
C142	C	1.385312	-0.414662	0.000066
H143	H	1.519432	-0.433516	0.000061
H144	H	1.452811	-0.467152	0.059492
H145	H	1.460130	-0.470550	-0.059372
H146	H	1.385644	-0.393368	0.059506
H147	H	1.392969	-0.396756	-0.059368
H148	H	0.874355	-0.409846	0.000014
