data_functionalizedCrystal
_audit_creation_method	'MofGen! by Chris Wilmer'
_symmetry_space_group_name_H-M	'P1'
_symmetry_Int_Tables_number	1
_symmetry_cell_setting	triclinic
loop_
_symmetry_equiv_pos_as_xyz
  x,y,z
_cell_length_a	10.686285
_cell_length_b	11.169417
_cell_length_c	11.169409
_cell_angle_alpha	89.979747
_cell_angle_beta	85.599661
_cell_angle_gamma	85.633103
loop_
_atom_site_label
_atom_site_type_symbol
_atom_site_fract_x
_atom_site_fract_y
_atom_site_fract_z
Zn1	Zn	-0.502208	1.871640	-0.641950
Zn2	Zn	-0.168874	2.204974	-0.308616
Zn3	Zn	0.164459	2.538307	0.024717
Zn4	Zn	-0.713260	1.886937	-0.425893
Zn5	Zn	-0.379926	2.220271	-0.092559
Zn6	Zn	-0.046593	2.553604	0.240774
Zn7	Zn	-0.502286	1.670929	-0.441279
Zn8	Zn	-0.168953	2.004263	-0.107946
Zn9	Zn	0.164381	2.337596	0.225387
Zn10	Zn	-0.713159	1.686336	-0.626546
Zn11	Zn	-0.379825	2.019670	-0.293213
Zn12	Zn	-0.046492	2.353003	0.040121
O13	O	-0.607728	1.778961	-0.533917
O14	O	-0.274395	2.112294	-0.200584
O15	O	0.058939	2.445627	0.132750
O16	O	-0.530214	2.041620	-0.613296
O17	O	-0.196881	2.374953	-0.279963
O18	O	0.136453	2.708287	0.053370
O19	O	-0.685349	1.858237	-0.259978
O20	O	-0.352015	2.191571	0.073355
O21	O	-0.018682	2.524904	0.406688
O22	O	-0.325698	1.684704	-0.480785
O23	O	0.007635	2.018038	-0.147451
O24	O	0.340968	2.351371	0.185882
O25	O	-0.685273	2.052858	-0.454560
O26	O	-0.351940	2.386192	-0.121227
O27	O	-0.018606	2.719525	0.212107
O28	O	-0.325641	1.832166	-0.628216
O29	O	0.007692	2.165499	-0.294883
O30	O	0.341026	2.498832	0.038450
O31	O	-0.530347	1.699537	-0.271283
O32	O	-0.197014	2.032870	0.062050
O33	O	0.136320	2.366204	0.395384
O34	O	-0.530249	1.505023	-0.465848
O35	O	-0.196916	1.838356	-0.132515
O36	O	0.136418	2.171689	0.200818
O37	O	-0.685101	1.710964	-0.796545
O38	O	-0.351767	2.044297	-0.463211
O39	O	-0.018434	2.377630	-0.129878
O40	O	-0.685176	1.516342	-0.601963
O41	O	-0.351843	1.849676	-0.268629
O42	O	-0.018510	2.183009	0.064704
O43	O	-0.530116	1.847105	-0.807862
O44	O	-0.196783	2.180439	-0.474528
O45	O	0.136551	2.513772	-0.141195
O46	O	-0.889823	1.873177	-0.439624
O47	O	-0.556490	2.206510	-0.106290
O48	O	-0.223157	2.539844	0.227043
O49	O	-0.889749	1.725796	-0.587043
O50	O	-0.556416	2.059130	-0.253709
O51	O	-0.223082	2.392463	0.079624
C52	C	-0.607711	1.467135	-0.533904
C53	C	-0.274378	1.800468	-0.200571
C54	C	0.058956	2.133802	0.132762
C55	C	-0.607734	1.333737	-0.533925
C56	C	-0.274401	1.667070	-0.200592
C57	C	0.058933	2.000403	0.132741
C58	C	-0.935571	1.802851	-0.510018
C59	C	-0.602237	2.136184	-0.176685
C60	C	-0.268904	2.469518	0.156648
C61	C	-1.075823	1.813181	-0.499834
C62	C	-0.742490	2.146514	-0.166501
C63	C	-0.409156	2.479848	0.166832
C64	C	-0.278605	1.755010	-0.557935
C65	C	0.054728	2.088343	-0.224602
C66	C	0.388061	2.421677	0.108732
C67	C	-0.138353	1.744804	-0.568170
C68	C	0.194981	2.078137	-0.234837
C69	C	0.528314	2.411470	0.098496
C70	C	-0.607588	1.779047	-0.846970
C71	C	-0.274255	2.112380	-0.513636
C72	C	0.059078	2.445713	-0.180303
C73	C	-0.607529	1.779083	-0.980374
C74	C	-0.274195	2.112417	-0.647041
C75	C	0.059138	2.445750	-0.313707
C76	C	-0.607746	2.092004	-0.533930
C77	C	-0.274413	2.425338	-0.200597
C78	C	0.058921	2.758671	0.132737
C79	C	-0.607754	2.225405	-0.533936
C80	C	-0.274420	2.558738	-0.200602
C81	C	0.058913	2.892072	0.132731
C82	C	-0.607776	1.778938	-0.222089
C83	C	-0.274443	2.112271	0.111245
C84	C	0.058890	2.445604	0.444578
C85	C	-0.607480	1.779107	-0.088711
C86	C	-0.274147	2.112441	0.244623
C87	C	0.059186	2.445774	0.577956
H88	H	-1.084591	1.678361	-0.634468
H89	H	-0.751257	2.011694	-0.301135
H90	H	-0.417924	2.345027	0.032198
C91	C	-1.148458	1.902940	-0.410253
C92	C	-0.815125	2.236274	-0.076920
C93	C	-0.481792	2.569607	0.256414
N94	N	-1.203168	1.970546	-0.342782
N95	N	-0.869835	2.303879	-0.009448
N96	N	-0.536502	2.637213	0.323885
