data_functionalizedCrystal
_audit_creation_method	'MofGen! by Chris Wilmer'
_symmetry_space_group_name_H-M	'P1'
_symmetry_Int_Tables_number	1
_symmetry_cell_setting	triclinic
loop_
_symmetry_equiv_pos_as_xyz
  x,y,z
_cell_length_a	16.109301
_cell_length_b	17.038272
_cell_length_c	14.586319
_cell_angle_alpha	89.995924
_cell_angle_beta	89.999213
_cell_angle_gamma	87.286518
loop_
_atom_site_label
_atom_site_type_symbol
_atom_site_fract_x
_atom_site_fract_y
_atom_site_fract_z
O1	O	1.110268	0.100495	-0.076183
O2	O	1.360268	0.350495	0.173817
O3	O	1.610268	0.600495	0.423817
O4	O	1.860268	0.850495	0.673817
O5	O	0.869094	0.113001	-0.076198
O6	O	1.119094	0.363001	0.173802
O7	O	1.369094	0.613001	0.423802
O8	O	1.619094	0.863001	0.673802
O9	O	0.988248	-0.007067	-0.076183
O10	O	1.238248	0.242933	0.173817
O11	O	1.488248	0.492933	0.423817
O12	O	1.738248	0.742933	0.673817
O13	O	0.991114	0.220564	-0.076198
O14	O	1.241114	0.470564	0.173802
O15	O	1.491114	0.720564	0.423802
O16	O	1.741114	0.970564	0.673802
O17	O	0.988239	-0.007069	0.076298
O18	O	1.238239	0.242931	0.326298
O19	O	1.488239	0.492931	0.576298
O20	O	1.738239	0.742931	0.826298
O21	O	0.869085	0.113000	0.076283
O22	O	1.119085	0.363000	0.326283
O23	O	1.369085	0.613000	0.576283
O24	O	1.619085	0.863000	0.826283
O25	O	1.110259	0.100493	0.076298
O26	O	1.360259	0.350493	0.326298
O27	O	1.610259	0.600493	0.576298
O28	O	1.860259	0.850493	0.826298
Cu29	Cu	0.989671	0.106746	0.090213
Cu30	Cu	1.239671	0.356746	0.340213
Cu31	Cu	1.489671	0.606746	0.590213
Cu32	Cu	1.739671	0.856746	0.840213
Cu33	Cu	0.989682	0.106748	-0.090113
Cu34	Cu	1.239682	0.356748	0.159887
Cu35	Cu	1.489682	0.606748	0.409887
Cu36	Cu	1.739682	0.856748	0.659887
O37	O	0.991105	0.220562	0.076283
O38	O	1.241105	0.470562	0.326283
O39	O	1.491105	0.720562	0.576283
O40	O	1.741105	0.970562	0.826283
C41	C	0.838079	0.112494	0.000041
C42	C	1.088079	0.362494	0.250041
C43	C	1.338079	0.612494	0.500041
C44	C	1.588079	0.862494	0.750041
C45	C	0.745676	0.110975	0.000035
C46	C	0.995676	0.360975	0.250035
C47	C	1.245676	0.610975	0.500035
C48	C	1.495676	0.860975	0.750035
C49	C	0.528212	0.178690	0.000042
C50	C	0.778212	0.428690	0.250042
C51	C	1.028212	0.678690	0.500042
C52	C	1.278212	0.928690	0.750042
C53	C	0.441390	0.177257	0.000048
C54	C	0.691390	0.427257	0.250048
C55	C	0.941390	0.677257	0.500048
C56	C	1.191390	0.927257	0.750048
C57	C	0.451147	0.034799	0.000053
C58	C	0.701147	0.284799	0.250053
C59	C	0.951147	0.534799	0.500053
C60	C	1.201147	0.784799	0.750053
C61	C	0.537968	0.036233	0.000054
C62	C	0.787968	0.286233	0.250054
C63	C	1.037968	0.536233	0.500054
C64	C	1.287968	0.786233	0.750054
C65	C	0.576498	0.108181	0.000043
C66	C	0.826498	0.358181	0.250043
C67	C	1.076498	0.608181	0.500043
C68	C	1.326498	0.858181	0.750043
C69	C	0.402855	0.105314	0.000049
C70	C	0.652855	0.355314	0.250049
C71	C	0.902855	0.605314	0.500049
C72	C	1.152855	0.855314	0.750049
C73	C	0.308719	0.103759	0.000055
C74	C	0.558719	0.353759	0.250055
C75	C	0.808719	0.603759	0.500055
C76	C	1.058719	0.853759	0.750055
C77	C	0.670640	0.109736	0.000039
C78	C	0.920640	0.359736	0.250039
C79	C	1.170640	0.609736	0.500039
C80	C	1.420640	0.859736	0.750039
C81	C	0.985636	-0.036196	0.000057
C82	C	1.235636	0.213804	0.250057
C83	C	1.485636	0.463804	0.500057
C84	C	1.735636	0.713804	0.750057
C85	C	0.977857	-0.122989	0.000056
C86	C	1.227857	0.127011	0.250056
C87	C	1.477857	0.377011	0.500056
C88	C	1.727857	0.627011	0.750056
C89	C	1.049277	-0.173104	0.000062
C90	C	1.299277	0.076896	0.250062
C91	C	1.549277	0.326896	0.500062
C92	C	1.799277	0.576896	0.750062
C93	C	1.041963	-0.254654	0.000052
C94	C	1.291963	-0.004654	0.250052
C95	C	1.541963	0.245346	0.500052
C96	C	1.791963	0.495346	0.750052
C97	C	0.963228	-0.286089	0.000044
C98	C	1.213228	-0.036089	0.250044
C99	C	1.463228	0.213911	0.500044
C100	C	1.713228	0.463911	0.750044
C101	C	0.891802	-0.235967	0.000036
C102	C	1.141802	0.014033	0.250036
C103	C	1.391802	0.264033	0.500036
C104	C	1.641802	0.514033	0.750036
C105	C	0.899116	-0.154418	0.000039
C106	C	1.149116	0.095582	0.250039
C107	C	1.399116	0.345582	0.500039
C108	C	1.649116	0.595582	0.750039
C109	C	0.937385	-0.531846	0.000030
C110	C	1.187385	-0.281846	0.250030
C111	C	1.437385	-0.031846	0.500030
C112	C	1.687385	0.218154	0.750030
C113	C	0.930076	-0.613402	0.000031
C114	C	1.180076	-0.363402	0.250031
C115	C	1.430076	-0.113402	0.500031
C116	C	1.680076	0.136598	0.750031
C117	C	1.080238	-0.632083	0.000045
C118	C	1.330238	-0.382083	0.250045
C119	C	1.580238	-0.132083	0.500045
C120	C	1.830238	0.117917	0.750045
C121	C	1.087546	-0.550532	0.000053
C122	C	1.337546	-0.300532	0.250053
C123	C	1.587546	-0.050532	0.500053
C124	C	1.837546	0.199468	0.750053
C125	C	1.016120	-0.500418	0.000040
C126	C	1.266120	-0.250418	0.250040
C127	C	1.516120	-0.000418	0.500040
C128	C	1.766120	0.249582	0.750040
C129	C	0.955749	-0.369446	0.000038
C130	C	1.205749	-0.119446	0.250038
C131	C	1.455749	0.130554	0.500038
C132	C	1.705749	0.380554	0.750038
C133	C	1.023599	-0.417062	0.000040
C134	C	1.273599	-0.167062	0.250040
C135	C	1.523599	0.082938	0.500040
C136	C	1.773599	0.332938	0.750040
C137	C	1.141274	0.101001	0.000057
C138	C	1.391274	0.351001	0.250057
C139	C	1.641274	0.601001	0.500057
C140	C	1.891274	0.851001	0.750057
C141	C	1.233677	0.102519	0.000057
C142	C	1.483677	0.352519	0.250057
C143	C	1.733677	0.602519	0.500057
C144	C	1.983677	0.852519	0.750057
C145	C	0.993717	0.249691	0.000041
C146	C	1.243717	0.499691	0.250041
C147	C	1.493717	0.749691	0.500041
C148	C	1.743717	0.999691	0.750041
C149	C	1.001496	0.336484	0.000036
C150	C	1.251496	0.586484	0.250036
C151	C	1.501496	0.836484	0.500036
C152	C	1.751496	1.086484	0.750036
N153	N	0.989670	0.106744	0.217045
N154	N	1.239670	0.356744	0.467045
N155	N	1.489670	0.606744	0.717045
N156	N	1.739670	0.856744	0.967045
N157	N	0.989689	0.106744	-0.216945
N158	N	1.239689	0.356744	0.033055
N159	N	1.489689	0.606744	0.283055
N160	N	1.739689	0.856744	0.533055
C161	C	1.042451	0.053596	0.452058
C162	C	1.292451	0.303596	0.702058
C163	C	1.542451	0.553596	0.952058
C164	C	1.792451	0.803596	1.202058
C165	C	1.042453	0.053594	0.548039
C166	C	1.292453	0.303594	0.798039
C167	C	1.542453	0.553594	1.048039
C168	C	1.792453	0.803594	1.298039
C169	C	0.936902	0.159895	0.548036
C170	C	1.186902	0.409895	0.798036
C171	C	1.436902	0.659895	1.048036
C172	C	1.686902	0.909895	1.298036
C173	C	0.936896	0.159893	0.452056
C174	C	1.186896	0.409893	0.702056
C175	C	1.436896	0.659893	0.952056
C176	C	1.686896	0.909893	1.202056
C177	C	0.989675	0.106744	0.404070
C178	C	1.239675	0.356744	0.654070
C179	C	1.489675	0.606744	0.904070
C180	C	1.739675	0.856744	1.154070
C181	C	0.989684	0.106744	0.596030
C182	C	1.239684	0.356744	0.846030
C183	C	1.489684	0.606744	1.096030
C184	C	1.739684	0.856744	1.346030
C185	C	0.989686	0.106743	0.700098
C186	C	1.239686	0.356743	0.950098
C187	C	1.489686	0.606743	1.200098
C188	C	1.739686	0.856743	1.450098
C189	C	0.989672	0.106744	0.299996
C190	C	1.239672	0.356744	0.549996
C191	C	1.489672	0.606744	0.799996
C192	C	1.739672	0.856744	1.049996
H193	H	0.419765	-0.023778	0.000067
H194	H	0.669765	0.226222	0.250067
H195	H	0.919765	0.476222	0.500067
H196	H	1.169765	0.726222	0.750067
H197	H	0.893916	0.203173	0.412982
H198	H	1.143916	0.453173	0.662982
H199	H	1.393916	0.703173	0.912982
H200	H	1.643916	0.953173	1.162982
C201	C	0.570592	0.257834	0.000042
C202	C	0.820592	0.507834	0.250042
C203	C	1.070592	0.757834	0.500042
C204	C	1.320592	1.007834	0.750042
N205	N	0.602510	0.317448	0.000047
N206	N	0.852510	0.567448	0.250047
N207	N	1.102510	0.817448	0.500047
N208	N	1.352510	1.067448	0.750047
C209	C	0.388279	0.254822	0.000051
C210	C	0.638279	0.504822	0.250051
C211	C	0.888279	0.754822	0.500051
C212	C	1.138279	1.004822	0.750051
N213	N	0.348277	0.313248	0.000055
N214	N	0.598277	0.563248	0.250055
N215	N	0.848277	0.813248	0.500055
N216	N	1.098277	1.063248	0.750055
H217	H	1.085425	0.010318	0.412989
H218	H	1.335425	0.260318	0.662989
H219	H	1.585425	0.510318	0.912989
H220	H	1.835425	0.760318	1.162989
H221	H	0.879224	-0.491053	0.000020
H222	H	1.129224	-0.241053	0.250020
H223	H	1.379224	0.008947	0.500020
H224	H	1.629224	0.258947	0.750020
C225	C	1.100503	-0.004880	0.600822
C226	C	1.350503	0.245120	0.850822
C227	C	1.600503	0.495120	1.100822
C228	C	1.850503	0.745120	1.350822
N229	N	1.144226	-0.048928	0.640577
N230	N	1.394226	0.201072	0.890577
N231	N	1.644226	0.451072	1.140577
N232	N	1.894226	0.701072	1.390577
C233	C	0.591085	-0.041336	0.000056
C234	C	0.841085	0.208664	0.250056
C235	C	1.091085	0.458664	0.500056
C236	C	1.341085	0.708664	0.750056
N237	N	0.631094	-0.099759	0.000059
N238	N	0.881094	0.150241	0.250059
N239	N	1.131094	0.400241	0.500059
N240	N	1.381094	0.650241	0.750059
H241	H	1.100122	-0.295455	0.000059
H242	H	1.350122	-0.045455	0.250059
H243	H	1.600122	0.204545	0.500059
H244	H	1.850122	0.454545	0.750059
C245	C	1.135893	-0.138535	0.000070
C246	C	1.385893	0.111465	0.250070
C247	C	1.635893	0.361465	0.500070
C248	C	1.885893	0.611465	0.750070
N249	N	1.201135	-0.112500	0.000073
N250	N	1.451135	0.137500	0.250073
N251	N	1.701135	0.387500	0.500073
N252	N	1.951135	0.637500	0.750073
H253	H	1.151661	-0.524945	0.000059
H254	H	1.401661	-0.274945	0.250059
H255	H	1.651661	-0.024945	0.500059
H256	H	1.901661	0.225055	0.750059
H257	H	0.893932	0.203169	0.587116
H258	H	1.143932	0.453169	0.837116
H259	H	1.393932	0.703169	1.087116
H260	H	1.643932	0.953169	1.337116
C261	C	1.158801	-0.687214	0.000050
C262	C	1.408801	-0.437214	0.250050
C263	C	1.658801	-0.187214	0.500050
C264	C	1.908801	0.062786	0.750050
N265	N	1.217978	-0.728740	0.000050
N266	N	1.467978	-0.478740	0.250050
N267	N	1.717978	-0.228740	0.500050
N268	N	1.967978	0.021260	0.750050
H269	H	0.865956	-0.638991	0.000039
H270	H	1.115956	-0.388991	0.250039
H271	H	1.365956	-0.138991	0.500039
H272	H	1.615956	0.111009	0.750039
H273	H	0.827693	-0.261567	0.000024
H274	H	1.077693	-0.011567	0.250024
H275	H	1.327693	0.238433	0.500024
H276	H	1.577693	0.488433	0.750024
C277	C	0.820548	-0.099292	0.000035
C278	C	1.070548	0.150708	0.250035
C279	C	1.320548	0.400708	0.500035
C280	C	1.570548	0.650708	0.750035
N281	N	0.761367	-0.057771	0.000030
N282	N	1.011367	0.192229	0.250030
N283	N	1.261367	0.442229	0.500030
N284	N	1.511367	0.692229	0.750030
C285	C	1.110206	-0.382481	0.000053
C286	C	1.360206	-0.132481	0.250053
C287	C	1.610206	0.117519	0.500053
C288	C	1.860206	0.367519	0.750053
N289	N	1.175439	-0.356429	0.000069
N290	N	1.425439	-0.106429	0.250069
N291	N	1.675439	0.143571	0.500069
N292	N	1.925439	0.393571	0.750069
C293	C	0.869142	-0.404032	0.000049
C294	C	1.119142	-0.154032	0.250049
C295	C	1.369142	0.095968	0.500049
C296	C	1.619142	0.345968	0.750049
N297	N	0.803909	-0.430085	0.000060
N298	N	1.053909	-0.180085	0.250060
N299	N	1.303909	0.069915	0.500060
N300	N	1.553909	0.319915	0.750060
