data_functionalizedCrystal
_audit_creation_method	'MofGen! by Chris Wilmer'
_symmetry_space_group_name_H-M	'P1'
_symmetry_Int_Tables_number	1
_symmetry_cell_setting	triclinic
loop_
_symmetry_equiv_pos_as_xyz
  x,y,z
_cell_length_a	27.732048
_cell_length_b	10.723024
_cell_length_c	9.798715
_cell_angle_alpha	89.998033
_cell_angle_beta	90.002073
_cell_angle_gamma	83.555262
loop_
_atom_site_label
_atom_site_type_symbol
_atom_site_fract_x
_atom_site_fract_y
_atom_site_fract_z
O1	O	-0.641848	-0.148462	0.113312
O2	O	-0.501195	-0.171036	0.113353
O3	O	-0.574766	0.021961	0.113327
O4	O	-0.568277	-0.341460	0.113339
O5	O	-0.574761	0.021962	-0.113656
O6	O	-0.501190	-0.171036	-0.113629
O7	O	-0.641843	-0.148462	-0.113670
Zn8	Zn	-0.571516	-0.159749	-0.149688
Zn9	Zn	-0.571523	-0.159749	0.149371
O10	O	-0.568272	-0.341459	-0.113644
C11	C	-0.483183	-0.170562	-0.000133
C12	C	-0.429519	-0.169135	-0.000117
C13	C	-0.574291	0.068442	-0.000163
C14	C	-0.572879	0.206937	-0.000158
C15	C	-0.659856	-0.148936	-0.000181
C16	C	-0.713519	-0.150363	-0.000188
C17	C	-0.091356	-0.274201	-0.000173
C18	C	0.110336	-0.268907	-0.000185
O19	O	0.140995	-0.364983	-0.000241
N20	N	0.130171	-0.154468	-0.000187
C21	C	0.099578	-0.041344	-0.000194
O22	O	0.121077	0.056116	-0.000209
C23	C	-0.102113	-0.046639	-0.000191
C24	C	-0.121945	-0.161086	-0.000176
C25	C	-0.111188	-0.388639	-0.000159
C26	C	-0.161608	-0.389961	-0.000149
C27	C	-0.192197	-0.276846	-0.000152
C28	C	-0.172365	-0.162408	-0.000166
C29	C	-0.132704	0.066484	-0.000208
C30	C	-0.183130	0.065150	-0.000211
C31	C	-0.202961	-0.049297	-0.000196
C32	C	-0.253373	-0.050615	-0.000158
N33	N	-0.273207	-0.165055	-0.000157
C34	C	-0.242619	-0.278170	-0.000154
C35	C	0.205470	-0.038571	-0.000193
C36	C	0.255892	-0.037247	-0.000191
C37	C	0.266647	-0.264811	-0.000185
C38	C	0.216223	-0.266134	-0.000177
C39	C	0.185635	-0.153011	-0.000191
C40	C	-0.348506	-0.280938	-0.000130
C41	C	-0.398931	-0.282251	-0.000114
C42	C	-0.409681	-0.054687	-0.000127
C43	C	-0.359260	-0.053374	-0.000136
C44	C	-0.328673	-0.166510	-0.000143
O45	O	-0.284061	0.045409	-0.000118
O46	O	-0.264127	-0.375615	-0.000169
C47	C	-0.040936	-0.272879	-0.000184
C48	C	-0.021104	-0.158441	-0.000197
C49	C	-0.051692	-0.045326	-0.000200
C50	C	0.029318	-0.157117	-0.000195
C51	C	0.059907	-0.270232	-0.000192
C52	C	0.040072	-0.384672	-0.000191
C53	C	-0.010348	-0.385994	-0.000180
C54	C	-0.031858	0.069114	-0.000202
C55	C	0.018563	0.070427	-0.000211
C56	C	0.049151	-0.042689	-0.000208
C57	C	-0.568747	-0.387939	-0.000151
C58	C	-0.570160	-0.526435	-0.000147
N59	N	-0.571515	-0.159748	-0.353788
C60	C	-0.614045	0.283624	-0.000168
C61	C	-0.612586	0.426767	-0.000162
C62	C	-0.543338	-0.088550	-0.421591
C63	C	-0.543345	-0.088545	-0.578753
N64	N	-0.571528	-0.159740	0.353471
H65	H	-0.415074	-0.375451	-0.000101
C66	C	-0.604121	-0.242091	-0.567769
N67	N	-0.628670	-0.304117	-0.508437
C68	C	-0.510806	-0.006034	-0.342832
N69	N	-0.486326	0.056183	-0.283513
C70	C	-0.663120	0.229161	-0.000192
N71	N	-0.700084	0.188142	-0.000215
H72	H	-0.647828	0.492658	-0.000177
H73	H	-0.323607	-0.373065	-0.000140
H74	H	-0.177750	-0.483156	-0.000136
H75	H	-0.534916	0.407681	-0.000148
H76	H	-0.536554	0.247256	-0.000138
C77	C	-0.510754	-0.006196	-0.657522
N78	N	-0.486205	0.055830	-0.716854
H79	H	-0.056759	0.161228	-0.000208
H80	H	-0.086288	-0.480756	-0.000162
H81	H	0.200080	-0.359327	-0.000172
H82	H	0.064986	-0.476775	-0.000183
H83	H	-0.595640	-0.220706	-0.412091
H84	H	0.291560	-0.356914	-0.000183
H85	H	0.272034	0.055947	-0.000182
H86	H	-0.026490	-0.479189	-0.000170
C87	C	0.171829	0.085882	-0.000198
N88	N	0.146492	0.179622	-0.000195
H89	H	-0.208033	0.157271	-0.000224
C90	C	-0.110902	0.192387	-0.000252
N91	N	-0.094481	0.287224	-0.000296
H92	H	-0.343113	0.039818	-0.000129
H93	H	0.034704	0.163630	-0.000212
C94	C	-0.443337	0.069733	-0.000147
N95	N	-0.468689	0.163448	-0.000176
