data_functionalizedCrystal
_audit_creation_method	'MofGen! by Chris Wilmer'
_symmetry_space_group_name_H-M	'P1'
_symmetry_Int_Tables_number	1
_symmetry_cell_setting	triclinic
loop_
_symmetry_equiv_pos_as_xyz
  x,y,z
_cell_length_a	10.489746
_cell_length_b	10.654550
_cell_length_c	9.730223
_cell_angle_alpha	90.002963
_cell_angle_beta	90.001109
_cell_angle_gamma	95.486898
loop_
_atom_site_label
_atom_site_type_symbol
_atom_site_fract_x
_atom_site_fract_y
_atom_site_fract_z
O1	O	1.693959	-0.177223	-0.114194
O2	O	1.322756	-0.193848	-0.114216
O3	O	1.516893	-0.002800	-0.114199
O4	O	1.499823	-0.368270	-0.114211
O5	O	1.516885	-0.002795	0.114381
O6	O	1.322749	-0.193843	0.114364
O7	O	1.693952	-0.177218	0.114386
Zn8	Zn	1.508350	-0.185530	0.150667
Zn9	Zn	1.508359	-0.185536	-0.150497
O10	O	1.499816	-0.368266	0.114369
C11	C	1.275222	-0.192589	0.000071
C12	C	1.133595	-0.188828	0.000062
C13	C	0.980797	-0.065043	0.000085
C14	C	1.058157	-0.126928	0.112781
C15	C	1.058120	-0.126962	-0.112581
C16	C	0.958609	-0.244075	0.112885
C17	C	0.958566	-0.244091	-0.112578
C18	C	1.035877	-0.306062	0.000145
C19	C	1.515636	0.044001	0.000089
C20	C	1.511886	0.183446	0.000084
C21	C	1.741487	-0.178477	0.000096
C22	C	1.883114	-0.182238	0.000096
C23	C	1.501073	-0.415067	0.000078
C24	C	1.504823	-0.554512	0.000074
N25	N	1.508352	-0.185525	0.356203
C26	C	1.626190	0.262876	0.000095
C27	C	1.622659	0.393898	0.000085
C28	C	1.390510	0.366048	0.000059
C29	C	1.394042	0.235028	0.000059
C30	C	1.744034	0.211294	0.000120
C31	C	1.858348	0.290725	0.000133
C32	C	1.854817	0.421748	0.000123
C33	C	1.736972	0.473339	0.000100
N34	N	1.508366	-0.185531	-0.356033
C35	C	1.430330	-0.108603	0.428149
C36	C	1.430334	-0.108609	0.572032
C37	C	1.586391	-0.262461	0.572011
C38	C	1.586381	-0.262461	0.428131
C39	C	1.352302	-0.031667	0.356222
C40	C	1.274275	0.045262	0.428167
C41	C	1.274278	0.045256	0.572050
C42	C	1.352308	-0.031679	0.643988
H43	H	1.101589	-0.077468	-0.207859
H44	H	1.210738	0.107891	0.369587
H45	H	1.746922	0.104610	0.000132
Cl46	Cl	2.006486	0.225869	0.000143
H47	H	1.210735	0.107885	0.630625
Cl48	Cl	1.352300	-0.031693	0.824871
Cl49	Cl	1.684482	-0.359169	0.662447
Cl50	Cl	1.684485	-0.359146	0.337678
H51	H	0.956125	0.036862	0.000202
Cl52	Cl	1.732538	0.638055	0.000149
Cl53	Cl	1.125312	-0.050547	0.259892
H54	H	1.352293	-0.031651	0.239065
H55	H	0.915303	-0.293512	0.208271
H56	H	1.060304	-0.408044	0.000204
H57	H	0.915045	-0.293522	-0.207864
H58	H	1.947896	0.486418	0.000119
H59	H	1.294566	0.408065	0.000043
Cl60	Cl	1.250343	0.135166	0.000044
