data_functionalizedCrystal
_audit_creation_method	'MofGen! by Chris Wilmer'
_symmetry_space_group_name_H-M	'P1'
_symmetry_Int_Tables_number	1
_symmetry_cell_setting	triclinic
loop_
_symmetry_equiv_pos_as_xyz
  x,y,z
_cell_length_a	14.853567
_cell_length_b	13.930277
_cell_length_c	14.853567
_cell_angle_alpha	90.008437
_cell_angle_beta	96.365070
_cell_angle_gamma	90.003636
loop_
_atom_site_label
_atom_site_type_symbol
_atom_site_fract_x
_atom_site_fract_y
_atom_site_fract_z
O1	O	1.196369	0.079756	-0.117691
O2	O	0.933909	0.079772	-0.131713
O3	O	1.072150	0.079767	0.006528
O4	O	1.058128	0.079762	-0.255932
O5	O	1.072130	-0.079895	0.006506
O6	O	0.933889	-0.079890	-0.131734
O7	O	1.196349	-0.079905	-0.117713
Zn8	Zn	1.065116	-0.105247	-0.124727
Zn9	Zn	1.065142	0.105114	-0.124699
O10	O	1.058108	-0.079900	-0.255953
C11	C	0.900311	-0.000057	-0.131088
C12	C	0.800227	-0.000051	-0.129184
C13	C	0.387693	-0.000070	-0.039019
C14	C	0.366412	-0.000073	-0.203251
C15	C	0.460446	-0.000070	-0.205042
C16	C	0.518108	-0.000066	-0.123819
C17	C	0.481736	-0.000065	-0.040806
C18	C	0.496825	-0.000061	-0.288053
C19	C	0.590864	-0.000057	-0.289846
C20	C	0.648528	-0.000060	-0.208623
C21	C	0.612150	-0.000060	-0.125607
C22	C	0.669812	-0.000056	-0.044384
C23	C	0.633437	-0.000063	0.038633
C24	C	0.539399	-0.000067	0.040417
C25	C	0.742565	-0.000055	-0.210407
C26	C	0.763855	-0.000050	-0.046172
N27	N	1.065104	-0.248814	-0.124745
C28	C	1.119898	-0.701077	-0.179462
C29	C	1.010414	-0.701058	-0.069899
C30	C	1.010401	-0.600562	-0.069914
C31	C	1.065138	-0.550319	-0.124702
C32	C	1.119888	-0.600572	-0.179476
C33	C	0.955658	-0.550302	-0.015134
C34	C	0.955643	-0.449800	-0.015145
C35	C	1.010376	-0.399555	-0.069939
C36	C	1.065128	-0.449814	-0.124716
C37	C	1.119865	-0.399571	-0.179505
C38	C	1.174612	-0.449829	-0.234287
C39	C	1.174621	-0.550328	-0.234270
C40	C	1.010367	-0.299056	-0.069957
C41	C	1.119855	-0.299066	-0.179519
C42	C	1.229947	-0.000075	-0.118337
C43	C	1.330031	-0.000075	-0.120241
C44	C	1.071504	-0.000061	0.040106
C45	C	1.069601	-0.000053	0.140189
N46	N	1.065161	0.248680	-0.124673
C47	C	1.058754	-0.000070	-0.289531
C48	C	1.060657	-0.000072	-0.389615
C49	C	0.979435	-0.000066	0.552723
C50	C	1.143668	-0.000076	0.574004
C51	C	1.145458	-0.000070	0.479970
C52	C	1.064235	-0.000064	0.422309
C53	C	0.981223	-0.000063	0.458680
C54	C	1.228469	-0.000080	0.443591
C55	C	1.230262	-0.000076	0.349552
C56	C	1.149039	-0.000063	0.291889
C57	C	1.066023	-0.000061	0.328266
C58	C	0.984800	-0.000055	0.270604
C59	C	0.901783	-0.000047	0.306979
C60	C	0.899999	-0.000050	0.401017
C61	C	1.150823	-0.000059	0.197851
C62	C	0.986588	-0.000052	0.176561
H63	H	0.358072	-0.000080	0.028572
Br64	Br	0.866774	-0.000041	0.602086
H65	H	0.920445	-0.000043	0.129618
Br66	Br	0.711703	-0.000046	0.148859
Br67	Br	0.881329	-0.381602	0.059184
Br68	Br	1.253893	-0.000105	0.652259
Br69	Br	0.791557	-0.000051	0.228714
H70	H	1.219196	-0.591256	-0.278869
H71	H	0.810798	-0.000050	0.019971
Br72	Br	0.881377	-0.618491	0.059217
Br73	Br	0.936136	-0.769244	0.004457
H74	H	0.832411	-0.000044	0.430643
H75	H	0.449870	-0.000054	-0.354180
H76	H	0.965795	-0.258141	-0.025351
Br77	Br	1.342925	-0.000073	0.300193
H78	H	1.219183	-0.408908	-0.278892
Br79	Br	1.338693	-0.000115	0.521849
Br80	Br	0.791930	-0.000034	-0.323063
Br81	Br	0.490027	-0.000073	0.153073
Br82	Br	0.640223	-0.000048	-0.402509
H83	H	1.164470	-0.742001	-0.224067
Br84	Br	1.194136	-0.230887	-0.253888
Br85	Br	1.263479	-0.000094	0.148487
H86	H	0.319459	-0.000068	-0.269379
