data_functionalizedCrystal
_audit_creation_method	'MofGen! by Chris Wilmer'
_symmetry_space_group_name_H-M	'P1'
_symmetry_Int_Tables_number	1
_symmetry_cell_setting	triclinic
loop_
_symmetry_equiv_pos_as_xyz
  x,y,z
_cell_length_a	17.699083
_cell_length_b	26.809956
_cell_length_c	17.699083
_cell_angle_alpha	89.996556
_cell_angle_beta	83.283015
_cell_angle_gamma	90.002782
loop_
_atom_site_label
_atom_site_type_symbol
_atom_site_fract_x
_atom_site_fract_y
_atom_site_fract_z
O1	O	1.004082	0.041411	0.095701
O2	O	0.783703	0.041427	0.108153
O3	O	0.900119	0.041414	-0.008262
O4	O	0.887666	0.041424	0.212116
O5	O	0.900097	-0.041545	-0.008245
O6	O	0.783681	-0.041532	0.108171
O7	O	1.004060	-0.041549	0.095718
Zn8	Zn	0.893867	-0.054712	0.101947
Zn9	Zn	0.893896	0.054590	0.101924
O10	O	0.887644	-0.041535	0.212134
C11	C	0.755495	-0.000050	0.107716
C12	C	0.671477	-0.000044	0.106377
C13	C	0.622856	-0.000041	0.174711
C14	C	0.543913	-0.000048	0.173448
C15	C	0.513592	-0.000054	0.103852
C16	C	0.562219	-0.000058	0.035513
C17	C	0.641161	-0.000055	0.036776
C18	C	0.243856	-0.000071	0.030418
C19	C	0.164908	-0.000072	0.029160
C20	C	0.146608	-0.000063	0.167090
C21	C	0.225550	-0.000060	0.168353
C22	C	0.274170	-0.000067	0.100015
C23	C	0.359769	-0.000061	0.101384
C24	C	0.427995	-0.000056	0.102481
N25	N	0.893853	-0.129308	0.101963
C26	C	0.945438	-0.473940	0.050388
C27	C	0.945456	-0.682817	0.050376
O28	O	0.989285	-0.709826	0.006530
N29	N	0.893900	-0.708935	0.101907
C30	C	0.842333	-0.682830	0.153441
O31	O	0.798476	-0.709837	0.197266
C32	C	0.842312	-0.473953	0.153449
C33	C	0.893876	-0.447838	0.101920
C34	C	0.996998	-0.447825	-0.001138
C35	C	0.996996	-0.395609	-0.001131
C36	C	0.945434	-0.369507	0.050400
C37	C	0.893874	-0.395622	0.101926
C38	C	0.790741	-0.447849	0.204979
C39	C	0.790739	-0.395627	0.204975
C40	C	0.842304	-0.369512	0.153445
C41	C	0.842310	-0.317304	0.153464
N42	N	0.893866	-0.291187	0.101933
C43	C	0.945428	-0.317288	0.050401
C44	C	0.842348	-0.792493	0.153435
C45	C	0.842354	-0.844712	0.153434
C46	C	0.945477	-0.844696	0.050368
C47	C	0.945474	-0.792476	0.050373
C48	C	0.893904	-0.766376	0.101904
C49	C	0.945420	-0.207630	0.050418
C50	C	0.945415	-0.155409	0.050431
C51	C	0.842290	-0.155430	0.153494
C52	C	0.842297	-0.207646	0.153485
C53	C	0.893865	-0.233745	0.101940
O54	O	0.798498	-0.290263	0.197281
O55	O	0.989266	-0.290272	0.006572
C56	C	0.945440	-0.526156	0.050382
C57	C	0.893881	-0.552271	0.101907
C58	C	0.842319	-0.526170	0.153439
C59	C	0.893887	-0.604490	0.101907
C60	C	0.945449	-0.630591	0.050375
C61	C	0.997005	-0.604474	-0.001156
C62	C	0.997002	-0.552257	-0.001150
C63	C	0.790763	-0.552287	0.204970
C64	C	0.790770	-0.604503	0.204960
C65	C	0.842332	-0.630605	0.153428
C66	C	1.032268	-0.000070	0.096156
C67	C	1.116286	-0.000073	0.097494
C68	C	0.899662	-0.000066	-0.036451
C69	C	0.898323	-0.000066	-0.120469
N70	N	0.893916	0.129186	0.101902
C71	C	0.966656	-0.000072	-0.169090
C72	C	0.965394	-0.000067	-0.248033
C73	C	0.895798	-0.000060	-0.278354
C74	C	0.827459	-0.000053	-0.229727
C75	C	0.828722	-0.000054	-0.150785
C76	C	0.822364	-0.000049	-0.548090
C77	C	0.821106	-0.000049	-0.627038
C78	C	0.959036	-0.000062	-0.645338
C79	C	0.960299	-0.000063	-0.566396
C80	C	0.891961	-0.000053	-0.517776
C81	C	0.893330	-0.000057	-0.432177
C82	C	0.894427	-0.000060	-0.363951
C83	C	0.888102	-0.000055	0.240322
C84	C	0.889440	-0.000051	0.324340
H85	H	0.680748	-0.000057	-0.018868
H86	H	0.504328	-0.000045	0.229092
H87	H	0.766718	-0.000041	-0.508512
H88	H	1.038991	-0.625734	-0.043113
H89	H	1.038986	-0.469072	-0.043104
H90	H	0.283434	-0.000077	-0.025228
H91	H	0.987407	-0.134148	0.008470
H92	H	1.014680	-0.000067	-0.684934
H93	H	0.800374	-0.865971	0.195402
H94	H	0.770792	-0.000044	-0.254420
H95	H	0.987410	-0.228874	0.008445
H96	H	0.537526	-0.000070	-0.021154
H97	H	0.764429	-0.000045	-0.651721
N98	N	0.094176	-0.000073	0.240806
H99	H	0.103911	0.030680	0.271175
H100	H	0.039584	-0.000100	0.229397
N101	N	1.039098	-0.000078	-0.300471
H102	H	1.041635	-0.030830	-0.333631
H103	H	1.041618	0.030697	-0.333585
N104	N	0.755020	-0.000045	-0.098340
H105	H	0.710739	-0.000041	-0.129525
H106	H	0.752529	-0.030798	-0.065182
H107	H	1.016971	-0.000071	-0.541714
N108	N	0.786682	-0.235810	0.209067
H109	H	0.753225	-0.257472	0.180184
H110	H	0.815588	-0.257451	0.242531
N111	N	1.052606	-0.367444	-0.056714
H112	H	1.106304	-0.376533	-0.048067
H113	H	1.043920	-0.376545	-0.110394
H114	H	0.987462	-0.771217	0.008413
H115	H	0.140225	-0.000078	-0.027517
N116	N	1.001093	-0.872853	-0.005213
H117	H	0.993267	-0.909895	0.002610
H118	H	0.992445	-0.863726	-0.058895
N119	N	0.786721	-0.764345	0.209016
H120	H	0.754066	-0.788819	0.241656
H121	H	0.815623	-0.742678	0.242445
H122	H	0.800311	-0.134170	0.195453
N123	N	1.052619	-0.524094	-0.056728
H124	H	1.085278	-0.548560	-0.089370
H125	H	1.023710	-0.502429	-0.090155
H126	H	0.748753	-0.469105	0.246938
H127	H	0.647537	-0.000036	0.231384
H128	H	0.250232	-0.000053	0.225025
N129	N	1.041722	-0.000080	-0.136389
H130	H	1.045312	-0.030835	-0.104045
H131	H	1.084774	-0.000064	-0.179215
H132	H	0.748743	-0.374378	0.246937
N133	N	0.735148	-0.632667	0.260539
H134	H	0.702483	-0.608204	0.293179
H135	H	0.701748	-0.654328	0.231593
N136	N	0.735143	-0.524139	0.260549
H137	H	0.702486	-0.548612	0.293188
H138	H	0.764048	-0.502474	0.293980
