data_functionalizedCrystal
_audit_creation_method	'MofGen! by Chris Wilmer'
_symmetry_space_group_name_H-M	'P1'
_symmetry_Int_Tables_number	1
_symmetry_cell_setting	triclinic
loop_
_symmetry_equiv_pos_as_xyz
  x,y,z
_cell_length_a	14.044220
_cell_length_b	14.044191
_cell_length_c	13.596369
_cell_angle_alpha	89.997249
_cell_angle_beta	89.993157
_cell_angle_gamma	93.190327
loop_
_atom_site_label
_atom_site_type_symbol
_atom_site_fract_x
_atom_site_fract_y
_atom_site_fract_z
O1	O	0.230202	1.277174	-0.081748
O2	O	0.730202	1.777174	0.418252
O3	O	0.221889	1.000501	-0.081761
O4	O	0.721889	1.500501	0.418239
O5	O	0.087709	1.134685	-0.081745
O6	O	0.587709	1.634685	0.418255
O7	O	0.364381	1.142990	-0.081764
O8	O	0.864381	1.642990	0.418236
O9	O	0.087700	1.134669	0.081838
O10	O	0.587700	1.634669	0.581838
O11	O	0.221880	1.000486	0.081822
O12	O	0.721880	1.500486	0.581822
O13	O	0.230193	1.277158	0.081835
O14	O	0.730193	1.777158	0.581835
Zn15	Zn	0.226035	1.138820	0.107801
Zn16	Zn	0.726035	1.638820	0.607801
Zn17	Zn	0.226047	1.138840	-0.107727
Zn18	Zn	0.726047	1.638840	0.392273
O19	O	0.364372	1.142975	0.081819
O20	O	0.864372	1.642975	0.581819
C21	C	0.218248	0.964872	0.000029
C22	C	0.718248	1.464872	0.500029
C23	C	0.207401	0.858728	0.000025
C24	C	0.707401	1.358728	0.500025
C25	C	0.264501	0.613270	0.000031
C26	C	0.764501	1.113270	0.500031
C27	C	0.187585	0.664395	0.000035
C28	C	0.687585	1.164395	0.500035
C29	C	0.198613	0.772532	0.000029
C30	C	0.698613	1.272532	0.500029
C31	C	0.253474	0.505123	0.000036
C32	C	0.753474	1.005123	0.500036
C33	C	0.052083	1.131041	0.000047
C34	C	0.552083	1.631041	0.500047
C35	C	-0.054060	1.120197	0.000048
C36	C	0.445940	1.620197	0.500048
C37	C	-0.248398	1.100370	0.000033
C38	C	0.251602	1.600370	0.500033
C39	C	-0.299526	1.177285	0.000033
C40	C	0.200474	1.677285	0.500033
C41	C	-0.407663	1.166253	0.000025
C42	C	0.092337	1.666253	0.500025
C43	C	-0.140252	1.111400	0.000041
C44	C	0.359748	1.611400	0.500041
C45	C	0.399998	1.146618	0.000025
C46	C	0.899998	1.646618	0.500025
C47	C	0.506142	1.157463	0.000018
C48	C	1.006142	1.657463	0.500018
C49	C	0.233834	1.312788	0.000043
C50	C	0.733834	1.812788	0.500043
C51	C	0.244681	1.418931	0.000040
C52	C	0.744681	1.918931	0.500040
N53	N	0.226027	1.138813	0.254893
N54	N	0.726027	1.638813	0.754893
N55	N	0.226048	1.138853	-0.254819
N56	N	0.726048	1.638853	0.245181
C57	C	0.226048	1.138839	0.656184
C58	C	0.726048	1.638839	1.156184
C59	C	0.226045	1.138829	0.544532
C60	C	0.726045	1.638829	1.044532
C61	C	0.226038	1.138826	0.455542
C62	C	0.726038	1.638826	0.955542
C63	C	0.226034	1.138816	0.343883
C64	C	0.726034	1.638816	0.843883
H65	H	0.338628	0.650711	0.000023
H66	H	0.838628	1.150711	0.500023
C67	C	-0.298971	1.000229	0.000036
C68	C	0.201029	1.500229	0.500036
H69	H	-0.366070	1.005860	0.000042
H70	H	0.133930	1.505860	0.500042
H71	H	-0.281023	0.966521	-0.057004
H72	H	0.218977	1.466521	0.442996
H73	H	-0.281039	0.966530	0.057093
H74	H	0.218961	1.466530	0.557093
H75	H	-0.262085	1.251419	-0.000030
H76	H	0.237915	1.751419	0.499970
H77	H	0.113452	0.626952	-0.000030
H78	H	0.613452	1.126952	0.499970
