data_functionalizedCrystal
_audit_creation_method	'MofGen! by Chris Wilmer'
_symmetry_space_group_name_H-M	'P1'
_symmetry_Int_Tables_number	1
_symmetry_cell_setting	triclinic
loop_
_symmetry_equiv_pos_as_xyz
  x,y,z
_cell_length_a	11.169417
_cell_length_b	21.295417
_cell_length_c	11.169409
_cell_angle_alpha	89.959706
_cell_angle_beta	89.979436
_cell_angle_gamma	90.030581
loop_
_atom_site_label
_atom_site_type_symbol
_atom_site_fract_x
_atom_site_fract_y
_atom_site_fract_z
Zn1	Zn	1.834810	-0.250544	-0.678476
Zn2	Zn	1.834629	-0.355832	-0.477765
Zn3	Zn	1.634093	-0.250582	-0.477810
Zn4	Zn	1.634035	-0.355781	-0.678410
O5	O	1.734392	-0.303185	-0.578115
O6	O	2.002735	-0.264516	-0.651860
O7	O	1.807975	-0.341908	-0.309821
O8	O	1.660818	-0.162488	-0.504476
O9	O	2.002602	-0.341871	-0.504398
O10	O	1.808284	-0.162460	-0.651904
O11	O	1.660643	-0.264581	-0.309854
O12	O	1.466136	-0.264532	-0.504411
O13	O	1.660720	-0.341783	-0.846368
O14	O	1.466093	-0.341821	-0.651791
O15	O	1.808228	-0.264466	-0.846417
O16	O	1.807919	-0.443914	-0.504334
O17	O	1.660544	-0.443877	-0.651747
C18	C	1.422567	-0.303175	-0.578100
C19	C	1.289167	-0.303186	-0.578122
C20	C	1.734239	-0.466736	-0.578054
C21	C	1.734283	-0.536704	-0.578068
C22	C	1.811024	-0.569499	-0.654889
C23	C	1.811067	-0.635242	-0.654919
C24	C	1.734380	-0.668187	-0.578106
C25	C	1.657624	-0.635384	-0.501280
C26	C	1.657575	-0.569643	-0.501261
N27	N	1.725307	-0.771458	-0.473071
N28	N	1.725360	-0.833910	-0.473093
C29	C	1.734520	-0.866262	-0.578160
N30	N	1.743649	-0.833803	-0.683209
N31	N	1.743602	-0.771346	-0.683186
C32	C	1.734424	-0.739472	-0.578119
C33	C	1.811312	-0.970342	-0.655020
C34	C	1.811346	-1.036086	-0.655051
C35	C	1.657909	-1.036227	-0.501402
C36	C	1.657869	-0.970484	-0.501381
C37	C	1.734577	-0.937546	-0.578188
C38	C	2.047434	-0.303195	-0.578131
C39	C	2.180834	-0.303199	-0.578138
C40	C	1.734488	-0.303115	-0.891158
C41	C	1.734529	-0.303085	-1.024558
C42	C	1.734578	-0.138994	-0.578202
C43	C	1.734657	-0.069026	-0.578240
C44	C	1.734365	-0.303209	-0.266290
C45	C	1.734556	-0.303061	-0.132891
H46	H	1.873481	-0.542683	-0.717433
O47	O	1.574922	-0.670920	-0.418429
H48	H	1.480704	-0.658348	-0.438933
O49	O	1.575108	-0.935114	-0.418502
H50	H	1.513985	-0.905170	-0.472151
O51	O	1.894039	-0.934811	-0.737861
H52	H	1.840274	-0.904850	-0.798858
O53	O	1.894119	-1.071463	-0.737914
H54	H	1.947453	-1.037511	-0.791308
O55	O	1.575199	-1.071749	-0.418544
H56	H	1.588130	-1.122974	-0.431455
O57	O	1.893850	-0.670626	-0.737768
H58	H	1.947186	-0.636677	-0.791167
O59	O	1.574817	-0.534265	-0.418386
H60	H	1.521503	-0.568215	-0.364969
