data_functionalizedCrystal
_audit_creation_method	'MofGen! by Chris Wilmer'
_symmetry_space_group_name_H-M	'P1'
_symmetry_Int_Tables_number	1
_symmetry_cell_setting	triclinic
loop_
_symmetry_equiv_pos_as_xyz
  x,y,z
_cell_length_a	6.817900
_cell_length_b	13.168018
_cell_length_c	19.453114
_cell_angle_alpha	100.361043
_cell_angle_beta	101.709288
_cell_angle_gamma	105.756000
loop_
_atom_site_label
_atom_site_type_symbol
_atom_site_fract_x
_atom_site_fract_y
_atom_site_fract_z
V1	V	-4.025475	-0.150065	-0.228779
O2	O	-3.993989	0.006058	-0.214435
O3	O	-3.995297	-0.296444	-0.236822
O4	O	-3.968166	-0.148262	-0.324175
O5	O	-4.021308	-0.143149	-0.126477
V6	V	-4.507896	-0.131331	-0.215376
O7	O	-4.289150	-0.191159	-0.258180
O8	O	-4.694418	-0.090237	-0.185975
O9	O	-4.314867	0.015048	-0.207334
O10	O	-4.656779	-0.287453	-0.229720
O11	O	-4.629460	-0.138246	-0.317678
O12	O	-4.341999	-0.133133	-0.119981
C13	C	-3.845019	-0.332112	-0.235691
C14	C	-3.901573	-0.451782	-0.242903
C15	C	-4.017622	-0.636151	-0.318410
C16	C	-3.964491	-0.523711	-0.311637
C17	C	-3.891793	-0.492299	-0.180937
C18	C	-3.944924	-0.604739	-0.187710
C19	C	-4.007835	-0.676662	-0.256449
C20	C	-4.060952	-0.789103	-0.263221
C21	C	-3.988268	-0.757690	-0.132522
C22	C	-3.935137	-0.645250	-0.125749
C23	C	-3.810409	-0.143091	-0.347118
C24	C	-3.844957	-0.142586	-0.425168
C25	C	-4.043642	-0.147752	-0.465761
C26	C	-4.076103	-0.147278	-0.539097
C27	C	-3.909879	-0.141659	-0.571840
C28	C	-3.711163	-0.136485	-0.531236
C29	C	-3.678701	-0.136949	-0.457900
N30	N	-3.857213	-0.198510	-0.694334
N31	N	-3.888064	-0.198072	-0.764001
C32	C	-4.007671	-0.140259	-0.792797
N33	N	-4.095300	-0.082915	-0.749297
N34	N	-4.064455	-0.083358	-0.679625
C35	C	-3.945057	-0.141155	-0.651360
C36	C	-4.241567	-0.144910	-0.912910
C37	C	-4.274018	-0.144429	-0.986246
C38	C	-3.909077	-0.133647	-0.978385
C39	C	-3.876626	-0.134118	-0.905048
C40	C	-4.042881	-0.139754	-0.872317
C41	C	-4.128488	0.050711	-0.208462
C42	C	-4.051172	0.170380	-0.201256
C43	C	-4.163098	-0.138308	-0.097034
C44	C	-4.107789	-0.138808	-0.018983
H45	H	-3.972478	-0.490734	-0.362092
H46	H	-3.516901	-0.132734	-0.424847
H47	H	-3.575822	-0.131907	-0.557899
C48	C	-3.985644	-0.436083	-0.071116
C49	C	-3.822693	-0.413221	-0.105390
H50	H	-3.942997	-0.387255	-0.024480
H51	H	-4.015834	-0.508829	-0.066269
H52	H	-4.108603	-0.427652	-0.099352
H53	H	-3.699737	-0.421660	-0.077157
H54	H	-3.792475	-0.340457	-0.110234
H55	H	-3.883917	-0.586676	-0.069785
C56	C	-4.174669	-0.975413	-0.331640
C57	C	-4.130108	-0.868164	-0.338776
H58	H	-4.217354	-1.024218	-0.378286
H59	H	-4.285168	-0.990903	-0.308374
H60	H	-4.051686	-0.983856	-0.303428
H61	H	-4.253095	-0.859719	-0.366984
H62	H	-4.019599	-0.852670	-0.362052
H63	H	-3.773729	-0.129063	-1.005041
H64	H	-3.714843	-0.129922	-0.871998
H65	H	-4.435810	-0.148628	-1.019296
H66	H	-3.980286	-0.790683	-0.082069
H67	H	-4.179021	-0.152337	-0.439115
H68	H	-4.237905	-0.151490	-0.572156
C69	C	-4.084145	-0.655911	-0.446921
C70	C	-4.086778	-0.715215	-0.393964
H71	H	-4.126854	-0.704724	-0.493565
H72	H	-3.945178	-0.607888	-0.439090
H73	H	-4.178648	-0.614916	-0.444029
H74	H	-3.992262	-0.756204	-0.396853
H75	H	-4.225766	-0.763257	-0.401798
H76	H	-4.376939	-0.149496	-0.886258
