data_functionalizedCrystal
_audit_creation_method	'MofGen! by Chris Wilmer'
_symmetry_space_group_name_H-M	'P1'
_symmetry_Int_Tables_number	1
_symmetry_cell_setting	triclinic
loop_
_symmetry_equiv_pos_as_xyz
  x,y,z
_cell_length_a	10.654550
_cell_length_b	10.489741
_cell_length_c	9.730223
_cell_angle_alpha	89.998920
_cell_angle_beta	89.996251
_cell_angle_gamma	84.512038
loop_
_atom_site_label
_atom_site_type_symbol
_atom_site_fract_x
_atom_site_fract_y
_atom_site_fract_z
O1	O	1.667918	0.179156	-0.114402
O2	O	1.302447	0.196226	-0.114380
O3	O	1.493499	0.002089	-0.114383
O4	O	1.476867	0.373293	-0.114399
O5	O	1.493497	0.002094	0.114196
O6	O	1.302445	0.196231	0.114200
O7	O	1.667916	0.179161	0.114178
Zn8	Zn	1.485180	0.187697	0.150481
Zn9	Zn	1.485183	0.187690	-0.150683
O10	O	1.476864	0.373298	0.114181
C11	C	1.255648	0.194975	-0.000087
C12	C	1.116203	0.191225	-0.000079
C13	C	1.036771	0.305530	-0.000103
C14	C	0.905748	0.301999	-0.000127
C15	C	0.933603	0.069849	-0.000107
C16	C	1.064623	0.073381	-0.000073
C17	C	1.088351	0.423374	-0.000109
C18	C	1.008917	0.537688	-0.000135
C19	C	0.877895	0.534157	-0.000159
C20	C	0.826306	0.416312	-0.000156
C21	C	1.492241	-0.045439	-0.000094
C22	C	1.488483	-0.187067	-0.000096
C23	C	1.366923	-0.255148	-0.000099
C24	C	1.424346	-0.347296	0.112599
C25	C	1.424377	-0.347276	-0.112763
C26	C	1.545956	-0.277350	0.112695
C27	C	1.545970	-0.277319	-0.112768
C28	C	1.603481	-0.369440	-0.000043
C29	C	1.714715	0.180412	-0.000118
C30	C	1.854160	0.184162	-0.000136
C31	C	1.478122	0.420826	-0.000111
C32	C	1.481880	0.562454	-0.000118
N33	N	1.485187	0.187700	0.356017
N34	N	1.485186	0.187677	-0.356220
C35	C	1.569807	0.101766	0.427942
C36	C	1.569803	0.101751	0.571825
C37	C	1.400557	0.273615	0.571846
C38	C	1.400555	0.273623	0.427966
C39	C	1.654439	0.015843	0.355993
C40	C	1.739066	-0.070097	0.427918
C41	C	1.739063	-0.070113	0.571801
C42	C	1.654432	0.015812	0.643759
H43	H	0.813223	0.627237	-0.000166
N44	N	1.830315	-0.162796	0.350317
H45	H	1.817475	-0.149754	0.248254
H46	H	1.919546	-0.147239	0.375454
N47	N	1.234535	-0.189316	0.000049
H48	H	1.221818	-0.133411	0.084361
H49	H	1.221242	-0.134709	-0.085157
N50	N	1.654433	0.015844	0.200808
H51	H	1.587981	0.083320	0.166160
H52	H	1.739968	0.035177	0.166252
H53	H	1.195034	0.426262	-0.000096
H54	H	1.331649	0.343598	0.369404
H55	H	1.050930	0.633633	-0.000126
N56	N	1.356231	-0.388331	0.238827
H57	H	1.266876	-0.346351	0.238756
H58	H	1.355002	-0.484483	0.238284
N59	N	1.614056	-0.236231	-0.238982
H60	H	1.568062	-0.261393	-0.324072
H61	H	1.616795	-0.140267	-0.237433
H62	H	1.654428	0.015784	0.760919
N63	N	1.356227	-0.388295	-0.238963
H64	H	1.266874	-0.346311	-0.238850
H65	H	1.401338	-0.361611	-0.324022
H66	H	1.597345	-0.246540	0.208079
H67	H	1.807961	-0.140097	0.630361
N68	N	0.684989	0.412499	-0.000162
H69	H	0.642493	0.502793	-0.000171
H70	H	0.659019	0.366017	-0.084903
H71	H	0.891588	-0.026095	-0.000127
N72	N	1.309287	0.366284	0.649459
H73	H	1.357786	0.423215	0.709152
H74	H	1.255697	0.420639	0.581977
H75	H	1.129299	-0.019696	-0.000057
H76	H	1.703518	-0.418912	0.000014
