data_functionalizedCrystal
_audit_creation_method	'MofGen! by Chris Wilmer'
_symmetry_space_group_name_H-M	'P1'
_symmetry_Int_Tables_number	1
_symmetry_cell_setting	triclinic
loop_
_symmetry_equiv_pos_as_xyz
  x,y,z
_cell_length_a	11.792241
_cell_length_b	15.944493
_cell_length_c	10.868271
_cell_angle_alpha	90.000739
_cell_angle_beta	89.999893
_cell_angle_gamma	83.834229
loop_
_atom_site_label
_atom_site_type_symbol
_atom_site_fract_x
_atom_site_fract_y
_atom_site_fract_z
O1	O	1.505927	0.115131	-0.102186
O2	O	1.175485	0.126997	-0.102212
O3	O	1.349764	-0.001173	-0.102208
O4	O	1.331648	0.243301	-0.102189
O5	O	1.349750	-0.001178	0.102436
O6	O	1.175471	0.126992	0.102432
O7	O	1.505913	0.115126	0.102459
Zn8	Zn	1.340690	0.121058	0.134937
Zn9	Zn	1.340709	0.121065	-0.134691
O10	O	1.331634	0.243296	0.102455
C11	C	1.133194	0.126249	0.000106
C12	C	1.007199	0.124018	0.000095
C13	C	1.349017	-0.032474	0.000109
C14	C	1.346797	-0.125733	0.000093
C15	C	0.776522	0.119916	0.000130
C16	C	0.904887	0.122195	0.000111
C17	C	1.449381	-0.361030	0.000124
C18	C	1.394068	-0.411845	-0.100780
C19	C	1.342684	-0.296472	0.000107
C20	C	1.394030	-0.411826	0.100984
C21	C	1.338719	-0.461400	0.000127
C22	C	1.287399	-0.346059	-0.100880
C23	C	1.287376	-0.346037	0.100974
C24	C	1.231985	-0.396820	0.000045
C25	C	1.344971	-0.201462	0.000095
C26	C	1.336423	-0.556407	0.000131
C27	C	1.548205	0.115874	0.000138
C28	C	1.674200	0.118105	0.000141
C29	C	1.332382	0.274597	0.000135
C30	C	1.334602	0.367855	0.000143
N31	N	1.340685	0.121053	0.318952
N32	N	1.340722	0.121063	-0.318705
C33	C	1.340703	0.121063	0.569958
C34	C	1.340689	0.121060	0.430280
H35	H	1.439134	-0.440585	-0.186081
O36	O	1.122242	-0.415732	-0.000241
C37	C	1.066419	-0.381910	-0.106752
H38	H	1.132330	-0.372394	-0.180769
H39	H	1.016372	-0.318688	-0.083646
C40	C	0.903059	-0.454909	-0.063417
C41	C	0.984011	-0.443228	-0.154330
H42	H	0.852221	-0.492730	-0.092764
H43	H	0.940665	-0.477693	0.008344
H44	H	0.861365	-0.402219	-0.044171
H45	H	1.025712	-0.495915	-0.173563
H46	H	0.946410	-0.420454	-0.226096
O47	O	1.447956	-0.446153	0.202627
C48	C	1.540188	-0.504576	0.166414
H49	H	1.567981	-0.488943	0.069367
H50	H	1.512701	-0.570970	0.167911
C51	C	1.606387	-0.519026	0.375125
C52	C	1.640529	-0.499821	0.255934
H53	H	1.668281	-0.516097	0.430348
H54	H	1.544246	-0.479668	0.399524
H55	H	1.583481	-0.574353	0.376355
H56	H	1.663421	-0.444491	0.254703
H57	H	1.702676	-0.539170	0.231537
H58	H	1.242349	-0.317281	0.186278
H59	H	1.541288	-0.344986	0.000030
H60	H	1.242371	-0.317440	-0.186278
