data_functionalizedCrystal
_audit_creation_method	'MofGen! by Chris Wilmer'
_symmetry_space_group_name_H-M	'P1'
_symmetry_Int_Tables_number	1
_symmetry_cell_setting	triclinic
loop_
_symmetry_equiv_pos_as_xyz
  x,y,z
_cell_length_a	17.077404
_cell_length_b	10.685194
_cell_length_c	17.077396
_cell_angle_alpha	85.601377
_cell_angle_beta	89.983895
_cell_angle_gamma	94.375067
loop_
_atom_site_label
_atom_site_type_symbol
_atom_site_fract_x
_atom_site_fract_y
_atom_site_fract_z
Zn1	Zn	1.176161	-0.502467	-0.419860
Zn2	Zn	1.166045	-0.713516	-0.278531
Zn3	Zn	1.044896	-0.502506	-0.288609
Zn4	Zn	1.034836	-0.713430	-0.409761
O5	O	1.105484	-0.607980	-0.349190
O6	O	1.284665	-0.530483	-0.401121
O7	O	1.149950	-0.685578	-0.170018
O8	O	1.070752	-0.325903	-0.314464
O9	O	1.277232	-0.685540	-0.297287
O10	O	1.167192	-0.325875	-0.410893
O11	O	1.060943	-0.530549	-0.177422
O12	O	0.933716	-0.530466	-0.304671
O13	O	1.053607	-0.685393	-0.520950
O14	O	0.926325	-0.685431	-0.393681
O15	O	1.157438	-0.530399	-0.528370
O16	O	1.140196	-0.890102	-0.287494
O17	O	1.043797	-0.890038	-0.383909
C18	C	0.901538	-0.607944	-0.349174
C19	C	0.814288	-0.607959	-0.349184
C20	C	0.777162	-0.527364	-0.403321
C21	C	0.695181	-0.527372	-0.403324
C22	C	0.650327	-0.607983	-0.349194
C23	C	0.687459	-0.688581	-0.295052
C24	C	0.769439	-0.688565	-0.295046
C25	C	0.516588	-0.688609	-0.295070
C26	C	0.434602	-0.688627	-0.295077
C27	C	0.442330	-0.527417	-0.403348
C28	C	0.524309	-0.527401	-0.403342
C29	C	0.561435	-0.608001	-0.349201
C30	C	1.089828	-0.935860	-0.333529
C31	C	1.083203	-1.076128	-0.326856
C32	C	1.310227	-0.608016	-0.349206
C33	C	1.397476	-0.608032	-0.349213
C34	C	1.105528	-0.607882	-0.553939
C35	C	1.105547	-0.607840	-0.641191
C36	C	1.121223	-0.278819	-0.364929
C37	C	1.127930	-0.138551	-0.371636
C38	C	1.059217	-0.527107	-0.686036
C39	C	1.059231	-0.527079	-0.768018
C40	C	1.105580	-0.607778	-0.805153
C41	C	1.151913	-0.688519	-0.760302
C42	C	1.151894	-0.688553	-0.678321
C43	C	1.151950	-0.688440	-0.931176
C44	C	1.151971	-0.688405	-1.013162
C45	C	1.059288	-0.526966	-1.020873
C46	C	1.059269	-0.527000	-0.938892
C47	C	1.105602	-0.607740	-0.894046
C48	C	1.105490	-0.607986	-0.145242
C49	C	1.105640	-0.607672	-0.058007
H50	H	0.664957	-0.461747	-0.447408
H51	H	0.650933	-0.754209	-0.250975
H52	H	0.398084	-0.754267	-0.251000
C53	C	0.402170	-0.439850	-0.462216
C54	C	0.458996	-0.369281	-0.509635
C55	C	0.422026	-0.288622	-0.563878
H56	H	0.372808	-0.384694	-0.434969
H57	H	0.367913	-0.488171	-0.494104
H58	H	0.493239	-0.320964	-0.477750
H59	H	0.488361	-0.424405	-0.536898
H60	H	0.387769	-0.336944	-0.595767
H61	H	0.392665	-0.233474	-0.536625
H62	H	0.460576	-0.240740	-0.596063
C63	C	1.025298	-1.147723	-0.268902
C64	C	0.985353	-1.062028	-0.228943
C65	C	0.931999	-1.127934	-0.175559
H66	H	1.052856	-1.199150	-0.232239
H67	H	0.988632	-1.199122	-0.296464
H68	H	1.022013	-1.010651	-0.201381
H69	H	0.957779	-1.010599	-0.265585
H70	H	0.895333	-1.179333	-0.203121
H71	H	0.959563	-1.179358	-0.138901
H72	H	0.904884	-1.069800	-0.148445
H73	H	0.799665	-0.754193	-0.250962
H74	H	1.021479	-0.461386	-0.655807
H75	H	0.546813	-0.754239	-0.250981
C76	C	1.202058	-0.776361	-0.629578
C77	C	1.153727	-0.857277	-0.578658
C78	C	1.199906	-0.938201	-0.533751
H79	H	1.238568	-0.728256	-0.599835
H80	H	1.229649	-0.824493	-0.663405
H81	H	1.126148	-0.809151	-0.544835
H82	H	1.117216	-0.905410	-0.608379
H83	H	1.227497	-0.986333	-0.567578
H84	H	1.236415	-0.890085	-0.504013
H85	H	1.167120	-0.993119	-0.499202
C86	C	1.185874	-1.066896	-0.429517
C87	C	1.262060	-1.098813	-0.411009
C88	C	1.315458	-1.032835	-0.464319
H89	H	1.182904	-0.978984	-0.426508
H90	H	1.173393	-1.088424	-0.481249
H91	H	1.274538	-1.077277	-0.359290
H92	H	1.265056	-1.186714	-0.414023
H93	H	1.302977	-1.054363	-0.516051
H94	H	1.312480	-0.944926	-0.461305
H95	H	1.367155	-1.054490	-0.451773
C96	C	1.008909	-0.439281	-0.816573
C97	C	0.968335	-0.368586	-0.766506
C98	C	0.921978	-0.287679	-0.811207
H99	H	0.972340	-0.487389	-0.846251
H100	H	1.041562	-0.384224	-0.851173
H101	H	0.935686	-0.423636	-0.731920
H102	H	1.004885	-0.320452	-0.736828
H103	H	0.954630	-0.232622	-0.845807
H104	H	0.885413	-0.335797	-0.840883
H105	H	0.894448	-0.239694	-0.777244
C106	C	0.573039	-0.440095	-0.462200
C107	C	0.616695	-0.511648	-0.509029
C108	C	0.661586	-0.431263	-0.563264
H109	H	0.607699	-0.385019	-0.434947
H110	H	0.539211	-0.392116	-0.494489
H111	H	0.650520	-0.559605	-0.476745
H112	H	0.582056	-0.566721	-0.536299
H113	H	0.627758	-0.383285	-0.595553
H114	H	0.696240	-0.376191	-0.536005
H115	H	0.691206	-0.479801	-0.595049
C116	C	1.202382	-0.775827	-1.053539
C117	C	1.256139	-0.704378	-1.104016
C118	C	1.302592	-0.784872	-1.141219
H119	H	1.169807	-0.830799	-1.082949
H120	H	1.230017	-0.823912	-1.015121
H121	H	1.228507	-0.656314	-1.142429
H122	H	1.288731	-0.649409	-1.074626
H123	H	1.330227	-0.832958	-1.102801
H124	H	1.270011	-0.839841	-1.170625
H125	H	1.339076	-0.736406	-1.175466
H126	H	1.021531	-0.461282	-0.908659
H127	H	1.021562	-0.461222	-1.057390
H128	H	0.813676	-0.461725	-0.447402
H129	H	1.189687	-0.754177	-0.894665
C130	C	1.202341	-0.775928	-0.800670
C131	C	1.256096	-0.704462	-0.851140
C132	C	1.302573	-0.784937	-0.888330
H133	H	1.169782	-0.830917	-0.830082
H134	H	1.229978	-0.823996	-0.762244
H135	H	1.228462	-0.656415	-0.889560
H136	H	1.288673	-0.649475	-0.821746
H137	H	1.330209	-0.833005	-0.849905
H138	H	1.270007	-0.839923	-0.917738
H139	H	1.339056	-0.736459	-0.922573
