data_functionalizedCrystal
_audit_creation_method	'MofGen! by Chris Wilmer'
_symmetry_space_group_name_H-M	'P1'
_symmetry_Int_Tables_number	1
_symmetry_cell_setting	triclinic
loop_
_symmetry_equiv_pos_as_xyz
  x,y,z
_cell_length_a	19.188905
_cell_length_b	10.540539
_cell_length_c	18.266242
_cell_angle_alpha	90.002342
_cell_angle_beta	89.987252
_cell_angle_gamma	96.169976
loop_
_atom_site_label
_atom_site_type_symbol
_atom_site_fract_x
_atom_site_fract_y
_atom_site_fract_z
O1	O	0.927212	-0.158317	-0.060998
O2	O	1.260546	0.175016	0.272335
O3	O	1.593879	0.508349	0.605668
O4	O	0.724041	-0.179683	-0.060973
O5	O	1.057375	0.153650	0.272360
O6	O	1.390708	0.486983	0.605694
O7	O	0.830262	0.015809	-0.060985
O8	O	1.163595	0.349142	0.272348
O9	O	1.496929	0.682476	0.605681
O10	O	0.820992	-0.353810	-0.060986
O11	O	1.154325	-0.020476	0.272347
O12	O	1.487658	0.312857	0.605681
O13	O	0.830250	0.015814	0.060777
O14	O	1.163584	0.349147	0.394110
O15	O	1.496917	0.682480	0.727443
O16	O	0.724030	-0.179679	0.060789
O17	O	1.057363	0.153655	0.394122
O18	O	1.390696	0.486988	0.727456
O19	O	0.927201	-0.158313	0.060764
O20	O	1.260534	0.175020	0.394097
O21	O	1.593868	0.508354	0.727430
Zn22	Zn	0.825613	-0.168995	0.080109
Zn23	Zn	1.158947	0.164338	0.413442
Zn24	Zn	1.492280	0.497672	0.746775
Zn25	Zn	0.825629	-0.169001	-0.080318
Zn26	Zn	1.158962	0.164332	0.253015
Zn27	Zn	1.492295	0.497666	0.586349
O28	O	0.820980	-0.353805	0.060776
O29	O	1.154313	-0.020472	0.394109
O30	O	1.487647	0.312861	0.727443
C31	C	0.698019	-0.178994	-0.000089
C32	C	1.031353	0.154339	0.333245
C33	C	1.364686	0.487672	0.666578
C34	C	0.620500	-0.176933	-0.000079
C35	C	0.953834	0.156400	0.333254
C36	C	1.287167	0.489733	0.666588
C37	C	0.584108	-0.175946	-0.066453
C38	C	0.917442	0.157388	0.266880
C39	C	1.250775	0.490721	0.600213
C40	C	0.511272	-0.173995	-0.066463
C41	C	0.844605	0.159338	0.266871
C42	C	1.177938	0.492672	0.600204
C43	C	0.474831	-0.173006	-0.000094
C44	C	0.808165	0.160327	0.333240
C45	C	1.141498	0.493660	0.666573
C46	C	0.511232	-0.174001	0.066290
C47	C	0.844565	0.159332	0.399623
C48	C	1.177899	0.492665	0.732956
C49	C	0.584066	-0.175965	0.066297
C50	C	0.917400	0.157369	0.399630
C51	C	1.250733	0.490702	0.732964
N52	N	0.365304	-0.097688	0.049299
N53	N	0.698638	0.235645	0.382632
N54	N	1.031971	0.568979	0.715965
N55	N	0.296115	-0.095820	0.049287
N56	N	0.629448	0.237513	0.382621
N57	N	0.962782	0.570847	0.715954
C58	C	0.255385	-0.167093	-0.000111
C59	C	0.588719	0.166240	0.333222
C60	C	0.922052	0.499574	0.666555
N61	N	0.286460	-0.240289	-0.049509
N62	N	0.619793	0.093044	0.283824
N63	N	0.953127	0.426378	0.617158
N64	N	0.355656	-0.242151	-0.049500
N65	N	0.688990	0.091182	0.283833
N66	N	1.022323	0.424515	0.617167
C67	C	0.395855	-0.170878	-0.000094
C68	C	0.729188	0.162455	0.333239
C69	C	1.062521	0.495789	0.666573
C70	C	0.140015	-0.163992	-0.066500
C71	C	0.473349	0.169341	0.266833
C72	C	0.806682	0.502674	0.600167
C73	C	0.067177	-0.162049	-0.066506
C74	C	0.400510	0.171284	0.266827
C75	C	0.733844	0.504617	0.600160
C76	C	0.067139	-0.162043	0.066248
C77	C	0.400473	0.171291	0.399581
C78	C	0.733806	0.504624	0.732914
C79	C	0.139976	-0.163998	0.066252
C80	C	0.473309	0.169335	0.399586
C81	C	0.806642	0.502668	0.732919
C82	C	0.176410	-0.164967	-0.000124
C83	C	0.509743	0.168366	0.333210
C84	C	0.843076	0.501700	0.666543
C85	C	0.829561	0.063099	-0.000106
C86	C	1.162894	0.396432	0.333228
C87	C	1.496228	0.729766	0.666561
C88	C	0.827481	0.204001	-0.000109
C89	C	1.160814	0.537334	0.333224
C90	C	1.494148	0.870667	0.666557
C91	C	0.953223	-0.159002	-0.000122
C92	C	1.286556	0.174332	0.333211
C93	C	1.619889	0.507665	0.666544
C94	C	1.030742	-0.161063	-0.000137
C95	C	1.364075	0.172271	0.333197
C96	C	1.697408	0.505604	0.666530
C97	C	0.821681	-0.401095	-0.000105
C98	C	1.155014	-0.067762	0.333228
C99	C	1.488348	0.265572	0.666561
C100	C	0.823761	-0.541997	-0.000106
C101	C	1.157094	-0.208664	0.333227
C102	C	1.490428	0.124670	0.666560
N103	N	0.825608	-0.168990	0.189596
N104	N	1.158941	0.164343	0.522929
N105	N	1.492275	0.497676	0.856262
C106	C	0.747779	0.385658	-0.000373
C107	C	1.081112	0.718992	0.332961
C108	C	1.414446	1.052325	0.666294
C109	C	0.749887	0.239087	-0.000099
C110	C	1.083221	0.572420	0.333235
C111	C	1.416554	0.905754	0.666568
C112	C	0.864816	0.266490	0.069418
C113	C	1.198149	0.599823	0.402751
C114	C	1.531483	0.933157	0.736085
C115	C	0.862168	0.412976	0.069477
C116	C	1.195501	0.746309	0.402810
C117	C	1.528834	1.079642	0.736144
C118	C	0.863759	0.413524	-0.068989
C119	C	1.197092	0.746857	0.264344
C120	C	1.530426	1.080190	0.597677
C121	C	0.864474	0.266558	-0.069909
C122	C	1.197807	0.599891	0.263425
C123	C	1.531141	0.933224	0.596758
N124	N	0.825640	-0.168996	-0.189805
N125	N	1.158973	0.164337	0.143528
N126	N	1.492306	0.497671	0.476862
C127	C	0.872675	-0.082455	0.771867
C128	C	1.206009	0.250878	1.105201
C129	C	1.539342	0.584211	1.438534
C130	C	0.872676	-0.082458	0.695222
C131	C	1.206010	0.250875	1.028556
C132	C	1.539343	0.584208	1.361889
C133	C	0.825629	-0.168990	0.656908
C134	C	1.158963	0.164344	0.990242
C135	C	1.492296	0.497677	1.323575
C136	C	0.778590	-0.255546	0.695245
C137	C	1.111923	0.077787	1.028578
C138	C	1.445257	0.411120	1.361912
C139	C	0.778595	-0.255549	0.771889
C140	C	1.111928	0.077784	1.105222
C141	C	1.445262	0.411117	1.438555
N142	N	0.763926	-0.185449	0.536589
N143	N	1.097259	0.147884	0.869923
N144	N	1.430593	0.481218	1.203256
N145	N	0.763923	-0.185438	0.463781
N146	N	1.097257	0.147895	0.797115
N147	N	1.430590	0.481228	1.130448
C148	C	0.825612	-0.168987	0.425986
C149	C	1.158945	0.164346	0.759319
C150	C	1.492279	0.497680	1.092652
N151	N	0.887306	-0.152522	0.463749
N152	N	1.220639	0.180812	0.797082
N153	N	1.553972	0.514145	1.130416
N154	N	0.887308	-0.152526	0.536564
N155	N	1.220641	0.180808	0.869897
N156	N	1.553974	0.514141	1.203230
C157	C	0.825619	-0.168996	0.573801
C158	C	1.158952	0.164337	0.907135
C159	C	1.492285	0.497670	1.240468
C160	C	0.872653	-0.082445	0.304551
C161	C	1.205986	0.250888	0.637884
C162	C	1.539319	0.584222	0.971218
C163	C	0.872655	-0.082457	0.227905
C164	C	1.205988	0.250877	0.561238
C165	C	1.539321	0.584210	0.894571
C166	C	0.778562	-0.255539	0.227929
C167	C	1.111896	0.077795	0.561262
C168	C	1.445229	0.411128	0.894595
C169	C	0.778566	-0.255533	0.304574
C170	C	1.111900	0.077800	0.637907
C171	C	1.445233	0.411134	0.971240
C172	C	0.825611	-0.168979	0.342880
C173	C	1.158944	0.164354	0.676213
C174	C	1.492278	0.497687	1.009547
H175	H	0.169681	-0.164794	-0.120547
H176	H	0.503014	0.168539	0.212786
H177	H	0.836347	0.501872	0.546119
H178	H	0.919805	0.461994	-0.069464
H179	H	1.253138	0.795327	0.263869
H180	H	1.586471	1.128660	0.597203
H181	H	0.740292	-0.326023	0.803096
H182	H	1.073625	0.007311	1.136429
H183	H	1.406959	0.340644	1.469762
H184	H	0.613768	-0.176735	-0.120502
H185	H	0.947102	0.156599	0.212831
H186	H	1.280435	0.489932	0.546165
H187	H	0.717248	0.415190	0.049215
H188	H	1.050581	0.748523	0.382548
H189	H	1.383914	1.081857	0.715881
H190	H	0.834566	0.440564	0.121457
H191	H	1.167899	0.773898	0.454791
H192	H	1.501232	1.107231	0.788124
H193	H	0.910961	-0.011971	0.335741
H194	H	1.244295	0.321362	0.669075
H195	H	1.577628	0.654695	1.002408
H196	H	0.838651	0.444517	-0.121687
H197	H	1.171984	0.777851	0.211646
H198	H	1.505318	1.111184	0.544980
H199	H	0.169607	-0.164794	0.120302
H200	H	0.502940	0.168539	0.453635
H201	H	0.836274	0.501873	0.786968
H202	H	0.720510	0.195830	-0.049938
H203	H	1.053843	0.529163	0.283395
H204	H	1.387177	0.862496	0.616728
H205	H	0.740263	-0.325997	0.335782
H206	H	1.073596	0.007336	0.669115
H207	H	1.406929	0.340669	1.002449
H208	H	0.037470	-0.161245	0.120287
H209	H	0.370803	0.172088	0.453620
H210	H	0.704137	0.505421	0.786953
H211	H	0.481635	-0.173193	-0.120514
H212	H	0.814969	0.160140	0.212819
H213	H	1.148302	0.493474	0.546152
H214	H	0.481557	-0.173199	0.120328
H215	H	0.814891	0.160134	0.453661
H216	H	1.148224	0.493467	0.786994
H217	H	0.720294	0.196676	0.049831
H218	H	1.053628	0.530009	0.383165
H219	H	1.386961	0.863343	0.716498
H220	H	0.910983	-0.011982	0.803054
H221	H	1.244317	0.321352	1.136388
H222	H	1.577650	0.654685	1.469721
H223	H	0.837156	0.225091	-0.121343
H224	H	1.170490	0.558424	0.211990
H225	H	1.503823	0.891758	0.545324
H226	H	0.921046	0.243592	-0.074115
H227	H	1.254379	0.576925	0.259219
H228	H	1.587713	0.910259	0.592552
H229	H	0.613696	-0.176770	0.120349
H230	H	0.947029	0.156563	0.453682
H231	H	1.280363	0.489897	0.787015
H232	H	0.037547	-0.161253	-0.120559
H233	H	0.370881	0.172080	0.212775
H234	H	0.704214	0.505414	0.546108
H235	H	0.917972	0.462183	0.072625
H236	H	1.251305	0.795516	0.405958
H237	H	1.584638	1.128850	0.739291
H238	H	0.921798	0.245401	0.071996
H239	H	1.255132	0.578734	0.405330
H240	H	1.588465	0.912068	0.738663
H241	H	0.910961	-0.011989	0.196698
H242	H	1.244294	0.321344	0.530031
H243	H	1.577627	0.654678	0.863364
H244	H	0.740285	-0.326003	0.664046
H245	H	1.073618	0.007330	0.997379
H246	H	1.406951	0.340663	1.330713
H247	H	0.717132	0.413576	-0.050231
H248	H	1.050466	0.746910	0.283102
H249	H	1.383799	1.080243	0.616435
H250	H	0.838872	0.223317	0.121165
H251	H	1.172205	0.556650	0.454498
H252	H	1.505538	0.889983	0.787832
H253	H	0.910980	-0.011984	0.664010
H254	H	1.244313	0.321349	0.997344
H255	H	1.577647	0.654682	1.330677
H256	H	0.740258	-0.325999	0.196734
H257	H	1.073592	0.007335	0.530067
H258	H	1.406925	0.340668	0.863401
