data_functionalizedCrystal
_audit_creation_method	'MofGen! by Chris Wilmer'
_symmetry_space_group_name_H-M	'P1'
_symmetry_Int_Tables_number	1
_symmetry_cell_setting	triclinic
loop_
_symmetry_equiv_pos_as_xyz
  x,y,z
_cell_length_a	18.050591
_cell_length_b	21.295417
_cell_length_c	18.050582
_cell_angle_alpha	90.025708
_cell_angle_beta	90.020922
_cell_angle_gamma	90.025707
loop_
_atom_site_label
_atom_site_type_symbol
_atom_site_fract_x
_atom_site_fract_y
_atom_site_fract_z
Zn1	Zn	1.135285	-0.250716	0.420015
Zn2	Zn	1.468618	0.082617	0.753349
Zn3	Zn	1.801952	0.415950	1.086682
Zn4	Zn	1.135192	-0.355977	0.295818
Zn5	Zn	1.468526	-0.022644	0.629152
Zn6	Zn	1.801859	0.310689	0.962485
Zn7	Zn	1.011104	-0.250719	0.295826
Zn8	Zn	1.344437	0.082615	0.629160
Zn9	Zn	1.677771	0.415948	0.962493
Zn10	Zn	1.011049	-0.355944	0.419954
Zn11	Zn	1.344382	-0.022611	0.753287
Zn12	Zn	1.677716	0.310722	1.086621
O13	O	1.073158	-0.303339	0.357903
O14	O	1.406491	0.029994	0.691237
O15	O	1.739824	0.363328	1.024570
O16	O	1.239197	-0.264692	0.403563
O17	O	1.572530	0.068641	0.736896
O18	O	1.905864	0.401974	1.070229
O19	O	1.118716	-0.342030	0.191895
O20	O	1.452049	-0.008696	0.525228
O21	O	1.785383	0.324637	0.858561
O22	O	1.027639	-0.162629	0.312329
O23	O	1.360972	0.170704	0.645663
O24	O	1.694305	0.504038	0.978996
O25	O	1.239129	-0.342027	0.312316
O26	O	1.572463	-0.008694	0.645649
O27	O	1.905796	0.324639	0.978982
O28	O	1.118874	-0.162627	0.403570
O29	O	1.452207	0.170706	0.736904
O30	O	1.785541	0.504039	1.070237
O31	O	1.027549	-0.264697	0.191901
O32	O	1.360882	0.068637	0.525234
O33	O	1.694216	0.401970	0.858567
O34	O	0.907172	-0.264664	0.312270
O35	O	1.240506	0.068669	0.645603
O36	O	1.573839	0.402002	0.978936
O37	O	1.027545	-0.341970	0.523887
O38	O	1.360878	-0.008637	0.857220
O39	O	1.694211	0.324696	1.190553
O40	O	0.907132	-0.341973	0.403466
O41	O	1.240465	-0.008640	0.736799
O42	O	1.573798	0.324694	1.070132
O43	O	1.118820	-0.264660	0.523932
O44	O	1.452154	0.068673	0.857265
O45	O	1.785487	0.402007	1.190598
O46	O	1.118663	-0.444062	0.312256
O47	O	1.451996	-0.110729	0.645590
O48	O	1.785329	0.222604	0.978923
O49	O	1.027455	-0.444038	0.403458
O50	O	1.360788	-0.110705	0.736791
O51	O	1.694122	0.222629	1.070125
C52	C	0.880205	-0.303316	0.357862
C53	C	1.213539	0.030018	0.691196
C54	C	1.546872	0.363351	1.024529
C55	C	0.797660	-0.303321	0.357862
C56	C	1.130993	0.030012	0.691196
C57	C	1.464326	0.363346	1.024529
C58	C	0.598210	-0.261232	0.308384
C59	C	0.931543	0.072102	0.641718
C60	C	1.264876	0.405435	0.975051
C61	C	0.548788	-0.318646	0.290105
C62	C	0.882121	0.014687	0.623438
C63	C	1.215455	0.348020	0.956771
C64	C	0.646529	-0.303340	0.357896
C65	C	0.979863	0.029993	0.691229
C66	C	1.313196	0.363327	1.024563
C67	C	0.548869	-0.245945	0.376174
C68	C	0.882202	0.087388	0.709507
C69	C	1.215536	0.420722	1.042841
C70	C	0.500544	-0.303353	0.357927
C71	C	0.833877	0.029980	0.691260
C72	C	1.167211	0.363313	1.024594
C73	C	0.598195	-0.360785	0.339581
C74	C	0.931528	-0.027452	0.672914
C75	C	1.264862	0.305882	1.006248
C76	C	0.598280	-0.288045	0.425682
C77	C	0.931614	0.045289	0.759015
C78	C	1.264947	0.378622	1.092348
C79	C	0.548881	-0.345499	0.407428
C80	C	0.882215	-0.012166	0.740761
C81	C	1.215548	0.321167	1.074094
C82	C	0.730628	-0.303331	0.357876
C83	C	1.063961	0.030002	0.691210
C84	C	1.397294	0.363335	1.024543
C85	C	0.416448	-0.303368	0.357947
C86	C	0.749781	0.029965	0.691280
C87	C	1.083114	0.363298	1.024614
C88	C	1.073063	-0.466891	0.357866
C89	C	1.406396	-0.133557	0.691199
C90	C	1.739730	0.199776	1.024533
C91	C	1.073090	-0.536859	0.357875
C92	C	1.406424	-0.203526	0.691208
C93	C	1.739757	0.129808	1.024541
C94	C	1.120569	-0.569667	0.405418
C95	C	1.453903	-0.236334	0.738751
C96	C	1.787236	0.096999	1.072084
C97	C	1.120595	-0.635410	0.405436
C98	C	1.453929	-0.302077	0.738769
C99	C	1.787262	0.031257	1.072103
C100	C	1.073151	-0.668341	0.357898
C101	C	1.406484	-0.335008	0.691231
C102	C	1.739817	-0.001675	1.024565
C103	C	1.025662	-0.635525	0.310352
C104	C	1.358996	-0.302192	0.643685
C105	C	1.692329	0.031142	0.977018
C106	C	1.025632	-0.569784	0.310340
C107	C	1.358966	-0.236450	0.643673
C108	C	1.692299	0.096883	0.977006
N109	N	1.067546	-0.771598	0.292903
N110	N	1.400880	-0.438265	0.626236
N111	N	1.734213	-0.104932	0.959570
N112	N	1.067579	-0.834050	0.292916
N113	N	1.400913	-0.500716	0.626250
N114	N	1.734246	-0.167383	0.959583
C115	C	1.073237	-0.866416	0.357932
C116	C	1.406571	-0.533083	0.691265
C117	C	1.739904	-0.199749	1.024598
N118	N	1.078876	-0.833972	0.422935
N119	N	1.412209	-0.500638	0.756268
N120	N	1.745542	-0.167305	1.089601
N121	N	1.078846	-0.771515	0.422920
N122	N	1.412180	-0.438181	0.756254
N123	N	1.745513	-0.104848	1.089587
C124	C	1.073178	-0.739627	0.357906
C125	C	1.406511	-0.406293	0.691239
C126	C	1.739844	-0.072960	1.024572
C127	C	1.120747	-0.970510	0.405499
C128	C	1.454080	-0.637177	0.738832
C129	C	1.787414	-0.303843	1.072165
C130	C	1.120768	-1.036254	0.405518
C131	C	1.454101	-0.702920	0.738851
C132	C	1.787435	-0.369587	1.072185
C133	C	1.025839	-1.036368	0.310427
C134	C	1.359172	-0.703034	0.643760
C135	C	1.692506	-0.369701	0.977094
C136	C	1.025814	-0.970625	0.310414
C137	C	1.359147	-0.637292	0.643747
C138	C	1.692481	-0.303958	0.977081
C139	C	1.073272	-0.937700	0.357949
C140	C	1.406605	-0.604367	0.691282
C141	C	1.739939	-0.271034	1.024615
C142	C	1.266863	-0.303363	0.357945
C143	C	1.600196	0.029970	0.691278
C144	C	1.933530	0.363304	1.024612
C145	C	1.349409	-0.303373	0.357963
C146	C	1.682742	0.029960	0.691296
C147	C	2.016076	0.363293	1.024630
C148	C	1.073187	-0.303311	0.551609
C149	C	1.406520	0.030022	0.884942
C150	C	1.739853	0.363355	1.218276
C151	C	1.073199	-0.303299	0.634155
C152	C	1.406532	0.030034	0.967488
C153	C	1.739866	0.363367	1.300822
C154	C	1.073273	-0.139149	0.357957
C155	C	1.406606	0.194184	0.691291
C156	C	1.739939	0.527518	1.024624
C157	C	1.073322	-0.069181	0.357980
C158	C	1.406655	0.264153	0.691314
C159	C	1.739989	0.597486	1.024647
C160	C	1.073171	-0.303322	0.164951
C161	C	1.406505	0.030012	0.498285
C162	C	1.739838	0.363345	0.831618
C163	C	1.073303	-0.303156	0.082406
C164	C	1.406636	0.030177	0.415739
C165	C	1.739969	0.363511	0.749073
C166	C	1.023601	-0.345283	0.833581
C167	C	1.356935	-0.011950	1.166915
C168	C	1.690268	0.321383	1.500248
C169	C	1.091356	-0.360675	0.882979
C170	C	1.424689	-0.027341	1.216312
C171	C	1.758023	0.305992	1.549645
C172	C	1.073236	-0.303251	0.785285
C173	C	1.406569	0.030082	1.118619
C174	C	1.739902	0.363415	1.451952
C175	C	1.005518	-0.287842	0.882970
C176	C	1.338851	0.045491	1.216303
C177	C	1.672185	0.378824	1.549636
C178	C	1.073265	-0.303206	0.931271
C179	C	1.406598	0.030127	1.264604
C180	C	1.739932	0.363461	1.597937
C181	C	1.141026	-0.318673	0.833596
C182	C	1.474359	0.014661	1.166929
C183	C	1.807693	0.347994	1.500262
C184	C	1.055142	-0.245814	0.833582
C185	C	1.388476	0.087520	1.166916
C186	C	1.721809	0.420853	1.500249
C187	C	1.122944	-0.261183	0.882958
C188	C	1.456277	0.072150	1.216291
C189	C	1.789611	0.405483	1.549624
C190	C	1.073218	-0.303279	0.701187
C191	C	1.406551	0.030054	1.034520
C192	C	1.739884	0.363388	1.367854
C193	C	1.073291	-0.303178	1.015367
C194	C	1.406624	0.030155	1.348701
C195	C	1.739957	0.363488	1.682034
H196	H	1.159252	-0.662128	0.444160
H197	H	1.492586	-0.328794	0.777493
H198	H	1.825919	0.004539	1.110827
H199	H	0.527163	-0.197408	0.391595
H200	H	0.860496	0.135926	0.724928
H201	H	1.193829	0.469259	1.058261
H202	H	0.986968	-0.543070	0.271624
H203	H	1.320302	-0.209737	0.604957
H204	H	1.653635	0.123596	0.938290
H205	H	0.527359	-0.381156	0.449311
H206	H	0.860692	-0.047822	0.782645
H207	H	1.194025	0.285511	1.115978
H208	H	0.987204	-1.063180	0.271725
H209	H	1.320537	-0.729846	0.605059
H210	H	1.653870	-0.396513	0.938392
H211	H	1.159210	-0.542862	0.444125
H212	H	1.492544	-0.209529	0.777458
H213	H	1.825877	0.123805	1.110792
C214	C	0.983567	-0.736353	0.268141
C215	C	1.316900	-0.403020	0.601475
C216	C	1.650234	-0.069687	0.934808
C217	C	0.973511	-0.671721	0.258095
C218	C	1.306845	-0.338387	0.591428
C219	C	1.640178	-0.005054	0.924762
H220	H	0.951371	-0.758697	0.235877
H221	H	1.284704	-0.425364	0.569210
H222	H	1.618037	-0.092030	0.902544
H223	H	0.972670	-0.747107	0.318024
H224	H	1.306003	-0.413774	0.651358
H225	H	1.639336	-0.080440	0.984691
H226	H	1.033480	-0.747089	0.257323
H227	H	1.366813	-0.413756	0.590656
H228	H	1.700147	-0.080422	0.923990
H229	H	0.923600	-0.660984	0.268918
H230	H	1.256933	-0.327651	0.602252
H231	H	1.590266	0.005683	0.935585
H232	H	0.984404	-0.660963	0.208201
H233	H	1.317737	-0.327629	0.541534
H234	H	1.651070	0.005704	0.874867
H235	H	0.619868	-0.225660	0.266468
H236	H	0.953202	0.107673	0.599802
H237	H	1.286535	0.441006	0.933135
C238	C	1.214568	-0.976998	0.499507
C239	C	1.547901	-0.643665	0.832840
C240	C	1.881235	-0.310332	1.166174
C241	C	1.172897	-0.934314	0.457761
C242	C	1.506231	-0.600981	0.791094
C243	C	1.839564	-0.267647	1.124428
H244	H	1.246758	-0.954652	0.531776
H245	H	1.580091	-0.621319	0.865109
H246	H	1.913424	-0.287986	1.198443
H247	H	1.243013	-1.002634	0.467189
H248	H	1.576347	-0.669300	0.800522
H249	H	1.909680	-0.335967	1.133855
H250	H	1.182192	-1.002651	0.527878
H251	H	1.515525	-0.669317	0.861211
H252	H	1.848858	-0.335984	1.194545
H253	H	1.205274	-0.908665	0.429386
H254	H	1.538607	-0.575331	0.762719
H255	H	1.871941	-0.241998	1.096052
H256	H	1.144450	-0.908668	0.490083
H257	H	1.477783	-0.575335	0.823417
H258	H	1.811117	-0.242001	1.156750
H259	H	0.620036	-0.275080	0.482976
H260	H	0.953370	0.058253	0.816310
H261	H	1.286703	0.391586	1.149643
H262	H	1.159431	-1.062965	0.444237
H263	H	1.492764	-0.729632	0.777570
H264	H	1.826098	-0.396299	1.110904
C265	C	1.092861	-0.156572	0.761601
C266	C	1.426194	0.176761	1.094934
C267	C	1.759527	0.510095	1.428268
C268	C	1.034436	-0.180287	0.804261
C269	C	1.367769	0.153047	1.137595
C270	C	1.701102	0.486380	1.470928
H271	H	1.080071	-0.116117	0.743503
H272	H	1.413404	0.217216	1.076836
H273	H	1.746738	0.550550	1.410170
H274	H	1.101970	-0.183940	0.721054
H275	H	1.435303	0.149393	1.054388
H276	H	1.768637	0.482727	1.387721
H277	H	1.136162	-0.153567	0.791320
H278	H	1.469495	0.179766	1.124653
H279	H	1.802828	0.513099	1.457987
H280	H	0.991136	-0.183296	0.774541
H281	H	1.324469	0.150037	1.107874
H282	H	1.657802	0.483371	1.441208
H283	H	1.025317	-0.152912	0.844814
H284	H	1.358650	0.180421	1.178147
H285	H	1.691984	0.513755	1.511481
C286	C	0.567405	-0.466695	0.305790
C287	C	0.900738	-0.133362	0.639123
C288	C	1.234071	0.199972	0.972457
C289	C	0.627315	-0.426337	0.318635
C290	C	0.960648	-0.093004	0.651969
C291	C	1.293982	0.240330	0.985302
H292	H	0.585385	-0.507163	0.292862
H293	H	0.918718	-0.173830	0.626196
H294	H	1.252052	0.159503	0.959529
H295	H	0.538067	-0.450652	0.266424
H296	H	0.871401	-0.117319	0.599758
H297	H	1.204734	0.216014	0.933091
H298	H	0.538138	-0.469647	0.349378
H299	H	0.871471	-0.136314	0.682712
H300	H	1.204805	0.197019	1.016045
H301	H	0.656579	-0.423381	0.275045
H302	H	0.989912	-0.090048	0.608378
H303	H	1.323246	0.243285	0.941712
H304	H	0.656665	-0.442384	0.358004
H305	H	0.989998	-0.109051	0.691337
H306	H	1.323331	0.224283	1.024671
C307	C	0.931995	-0.977343	0.216417
C308	C	1.265329	-0.644010	0.549750
C309	C	1.598662	-0.310677	0.883083
C310	C	0.973633	-0.934558	0.258142
C311	C	1.306966	-0.601224	0.591476
C312	C	1.640299	-0.267891	0.924809
H313	H	0.899783	-0.955075	0.184143
H314	H	1.233116	-0.621742	0.517476
H315	H	1.566449	-0.288409	0.850810
H316	H	0.903577	-1.002985	0.248748
H317	H	1.236910	-0.669652	0.582081
H318	H	1.570243	-0.336319	0.915414
H319	H	0.964392	-1.002979	0.188052
H320	H	1.297725	-0.669646	0.521385
H321	H	1.631058	-0.336312	0.854718
H322	H	0.941237	-0.908925	0.286512
H323	H	1.274570	-0.575591	0.619845
H324	H	1.607903	-0.242258	0.953179
H325	H	1.002054	-0.908905	0.225807
H326	H	1.335387	-0.575572	0.559141
H327	H	1.668720	-0.242238	0.892474
C328	C	0.986139	-0.453422	0.829244
C329	C	1.319472	-0.120089	1.162577
C330	C	1.652805	0.213244	1.495911
C331	C	0.966992	-0.393327	0.804306
C332	C	1.300325	-0.059993	1.137639
C333	C	1.633659	0.273340	1.470973
H334	H	0.951195	-0.483082	0.811166
H335	H	1.284528	-0.149749	1.144499
H336	H	1.617861	0.183585	1.477833
H337	H	0.986071	-0.453998	0.881859
H338	H	1.319404	-0.120664	1.215193
H339	H	1.652738	0.212669	1.548526
H340	H	1.034133	-0.463947	0.811608
H341	H	1.367466	-0.130613	1.144941
H342	H	1.700800	0.202720	1.478274
H343	H	0.919000	-0.382801	0.821947
H344	H	1.252333	-0.049467	1.155280
H345	H	1.585666	0.283866	1.488614
H346	H	0.967052	-0.392750	0.751680
H347	H	1.300385	-0.059416	1.085013
H348	H	1.633719	0.273917	1.418347
C349	C	1.112482	-0.425338	0.989846
C350	C	1.445815	-0.092005	1.323180
C351	C	1.779148	0.241328	1.656513
C352	C	1.112036	-0.426218	0.912281
C353	C	1.445370	-0.092885	1.245614
C354	C	1.778703	0.240449	1.578948
H355	H	1.125248	-0.465802	1.007934
H356	H	1.458581	-0.132469	1.341267
H357	H	1.791914	0.200864	1.674600
H358	H	1.064710	-0.414119	1.007469
H359	H	1.398043	-0.080786	1.340802
H360	H	1.731377	0.252548	1.674136
H361	H	1.147800	-0.395503	1.006739
H362	H	1.481133	-0.062170	1.340073
H363	H	1.814467	0.271163	1.673406
H364	H	1.076714	-0.456050	0.895388
H365	H	1.410047	-0.122717	1.228721
H366	H	1.743380	0.210617	1.562055
H367	H	1.159815	-0.437446	0.894651
H368	H	1.493148	-0.104112	1.227985
H369	H	1.826481	0.229221	1.561318
H370	H	1.198323	-0.331742	0.811998
H371	H	1.531656	0.001591	1.145332
H372	H	1.864989	0.334925	1.478665
H373	H	1.164979	-0.225619	0.904500
H374	H	1.498312	0.107714	1.237834
H375	H	1.831646	0.441048	1.571167
H376	H	0.527050	-0.331593	0.232793
H377	H	0.860383	0.001740	0.566126
H378	H	1.193717	0.335073	0.899459
H379	H	0.948238	-0.274828	0.904659
H380	H	1.281571	0.058505	1.237992
H381	H	1.614905	0.391838	1.571325
