data_functionalizedCrystal
_audit_creation_method	'MofGen! by Chris Wilmer'
_symmetry_space_group_name_H-M	'P1'
_symmetry_Int_Tables_number	1
_symmetry_cell_setting	triclinic
loop_
_symmetry_equiv_pos_as_xyz
  x,y,z
_cell_length_a	19.188930
_cell_length_b	19.188940
_cell_length_c	10.868271
_cell_angle_alpha	89.994428
_cell_angle_beta	89.981803
_cell_angle_gamma	83.146747
loop_
_atom_site_label
_atom_site_type_symbol
_atom_site_fract_x
_atom_site_fract_y
_atom_site_fract_z
O1	O	0.926148	0.087168	-0.102719
O2	O	0.722837	0.098902	-0.102635
O3	O	0.830356	-0.008620	-0.102670
O4	O	0.818629	0.194690	-0.102684
O5	O	0.830347	-0.008625	0.101975
O6	O	0.722828	0.098898	0.102010
O7	O	0.926139	0.087164	0.101926
Zn8	Zn	0.824482	0.093030	0.134460
Zn9	Zn	0.824494	0.093035	-0.135169
O10	O	0.818620	0.194686	0.101961
C11	C	0.829970	-0.034633	-0.000348
C12	C	0.828827	-0.112138	-0.000348
C13	C	0.696821	0.098520	-0.000302
C14	C	0.619317	0.097379	-0.000269
C15	C	0.820688	-0.665399	0.111178
C16	C	0.821754	-0.592575	0.111185
C17	C	0.822296	-0.556153	-0.000366
C18	C	0.821753	-0.592559	-0.111931
C19	C	0.820679	-0.665381	-0.111934
N20	N	0.863716	-0.447127	-0.083412
N21	N	0.864737	-0.377949	-0.083402
C22	C	0.825530	-0.336744	-0.000363
N23	N	0.785271	-0.367330	0.082684
N24	N	0.784252	-0.436515	0.082677
C25	C	0.823460	-0.477189	-0.000375
C26	C	0.827224	-0.221381	0.111202
C27	C	0.828287	-0.148554	0.111204
C28	C	0.828292	-0.148541	-0.111915
C29	C	0.827223	-0.221365	-0.111914
C30	C	0.826692	-0.257781	-0.000351
C31	C	0.574395	0.160470	-0.000293
C32	C	0.501571	0.159398	-0.000306
C33	C	0.473672	0.095232	-0.000321
C34	C	0.518604	0.032133	-0.000290
C35	C	0.591426	0.033207	-0.000264
N36	N	0.365693	0.046187	-0.070016
N37	N	0.296515	0.045171	-0.070044
C38	C	0.254264	0.091994	-0.000396
N39	N	0.283803	0.139881	0.069265
N40	N	0.352988	0.140899	0.069286
C41	C	0.394710	0.094061	-0.000348
C42	C	0.130377	0.153927	-0.000432
C43	C	0.057553	0.152853	-0.000438
C44	C	0.074587	0.025586	-0.000434
C45	C	0.147410	0.026662	-0.000416
C46	C	0.175301	0.090835	-0.000421
C47	C	0.952154	0.087546	-0.000410
C48	C	1.029659	0.088686	-0.000451
C49	C	0.819005	0.220699	-0.000364
C50	C	0.820148	0.298203	-0.000372
N51	N	0.824479	0.093026	0.318474
N52	N	0.824502	0.093034	-0.319183
C53	C	0.824490	0.093034	0.569480
C54	C	0.824482	0.093031	0.429802
H55	H	0.820255	-0.695044	0.202021
H56	H	0.020977	0.204231	-0.000450
C57	C	0.640842	-0.036196	-0.000253
H58	H	0.613800	-0.074566	-0.000270
H59	H	0.669588	-0.038425	0.071115
H60	H	0.669619	-0.038417	-0.071622
C61	C	0.487918	-0.038447	-0.000313
H62	H	0.438114	-0.030051	-0.000346
H63	H	0.503328	-0.064420	0.071055
H64	H	0.503375	-0.064412	-0.071682
C65	C	0.043907	-0.044995	-0.000458
H66	H	-0.005898	-0.036600	-0.000485
H67	H	0.059320	-0.070970	0.070907
H68	H	0.059361	-0.070957	-0.071830
C69	C	0.822352	-0.552499	-0.234633
H70	H	0.823077	-0.503916	-0.218656
H71	H	0.781472	-0.558980	-0.280454
H72	H	0.862889	-0.569881	-0.280485
C73	C	0.826634	-0.261444	0.233909
H74	H	0.825928	-0.310029	0.217932
H75	H	0.786103	-0.244068	0.279768
H76	H	0.867520	-0.254958	0.279723
H77	H	0.820239	-0.695016	-0.202775
C78	C	0.828882	-0.108517	0.233916
H79	H	0.828419	-0.140638	0.300352
H80	H	0.788594	-0.074662	0.238586
H81	H	0.870011	-0.085557	0.238524
C82	C	0.822352	-0.552529	0.233895
H83	H	0.821886	-0.584647	0.300335
H84	H	0.782067	-0.518671	0.238560
H85	H	0.863484	-0.529573	0.238500
C86	C	0.828891	-0.108487	-0.234619
H87	H	0.829613	-0.059903	-0.218642
H88	H	0.788013	-0.114970	-0.280443
H89	H	0.869430	-0.125868	-0.280467
C90	C	0.826638	-0.261406	-0.234621
H91	H	0.827119	-0.229288	-0.301057
H92	H	0.785514	-0.284367	-0.239241
H93	H	0.866931	-0.295261	-0.239277
H94	H	0.597098	0.212724	-0.000299
H95	H	0.183987	-0.024713	-0.000404
H96	H	0.464989	0.210775	-0.000322
C97	C	0.161061	0.224512	-0.000425
H98	H	0.123874	0.261934	-0.000423
H99	H	0.189133	0.227578	-0.071782
H100	H	0.189095	0.227573	0.070955
