data_functionalizedCrystal
_audit_creation_method	'MofGen! by Chris Wilmer'
_symmetry_space_group_name_H-M	'P1'
_symmetry_Int_Tables_number	1
_symmetry_cell_setting	triclinic
loop_
_symmetry_equiv_pos_as_xyz
  x,y,z
_cell_length_a	10.908937
_cell_length_b	8.140239
_cell_length_c	9.065218
_cell_angle_alpha	89.998314
_cell_angle_beta	72.550920
_cell_angle_gamma	89.995517
loop_
_atom_site_label
_atom_site_type_symbol
_atom_site_fract_x
_atom_site_fract_y
_atom_site_fract_z
O1	O	1.701194	-0.136667	-0.227193
O2	O	2.201194	0.363333	0.272807
O3	O	1.328669	-0.136657	-0.112319
O4	O	1.828669	0.363343	0.387681
O5	O	1.522631	-0.136659	-0.386406
O6	O	2.022631	0.363341	0.113594
O7	O	1.507231	-0.136665	0.046894
O8	O	2.007231	0.363335	0.546894
O9	O	1.522621	0.136568	-0.386406
O10	O	2.022621	0.636568	0.113594
O11	O	1.328658	0.136570	-0.112319
O12	O	1.828658	0.636570	0.387681
O13	O	1.701183	0.136560	-0.227193
O14	O	2.201183	0.636560	0.272807
Zn15	Zn	1.514919	0.179946	-0.169756
Zn16	Zn	2.014919	0.679946	0.330244
Zn17	Zn	1.514933	-0.180043	-0.169756
Zn18	Zn	2.014933	0.319957	0.330244
O19	O	1.507221	0.136562	0.046894
O20	O	2.007221	0.636562	0.546894
C21	C	1.280947	-0.000042	-0.101584
C22	C	1.780947	0.499958	0.398416
C23	C	1.138768	-0.000038	-0.069613
C24	C	1.638768	0.499962	0.430387
C25	C	1.521146	-0.000048	-0.441007
C26	C	2.021146	0.499952	0.058993
C27	C	1.516721	-0.000056	-0.603696
C28	C	2.016721	0.499944	-0.103696
C29	C	0.941453	-0.000066	-0.153241
C30	C	1.441453	0.499934	0.346759
C31	C	1.088404	-0.000045	-0.186287
C32	C	1.588404	0.499955	0.313713
C33	C	1.748905	-0.000059	-0.237929
C34	C	2.248905	0.499941	0.262071
C35	C	1.891084	-0.000074	-0.269899
C36	C	2.391084	0.499926	0.230101
N37	N	1.514918	0.425628	-0.169759
N38	N	2.014918	0.925628	0.330241
N39	N	1.514944	-0.425725	-0.169767
N40	N	2.014944	0.074275	0.330233
C41	C	1.508706	-0.000053	0.101495
C42	C	2.008706	0.499947	0.601495
C43	C	1.513131	-0.000056	0.264184
C44	C	2.013131	0.499944	0.764184
H45	H	0.875785	-0.000085	-0.028902
H46	H	1.375785	0.499915	0.471098
C47	C	1.102366	-0.000057	-0.455706
C48	C	1.602366	0.499943	0.044294
C49	C	1.177036	-0.000041	-0.354158
C50	C	1.677036	0.499959	0.145842
H51	H	1.157087	-0.000065	-0.559339
H52	H	1.657087	0.499935	-0.059339
H53	H	1.049686	0.095214	-0.438340
H54	H	1.549686	0.595214	0.061660
H55	H	1.049698	-0.095348	-0.438323
H56	H	1.549698	0.404652	0.061677
H57	H	1.229697	0.095257	-0.371533
H58	H	1.729697	0.595257	0.128467
H59	H	1.229738	-0.095321	-0.371533
H60	H	1.729738	0.404679	0.128467
C61	C	0.921717	-0.000073	0.098508
C62	C	1.421717	0.499927	0.598508
C63	C	1.050136	-0.000054	0.098258
C64	C	1.550136	0.499946	0.598258
H65	H	0.867003	-0.000074	0.202144
H66	H	1.367003	0.499926	0.702144
H67	H	0.905540	-0.095349	0.046787
H68	H	1.405540	0.404651	0.546787
H69	H	0.905513	0.095212	0.046783
H70	H	1.405513	0.595212	0.546783
H71	H	1.066343	-0.095345	0.149973
H72	H	1.566343	0.404655	0.649973
H73	H	1.066320	0.095233	0.150001
H74	H	1.566320	0.595233	0.650001
H75	H	0.956753	-0.000075	-0.394239
H76	H	1.456753	0.499925	0.105761
