data_functionalizedCrystal
_audit_creation_method	'MofGen! by Chris Wilmer'
_symmetry_space_group_name_H-M	'P1'
_symmetry_Int_Tables_number	1
_symmetry_cell_setting	triclinic
loop_
_symmetry_equiv_pos_as_xyz
  x,y,z
_cell_length_a	12.837942
_cell_length_b	10.723024
_cell_length_c	9.198806
_cell_angle_alpha	89.996604
_cell_angle_beta	90.002880
_cell_angle_gamma	90.351595
loop_
_atom_site_label
_atom_site_type_symbol
_atom_site_fract_x
_atom_site_fract_y
_atom_site_fract_z
O1	O	0.145513	-1.672991	0.120882
O2	O	0.159442	-1.311352	0.120887
O3	O	0.001518	-1.484153	0.120876
O4	O	0.303437	-1.500190	0.120894
O5	O	0.001516	-1.484138	-0.120909
O6	O	0.159440	-1.311337	-0.120898
O7	O	0.145512	-1.672977	-0.120903
Cu8	Cu	0.152476	-1.492156	-0.142977
Cu9	Cu	0.152478	-1.492173	0.142962
O10	O	0.303436	-1.500176	-0.120892
C11	C	-0.037142	-1.478728	-0.000016
C12	C	-0.152334	-1.462569	-0.000013
C13	C	0.158427	-1.264735	-0.000005
C14	C	0.155395	-1.125851	-0.000003
C15	C	0.146526	-1.719594	-0.000008
C16	C	0.149559	-1.858478	0.000000
C17	C	-0.391911	-1.656825	0.000015
C18	C	-0.500145	-1.641648	0.000017
C19	C	-0.477037	-1.417040	0.000005
C20	C	-0.368804	-1.432217	0.000002
C21	C	-0.326245	-1.552113	0.000005
C22	C	-0.218009	-1.567289	-0.000008
C23	C	-0.194904	-1.342681	-0.000010
C24	C	-0.303137	-1.327505	-0.000007
C25	C	0.342096	-1.505601	0.000003
C26	C	0.457288	-1.521760	0.000010
N27	N	0.152474	-1.492153	-0.344091
C28	C	0.243761	-1.060466	0.000003
C29	C	0.240629	-0.916922	0.000005
C30	C	0.086023	-1.564889	-0.583697
C31	C	0.086024	-1.564872	-0.416285
N32	N	0.152471	-1.492185	0.344076
H33	H	-0.183360	-1.664914	-0.000011
H34	H	0.316277	-0.860706	0.000016
H35	H	-0.511708	-1.319426	0.000019
Br36	Br	-0.334147	-1.819535	-0.000027
Br37	Br	0.023461	-0.952159	0.000009
Br38	Br	-0.589262	-1.783764	0.000040
Br39	Br	-0.008796	-1.668673	-0.687187
H40	H	0.209365	-1.429933	-0.593823
Br41	Br	-0.360906	-1.164796	0.000008
Br42	Br	-0.008809	-1.668613	-0.312768
H43	H	-0.141426	-1.257417	-0.000029
Br44	Br	0.373728	-1.144273	0.000001
H45	H	0.077423	-1.075561	0.000030
H46	H	0.209363	-1.429900	-0.406194
