data_functionalizedCrystal
_audit_creation_method	'MofGen! by Chris Wilmer'
_symmetry_space_group_name_H-M	'P1'
_symmetry_Int_Tables_number	1
_symmetry_cell_setting	triclinic
loop_
_symmetry_equiv_pos_as_xyz
  x,y,z
_cell_length_a	11.026607
_cell_length_b	17.038272
_cell_length_c	9.482900
_cell_angle_alpha	100.012096
_cell_angle_beta	78.636152
_cell_angle_gamma	99.848786
loop_
_atom_site_label
_atom_site_type_symbol
_atom_site_fract_x
_atom_site_fract_y
_atom_site_fract_z
O1	O	1.662374	0.322506	-0.120910
O2	O	1.305163	0.284676	-0.120910
O3	O	1.481644	0.189477	-0.120899
O4	O	1.485893	0.417705	-0.120922
O5	O	1.445807	0.208914	0.120891
O6	O	1.269325	0.304112	0.120880
O7	O	1.626537	0.341943	0.120880
Cu8	Cu	1.444659	0.324802	0.142957
Cu9	Cu	1.487041	0.301816	-0.142988
O10	O	1.450056	0.437141	0.120868
C11	C	1.241313	0.287415	-0.000015
C12	C	1.104451	0.266610	-0.000015
C13	C	1.036577	0.324055	-0.000022
C14	C	0.895123	0.302554	-0.000021
C15	C	1.459863	0.169523	-0.000004
C16	C	1.448341	0.081107	-0.000004
C17	C	1.554125	0.045899	-0.000003
C18	C	1.543294	-0.037179	-0.000016
C19	C	1.426676	-0.085048	-0.000021
C20	C	1.320885	-0.049835	-0.000027
C21	C	1.331719	0.033241	-0.000024
C22	C	1.388403	-0.336201	-0.000041
C23	C	1.377576	-0.419281	-0.000040
C24	C	1.599987	-0.406621	-0.000032
C25	C	1.610809	-0.323543	-0.000020
C26	C	1.505019	-0.288338	-0.000034
C27	C	1.415602	-0.169967	-0.000031
C28	C	1.516096	-0.203421	-0.000034
C29	C	1.690388	0.339203	-0.000018
C30	C	1.827251	0.360008	-0.000028
C31	C	1.471837	0.457095	-0.000030
C32	C	1.483360	0.545511	-0.000039
N33	N	1.414859	0.340969	0.344075
N34	N	1.516850	0.285644	-0.344106
C35	C	1.478242	0.306580	0.416279
C36	C	1.453458	0.320039	0.583695
H37	H	0.873856	0.425112	-0.000025
H38	H	1.057843	0.201507	-0.000046
O39	O	1.603543	0.238669	0.581811
C40	C	1.819559	0.218128	0.534363
C41	C	1.721563	0.271404	0.618474
H42	H	1.915004	0.244583	0.563951
H43	H	1.792343	0.154703	0.564180
H44	H	1.823884	0.215684	0.412594
H45	H	1.717187	0.273915	0.740263
H46	H	1.748817	0.334802	0.588536
H47	H	1.083189	0.389155	-0.000020
O48	O	1.667513	0.092272	-0.000066
C49	C	1.886958	0.096057	0.000008
C50	C	1.758624	0.043447	0.000054
H51	H	1.960651	0.056606	0.000136
H52	H	1.912671	0.127117	-0.101205
H53	H	1.882538	0.143415	0.101173
H54	H	1.762946	-0.003953	-0.101042
H55	H	1.732959	0.012445	0.101334
H56	H	1.342241	0.380373	0.406201
O57	O	1.646058	-0.071435	-0.000273
C58	C	1.781446	-0.167970	-0.125507
C59	C	1.665051	-0.129233	-0.125408
H60	H	1.796824	-0.214720	-0.226652
H61	H	1.866708	-0.119524	-0.125590
H62	H	1.766922	-0.198384	-0.024279
H63	H	1.679453	-0.098823	-0.226618
H64	H	1.579830	-0.177712	-0.125249
H65	H	0.848520	0.237447	-0.000052
O66	O	1.724195	-0.277168	-0.000075
C67	C	1.943635	-0.273371	0.000044
C68	C	1.815309	-0.325989	0.000057
H69	H	2.017330	-0.312819	0.000181
H70	H	1.969359	-0.242305	-0.101161
H71	H	1.939194	-0.226019	0.101217
H72	H	1.819651	-0.373383	-0.101047
H73	H	1.789633	-0.356997	0.101329
H74	H	1.225934	-0.088816	-0.000041
H75	H	1.686115	-0.435294	-0.000024
O76	O	1.629414	-0.156995	0.000161
C77	C	1.804211	-0.110643	0.125483
C78	C	1.675904	-0.163276	0.125419
H79	H	1.841825	-0.115690	0.226758
H80	H	1.871997	-0.131989	0.024367
H81	H	1.793755	-0.045232	0.125411
H82	H	1.686240	-0.228700	0.125543
H83	H	1.608166	-0.141863	0.226527
O84	O	1.264205	-0.465672	-0.000125
C85	C	1.044739	-0.469464	-0.000080
C86	C	1.173050	-0.416836	-0.000017
H87	H	0.971001	-0.429999	0.000038
H88	H	1.049046	-0.516789	-0.101295
H89	H	1.019168	-0.500564	0.101083
H90	H	1.198699	-0.385682	-0.101111
H91	H	1.168676	-0.369559	0.101265
O92	O	1.285713	-0.301995	-0.000302
C93	C	1.187443	-0.225584	-0.125528
C94	C	1.303812	-0.264302	-0.125431
H95	H	1.202047	-0.195085	-0.226668
H96	H	1.102210	-0.274047	-0.125620
H97	H	1.171953	-0.178906	-0.024295
H98	H	1.319419	-0.310973	-0.226647
H99	H	1.388982	-0.215794	-0.125263
H100	H	1.245579	0.061906	-0.000025
O101	O	1.564734	0.259458	0.342210
C102	C	1.629066	0.127796	0.295315
C103	C	1.531000	0.181058	0.379277
H104	H	1.601841	0.064403	0.325276
H105	H	1.633592	0.125266	0.173489
H106	H	1.724425	0.154312	0.325098
H107	H	1.435591	0.154583	0.349616
H108	H	1.526583	0.183587	0.501083
O109	O	1.302223	-0.216366	0.000166
C110	C	1.090274	-0.242580	0.125475
C111	C	1.218599	-0.189958	0.125423
H112	H	1.022636	-0.221260	0.226750
H113	H	1.052467	-0.237480	0.024358
H114	H	1.100749	-0.308004	0.125396
H115	H	1.208229	-0.124513	0.125553
H116	H	1.256361	-0.195128	0.226531
O117	O	1.366654	0.366945	0.657728
C118	C	1.150613	0.387387	0.704564
C119	C	1.248782	0.334187	0.620657
H120	H	1.055296	0.360932	0.674600
H121	H	1.145948	0.389852	0.826399
H122	H	1.177947	0.450804	0.674735
H123	H	1.221520	0.270745	0.650364
H124	H	1.253429	0.331791	0.498842
