data_functionalizedCrystal
_audit_creation_method	'MofGen! by Chris Wilmer'
_symmetry_space_group_name_H-M	'P1'
_symmetry_Int_Tables_number	1
_symmetry_cell_setting	triclinic
loop_
_symmetry_equiv_pos_as_xyz
  x,y,z
_cell_length_a	14.560438
_cell_length_b	20.875652
_cell_length_c	20.875641
_cell_angle_alpha	64.820057
_cell_angle_beta	90.002785
_cell_angle_gamma	57.590039
loop_
_atom_site_label
_atom_site_type_symbol
_atom_site_fract_x
_atom_site_fract_y
_atom_site_fract_z
Zr1	Zr	0.851056	0.697966	-0.056485
O2	O	0.702690	0.824867	-0.150796
O3	O	0.901600	0.566024	-0.030866
O4	O	0.901594	0.690695	-0.155538
O5	O	0.696942	0.707688	0.075965
O6	O	1.052735	0.690694	-0.155535
O7	O	0.702696	0.700196	-0.026123
O8	O	1.052745	0.467679	0.067481
O9	O	0.696932	0.930703	-0.147051
O10	O	1.029835	0.622159	-0.015960
O11	O	0.912746	0.627752	0.060224
O12	O	0.912740	0.774536	-0.086561
O13	O	0.795651	0.780129	-0.010376
Zr14	Zr	1.082931	0.709912	0.106338
Zr15	Zr	1.092108	0.697963	-0.056480
Zr16	Zr	0.841879	0.709915	0.106333
Zr17	Zr	0.841872	0.866761	-0.050514
Zr18	Zr	1.092115	0.541117	0.100367
O19	O	1.032387	0.841854	0.080719
O20	O	1.045435	0.824863	-0.150788
O21	O	0.689642	0.841858	0.080711
O22	O	1.231297	0.583011	0.200648
O23	O	1.244345	0.566020	-0.030858
O24	O	0.888552	0.583015	0.200641
O25	O	1.237045	0.700190	-0.026112
O26	O	1.032393	0.717183	0.205391
O27	O	0.881252	0.717185	0.205388
O28	O	1.231291	0.707682	0.075976
O29	O	0.888536	0.930701	-0.147047
O30	O	1.045451	0.477178	0.196900
O31	O	1.237055	0.477175	0.196904
O32	O	1.244350	0.467677	0.067485
O33	O	0.689637	0.940201	-0.017632
O34	O	0.881242	0.940199	-0.017628
O35	O	1.021247	0.633342	0.136414
O36	O	1.138336	0.627749	0.060229
O37	O	1.021241	0.780126	-0.010372
O38	O	0.904152	0.785719	0.065813
C39	C	0.978481	0.492802	0.017457
C40	C	0.982380	0.421144	0.014922
C41	C	1.010891	0.017483	-0.003645
C42	C	1.007221	0.084815	-0.001260
C43	C	0.944272	0.121392	0.039704
C44	C	0.884981	0.090641	0.078281
C45	C	0.888646	0.023315	0.075892
C46	C	0.926753	0.323066	0.051110
C47	C	0.923096	0.390395	0.053498
C48	C	1.045334	0.384565	-0.026046
C49	C	1.048999	0.317234	-0.028427
C50	C	0.989703	0.286492	0.010146
N51	N	0.940522	0.190214	0.042144
N52	N	0.993447	0.217676	0.007702
C53	C	0.665474	0.703943	0.024920
C54	C	0.563141	0.703944	0.024918
C55	C	0.518227	0.699818	-0.031322
C56	C	0.422081	0.699810	-0.031312
C57	C	0.415768	0.708058	0.081180
C58	C	0.511917	0.708060	0.081173
C59	C	0.569451	0.695702	-0.087577
C60	C	0.524537	0.691576	-0.143822
C61	C	0.428391	0.691568	-0.143812
C62	C	0.377159	0.695686	-0.087557
C63	C	1.268513	0.703936	0.024933
C64	C	1.370846	0.703934	0.024935
C65	C	0.978472	0.688992	-0.178735
C66	C	0.982368	0.683919	-0.247855
C67	C	0.955506	0.915076	0.032396
C68	C	0.951607	0.986734	0.034931
C69	C	0.923078	0.761073	-0.317181
C70	C	0.926753	0.756301	-0.382125
C71	C	0.989713	0.674375	-0.377741
C72	C	1.049010	0.597215	-0.308408
C73	C	1.045341	0.601987	-0.243466
C74	C	1.007247	0.651572	-0.568016
C75	C	1.010909	0.646805	-0.632966
C76	C	0.888653	0.805892	-0.706679
C77	C	0.884984	0.810658	-0.641732
C78	C	0.944286	0.733498	-0.572405
N79	N	0.993468	0.669495	-0.444123
N80	N	0.940537	0.738378	-0.506024
C81	C	0.955515	0.718886	0.228587
C82	C	0.951619	0.723959	0.297708
C83	C	1.280001	0.492798	0.017463
C84	C	1.386232	0.421139	0.014930
C85	C	0.967002	0.507749	0.221118
C86	C	0.967005	0.441164	0.287703
C87	C	1.268522	0.507746	0.221124
C88	C	1.370858	0.441159	0.287712
C89	C	0.665465	0.900133	-0.171271
C90	C	0.563129	0.966719	-0.237859
C91	C	0.653986	0.915080	0.032390
C92	C	0.547755	0.986739	0.034922
C93	C	0.966985	0.900129	-0.171265
C94	C	0.966982	0.966714	-0.237850
C95	C	1.379484	0.384569	-0.026036
C96	C	1.479291	0.317246	-0.028431
C97	C	1.585846	0.286490	0.010145
C98	C	1.592591	0.323067	0.051113
C99	C	1.492785	0.390393	0.053503
C100	C	1.023642	0.412813	0.358749
C101	C	1.023640	0.350260	0.421320
C102	C	0.967007	0.316053	0.412843
C103	C	0.910362	0.344409	0.341789
C104	C	0.910359	0.406967	0.279220
C105	C	1.480045	0.406970	0.279215
C106	C	1.576210	0.344414	0.341775
C107	C	1.563185	0.316044	0.412832
C108	C	1.453986	0.350239	0.421328
C109	C	1.357824	0.412799	0.358768
C110	C	0.453941	1.000916	-0.229362
C111	C	0.357776	1.063493	-0.291921
C112	C	0.370800	1.091867	-0.362978
C113	C	0.480000	1.057667	-0.371474
C114	C	0.576163	0.995096	-0.308915
C115	C	0.554503	1.023316	0.075882
C116	C	0.454696	1.090656	0.078260
C117	C	0.348141	1.121414	0.039681
C118	C	0.341396	1.084834	-0.001284
C119	C	0.441202	1.017499	-0.003665
C120	C	1.023626	1.000902	-0.229350
C121	C	1.023646	1.063457	-0.291908
C122	C	0.967013	1.091828	-0.362966
C123	C	0.910367	1.057634	-0.371466
C124	C	0.910355	0.995076	-0.308908
H125	H	1.062156	-0.012298	-0.036999
Br126	Br	1.501964	0.440013	0.109110
H127	H	0.665066	0.967252	-0.315843
Br128	Br	1.209644	0.459187	0.370314
Br129	Br	1.100518	0.459219	0.370275
Br130	Br	1.125798	0.426294	-0.078396
H131	H	1.069771	0.327179	0.479169
H132	H	0.641255	0.998279	0.107303
H133	H	1.055493	0.109850	-0.032673
Br134	Br	0.463878	1.140285	0.133860
H135	H	0.266882	1.176243	0.041627
H136	H	0.254626	1.109888	-0.032693
Br137	Br	0.240280	1.176787	-0.447873
Br138	Br	0.497657	1.096182	-0.467914
Br139	Br	0.808176	-0.018410	0.128242
H140	H	0.878474	0.298042	0.082522
H141	H	0.967019	0.265115	0.463797
H142	H	0.435691	0.987720	-0.037017
Br143	Br	0.833461	0.948693	-0.320459
H144	H	0.566260	0.688217	-0.189619
H145	H	1.473777	0.287472	-0.061791
Br146	Br	0.367446	0.685956	-0.220135
Br147	Br	1.087679	0.546854	-0.473937
H148	H	0.878475	0.819128	-0.438571
Br149	Br	0.436233	0.962420	-0.132935
H150	H	0.864242	0.430041	0.221373
H151	H	0.647736	0.695710	-0.087592
H152	H	0.833719	0.877371	-0.645310
Br153	Br	1.234888	0.426296	-0.078399
Br154	Br	0.799542	0.140286	0.133872
H155	H	1.069743	0.977812	-0.171496
H156	H	1.069772	1.091291	-0.284973
Br157	Br	0.967038	1.176732	-0.447859
Br158	Br	0.246686	0.695661	-0.087541
H159	H	0.268870	1.091328	-0.284989
H160	H	1.100279	0.530508	-0.304843
H161	H	1.093621	0.539160	-0.187017
H162	H	0.374048	0.711412	0.126980
Br163	Br	0.833501	1.096156	-0.467908
H164	H	1.100256	0.287454	-0.061784
H165	H	1.641496	0.265103	0.463766
H166	H	0.871822	0.420182	0.086851
H167	H	0.871802	0.827787	-0.320760
Br168	Br	0.572880	0.713652	0.157504
H169	H	1.490672	0.430060	0.221362
Br170	Br	0.808176	0.910603	-0.800767
H171	H	1.062178	0.580087	-0.629389
H172	H	0.864253	0.316549	0.334898
H173	H	1.667105	0.231667	0.008194
H174	H	1.665116	0.316578	0.334844
H175	H	1.443398	0.327131	0.479191
H176	H	1.679361	0.298016	0.082520
