data_functionalizedCrystal
_audit_creation_method	'MofGen! by Chris Wilmer'
_symmetry_space_group_name_H-M	'P1'
_symmetry_Int_Tables_number	1
_symmetry_cell_setting	triclinic
loop_
_symmetry_equiv_pos_as_xyz
  x,y,z
_cell_length_a	16.956984
_cell_length_b	14.044190
_cell_length_c	16.053802
_cell_angle_alpha	92.795827
_cell_angle_beta	87.610701
_cell_angle_gamma	84.622598
loop_
_atom_site_label
_atom_site_type_symbol
_atom_site_fract_x
_atom_site_fract_y
_atom_site_fract_z
O1	O	1.063881	0.034824	-0.069436
O2	O	1.563881	0.534824	0.430564
O3	O	0.834079	0.067919	-0.069439
O4	O	1.334079	0.567919	0.430561
O5	O	0.945527	-0.086342	-0.069421
O6	O	1.445527	0.413658	0.430579
O7	O	0.952433	0.189085	-0.069454
O8	O	1.452433	0.689085	0.430546
O9	O	0.939390	-0.077884	0.069437
O10	O	1.439390	0.422116	0.569437
O11	O	0.827942	0.076377	0.069419
O12	O	1.327942	0.576377	0.569419
O13	O	1.057745	0.043282	0.069422
O14	O	1.557745	0.543282	0.569422
Zn15	Zn	0.941869	0.061172	0.091467
Zn16	Zn	1.441869	0.561172	0.591467
Zn17	Zn	0.949954	0.050029	-0.091484
Zn18	Zn	1.449954	0.550029	0.408516
O19	O	0.946296	0.197543	0.069404
O20	O	1.446296	0.697543	0.569404
C21	C	0.801423	0.073842	-0.000011
C22	C	1.301423	0.573842	0.499989
C23	C	0.713261	0.078881	-0.000011
C24	C	1.213261	0.578881	0.499989
C25	C	0.675182	-0.005360	0.000000
C26	C	1.175182	0.494640	0.500000
C27	C	0.592344	-0.000620	-0.000006
C28	C	1.092344	0.499380	0.499994
C29	C	0.547586	0.088361	-0.000018
C30	C	1.047586	0.588361	0.499982
C31	C	0.585671	0.172607	-0.000032
C32	C	1.085671	0.672607	0.499968
C33	C	0.668507	0.167867	-0.000032
C34	C	1.168507	0.667867	0.499968
C35	C	0.299484	0.111826	-0.000027
C36	C	0.799484	0.611826	0.499973
C37	C	0.216642	0.116560	-0.000025
C38	C	0.716642	0.616560	0.499975
C39	C	0.223321	-0.056668	-0.000000
C40	C	0.723321	0.443332	0.500000
C41	C	0.306159	-0.061400	0.000005
C42	C	0.806159	0.438600	0.500005
C43	C	0.344236	0.022846	-0.000013
C44	C	0.844236	0.522846	0.499987
N45	N	0.462913	0.093207	-0.000022
N46	N	0.962913	0.593207	0.499978
N47	N	0.428908	0.017998	-0.000015
N48	N	0.928908	0.517998	0.499985
C49	C	0.939438	-0.117190	0.000010
C50	C	1.439438	0.382810	0.500010
C51	C	0.930428	-0.221710	0.000017
C52	C	1.430428	0.278290	0.500017
C53	C	0.977857	-0.475715	-0.000015
C54	C	1.477857	0.024285	0.499985
C55	C	0.913970	-0.413079	-0.000010
C56	C	1.413970	0.086921	0.499990
C57	C	0.923130	-0.306592	0.000005
C58	C	1.423130	0.193408	0.500005
C59	C	0.968699	-0.582212	-0.000030
C60	C	1.468699	-0.082212	0.499970
C61	C	1.090401	0.037358	-0.000008
C62	C	1.590401	0.537358	0.499992
C63	C	1.178563	0.032320	-0.000013
C64	C	1.678563	0.532320	0.499987
C65	C	0.952385	0.228391	-0.000029
C66	C	1.452385	0.728391	0.499971
C67	C	0.961396	0.332911	-0.000042
C68	C	1.461396	0.832911	0.499958
N69	N	0.936357	0.068777	0.216326
N70	N	1.436357	0.568777	0.716326
N71	N	0.955473	0.042416	-0.216344
N72	N	1.455473	0.542416	0.283656
C73	C	0.983799	0.003159	0.260028
C74	C	1.483799	0.503159	0.760028
C75	C	0.979951	0.008487	0.347434
C76	C	1.479951	0.508487	0.847434
C77	C	0.928664	0.079437	0.391137
C78	C	1.428664	0.579437	0.891137
C79	C	0.881217	0.145058	0.347429
C80	C	1.381217	0.645058	0.847429
C81	C	0.885061	0.139725	0.260025
C82	C	1.385061	0.639725	0.760025
C83	C	0.911870	0.102704	0.652544
C84	C	1.411870	0.602704	1.152544
C85	C	0.908031	0.108034	0.739955
C86	C	1.408031	0.608034	1.239955
C87	C	1.006763	-0.028539	0.739954
C88	C	1.506763	0.471461	1.239954
C89	C	1.010607	-0.033862	0.652547
C90	C	1.510607	0.466138	1.152547
C91	C	0.963157	0.031756	0.608847
C92	C	1.463157	0.531756	1.108847
N93	N	0.924732	0.084887	0.480480
N94	N	1.424732	0.584887	0.980480
N95	N	0.967086	0.026301	0.519506
N96	N	1.467086	0.526301	1.019506
H97	H	0.192310	-0.125257	0.000005
H98	H	0.692310	0.374743	0.500005
N99	N	0.707419	0.253907	-0.000048
N100	N	1.207419	0.753907	0.499952
N101	N	0.755485	0.267017	-0.058584
N102	N	1.255485	0.767017	0.441416
H103	H	0.782967	0.327785	-0.058600
H104	H	1.282967	0.827785	0.441400
H105	H	0.549222	0.245057	-0.000048
H106	H	1.049222	0.745057	0.499952
N107	N	0.553435	-0.086659	0.000028
N108	N	1.053435	0.413341	0.500028
N109	N	0.479474	-0.082418	0.000032
N110	N	0.979474	0.417582	0.500032
H111	H	0.451993	-0.143186	0.000060
H112	H	0.951993	0.356814	0.500060
N113	N	1.028387	-0.058544	0.392096
N114	N	1.528387	0.441456	0.892096
N115	N	1.077579	-0.029513	0.440879
N116	N	1.577579	0.470487	0.940879
H117	H	1.111775	-0.076862	0.472430
H118	H	1.611775	0.423138	0.972430
H119	H	0.866265	0.165814	0.775534
H120	H	1.366265	0.665814	1.275534
H121	H	1.039426	-0.449365	-0.000005
H122	H	1.539426	0.050635	0.499995
H123	H	0.711618	-0.077817	0.000014
H124	H	1.211618	0.422183	0.500014
H125	H	1.045394	-0.081963	0.775542
H126	H	1.545394	0.418037	1.275542
H127	H	0.852396	-0.439430	-0.000016
H128	H	1.352396	0.060570	0.499984
H129	H	1.025565	-0.054612	0.224451
H130	H	1.525565	0.445388	0.724451
N131	N	1.063146	-0.106192	0.607922
N132	N	1.563146	0.393808	1.107922
N133	N	1.105599	-0.164675	0.646952
N134	N	1.605599	0.335325	1.146952
H135	H	1.142762	-0.215702	0.615436
H136	H	1.642762	0.284298	1.115436
H137	H	0.873235	0.156135	0.616970
H138	H	1.373235	0.656135	1.116970
H139	H	0.839454	0.202825	0.383017
H140	H	1.339454	0.702825	0.883017
N141	N	0.351863	-0.152301	0.000017
N142	N	0.851863	0.347699	0.500017
N143	N	0.317854	-0.227511	0.000025
N144	N	0.817854	0.272489	0.500025
H145	H	0.350132	-0.291711	0.000035
H146	H	0.850132	0.208289	0.500035
N147	N	0.836592	0.206756	0.215395
N148	N	1.336592	0.706756	0.715395
N149	N	0.790803	0.270100	0.254422
N150	N	1.290803	0.770100	0.754422
H151	H	0.756566	0.317441	0.222904
H152	H	1.256566	0.817441	0.722904
H153	H	0.180201	0.189023	-0.000031
H154	H	0.680201	0.689023	0.499969
H155	H	0.330476	0.180424	-0.000047
H156	H	0.830476	0.680424	0.499953
