data_functionalizedCrystal
_audit_creation_method	'MofGen! by Chris Wilmer'
_symmetry_space_group_name_H-M	'P1'
_symmetry_Int_Tables_number	1
_symmetry_cell_setting	triclinic
loop_
_symmetry_equiv_pos_as_xyz
  x,y,z
_cell_length_a	10.723023
_cell_length_b	10.723023
_cell_length_c	9.130313
_cell_angle_alpha	89.996944
_cell_angle_beta	90.002609
_cell_angle_gamma	95.532452
loop_
_atom_site_label
_atom_site_type_symbol
_atom_site_fract_x
_atom_site_fract_y
_atom_site_fract_z
O1	O	-0.175022	1.657187	-0.121778
O2	O	-0.191777	1.294034	-0.121783
O3	O	-0.001823	1.483988	-0.121778
O4	O	-0.364976	1.467233	-0.121783
O5	O	-0.001818	1.483975	0.121821
O6	O	-0.191771	1.294021	0.121816
O7	O	-0.175017	1.657174	0.121821
Cu8	Cu	-0.183393	1.475596	0.144061
Cu9	Cu	-0.183400	1.475612	-0.144023
O10	O	-0.364970	1.467220	0.121816
C11	C	-0.190555	1.247528	0.000015
C12	C	-0.186908	1.108974	0.000013
C13	C	-0.185279	1.047195	0.126203
C14	C	-0.181509	0.903992	0.126204
C15	C	-0.411473	1.468446	0.000015
C16	C	-0.550027	1.472093	0.000013
C17	C	-0.611796	1.473712	0.126203
C18	C	-0.754999	1.477482	0.126204
C19	C	0.044679	1.482762	0.000019
C20	C	0.183233	1.479115	0.000012
C21	C	-0.176239	1.703680	0.000019
C22	C	-0.179886	1.842234	0.000012
N23	N	-0.183388	1.475594	0.346684
N24	N	-0.183396	1.475623	-0.346646
C25	C	-0.099312	1.559735	0.423338
C26	C	-0.099313	1.559746	0.576675
C27	C	-0.267475	1.391474	0.576689
C28	C	-0.267468	1.391457	0.423355
H29	H	-0.181294	0.895354	-0.108030
H30	H	-0.185508	1.055848	-0.108023
H31	H	-0.808118	1.478881	0.234240
H32	H	-0.335933	1.322973	0.639131
H33	H	-0.558662	1.472302	0.234239
H34	H	-0.763654	1.477728	-0.108030
H35	H	-0.335933	1.322934	0.360939
H36	H	-0.603163	1.473487	-0.108023
H37	H	-0.030848	1.628242	0.360915
H38	H	-0.030849	1.628259	0.639082
H39	H	-0.186668	1.100322	0.234239
H40	H	-0.180115	0.850863	0.234240
