data_functionalizedCrystal
_audit_creation_method	'MofGen! by Chris Wilmer'
_symmetry_space_group_name_H-M	'P1'
_symmetry_Int_Tables_number	1
_symmetry_cell_setting	triclinic
loop_
_symmetry_equiv_pos_as_xyz
  x,y,z
_cell_length_a	16.109302
_cell_length_b	11.026607
_cell_length_c	14.586319
_cell_angle_alpha	89.998207
_cell_angle_beta	89.994552
_cell_angle_gamma	96.023899
loop_
_atom_site_label
_atom_site_type_symbol
_atom_site_fract_x
_atom_site_fract_y
_atom_site_fract_z
O1	O	1.126504	0.155976	-0.076280
O2	O	1.626504	0.655976	0.423720
O3	O	0.887350	0.175385	-0.076272
O4	O	1.387350	0.675385	0.423728
O5	O	0.987106	-0.010965	-0.076272
O6	O	1.487106	0.489035	0.423728
O7	O	1.026748	0.342326	-0.076280
O8	O	1.526748	0.842326	0.423720
O9	O	0.987097	-0.010967	0.076209
O10	O	1.487097	0.489033	0.576209
O11	O	0.887341	0.175383	0.076208
O12	O	1.387341	0.675383	0.576208
O13	O	1.126494	0.155973	0.076201
O14	O	1.626494	0.655973	0.576201
Cu15	Cu	1.006917	0.165678	0.090127
Cu16	Cu	1.506917	0.665678	0.590127
Cu17	Cu	1.006928	0.165681	-0.090199
Cu18	Cu	1.506928	0.665681	0.409801
O19	O	1.026738	0.342323	0.076201
O20	O	1.526738	0.842323	0.576201
C21	C	0.856253	0.174598	-0.000031
C22	C	1.356253	0.674598	0.499969
C23	C	0.763604	0.172240	-0.000028
C24	C	1.263604	0.672240	0.499972
C25	C	0.550441	0.166787	0.083080
C26	C	1.050441	0.666787	0.583080
C27	C	0.463387	0.164559	0.083077
C28	C	0.963387	0.664559	0.583077
C29	C	0.463409	0.164568	-0.083166
C30	C	0.963409	0.664568	0.416834
C31	C	0.550461	0.166787	-0.083162
C32	C	1.050461	0.666787	0.416838
C33	C	0.593975	0.167903	-0.000036
C34	C	1.093975	0.667903	0.499964
C35	C	0.419869	0.163455	-0.000043
C36	C	0.919869	0.663455	0.499957
C37	C	0.325482	0.161039	-0.000047
C38	C	0.825482	0.661039	0.499953
C39	C	0.688369	0.170317	-0.000032
C40	C	1.188369	0.670317	0.499968
C41	C	0.979788	-0.056174	-0.000033
C42	C	1.479788	0.443826	0.499967
C43	C	0.957987	-0.190880	-0.000035
C44	C	1.457987	0.309120	0.499965
C45	C	1.018183	-0.264709	-0.000038
C46	C	1.518183	0.235291	0.499962
C47	C	0.995652	-0.403934	-0.000041
C48	C	1.495652	0.096066	0.499959
C49	C	1.157592	0.156761	-0.000042
C50	C	1.657592	0.656761	0.499958
C51	C	1.250240	0.159118	-0.000051
C52	C	1.750240	0.659118	0.499949
C53	C	1.034056	0.387533	-0.000041
C54	C	1.534056	0.887533	0.499959
C55	C	1.055857	0.522238	-0.000044
C56	C	1.555857	1.022238	0.499956
N57	N	1.006915	0.165675	0.216959
N58	N	1.506915	0.665675	0.716959
N59	N	1.006935	0.165674	-0.217031
N60	N	1.506935	0.665674	0.282969
C61	C	1.051110	0.083186	0.451966
C62	C	1.551110	0.583186	0.951966
C63	C	1.051112	0.083183	0.547947
C64	C	1.551112	0.583183	1.047947
C65	C	0.962734	0.248166	0.547956
C66	C	1.462734	0.748166	1.047956
C67	C	0.962728	0.248163	0.451977
C68	C	1.462728	0.748163	0.951977
C69	C	1.006921	0.165674	0.403984
C70	C	1.506921	0.665674	0.903984
C71	C	1.006929	0.165675	0.595945
C72	C	1.506929	0.665675	1.095945
C73	C	1.006931	0.165672	0.700012
C74	C	1.506931	0.665672	1.200012
C75	C	1.006918	0.165675	0.299910
C76	C	1.506918	0.665675	0.799910
H77	H	0.585907	0.167693	-0.150849
H78	H	1.085907	0.667693	0.349151
Cl79	Cl	1.106664	-0.020522	0.608264
Cl80	Cl	1.606664	0.479478	1.108264
Cl81	Cl	0.852664	-0.252416	-0.000041
Cl82	Cl	1.352664	0.247584	0.499959
Cl83	Cl	1.106662	-0.020518	0.391636
Cl84	Cl	1.606662	0.479482	0.891636
Cl85	Cl	0.907185	0.351866	0.608294
Cl86	Cl	1.407185	0.851866	1.108294
H87	H	0.926740	0.315334	0.412907
H88	H	1.426740	0.815334	0.912907
Cl89	Cl	0.890324	-0.465465	-0.000047
Cl90	Cl	1.390324	0.034535	0.499953
H91	H	0.427946	0.163650	0.150759
H92	H	0.927946	0.663650	0.650759
Cl93	Cl	0.408698	0.163136	-0.187661
Cl94	Cl	0.908698	0.663136	0.312339
Cl95	Cl	1.123507	-0.203172	-0.000047
Cl96	Cl	1.623507	0.296828	0.499953
Cl97	Cl	0.605142	0.168182	0.187581
Cl98	Cl	1.105142	0.668182	0.687581
Cl99	Cl	1.161186	-0.416234	-0.000052
Cl100	Cl	1.661186	0.083766	0.499948
