data_functionalizedCrystal
_audit_creation_method	'MofGen! by Chris Wilmer'
_symmetry_space_group_name_H-M	'P1'
_symmetry_Int_Tables_number	1
_symmetry_cell_setting	triclinic
loop_
_symmetry_equiv_pos_as_xyz
  x,y,z
_cell_length_a	10.654550
_cell_length_b	10.654541
_cell_length_c	9.130313
_cell_angle_alpha	89.995708
_cell_angle_beta	89.999724
_cell_angle_gamma	84.484430
loop_
_atom_site_label
_atom_site_type_symbol
_atom_site_fract_x
_atom_site_fract_y
_atom_site_fract_z
O1	O	1.667838	0.176399	-0.121689
O2	O	1.302359	0.193205	-0.121716
O3	O	1.493503	0.002063	-0.121693
O4	O	1.476694	0.367542	-0.121712
O5	O	1.493490	0.002057	0.121906
O6	O	1.302346	0.193200	0.121883
O7	O	1.667825	0.176393	0.121910
Cu8	Cu	1.485084	0.184796	0.144139
Cu9	Cu	1.485100	0.184803	-0.143945
O10	O	1.476681	0.367536	0.121887
C11	C	1.255555	0.191968	0.000080
C12	C	1.116112	0.188276	0.000070
C13	C	1.036625	0.300818	0.000068
C14	C	0.905604	0.297342	0.000094
C15	C	0.933569	0.068772	0.000117
C16	C	1.064588	0.072250	0.000102
C17	C	1.492263	-0.044738	0.000105
C18	C	1.488572	-0.184182	0.000103
C19	C	1.717137	-0.212153	0.000138
C20	C	1.829680	-0.291647	0.000158
C21	C	1.826204	-0.422665	0.000154
C22	C	1.710173	-0.474190	0.000124
C23	C	1.597630	-0.394696	0.000103
C24	C	1.601118	-0.263676	0.000113
C25	C	1.369069	-0.366725	0.000057
C26	C	1.372541	-0.235707	0.000073
C27	C	1.253037	-0.418251	0.000028
C28	C	1.140492	-0.338756	0.000018
C29	C	1.143972	-0.207731	0.000024
C30	C	1.259998	-0.156213	0.000052
C31	C	1.714629	0.177630	0.000110
C32	C	1.854072	0.181322	0.000111
N33	N	1.485082	0.184791	0.346761
C34	C	1.477921	0.414337	0.000085
C35	C	1.481612	0.553780	0.000078
N36	N	1.485111	0.184798	-0.346568
C37	C	1.569750	0.100189	0.423423
C38	C	1.569762	0.100189	0.576760
C39	C	1.400435	0.269404	0.576759
C40	C	1.400418	0.269397	0.423425
H41	H	0.891602	-0.025693	0.000151
O42	O	1.318252	0.351764	0.651069
C43	C	1.339751	0.476282	0.613600
H44	H	1.388150	0.476571	0.502264
H45	H	1.402603	0.515713	0.699883
C46	C	1.153511	0.558285	0.743260
C47	C	1.212945	0.558642	0.606508
H48	H	1.075292	0.609092	0.738891
H49	H	1.139028	0.474396	0.768508
H50	H	1.205900	0.591142	0.815148
H51	H	1.160563	0.525772	0.534627
H52	H	1.227416	0.642528	0.581247
H53	H	1.078571	0.395294	0.000053
O54	O	1.652027	0.017877	0.349177
C55	C	1.726778	-0.056774	0.449730
H56	H	1.675287	-0.058664	0.559040
H57	H	1.820426	-0.015126	0.466017
C58	C	1.814727	-0.189704	0.255653
C59	C	1.751480	-0.192034	0.389905
H60	H	1.829970	-0.273137	0.218749
H61	H	1.764370	-0.139408	0.187907
H62	H	1.892760	-0.154991	0.269243
H63	H	1.673443	-0.226731	0.376310
H64	H	1.801825	-0.242339	0.457648
H65	H	1.719978	-0.105472	0.000162
O66	O	1.318342	0.351643	0.348787
C67	C	1.386261	0.429767	0.260096
H68	H	1.484098	0.380658	0.237121
H69	H	1.395601	0.522673	0.319172
C70	C	1.195509	0.516259	0.142667
C71	C	1.315670	0.455937	0.114439
H72	H	1.151964	0.532408	0.052822
H73	H	1.149749	0.463630	0.202424
H74	H	1.203309	0.593674	0.191900
H75	H	1.307869	0.378517	0.065224
H76	H	1.361427	0.508554	0.054671
O77	O	1.652064	0.018181	0.651390
C78	C	1.730148	0.086168	0.740039
H79	H	1.680977	0.183979	0.763007
H80	H	1.823032	0.095569	0.680931
C81	C	1.816789	-0.104525	0.857485
C82	C	1.756391	0.015605	0.885705
H83	H	1.832983	-0.148054	0.947336
H84	H	1.764186	-0.150331	0.797757
H85	H	1.894186	-0.096674	0.808225
H86	H	1.678990	0.007752	0.934947
H87	H	1.808982	0.061407	0.945445
H88	H	0.840891	0.388985	0.000095
H89	H	1.129309	-0.019401	0.000107
H90	H	1.924150	-0.249680	0.000195
H91	H	1.917847	-0.487390	0.000159
H92	H	1.707354	-0.580873	0.000102
H93	H	1.250216	-0.524933	0.000015
H94	H	1.046028	-0.380719	-0.000016
H95	H	1.052325	-0.143012	0.000001
H96	H	1.262843	-0.049533	0.000067
