data_functionalizedCrystal
_audit_creation_method	'MofGen! by Chris Wilmer'
_symmetry_space_group_name_H-M	'P1'
_symmetry_Int_Tables_number	1
_symmetry_cell_setting	triclinic
loop_
_symmetry_equiv_pos_as_xyz
  x,y,z
_cell_length_a	10.654550
_cell_length_b	9.065218
_cell_length_c	9.730223
_cell_angle_alpha	89.997438
_cell_angle_beta	89.999957
_cell_angle_gamma	84.750408
loop_
_atom_site_label
_atom_site_type_symbol
_atom_site_fract_x
_atom_site_fract_y
_atom_site_fract_z
O1	O	1.668660	0.207235	-0.114181
O2	O	1.303260	0.226979	-0.114206
O3	O	1.493512	0.002423	-0.114190
O4	O	1.478407	0.431790	-0.114197
O5	O	1.493500	0.002417	0.114390
O6	O	1.303247	0.226972	0.114374
O7	O	1.668647	0.207228	0.114399
Zn8	Zn	1.485945	0.217099	0.150678
Zn9	Zn	1.485962	0.217108	-0.150486
O10	O	1.478395	0.431784	0.114383
C11	C	1.256450	0.225526	0.000081
C12	C	1.116989	0.221188	0.000071
C13	C	1.492055	-0.052559	0.000097
C14	C	1.487714	-0.216378	0.000091
C15	C	1.038027	0.353403	0.000073
C16	C	0.906990	0.349319	0.000097
C17	C	0.933890	0.080794	0.000112
C18	C	1.064924	0.084879	0.000098
C19	C	1.715457	0.208681	0.000109
C20	C	1.854918	0.213019	0.000109
C21	C	1.479852	0.486766	0.000092
C22	C	1.484193	0.650585	0.000090
N23	N	1.485943	0.217093	0.356215
N24	N	1.485973	0.217102	-0.356022
C25	C	1.570217	0.117702	0.428148
C26	C	1.570229	0.117703	0.572031
C27	C	1.401691	0.316498	0.572035
C28	C	1.401674	0.316489	0.428155
H29	H	1.080414	0.464395	0.000062
H30	H	1.638850	0.036768	0.630594
O31	O	1.141818	-0.043424	0.000151
C32	C	1.268635	-0.010584	0.000102
H33	H	1.274971	0.105360	0.043372
H34	H	1.327035	-0.094773	0.066462
H35	H	1.306448	-0.015784	-0.109563
H36	H	0.842704	0.456982	0.000102
H37	H	1.638832	0.036766	0.369577
H38	H	1.333042	0.397426	0.369583
O39	O	0.883104	-0.051484	0.000065
C40	C	0.750517	-0.026742	0.000109
H41	H	0.721058	0.088085	-0.043169
H42	H	0.709302	-0.114041	-0.066247
H43	H	0.713976	-0.034267	0.109773
O44	O	1.319965	0.413002	0.642133
C45	C	1.338030	0.391678	0.784552
H46	H	1.437258	0.337624	0.804193
H47	H	1.325331	0.503269	0.839222
H48	H	1.266112	0.316901	0.825405
