data_functionalizedCrystal
_audit_creation_method	'MofGen! by Chris Wilmer'
_symmetry_space_group_name_H-M	'P1'
_symmetry_Int_Tables_number	1
_symmetry_cell_setting	triclinic
loop_
_symmetry_equiv_pos_as_xyz
  x,y,z
_cell_length_a	19.077105
_cell_length_b	16.625545
_cell_length_c	19.076919
_cell_angle_alpha	87.727920
_cell_angle_beta	89.923776
_cell_angle_gamma	87.721938
loop_
_atom_site_label
_atom_site_type_symbol
_atom_site_fract_x
_atom_site_fract_y
_atom_site_fract_z
Zn1	Zn	1.058264	-0.390077	0.440420
Zn2	Zn	1.558264	0.109923	0.940420
Zn3	Zn	1.062901	-0.519720	0.322913
Zn4	Zn	1.562901	-0.019720	0.822913
Zn5	Zn	0.945482	-0.379275	0.318213
Zn6	Zn	1.445482	0.120725	0.818213
Zn7	Zn	0.940723	-0.519233	0.435666
Zn8	Zn	1.440723	-0.019233	0.935666
O9	O	1.001842	-0.452076	0.379303
O10	O	1.501842	0.047924	0.879303
O11	O	1.157211	-0.411998	0.428789
O12	O	1.657211	0.088002	0.928789
O13	O	1.051258	-0.496772	0.223959
O14	O	1.551258	0.003228	0.723959
O15	O	0.960493	-0.267879	0.334446
O16	O	1.460493	0.232121	0.834446
O17	O	1.160618	-0.507246	0.342457
O18	O	1.660618	-0.007246	0.842457
O19	O	1.043354	-0.275815	0.424231
O20	O	1.543354	0.224185	0.924231
O21	O	0.964990	-0.393588	0.220505
O22	O	1.464990	0.106412	0.720505
O23	O	0.846519	-0.393117	0.329837
O24	O	1.346519	0.106883	0.829837
O25	O	0.952383	-0.506417	0.534628
O26	O	1.452383	-0.006417	1.034628
O27	O	0.843023	-0.495944	0.416129
O28	O	1.343023	0.004056	0.916129
O29	O	1.038739	-0.411526	0.538120
O30	O	1.538739	0.088474	1.038120
O31	O	1.046644	-0.632484	0.337848
O32	O	1.546644	-0.132484	0.837848
O33	O	0.956880	-0.632127	0.420687
O34	O	1.456880	-0.132127	0.920687
C35	C	0.819274	-0.443306	0.371957
C36	C	1.319274	0.056694	0.871957
C37	C	0.741170	-0.439574	0.368832
C38	C	1.241170	0.060426	0.868832
C39	C	1.001767	-0.661562	0.379278
C40	C	1.501767	-0.161562	0.879278
C41	C	1.001798	-0.751186	0.379293
C42	C	1.501798	-0.251186	0.879293
C43	C	0.702678	-0.491432	0.412220
C44	C	1.202678	0.008568	0.912220
C45	C	0.629291	-0.487915	0.409287
C46	C	1.129291	0.012085	0.909287
C47	C	0.594397	-0.432544	0.362960
C48	C	1.094397	0.067456	0.862960
C49	C	0.632895	-0.380681	0.319570
C50	C	1.132895	0.119319	0.819570
C51	C	0.706281	-0.384194	0.322508
C52	C	1.206281	0.115806	0.822508
C53	C	0.375110	-0.416283	0.349368
C54	C	0.875110	0.083717	0.849368
C55	C	0.301719	-0.412775	0.346432
C56	C	0.801719	0.087225	0.846432
C57	C	0.298120	-0.520009	0.436150
C58	C	0.798120	-0.020009	0.936150
C59	C	0.371507	-0.523521	0.439080
C60	C	0.871507	-0.023521	0.939080
C61	C	0.409999	-0.471655	0.395693
C62	C	0.909999	0.028345	0.895693
N63	N	0.519384	-0.428950	0.359959
N64	N	1.019384	0.071050	0.859959
N65	N	0.485011	-0.475246	0.398698
N66	N	0.985011	0.024754	0.898698
C67	C	1.001825	-0.823970	0.379308
C68	C	1.501825	-0.323970	0.879308
C69	C	1.001865	-0.915281	0.379325
C70	C	1.501865	-0.415281	0.879325
C71	C	1.001901	-0.988060	0.379336
C72	C	1.501901	-0.488060	0.879336
C73	C	1.001941	-1.079376	0.379352
C74	C	1.501941	-0.579376	0.879352
C75	C	1.185123	-0.460881	0.386678
C76	C	1.685123	0.039119	0.886678
C77	C	1.263227	-0.464633	0.389820
C78	C	1.763227	0.035367	0.889820
C79	C	0.994513	-0.460122	0.562583
C80	C	1.494513	0.039878	1.062583
C81	C	0.991389	-0.463551	0.640686
C82	C	1.491389	0.036449	1.140686
C83	C	1.001937	-0.241773	0.379344
C84	C	1.501937	0.258227	0.879344
C85	C	1.001977	-0.152155	0.379362
C86	C	1.501977	0.347845	0.879362
C87	C	1.009184	-0.444005	0.196737
C88	C	1.509184	0.055995	0.696737
C89	C	1.012444	-0.440355	0.118640
C90	C	1.512444	0.059645	0.618640
C91	C	1.034881	-0.415760	0.679199
C92	C	1.534881	0.084240	1.179199
C93	C	1.031938	-0.418978	0.752584
C94	C	1.531938	0.081022	1.252584
C95	C	0.985506	-0.469993	0.787457
C96	C	1.485506	0.030007	1.287457
C97	C	0.942010	-0.517786	0.748939
C98	C	1.442010	-0.017786	1.248939
C99	C	0.944950	-0.514563	0.675554
C100	C	1.444950	-0.014563	1.175554
C101	C	0.971888	-0.484926	1.006738
C102	C	1.471888	0.015074	1.506738
C103	C	0.968952	-0.488147	1.080128
C104	C	1.468952	0.011853	1.580128
C105	C	1.058880	-0.389338	1.083768
C106	C	1.558880	0.110662	1.583768
C107	C	1.061819	-0.386123	1.010382
C108	C	1.561819	0.113877	1.510382
C109	C	1.018320	-0.433913	0.971871
C110	C	1.518320	0.066087	1.471871
N111	N	0.982498	-0.473285	0.862469
N112	N	1.482498	0.026715	1.362469
N113	N	1.021325	-0.430615	0.896860
N114	N	1.521325	0.069385	1.396860
H115	H	0.731083	-0.536524	0.449942
H116	H	1.231083	-0.036524	0.949942
Br117	Br	0.585540	-0.305526	0.256704
Br118	Br	1.085540	0.194474	0.756704
Br119	Br	1.117909	-0.324482	1.136037
Br120	Br	1.617909	0.175518	1.636037
Br121	Br	0.577053	-0.558295	0.468176
Br122	Br	1.077053	-0.058295	0.968176
H123	H	0.399912	-0.568612	0.476802
H124	H	0.899912	-0.068612	0.976802
Br125	Br	0.905931	-0.557383	1.127454
Br126	Br	1.405931	-0.057383	1.627454
H127	H	0.737620	-0.341962	0.287180
H128	H	1.237620	0.158038	0.787180
H129	H	0.936478	-0.523852	0.975391
H130	H	1.436478	-0.023852	1.475391
Br131	Br	1.097904	-0.346529	0.631880
Br132	Br	1.597904	0.153471	1.131880
H133	H	0.266773	-0.562235	0.471474
H134	H	0.766773	-0.062235	0.971474
Br135	Br	0.254365	-0.337632	0.283548
Br136	Br	0.754365	0.162368	0.783548
H137	H	0.406441	-0.374056	0.314033
H138	H	0.906441	0.125944	0.814033
H139	H	0.904201	-0.559320	0.777338
H140	H	1.404201	-0.059320	1.277338
Br141	Br	1.124838	-0.316889	0.963061
Br142	Br	1.624838	0.183111	1.463061
Br143	Br	1.090997	-0.354154	0.804850
Br144	Br	1.590997	0.145846	1.304850
H145	H	0.909527	-0.553471	0.644198
H146	H	1.409527	-0.053471	1.144198
