data_functionalizedCrystal
_audit_creation_method	'MofGen! by Chris Wilmer'
_symmetry_space_group_name_H-M	'P1'
_symmetry_Int_Tables_number	1
_symmetry_cell_setting	triclinic
loop_
_symmetry_equiv_pos_as_xyz
  x,y,z
_cell_length_a	14.519709
_cell_length_b	16.109301
_cell_length_c	14.586319
_cell_angle_alpha	90.000787
_cell_angle_beta	89.995260
_cell_angle_gamma	96.429187
loop_
_atom_site_label
_atom_site_type_symbol
_atom_site_fract_x
_atom_site_fract_y
_atom_site_fract_z
O1	O	0.118540	-1.103336	-0.076184
O2	O	0.133292	-0.861300	-0.076199
O3	O	-0.008336	-0.988735	-0.076183
O4	O	0.260168	-0.975901	-0.076200
O5	O	-0.008338	-0.988726	0.076298
O6	O	0.133290	-0.861291	0.076282
O7	O	0.118538	-1.103327	0.076296
Cu8	Cu	0.125914	-0.982308	0.090212
Cu9	Cu	0.125916	-0.982319	-0.090114
O10	O	0.260166	-0.975892	0.076280
C11	C	-0.042696	-0.988132	0.000057
C12	C	-0.145073	-0.986340	0.000058
C13	C	0.132693	-0.830319	0.000039
C14	C	0.130902	-0.738021	0.000034
C15	C	0.119136	-1.134307	0.000056
C16	C	0.120928	-1.226606	0.000055
C17	C	-0.519955	-0.979741	0.000034
C18	C	-0.415651	-0.981574	0.000041
C19	C	-0.332517	-0.983041	0.000047
C20	C	-0.228207	-0.984873	0.000052
C21	C	0.294526	-0.976494	0.000038
C22	C	0.396903	-0.978287	0.000031
N23	N	0.125911	-0.982307	0.217044
C24	C	0.210775	-0.515887	0.000040
C25	C	0.209085	-0.429163	0.000046
C26	C	0.041048	-0.448747	0.000053
C27	C	0.042739	-0.535468	0.000053
C28	C	0.127606	-0.569036	0.000042
C29	C	0.124224	-0.395591	0.000047
C30	C	0.122390	-0.301562	0.000054
C31	C	0.129440	-0.663071	0.000037
N32	N	0.125911	-0.982326	-0.216946
C33	C	0.063219	-1.038754	0.452057
C34	C	0.063217	-1.038756	0.548038
C35	C	0.188606	-0.925873	0.548034
C36	C	0.188603	-0.925868	0.452054
C37	C	0.125911	-0.982313	0.404068
C38	C	0.125912	-0.982321	0.596029
C39	C	0.125910	-0.982323	0.700096
C40	C	0.125911	-0.982310	0.299995
H41	H	0.279879	-0.543214	0.000037
H42	H	0.276810	-0.385892	0.000045
C43	C	-0.052300	-0.411814	0.000056
N44	N	-0.122612	-0.383997	0.000055
H45	H	-0.024991	-0.578745	0.000058
C46	C	-0.005751	-1.100838	0.399276
N47	N	-0.057705	-1.147600	0.359524
H48	H	0.012167	-1.084715	0.587108
H49	H	0.239650	-0.879918	0.587113
C50	C	0.257614	-0.863812	0.399263
N51	N	0.309605	-0.817087	0.359501
