data_functionalizedCrystal
_audit_creation_method	'MofGen! by Chris Wilmer'
_symmetry_space_group_name_H-M	'P1'
_symmetry_Int_Tables_number	1
_symmetry_cell_setting	triclinic
loop_
_symmetry_equiv_pos_as_xyz
  x,y,z
_cell_length_a	14.395555
_cell_length_b	17.917603
_cell_length_c	17.917559
_cell_angle_alpha	89.764743
_cell_angle_beta	57.012029
_cell_angle_gamma	57.011466
loop_
_atom_site_label
_atom_site_type_symbol
_atom_site_fract_x
_atom_site_fract_y
_atom_site_fract_z
Zr1	Zr	0.939184	-0.066920	0.751743
O2	O	1.162758	-0.198327	0.620337
O3	O	0.736260	-0.026635	0.792023
O4	O	0.949506	-0.190493	0.784191
O5	O	0.934168	0.094784	0.634351
O6	O	0.934159	-0.184316	0.913446
O7	O	0.949511	-0.034469	0.628169
O8	O	0.552700	0.108798	0.927455
O9	O	1.315627	-0.198329	0.620341
O10	O	0.800624	-0.004845	0.905667
O11	O	0.800627	0.087004	0.813819
O12	O	1.051697	-0.105918	0.804598
O13	O	1.051700	-0.014068	0.712750
Zr14	Zr	0.890236	0.149076	0.967748
Zr15	Zr	0.914707	-0.057067	0.957889
Zr16	Zr	0.914713	0.139224	0.761602
Zr17	Zr	1.182993	-0.066923	0.751749
Zr18	Zr	0.646427	0.149079	0.967742
O19	O	1.093160	0.108791	0.927469
O20	O	1.127954	-0.184318	0.913451
O21	O	1.127963	0.094782	0.634355
O22	O	0.666662	0.280484	1.099155
O23	O	0.701456	-0.012625	1.085136
O24	O	0.701465	0.266475	0.806041
O25	O	0.895252	-0.012628	1.085141
O26	O	0.879913	0.272650	0.935301
O27	O	0.895261	0.266472	0.806046
O28	O	0.879908	0.116625	1.091323
O29	O	1.296171	-0.190497	0.784200
O30	O	0.533249	0.272654	0.935292
O31	O	0.513793	0.280486	1.099151
O32	O	0.533244	0.116629	1.091314
O33	O	1.296176	-0.034473	0.628178
O34	O	1.276720	-0.026641	0.792036
O35	O	0.777723	0.188075	0.914894
O36	O	0.777720	0.096225	1.006742
O37	O	1.028793	-0.004848	0.905673
O38	O	1.028796	0.087002	0.813825
C39	C	0.609742	0.041082	0.859738
C40	C	0.506239	0.041083	0.859736
C41	C	0.945327	0.028754	0.601888
C42	C	0.955718	0.024571	0.514374
C43	C	0.884101	0.298932	0.872078
C44	C	0.873712	0.386445	0.876263
C45	C	0.445647	0.091167	0.809659
C46	C	0.475197	-0.001359	0.767204
C47	C	0.292299	0.133580	0.902166
C48	C	0.537227	-0.051498	0.817225
C49	C	0.354253	0.083508	0.952241
C50	C	0.383853	-0.009070	0.909806
C51	C	1.219677	0.041075	0.859753
C52	C	1.323181	0.041074	0.859756
C53	C	0.945319	-0.216776	0.847414
C54	C	0.955708	-0.304289	0.843228
C55	C	0.854739	0.546654	0.883889
C56	C	0.974675	0.535510	0.835606
C57	C	0.964118	0.624655	0.839848
C58	C	0.865293	0.457502	0.879647
C59	C	0.854737	0.065221	0.365323
C60	C	0.974676	0.016938	0.354176
C61	C	0.964125	0.021187	0.443319
C62	C	0.865286	0.060974	0.276173
C63	C	0.884093	0.053403	1.117603
C64	C	0.873701	0.057585	1.205118
C65	C	0.579125	0.053406	1.117596
C66	C	0.465230	0.057590	1.205108
C67	C	0.579133	0.298936	0.872070
C68	C	0.465241	0.386450	0.876253
C69	C	0.548516	0.311260	1.129928
C70	C	0.424233	0.402957	1.221625
C71	C	1.280904	-0.229103	0.589564
C72	C	1.405187	-0.320800	0.497867
C73	C	1.250295	0.028751	0.601896
C74	C	1.364189	0.024567	0.514384
C75	C	1.250287	-0.216779	0.847421
C76	C	1.364178	-0.304294	0.843239
C77	C	0.423701	0.006789	1.193444
C78	C	0.316702	0.010700	1.275662
C79	C	0.251226	0.065419	1.369543
C80	C	0.292765	0.116222	1.381205
C81	C	0.399770	0.112304	1.298988
C82	C	0.399800	0.480314	0.930978
C83	C	0.292799	0.562551	0.934905
C84	C	0.251235	0.550922	0.884112
C85	C	0.316688	0.457048	0.829381
C86	C	0.423694	0.374813	0.825449
C87	C	0.365866	0.398075	1.312640
C88	C	0.249102	0.484227	1.398806
C89	C	0.190701	0.575260	1.393957
C90	C	0.249079	0.580139	1.302933
C91	C	0.365847	0.493989	1.216768
C92	C	1.463566	-0.315918	0.406852
C93	C	1.580360	-0.402070	0.320685
C94	C	1.638766	-0.493103	0.325535
C95	C	1.580381	-0.497983	0.416559
C96	C	1.463596	-0.411832	0.502724
C97	C	1.405730	0.075360	0.526047
C98	C	1.512758	0.071425	0.443828
C99	C	1.578238	0.016703	0.349947
C100	C	1.536694	-0.034096	0.338285
C101	C	1.429674	-0.030167	0.420503
C102	C	1.405707	-0.292633	0.894042
C103	C	1.512704	-0.374854	0.890131
C104	C	1.578179	-0.468734	0.835410
C105	C	1.536641	-0.480392	0.784605
C106	C	1.429638	-0.398172	0.788522
H107	H	0.472889	0.133451	0.767248
C108	C	1.644550	-0.396685	0.220572
H109	H	1.593016	-0.330128	0.230032
H110	H	1.743977	-0.428286	0.184965
H111	H	1.636226	-0.428304	0.184965
C112	C	1.399340	-0.417209	0.602836
H113	H	1.321414	-0.352868	0.653466
H114	H	1.364626	-0.451039	0.608369
H115	H	1.472336	-0.451032	0.608440
H116	H	0.744138	0.623141	0.928409
C117	C	0.347452	-0.066372	0.967005
H118	H	0.433811	-0.132060	0.936726
H119	H	0.305246	-0.036803	1.032408
H120	H	0.280859	-0.065622	0.967147
C121	C	1.558442	0.127305	0.456668
H122	H	1.631572	0.117122	0.394261
H123	H	1.476704	0.195182	0.493998
H124	H	1.595263	0.104066	0.489657
C125	C	0.495661	0.271566	0.765260
H126	H	0.565351	0.224247	0.770181
H127	H	0.423730	0.265561	0.789785
H128	H	0.542326	0.261189	0.698667
H129	H	0.477012	-0.037782	1.117008
C130	C	0.270956	0.444264	0.773518
H131	H	0.325256	0.376584	0.740353
H132	H	0.170417	0.476338	0.818420
H133	H	0.289003	0.471972	0.727302
C134	C	0.430024	0.499371	1.116658
H135	H	0.378501	0.565928	1.126119
H136	H	0.529459	0.467757	1.081037
H137	H	0.421673	0.467766	1.081062
H138	H	0.525312	-0.037250	0.688981
H139	H	0.413399	0.323960	1.316607
H140	H	1.352423	0.119927	0.602483
C141	C	1.399340	-0.215792	0.401503
H142	H	1.321416	-0.165173	0.465850
H143	H	1.472357	-0.210213	0.367690
H144	H	1.364606	-0.210214	0.367675
H145	H	1.395856	-0.071526	0.410993
H146	H	1.665306	-0.535674	0.832229
H147	H	1.352412	-0.216199	0.938602
C148	C	0.151085	0.239261	0.950649
H149	H	0.172397	0.274755	0.914984
H150	H	0.085476	0.238500	0.950861
H151	H	0.108282	0.269736	1.016013
C152	C	0.133513	0.069731	1.459973
H153	H	0.118154	0.031644	1.439573
H154	H	0.164154	0.044552	1.495893
H155	H	0.045591	0.135663	1.500235
H156	H	1.627950	-0.572112	0.420496
H157	H	1.546511	-0.365342	0.931503
H158	H	1.665378	0.013512	0.283008
H159	H	1.590023	-0.078650	0.261836
C160	C	1.608683	-0.583663	0.724407
H161	H	1.678368	-0.630952	0.729347
H162	H	1.536795	-0.589708	0.748910
H163	H	1.655368	-0.594046	0.657812
H164	H	0.744138	0.109744	0.441810
C165	C	0.678408	-0.157231	0.768627
H166	H	0.743785	-0.156580	0.768885
H167	H	0.657003	-0.192910	0.803911
H168	H	0.721552	-0.187425	0.703090
C169	C	0.286591	0.132022	1.057886
H170	H	0.200490	0.197778	1.087945
H171	H	0.263834	0.097113	1.093768
H172	H	0.353701	0.131128	1.057120
H173	H	1.395839	-0.407680	0.747147
C174	C	1.767208	-0.587860	0.230749
H175	H	1.793591	-0.571906	0.175853
H176	H	1.847519	-0.625073	0.228948
H177	H	1.739733	-0.625052	0.228960
C178	C	0.220722	0.176418	1.484477
H179	H	0.151036	0.171479	1.531764
H180	H	0.292610	0.151912	1.490523
H181	H	0.174039	0.243013	1.494861
H182	H	1.085285	0.459018	0.791080
H183	H	1.085285	-0.027595	0.277683
C184	C	0.133521	0.641386	0.888451
H185	H	0.100496	0.698952	0.928328
H186	H	0.172998	0.638338	0.824306
H187	H	0.054425	0.642691	0.915421
C188	C	0.271014	-0.045174	1.262817
H189	H	0.325319	-0.078306	1.195129
H190	H	0.289057	-0.091403	1.290507
H191	H	0.170472	-0.000273	1.294879
H192	H	0.095621	0.645402	1.464125
C193	C	0.445424	0.168203	1.311830
H194	H	0.391086	0.201358	1.379520
H195	H	0.545956	0.123326	1.279776
H196	H	0.427359	0.214431	1.284136
C197	C	0.445510	0.493120	0.986849
H198	H	0.518605	0.430706	0.976683
H199	H	0.482353	0.526091	0.963612
H200	H	0.363765	0.530457	1.054730
C201	C	0.220807	0.665800	0.995120
H202	H	0.260875	0.660941	1.024819
H203	H	0.237855	0.697901	0.953304
H204	H	0.119271	0.702249	1.044405
H205	H	0.201583	0.480236	1.472914
C206	C	0.184816	0.680278	1.297611
H207	H	0.106903	0.730880	1.361967
H208	H	0.257810	0.685879	1.263794
H209	H	0.150053	0.685863	1.263801
