data_functionalizedCrystal
_audit_creation_method	'MofGen! by Chris Wilmer'
_symmetry_space_group_name_H-M	'P1'
_symmetry_Int_Tables_number	1
_symmetry_cell_setting	triclinic
loop_
_symmetry_equiv_pos_as_xyz
  x,y,z
_cell_length_a	19.188925
_cell_length_b	19.188930
_cell_length_c	18.266242
_cell_angle_alpha	89.988525
_cell_angle_beta	89.990012
_cell_angle_gamma	83.143665
loop_
_atom_site_label
_atom_site_type_symbol
_atom_site_fract_x
_atom_site_fract_y
_atom_site_fract_z
O1	O	0.926152	0.087151	-0.060905
O2	O	0.722840	0.098889	-0.060904
O3	O	0.830363	-0.008636	-0.060890
O4	O	0.818629	0.194675	-0.060919
O5	O	0.830345	-0.008642	0.060872
O6	O	0.722822	0.098883	0.060858
O7	O	0.926133	0.087145	0.060857
Zn8	Zn	0.824475	0.093013	0.080190
Zn9	Zn	0.824499	0.093021	-0.080237
O10	O	0.818610	0.194670	0.060843
C11	C	0.696820	0.098507	-0.000023
C12	C	0.619315	0.097367	-0.000022
C13	C	0.057545	0.152831	-0.000031
C14	C	0.130368	0.153908	-0.000035
C15	C	0.175302	0.090816	-0.000025
C16	C	0.147408	0.026642	-0.000030
C17	C	0.074586	0.025568	-0.000033
N18	N	0.295973	0.045138	0.041430
N19	N	0.365151	0.046163	0.041435
C20	C	0.394712	0.094050	-0.000017
N21	N	0.352480	0.140883	-0.041464
N22	N	0.283296	0.139860	-0.041465
C23	C	0.254267	0.091974	-0.000022
C24	C	0.501561	0.159386	-0.000022
C25	C	0.574385	0.160460	-0.000031
C26	C	0.591425	0.033193	-0.000018
C27	C	0.518601	0.032121	-0.000016
C28	C	0.473673	0.095220	-0.000015
C29	C	0.829974	-0.034650	-0.000007
C30	C	0.828833	-0.112154	-0.000001
C31	C	0.891924	-0.157079	0.000002
C32	C	0.890852	-0.229903	-0.000009
C33	C	0.826686	-0.257799	-0.000010
C34	C	0.763587	-0.212864	-0.000017
C35	C	0.764660	-0.140041	-0.000012
N36	N	0.777633	-0.365805	0.041429
N37	N	0.776617	-0.434983	0.041426
C38	C	0.823448	-0.477207	-0.000024
N39	N	0.871343	-0.447641	-0.041463
N40	N	0.872361	-0.378456	-0.041457
C41	C	0.825515	-0.336761	-0.000015
C42	C	0.885381	-0.601097	-0.000035
C43	C	0.884307	-0.673922	-0.000051
C44	C	0.757040	-0.656880	-0.000051
C45	C	0.758116	-0.584057	-0.000042
C46	C	0.822289	-0.556170	-0.000031
C47	C	0.952154	0.087527	-0.000026
C48	C	1.029658	0.088666	-0.000032
C49	C	0.819000	0.220684	-0.000041
C50	C	0.820140	0.298188	-0.000053
N51	N	0.824463	0.093008	0.189677
N52	N	0.824515	0.093020	-0.189724
C53	C	0.872090	0.045419	0.227992
C54	C	0.872095	0.045416	0.304637
C55	C	0.824479	0.093013	0.342964
C56	C	0.776843	0.140606	0.304639
C57	C	0.776836	0.140603	0.227996
N58	N	0.815403	0.154821	0.463287
N59	N	0.815415	0.154821	0.536096
C60	C	0.824499	0.093024	0.573886
N61	N	0.833584	0.031223	0.536118
N62	N	0.833576	0.031223	0.463303
C63	C	0.824482	0.093021	0.426071
C64	C	0.872133	0.045427	0.695308
C65	C	0.872132	0.045423	0.771955
C66	C	0.776884	0.140619	0.771956
C67	C	0.776881	0.140617	0.695311
C68	C	0.824509	0.093022	0.656992
H69	H	0.153078	0.206160	-0.000028
H70	H	0.020968	0.204211	-0.000034
H71	H	0.183999	-0.024728	-0.000023
H72	H	0.628010	-0.018178	-0.000015
H73	H	0.597088	0.212713	-0.000036
H74	H	0.495896	-0.020129	-0.000012
H75	H	0.704794	-0.679592	-0.000055
H76	H	0.464978	0.210765	-0.000022
H77	H	0.944179	-0.134379	0.000009
H78	H	0.910870	0.006663	0.196795
H79	H	0.051883	-0.026685	-0.000033
H80	H	0.910912	0.006670	0.664108
H81	H	0.942230	-0.266488	-0.000010
H82	H	0.711342	-0.235581	-0.000019
H83	H	0.738073	0.179359	0.335849
H84	H	0.713282	-0.103462	-0.000015
H85	H	0.937635	-0.578390	-0.000029
H86	H	0.935686	-0.710500	-0.000053
H87	H	0.706740	-0.547478	-0.000041
H88	H	0.738051	0.179356	0.196799
H89	H	0.910879	0.006662	0.335839
H90	H	0.910914	0.006667	0.803151
H91	H	0.738112	0.179371	0.803161
H92	H	0.738102	0.179371	0.664113
