data_functionalizedCrystal
_audit_creation_method	'MofGen! by Chris Wilmer'
_symmetry_space_group_name_H-M	'P1'
_symmetry_Int_Tables_number	1
_symmetry_cell_setting	triclinic
loop_
_symmetry_equiv_pos_as_xyz
  x,y,z
_cell_length_a	17.038275
_cell_length_b	10.065875
_cell_length_c	11.026607
_cell_angle_alpha	79.268236
_cell_angle_beta	80.151100
_cell_angle_gamma	80.618684
loop_
_atom_site_label
_atom_site_type_symbol
_atom_site_fract_x
_atom_site_fract_y
_atom_site_fract_z
O1	O	-1.084091	0.113282	0.250537
O2	O	-0.855866	0.113328	0.246283
O3	O	-0.951063	0.113304	0.069804
O4	O	-0.988894	0.113306	0.427016
O5	O	-0.932930	-0.113681	0.103601
O6	O	-0.837733	-0.113656	0.280080
O7	O	-1.065959	-0.113702	0.284334
Zn8	Zn	-0.948967	-0.149718	0.287573
Zn9	Zn	-0.972857	0.149343	0.243044
O10	O	-0.970761	-0.113678	0.460813
C11	C	-0.817127	-0.000158	0.259319
C12	C	-0.728712	-0.000140	0.247794
N13	N	-0.932668	-0.353819	0.317962
C14	C	-0.967180	-0.421607	0.253609
C15	C	-0.954644	-0.578771	0.277008
C16	C	-0.693504	-0.000140	0.353578
C17	C	-0.610426	-0.000156	0.342747
C18	C	-0.562558	-0.000164	0.226129
C19	C	-0.597771	-0.000169	0.120338
C20	C	-0.680847	-0.000162	0.131172
C21	C	-0.311404	-0.000195	0.187857
C22	C	-0.228323	-0.000198	0.177030
C23	C	-0.240983	-0.000187	0.399440
C24	C	-0.324061	-0.000172	0.410263
C25	C	-0.359267	-0.000184	0.304473
C26	C	-0.477638	-0.000177	0.215055
C27	C	-0.444184	-0.000181	0.315550
C28	C	-0.104697	-0.000207	0.271296
C29	C	-0.193115	-0.000197	0.282814
C30	C	-0.935018	-0.000185	0.040771
C31	C	-0.914213	-0.000176	-0.096092
N32	N	-0.989161	0.353445	0.212645
C33	C	-0.971659	-0.000186	-0.163966
C34	C	-0.950158	-0.000177	-0.305421
C35	C	-0.986807	-0.000186	0.489846
C36	C	-1.007612	-0.000186	0.626708
H37	H	-0.915809	-0.637082	0.349426
H38	H	-0.885056	-0.000155	-0.352032
N39	N	-0.428738	-0.000199	0.095938
N40	N	-0.373336	-0.095887	0.079334
H41	H	-0.338797	-0.095906	-0.004792
H42	H	-1.006005	-0.363293	0.181186
N43	N	-1.037914	-0.573439	0.121835
N44	N	-1.070389	-0.637094	0.061353
H45	H	-1.104833	-0.585458	-0.002766
N46	N	-1.089280	-0.000222	-0.314815
N47	N	-1.108152	-0.095912	-0.230387
H48	H	-1.165829	-0.095940	-0.189085
H49	H	-0.849115	-0.000154	-0.142708
N50	N	-0.883952	-0.426985	0.408797
N51	N	-0.873833	-0.554551	0.427672
H52	H	-0.839425	-0.606225	0.491825
H53	H	-0.709512	-0.000162	0.045031
N54	N	-0.742384	-0.000147	0.472713
N55	N	-0.729703	-0.095831	0.560204
H56	H	-0.764222	-0.095843	0.644349
N57	N	-0.574475	-0.000163	0.450816
N58	N	-0.617223	-0.000150	0.554930
H59	H	-0.591834	-0.000156	0.631261
N60	N	-0.372945	-0.000147	0.529392
N61	N	-0.341499	-0.000138	0.623834
H62	H	-0.376023	-0.000111	0.707971
H63	H	-0.212310	-0.000180	0.485569
N64	N	-0.179436	-0.000202	0.057892
N65	N	-0.210878	-0.000213	-0.036553
H66	H	-0.176353	-0.000214	-0.120692
N67	N	-1.053332	-0.000195	-0.105526
N68	N	-1.105830	0.095473	-0.138871
H69	H	-1.163515	0.095467	-0.097602
N70	N	-0.347346	-0.000201	0.079785
N71	N	-0.304595	-0.000200	-0.024328
H72	H	-0.329981	-0.000202	-0.100661
H73	H	-0.558788	-0.000195	0.025389
H74	H	-0.483161	-0.000182	0.410500
