data_functionalizedCrystal
_audit_creation_method	'MofGen! by Chris Wilmer'
_symmetry_space_group_name_H-M	'P1'
_symmetry_Int_Tables_number	1
_symmetry_cell_setting	triclinic
loop_
_symmetry_equiv_pos_as_xyz
  x,y,z
_cell_length_a	19.805407
_cell_length_b	25.639240
_cell_length_c	19.805399
_cell_angle_alpha	89.964092
_cell_angle_beta	89.975799
_cell_angle_gamma	90.032003
loop_
_atom_site_label
_atom_site_type_symbol
_atom_site_fract_x
_atom_site_fract_y
_atom_site_fract_z
Zn1	Zn	1.034706	-0.208173	-0.382764
Zn2	Zn	1.368039	0.125160	-0.049431
Zn3	Zn	1.701373	0.458493	0.283903
Zn4	Zn	1.034608	-0.295607	-0.269559
Zn5	Zn	1.367941	0.037726	0.063774
Zn6	Zn	1.701275	0.371059	0.397107
Zn7	Zn	0.921520	-0.208187	-0.269579
Zn8	Zn	1.254854	0.125147	0.063754
Zn9	Zn	1.588187	0.458480	0.397087
Zn10	Zn	0.921471	-0.295578	-0.382697
Zn11	Zn	1.254805	0.037755	-0.049364
Zn12	Zn	1.588138	0.371088	0.283970
O13	O	0.978076	-0.251886	-0.326150
O14	O	1.311410	0.081447	0.007183
O15	O	1.644743	0.414780	0.340517
O16	O	1.129409	-0.219778	-0.367767
O17	O	1.462743	0.113555	-0.034433
O18	O	1.796076	0.446888	0.298900
O19	O	1.019586	-0.284029	-0.174845
O20	O	1.352920	0.049305	0.158488
O21	O	1.686253	0.382638	0.491821
O22	O	0.936596	-0.135020	-0.284630
O23	O	1.269930	0.198314	0.048703
O24	O	1.603263	0.531647	0.382037
O25	O	1.129338	-0.284016	-0.284596
O26	O	1.462671	0.049318	0.048738
O27	O	1.796004	0.382651	0.382071
O28	O	1.019753	-0.135010	-0.367786
O29	O	1.353086	0.198323	-0.034453
O30	O	1.686420	0.531657	0.298880
O31	O	0.936501	-0.219801	-0.174860
O32	O	1.269835	0.113532	0.158473
O33	O	1.603168	0.446866	0.491806
O34	O	0.826797	-0.219773	-0.284565
O35	O	1.160131	0.113561	0.048768
O36	O	1.493464	0.446894	0.382102
O37	O	0.936513	-0.283966	-0.477422
O38	O	1.269846	0.049367	-0.144089
O39	O	1.603179	0.382700	0.189244
O40	O	0.826761	-0.283979	-0.367672
O41	O	1.160095	0.049354	-0.034339
O42	O	1.493428	0.382687	0.298995
O43	O	1.019705	-0.219750	-0.477472
O44	O	1.353039	0.113583	-0.144138
O45	O	1.686372	0.446916	0.189195
O46	O	1.019539	-0.368769	-0.284531
O47	O	1.352872	-0.035435	0.048803
O48	O	1.686206	0.297898	0.382136
O49	O	0.936418	-0.368748	-0.367652
O50	O	1.269751	-0.035414	-0.034319
O51	O	1.603085	0.297919	0.299014
C52	C	0.802220	-0.251875	-0.326114
C53	C	1.135554	0.081459	0.007219
C54	C	1.468887	0.414792	0.340553
C55	C	0.726988	-0.251882	-0.326114
C56	C	1.060322	0.081451	0.007219
C57	C	1.393655	0.414784	0.340552
C58	C	0.265196	-0.285382	-0.369399
C59	C	0.598530	0.047952	-0.036066
C60	C	0.931863	0.381285	0.297268
C61	C	0.335885	-0.285381	-0.369385
C62	C	0.669218	0.047953	-0.036051
C63	C	1.002552	0.381286	0.297282
C64	C	0.371227	-0.251899	-0.326176
C65	C	0.704560	0.081434	0.007157
C66	C	1.037893	0.414768	0.340490
C67	C	0.335877	-0.218420	-0.282975
C68	C	0.669210	0.114913	0.050359
C69	C	1.002543	0.448247	0.383692
C70	C	0.265189	-0.218424	-0.282986
C71	C	0.598523	0.114910	0.050347
C72	C	0.931856	0.448243	0.383681
C73	C	0.620950	-0.218404	-0.282927
C74	C	0.954283	0.114929	0.050406
C75	C	1.287616	0.448263	0.383740
C76	C	0.691642	-0.218402	-0.282920
C77	C	1.024975	0.114932	0.050413
C78	C	1.358309	0.448265	0.383746
C79	C	0.691645	-0.285361	-0.369326
C80	C	1.024979	0.047972	-0.035992
C81	C	1.358312	0.381306	0.297341
C82	C	0.620958	-0.285365	-0.369337
C83	C	0.954291	0.047969	-0.036004
C84	C	1.287625	0.381302	0.297330
C85	C	0.585614	-0.251888	-0.326133
C86	C	0.918947	0.081446	0.007200
C87	C	1.252281	0.414779	0.340533
C88	C	0.508966	-0.251890	-0.326148
C89	C	0.842299	0.081444	0.007185
C90	C	1.175632	0.414777	0.340518
C91	C	0.447874	-0.251894	-0.326164
C92	C	0.781207	0.081439	0.007169
C93	C	1.114541	0.414773	0.340502
C94	C	0.977981	-0.387729	-0.326097
C95	C	1.311314	-0.054396	0.007236
C96	C	1.644648	0.278938	0.340570
C97	C	0.978002	-0.445843	-0.326097
C98	C	1.311335	-0.112510	0.007236
C99	C	1.644669	0.220824	0.340570
C100	C	1.021398	-0.806163	-0.369527
C101	C	1.354731	-0.472829	-0.036194
C102	C	1.688064	-0.139496	0.297139
C103	C	1.021418	-0.860767	-0.369541
C104	C	1.354751	-0.527434	-0.036208
C105	C	1.688084	-0.194100	0.297125
O106	O	1.058201	-0.888967	-0.406413
O107	O	1.391534	-0.555633	-0.073080
O108	O	1.724867	-0.222300	0.260254
N109	N	0.978170	-0.888126	-0.326215
N110	N	1.311504	-0.554792	0.007118
N111	N	1.644837	-0.221459	0.340451
C112	C	0.934895	-0.860877	-0.282878
C113	C	1.268229	-0.527544	0.050456
C114	C	1.601562	-0.194210	0.383789
O115	O	0.898112	-0.889162	-0.246027
O116	O	1.231445	-0.555828	0.087306
O117	O	1.564778	-0.222495	0.420639
C118	C	0.934873	-0.806274	-0.282868
C119	C	1.268206	-0.472940	0.050465
C120	C	1.601539	-0.139607	0.383799
C121	C	0.978128	-0.778918	-0.326192
C122	C	1.311461	-0.445585	0.007142
C123	C	1.644794	-0.112251	0.340475
C124	C	1.064649	-0.778807	-0.412848
C125	C	1.397982	-0.445473	-0.079515
C126	C	1.731315	-0.112140	0.253818
C127	C	1.064629	-0.724206	-0.412834
C128	C	1.397963	-0.390873	-0.079500
C129	C	1.731296	-0.057540	0.253833
C130	C	1.021359	-0.696962	-0.369498
C131	C	1.354693	-0.363628	-0.036164
C132	C	1.688026	-0.030295	0.297169
C133	C	0.978108	-0.724317	-0.326177
C134	C	1.311442	-0.390984	0.007156
C135	C	1.644775	-0.057651	0.340490
C136	C	0.891595	-0.779026	-0.239534
C137	C	1.224928	-0.445693	0.093799
C138	C	1.558261	-0.112360	0.427132
C139	C	0.891575	-0.724419	-0.239528
C140	C	1.224909	-0.391086	0.093805
C141	C	1.558242	-0.057753	0.427138
C142	C	0.934830	-0.697063	-0.282852
C143	C	1.268164	-0.363730	0.050481
C144	C	1.601497	-0.030397	0.383814
C145	C	0.934819	-0.642472	-0.282826
C146	C	1.268152	-0.309139	0.050507
C147	C	1.601486	0.024195	0.383840
N148	N	0.978066	-0.615114	-0.326152
N149	N	1.311400	-0.281780	0.007181
N150	N	1.644733	0.051553	0.340514
C151	C	1.021336	-0.642358	-0.369488
C152	C	1.354670	-0.309025	-0.036155
C153	C	1.688003	0.024308	0.297179
C154	C	0.934946	-0.975548	-0.282903
C155	C	1.268279	-0.642214	0.050431
C156	C	1.601613	-0.308881	0.383764
C157	C	0.934972	-1.030150	-0.282908
C158	C	1.268305	-0.696817	0.050425
C159	C	1.601638	-0.363483	0.383758
C160	C	1.021493	-1.030036	-0.369573
C161	C	1.354827	-0.696703	-0.036240
C162	C	1.688160	-0.363369	0.297094
C163	C	1.021470	-0.975433	-0.369563
C164	C	1.354804	-0.642099	-0.036230
C165	C	1.688137	-0.308766	0.297103
C166	C	0.978193	-0.948189	-0.326228
C167	C	1.311527	-0.614856	0.007105
C168	C	1.644860	-0.281522	0.340438
C169	C	1.021293	-0.527693	-0.369453
C170	C	1.354626	-0.194360	-0.036120
C171	C	1.687960	0.138974	0.297213
C172	C	1.021272	-0.473088	-0.369433
C173	C	1.354605	-0.139754	-0.036099
C174	C	1.687939	0.193579	0.297234
C175	C	0.934748	-0.473206	-0.282771
C176	C	1.268082	-0.139873	0.050563
C177	C	1.601415	0.193460	0.383896
C178	C	0.934772	-0.527807	-0.282789
C179	C	1.268105	-0.194474	0.050545
C180	C	1.601438	0.138860	0.383878
C181	C	0.978046	-0.555049	-0.326135
C182	C	1.311380	-0.221716	0.007198
C183	C	1.644713	0.111618	0.340531
O184	O	0.898053	-0.614238	-0.245975
O185	O	1.231386	-0.280904	0.087358
O186	O	1.564719	0.052429	0.420691
O187	O	1.058108	-0.614067	-0.406338
O188	O	1.391441	-0.280734	-0.073005
O189	O	1.724774	0.052600	0.260328
C190	C	1.154619	-0.251899	-0.326187
C191	C	1.487953	0.081435	0.007147
C192	C	1.821286	0.414768	0.340480
C193	C	1.229851	-0.251904	-0.326202
C194	C	1.563184	0.081429	0.007131
C195	C	1.896518	0.414763	0.340465
C196	C	0.978114	-0.251854	-0.502693
C197	C	1.311448	0.081480	-0.169359
C198	C	1.644781	0.414813	0.163974
C199	C	0.978131	-0.251840	-0.577925
C200	C	1.311464	0.081494	-0.244591
C201	C	1.644797	0.414827	0.088742
C202	C	0.978191	-0.115513	-0.326218
C203	C	1.311524	0.217820	0.007115
C204	C	1.644858	0.551153	0.340449
C205	C	0.978240	-0.057399	-0.326247
C206	C	1.311573	0.275934	0.007086
C207	C	1.644906	0.609267	0.340420
C208	C	1.021450	-0.218401	-0.613296
C209	C	1.354783	0.114933	-0.279962
C210	C	1.688117	0.448266	0.053371
C211	C	1.021457	-0.218385	-0.683984
C212	C	1.354790	0.114948	-0.350651
C213	C	1.688124	0.448281	-0.017318
C214	C	0.978147	-0.251812	-0.719300
C215	C	1.311481	0.081521	-0.385967
C216	C	1.644814	0.414854	-0.052634
C217	C	0.934823	-0.285253	-0.683925
C218	C	1.268157	0.048081	-0.350591
C219	C	1.601490	0.381414	-0.017258
C220	C	0.934813	-0.285265	-0.613237
C221	C	1.268147	0.048068	-0.279904
C222	C	1.601480	0.381402	0.053429
C223	C	0.934861	-0.285204	-0.968998
C224	C	1.268195	0.048129	-0.635665
C225	C	1.601528	0.381463	-0.302331
C226	C	0.934876	-0.285190	-1.039690
C227	C	1.268209	0.048143	-0.706357
C228	C	1.601543	0.381476	-0.373024
C229	C	1.021505	-0.218324	-1.039745
C230	C	1.354838	0.115009	-0.706411
C231	C	1.688172	0.448342	-0.373078
C232	C	1.021495	-0.218337	-0.969058
C233	C	1.354829	0.114997	-0.635724
C234	C	1.688162	0.448330	-0.302391
C235	C	0.978169	-0.251775	-0.933688
C236	C	1.311502	0.081558	-0.600355
C237	C	1.644835	0.414892	-0.267021
C238	C	0.978161	-0.251790	-0.857039
C239	C	1.311494	0.081543	-0.523706
C240	C	1.644828	0.414876	-0.190373
C241	C	0.978158	-0.251800	-0.795948
C242	C	1.311492	0.081533	-0.462614
C243	C	1.644825	0.414867	-0.129281
C244	C	0.978078	-0.251882	-0.150294
C245	C	1.311411	0.081452	0.183039
C246	C	1.644744	0.414785	0.516373
C247	C	0.978193	-0.251748	-0.075062
C248	C	1.311526	0.081585	0.258271
C249	C	1.644859	0.414918	0.591604
H250	H	0.364660	-0.312643	-0.404558
H251	H	0.697993	0.020690	-0.071225
H252	H	1.031327	0.354024	0.262108
H253	H	0.899557	-0.312468	-0.712685
H254	H	1.232891	0.020866	-0.379351
H255	H	1.566224	0.354199	-0.046018
C256	C	0.844005	-0.809105	-0.191878
C257	C	1.177339	-0.475772	0.141455
C258	C	1.510672	-0.142439	0.474788
N259	N	0.808156	-0.831760	-0.155983
N260	N	1.141489	-0.498427	0.177350
N261	N	1.474823	-0.165094	0.510684
H262	H	1.056734	-0.191157	-0.712780
H263	H	1.390067	0.142176	-0.379447
H264	H	1.723400	0.475509	-0.046113
H265	H	0.592181	-0.191147	-0.247745
H266	H	0.925515	0.142186	0.085588
H267	H	1.258848	0.475520	0.418921
C268	C	0.887151	-0.443227	-0.235107
C269	C	1.220484	-0.109894	0.098227
C270	C	1.553817	0.223440	0.431560
N271	N	0.851295	-0.420645	-0.199210
N272	N	1.184629	-0.087311	0.134123
N273	N	1.517962	0.246022	0.467457
H274	H	1.056720	-0.191182	-0.584546
H275	H	1.390053	0.142151	-0.251213
H276	H	1.723387	0.475485	0.082120
H277	H	1.056765	-0.191119	-0.940307
H278	H	1.390098	0.142215	-0.606973
H279	H	1.723431	0.475548	-0.273640
C280	C	0.887199	-0.321986	-0.930101
C281	C	1.220532	0.011348	-0.596767
C282	C	1.553866	0.344681	-0.263434
N283	N	0.851296	-0.349690	-0.900801
N284	N	1.184629	-0.016357	-0.567467
N285	N	1.517963	0.316976	-0.234134
C286	C	0.582086	-0.322201	-0.416864
C287	C	0.915419	0.011132	-0.083530
C288	C	1.248753	0.344465	0.249803
N289	N	0.552808	-0.349951	-0.452658
N290	N	0.886142	-0.016618	-0.119325
N291	N	1.219475	0.316716	0.214009
H292	H	1.056781	-0.191096	-1.068551
H293	H	1.390115	0.142238	-0.735218
H294	H	1.723448	0.475571	-0.401885
H295	H	0.899707	-0.953368	-0.247609
H296	H	1.233040	-0.620035	0.085725
H297	H	1.566373	-0.286702	0.419058
H298	H	1.099884	-0.800984	-0.448141
H299	H	1.433218	-0.467650	-0.114808
H300	H	1.766551	-0.134317	0.218525
H301	H	0.899605	-0.312412	-1.068443
H302	H	1.232939	0.020922	-0.735109
H303	H	1.566272	0.354255	-0.401776
C304	C	0.887160	-0.322051	-0.574330
C305	C	1.220493	0.011282	-0.240996
C306	C	1.553826	0.344615	0.092337
N307	N	0.851264	-0.349759	-0.545025
N308	N	1.184598	-0.016426	-0.211692
N309	N	1.517931	0.316908	0.121641
H310	H	0.720431	-0.312621	-0.404503
H311	H	1.053764	0.020712	-0.071169
H312	H	1.387098	0.354046	0.262164
C313	C	0.226327	-0.322216	-0.416931
C314	C	0.559660	0.011118	-0.083598
C315	C	0.892994	0.344451	0.249736
N316	N	0.197052	-0.349963	-0.452731
N317	N	0.530386	-0.016629	-0.119398
N318	N	0.863719	0.316704	0.213936
H319	H	0.720415	-0.191135	-0.247734
H320	H	1.053749	0.142199	0.085600
H321	H	1.387082	0.475532	0.418933
H322	H	1.056692	-0.953163	-0.404842
H323	H	1.390025	-0.619829	-0.071508
H324	H	1.723359	-0.286496	0.261825
H325	H	0.364658	-0.191161	-0.247791
H326	H	0.697991	0.142172	0.085543
H327	H	1.031324	0.475506	0.418876
H328	H	1.056498	-0.450816	-0.404712
H329	H	1.389831	-0.117483	-0.071379
H330	H	1.723164	0.215850	0.261955
C331	C	0.226310	-0.181594	-0.235468
C332	C	0.559643	0.151739	0.097866
C333	C	0.892977	0.485072	0.431199
N334	N	0.197027	-0.153854	-0.199674
N335	N	0.530360	0.179479	0.133659
N336	N	0.863694	0.512813	0.466992
H337	H	1.056527	-0.549867	-0.404755
H338	H	1.389860	-0.216534	-0.071421
H339	H	1.723193	0.116800	0.261912
H340	H	1.099849	-0.701936	-0.448113
H341	H	1.433183	-0.368603	-0.114780
H342	H	1.766516	-0.035270	0.218553
C343	C	0.887193	-0.557899	-0.235127
C344	C	1.220526	-0.224566	0.098207
C345	C	1.553860	0.108767	0.431540
N346	N	0.851351	-0.580561	-0.199232
N347	N	1.184684	-0.247228	0.134102
N348	N	1.518018	0.086105	0.467435
C349	C	0.887393	-1.060235	-0.235244
C350	C	1.220727	-0.726902	0.098090
C351	C	1.554060	-0.393569	0.431423
N352	N	0.851552	-1.082894	-0.199344
N353	N	1.184885	-0.749560	0.133990
N354	N	1.518219	-0.416227	0.467323
C355	C	1.069087	-1.060016	-0.417249
C356	C	1.402420	-0.726682	-0.083915
C357	C	1.735753	-0.393349	0.249418
N358	N	1.104931	-1.082598	-0.453156
N359	N	1.438264	-0.749265	-0.119823
N360	N	1.771598	-0.415931	0.213511
C361	C	0.843967	-0.694455	-0.191855
C362	C	1.177300	-0.361121	0.141479
C363	C	1.510633	-0.027788	0.474812
N364	N	0.808109	-0.671886	-0.155945
N365	N	1.141443	-0.338553	0.177388
N366	N	1.474776	-0.005220	0.510722
