data_functionalizedCrystal
_audit_creation_method	'MofGen! by Chris Wilmer'
_symmetry_space_group_name_H-M	'P1'
_symmetry_Int_Tables_number	1
_symmetry_cell_setting	triclinic
loop_
_symmetry_equiv_pos_as_xyz
  x,y,z
_cell_length_a	19.188925
_cell_length_b	19.188930
_cell_length_c	18.266242
_cell_angle_alpha	89.993204
_cell_angle_beta	89.992706
_cell_angle_gamma	83.143665
loop_
_atom_site_label
_atom_site_type_symbol
_atom_site_fract_x
_atom_site_fract_y
_atom_site_fract_z
O1	O	0.926149	0.087146	-0.060905
O2	O	1.259483	0.420479	0.272428
O3	O	1.592816	0.753813	0.605762
O4	O	0.722838	0.098884	-0.060904
O5	O	1.056171	0.432218	0.272429
O6	O	1.389504	0.765551	0.605763
O7	O	0.830361	-0.008641	-0.060890
O8	O	1.163694	0.324693	0.272443
O9	O	1.497027	0.658026	0.605776
O10	O	0.818626	0.194671	-0.060919
O11	O	1.151960	0.528004	0.272415
O12	O	1.485293	0.861338	0.605748
O13	O	0.830347	-0.008637	0.060872
O14	O	1.163680	0.324696	0.394205
O15	O	1.497014	0.658030	0.727538
O16	O	0.722824	0.098888	0.060858
O17	O	1.056157	0.432221	0.394191
O18	O	1.389491	0.765554	0.727525
O19	O	0.926136	0.087150	0.060857
O20	O	1.259469	0.420483	0.394190
O21	O	1.592802	0.753816	0.727524
Zn22	Zn	0.824478	0.093019	0.080190
Zn23	Zn	1.157811	0.426353	0.413523
Zn24	Zn	1.491144	0.759686	0.746857
Zn25	Zn	0.824496	0.093015	-0.080237
Zn26	Zn	1.157829	0.426348	0.253097
Zn27	Zn	1.491162	0.759681	0.586430
O28	O	0.818613	0.194674	0.060843
O29	O	1.151946	0.528008	0.394177
O30	O	1.485279	0.861341	0.727510
C31	C	0.696820	0.098507	-0.000023
C32	C	1.030153	0.431840	0.333311
C33	C	1.363486	0.765173	0.666644
C34	C	0.619315	0.097367	-0.000022
C35	C	0.952648	0.430701	0.333312
C36	C	1.285982	0.764034	0.666645
C37	C	0.057545	0.152831	-0.000031
C38	C	0.390878	0.486165	0.333302
C39	C	0.724211	0.819498	0.666635
C40	C	0.130368	0.153908	-0.000035
C41	C	0.463701	0.487241	0.333298
C42	C	0.797035	0.820575	0.666631
C43	C	0.175302	0.090816	-0.000025
C44	C	0.508636	0.424149	0.333308
C45	C	0.841969	0.757482	0.666642
C46	C	0.147408	0.026642	-0.000030
C47	C	0.480742	0.359976	0.333304
C48	C	0.814075	0.693309	0.666637
C49	C	0.074586	0.025568	-0.000033
C50	C	0.407920	0.358901	0.333300
C51	C	0.741253	0.692234	0.666634
N52	N	0.295975	0.045141	0.041430
N53	N	0.629308	0.378474	0.374763
N54	N	0.962642	0.711807	0.708097
N55	N	0.365152	0.046166	0.041435
N56	N	0.698485	0.379499	0.374768
N57	N	1.031819	0.712833	0.708101
C58	C	0.394712	0.094050	-0.000017
C59	C	0.728045	0.427383	0.333316
C60	C	1.061378	0.760716	0.666650
N61	N	0.352479	0.140880	-0.041464
N62	N	0.685812	0.474214	0.291869
N63	N	1.019146	0.807547	0.625203
N64	N	0.283295	0.139857	-0.041465
N65	N	0.616628	0.473190	0.291868
N66	N	0.949962	0.806524	0.625201
C67	C	0.254267	0.091974	-0.000022
C68	C	0.587600	0.425307	0.333311
C69	C	0.920933	0.758641	0.666645
C70	C	0.501561	0.159386	-0.000022
C71	C	0.834894	0.492720	0.333311
C72	C	1.168227	0.826053	0.666645
C73	C	0.574385	0.160460	-0.000031
C74	C	0.907719	0.493794	0.333303
C75	C	1.241052	0.827127	0.666636
C76	C	0.591425	0.033193	-0.000018
C77	C	0.924758	0.366526	0.333316
C78	C	1.258091	0.699859	0.666649
C79	C	0.518601	0.032121	-0.000016
C80	C	0.851934	0.365454	0.333317
C81	C	1.185268	0.698787	0.666650
C82	C	0.473673	0.095220	-0.000015
C83	C	0.807006	0.428553	0.333318
C84	C	1.140340	0.761886	0.666652
C85	C	0.829974	-0.034650	-0.000007
C86	C	1.163307	0.298683	0.333326
C87	C	1.496640	0.632017	0.666660
C88	C	0.828833	-0.112154	-0.000001
C89	C	1.162166	0.221179	0.333333
C90	C	1.495500	0.554512	0.666666
C91	C	0.891924	-0.157079	0.000002
C92	C	1.225257	0.176254	0.333336
C93	C	1.558591	0.509587	0.666669
C94	C	0.890852	-0.229903	-0.000009
C95	C	1.224186	0.103430	0.333324
C96	C	1.557519	0.436763	0.666657
C97	C	0.826686	-0.257799	-0.000010
C98	C	1.160020	0.075535	0.333324
C99	C	1.493353	0.408868	0.666657
C100	C	0.763587	-0.212864	-0.000017
C101	C	1.096920	0.120470	0.333316
C102	C	1.430254	0.453803	0.666650
C103	C	0.764660	-0.140041	-0.000012
C104	C	1.097994	0.193292	0.333321
C105	C	1.431327	0.526625	0.666654
N106	N	0.777634	-0.365801	0.041429
N107	N	1.110967	-0.032468	0.374762
N108	N	1.444301	0.300865	0.708095
N109	N	0.776619	-0.434980	0.041426
N110	N	1.109952	-0.101647	0.374759
N111	N	1.443285	0.231687	0.708093
C112	C	0.823448	-0.477207	-0.000024
C113	C	1.156781	-0.143874	0.333309
C114	C	1.490115	0.189459	0.666642
N115	N	0.871342	-0.447644	-0.041463
N116	N	1.204675	-0.114310	0.291871
N117	N	1.538009	0.219023	0.625204
N118	N	0.872359	-0.378459	-0.041457
N119	N	1.205693	-0.045126	0.291876
N120	N	1.539026	0.288208	0.625210
C121	C	0.825515	-0.336761	-0.000015
C122	C	1.158848	-0.003428	0.333319
C123	C	1.492182	0.329906	0.666652
C124	C	0.885381	-0.601097	-0.000035
C125	C	1.218715	-0.267763	0.333298
C126	C	1.552048	0.065570	0.666632
C127	C	0.884307	-0.673922	-0.000051
C128	C	1.217640	-0.340588	0.333282
C129	C	1.550974	-0.007255	0.666616
C130	C	0.757040	-0.656880	-0.000051
C131	C	1.090373	-0.323547	0.333282
C132	C	1.423706	0.009786	0.666615
C133	C	0.758116	-0.584057	-0.000042
C134	C	1.091449	-0.250724	0.333291
C135	C	1.424782	0.082610	0.666624
C136	C	0.822289	-0.556170	-0.000031
C137	C	1.155622	-0.222837	0.333303
C138	C	1.488955	0.110497	0.666636
C139	C	0.952154	0.087527	-0.000026
C140	C	1.285487	0.420861	0.333307
C141	C	1.618820	0.754194	0.666641
C142	C	1.029658	0.088666	-0.000032
C143	C	1.362992	0.422000	0.333302
C144	C	1.696325	0.755333	0.666635
C145	C	0.819000	0.220684	-0.000041
C146	C	1.152333	0.554017	0.333292
C147	C	1.485666	0.887350	0.666625
C148	C	0.820140	0.298188	-0.000053
C149	C	1.153474	0.631522	0.333281
C150	C	1.486807	0.964855	0.666614
N151	N	0.824470	0.093022	0.189677
N152	N	1.157804	0.426355	0.523010
N153	N	1.491137	0.759689	0.856343
N154	N	0.824509	0.093006	-0.189724
N155	N	1.157842	0.426340	0.143610
N156	N	1.491175	0.759673	0.476943
C157	C	0.866723	0.135241	0.771947
C158	C	1.200056	0.468575	1.105280
C159	C	1.533389	0.801908	1.438613
C160	C	0.866716	0.135248	0.695302
C161	C	1.200049	0.468582	1.028635
C162	C	1.533382	0.801915	1.361969
C163	C	0.824502	0.093007	0.656989
C164	C	1.157835	0.426341	0.990323
C165	C	1.491169	0.759674	1.323656
C166	C	0.782279	0.050770	0.695328
C167	C	1.115613	0.384103	1.028661
C168	C	1.448946	0.717437	1.361995
C169	C	0.782283	0.050770	0.771972
C170	C	1.115616	0.384103	1.105305
C171	C	1.448949	0.717436	1.438638
N172	N	0.822811	0.031847	0.536660
N173	N	1.156144	0.365180	0.869993
N174	N	1.489478	0.698514	1.203327
N175	N	0.822812	0.031849	0.463852
N176	N	1.156145	0.365183	0.797185
N177	N	1.489479	0.698516	1.130518
C178	C	0.824489	0.093008	0.426067
C179	C	1.157822	0.426341	0.759400
C180	C	1.491155	0.759674	1.092734
N181	N	0.826178	0.154164	0.463841
N182	N	1.159512	0.487497	0.797174
N183	N	1.492845	0.820831	1.130507
N184	N	0.826181	0.154161	0.536656
N185	N	1.159514	0.487494	0.869989
N186	N	1.492848	0.820827	1.203322
C187	C	0.824494	0.093004	0.573882
C188	C	1.157827	0.426337	0.907216
C189	C	1.491160	0.759670	1.240549
C190	C	0.866697	0.135254	0.304630
C191	C	1.200031	0.468587	0.637964
C192	C	1.533364	0.801920	0.971297
C193	C	0.866685	0.135262	0.227984
C194	C	1.200018	0.468596	0.561317
C195	C	1.533352	0.801929	0.894651
C196	C	0.782253	0.050777	0.228012
C197	C	1.115586	0.384111	0.561345
C198	C	1.448920	0.717444	0.894678
C199	C	0.782261	0.050775	0.304657
C200	C	1.115594	0.384109	0.637990
C201	C	1.448928	0.717442	0.971323
C202	C	0.824487	0.093012	0.342961
C203	C	1.157820	0.426346	0.676295
C204	C	1.491154	0.759679	1.009628
H205	H	0.495896	-0.020129	-0.000012
H206	H	0.829230	0.313204	0.333321
H207	H	1.162563	0.646537	0.666654
H208	H	0.153078	0.206160	-0.000028
H209	H	0.486411	0.539494	0.333305
H210	H	0.819744	0.872827	0.666639
N211	N	0.912222	0.180817	0.186643
N212	N	1.245555	0.514151	0.519977
N213	N	1.578889	0.847484	0.853310
H214	H	0.946481	0.150328	0.154839
H215	H	1.279814	0.483662	0.488172
H216	H	1.613147	0.816995	0.821506
H217	H	0.881673	0.215068	0.154890
H218	H	1.215006	0.548401	0.488223
H219	H	1.548340	0.881734	0.821556
H220	H	0.704794	-0.679592	-0.000055
H221	H	1.038128	-0.346258	0.333278
H222	H	1.371461	-0.012925	0.666612
N223	N	0.736716	0.005222	0.186700
N224	N	1.070049	0.338556	0.520034
N225	N	1.403382	0.671889	0.853367
H226	H	0.743117	0.011632	0.132330
H227	H	1.076450	0.344965	0.465663
H228	H	1.409783	0.678299	0.798997
H229	H	0.750665	-0.045594	0.200099
H230	H	1.083998	0.287740	0.533432
H231	H	1.417332	0.621073	0.866766
H232	H	0.183999	-0.024728	-0.000023
H233	H	0.517332	0.308606	0.333310
H234	H	0.850665	0.641939	0.666643
N235	N	0.690067	-0.535596	-0.000042
N236	N	1.023401	-0.202263	0.333292
N237	N	1.356734	0.131070	0.666625
H238	H	0.649254	-0.564316	-0.000043
H239	H	0.982588	-0.230983	0.333290
H240	H	1.315921	0.102351	0.666624
H241	H	0.687736	-0.505018	0.045099
H242	H	1.021069	-0.171685	0.378432
H243	H	1.354403	0.161649	0.711766
N244	N	0.736758	0.005204	0.813315
N245	N	1.070091	0.338538	1.146649
N246	N	1.403425	0.671871	1.479982
H247	H	0.743169	0.011611	0.867681
H248	H	1.076502	0.344945	1.201015
H249	H	1.409835	0.678278	1.534348
H250	H	0.685937	0.019127	0.799930
H251	H	1.019270	0.352460	1.133264
H252	H	1.352603	0.685794	1.466597
N253	N	0.044504	-0.043641	-0.000033
N254	N	0.377837	0.289692	0.333301
N255	N	0.711171	0.623025	0.666634
H256	H	0.084017	-0.083449	-0.000029
H257	H	0.417350	0.249885	0.333304
H258	H	0.750684	0.583218	0.666638
H259	H	0.014656	-0.046859	0.045107
H260	H	0.347989	0.286474	0.378440
H261	H	0.681323	0.619807	0.711773
N262	N	0.912231	0.180817	0.345946
N263	N	1.245565	0.514150	0.679279
N264	N	1.578898	0.847483	1.012613
H265	H	0.881730	0.215065	0.377749
H266	H	1.215063	0.548398	0.711083
H267	H	1.548397	0.881731	1.044416
H268	H	0.946496	0.150284	0.377698
H269	H	1.279829	0.483617	0.711031
H270	H	1.613162	0.816950	1.044365
H271	H	0.937635	-0.578390	-0.000029
H272	H	1.270968	-0.245057	0.333305
H273	H	1.604301	0.088277	0.666638
H274	H	0.713282	-0.103462	-0.000015
H275	H	1.046616	0.229871	0.333318
H276	H	1.379949	0.563204	0.666652
H277	H	0.901105	0.169635	0.803130
H278	H	1.234439	0.502968	1.136463
H279	H	1.567772	0.836302	1.469796
N280	N	0.952359	-0.722381	-0.000051
N281	N	1.285692	-0.389048	0.333283
N282	N	1.619025	-0.055714	0.666616
H283	H	0.993171	-0.693661	-0.000040
H284	H	1.326505	-0.360328	0.333293
H285	H	1.659838	-0.026994	0.666627
H286	H	0.954674	-0.752974	0.045085
H287	H	1.288007	-0.419641	0.378419
H288	H	1.621340	-0.086308	0.711752
H289	H	0.942230	-0.266488	-0.000010
H290	H	1.275564	0.066845	0.333324
H291	H	1.608897	0.400178	0.666657
N292	N	0.912257	0.180800	0.653956
N293	N	1.245591	0.514133	0.987289
N294	N	1.578924	0.847466	1.320623
H295	H	0.946518	0.150307	0.622157
H296	H	1.279851	0.483640	0.955490
H297	H	1.613184	0.816974	1.288824
H298	H	0.881712	0.215049	0.622198
H299	H	1.215046	0.548382	0.955531
H300	H	1.548379	0.881715	1.288864
N301	N	0.453097	0.227438	-0.000029
N302	N	0.786430	0.560771	0.333305
N303	N	1.119763	0.894105	0.666638
H304	H	0.481816	0.268251	-0.000037
H305	H	0.815149	0.601585	0.333296
H306	H	1.148482	0.934918	0.666630
H307	H	0.422518	0.229760	-0.045168
H308	H	0.755851	0.563094	0.288165
H309	H	1.089184	0.896427	0.621498
N310	N	0.736751	0.005208	0.654011
N311	N	1.070084	0.338541	0.987344
N312	N	1.403417	0.671874	1.320678
H313	H	0.743157	0.011613	0.599641
H314	H	1.076490	0.344946	0.932974
H315	H	1.409824	0.678280	1.266307
H316	H	0.750704	-0.045606	0.667416
H317	H	1.084038	0.287727	1.000749
H318	H	1.417371	0.621061	1.334083
N319	N	0.009114	0.220902	0.000015
N320	N	0.342448	0.554235	0.333349
N321	N	0.675781	0.887569	0.666682
H322	H	0.018064	0.248935	-0.045107
H323	H	0.351397	0.582268	0.288226
H324	H	0.684730	0.915601	0.621560
H325	H	-0.041240	0.210459	0.000057
H326	H	0.292093	0.543792	0.333391
H327	H	0.625427	0.877125	0.666724
H328	H	0.597088	0.212713	-0.000036
H329	H	0.930421	0.546046	0.333297
H330	H	1.263755	0.879380	0.666630
H331	H	0.747889	0.016380	0.335865
H332	H	1.081222	0.349713	0.669198
H333	H	1.414556	0.683047	1.002531
H334	H	0.628010	-0.018178	-0.000015
H335	H	0.961343	0.315155	0.333318
H336	H	1.294676	0.648489	0.666652
H337	H	0.711342	-0.235581	-0.000019
H338	H	1.044676	0.097753	0.333315
H339	H	1.378009	0.431086	0.666648
N340	N	0.961136	-0.127001	0.000014
N341	N	1.294469	0.206332	0.333347
N342	N	1.627802	0.539666	0.666680
H343	H	1.000941	-0.166516	0.000014
H344	H	1.334275	0.166817	0.333347
H345	H	1.667608	0.500151	0.666680
H346	H	0.964361	-0.097152	-0.045123
H347	H	1.297695	0.236182	0.288210
H348	H	1.631028	0.569515	0.621543
