data_functionalizedCrystal
_audit_creation_method	'MofGen! by Chris Wilmer'
_symmetry_space_group_name_H-M	'P1'
_symmetry_Int_Tables_number	1
_symmetry_cell_setting	triclinic
loop_
_symmetry_equiv_pos_as_xyz
  x,y,z
_cell_length_a	6.817900
_cell_length_b	16.417825
_cell_length_c	11.102193
_cell_angle_alpha	93.888633
_cell_angle_beta	108.604059
_cell_angle_gamma	103.385495
loop_
_atom_site_label
_atom_site_type_symbol
_atom_site_fract_x
_atom_site_fract_y
_atom_site_fract_z
V1	V	-4.084990	-0.115891	-0.396703
O2	O	-4.071821	0.005563	-0.388693
O3	O	-4.035699	-0.229787	-0.394430
O4	O	-4.062172	-0.114111	-0.569518
O5	O	-4.045165	-0.110914	-0.212394
V6	V	-4.565419	-0.101364	-0.374604
O7	O	-4.353036	-0.147759	-0.445177
O8	O	-4.747570	-0.069496	-0.326130
O9	O	-4.391503	0.012532	-0.376877
O10	O	-4.695985	-0.222818	-0.382614
O11	O	-4.722640	-0.106342	-0.558914
O12	O	-4.365030	-0.103144	-0.201790
C13	C	-3.879656	-0.257552	-0.388286
C14	C	-3.920812	-0.350664	-0.387580
C15	C	-3.958125	-0.552926	-0.269549
C16	C	-3.996820	-0.640415	-0.268896
C17	C	-4.111665	-0.664329	-0.501772
C18	C	-4.072985	-0.576842	-0.502424
C19	C	-3.996204	-0.521142	-0.386309
C20	C	-4.073579	-0.696119	-0.385003
C21	C	-4.115534	-0.790979	-0.384296
C22	C	-3.954250	-0.426276	-0.387016
C23	C	-3.913423	-0.109996	-0.611625
C24	C	-3.976044	-0.109294	-0.752905
C25	C	-4.061261	-0.262705	-0.789822
C26	C	-4.133281	-0.339077	-0.874651
C27	C	-4.192119	-0.338413	-1.007395
C28	C	-4.178940	-0.261368	-1.055310
C29	C	-4.106920	-0.184996	-0.970480
C30	C	-4.048079	-0.185668	-0.837736
C31	C	-4.021718	-0.031588	-0.933565
C32	C	-3.962865	-0.032249	-0.800820
C33	C	-4.008539	0.045457	-0.981480
C34	C	-3.936504	0.121831	-0.896649
C35	C	-3.877662	0.121164	-0.763899
C36	C	-3.890845	0.044123	-0.715991
C37	C	-4.210888	0.040293	-0.383018
C38	C	-4.148971	0.133403	-0.383732
C39	C	-4.177121	-0.107262	-0.159675
C40	C	-4.093738	-0.107960	-0.018394
H41	H	-4.104008	-0.550964	-0.597510
H42	H	-4.056468	0.045992	-1.089568
H43	H	-4.013325	-0.263252	-0.681736
H44	H	-3.819031	0.183356	-0.694836
F45	F	-3.956298	-0.674238	-0.144625
H46	H	-3.842924	0.043573	-0.607906
H47	H	-3.925795	0.184554	-0.935674
F48	F	-4.268784	-0.419696	-1.097680
F49	F	-3.876417	-0.493649	-0.145970
F50	F	-4.193373	-0.723616	-0.625343
F51	F	-4.147313	-0.421069	-0.823648
F52	F	-4.241594	-0.260666	-1.196590
