data_functionalizedCrystal
_audit_creation_method	'MofGen! by Chris Wilmer'
_symmetry_space_group_name_H-M	'P1'
_symmetry_Int_Tables_number	1
_symmetry_cell_setting	triclinic
loop_
_symmetry_equiv_pos_as_xyz
  x,y,z
_cell_length_a	17.038278
_cell_length_b	10.723024
_cell_length_c	9.198806
_cell_angle_alpha	90.002012
_cell_angle_beta	89.995906
_cell_angle_gamma	92.210815
loop_
_atom_site_label
_atom_site_type_symbol
_atom_site_fract_x
_atom_site_fract_y
_atom_site_fract_z
O1	O	1.038865	-0.271106	-0.120897
O2	O	0.811211	-0.266804	-0.120898
O3	O	0.930289	-0.087865	-0.120892
O4	O	0.919787	-0.450046	-0.120903
O5	O	0.930279	-0.087863	0.120893
O6	O	0.811201	-0.266803	0.120887
O7	O	1.038856	-0.271104	0.120888
Cu8	Cu	0.925027	-0.268953	0.142964
Cu9	Cu	0.925039	-0.268955	-0.142975
O10	O	0.919777	-0.450044	0.120882
C11	C	0.782056	-0.262888	-0.000006
C12	C	0.695198	-0.251207	-0.000006
N13	N	0.925025	-0.268952	0.344078
C14	C	0.929520	-0.041293	-0.000002
C15	C	0.927233	0.097472	-0.000007
C16	C	0.204390	-0.179446	-0.000009
C17	C	0.286001	-0.190431	-0.000001
C18	C	0.318088	-0.308672	-0.000011
C19	C	0.268559	-0.415935	-0.000015
C20	C	0.186950	-0.404949	-0.000013
C21	C	0.564060	-0.347484	-0.000008
C22	C	0.645676	-0.358462	-0.000014
C23	C	0.663112	-0.132957	0.000003
C24	C	0.581500	-0.121981	-0.000004
C25	C	0.531979	-0.229244	-0.000000
C26	C	0.401508	-0.319904	-0.000007
C27	C	0.448561	-0.218012	0.000006
C28	C	1.068010	-0.275020	-0.000008
C29	C	1.154868	-0.286701	-0.000017
C30	C	0.920546	-0.496615	-0.000012
C31	C	0.922833	-0.635381	-0.000017
C32	C	0.993863	0.166292	-0.000009
C33	C	0.991501	0.309714	-0.000014
N34	N	0.925047	-0.268947	-0.344089
C35	C	0.975023	-0.193469	0.416278
C36	C	0.975035	-0.193466	0.583690
H37	H	0.178272	-0.083162	-0.000010
H38	H	1.017843	-0.128846	0.645778
H39	H	0.146629	-0.492288	-0.000014
C40	C	0.413267	-0.087950	0.000016
C41	C	0.431670	0.003563	0.125570
C42	C	0.396368	0.133626	0.125574
C43	C	0.342663	0.172176	0.000023
C44	C	0.324257	0.080661	-0.125541
C45	C	0.359559	-0.049401	-0.125544
H46	H	0.471429	-0.024972	0.218519
H47	H	0.409994	0.201370	0.218525
H48	H	0.316530	0.268456	0.000025
H49	H	0.284499	0.109197	-0.218490
H50	H	0.345934	-0.117146	-0.218495
C51	C	0.845766	0.284720	-0.000014
C52	C	0.786724	0.296498	0.125537
C53	C	0.709658	0.216588	0.125539
C54	C	0.691633	0.124902	-0.000010
C55	C	0.750676	0.113121	-0.125570
C56	C	0.827742	0.193030	-0.125573
H57	H	0.800066	0.364373	0.218485
H58	H	0.665950	0.225310	0.218489
H59	H	0.634584	0.065748	-0.000008
H60	H	0.737334	0.045245	-0.218518
H61	H	0.871450	0.184308	-0.218522
C62	C	0.867214	-0.356260	0.572055
C63	C	0.807489	-0.301317	0.466527
C64	C	0.749656	-0.388630	0.382658
C65	C	0.751549	-0.530884	0.404317
C66	C	0.811276	-0.585833	0.509850
C67	C	0.869109	-0.498521	0.593719
H68	H	0.806086	-0.196006	0.450489
H69	H	0.705442	-0.347951	0.304535
H70	H	0.708738	-0.595518	0.342232
H71	H	0.812679	-0.691145	0.525888
H72	H	0.913323	-0.539200	0.671842
C73	C	0.436811	-0.449964	-0.000048
C74	C	0.490521	-0.488535	0.125486
C75	C	0.525829	-0.618593	0.125441
C76	C	0.507428	-0.710080	-0.000139
C77	C	0.453715	-0.671511	-0.125683
C78	C	0.418407	-0.541453	-0.125637
H79	H	0.504145	-0.420809	0.218457
H80	H	0.565591	-0.647144	0.218377
H81	H	0.533565	-0.806357	-0.000173
H82	H	0.440091	-0.739237	-0.218653
H83	H	0.378645	-0.512902	-0.218574
C84	C	1.032842	-0.106162	0.332367
C85	C	1.032675	-0.106162	0.164961
C86	C	1.090496	-0.018852	0.081056
C87	C	1.148485	0.068458	0.164556
C88	C	1.148654	0.068462	0.331971
C89	C	1.090833	-0.018849	0.415876
H90	H	0.989746	-0.170797	0.103141
H91	H	1.090371	-0.018855	-0.042876
H92	H	1.191288	0.133091	0.102445
H93	H	1.191583	0.133097	0.393791
H94	H	1.090958	-0.018846	0.539808
H95	H	0.326320	-0.103092	0.000012
H96	H	0.555381	-0.025697	0.000004
H97	H	0.703441	-0.045630	0.000001
H98	H	0.671798	-0.454753	-0.000001
H99	H	0.882226	-0.333569	0.406204
H100	H	0.294691	-0.512210	-0.000014
H101	H	0.523749	-0.434826	-0.000012
H102	H	0.868440	0.144732	-0.000016
H103	H	1.052656	0.119033	0.000001
H104	H	1.048542	0.368871	-0.000009
