data_functionalizedCrystal
_audit_creation_method	'MofGen! by Chris Wilmer'
_symmetry_space_group_name_H-M	'P1'
_symmetry_Int_Tables_number	1
_symmetry_cell_setting	triclinic
loop_
_symmetry_equiv_pos_as_xyz
  x,y,z
_cell_length_a	6.817900
_cell_length_b	11.102188
_cell_length_c	14.858572
_cell_angle_alpha	93.467807
_cell_angle_beta	104.524003
_cell_angle_gamma	108.603875
loop_
_atom_site_label
_atom_site_type_symbol
_atom_site_fract_x
_atom_site_fract_y
_atom_site_fract_z
V1	V	-4.064538	-0.176639	-0.289960
O2	O	-4.024475	0.007665	-0.284441
O3	O	-4.041627	-0.349453	-0.287977
O4	O	-4.020828	-0.174283	-0.416422
O5	O	-4.045417	-0.168718	-0.155107
V6	V	-4.544255	-0.154551	-0.273831
O7	O	-4.334144	-0.225089	-0.325342
O8	O	-4.724846	-0.106100	-0.238449
O9	O	-4.343960	0.018263	-0.275814
O10	O	-4.701715	-0.338855	-0.279350
O11	O	-4.680772	-0.162472	-0.408684
O12	O	-4.364758	-0.156907	-0.147369
C13	C	-3.892677	-0.391570	-0.283403
C14	C	-3.955262	-0.532851	-0.282625
C15	C	-3.938296	-0.580841	-0.197095
C16	C	-3.997125	-0.713590	-0.196367
C17	C	-4.089878	-0.750350	-0.366706
C18	C	-4.031063	-0.617603	-0.367434
C19	C	-4.139577	-0.877091	-0.096035
C20	C	-4.122575	-0.925082	-0.010500
C21	C	-3.944737	-0.861606	0.067442
C22	C	-3.783850	-0.750137	0.059853
C23	C	-3.800837	-0.702151	-0.025683
C24	C	-3.978720	-0.765627	-0.103623
C25	C	-3.888591	-0.454098	-0.467759
C26	C	-3.905563	-0.406110	-0.553296
C27	C	-4.083392	-0.469585	-0.631245
C28	C	-4.244255	-0.581059	-0.623665
C29	C	-4.227283	-0.629048	-0.538128
C30	C	-4.049454	-0.565563	-0.460179
C31	C	-3.866145	-0.168121	-0.447246
C32	C	-3.911859	-0.167339	-0.550629
C33	C	-4.079177	-0.164478	-0.929197
C34	C	-4.032615	-0.165274	-0.823868
C35	C	-3.995520	-0.165909	-0.739916
C36	C	-3.948955	-0.166703	-0.634580
C37	C	-4.156253	0.060374	-0.280385
C38	C	-4.072906	0.201653	-0.281170
C39	C	-4.182784	-0.163072	-0.116540
C40	C	-4.116307	-0.163849	-0.013156
H41	H	-3.639032	-0.698469	0.123321
H42	H	-3.669841	-0.611399	-0.031863
H43	H	-3.930899	-0.900691	0.137086
C44	C	-4.014230	-0.816431	-0.507301
C45	C	-4.173184	-0.843507	-0.459928
H46	H	-4.065667	-0.873936	-0.564856
H47	H	-3.887604	-0.826500	-0.469224
H48	H	-3.981647	-0.730499	-0.519965
H49	H	-4.205755	-0.929436	-0.447258
H50	H	-4.299848	-0.833450	-0.498013
H51	H	-3.774554	-0.315349	-0.559467
C52	C	-4.246924	-1.076327	0.089379
C53	C	-4.299415	-1.047605	-0.002155
H54	H	-4.356082	-1.151973	0.094528
H55	H	-4.236679	-1.006712	0.132862
H56	H	-4.112424	-1.089796	0.102816
H57	H	-4.433909	-1.034126	-0.015589
H58	H	-4.309686	-1.117236	-0.045651
C59	C	-4.291514	-0.387239	-0.750806
C60	C	-4.102055	-0.416844	-0.725274
H61	H	-4.303045	-0.354690	-0.808857
H62	H	-4.287235	-0.324241	-0.703457
H63	H	-4.412755	-0.462716	-0.757434
H64	H	-3.980812	-0.341364	-0.718639
H65	H	-4.106317	-0.479846	-0.772635
H66	H	-3.743779	-0.402402	-0.404289
C67	C	-4.419164	-0.854186	-0.593898
C68	C	-4.404113	-0.751579	-0.529791
H69	H	-4.528338	-0.929827	-0.588752
H70	H	-4.284673	-0.867644	-0.580429
H71	H	-4.454726	-0.834679	-0.655991
H72	H	-4.368536	-0.771082	-0.467696
H73	H	-4.538634	-0.738121	-0.543254
H74	H	-4.284412	-0.928775	-0.159492
C75	C	-4.629786	-0.654181	-0.687843
C76	C	-4.439745	-0.650844	-0.709344
H77	H	-4.750467	-0.697270	-0.740740
H78	H	-4.625119	-0.568840	-0.672400
H79	H	-4.642672	-0.698716	-0.635815
H80	H	-4.426851	-0.606300	-0.761368
H81	H	-4.444412	-0.736200	-0.724800
H82	H	-3.876576	-0.511838	-0.128038
