data_functionalizedCrystal
_audit_creation_method	'MofGen! by Chris Wilmer'
_symmetry_space_group_name_H-M	'P1'
_symmetry_Int_Tables_number	1
_symmetry_cell_setting	triclinic
loop_
_symmetry_equiv_pos_as_xyz
  x,y,z
_cell_length_a	17.699083
_cell_length_b	17.699104
_cell_length_c	16.776229
_cell_angle_alpha	89.991971
_cell_angle_beta	90.000201
_cell_angle_gamma	96.712734
loop_
_atom_site_label
_atom_site_type_symbol
_atom_site_fract_x
_atom_site_fract_y
_atom_site_fract_z
O1	O	-0.095788	1.004069	-0.066293
O2	O	-0.108224	0.783692	-0.066290
O3	O	0.008183	0.900107	-0.066299
O4	O	-0.212195	0.887654	-0.066283
O5	O	0.008190	0.900091	0.066277
O6	O	-0.108217	0.783677	0.066287
O7	O	-0.095781	1.004053	0.066284
Zn8	Zn	-0.101998	0.893863	0.087335
Zn9	Zn	-0.102007	0.893883	-0.087341
O10	O	-0.212188	0.887639	0.066293
C11	C	-0.107772	0.755488	-0.000001
C12	C	-0.106427	0.671471	-0.000000
C13	C	-0.167171	0.146600	-0.000004
C14	C	-0.168430	0.225543	-0.000007
C15	C	-0.100095	0.274161	-0.000011
C16	C	-0.030496	0.243831	-0.000022
C17	C	-0.029238	0.164889	-0.000025
C18	C	-0.035569	0.562197	-0.000009
C19	C	-0.036833	0.641144	-0.000003
C20	C	-0.174762	0.622852	0.000010
C21	C	-0.173503	0.543909	0.000007
C22	C	-0.103905	0.513587	-0.000008
C23	C	-0.102541	0.427987	-0.000007
C24	C	-0.101459	0.359759	-0.000006
C25	C	-0.240388	0.888093	0.000007
C26	C	-0.324406	0.889431	0.000013
C27	C	-0.373022	0.821099	0.000014
C28	C	-0.451966	0.822361	0.000004
C29	C	-0.482292	0.891957	-0.000000
C30	C	-0.433670	0.960295	-0.000004
C31	C	-0.354728	0.959032	-0.000000
C32	C	-0.752033	0.965390	-0.000020
C33	C	-0.830981	0.966648	-0.000021
C34	C	-0.849271	0.828719	-0.000015
C35	C	-0.770329	0.827456	-0.000012
C36	C	-0.721714	0.895794	-0.000019
C37	C	-0.636115	0.894424	-0.000011
C38	C	-0.567889	0.893327	-0.000003
C39	C	0.036383	0.899653	-0.000015
C40	C	0.120402	0.898314	-0.000026
C41	C	-0.096233	1.032258	-0.000007
C42	C	-0.097578	1.116275	-0.000013
N43	N	-0.101991	0.893854	0.206546
N44	N	-0.102008	0.893897	-0.206552
C45	C	-0.050467	0.945418	0.248259
C46	C	-0.050466	0.945422	0.331711
C47	C	-0.101994	0.893866	0.373449
C48	C	-0.153520	0.842296	0.331730
C49	C	-0.153516	0.842289	0.248279
C50	C	-0.153535	0.842324	0.668277
C51	C	-0.153536	0.842336	0.751734
C52	C	-0.050485	0.945457	0.751709
C53	C	-0.050481	0.945450	0.668258
C54	C	-0.102004	0.893878	0.626547
C55	C	-0.102004	0.893873	0.536058
C56	C	-0.101999	0.893874	0.463936
H57	H	0.025143	0.283422	-0.000030
C58	C	0.047315	0.131531	-0.000032
H59	H	0.087833	0.171791	-0.000028
H60	H	0.050669	0.101124	-0.046266
H61	H	0.050675	0.101109	0.046204
H62	H	-0.008511	0.987405	0.214281
C63	C	-0.210214	0.785620	0.797648
H64	H	-0.202840	0.793018	0.853322
H65	H	-0.202050	0.735124	0.783990
H66	H	-0.260722	0.793741	0.783967
H67	H	-0.712459	1.021035	-0.000021
C68	C	0.006203	1.002150	0.377592
H69	H	0.036883	1.032861	0.340782
H70	H	0.037681	0.974996	0.410156
H71	H	-0.021000	1.033603	0.410134
H72	H	-0.458367	1.016961	-0.000006
C73	C	-0.301247	1.034195	-0.000002
H74	H	-0.249889	1.023476	-0.000008
H75	H	-0.310425	1.062738	0.046227
H76	H	-0.310426	1.062739	-0.046243
H77	H	-0.348338	0.764426	0.000027
H78	H	-0.195472	0.800314	0.365718
C79	C	-0.505440	0.747195	0.000014
H80	H	-0.476073	0.705566	0.000030
H81	H	-0.536615	0.744818	-0.046218
H82	H	-0.536615	0.744822	0.046252
C83	C	-0.244981	0.258902	-0.000000
H84	H	-0.235946	0.312879	-0.000010
H85	H	-0.273111	0.242203	0.046234
H86	H	-0.273111	0.242210	-0.046237
C87	C	0.006201	1.002159	0.622351
H88	H	0.036893	1.032865	0.659146
H89	H	-0.020985	1.033609	0.589784
H90	H	0.037678	0.974983	0.589808
C91	C	0.006198	1.002178	0.797593
H92	H	-0.001175	0.994795	0.853271
H93	H	-0.001962	1.052671	0.783905
H94	H	0.056705	0.994049	0.783918
H95	H	-0.195488	0.800334	0.634322
C96	C	-0.248672	0.490434	0.000008
H97	H	-0.290301	0.519802	0.000004
H98	H	-0.251048	0.459248	0.046237
H99	H	-0.251045	0.459270	-0.046234
H100	H	-0.195471	0.800300	0.214318
C101	C	-0.251322	0.656205	0.000016
H102	H	-0.291838	0.615943	0.000027
H103	H	-0.254686	0.686627	-0.046215
H104	H	-0.254676	0.686613	0.046255
C105	C	-0.242341	0.093127	-0.000004
H106	H	-0.283968	0.122497	-0.000008
H107	H	-0.244720	0.061941	0.046226
H108	H	-0.244716	0.061963	-0.046245
C109	C	0.038339	0.694623	-0.000019
H110	H	0.079970	0.665258	-0.000037
H111	H	0.040723	0.725793	0.046213
H112	H	0.040702	0.725804	-0.046257
C113	C	0.040983	0.528848	-0.000027
H114	H	0.031951	0.474870	-0.000040
H115	H	0.069122	0.545532	0.046201
H116	H	0.069103	0.545556	-0.046269
C117	C	-0.736974	0.750901	-0.000010
H118	H	-0.777235	0.710384	-0.000019
H119	H	-0.706560	0.747533	0.046222
H120	H	-0.706559	0.747552	-0.046249
H121	H	-0.888863	0.773075	-0.000012
H122	H	-0.855669	1.023324	-0.000026
