data_functionalizedCrystal
_audit_creation_method	'MofGen! by Chris Wilmer'
_symmetry_space_group_name_H-M	'P1'
_symmetry_Int_Tables_number	1
_symmetry_cell_setting	triclinic
loop_
_symmetry_equiv_pos_as_xyz
  x,y,z
_cell_length_a	10.540539
_cell_length_b	17.038272
_cell_length_c	9.616153
_cell_angle_alpha	90.006893
_cell_angle_beta	90.000138
_cell_angle_gamma	87.818524
loop_
_atom_site_label
_atom_site_type_symbol
_atom_site_fract_x
_atom_site_fract_y
_atom_site_fract_z
O1	O	1.696167	0.110252	0.115581
O2	O	1.327723	0.120640	0.115599
O3	O	1.509755	0.001618	0.115579
O4	O	1.514135	0.229274	0.115601
O5	O	1.509747	0.001610	-0.115712
O6	O	1.327714	0.120631	-0.115693
O7	O	1.696158	0.110244	-0.115710
Zn8	Zn	1.511935	0.115436	-0.152424
Zn9	Zn	1.511946	0.115447	0.152313
O10	O	1.514126	0.229266	-0.115690
C11	C	1.280343	0.119857	-0.000045
C12	C	1.139177	0.117526	-0.000039
C13	C	0.947420	0.028219	-0.000587
C14	C	1.094259	0.030581	-0.000051
C15	C	1.081413	0.159372	0.132039
C16	C	0.934591	0.156405	0.132135
C17	C	0.934258	0.158164	-0.130886
C18	C	1.081315	0.158965	-0.132618
C19	C	1.505768	-0.027537	-0.000066
C20	C	1.493883	-0.114398	-0.000065
C21	C	1.602994	-0.163886	-0.000072
C22	C	1.591820	-0.245501	-0.000058
C23	C	1.471534	-0.277626	-0.000048
C24	C	1.362416	-0.228133	-0.000037
C25	C	1.373591	-0.146519	-0.000041
C26	C	1.432055	-0.523611	-0.000027
C27	C	1.420888	-0.605231	-0.000027
C28	C	1.650293	-0.622593	-0.000046
C29	C	1.661457	-0.540977	-0.000058
C30	C	1.552339	-0.491491	-0.000040
C31	C	1.460110	-0.361050	-0.000038
C32	C	1.563764	-0.408069	-0.000040
C33	C	1.743538	0.111027	-0.000063
C34	C	1.884704	0.113358	-0.000061
C35	C	1.518114	0.258421	-0.000042
C36	C	1.529998	0.345282	-0.000034
N37	N	1.511937	0.115428	-0.360398
C38	C	1.609719	0.051979	-0.580735
C39	C	1.609416	0.051737	-0.419568
C40	C	1.377500	0.096860	-0.418925
C41	C	1.378075	0.096415	-0.580143
C42	C	1.547451	0.197668	-0.580266
C43	C	1.550395	0.197130	-0.419038
N44	N	1.511954	0.115449	0.360287
H45	H	1.109721	0.223222	0.136959
H46	H	1.476262	0.244909	-0.618413
H47	H	1.302627	0.141824	-0.380599
Cl48	Cl	1.714975	-0.367681	-0.000045
Cl49	Cl	1.763261	0.068989	-0.358467
Cl50	Cl	1.269660	-0.645616	-0.000023
H51	H	0.900084	0.130023	-0.231000
Cl52	Cl	1.155311	-0.020256	-0.146226
Cl53	Cl	1.754217	-0.123508	-0.000099
Cl54	Cl	1.308898	-0.401443	-0.000018
H55	H	1.119422	0.128395	-0.230328
H56	H	1.343202	-0.483328	-0.000013
Cl57	Cl	1.261677	0.165009	-0.640386
H58	H	1.264477	-0.254296	-0.000020
H59	H	1.585820	-0.009265	-0.381019
Cl60	Cl	1.703146	0.218867	-0.359966
Cl61	Cl	1.573733	-0.041667	-0.643304
Cl62	Cl	1.142978	0.114504	0.283795
Cl63	Cl	1.236418	-0.084306	-0.000027
Cl64	Cl	0.869530	0.252942	0.141403
H65	H	1.132915	-0.002570	0.094786
Cl66	Cl	0.886583	0.108664	0.284554
H67	H	1.347056	0.037552	-0.378566
H68	H	1.709681	0.062979	-0.619499
Cl69	Cl	1.331855	0.003804	-0.638235
H70	H	1.643865	0.215334	-0.620917
Cl71	Cl	1.448621	0.273555	-0.356853
H72	H	0.915627	-0.006133	-0.095308
H73	H	0.914026	-0.005980	0.093600
H74	H	1.111454	0.222353	-0.140586
Cl75	Cl	0.870389	0.255121	-0.132257
H76	H	1.680669	-0.285790	-0.000066
Cl77	Cl	1.812679	-0.500597	-0.000026
H78	H	1.739130	-0.662893	-0.000058
