data_functionalizedCrystal
_audit_creation_method	'MofGen! by Chris Wilmer'
_symmetry_space_group_name_H-M	'P1'
_symmetry_Int_Tables_number	1
_symmetry_cell_setting	triclinic
loop_
_symmetry_equiv_pos_as_xyz
  x,y,z
_cell_length_a	14.519731
_cell_length_b	10.489741
_cell_length_c	12.996460
_cell_angle_alpha	89.994152
_cell_angle_beta	89.994327
_cell_angle_gamma	84.114013
loop_
_atom_site_label
_atom_site_type_symbol
_atom_site_fract_x
_atom_site_fract_y
_atom_site_fract_z
O1	O	1.224768	0.167333	-0.085568
O2	O	1.558102	0.500667	0.247765
O3	O	1.891435	0.834000	0.581098
O4	O	0.956401	0.186995	-0.085570
O5	O	1.289735	0.520328	0.247763
O6	O	1.623068	0.853662	0.581097
O7	O	1.096691	-0.008497	-0.085563
O8	O	1.430025	0.324837	0.247770
O9	O	1.763358	0.658170	0.581104
O10	O	1.084478	0.362825	-0.085575
O11	O	1.417812	0.696158	0.247758
O12	O	1.751145	1.029492	0.581091
O13	O	1.096677	-0.008508	0.085571
O14	O	1.430010	0.324826	0.418904
O15	O	1.763343	0.658159	0.752237
O16	O	0.956386	0.186984	0.085564
O17	O	1.289720	0.520317	0.418897
O18	O	1.623053	0.853651	0.752230
O19	O	1.224754	0.167322	0.085565
O20	O	1.558087	0.500656	0.418899
O21	O	1.891420	0.833989	0.752232
Cu22	Cu	1.090569	0.177152	0.101190
Cu23	Cu	1.423902	0.510486	0.434524
Cu24	Cu	1.757235	0.843819	0.767857
Cu25	Cu	1.090586	0.177165	-0.101195
Cu26	Cu	1.423920	0.510498	0.232138
Cu27	Cu	1.757253	0.843832	0.565472
O28	O	1.084463	0.362814	0.085558
O29	O	1.417797	0.696147	0.418892
O30	O	1.751130	1.029481	0.752225
C31	C	0.922029	0.186068	-0.000003
C32	C	1.255363	0.519402	0.333330
C33	C	1.588696	0.852735	0.666663
C34	C	0.819634	0.183308	-0.000004
C35	C	1.152968	0.516641	0.333330
C36	C	1.486301	0.849974	0.666663
C37	C	0.736478	0.181064	-0.000008
C38	C	1.069811	0.514398	0.333326
C39	C	1.403144	0.847731	0.666659
C40	C	0.632154	0.178261	-0.000008
C41	C	0.965487	0.511595	0.333325
C42	C	1.298820	0.844928	0.666659
C43	C	0.549003	0.176037	-0.000008
C44	C	0.882336	0.509370	0.333325
C45	C	1.215669	0.842704	0.666659
C46	C	0.444672	0.173234	-0.000010
C47	C	0.778005	0.506568	0.333323
C48	C	1.111339	0.839901	0.666657
C49	C	1.095762	-0.056024	0.000003
C50	C	1.429095	0.277309	0.333337
C51	C	1.762428	0.610642	0.666670
C52	C	1.093002	-0.197625	0.000001
C53	C	1.426335	0.135708	0.333335
C54	C	1.759669	0.469041	0.666668
C55	C	1.003739	-0.264844	-0.000007
C56	C	1.337073	0.068489	0.333327
C57	C	1.670406	0.401822	0.666660
C58	C	1.045899	-0.357407	0.084371
C59	C	1.379232	-0.024074	0.417705
C60	C	1.712566	0.309259	0.751038
C61	C	1.045935	-0.357371	-0.084353
C62	C	1.379268	-0.024038	0.248980
C63	C	1.712601	0.309295	0.582314
C64	C	1.135198	-0.288323	0.084449
C65	C	1.468531	0.045010	0.417782
C66	C	1.801865	0.378343	0.751116
C67	C	1.135221	-0.288278	-0.084351
C68	C	1.468555	0.045056	0.248982
C69	C	1.801888	0.378389	0.582315
C70	C	1.177446	-0.380814	0.000047
C71	C	1.510779	-0.047481	0.333381
C72	C	1.844112	0.285853	0.666714
C73	C	1.259125	0.168249	-0.000004
C74	C	1.592459	0.501582	0.333330
C75	C	1.925792	0.834916	0.666663
C76	C	1.361521	0.171010	-0.000010
C77	C	1.694854	0.504343	0.333323
C78	C	2.028187	0.837676	0.666657
C79	C	1.085393	0.410342	-0.000010
C80	C	1.418727	0.743675	0.333323
C81	C	1.752060	1.077008	0.666657
C82	C	1.088153	0.551943	-0.000015
C83	C	1.421486	0.885276	0.333318
C84	C	1.754820	1.218609	0.666652
N85	N	1.090563	0.177142	0.243538
N86	N	1.423896	0.510476	0.576871
N87	N	1.757230	0.843809	0.910204
N88	N	1.090599	0.177165	-0.243542
N89	N	1.423932	0.510498	0.089791
N90	N	1.757266	0.843831	0.423124
C91	C	1.090585	0.177166	0.663352
C92	C	1.423918	0.510500	0.996685
C93	C	1.757252	0.843833	1.330019
C94	C	1.090576	0.177164	0.546547
C95	C	1.423909	0.510497	0.879880
C96	C	1.757243	0.843831	1.213213
C97	C	1.090574	0.177155	0.453448
C98	C	1.423908	0.510489	0.786782
C99	C	1.757241	0.843822	1.120115
C100	C	1.090565	0.177151	0.336636
C101	C	1.423898	0.510484	0.669969
C102	C	1.757231	0.843818	1.003303
H103	H	0.930348	-0.214436	0.000078
H104	H	1.263682	0.118897	0.333411
H105	H	1.597015	0.452231	0.666745
N106	N	0.995907	-0.397887	-0.178849
N107	N	1.329240	-0.064554	0.154484
N108	N	1.662574	0.268779	0.487817
H109	H	0.994932	-0.494023	-0.178504
H110	H	1.328265	-0.160690	0.154829
H111	H	1.661599	0.172644	0.488162
H112	H	0.930321	-0.355184	-0.178717
H113	H	1.263654	-0.021851	0.154616
H114	H	1.596988	0.311482	0.487950
N115	N	0.995874	-0.397968	0.178873
N116	N	1.329208	-0.064634	0.512206
N117	N	1.662541	0.268699	0.845539
H118	H	0.930261	-0.355354	0.178815
H119	H	1.263594	-0.022020	0.512148
H120	H	1.596928	0.311313	0.845481
H121	H	0.994972	-0.494111	0.178466
H122	H	1.328306	-0.160778	0.511799
H123	H	1.661639	0.172556	0.845133
H124	H	1.172928	-0.257885	0.155864
H125	H	1.506261	0.075448	0.489198
H126	H	1.839595	0.408782	0.822531
H127	H	1.250903	-0.430996	0.000095
H128	H	1.584236	-0.097662	0.333428
H129	H	1.917569	0.235671	0.666761
N130	N	1.185224	-0.247664	-0.178842
N131	N	1.518558	0.085670	0.154491
N132	N	1.851891	0.419003	0.487825
H133	H	1.151456	-0.272493	-0.242549
H134	H	1.484789	0.060840	0.090784
H135	H	1.818123	0.394173	0.424117
H136	H	1.187235	-0.151719	-0.177682
H137	H	1.520569	0.181614	0.155651
H138	H	1.853902	0.514948	0.488985
