data_functionalizedCrystal
_audit_creation_method	'MofGen! by Chris Wilmer'
_symmetry_space_group_name_H-M	'P1'
_symmetry_Int_Tables_number	1
_symmetry_cell_setting	triclinic
loop_
_symmetry_equiv_pos_as_xyz
  x,y,z
_cell_length_a	14.560438
_cell_length_b	20.016444
_cell_length_c	14.560438
_cell_angle_alpha	60.001636
_cell_angle_beta	90.000977
_cell_angle_gamma	60.000669
loop_
_atom_site_label
_atom_site_type_symbol
_atom_site_fract_x
_atom_site_fract_y
_atom_site_fract_z
Zr1	Zr	0.884755	0.731262	-0.120461
O2	O	0.738109	0.870634	-0.267103
O3	O	0.929709	0.591889	-0.075515
O4	O	0.929710	0.731264	-0.267109
O5	O	0.738109	0.731257	0.075633
O6	O	1.080848	0.731266	-0.267107
O7	O	0.738109	0.731259	-0.075508
O8	O	1.080847	0.481949	0.075621
O9	O	0.738109	0.980574	-0.267095
O10	O	1.061675	0.649216	-0.056335
O11	O	0.948882	0.649214	0.056457
O12	O	0.948883	0.813310	-0.169121
O13	O	0.836090	0.813307	-0.056328
Zr14	Zr	1.125803	0.731262	0.120595
Zr15	Zr	1.125803	0.731265	-0.120457
Zr16	Zr	0.884755	0.731259	0.120591
Zr17	Zr	0.884756	0.906603	-0.120449
Zr18	Zr	1.125803	0.555921	0.120583
O19	O	1.080849	0.870634	0.075648
O20	O	1.080848	0.870639	-0.267097
O21	O	0.738109	0.870630	0.075642
O22	O	1.272449	0.591889	0.267236
O23	O	1.272449	0.591893	-0.075509
O24	O	0.929710	0.591885	0.267231
O25	O	1.272449	0.731266	-0.075499
O26	O	1.080848	0.731259	0.267243
O27	O	0.929710	0.731257	0.267240
O28	O	1.272449	0.731264	0.075641
O29	O	0.929711	0.980576	-0.267092
O30	O	1.080848	0.481947	0.267225
O31	O	1.272449	0.481949	0.267228
O32	O	1.272448	0.481952	0.075624
O33	O	0.738110	0.980572	-0.075491
O34	O	0.929711	0.980574	-0.075488
O35	O	1.061675	0.649214	0.169254
O36	O	1.174468	0.649216	0.056461
O37	O	1.061676	0.813310	-0.056324
O38	O	0.948883	0.813307	0.056469
C39	C	1.005278	0.511937	0.000052
C40	C	1.005278	0.437500	0.000046
C41	C	1.064158	0.266232	-0.058812
C42	C	1.064162	0.196284	-0.058803
C43	C	0.946398	0.196295	0.058952
C44	C	0.946402	0.266236	0.058949
C45	C	1.005279	0.301206	0.000061
C46	C	1.005279	0.161317	0.000072
C47	C	1.005282	0.085477	0.000082
C48	C	1.005278	0.377050	0.000052
C49	C	0.703765	0.731258	0.000062
C50	C	0.601433	0.731257	0.000060
C51	C	0.612231	0.645603	0.058933
C52	C	0.516076	0.645608	0.058943
C53	C	0.398329	0.816927	-0.058801
C54	C	0.494483	0.816921	-0.058804
C55	C	0.719182	0.559939	0.117797
C56	C	0.729985	0.474278	0.176673
C57	C	0.633830	0.474283	0.176683
C58	C	0.526872	0.559948	0.117817
C59	C	1.306793	0.731265	0.000072
C60	C	1.409125	0.731267	0.000073
C61	C	1.005279	0.731265	-0.301453
C62	C	1.005279	0.731267	-0.403786
C63	C	1.005280	0.950586	0.000082
C64	C	1.005280	1.025023	0.000087
C65	C	0.946398	0.816920	-0.510735
C66	C	0.946401	0.816916	-0.606884
C67	C	1.064168	0.645597	-0.489121
C68	C	1.064170	0.645602	-0.392974
C69	C	0.887506	0.902585	-0.521546
C70	C	0.828619	0.988245	-0.628500
C71	C	0.828622	0.988241	-0.724649
C72	C	0.887513	0.902576	-0.713844
C73	C	1.005279	0.731258	0.301586
C74	C	1.005279	0.731257	0.403919
C75	C	1.306793	0.511941	0.000056
C76	C	1.409124	0.437505	0.000053
C77	C	1.005279	0.511933	0.301571
C78	C	1.005278	0.437495	0.403899
C79	C	1.306793	0.511937	0.301576
C80	C	1.409124	0.437500	0.403905
C81	C	0.703765	0.950586	-0.301443
C82	C	0.601434	1.025023	-0.403772
C83	C	0.703765	0.950583	0.000077
C84	C	0.601434	1.025018	0.000080
C85	C	1.005279	0.950590	-0.301438
C86	C	1.005280	1.025028	-0.403766
C87	C	1.398303	0.402549	-0.058837
C88	C	1.494444	0.332619	-0.058863
C89	C	1.601406	0.297641	0.000009
C90	C	1.612225	0.332603	0.058901
C91	C	1.516084	0.402537	0.058919
C92	C	1.064155	0.402538	0.510842
C93	C	1.064151	0.332605	0.606999
C94	C	1.005276	0.297626	0.596211
C95	C	0.946392	0.332590	0.489256
C96	C	0.946390	0.402526	0.393102
C97	C	1.516067	0.402545	0.393084
C98	C	1.612227	0.332614	0.489224
C99	C	1.601442	0.297633	0.596185
C100	C	1.494488	0.332595	0.607004
C101	C	1.398330	0.402530	0.510865
C102	C	0.494492	1.059987	-0.392950
C103	C	0.398331	1.129940	-0.489090
C104	C	0.409116	1.164924	-0.596051
C105	C	0.516070	1.129958	-0.606871
C106	C	0.612228	1.060010	-0.510732
C107	C	0.612255	1.059981	0.058961
C108	C	0.516114	1.129931	0.058960
C109	C	0.409152	1.164912	0.000085
C110	C	0.398334	1.129946	-0.058803
C111	C	0.494474	1.060002	-0.058808
C112	C	1.064166	1.059985	-0.392941
C113	C	1.064188	1.129919	-0.489080
C114	C	1.005317	1.164898	-0.596042
C115	C	0.946428	1.129934	-0.606864
C116	C	0.946413	1.059997	-0.510726
H117	H	0.797483	0.559925	0.117793
F118	F	0.306840	1.239352	0.000102
F119	F	0.306766	1.239368	-0.698363
F120	F	0.726083	1.022767	0.121625
H121	H	0.780680	1.057990	-0.637289
F122	F	0.482940	1.022794	-0.121473
F123	F	1.284475	0.439765	-0.121505
F124	F	1.726044	0.295414	0.477685
H125	H	0.311239	0.886671	-0.106730
H126	H	1.112108	0.167808	-0.106740
F127	F	0.482991	0.908083	-0.121460
H128	H	0.898457	0.304099	0.480489
F129	F	0.883745	0.159067	0.121627
H130	H	0.898455	0.294712	0.106895
F131	F	1.126825	0.303444	-0.121482
F132	F	0.284488	1.167182	-0.121455
H133	H	1.112111	0.575852	-0.480334
H134	H	0.817074	0.404533	0.224607
H135	H	1.112107	1.031516	-0.305856
H136	H	1.699325	0.304114	0.106832
H137	H	0.485689	1.031507	-0.305866
H138	H	1.524910	0.430989	0.106881
F139	F	0.887494	0.902597	-0.419222
H140	H	1.112099	0.431010	0.519647
H141	H	0.311255	1.158398	-0.480259
F142	F	0.765961	1.079406	-0.838474
F143	F	1.527570	0.439765	0.279257
H144	H	0.642631	0.404534	0.224632
F145	F	1.482906	0.295419	-0.121543
F146	F	1.126858	0.554440	-0.279146
F147	F	1.703718	0.223209	-0.000020
H148	H	1.112141	1.158379	-0.480246
F149	F	0.527652	1.167129	0.121643
F150	F	0.424537	0.559948	0.117839
F151	F	1.703792	0.223201	0.698496
F152	F	0.887526	0.902575	-0.816178
F153	F	0.527531	1.167198	-0.720716
H154	H	1.005338	1.221846	-0.674314
H155	H	0.898496	1.158425	-0.693965
H156	H	1.112105	0.304146	0.694076
F157	F	1.005288	0.223192	0.698558
H158	H	0.898449	0.430979	0.306027
H159	H	0.898456	1.031543	-0.519556
H160	H	1.485724	0.304104	0.694104
F161	F	0.726041	1.022802	-0.522267
H162	H	1.311257	0.430981	0.519692
