data_functionalizedCrystal
_audit_creation_method	'MofGen! by Chris Wilmer'
_symmetry_space_group_name_H-M	'P1'
_symmetry_Int_Tables_number	1
_symmetry_cell_setting	triclinic
loop_
_symmetry_equiv_pos_as_xyz
  x,y,z
_cell_length_a	29.839135
_cell_length_b	29.839131
_cell_length_c	21.395355
_cell_angle_alpha	90.020172
_cell_angle_beta	90.027781
_cell_angle_gamma	90.043950
loop_
_atom_site_label
_atom_site_type_symbol
_atom_site_fract_x
_atom_site_fract_y
_atom_site_fract_z
Zn1	Zn	0.686774	-0.178875	0.354308
Zn2	Zn	0.686690	-0.253990	0.249528
Zn3	Zn	0.611641	-0.178878	0.249539
Zn4	Zn	0.611605	-0.253982	0.354262
O5	O	0.649177	-0.216431	0.301909
O6	O	0.749630	-0.188841	0.340423
O7	O	0.676715	-0.244031	0.161851
O8	O	0.621658	-0.116011	0.263461
O9	O	0.749568	-0.244028	0.263442
O10	O	0.676858	-0.116008	0.340434
O11	O	0.621576	-0.188847	0.161860
O12	O	0.548769	-0.188839	0.263416
O13	O	0.621596	-0.244014	0.441946
O14	O	0.548742	-0.244017	0.340356
O15	O	0.676823	-0.188833	0.441980
O16	O	0.676680	-0.316856	0.263397
O17	O	0.621515	-0.316850	0.340345
C18	C	0.649096	-0.333154	0.301878
C19	C	0.649103	-0.383088	0.301886
C20	C	0.532455	-0.216428	0.301882
C21	C	0.482520	-0.216437	0.301886
C22	C	0.677954	-0.692722	0.261901
C23	C	0.678010	-0.880395	0.261925
O24	O	0.702476	-0.904652	0.227905
N25	N	0.649271	-0.903873	0.301956
C26	C	0.620518	-0.880430	0.341987
O27	O	0.596078	-0.904706	0.376041
C28	C	0.620465	-0.692758	0.341966
C29	C	0.649203	-0.669283	0.301927
C30	C	0.706690	-0.669247	0.221867
C31	C	0.706674	-0.622331	0.221858
C32	C	0.677922	-0.598891	0.261885
C33	C	0.649187	-0.622367	0.301919
C34	C	0.591715	-0.669316	0.381999
C35	C	0.591705	-0.622395	0.381991
C36	C	0.620443	-0.598919	0.341953
C37	C	0.620419	-0.552012	0.341938
N38	N	0.649158	-0.528534	0.301906
C39	C	0.677910	-0.551974	0.261880
C40	C	0.620547	-0.978961	0.341995
C41	C	0.620560	-1.025879	0.342000
C42	C	0.678052	-1.025841	0.261938
C43	C	0.678037	-0.978922	0.261931
C44	C	0.649286	-0.955483	0.301964
C45	C	0.677874	-0.453448	0.261866
C46	C	0.677854	-0.406528	0.261859
C47	C	0.620364	-0.406571	0.341923
C48	C	0.620382	-0.453486	0.341927
C49	C	0.649140	-0.476924	0.301896
O50	O	0.595970	-0.527726	0.375945
O51	O	0.702353	-0.527690	0.227841
C52	C	0.677970	-0.739638	0.261909
C53	C	0.649234	-0.763114	0.301944
C54	C	0.620483	-0.739674	0.341970
C55	C	0.649247	-0.810031	0.301948
C56	C	0.677998	-0.833471	0.261922
C57	C	0.706737	-0.809993	0.221891
C58	C	0.706721	-0.763078	0.221883
C59	C	0.591744	-0.763152	0.382001
C60	C	0.591762	-0.810067	0.382005
C61	C	0.620513	-0.833507	0.341979
C62	C	0.172906	-0.187739	0.342053
C63	C	-0.014767	-0.187742	0.342070
O64	O	-0.039007	-0.163332	0.376192
N65	N	-0.038265	-0.216432	0.301932
C66	C	-0.014841	-0.245121	0.261784
O67	O	-0.039134	-0.269520	0.227639
C68	C	0.172831	-0.245115	0.261763
C69	C	0.196326	-0.216427	0.301909
C70	C	0.196402	-0.159053	0.382194
C71	C	0.243317	-0.159054	0.382192
C72	C	0.266737	-0.187742	0.342048
C73	C	0.243242	-0.216428	0.301906
C74	C	0.196253	-0.273801	0.221612
C75	C	0.243174	-0.273797	0.221609
C76	C	0.266670	-0.245108	0.261755
C77	C	0.313577	-0.245117	0.261760
N78	N	0.337075	-0.216427	0.301898
C79	C	0.313655	-0.187740	0.342042
C80	C	-0.113372	-0.245122	0.261798
C81	C	-0.160290	-0.245124	0.261804
C82	C	-0.160212	-0.187745	0.342090
C83	C	-0.113293	-0.187746	0.342087
C84	C	-0.089874	-0.216433	0.301936
C85	C	0.412181	-0.187745	0.342034
C86	C	0.459100	-0.187750	0.342030
C87	C	0.459019	-0.245127	0.261742
C88	C	0.412103	-0.245124	0.261748
C89	C	0.388685	-0.216429	0.301896
O90	O	0.337846	-0.269511	0.227651
O91	O	0.337956	-0.163337	0.376171
C92	C	0.125991	-0.187738	0.342055
C93	C	0.102495	-0.216424	0.301913
C94	C	0.125915	-0.245112	0.261769
C95	C	0.055578	-0.216426	0.301919
C96	C	0.032157	-0.187739	0.342063
C97	C	0.055655	-0.159049	0.382202
C98	C	0.102571	-0.159050	0.382199
C99	C	0.102418	-0.273801	0.221631
C100	C	0.055502	-0.273798	0.221637
C101	C	0.032082	-0.245111	0.261781
C102	C	0.766356	-0.216435	0.301936
C103	C	0.816290	-0.216437	0.301948
C104	C	0.649215	-0.216422	0.465333
C105	C	0.649231	-0.216418	0.534974
C106	C	0.649271	-0.099253	0.301954
C107	C	0.649311	-0.049319	0.301973
C108	C	0.649166	-0.216408	0.139122
C109	C	0.649237	-0.216285	0.069481
C110	C	0.677986	-0.187685	0.567706
C111	C	0.677985	-0.187665	0.633141
C112	C	0.649234	-0.216388	0.665842
C113	C	0.620473	-0.245124	0.633102
C114	C	0.620472	-0.245139	0.567668
C115	C	0.645659	-0.256839	0.769506
C116	C	0.645664	-0.256825	0.834939
C117	C	0.649237	-0.216340	0.867663
C118	C	0.652815	-0.175870	0.834946
C119	C	0.652813	-0.175885	0.769512
C120	C	0.649233	-0.216374	0.736795
C121	C	0.677993	-0.187583	0.971347
C122	C	0.677989	-0.187563	1.036784
C123	C	0.620480	-0.245026	1.036744
C124	C	0.620481	-0.245042	0.971309
C125	C	0.649240	-0.216321	0.938614
H126	H	0.701256	-0.387416	0.229253
F127	F	0.589865	-0.275723	0.532832
F128	F	0.589877	-0.275626	0.936472
F129	F	0.641860	-0.299897	0.869752
F130	F	0.268317	-0.128519	0.424919
H131	H	0.642629	-0.289798	0.742867
H132	H	0.478228	-0.164388	0.374723
H133	H	0.393120	-0.164377	0.374725
H134	H	-0.179416	-0.268490	0.229120
H135	H	0.568311	-0.688422	0.414600
F136	F	-0.088453	-0.275654	0.219057
H137	H	-0.094167	-0.164384	0.374776
F138	F	0.708592	-0.157116	0.532913
H139	H	0.730076	-0.603220	0.189258
H140	H	0.655725	-0.142932	0.742877
H141	H	0.392972	-0.268489	0.229066
H142	H	0.596982	-0.472601	0.374531
H143	H	0.730105	-0.688326	0.189272
H144	H	0.701438	-0.959811	0.229329
F145	F	0.737310	-0.738099	0.179270
H146	H	0.568293	-0.603313	0.414593
H147	H	0.701463	-1.044933	0.229347
H148	H	0.568331	-0.744071	0.414596
H149	H	0.177338	-0.135690	0.414885
H150	H	0.701400	-0.164264	0.659797
H151	H	0.730147	-0.829086	0.189298
H152	H	0.701408	-0.164195	0.944726
H153	H	0.568356	-0.829177	0.414609
F154	F	0.030722	-0.128519	0.424928
F155	F	-0.185145	-0.157213	0.384814
F156	F	0.171258	-0.304329	0.178873
H157	H	0.596953	-0.387479	0.374510
H158	H	0.701405	-0.164162	1.063433
H159	H	0.597062	-0.268508	0.659732
H160	H	0.597065	-0.268407	1.063369
H161	H	0.262240	-0.297157	0.188912
H162	H	0.478096	-0.268485	0.229059
H163	H	0.655725	-0.142903	0.861589
H164	H	0.701293	-0.472525	0.229270
H165	H	0.597154	-1.044989	0.374597
H166	H	0.121696	-0.135689	0.414889
H167	H	0.597133	-0.959880	0.374595
F168	F	0.127337	-0.304332	0.178896
F169	F	0.030502	-0.304335	0.178906
