data_functionalizedCrystal
_audit_creation_method	'MofGen! by Chris Wilmer'
_symmetry_space_group_name_H-M	'P1'
_symmetry_Int_Tables_number	1
_symmetry_cell_setting	triclinic
loop_
_symmetry_equiv_pos_as_xyz
  x,y,z
_cell_length_a	16.109301
_cell_length_b	12.837942
_cell_length_c	14.586319
_cell_angle_alpha	89.996741
_cell_angle_beta	89.999213
_cell_angle_gamma	89.145211
loop_
_atom_site_label
_atom_site_type_symbol
_atom_site_fract_x
_atom_site_fract_y
_atom_site_fract_z
O1	O	1.113716	0.133240	-0.076181
O2	O	0.872971	0.149822	-0.076196
O3	O	0.988005	-0.009370	-0.076183
O4	O	0.998682	0.292432	-0.076194
O5	O	0.987996	-0.009372	0.076298
O6	O	0.872962	0.149819	0.076285
O7	O	1.113707	0.133238	0.076299
Cu8	Cu	0.993333	0.141528	0.090215
Cu9	Cu	0.993344	0.141531	-0.090111
O10	O	0.998673	0.292430	0.076287
C11	C	0.841938	0.149149	0.000043
C12	C	0.749483	0.147135	0.000037
C13	C	0.534343	0.236914	0.000045
C14	C	0.447471	0.235014	0.000051
C15	C	0.452341	0.046138	0.000054
C16	C	0.539211	0.048040	0.000054
C17	C	0.580209	0.143431	0.000045
C18	C	0.406468	0.139629	0.000050
C19	C	0.312278	0.137568	0.000057
C20	C	0.674405	0.145492	0.000040
C21	C	0.984394	-0.047991	0.000056
C22	C	0.973637	-0.163064	0.000054
C23	C	1.102954	-0.404066	0.000043
C24	C	1.092851	-0.512188	0.000041
C25	C	0.943328	-0.487433	0.000041
C26	C	0.953431	-0.379311	0.000043
C27	C	1.033247	-0.337632	0.000046
C28	C	1.043349	-0.229507	0.000054
C29	C	0.893827	-0.204754	0.000048
C30	C	0.883724	-0.312876	0.000046
C31	C	1.144739	0.133911	0.000059
C32	C	1.237195	0.135924	0.000058
C33	C	1.002284	0.331050	0.000045
C34	C	1.013041	0.446124	0.000041
N35	N	0.993332	0.141526	0.217047
N36	N	0.993352	0.141526	-0.216943
C37	C	1.044290	0.071059	0.452059
C38	C	1.044292	0.071057	0.548040
C39	C	0.942388	0.211995	0.548038
C40	C	0.942382	0.211992	0.452059
C41	C	0.993338	0.141525	0.404071
C42	C	0.993346	0.141526	0.596032
C43	C	0.993348	0.141524	0.700099
C44	C	0.993335	0.141526	0.299998
H45	H	1.108339	-0.195574	0.000059
O46	O	0.583645	-0.042872	0.000013
C47	C	0.528833	-0.127474	0.000035
H48	H	0.466195	-0.101148	-0.028835
H49	H	0.520342	-0.156717	0.073189
C50	C	0.641976	-0.248283	-0.024300
C51	C	0.565045	-0.215951	-0.059766
H52	H	0.664314	-0.302862	-0.061184
H53	H	0.678905	-0.191286	-0.024312
H54	H	0.634890	-0.272644	0.036661
H55	H	0.572135	-0.191578	-0.120721
H56	H	0.528119	-0.272946	-0.059766
H57	H	1.085779	0.013680	0.412990
H58	H	0.410130	0.311138	0.000052
H59	H	0.818741	-0.346827	0.000041
O60	O	0.865846	-0.528058	-0.000087
C61	C	0.855532	-0.589827	-0.079076
H62	H	0.918932	-0.616754	-0.105404
H63	H	0.822528	-0.542046	-0.134371
C64	C	0.725335	-0.652399	-0.022761
C65	C	0.803204	-0.685479	-0.055093
H66	H	0.693054	-0.711399	-0.007969
H67	H	0.732281	-0.610782	0.030454
H68	H	0.697843	-0.612581	-0.068846
H69	H	0.830698	-0.725284	-0.009004
H70	H	0.796261	-0.727105	-0.108300
O71	O	0.412382	-0.046429	0.000014
C72	C	0.325873	-0.028064	0.000034
H73	H	0.311917	0.052838	-0.028834
H74	H	0.301334	-0.033085	0.073186
C75	C	0.300518	-0.209872	-0.024309
C76	C	0.283376	-0.110509	-0.059772
H77	H	0.274302	-0.260730	-0.061196
H78	H	0.358800	-0.222246	-0.024319
H79	H	0.280067	-0.214041	0.036651
H80	H	0.303835	-0.106337	-0.120726
H81	H	0.225095	-0.098136	-0.059774
H82	H	1.167943	-0.370130	0.000054
H83	H	1.149614	-0.566277	0.000036
H84	H	0.900887	0.269375	0.412985
H85	H	0.837067	-0.150651	0.000058
O86	O	1.093866	0.002569	0.594512
C87	C	1.138819	-0.059642	0.531572
H88	H	1.143120	-0.017139	0.463153
H89	H	1.105725	-0.136658	0.521369
C90	C	1.221533	-0.133176	0.653059
C91	C	1.226822	-0.080970	0.569027
H92	H	1.275817	-0.146337	0.676163
H93	H	1.191246	-0.091267	0.695464
H94	H	1.193952	-0.197350	0.644545
H95	H	1.254394	-0.016791	0.577544
H96	H	1.257117	-0.122869	0.526624
O97	O	0.892853	0.280306	0.594758
C98	C	0.837156	0.224775	0.650271
H99	H	0.863844	0.143671	0.664652
H100	H	0.775149	0.217711	0.613291
C101	C	0.791248	0.382829	0.723778
C102	C	0.824030	0.283219	0.741446
H103	H	0.783148	0.418881	0.780017
H104	H	0.828769	0.420243	0.686376
H105	H	0.739579	0.376928	0.692959
H106	H	0.875703	0.289121	0.772255
H107	H	0.786517	0.245807	0.778856
O108	O	0.574039	0.329663	0.000084
C109	C	0.514923	0.411765	0.000064
H110	H	0.453713	0.382720	0.028931
H111	H	0.504935	0.440607	-0.073088
C112	C	0.621702	0.537398	0.024408
C113	C	0.546525	0.501726	0.059871
H114	H	0.641196	0.592893	0.061296
H115	H	0.661531	0.482085	0.024419
H116	H	0.613369	0.561425	-0.036551
H117	H	0.554861	0.477688	0.120824
H118	H	0.506699	0.557038	0.059872
