data_functionalizedCrystal
_audit_creation_method	'MofGen! by Chris Wilmer'
_symmetry_space_group_name_H-M	'P1'
_symmetry_Int_Tables_number	1
_symmetry_cell_setting	triclinic
loop_
_symmetry_equiv_pos_as_xyz
  x,y,z
_cell_length_a	10.654550
_cell_length_b	16.109301
_cell_length_c	14.586319
_cell_angle_alpha	90.005214
_cell_angle_beta	89.997093
_cell_angle_gamma	96.026794
loop_
_atom_site_label
_atom_site_type_symbol
_atom_site_fract_x
_atom_site_fract_y
_atom_site_fract_z
O1	O	1.666255	-0.116773	-0.076231
O2	O	1.300626	-0.127899	-0.076236
O3	O	1.493485	-0.001365	-0.076224
O4	O	1.473396	-0.243307	-0.076243
O5	O	1.493471	-0.001363	0.076257
O6	O	1.300613	-0.127897	0.076245
O7	O	1.666242	-0.116771	0.076249
Cu8	Cu	1.483426	-0.122334	0.090170
Cu9	Cu	1.483442	-0.122336	-0.090156
O10	O	1.473383	-0.243305	0.076238
C11	C	1.253832	-0.127081	0.000004
C12	C	1.114422	-0.124637	0.000002
C13	C	1.713036	-0.117589	0.000008
C14	C	1.852446	-0.120033	0.000003
C15	C	1.492664	0.029616	0.000017
C16	C	1.490225	0.121926	0.000018
C17	C	1.932942	-0.045532	0.000006
C18	C	2.063932	-0.047833	0.000008
C19	C	2.033916	-0.199144	0.000002
C20	C	1.902929	-0.196841	0.000006
C21	C	2.260973	0.039912	0.053431
C22	C	2.341474	0.114417	0.053417
C23	C	2.312213	0.181958	-0.000010
C24	C	2.202452	0.174996	-0.053446
C25	C	2.121957	0.100490	-0.053441
C26	C	2.151217	0.032952	0.000008
C27	C	1.705886	-0.284581	-0.053424
C28	C	1.625389	-0.359088	-0.053425
C29	C	1.654646	-0.426636	-0.000004
C30	C	1.764409	-0.419683	0.053419
C31	C	1.844907	-0.345175	0.053420
C32	C	1.815640	-0.277627	0.000000
C33	C	1.474203	-0.274286	-0.000005
C34	C	1.476643	-0.366596	-0.000013
N35	N	1.483424	-0.122332	0.217002
C36	C	1.598991	0.343552	0.000005
C37	C	1.596689	0.430286	-0.000003
C38	C	1.367868	0.411772	-0.000002
C39	C	1.370172	0.325039	-0.000001
C40	C	1.485737	0.290932	0.000007
C41	C	1.481131	0.464398	-0.000002
C42	C	1.478634	0.558439	-0.000010
C43	C	1.488234	0.196885	0.000013
N44	N	1.483454	-0.122332	-0.216988
C45	C	1.568850	-0.066321	0.452013
C46	C	1.568854	-0.066319	0.547994
C47	C	1.398019	-0.178344	0.547993
C48	C	1.398010	-0.178342	0.452014
C49	C	1.483433	-0.122331	0.404026
C50	C	1.483445	-0.122332	0.595987
C51	C	1.483448	-0.122330	0.700054
C52	C	1.483428	-0.122332	0.299953
H53	H	1.891844	0.017010	0.000005
H54	H	1.693091	0.315784	0.000009
H55	H	1.688912	0.473126	-0.000007
F56	F	1.244883	0.448079	-0.000011
H57	H	1.788232	-0.474686	0.096918
F58	F	1.568975	-0.505937	-0.000016
F59	F	2.458285	0.121823	0.110289
H60	H	1.638405	-0.020713	0.412944
H61	H	1.277941	0.282194	-0.000002
F62	F	1.659764	-0.006705	0.599063
H63	H	1.328471	-0.223948	0.587074
H64	H	1.328447	-0.223952	0.412940
H65	H	2.032594	0.094821	-0.096949
H66	H	2.377767	0.242621	-0.000020
F67	F	2.171330	0.246880	-0.110322
F68	F	1.961728	-0.337777	0.110279
F69	F	2.292122	-0.031969	0.110301
H70	H	2.075035	-0.261678	0.000003
H71	H	1.536017	-0.364747	-0.096932
H72	H	1.681974	-0.229546	-0.096840
