data_functionalizedCrystal
_audit_creation_method	'MofGen! by Chris Wilmer'
_symmetry_space_group_name_H-M	'P1'
_symmetry_Int_Tables_number	1
_symmetry_cell_setting	triclinic
loop_
_symmetry_equiv_pos_as_xyz
  x,y,z
_cell_length_a	26.210047
_cell_length_b	15.538191
_cell_length_c	27.732064
_cell_angle_alpha	115.039241
_cell_angle_beta	90.008557
_cell_angle_gamma	90.007287
loop_
_atom_site_label
_atom_site_type_symbol
_atom_site_fract_x
_atom_site_fract_y
_atom_site_fract_z
O1	O	-0.042446	-1.252193	-0.157396
O2	O	0.457554	-0.752193	0.342604
O3	O	-0.042442	-0.977126	-0.101443
O4	O	0.457558	-0.477126	0.398557
O5	O	-0.042446	-1.123194	-0.201280
O6	O	0.457554	-0.623194	0.298720
O7	O	-0.042442	-1.106124	-0.057558
O8	O	0.457558	-0.606124	0.442442
O9	O	0.042412	-1.123166	-0.201264
O10	O	0.542412	-0.623166	0.298736
O11	O	0.042416	-0.977098	-0.101426
O12	O	0.542416	-0.477098	0.398574
O13	O	0.042412	-1.252164	-0.157379
O14	O	0.542412	-0.752164	0.342621
Cu15	Cu	0.050162	-1.114628	-0.129401
Cu16	Cu	0.550162	-0.614628	0.370599
Cu17	Cu	-0.050192	-1.114662	-0.129421
Cu18	Cu	0.449808	-0.614662	0.370579
O19	O	0.042416	-1.106096	-0.057542
O20	O	0.542416	-0.606096	0.442458
C21	C	-0.000012	-0.941932	-0.095580
C22	C	0.499988	-0.441932	0.404420
C23	C	-0.000011	-0.837106	-0.078143
C24	C	0.499989	-0.337106	0.421857
N25	N	0.120746	-1.114612	-0.129389
N26	N	0.620746	-0.614612	0.370611
N27	N	-0.120776	-1.114686	-0.129438
N28	N	0.379224	-0.614686	0.370562
C29	C	0.473258	-1.179334	-0.173620
C30	C	0.973258	-0.679334	0.326380
C31	C	0.686917	-1.179355	-0.173631
C32	C	1.186917	-0.679355	0.326369
O33	O	0.714537	-1.234348	-0.211229
O34	O	1.214537	-0.734348	0.288771
N35	N	0.713640	-1.114667	-0.129432
N36	N	1.213640	-0.614667	0.370568
C37	C	0.686945	-1.049965	-0.085230
C38	C	1.186945	-0.549965	0.414770
O39	O	0.714577	-0.994938	-0.047639
O40	O	1.214577	-0.494938	0.452361
C41	C	0.473288	-1.049940	-0.085221
C42	C	0.973288	-0.549940	0.414779
C43	C	0.446567	-1.114639	-0.129420
C44	C	0.946567	-0.614639	0.370580
C45	C	0.446538	-1.244027	-0.217816
C46	C	0.946538	-0.744027	0.282184
C47	C	0.393126	-1.244024	-0.217812
C48	C	0.893126	-0.744024	0.282188
C49	C	0.366435	-1.179329	-0.173612
C50	C	0.866435	-0.679329	0.326388
C51	C	0.393156	-1.114637	-0.129416
C52	C	0.893156	-0.614637	0.370584
C53	C	0.446594	-0.985235	-0.041021
C54	C	0.946594	-0.485235	0.458979
C55	C	0.393176	-0.985233	-0.041023
C56	C	0.893176	-0.485233	0.458977
C57	C	0.366456	-1.049931	-0.085222
C58	C	0.866456	-0.549931	0.414778
C59	C	0.313053	-1.049939	-0.085212
C60	C	0.813053	-0.549939	0.414788
N61	N	0.286330	-1.114627	-0.129410
N62	N	0.786330	-0.614627	0.370590
C63	C	0.313021	-1.179322	-0.173610
C64	C	0.813021	-0.679322	0.326390
C65	C	0.799118	-1.049984	-0.085237
C66	C	1.299118	-0.549984	0.414763
C67	C	0.852533	-1.049991	-0.085238
C68	C	1.352533	-0.549991	0.414762
C69	C	0.852500	-1.179380	-0.173640
C70	C	1.352500	-0.679380	0.326360
C71	C	0.799085	-1.179377	-0.173636
C72	C	1.299085	-0.679377	0.326364
C73	C	0.772395	-1.114672	-0.129435
C74	C	1.272395	-0.614672	0.370565
C75	C	0.200853	-1.179313	-0.173598
C76	C	0.700853	-0.679313	0.326402
C77	C	0.147437	-1.179307	-0.173589
C78	C	0.647437	-0.679307	0.326411
C79	C	0.147474	-1.049915	-0.085189
C80	C	0.647474	-0.549915	0.414811
C81	C	0.200885	-1.049923	-0.085196
C82	C	0.700885	-0.549923	0.414804
C83	C	0.227574	-1.114626	-0.129406
C84	C	0.727574	-0.614626	0.370594
O85	O	0.285400	-0.994968	-0.047636
O86	O	0.785400	-0.494968	0.452364
O87	O	0.285380	-1.234327	-0.211200
O88	O	0.785380	-0.734327	0.288800
C89	C	0.526670	-1.179337	-0.173625
C90	C	1.026670	-0.679337	0.326375
C91	C	0.553390	-1.114644	-0.129429
C92	C	1.053390	-0.614644	0.370571
C93	C	0.526699	-1.049949	-0.085229
C94	C	1.026699	-0.549949	0.414771
C95	C	0.606804	-1.114651	-0.129430
C96	C	1.106804	-0.614651	0.370570
C97	C	0.633495	-1.179346	-0.173630
C98	C	1.133495	-0.679346	0.326370
C99	C	0.606772	-1.244034	-0.217829
C100	C	1.106772	-0.744034	0.282171
C101	C	0.553361	-1.244032	-0.217824
C102	C	1.053361	-0.744032	0.282176
C103	C	0.553422	-0.985261	-0.041031
C104	C	1.053422	-0.485261	0.458969
C105	C	0.606834	-0.985269	-0.041038
C106	C	1.106834	-0.485269	0.458962
C107	C	0.633525	-1.049964	-0.085238
C108	C	1.133525	-0.549964	0.414762
C109	C	-0.000019	-1.122819	-0.219217
C110	C	0.499981	-0.622819	0.280783
C111	C	-0.000024	-1.121733	-0.272685
C112	C	0.499976	-0.621733	0.227315
C113	C	-0.000019	-1.287359	-0.163242
C114	C	0.499981	-0.787359	0.336758
C115	C	-0.000024	-1.392184	-0.180680
C116	C	0.499976	-0.892184	0.319320
C117	C	-0.000024	-0.551817	-0.251382
C118	C	0.499976	-0.051817	0.248618
C119	C	-0.000024	-0.453315	-0.234984
C120	C	0.499976	0.046685	0.265016
C121	C	-0.000021	-0.429540	-0.142751
C122	C	0.499979	0.070460	0.357249
C123	C	-0.000019	-0.528042	-0.159141
C124	C	0.499981	-0.028042	0.340859
C125	C	-0.000021	-0.589174	-0.213457
C126	C	0.499979	-0.089174	0.286543
C127	C	-0.000015	-0.565399	-0.121217
C128	C	0.499985	-0.065399	0.378783
C129	C	-0.000016	-0.663893	-0.137605
C130	C	0.499984	-0.163893	0.362395
C131	C	-0.000019	-0.725030	-0.191919
C132	C	0.499981	-0.225030	0.308081
C133	C	-0.000021	-0.687668	-0.229846
C134	C	0.499979	-0.187668	0.270154
C135	C	-0.000017	-0.504266	-0.066901
C136	C	0.499983	-0.004266	0.433099
C137	C	-0.000014	-0.541622	-0.028976
C138	C	0.499986	-0.041622	0.471024
C139	C	-0.000010	-0.640118	-0.045365
C140	C	0.499990	-0.140118	0.454635
C141	C	-0.000014	-0.701255	-0.099678
C142	C	0.499986	-0.201255	0.400322
C143	C	-0.000009	-0.677481	-0.007438
C144	C	0.499991	-0.177481	0.492562
C145	C	-0.000009	-0.775975	-0.023827
C146	C	0.499991	-0.275975	0.476173
C147	C	-0.000014	-0.799750	-0.116067
C148	C	0.499986	-0.299750	0.383933
C149	C	-0.000024	-1.028020	-0.633674
C150	C	0.499976	-0.528020	-0.133674
C151	C	-0.000025	-1.032017	-0.432700
C152	C	0.499975	-0.532017	0.067300
O153	O	-0.000044	-0.959299	-0.388967
O154	O	0.499956	-0.459299	0.111033
N155	N	-0.000026	-1.118633	-0.428438
N156	N	0.499974	-0.618633	0.071562
C157	C	-0.000031	-1.204256	-0.474424
C158	C	0.499969	-0.704256	0.025576
O159	O	-0.000037	-1.278019	-0.466187
O160	O	0.499963	-0.778019	0.033813
C161	C	-0.000034	-1.200257	-0.675397
C162	C	0.499966	-0.700257	-0.175397
C163	C	-0.000027	-1.113636	-0.679655
C164	C	0.499973	-0.613636	-0.179655
C165	C	-0.000018	-0.941405	-0.637934
C166	C	0.499982	-0.441405	-0.137934
C167	C	-0.000015	-0.940407	-0.688175
C168	C	0.499985	-0.440407	-0.188175
C169	C	-0.000018	-1.026023	-0.734156
C170	C	0.499982	-0.526023	-0.234156
C171	C	-0.000024	-1.112637	-0.729896
C172	C	0.499976	-0.612637	-0.229896
C173	C	-0.000042	-1.285878	-0.721382
C174	C	0.499958	-0.785878	-0.221382
C175	C	-0.000044	-1.284871	-0.771626
C176	C	0.499956	-0.784871	-0.271626
C177	C	-0.000038	-1.198250	-0.775884
C178	C	0.499962	-0.698250	-0.275884
C179	C	-0.000024	-1.197254	-0.826117
C180	C	0.499976	-0.697254	-0.326117
N181	N	-0.000023	-1.110639	-0.830379
N182	N	0.499977	-0.610639	-0.330379
C183	C	-0.000020	-1.025023	-0.784399
C184	C	0.499980	-0.525023	-0.284399
C185	C	-0.000028	-1.206349	-0.368909
C186	C	0.499972	-0.706349	0.131091
C187	C	-0.000027	-1.207349	-0.318666
C188	C	0.499973	-0.707349	0.181334
C189	C	-0.000022	-1.035110	-0.276945
C190	C	0.499978	-0.535110	0.223055
C191	C	-0.000020	-1.034111	-0.327189
C192	C	0.499980	-0.534111	0.172811
C193	C	-0.000027	-1.119733	-0.373171
C194	C	0.499973	-0.619733	0.126829
C195	C	-0.000013	-1.022932	-0.889909
C196	C	0.499987	-0.522932	-0.389909
C197	C	-0.000008	-1.021941	-0.940156
C198	C	0.499992	-0.521941	-0.440156
C199	C	-0.000016	-1.194180	-0.981872
C200	C	0.499984	-0.694180	-0.481872
C201	C	-0.000018	-1.195171	-0.931630
C202	C	0.499982	-0.695171	-0.431630
C203	C	-0.000019	-1.109540	-0.885648
C204	C	0.499981	-0.609540	-0.385648
O205	O	-0.000011	-1.269934	-0.869872
O206	O	0.499989	-0.769934	-0.369872
O207	O	-0.000025	-0.951270	-0.792647
O208	O	0.499975	-0.451270	-0.292647
C209	C	-0.000027	-1.029018	-0.583434
C210	C	0.499973	-0.529018	-0.083434
C211	C	-0.000033	-1.115633	-0.579174
C212	C	0.499967	-0.615633	-0.079174
C213	C	-0.000036	-1.201248	-0.625154
C214	C	0.499964	-0.701248	-0.125154
C215	C	-0.000032	-1.116632	-0.528931
C216	C	0.499968	-0.616632	-0.028931
C217	C	-0.000028	-1.031017	-0.482950
C218	C	0.499972	-0.531017	0.017050
C219	C	-0.000027	-0.944401	-0.487212
C220	C	0.499973	-0.444401	0.012788
C221	C	-0.000024	-0.943402	-0.537453
C222	C	0.499976	-0.443402	-0.037453
C223	C	-0.000038	-1.287864	-0.620892
C224	C	0.499962	-0.787864	-0.120892
C225	C	-0.000040	-1.288856	-0.570650
C226	C	0.499960	-0.788856	-0.070650
C227	C	-0.000037	-1.203240	-0.524669
C228	C	0.499963	-0.703240	-0.024669
C229	C	-0.000013	-1.106471	-0.039605
C230	C	0.499987	-0.606471	0.460395
C231	C	-0.000011	-1.107557	0.013863
C232	C	0.499989	-0.607557	0.513863
H233	H	0.125683	-1.231996	-0.209582
H234	H	0.625683	-0.731996	0.290418
H235	H	-0.000026	-0.805230	-0.205261
H236	H	0.499974	-0.305230	0.294739
H237	H	-0.000041	-1.359398	-0.567191
H238	H	0.499959	-0.859398	-0.067191
H239	H	-0.000020	-0.737445	-0.274075
H240	H	0.499980	-0.237445	0.225925
H241	H	-0.000048	-1.356415	-0.717925
H242	H	0.499952	-0.856415	-0.217925
F243	F	-0.000017	-0.399439	-0.049460
F244	F	0.499983	0.100561	0.450540
H245	H	0.468342	-0.932551	-0.005030
H246	H	0.968342	-0.432551	0.494970
F247	F	0.119059	-0.981066	-0.038149
F248	F	0.619059	-0.481066	0.461851
F249	F	0.229249	-1.248177	-0.220651
F250	F	0.729249	-0.748177	0.279349
F251	F	0.474937	-1.312889	-0.264864
F252	F	0.974937	-0.812889	0.235136
F253	F	-0.000021	-0.413562	-0.275353
F254	F	0.499979	0.086438	0.224647
H255	H	-0.000012	-0.963576	-0.330651
H256	H	0.499988	-0.463576	0.169349
H257	H	-0.000053	-1.354597	-0.809065
H258	H	0.499947	-0.854597	-0.309065
H259	H	-0.000017	-0.965398	-0.239498
H260	H	0.499983	-0.465398	0.260502
H261	H	0.777333	-1.232059	-0.209627
H262	H	1.277333	-0.732059	0.290373
H263	H	0.777391	-0.997292	-0.049241
H264	H	1.277391	-0.497292	0.450759
F265	F	-0.000015	-0.476553	0.028829
F266	F	0.499985	0.023447	0.528829
F267	F	-0.000040	-1.378994	-0.669824
F268	F	0.499960	-0.878994	-0.169824
F269	F	0.364693	-1.312881	-0.264856
F270	F	0.864693	-0.812881	0.235144
F271	F	-0.000022	-0.364470	-0.084946
F272	F	0.499978	0.135530	0.415054
H273	H	-0.000002	-0.806390	0.007055
H274	H	0.499998	-0.306390	0.507055
H275	H	-0.000013	-0.849527	-0.160296
H276	H	0.499987	-0.349527	0.339704
F277	F	-0.000034	-1.297486	-0.417842
F278	F	0.499966	-0.797486	0.082158
H279	H	-0.000000	-0.951401	-0.943618
H280	H	0.500000	-0.451401	-0.443618
F281	F	-0.000009	-1.287362	-0.927098
F282	F	0.499991	-0.787362	-0.427098
H283	H	-0.000023	-0.601595	-0.295611
H284	H	0.499977	-0.101595	0.204389
H285	H	-0.000014	-0.869871	-0.691635
H286	H	0.499986	-0.369871	-0.191635
H287	H	-0.000012	-0.627693	0.036786
H288	H	0.499988	-0.127693	0.536786
F289	F	0.364774	-0.916360	0.006023
F290	F	0.864774	-0.416360	0.506023
H291	H	0.874241	-1.232059	-0.209629
H292	H	1.374241	-0.732059	0.290371
F293	F	-0.000013	-0.931794	-0.840978
F294	F	0.499987	-0.431794	-0.340978
H295	H	0.874285	-0.997317	-0.049244
H296	H	1.374285	-0.497317	0.450756
H297	H	-0.000017	-0.871682	-0.600499
H298	H	0.499983	-0.371682	-0.100499
F299	F	-0.000026	-1.299543	-0.314140
F300	F	0.499974	-0.799543	0.185860
H301	H	-0.000016	-1.263886	-1.019318
H302	H	0.499984	-0.763886	-0.519318
F303	F	-0.000018	-0.851207	-0.541977
F304	F	0.499982	-0.351207	-0.041977
F305	F	-0.000021	-0.853282	-0.438267
F306	F	0.499979	-0.353282	0.061733
H307	H	0.531609	-1.296715	-0.253815
H308	H	1.031609	-0.796715	0.246185
F309	F	0.229322	-0.981073	-0.038151
F310	F	0.729322	-0.481073	0.461849
F311	F	0.635266	-0.916408	0.006009
F312	F	1.135266	-0.416408	0.506009
F313	F	0.635188	-1.312891	-0.264869
F314	F	1.135188	-0.812891	0.235131
H315	H	0.531695	-0.932577	-0.005038
H316	H	1.031695	-0.432577	0.494962
