data_functionalizedCrystal
_audit_creation_method	'MofGen! by Chris Wilmer'
_symmetry_space_group_name_H-M	'P1'
_symmetry_Int_Tables_number	1
_symmetry_cell_setting	triclinic
loop_
_symmetry_equiv_pos_as_xyz
  x,y,z
_cell_length_a	17.699077
_cell_length_b	15.944499
_cell_length_c	14.421503
_cell_angle_alpha	90.005553
_cell_angle_beta	90.004680
_cell_angle_gamma	83.379093
loop_
_atom_site_label
_atom_site_type_symbol
_atom_site_fract_x
_atom_site_fract_y
_atom_site_fract_z
O1	O	1.004243	0.106204	0.077093
O2	O	0.783885	0.120029	0.077096
O3	O	0.900102	-0.009175	0.077096
O4	O	0.888026	0.235407	0.077093
O5	O	0.900091	-0.009188	-0.077127
O6	O	0.783874	0.120015	-0.077127
O7	O	1.004232	0.106190	-0.077131
Cu8	Cu	0.894052	0.113101	-0.091211
Cu9	Cu	0.894065	0.113117	0.091176
O10	O	0.888015	0.235393	-0.077130
C11	C	0.755682	0.119527	-0.000015
C12	C	0.671661	0.118044	-0.000013
C13	C	0.632187	0.117337	-0.084081
C14	C	0.553242	0.115930	-0.084082
C15	C	0.513772	0.115235	-0.000014
C16	C	0.553252	0.115939	0.084061
C17	C	0.632196	0.117340	0.084061
C18	C	0.234880	0.110286	0.084062
C19	C	0.155931	0.108887	0.084056
C20	C	0.155926	0.108876	-0.084080
C21	C	0.234870	0.110277	-0.084080
C22	C	0.274344	0.110977	-0.000006
C23	C	0.359945	0.112501	-0.000006
C24	C	0.428172	0.113716	-0.000013
C25	C	0.899602	-0.040475	-0.000013
C26	C	0.898120	-0.133720	-0.000006
C27	C	0.965639	-0.425400	-0.000013
C28	C	0.930535	-0.364307	-0.076056
C29	C	0.892735	-0.469345	-0.000017
C30	C	0.930526	-0.364299	0.075997
C31	C	0.895384	-0.304442	-0.000010
C32	C	0.857611	-0.409480	-0.076123
C33	C	0.857612	-0.409479	0.075998
C34	C	0.822456	-0.348404	-0.000064
C35	C	0.891210	-0.564342	-0.000022
C36	C	0.896903	-0.209446	-0.000012
C37	C	1.032435	0.106691	-0.000018
C38	C	1.116456	0.108175	-0.000013
C39	C	0.888515	0.266694	-0.000019
C40	C	0.889997	0.359939	-0.000020
N41	N	0.894049	0.113089	-0.219492
C42	C	0.947384	0.052872	-0.530921
C43	C	0.962678	0.128512	-0.469086
C44	C	0.894066	0.113113	-0.591381
C45	C	0.878799	0.037463	-0.469122
C46	C	0.894059	0.113097	-0.408660
C47	C	0.909394	0.188791	-0.530907
C48	C	0.825485	0.097693	-0.530949
C49	C	0.840750	0.173388	-0.469141
C50	C	0.894071	0.113121	-0.696642
C51	C	0.894053	0.113098	-0.303401
N52	N	0.894074	0.113123	0.219458
H53	H	0.123778	0.108302	-0.152538
H54	H	0.767508	0.084628	-0.558142
C55	C	0.926931	0.275228	-0.567408
C56	C	0.941194	0.345693	-0.498757
C57	C	0.958734	0.432127	-0.535260
C58	C	0.962010	0.448096	-0.640413
C59	C	0.947747	0.377629	-0.709071
C60	C	0.930207	0.291195	-0.672568
H61	H	0.938769	0.333874	-0.420910
H62	H	0.969292	0.484291	-0.484434
H63	H	0.974994	0.512079	-0.667435
H64	H	0.950172	0.389448	-0.786918
H65	H	0.919649	0.239031	-0.723393
C66	C	0.675598	0.118103	-0.176561
C67	C	0.738477	0.046154	-0.199686
C68	C	0.781885	0.046917	-0.292169
C69	C	0.762413	0.119629	-0.361527
C70	C	0.699530	0.191583	-0.338404
C71	C	0.656123	0.190820	-0.245921
H72	H	0.752894	-0.007676	-0.148341
H73	H	0.828434	-0.006348	-0.309286
H74	H	0.794546	0.120193	-0.429989
H75	H	0.685113	0.245413	-0.389749
H76	H	0.609573	0.244085	-0.228804
H77	H	1.020673	0.141553	-0.441913
C78	C	0.815984	-0.436384	-0.163068
C79	C	0.846215	-0.418034	-0.260225
C80	C	0.804591	-0.444938	-0.347170
C81	C	0.732736	-0.490193	-0.336958
C82	C	0.702501	-0.508545	-0.239798
C83	C	0.744125	-0.481640	-0.152853
H84	H	0.899410	-0.384532	-0.267788
H85	H	0.826973	-0.431353	-0.419095
H86	H	0.701923	-0.510109	-0.401320
H87	H	0.649306	-0.542047	-0.232235
H88	H	0.721743	-0.495226	-0.080928
H89	H	0.521107	0.115340	-0.152539
C90	C	1.047370	-0.470610	-0.000109
C91	C	1.060944	-0.567758	0.000698
C92	C	1.142672	-0.612969	0.000597
C93	C	1.210826	-0.561031	-0.000311
C94	C	1.197254	-0.463877	-0.001117
C95	C	1.115526	-0.418667	-0.001016
H96	H	1.010490	-0.606210	0.001369
H97	H	1.152718	-0.684889	0.001194
H98	H	1.271326	-0.594499	-0.000385
H99	H	1.247708	-0.425425	-0.001789
H100	H	1.105479	-0.346747	-0.001613
C101	C	0.972182	-0.337257	-0.162906
C102	C	0.930031	-0.275802	-0.233046
C103	C	0.971682	-0.248759	-0.319893
C104	C	1.055484	-0.283171	-0.336600
C105	C	1.097639	-0.344630	-0.266458
C106	C	1.055988	-0.371673	-0.179611
H107	H	0.867992	-0.250325	-0.220680
H108	H	0.940476	-0.203263	-0.371817
H109	H	1.086316	-0.263152	-0.400890
H110	H	1.159678	-0.370107	-0.278824
H111	H	1.087195	-0.417169	-0.127687
H112	H	0.826806	-0.429520	0.140289
H113	H	0.795655	0.224381	-0.442186
C114	C	0.740654	-0.303391	-0.000119
C115	C	0.686418	-0.317681	-0.080621
C116	C	0.604618	-0.272666	-0.080682
C117	C	0.577054	-0.213361	-0.000241
C118	C	0.631292	-0.199069	0.080266
C119	C	0.713092	-0.244084	0.080327
H120	H	0.706821	-0.361584	-0.140173
H121	H	0.564468	-0.283246	-0.140279
H122	H	0.516501	-0.180038	-0.000287
H123	H	0.610888	-0.155166	0.139818
H124	H	0.753241	-0.233503	0.139924
H125	H	0.865889	-0.026506	-0.441981
H126	H	0.123797	0.108321	0.152519
C127	C	0.278288	0.111025	-0.176557
C128	C	0.234869	0.110231	-0.269033
C129	C	0.278288	0.110967	-0.361511
C130	C	0.365124	0.112498	-0.361513
C131	C	0.408547	0.113292	-0.269033
C132	C	0.365129	0.112555	-0.176555
H133	H	0.170584	0.109098	-0.269035
H134	H	0.246142	0.110379	-0.429970
H135	H	0.397265	0.113043	-0.429970
H136	H	0.472833	0.114425	-0.269031
H137	H	0.397275	0.113143	-0.108095
H138	H	0.992507	0.001991	-0.558046
H139	H	0.961379	-0.344279	0.140279
C140	C	0.278289	0.111063	0.176545
C141	C	0.276032	0.037967	0.245903
C142	C	0.319441	0.038745	0.338392
C143	C	0.365107	0.112619	0.361525
C144	C	0.367365	0.185721	0.292166
C145	C	0.323956	0.184943	0.199676
H146	H	0.242225	-0.016724	0.228780
H147	H	0.317768	-0.015371	0.389736
H148	H	0.397241	0.113194	0.429991
H149	H	0.401172	0.240412	0.309289
H150	H	0.325629	0.239058	0.148333
H151	H	0.521111	0.115367	0.152510
H152	H	0.664335	0.117917	0.152518
