data_functionalizedCrystal
_audit_creation_method	'MofGen! by Chris Wilmer'
_symmetry_space_group_name_H-M	'P1'
_symmetry_Int_Tables_number	1
_symmetry_cell_setting	triclinic
loop_
_symmetry_equiv_pos_as_xyz
  x,y,z
_cell_length_a	14.971486
_cell_length_b	19.188930
_cell_length_c	13.448316
_cell_angle_alpha	90.011727
_cell_angle_beta	90.001801
_cell_angle_gamma	83.379455
loop_
_atom_site_label
_atom_site_type_symbol
_atom_site_fract_x
_atom_site_fract_y
_atom_site_fract_z
O1	O	1.186467	0.090988	0.082589
O2	O	1.686467	0.590988	0.582589
O3	O	0.926009	0.101884	0.082618
O4	O	1.426009	0.601884	0.582618
O5	O	1.063754	-0.005195	0.082583
O6	O	1.563754	0.494805	0.582583
O7	O	1.048722	0.198067	0.082624
O8	O	1.548722	0.698067	0.582624
O9	O	1.063737	-0.005202	-0.082801
O10	O	1.563737	0.494798	0.417199
O11	O	0.925992	0.101877	-0.082766
O12	O	1.425992	0.601877	0.417234
O13	O	1.186450	0.090981	-0.082795
O14	O	1.686450	0.590981	0.417205
Cu15	Cu	1.056219	0.096429	-0.097881
Cu16	Cu	1.556219	0.596429	0.402119
Cu17	Cu	1.056239	0.096437	0.097704
Cu18	Cu	1.556239	0.596437	0.597704
O19	O	1.048704	0.198061	-0.082760
O20	O	1.548704	0.698061	0.417240
C21	C	0.892678	0.101393	-0.000071
C22	C	1.392678	0.601393	0.499929
C23	C	0.793389	0.099933	-0.000061
C24	C	1.293389	0.599933	0.499939
C25	C	1.063259	-0.031211	-0.000112
C26	C	1.563259	0.468789	0.499888
C27	C	1.061797	-0.108721	-0.000120
C28	C	1.561797	0.391279	0.499880
C29	C	0.735831	0.162839	-0.000050
C30	C	1.235831	0.662839	0.499950
C31	C	0.642539	0.161463	-0.000065
C32	C	1.142539	0.661463	0.499935
C33	C	0.606806	0.097180	-0.000084
C34	C	1.106806	0.597180	0.499916
C35	C	0.664371	0.034269	-0.000098
C36	C	1.164371	0.534269	0.499902
C37	C	0.757662	0.035646	-0.000090
C38	C	1.257662	0.535646	0.499910
C39	C	0.469924	0.031403	-0.000112
C40	C	0.969924	0.531403	0.499888
C41	C	0.376627	0.030026	-0.000119
C42	C	0.876627	0.530026	0.499881
C43	C	0.354801	0.157221	-0.000087
C44	C	0.854801	0.657221	0.499913
C45	C	0.448092	0.158598	-0.000079
C46	C	0.948092	0.658598	0.499921
C47	C	0.505650	0.095686	-0.000091
C48	C	1.005650	0.595686	0.499909
C49	C	1.142622	-0.153384	-0.000134
C50	C	1.642622	0.346616	0.499866
C51	C	1.141249	-0.226213	-0.000118
C52	C	1.641249	0.273787	0.499882
C53	C	1.059047	-0.254374	-0.000108
C54	C	1.559047	0.245626	0.499892
C55	C	0.978212	-0.209700	-0.000089
C56	C	1.478212	0.290300	0.499911
C57	C	0.979587	-0.136874	-0.000095
C58	C	1.479587	0.363126	0.499905
N59	N	0.996208	-0.362583	-0.056384
N60	N	1.496208	0.137417	0.443616
N61	N	0.994907	-0.431766	-0.056381
N62	N	1.494907	0.068234	0.443619
C63	C	1.054899	-0.473796	-0.000087
C64	C	1.554899	0.026204	0.499913
N65	N	1.116254	-0.444030	0.056190
N66	N	1.616254	0.055970	0.556190
N67	N	1.117558	-0.374842	0.056182
N68	N	1.617558	0.125158	0.556182
C69	C	1.057547	-0.333341	-0.000101
C70	C	1.557547	0.166659	0.499899
C71	C	1.134240	-0.597429	-0.000082
C72	C	1.634240	-0.097429	0.499918
C73	C	1.132864	-0.670258	-0.000060
C74	C	1.632864	-0.170258	0.499940
C75	C	0.969825	-0.653744	-0.000041
C76	C	1.469825	-0.153744	0.499959
C77	C	0.971203	-0.580916	-0.000053
C78	C	1.471203	-0.080916	0.499947
C79	C	1.053413	-0.552763	-0.000078
C80	C	1.553413	-0.052763	0.499922
C81	C	1.219780	0.091472	-0.000104
C82	C	1.719780	0.591472	0.499896
C83	C	1.319070	0.092932	-0.000107
C84	C	1.819070	0.592932	0.499893
C85	C	1.049200	0.224077	-0.000063
C86	C	1.549200	0.724077	0.499937
C87	C	1.050661	0.301586	-0.000048
C88	C	1.550661	0.801586	0.499952
N89	N	1.056211	0.096423	-0.235446
N90	N	1.556211	0.596423	0.264554
C91	C	1.117224	0.049028	-0.287501
C92	C	1.617224	0.549028	0.212499
C93	C	1.117229	0.049027	-0.391604
C94	C	1.617229	0.549027	0.108396
C95	C	1.056226	0.096426	-0.443650
C96	C	1.556226	0.596426	0.056350
C97	C	0.995207	0.143823	-0.391587
C98	C	1.495207	0.643823	0.108413
C99	C	0.995198	0.143820	-0.287486
C100	C	1.495198	0.643820	0.212514
C101	C	0.995232	0.143828	-0.608567
C102	C	1.495232	0.643828	-0.108567
C103	C	0.995242	0.143832	-0.712676
C104	C	1.495242	0.643832	-0.212676
C105	C	1.117263	0.049035	-0.712686
C106	C	1.617263	0.549035	-0.212686
C107	C	1.117254	0.049032	-0.608585
C108	C	1.617254	0.549032	-0.108585
C109	C	1.056236	0.096430	-0.556529
C110	C	1.556236	0.596430	-0.056529
N111	N	1.056254	0.096437	0.235268
N112	N	1.556254	0.596437	0.735268
H113	H	0.764917	0.215186	-0.000034
H114	H	1.264917	0.715186	0.499966
F115	F	1.182203	-0.001409	-0.768091
F116	F	1.682203	0.498591	-0.268091
H117	H	1.166909	0.010434	-0.433988
H118	H	1.666909	0.510434	0.066012
H119	H	0.516786	-0.019826	-0.000124
H120	H	1.016786	0.480174	0.499876
F121	F	0.581285	0.228417	-0.000049
F122	F	1.081285	0.728417	0.499951
H123	H	0.905387	-0.544550	-0.000048
H124	H	1.405387	-0.044550	0.499952
F125	F	0.930312	0.194280	-0.768060
F126	F	1.430312	0.694280	-0.268060
F127	F	0.930286	0.194274	-0.553170
F128	F	1.430286	0.694274	-0.053170
H129	H	0.945533	0.182414	-0.433969
H130	H	1.445533	0.682414	0.066031
H131	H	1.166931	0.010440	-0.566209
H132	H	1.666931	0.510440	-0.066209
F133	F	0.486119	0.227015	-0.000049
F134	F	0.986119	0.727015	0.499951
F135	F	0.930258	0.194263	-0.232086
F136	F	1.430258	0.694263	0.267914
H137	H	0.347537	-0.022319	-0.000135
H138	H	0.847537	0.477681	0.499865
F139	F	0.293543	0.224176	-0.000076
F140	F	0.793543	0.724176	0.499924
F141	F	0.626339	-0.034147	-0.000125
F142	F	1.126339	0.465853	0.499875
F143	F	0.818919	-0.031308	-0.000106
F144	F	1.318919	0.468692	0.499894
H145	H	1.209564	-0.130467	-0.000151
H146	H	1.709564	0.369533	0.499849
H147	H	0.911283	-0.232634	-0.000079
H148	H	1.411283	0.267366	0.499921
F149	F	1.227277	-0.273756	-0.000130
F150	F	1.727277	0.226244	0.499870
F151	F	1.182157	-0.001418	-0.232120
F152	F	1.682157	0.498582	0.267880
H153	H	1.201180	-0.574506	-0.000098
H154	H	1.701180	-0.074506	0.499902
H155	H	1.198683	-0.706623	-0.000065
H156	H	1.698683	-0.206623	0.499935
F157	F	0.893559	-0.089337	-0.000080
F158	F	1.393559	0.410663	0.499920
H159	H	0.902894	-0.676672	-0.000028
H160	H	1.402894	-0.176672	0.499972
