data_functionalizedCrystal
_audit_creation_method	'MofGen! by Chris Wilmer'
_symmetry_space_group_name_H-M	'P1'
_symmetry_Int_Tables_number	1
_symmetry_cell_setting	triclinic
loop_
_symmetry_equiv_pos_as_xyz
  x,y,z
_cell_length_a	10.654562
_cell_length_b	17.019294
_cell_length_c	9.730223
_cell_angle_alpha	86.119703
_cell_angle_beta	89.996961
_cell_angle_gamma	83.940708
loop_
_atom_site_label
_atom_site_type_symbol
_atom_site_fract_x
_atom_site_fract_y
_atom_site_fract_z
O1	O	1.666088	0.110838	-0.127495
O2	O	1.300447	0.121384	-0.128726
O3	O	1.493469	0.001335	-0.114521
O4	O	1.473067	0.230887	-0.141700
O5	O	1.493466	0.001338	0.114058
O6	O	1.300445	0.121387	0.099853
O7	O	1.666086	0.110841	0.101084
Zn8	Zn	1.483265	0.116115	0.136761
Zn9	Zn	1.483268	0.116111	-0.164403
O10	O	1.473064	0.230890	0.086879
C11	C	1.253660	0.120609	-0.014342
C12	C	1.114254	0.118286	-0.014061
C13	C	1.048739	0.117204	0.110656
C14	C	0.917751	0.115028	0.110890
C15	C	0.917804	0.115019	-0.138319
C16	C	1.048791	0.117189	-0.138552
C17	C	1.114203	0.118301	0.235147
C18	C	1.048687	0.117220	0.359873
C19	C	0.917699	0.115044	0.360108
C20	C	0.852226	0.113948	0.235616
C21	C	1.492694	-0.028057	0.003246
C22	C	1.490374	-0.115640	0.013608
C23	C	1.489288	-0.156784	-0.106122
C24	C	1.487100	-0.239077	-0.096382
C25	C	1.486007	-0.280225	0.033089
C26	C	1.487089	-0.239075	0.152828
C27	C	1.489268	-0.156783	0.143087
C28	C	1.479420	-0.528693	0.068736
C29	C	1.477245	-0.610991	0.078468
C30	C	1.477254	-0.610987	-0.170743
C31	C	1.479440	-0.528694	-0.180473
C32	C	1.480515	-0.487551	-0.060734
C33	C	1.483775	-0.364342	0.043048
C34	C	1.482739	-0.403435	-0.070695
C35	C	1.712873	0.111616	-0.013303
C36	C	1.852279	0.113939	-0.013593
C37	C	1.473839	0.260282	-0.030891
C38	C	1.476159	0.347865	-0.041262
N39	N	1.483272	0.116117	0.342297
N40	N	1.483271	0.116102	-0.369938
C41	C	1.568764	0.062977	0.420511
C42	C	1.568761	0.062968	0.564395
C43	C	1.397770	0.169244	0.551838
C44	C	1.397768	0.169249	0.407957
C45	C	1.654268	0.009845	0.354851
C46	C	1.739767	-0.043298	0.433065
C47	C	1.739764	-0.043308	0.576949
C48	C	1.654262	0.009826	0.642619
H49	H	0.745567	0.112174	0.235817
C50	C	1.120860	0.118386	-0.275737
H51	H	1.063112	0.117435	-0.349847
H52	H	1.181610	0.073315	-0.275571
H53	H	1.162306	0.165159	-0.286438
C54	C	1.485884	-0.284330	-0.228086
H55	H	1.486855	-0.248038	-0.306588
H56	H	1.411829	-0.310812	-0.230117
H57	H	1.558230	-0.322051	-0.228817
H58	H	0.864485	0.114129	-0.239674
H59	H	1.328152	0.212520	0.344274
H60	H	1.220859	0.120075	0.234969
C61	C	1.303737	0.227692	0.624071
H62	H	1.315992	0.220083	0.720962
H63	H	1.219944	0.218637	0.601573
H64	H	1.317286	0.280422	0.594252
C65	C	1.480626	-0.483435	-0.322892
H66	H	1.479653	-0.519725	-0.392806
H67	H	1.554669	-0.456942	-0.331217
H68	H	1.408267	-0.445723	-0.332523
C69	C	1.490490	-0.111528	-0.248542
H70	H	1.489518	-0.147820	-0.318452
H71	H	1.564535	-0.085037	-0.256866
H72	H	1.418133	-0.073814	-0.258181
H73	H	1.102005	0.118106	0.461230
H74	H	1.476376	-0.644494	-0.268227
C75	C	1.654272	0.009858	0.196584
H76	H	1.591116	0.049120	0.159405
H77	H	1.637194	-0.040659	0.169996
H78	H	1.734515	0.021139	0.162708
H79	H	1.476348	-0.644491	0.183905
C80	C	0.845636	0.113853	0.497297
H81	H	0.903386	0.114823	0.571399
H82	H	0.804185	0.067088	0.508016
H83	H	0.784888	0.158931	0.497122
H84	H	1.480321	-0.495206	0.166236
H85	H	1.490135	-0.123283	0.240584
C86	C	1.485891	-0.284336	0.295244
H87	H	1.484452	-0.339240	0.283900
H88	H	1.413053	-0.265240	0.344189
H89	H	1.559455	-0.276460	0.345499
H90	H	1.483620	-0.369928	-0.176110
C91	C	1.833817	-0.101737	0.360834
H92	H	1.821587	-0.094116	0.263941
H93	H	1.820292	-0.154468	0.390641
H94	H	1.917607	-0.092667	0.383347
C95	C	1.833805	-0.101763	0.662982
H96	H	1.884730	-0.133399	0.603265
H97	H	1.788703	-0.134871	0.723027
H98	H	1.886025	-0.073074	0.715713
C99	C	1.654249	0.009814	0.800889
H100	H	1.591082	0.049067	0.828793
H101	H	1.734485	0.021078	0.832109
H102	H	1.637148	-0.040710	0.839404
H103	H	1.482889	-0.397854	0.148465
