data_functionalizedCrystal
_audit_creation_method	'MofGen! by Chris Wilmer'
_symmetry_space_group_name_H-M	'P1'
_symmetry_Int_Tables_number	1
_symmetry_cell_setting	triclinic
loop_
_symmetry_equiv_pos_as_xyz
  x,y,z
_cell_length_a	13.262533
_cell_length_b	13.261948
_cell_length_c	11.804365
_cell_angle_alpha	86.396249
_cell_angle_beta	93.582318
_cell_angle_gamma	88.761743
loop_
_atom_site_label
_atom_site_type_symbol
_atom_site_fract_x
_atom_site_fract_y
_atom_site_fract_z
O1	O	1.335836	0.198773	0.269229
O2	O	1.049799	0.194684	0.177910
O3	O	1.190768	0.053692	0.269250
O4	O	1.194867	0.339764	0.177889
O5	O	1.153654	0.090770	0.443272
O6	O	1.012685	0.231761	0.351932
O7	O	1.298721	0.235850	0.443251
Cu8	Cu	1.152314	0.237191	0.413481
Cu9	Cu	1.196206	0.193343	0.207680
O10	O	1.157752	0.376842	0.351911
C11	C	0.994456	0.210041	0.254037
C12	C	0.884845	0.200550	0.221611
C13	C	0.494936	0.254654	0.509639
C14	C	0.597920	0.263577	0.540109
C15	C	0.669656	0.247821	0.460487
C16	C	0.638398	0.223141	0.350390
C17	C	0.535404	0.214225	0.319914
C18	C	0.710124	0.207391	0.270762
C19	C	0.678866	0.182711	0.160665
C20	C	0.575882	0.173796	0.130194
C21	C	0.504146	0.189552	0.209816
C22	C	0.813118	0.216307	0.301238
C23	C	0.853586	0.175878	0.111513
C24	C	0.750602	0.166955	0.081043
C25	C	1.169029	0.035440	0.367148
C26	C	1.159537	-0.074186	0.399585
C27	C	1.134834	-0.105496	0.509680
C28	C	1.125908	-0.208498	0.540135
C29	C	1.141676	-0.280199	0.460495
C30	C	1.166373	-0.248888	0.350396
C31	C	1.175307	-0.145877	0.319940
C32	C	1.182150	-0.320580	0.270756
C33	C	1.206846	-0.289269	0.160657
C34	C	1.215778	-0.186267	0.130206
C35	C	1.200010	-0.114566	0.209846
C36	C	1.173215	-0.423591	0.301211
C37	C	1.213688	-0.463972	0.111472
C38	C	1.222614	-0.360970	0.081017
C39	C	1.354065	0.220492	0.367121
C40	C	1.463678	0.229982	0.399541
C41	C	1.179492	0.395093	0.254011
C42	C	1.188985	0.504718	0.221567
N43	N	1.121450	0.268032	0.558233
N44	N	1.227078	0.162495	0.062933
C45	C	1.301193	0.088417	1.048593
C46	C	1.324540	0.065082	0.939054
C47	C	1.273769	0.115817	0.843844
C48	C	1.199648	0.189892	0.858183
C49	C	1.176304	0.213235	0.967732
C50	C	1.148880	0.240635	0.762983
C51	C	1.074758	0.314710	0.777322
C52	C	1.051418	0.338048	0.886862
C53	C	1.102188	0.287313	0.982072
C54	C	1.172224	0.217292	0.653433
C55	C	1.047335	0.342110	0.572572
C56	C	1.023987	0.365445	0.682112
H57	H	0.725137	0.146861	-0.008601
H58	H	0.753509	0.255088	0.485303
H59	H	1.105804	-0.233984	0.629779
H60	H	0.623362	0.283671	0.629751
H61	H	1.153106	-0.449073	0.390855
H62	H	0.436521	0.267488	0.574452
H63	H	1.226530	-0.522352	0.046624
C64	C	1.117828	0.049241	0.188981
C65	C	1.209825	-0.001339	0.176376
H66	H	1.123891	0.119144	0.168328
H67	H	1.066344	0.022053	0.141221
H68	H	1.100866	0.040840	0.265949
H69	H	1.226784	0.007055	0.099406
H70	H	1.261326	0.025857	0.224136
H71	H	1.134407	-0.364067	0.485298
H72	H	0.963636	0.425759	0.693800
C73	C	1.130565	0.070337	0.547225
C74	C	1.117505	-0.026684	0.597210
H75	H	1.119860	0.118992	0.601268
H76	H	1.197290	0.075341	0.522867
H77	H	1.083386	0.082480	0.483651
H78	H	1.164689	-0.038830	0.660779
H79	H	1.050769	-0.031692	0.621585
H80	H	1.235899	-0.160779	0.040560
H81	H	0.420287	0.182279	0.185016
H82	H	0.550436	0.153710	0.040542
H83	H	1.292782	0.096814	0.754654
C84	C	0.953015	0.247931	0.432195
C85	C	0.847472	0.243428	0.422253
H86	H	0.974219	0.264679	0.506909
H87	H	0.981757	0.184131	0.417828
H88	H	0.974645	0.298051	0.378601
H89	H	0.825842	0.193303	0.475842
H90	H	0.818719	0.307237	0.436633
C91	C	1.008367	0.501648	0.469884
C92	C	0.991521	0.397887	0.467926
H93	H	0.973919	0.536078	0.405273
H94	H	0.983856	0.526143	0.537168
H95	H	1.078753	0.513091	0.468521
H96	H	0.921135	0.386443	0.469298
H97	H	1.016027	0.373384	0.400625
C98	C	1.254273	-0.220993	-0.049906
C99	C	1.249764	-0.326545	-0.040001
H100	H	1.271039	-0.199743	-0.124616
H101	H	1.190474	-0.192259	-0.035521
H102	H	1.304379	-0.199397	0.003692
H103	H	1.199653	-0.348141	-0.093594
H104	H	1.313572	-0.355290	-0.054399
C105	C	1.445634	-0.055951	1.029991
C106	C	1.406004	-0.016343	0.923294
H107	H	1.495923	-0.106227	1.020259
H108	H	1.474830	-0.003328	1.071010
H109	H	1.393023	-0.085175	1.071057
H110	H	1.458614	0.012888	0.882231
H111	H	1.376808	-0.068975	0.882258
C112	C	1.029427	0.171583	0.073984
C113	C	0.932430	0.158552	0.023984
H114	H	1.078104	0.160884	0.019951
H115	H	1.034431	0.238304	0.098339
H116	H	1.041533	0.124383	0.137562
H117	H	0.920321	0.205757	-0.039590
H118	H	0.927423	0.091821	-0.000388
C119	C	0.930312	0.459080	0.795928
C120	C	0.969949	0.419478	0.902625
H121	H	0.880014	0.509347	0.805662
H122	H	0.982910	0.488305	0.754862
H123	H	0.901115	0.406445	0.754910
H124	H	0.999153	0.472112	0.943641
H125	H	0.917342	0.390254	0.943709
H126	H	1.232574	0.156981	0.641770
H127	H	1.342529	0.047120	1.126117
H128	H	1.083177	0.306309	1.071270
