data_functionalizedCrystal
_audit_creation_method	'MofGen! by Chris Wilmer'
_symmetry_space_group_name_H-M	'P1'
_symmetry_Int_Tables_number	1
_symmetry_cell_setting	triclinic
loop_
_symmetry_equiv_pos_as_xyz
  x,y,z
_cell_length_a	12.645330
_cell_length_b	18.101398
_cell_length_c	12.645323
_cell_angle_alpha	90.030393
_cell_angle_beta	89.972994
_cell_angle_gamma	89.995383
loop_
_atom_site_label
_atom_site_type_symbol
_atom_site_fract_x
_atom_site_fract_y
_atom_site_fract_z
Zn1	Zn	-0.422258	-1.132242	-0.599649
Zn2	Zn	-0.599546	-1.132170	-0.422382
Zn3	Zn	-0.422272	-1.008393	-0.422369
Zn4	Zn	-0.599455	-1.008391	-0.599574
O5	O	-0.510883	-1.070299	-0.510993
O6	O	-0.445808	-1.235865	-0.576171
O7	O	-0.576074	-1.115721	-0.274033
O8	O	-0.273923	-1.024853	-0.445912
O9	O	-0.576060	-1.235812	-0.445934
O10	O	-0.273913	-1.115844	-0.576158
O11	O	-0.445832	-1.024783	-0.274024
O12	O	-0.445744	-0.904760	-0.445839
O13	O	-0.575905	-1.024849	-0.747931
O14	O	-0.575919	-0.904758	-0.576030
O15	O	-0.445720	-1.115842	-0.747986
O16	O	-0.747881	-1.115719	-0.445861
O17	O	-0.747814	-1.024780	-0.576043
C18	C	-0.786312	-1.070262	-0.510968
C19	C	-0.904142	-1.070314	-0.510993
C20	C	-0.510824	-0.877888	-0.510926
C21	C	-0.510824	-0.795574	-0.510922
C22	C	-1.071704	-1.127432	-0.428929
C23	C	-0.949144	-1.127618	-0.429130
C24	C	-0.948529	-1.091481	-0.622742
C25	C	-1.071127	-1.091934	-0.622307
C26	C	-1.071454	-0.992006	-0.482409
C27	C	-0.948850	-0.992381	-0.479903
C28	C	-0.510866	-0.496483	-0.510992
C29	C	-0.428556	-0.527785	-0.429480
C30	C	-0.428784	-0.613403	-0.429138
C31	C	-0.510844	-0.644866	-0.510957
C32	C	-0.622514	-0.613771	-0.480435
C33	C	-0.622049	-0.528126	-0.479863
C34	C	-0.482479	-0.528096	-0.623219
C35	C	-0.480000	-0.613746	-0.622612
C36	C	-0.510839	-0.728725	-0.510939
C37	C	-0.510879	-0.412624	-0.511007
C38	C	-0.234377	-1.070356	-0.511042
C39	C	-0.116547	-1.070381	-0.511063
C40	C	-0.510801	-1.070353	-0.787499
C41	C	-0.510766	-1.070377	-0.905329
C42	C	-0.510922	-0.263461	-0.511046
C43	C	-0.510886	-0.345775	-0.511027
C44	C	-0.592280	-1.012957	-1.072859
C45	C	-0.592683	-1.013107	-0.950299
C46	C	-0.541100	-1.148410	-0.949863
C47	C	-0.541611	-1.148095	-1.072461
C48	C	-0.398462	-1.050501	-1.072527
C49	C	-0.399135	-1.048760	-0.949920
C50	C	-0.510888	-1.070287	-0.235564
C51	C	-0.510624	-1.070407	-0.117734
H52	H	-0.919138	-1.114374	-0.346271
H53	H	-1.100786	-1.052201	-0.685611
H54	H	-0.919748	-1.185668	-0.448084
H55	H	-1.099651	-1.149222	-0.646576
C56	C	-0.705021	-1.030848	-0.910691
N57	N	-0.789643	-1.044196	-0.880860
H58	H	-0.397823	-0.634073	-0.645626
H59	H	-0.917752	-1.148122	-0.647415
H60	H	-0.535584	-0.635167	-0.686601
H61	H	-0.345492	-0.507196	-0.448398
H62	H	-1.102459	-0.972757	-0.402340
H63	H	-0.919375	-1.051192	-0.685578
C64	C	-0.361117	-0.974962	-1.114252
N65	N	-0.333002	-0.918063	-1.145679
H66	H	-0.542431	-0.507856	-0.683952
C67	C	-0.453605	-0.498662	-0.317792
N68	N	-0.472475	-0.476724	-0.233669
H69	H	-0.919850	-0.976421	-0.397665
C70	C	-0.707710	-0.500152	-0.556563
N71	N	-0.772232	-0.479085	-0.614329
H72	H	-0.573699	-0.955243	-0.920186
C73	C	-1.113254	-1.205432	-0.454230
N74	N	-1.144559	-1.264180	-0.473284
H75	H	-0.622234	-1.165571	-0.919174
C76	C	-0.566875	-0.934549	-1.112652
N77	N	-0.547738	-0.875491	-1.142632
C78	C	-0.652383	-1.170882	-1.111116
N79	N	-0.735820	-1.188044	-1.140225
H80	H	-0.918227	-0.947580	-0.535337
C81	C	-1.110636	-0.934579	-0.563220
N82	N	-1.140153	-0.891330	-0.624089
C83	C	-0.316275	-1.107032	-1.111733
N84	N	-0.254380	-1.149614	-1.141267
H85	H	-0.484720	-1.192352	-1.102150
H86	H	-0.674911	-1.025970	-1.103677
H87	H	-0.483508	-1.192363	-0.920738
H88	H	-0.376259	-0.991335	-0.920811
H89	H	-1.101254	-1.114354	-0.345827
H90	H	-0.335079	-1.087547	-0.919309
H91	H	-0.447553	-0.633857	-0.345982
C92	C	-0.316910	-0.641805	-0.454968
N93	N	-0.232641	-0.663194	-0.474418
H94	H	-0.646123	-0.508116	-0.397820
H95	H	-0.685488	-0.634153	-0.537949
H96	H	-0.402464	-0.506507	-0.650967
C97	C	-0.655602	-0.642697	-0.370794
N98	N	-0.680517	-0.664481	-0.288208
