data_functionalizedCrystal
_audit_creation_method	'MofGen! by Chris Wilmer'
_symmetry_space_group_name_H-M	'P1'
_symmetry_Int_Tables_number	1
_symmetry_cell_setting	triclinic
loop_
_symmetry_equiv_pos_as_xyz
  x,y,z
_cell_length_a	10.967953
_cell_length_b	10.723024
_cell_length_c	9.798715
_cell_angle_alpha	90.001978
_cell_angle_beta	77.868449
_cell_angle_gamma	95.409197
loop_
_atom_site_label
_atom_site_type_symbol
_atom_site_fract_x
_atom_site_fract_y
_atom_site_fract_z
O1	O	1.657191	-0.175008	-0.503199
O2	O	1.294038	-0.191765	-0.417801
O3	O	1.483991	-0.001810	-0.462465
O4	O	1.467237	-0.364962	-0.458535
O5	O	1.483977	-0.001809	-0.235479
O6	O	1.294023	-0.191764	-0.190815
O7	O	1.657176	-0.175007	-0.276213
Zn8	Zn	1.475598	-0.183386	-0.197475
Zn9	Zn	1.475616	-0.183386	-0.496539
O10	O	1.467223	-0.364962	-0.231549
C11	C	1.247531	-0.190546	-0.293373
C12	C	1.108976	-0.186899	-0.260791
C13	C	1.482765	0.044690	-0.348687
C14	C	1.479117	0.183244	-0.347834
C15	C	1.703683	-0.176226	-0.400644
C16	C	1.842238	-0.179872	-0.433235
C17	C	2.047207	-0.185272	-0.363846
C18	C	1.904004	-0.181499	-0.330165
C19	C	1.468450	-0.411462	-0.345330
C20	C	1.472097	-0.550016	-0.346192
N21	N	1.475594	-0.183384	0.006625
C22	C	1.585405	0.258228	-0.372830
C23	C	1.581637	0.401431	-0.371949
N24	N	1.475630	-0.183378	-0.700641
C25	C	1.555350	-0.103276	0.055649
C26	C	1.555370	-0.103272	0.212807
H27	H	2.100340	-0.186679	-0.477009
H28	H	1.679191	0.216407	-0.394876
Cl29	Cl	1.331601	0.350517	-0.313140
H30	H	1.672628	0.465865	-0.393342
Cl31	Cl	1.370205	-0.289281	0.234174
H32	H	1.385331	0.225065	-0.325788
Cl33	Cl	1.370182	-0.289266	0.121450
H34	H	1.850874	-0.180107	-0.216995
H35	H	1.623657	-0.034692	0.255036
Cl36	Cl	1.924252	-0.182051	-0.607965
H37	H	1.623614	-0.034690	-0.018725
H38	H	2.055841	-0.185506	-0.147628
