data_functionalizedCrystal
_audit_creation_method	'MofGen! by Chris Wilmer'
_symmetry_space_group_name_H-M	'P1'
_symmetry_Int_Tables_number	1
_symmetry_cell_setting	triclinic
loop_
_symmetry_equiv_pos_as_xyz
  x,y,z
_cell_length_a	15.944480
_cell_length_b	10.540510
_cell_length_c	9.016244
_cell_angle_alpha	90.000273
_cell_angle_beta	90.006419
_cell_angle_gamma	96.008421
loop_
_atom_site_label
_atom_site_type_symbol
_atom_site_fract_x
_atom_site_fract_y
_atom_site_fract_z
O1	O	-1.115527	0.163281	-0.123300
O2	O	-0.871089	0.183559	-0.123309
O3	O	-0.998897	-0.011367	-0.123304
O4	O	-0.987718	0.358207	-0.123306
O5	O	-0.998879	-0.011362	0.123377
O6	O	-0.871070	0.183564	0.123372
O7	O	-1.115508	0.163286	0.123380
Cu8	Cu	-0.993287	0.173425	0.145900
Cu9	Cu	-0.993309	0.173420	-0.145829
O10	O	-0.987699	0.358212	0.123375
C11	C	-0.839779	0.182736	0.000030
C12	C	-0.746516	0.180259	0.000026
C13	C	-0.511430	0.295008	0.000022
C14	C	-0.460498	0.233143	0.121655
C15	C	-0.575767	0.175671	0.000027
C16	C	-0.460521	0.233111	-0.121553
C17	C	-0.410830	0.171248	0.000022
C18	C	-0.526063	0.113838	0.121760
C19	C	-0.526089	0.113823	-0.121557
C20	C	-0.475189	0.051870	0.000105
C21	C	-0.670782	0.178222	0.000032
C22	C	-0.315817	0.168686	0.000028
C23	C	-0.998055	-0.058657	0.000033
C24	C	-0.995563	-0.199572	0.000024
C25	C	-1.084351	-0.418270	0.000593
C26	C	-1.087010	-0.271712	0.000029
C27	C	-0.948761	-0.243677	-0.140841
C28	C	-0.946750	-0.390410	-0.140952
C29	C	-0.944824	-0.390187	0.139570
C30	C	-0.949162	-0.243907	0.141425
C31	C	-0.146816	0.164127	0.000035
C32	C	-0.240076	0.166655	0.000021
C33	C	-0.988542	0.405502	0.000035
C34	C	-0.991034	0.546417	0.000034
N35	N	-0.993278	0.173428	0.351086
N36	N	-0.993326	0.173407	-0.351015
C37	C	-0.924699	0.277357	0.586116
C38	C	-0.924850	0.277741	0.414225
C39	C	-1.081097	0.202333	0.413428
C40	C	-1.080723	0.203067	0.585373
C41	C	-0.974909	0.040245	0.585629
C42	C	-0.972894	0.041138	0.413675
H43	H	-0.527660	0.397800	0.000136
H44	H	-1.024947	-0.037111	0.626284
F45	F	-1.149468	0.107770	0.639732
H46	H	-1.119780	-0.462273	-0.099855
F47	F	-0.988580	-0.443567	-0.278577
H48	H	-0.936687	0.376560	0.373078
H49	H	-0.983216	-0.215770	0.245636
F50	F	-0.857353	-0.419220	-0.149319
H51	H	-0.431887	0.283531	-0.224370
F52	F	-0.888451	0.012462	0.360423
H53	H	-1.123629	-0.242878	0.101005
H54	H	-1.019567	-0.039837	0.370701
H55	H	-0.459117	-0.050999	0.000176
H56	H	-1.119970	-0.460722	0.101615
F57	F	-1.135170	-0.235254	-0.132183
H58	H	-0.881440	-0.195346	-0.146082
F59	F	-0.839549	0.255300	0.359132
F60	F	-0.563558	0.048006	-0.255969
H61	H	-0.973877	-0.432774	0.246347
F62	F	-0.423051	0.299017	0.256060
F63	F	-0.991264	-0.203950	-0.277864
H64	H	-0.554586	0.063472	0.224694
F65	F	-0.861894	-0.178554	0.152542
F66	F	-0.855083	-0.417883	0.140811
H67	H	-0.859242	0.260421	0.627507
F68	F	-0.939976	0.405797	0.642547
F69	F	-1.101776	0.330001	0.637777
H70	H	-1.133412	0.128636	0.372525
H71	H	-1.097565	0.298341	0.370350
H72	H	-0.912225	0.012443	0.629075
