data_functionalizedCrystal
_audit_creation_method	'MofGen! by Chris Wilmer'
_symmetry_space_group_name_H-M	'P1'
_symmetry_Int_Tables_number	1
_symmetry_cell_setting	triclinic
loop_
_symmetry_equiv_pos_as_xyz
  x,y,z
_cell_length_a	17.639123
_cell_length_b	13.032721
_cell_length_c	13.032268
_cell_angle_alpha	76.710373
_cell_angle_beta	95.511286
_cell_angle_gamma	109.626167
loop_
_atom_site_label
_atom_site_type_symbol
_atom_site_fract_x
_atom_site_fract_y
_atom_site_fract_z
Zn1	Zn	-1.097640	0.239228	-0.915255
Zn2	Zn	-1.097553	0.394333	-0.760182
Zn3	Zn	-0.984682	0.243464	-0.710809
Zn4	Zn	-0.946206	0.452636	-0.901729
O5	O	-1.031520	0.332415	-0.821994
O6	O	-1.208241	0.233630	-0.921007
O7	O	-1.098647	0.351692	-0.608834
O8	O	-1.015804	0.090451	-0.722928
O9	O	-1.208177	0.347585	-0.807076
O10	O	-1.098794	0.087339	-0.873133
O11	O	-1.015721	0.240850	-0.572560
O12	O	-0.868966	0.297385	-0.709812
O13	O	-0.950228	0.446954	-1.048322
O14	O	-0.840698	0.451062	-0.850080
O15	O	-1.061485	0.290164	-1.058259
O16	O	-1.061338	0.554518	-0.793960
O17	O	-0.950144	0.597353	-0.897954
C18	C	-0.826151	0.381011	-0.773121
C19	C	-0.738288	0.401830	-0.752241
C20	C	-0.614437	0.490376	-0.663386
C21	C	-0.696998	0.470805	-0.683013
C22	C	-0.697025	0.352402	-0.801873
C23	C	-0.614461	0.371967	-0.782260
C24	C	-0.573174	0.440954	-0.713014
C25	C	-0.573199	0.322545	-0.831889
C26	C	-0.490643	0.342103	-0.812273
C27	C	-0.449350	0.411084	-0.743028
C28	C	-0.490618	0.460512	-0.693398
C29	C	-0.614489	0.253552	-0.901128
C30	C	-0.573226	0.204130	-0.950757
C31	C	-0.490668	0.223694	-0.931147
C32	C	-0.449375	0.292675	-0.861902
C33	C	-0.449400	0.174266	-0.980777
C34	C	-0.366844	0.193825	-0.961160
C35	C	-0.366820	0.312234	-0.842286
C36	C	-1.001576	0.615463	-0.849875
C37	C	-0.988834	0.736540	-0.861854
C38	C	-1.001575	0.374590	-1.091885
C39	C	-0.988813	0.392563	-1.206897
C40	C	-0.237693	0.283623	-0.871045
C41	C	-0.325557	0.262812	-0.891915
C42	C	-1.061601	0.048261	-0.794032
C43	C	-1.074419	-0.072829	-0.782116
C44	C	-1.038207	0.769289	-0.815798
C45	C	-1.025039	0.894428	-0.828178
C46	C	-1.038172	0.322999	-1.263089
C47	C	-1.024984	0.341573	-1.381960
C48	C	-1.061403	0.290315	-0.553155
C49	C	-1.074350	0.271999	-0.438150
H50	H	-0.456998	0.516699	-0.637021
H51	H	-0.730591	0.511057	-0.642594
C52	C	-0.494243	0.099557	-1.056106
C53	C	-0.527758	0.160472	-1.139691
C54	C	-0.569064	0.091690	-1.209112
H55	H	-0.535900	0.038205	-1.019695
H56	H	-0.457861	0.072946	-1.082925
H57	H	-0.564137	0.187067	-1.112873
H58	H	-0.486119	0.221821	-1.176129
H59	H	-0.532682	0.065079	-1.235931
H60	H	-0.610717	0.030341	-1.172692
H61	H	-0.591803	0.133013	-1.265837
H62	H	-0.382132	0.426989	-0.727041
H63	H	-0.936818	0.801147	-0.910455
C64	C	-0.322057	0.387304	-0.767212
C65	C	-0.328273	0.493859	-0.804960
C66	C	-0.287056	0.563035	-0.735828
H67	H	-0.266961	0.392010	-0.762588
H68	H	-0.344991	0.357249	-0.699333
H69	H	-0.305336	0.523908	-0.872820
H70	H	-0.383359	0.489189	-0.809580
H71	H	-0.309989	0.532980	-0.667949
H72	H	-0.231962	0.567732	-0.731208
H73	H	-0.291273	0.635337	-0.761424
H74	H	-1.090191	0.249689	-1.223193
C75	C	-0.618066	0.129429	-1.026095
C76	C	-0.651575	0.190354	-1.109678
C77	C	-0.692876	0.121584	-1.179110
H78	H	-0.659726	0.068074	-0.989692
H79	H	-0.581682	0.102820	-1.052914
H80	H	-0.687956	0.216946	-1.082860
H81	H	-0.609932	0.251705	-1.146108
H82	H	-0.656492	0.094975	-1.205930
H83	H	-0.734532	0.060232	-1.142699
H84	H	-0.715611	0.162914	-1.235835
H85	H	-0.580816	0.546562	-0.607009
C86	C	-0.322032	0.140019	-1.014850
C87	C	-0.288525	0.072165	-0.938220
C88	C	-0.247249	0.022564	-0.987637
H89	H	-0.280372	0.196323	-1.056322
H90	H	-0.358429	0.096074	-1.058871
H91	H	-0.252131	0.116106	-0.894218
H92	H	-0.330168	0.015842	-0.896744
H93	H	-0.283646	-0.021380	-1.031658
H94	H	-0.205593	0.078875	-1.029108
H95	H	-0.224516	-0.023488	-0.935653
H96	H	-1.126444	0.862568	-0.733521
C97	C	-0.955694	0.980732	-0.892897
C98	C	-0.956403	1.087694	-0.892282
C99	C	-0.892531	1.167226	-0.951876
H100	H	-0.961381	0.970391	-0.963388
H101	H	-0.906192	0.972477	-0.863233
H102	H	-1.005893	1.095946	-0.921950
H103	H	-0.950705	1.098072	-0.821807
H104	H	-0.843029	1.158970	-0.922212
H105	H	-0.898224	1.156874	-1.022363
H106	H	-0.892999	1.239808	-0.951459
H107	H	-0.972955	0.414879	-1.421849
H108	H	-0.730653	0.296230	-0.858250
H109	H	-1.090229	0.704684	-0.767206
C110	C	-0.704087	0.232540	-0.922565
C111	C	-0.717517	0.333926	-0.965549
C112	C	-0.800042	0.314615	-0.985327
H113	H	-0.732254	0.198794	-0.858458
H114	H	-0.722787	0.184422	-0.970952
H115	H	-0.698827	0.382026	-0.917164
H116	H	-0.689370	0.367688	-1.029663
H117	H	-0.818742	0.266497	-1.033714
H118	H	-0.828202	0.280867	-0.921216
H119	H	-0.809165	0.383400	-1.014502
H120	H	-1.126371	0.198682	-1.398260
H121	H	-0.936788	0.465864	-1.246790
