data_functionalizedCrystal
_audit_creation_method	'MofGen! by Chris Wilmer'
_symmetry_space_group_name_H-M	'P1'
_symmetry_Int_Tables_number	1
_symmetry_cell_setting	triclinic
loop_
_symmetry_equiv_pos_as_xyz
  x,y,z
_cell_length_a	6.817900
_cell_length_b	19.452420
_cell_length_c	19.453114
_cell_angle_alpha	96.328802
_cell_angle_beta	101.709288
_cell_angle_gamma	101.696715
loop_
_atom_site_label
_atom_site_type_symbol
_atom_site_fract_x
_atom_site_fract_y
_atom_site_fract_z
V1	V	-3.997947	-0.097915	-0.219345
V2	V	-3.497947	0.402085	0.280655
O3	O	-3.995100	0.003953	-0.214816
O4	O	-3.495100	0.503953	0.285184
O5	O	-3.940917	-0.193426	-0.218185
O6	O	-3.440917	0.306574	0.281815
O7	O	-3.940968	-0.096739	-0.314854
O8	O	-3.440968	0.403261	0.185146
O9	O	-3.995048	-0.093403	-0.117478
O10	O	-3.495048	0.406597	0.382522
V11	V	-4.483804	-0.085692	-0.207120
V12	V	-3.983804	0.414308	0.292880
O13	O	-4.254084	-0.124729	-0.246163
O14	O	-3.754084	0.375271	0.253837
O15	O	-4.677865	-0.058878	-0.180302
O16	O	-4.177865	0.441122	0.319698
O17	O	-4.317628	0.009819	-0.208280
O18	O	-3.817628	0.509819	0.291720
O19	O	-4.604048	-0.187560	-0.211649
O20	O	-4.104048	0.312440	0.288351
O21	O	-4.604099	-0.090204	-0.308987
O22	O	-4.104099	0.409796	0.191013
O23	O	-4.317576	-0.086868	-0.111611
O24	O	-3.817576	0.413132	0.388389
C25	C	-3.784096	-0.216699	-0.214813
C26	C	-3.284096	0.283301	0.285187
C27	C	-3.818697	-0.294782	-0.214501
C28	C	-3.318697	0.205218	0.285499
C29	C	-3.801490	-0.321196	-0.149986
C30	C	-3.301490	0.178804	0.350014
C31	C	-3.834075	-0.394562	-0.149672
C32	C	-3.334075	0.105438	0.350328
C33	C	-3.883827	-0.441511	-0.213874
C34	C	-3.383827	0.058489	0.286126
C35	C	-3.901045	-0.415090	-0.278397
C36	C	-3.401045	0.084910	0.221603
C37	C	-3.868480	-0.341726	-0.278711
C38	C	-3.368480	0.158274	0.221289
N39	N	-3.846563	-0.562110	-0.259091
N40	N	-3.346563	-0.062110	0.240909
N41	N	-3.877492	-0.631802	-0.258789
N42	N	-3.377492	-0.131802	0.241211
C43	C	-3.981949	-0.662553	-0.212935
C44	C	-3.481949	-0.162553	0.287065
N45	N	-4.054279	-0.620977	-0.167383
N46	N	-3.554279	-0.120977	0.332617
N47	N	-4.023337	-0.551278	-0.167682
N48	N	-3.523337	-0.051278	0.332318
C49	C	-3.919143	-0.521063	-0.213542
C50	C	-3.419143	-0.021063	0.286458
C51	C	-4.000075	-0.768518	-0.148075
C52	C	-3.500075	-0.268518	0.351925
C53	C	-4.032674	-0.841885	-0.147764
C54	C	-3.532674	-0.341885	0.352236
C55	C	-4.099624	-0.862412	-0.276491
C56	C	-3.599624	-0.362412	0.223509
C57	C	-4.067045	-0.789046	-0.276801
C58	C	-3.567045	-0.289046	0.223199
C59	C	-4.017262	-0.742102	-0.212591
C60	C	-3.517262	-0.242102	0.287409
C61	C	-3.784160	-0.093365	-0.338123
C62	C	-3.284160	0.406635	0.161877
C63	C	-3.818800	-0.093035	-0.416204
C64	C	-3.318800	0.406965	0.083796
C65	C	-4.016538	-0.096406	-0.456473
C66	C	-3.516538	0.403594	0.043527
C67	C	-4.049086	-0.096097	-0.529838
C68	C	-3.549086	0.403903	-0.029838
C69	C	-3.883893	-0.092431	-0.562934
C70	C	-3.383893	0.407569	-0.062934
C71	C	-3.686126	-0.089055	-0.522655
C72	C	-3.186126	0.410945	-0.022655
C73	C	-3.653579	-0.089358	-0.449290
C74	C	-3.153579	0.410642	0.050710
N75	N	-3.820798	-0.129525	-0.681855
N76	N	-3.320798	0.370475	-0.181855
N77	N	-3.851729	-0.129240	-0.751549
N78	N	-3.351729	0.370760	-0.251549
C79	C	-3.981942	-0.091517	-0.783979
C80	C	-3.481942	0.408483	-0.283979
N81	N	-4.080090	-0.054101	-0.744084
N82	N	-3.580090	0.445899	-0.244084
N83	N	-4.049164	-0.054390	-0.674384
N84	N	-3.549164	0.445610	-0.174384
C85	C	-3.919164	-0.092102	-0.642486
C86	C	-3.419164	0.407898	-0.142486
C87	C	-4.214984	-0.094552	-0.903800
C88	C	-3.714984	0.405448	-0.403800
C89	C	-4.247523	-0.094238	-0.977166
C90	C	-3.747523	0.405762	-0.477166
C91	C	-3.884560	-0.087203	-0.969983
C92	C	-3.384560	0.412797	-0.469983
C93	C	-3.852023	-0.087510	-0.896617
C94	C	-3.352023	0.412490	-0.396617
C95	C	-4.017244	-0.091188	-0.863531
C96	C	-3.517244	0.408812	-0.363531
C97	C	-4.137790	0.033088	-0.211650
C98	C	-3.637790	0.533088	0.288350
C99	C	-4.082427	0.111171	-0.211967
C100	C	-3.582427	0.611171	0.288033
C101	C	-4.137726	-0.090245	-0.088339
C102	C	-3.637726	0.409755	0.411661
C103	C	-4.082325	-0.090570	-0.010257
C104	C	-3.582325	0.409430	0.489743
H105	H	-3.882500	-0.320222	-0.331248
H106	H	-3.382500	0.179778	0.168752
N107	N	-4.014097	-0.870383	-0.078179
N108	N	-3.514097	-0.370383	0.421821
H109	H	-4.149515	-0.902789	-0.077566
H110	H	-3.649515	-0.402789	0.422434
H111	H	-3.977534	-0.829474	-0.037589
H112	H	-3.477534	-0.329474	0.462411
H113	H	-3.750053	-0.084212	-0.996928
H114	H	-3.250053	0.415788	-0.496928
H115	H	-4.210115	-0.098846	-0.562632
H116	H	-3.710115	0.401154	-0.062632
H117	H	-3.551625	-0.086068	-0.549606
H118	H	-3.051625	0.413932	-0.049606
H119	H	-3.941557	-0.453320	-0.330672
H120	H	-3.441557	0.046680	0.169328
H121	H	-3.691009	-0.084773	-0.863830
H122	H	-3.191009	0.415227	-0.363830
N123	N	-3.946397	-0.717880	-0.078825
N124	N	-3.446397	-0.217880	0.421175
H125	H	-3.940461	-0.745749	-0.037907
H126	H	-3.440461	-0.245749	0.462093
H127	H	-4.054831	-0.689419	-0.078547
H128	H	-3.554831	-0.189419	0.421453
H129	H	-3.760969	-0.282979	-0.097702
H130	H	-3.260969	0.217021	0.402298
H131	H	-3.820059	-0.416072	-0.097135
H132	H	-3.320059	0.083928	0.402865
N133	N	-4.153304	-0.913039	-0.345740
N134	N	-3.653304	-0.413039	0.154260
H135	H	-4.171331	-0.963524	-0.335754
H136	H	-3.671331	-0.463524	0.164246
H137	H	-4.038827	-0.902273	-0.371510
H138	H	-3.538827	-0.402273	0.128490
H139	H	-3.492552	-0.086607	-0.416502
H140	H	-2.992552	0.413393	0.083498
N141	N	-4.085584	-0.760551	-0.346384
N142	N	-3.585584	-0.260551	0.153616
H143	H	-4.122043	-0.801423	-0.387010
H144	H	-3.622043	-0.301423	0.112990
H145	H	-3.950122	-0.728132	-0.346924
H146	H	-3.450122	-0.228132	0.153076
H147	H	-4.151076	-0.099398	-0.429538
H148	H	-3.651076	0.400602	0.070462
H149	H	-4.349516	-0.097544	-0.876859
H150	H	-3.849516	0.402456	-0.376859
N151	N	-4.460801	-0.097860	-1.020601
N152	N	-3.960801	0.402140	-0.520601
H153	H	-4.560518	-0.100234	-0.988505
H154	H	-4.060518	0.399766	-0.488505
H155	H	-4.504954	-0.141652	-1.058176
H156	H	-4.004954	0.358348	-0.558176
