data_functionalizedCrystal
_audit_creation_method	'MofGen! by Chris Wilmer'
_symmetry_space_group_name_H-M	'P1'
_symmetry_Int_Tables_number	1
_symmetry_cell_setting	triclinic
loop_
_symmetry_equiv_pos_as_xyz
  x,y,z
_cell_length_a	21.395362
_cell_length_b	16.959453
_cell_length_c	21.395355
_cell_angle_alpha	89.982675
_cell_angle_beta	89.956060
_cell_angle_gamma	90.035866
loop_
_atom_site_label
_atom_site_type_symbol
_atom_site_fract_x
_atom_site_fract_y
_atom_site_fract_z
Zn1	Zn	0.957906	-0.314438	-0.354591
Zn2	Zn	0.957828	-0.446599	-0.249816
Zn3	Zn	0.853121	-0.314475	-0.249792
Zn4	Zn	0.853110	-0.446615	-0.354520
O5	O	0.905491	-0.380532	-0.302180
O6	O	1.045574	-0.331947	-0.340731
O7	O	0.943911	-0.429081	-0.162134
O8	O	0.867058	-0.203859	-0.263714
O9	O	1.045516	-0.429045	-0.263754
O10	O	0.944043	-0.203832	-0.340709
O11	O	0.866983	-0.332010	-0.162117
O12	O	0.765442	-0.332026	-0.263645
O13	O	0.867039	-0.429073	-0.442208
O14	O	0.765433	-0.429109	-0.340588
O15	O	0.944033	-0.331963	-0.442259
O16	O	0.943900	-0.557212	-0.263685
O17	O	0.866964	-0.557224	-0.340611
C18	C	0.742704	-0.380574	-0.302107
C19	C	0.673062	-0.380610	-0.302091
C20	C	0.905439	-0.585898	-0.302157
C21	C	0.905474	-0.673755	-0.302168
C22	C	0.640361	-0.431228	-0.342095
C23	C	0.574926	-0.431209	-0.342123
C24	C	0.542194	-0.380580	-0.302135
C25	C	0.574903	-0.329952	-0.262128
C26	C	0.640337	-0.329967	-0.262106
C27	C	0.438468	-0.374212	-0.245730
C28	C	0.373035	-0.374203	-0.245751
C29	C	0.340373	-0.380528	-0.302205
C30	C	0.373152	-0.386881	-0.358638
C31	C	0.438586	-0.386896	-0.358616
C32	C	0.471242	-0.380558	-0.302155
C33	C	0.236720	-0.431128	-0.342243
C34	C	0.171283	-0.431103	-0.342272
C35	C	0.171262	-0.329850	-0.262271
C36	C	0.236697	-0.329871	-0.262248
C37	C	0.269422	-0.380514	-0.302233
C38	C	0.945629	-1.045158	-0.342347
C39	C	0.865529	-1.045303	-0.262106
C40	C	0.865506	-0.962757	-0.262091
C41	C	0.905544	-0.921408	-0.302206
C42	C	0.945605	-0.962604	-0.342335
C43	C	0.825440	-0.921554	-0.221968
C44	C	0.825415	-0.839003	-0.221952
C45	C	0.865457	-0.797652	-0.262064
C46	C	0.905521	-0.838854	-0.302194
C47	C	0.945559	-0.797505	-0.342309
C48	C	0.985626	-0.838705	-0.382436
C49	C	0.985647	-0.921253	-0.382447
C50	C	0.865436	-0.715104	-0.262053
C51	C	0.945536	-0.714951	-0.342297
C52	C	1.068915	-0.380490	-0.302253
C53	C	1.138556	-0.380473	-0.302284
C54	C	0.905543	-0.380516	-0.465603
C55	C	0.905566	-0.380509	-0.535244
C56	C	0.905561	-0.174363	-0.302216
C57	C	0.905590	-0.086507	-0.302232
C58	C	0.945654	-0.329942	-0.567985
C59	C	0.945653	-0.329908	-0.633421
C60	C	0.905570	-0.380455	-0.666113
C61	C	0.865474	-0.431026	-0.633364
C62	C	0.865471	-0.431053	-0.567929
C63	C	0.900605	-0.451628	-0.769778
C64	C	0.900612	-0.451602	-0.835211
C65	C	0.905574	-0.380372	-0.867934
C66	C	0.910543	-0.309164	-0.835215
C67	C	0.910541	-0.309191	-0.769781
C68	C	0.905568	-0.380431	-0.737065
C69	C	0.945664	-0.329763	-0.971627
C70	C	0.945659	-0.329728	-1.037064
C71	C	0.865483	-0.430853	-1.037005
C72	C	0.865485	-0.430881	-0.971570
C73	C	0.905579	-0.380337	-0.938885
C74	C	0.905476	-0.380491	-0.139392
C75	C	0.905575	-0.380275	-0.069751
H76	H	0.667002	-0.472465	-0.374655
H77	H	1.018268	-0.954806	-0.415117
H78	H	0.465272	-0.392066	-0.404566
Br79	Br	0.771091	-0.977673	-0.167545
Br80	Br	0.530536	-0.499908	-0.396420
H81	H	0.263366	-0.472361	-0.374804
H82	H	0.346560	-0.392030	-0.404608
Br83	Br	1.000007	-1.101068	-0.396799
Br84	Br	0.126902	-0.499799	-0.396574
Br85	Br	0.811061	-0.659192	-0.207602
H86	H	0.896396	-0.509618	-0.743140
Br87	Br	0.126847	-0.261131	-0.208007
H88	H	0.896570	-0.509584	-0.861845
Br89	Br	1.039954	-0.782578	-0.436883
H90	H	0.832929	-1.078974	-0.229449
H91	H	0.832840	-0.472002	-1.063622
Br92	Br	0.999882	-0.658840	-0.396736
H93	H	0.832836	-0.472179	-0.659986
Br94	Br	0.771037	-0.783096	-0.167498
H95	H	0.548249	-0.288728	-0.229571
H96	H	0.978301	-0.288784	-0.541377
H97	H	0.978297	-0.288725	-0.660084
H98	H	0.914585	-0.251161	-0.861857
Br99	Br	0.917280	-0.212558	-0.725379
H100	H	0.978308	-0.288603	-0.945014
H101	H	0.978303	-0.288545	-1.063721
H102	H	0.832823	-0.472230	-0.541272
Br103	Br	0.281080	-0.261172	-0.207953
Br104	Br	0.328556	-0.365584	-0.169164
H105	H	0.465056	-0.369058	-0.199756
Br106	Br	0.684720	-0.261264	-0.207811
H107	H	0.832844	-0.472063	-0.944912
