data_functionalizedCrystal
_audit_creation_method	'MofGen! by Chris Wilmer'
_symmetry_space_group_name_H-M	'P1'
_symmetry_Int_Tables_number	1
_symmetry_cell_setting	triclinic
loop_
_symmetry_equiv_pos_as_xyz
  x,y,z
_cell_length_a	16.120530
_cell_length_b	21.295417
_cell_length_c	16.120297
_cell_angle_alpha	92.867002
_cell_angle_beta	90.128140
_cell_angle_gamma	87.125778
loop_
_atom_site_label
_atom_site_type_symbol
_atom_site_fract_x
_atom_site_fract_y
_atom_site_fract_z
Zn1	Zn	1.247391	-0.318915	-0.534523
Zn2	Zn	1.747391	0.181085	-0.034523
Zn3	Zn	1.254326	-0.419125	-0.395453
Zn4	Zn	1.754326	0.080875	0.104547
Zn5	Zn	1.115383	-0.308278	-0.388443
Zn6	Zn	1.615383	0.191722	0.111557
Zn7	Zn	1.108282	-0.418545	-0.527422
Zn8	Zn	1.608282	0.081455	-0.027422
O9	O	1.181345	-0.366216	-0.461460
O10	O	1.681345	0.133784	0.038540
O11	O	1.364676	-0.336903	-0.521981
O12	O	1.864676	0.163097	-0.021981
O13	O	1.241769	-0.400212	-0.278158
O14	O	1.741769	0.099788	0.221842
O15	O	1.132963	-0.221604	-0.407859
O16	O	1.632963	0.278396	0.092141
O17	O	1.369771	-0.410526	-0.419806
O18	O	1.869771	0.089474	0.080194
O19	O	1.229949	-0.229419	-0.515184
O20	O	1.729949	0.270581	-0.015184
O21	O	1.139688	-0.318773	-0.273008
O22	O	1.639688	0.181227	0.226992
O23	O	0.998075	-0.318211	-0.400973
O24	O	1.498075	0.181789	0.099027
O25	O	1.120862	-0.409538	-0.644729
O26	O	1.620862	0.090462	-0.144729
O27	O	0.992859	-0.399224	-0.503081
O28	O	1.492859	0.100776	-0.003081
O29	O	1.223064	-0.336340	-0.649946
O30	O	1.723064	0.163660	-0.149946
O31	O	1.234884	-0.507133	-0.412921
O32	O	1.734884	-0.007133	0.087079
O33	O	1.127586	-0.506707	-0.509878
O34	O	1.627586	-0.006707	-0.009878
C35	C	0.965295	-0.357501	-0.450496
C36	C	1.465295	0.142499	0.049504
C37	C	0.872866	-0.353788	-0.445825
C38	C	1.372866	0.146212	0.054175
C39	C	0.703638	-0.346996	-0.437305
C40	C	1.203638	0.153004	0.062695
C41	C	0.659891	-0.385485	-0.485677
C42	C	1.159891	0.114515	0.014323
C43	C	0.565726	-0.381705	-0.480936
C44	C	1.065726	0.118295	0.019064
C45	C	0.797811	-0.350774	-0.442045
C46	C	1.297811	0.149226	0.057955
C47	C	1.181239	-0.529761	-0.461409
C48	C	1.681239	-0.029761	0.038591
C49	C	1.181268	-0.599731	-0.461418
C50	C	1.681268	-0.099731	0.038582
C51	C	1.237182	-0.632802	-0.410990
C52	C	1.737182	-0.132802	0.089010
C53	C	1.237220	-0.698547	-0.411010
C54	C	1.737220	-0.198547	0.088990
C55	C	1.181329	-0.731217	-0.461450
C56	C	1.681329	-0.231217	0.038550
C57	C	1.125411	-0.698138	-0.511889
C58	C	1.625411	-0.198138	-0.011889
C59	C	1.125380	-0.632395	-0.511873
C60	C	1.625380	-0.132395	-0.011873
N61	N	1.108264	-0.831783	-0.464098
N62	N	1.608264	-0.331783	0.035902
N63	N	1.108296	-0.894236	-0.464108
N64	N	1.608296	-0.394236	0.035892
C65	C	1.181420	-0.929297	-0.461503
C66	C	1.681420	-0.429297	0.038497
N67	N	1.254514	-0.899546	-0.458870
N68	N	1.754514	-0.399546	0.041130
N69	N	1.254481	-0.837087	-0.458855
N70	N	1.754481	-0.337087	0.041145
C71	C	1.181357	-0.802504	-0.461473
C72	C	1.681357	-0.302504	0.038527
C73	C	1.237380	-1.033657	-0.411094
C74	C	1.737380	-0.533657	0.088906
C75	C	1.237419	-1.099403	-0.411120
C76	C	1.737419	-0.599403	0.088880
C77	C	1.125603	-1.098992	-0.511994
C78	C	1.625603	-0.598992	-0.011994
C79	C	1.125571	-1.033248	-0.511973
C80	C	1.625571	-0.533248	-0.011973
C81	C	1.181459	-1.000584	-0.461518
C82	C	1.681459	-0.500584	0.038482
C83	C	1.398240	-0.374966	-0.472468
C84	C	1.898240	0.125034	0.027532
C85	C	1.490667	-0.378694	-0.477159
C86	C	1.990667	0.121306	0.022841
C87	C	1.170397	-0.374061	-0.678353
C88	C	1.670397	0.125939	-0.178353
C89	C	1.165731	-0.377404	-0.770780
C90	C	1.665731	0.122596	-0.270780
C91	C	1.181474	-0.202033	-0.461531
C92	C	1.681474	0.297967	0.038469
C93	C	1.181529	-0.132068	-0.461562
C94	C	1.681529	0.367932	0.038438
C95	C	1.157183	-0.383493	-0.940004
C96	C	1.657183	0.116507	-0.440004
C97	C	1.205672	-0.348757	-0.983777
C98	C	1.705672	0.151243	-0.483777
C99	C	1.200915	-0.352144	-1.077938
C100	C	1.700915	0.147856	-0.577938
C101	C	1.161938	-0.380106	-0.845834
C102	C	1.661938	0.119894	-0.345834
C103	C	1.192299	-0.358358	-0.245413
C104	C	1.692299	0.141642	0.254587
C105	C	1.197126	-0.354844	-0.152995
C106	C	1.697126	0.145156	0.347005
H107	H	1.282755	-0.725479	-0.369945
H108	H	1.782755	-0.225479	0.130055
C109	C	1.265690	-0.305601	-0.939505
C110	C	1.765690	0.194399	-0.439505
C111	C	1.246578	-0.243332	-0.959644
C112	C	1.746578	0.256668	-0.459644
C113	C	1.301841	-0.203561	-0.918869
C114	C	1.801841	0.296439	-0.418869
H115	H	1.320881	-0.317487	-0.956502
H116	H	1.820881	0.182513	-0.456502
H117	H	1.260938	-0.308968	-0.881181
H118	H	1.760938	0.191032	-0.381181
H119	H	1.251337	-0.239968	-1.017955
H120	H	1.751337	0.260032	-0.517955
H121	H	1.191397	-0.231427	-0.942645
H122	H	1.691397	0.268573	-0.442645
H123	H	1.297089	-0.206928	-0.860544
H124	H	1.797089	0.293072	-0.360544
H125	H	1.357028	-0.215452	-0.935868
H126	H	1.857028	0.284548	-0.435868
H127	H	1.288876	-0.161306	-0.932521
H128	H	1.788876	0.338694	-0.432521
H129	H	1.282691	-0.606210	-0.369908
H130	H	1.782691	-0.106210	0.130092
H131	H	1.282890	-1.007061	-0.370013
H132	H	1.782890	-0.507061	0.129987
C133	C	1.097158	-0.426526	-0.984478
C134	C	1.597158	0.073474	-0.484478
C135	C	1.104342	-0.421388	-1.070385
C136	C	1.604342	0.078612	-0.570385
C137	C	1.049072	-0.461028	-1.111392
C138	C	1.549072	0.038972	-0.611392
H139	H	1.041954	-0.414607	-0.967555
H140	H	1.541954	0.085393	-0.467555
H141	H	1.110007	-0.468826	-0.970952
H142	H	1.610007	0.031174	-0.470952
H143	H	1.091487	-0.379098	-1.083905
H144	H	1.591487	0.120902	-0.583905
H145	H	1.159534	-0.433312	-1.087332
H146	H	1.659534	0.066688	-0.587332
H147	H	1.061922	-0.503328	-1.097866
H148	H	1.561922	-0.003328	-0.597866
H149	H	0.993872	-0.449106	-1.094463
H150	H	1.493872	0.050894	-0.594463
H151	H	1.053945	-0.457551	-1.169684
H152	H	1.553945	0.042449	-0.669684
C153	C	1.064758	-0.596374	-0.566596
C154	C	1.564758	-0.096374	-0.066596
C155	C	1.076705	-0.531808	-0.555798
C156	C	1.576705	-0.031808	-0.055798
C157	C	1.020881	-0.498605	-0.606202
C158	C	1.520881	0.001395	-0.106202
H159	H	1.009481	-0.604424	-0.551602
H160	H	1.509481	-0.104424	-0.051602
H161	H	1.074075	-0.609592	-0.623115
H162	H	1.574075	-0.109592	-0.123115
H163	H	1.067380	-0.518594	-0.499292
H164	H	1.567380	-0.018594	0.000708
H165	H	1.131970	-0.523739	-0.570798
H166	H	1.631970	-0.023739	-0.070798
H167	H	1.030198	-0.511823	-0.662721
H168	H	1.530198	-0.011823	-0.162721
H169	H	0.965607	-0.506660	-0.591203
H170	H	1.465607	-0.006660	-0.091203
H171	H	1.028984	-0.454794	-0.598888
H172	H	1.528984	0.045206	-0.098888
C173	C	0.704395	-0.433189	-0.545559
C174	C	1.204395	0.066811	-0.045559
C175	C	0.790300	-0.427518	-0.538394
C176	C	1.290300	0.072482	-0.038394
C177	C	0.831328	-0.471457	-0.593532
C178	C	1.331328	0.028543	-0.093532
H179	H	0.687511	-0.425555	-0.600793
H180	H	1.187511	0.074445	-0.100793
H181	H	0.690848	-0.474481	-0.532574
H182	H	1.190848	0.025519	-0.032574
H183	H	0.803842	-0.386235	-0.551385
H184	H	1.303842	0.113765	-0.051385
H185	H	0.807209	-0.435158	-0.483172
H186	H	1.307209	0.064842	0.016828
H187	H	0.817781	-0.512749	-0.580548
H188	H	1.317781	-0.012749	-0.080548
H189	H	0.814437	-0.463819	-0.648764
H190	H	1.314437	0.036181	-0.148764
H191	H	0.889619	-0.467618	-0.588674
H192	H	1.389619	0.032382	-0.088674
C193	C	0.659136	-0.299342	-0.377361
C194	C	1.159136	0.200658	0.122639
C195	C	0.573234	-0.305040	-0.384500
C196	C	1.073234	0.194960	0.115500
C197	C	0.532203	-0.261160	-0.329285
C198	C	1.032203	0.238840	0.170715
H199	H	0.672630	-0.258030	-0.390272
H200	H	1.172630	0.241970	0.109728
H201	H	0.676072	-0.307031	-0.322146
H202	H	1.176072	0.192969	0.177854
H203	H	0.556305	-0.297346	-0.439703
H204	H	1.056305	0.202654	0.060297
H205	H	0.559716	-0.346342	-0.371582
H206	H	1.059716	0.153658	0.128418
H207	H	0.549139	-0.268849	-0.274070
H208	H	1.049139	0.231151	0.225930
H209	H	0.545703	-0.219852	-0.342201
H210	H	1.045703	0.280148	0.157799
H211	H	0.473915	-0.265024	-0.334116
H212	H	0.973915	0.234976	0.165884
C213	C	1.064764	-0.733716	-0.566564
C214	C	1.564764	-0.233716	-0.066564
C215	C	1.076742	-0.798369	-0.555767
C216	C	1.576742	-0.298369	-0.055767
C217	C	1.020883	-0.831162	-0.606116
C218	C	1.520883	-0.331162	-0.106116
H219	H	1.074009	-0.725501	-0.623089
H220	H	1.574009	-0.225501	-0.123089
H221	H	1.009496	-0.720326	-0.551503
H222	H	1.509496	-0.220326	-0.051503
H223	H	1.131997	-0.811755	-0.570833
H224	H	1.631997	-0.311755	-0.070833
H225	H	1.067490	-0.806604	-0.499252
H226	H	1.567490	-0.306604	0.000748
H227	H	0.965615	-0.817772	-0.591055
H228	H	1.465615	-0.317772	-0.091055
H229	H	1.030133	-0.822942	-0.662638
H230	H	1.530133	-0.322942	-0.162638
H231	H	1.028997	-0.875032	-0.598792
H232	H	1.528997	-0.375032	-0.098792
C233	C	1.298168	-1.135196	-0.356277
C234	C	1.798168	-0.635196	0.143723
C235	C	1.347086	-1.092515	-0.312073
C236	C	1.847086	-0.592515	0.187927
C237	C	1.403049	-1.125464	-0.261534
C238	C	1.903049	-0.625464	0.238466
H239	H	1.332862	-1.163417	-0.389868
H240	H	1.832862	-0.663417	0.110132
H241	H	1.268247	-1.158273	-0.318373
H242	H	1.768247	-0.658273	0.181627
H243	H	1.377004	-1.069449	-0.349972
H244	H	1.877004	-0.569449	0.150028
H245	H	1.312415	-1.064293	-0.278466
H246	H	1.812415	-0.564293	0.221534
H247	H	1.373128	-1.148541	-0.223631
H248	H	1.873128	-0.648541	0.276369
H249	H	1.437737	-1.153684	-0.295132
H250	H	1.937737	-0.653684	0.204868
H251	H	1.436241	-1.096510	-0.231531
H252	H	1.936241	-0.596510	0.268469
C253	C	1.064960	-1.134566	-0.566674
C254	C	1.564960	-0.634566	-0.066674
C255	C	1.076942	-1.199219	-0.555884
C256	C	1.576942	-0.699219	-0.055884
C257	C	1.021088	-1.232012	-0.606239
C258	C	1.521088	-0.732012	-0.106239
H259	H	1.074206	-1.126346	-0.623198
H260	H	1.574206	-0.626346	-0.123198
H261	H	1.009691	-1.121179	-0.551614
H262	H	1.509691	-0.621179	-0.051614
H263	H	1.132198	-1.212602	-0.570950
H264	H	1.632198	-0.712602	-0.070950
H265	H	1.067689	-1.207458	-0.499371
H266	H	1.567689	-0.707458	0.000629
H267	H	0.965818	-1.218625	-0.591179
H268	H	1.465818	-0.718625	-0.091179
H269	H	1.030339	-1.223787	-0.662760
H270	H	1.530339	-0.723787	-0.162760
H271	H	1.029205	-1.275882	-0.598919
H272	H	1.529205	-0.775882	-0.098919
C273	C	1.064761	-0.997447	-0.566742
C274	C	1.564761	-0.497447	-0.066742
C275	C	1.015805	-1.040126	-0.610905
C276	C	1.515805	-0.540126	-0.110905
C277	C	0.959769	-1.007170	-0.661362
C278	C	1.459769	-0.507170	-0.161362
H279	H	1.094600	-0.974354	-0.604676
H280	H	1.594600	-0.474354	-0.104676
H281	H	1.030105	-0.969240	-0.533072
H282	H	1.530105	-0.469240	-0.033072
H283	H	1.050456	-1.068322	-0.644572
H284	H	1.550456	-0.568322	-0.144572
H285	H	0.985949	-1.063221	-0.572992
H286	H	1.485949	-0.563221	-0.072992
H287	H	0.925114	-0.978963	-0.627692
H288	H	1.425114	-0.478963	-0.127692
H289	H	0.989615	-0.984077	-0.699290
H290	H	1.489615	-0.484077	-0.199290
H291	H	0.926541	-1.036121	-0.691326
H292	H	1.426541	-0.536121	-0.191326
