data_functionalizedCrystal
_audit_creation_method	'MofGen! by Chris Wilmer'
_symmetry_space_group_name_H-M	'P1'
_symmetry_Int_Tables_number	1
_symmetry_cell_setting	triclinic
loop_
_symmetry_equiv_pos_as_xyz
  x,y,z
_cell_length_a	17.077404
_cell_length_b	12.759394
_cell_length_c	17.077396
_cell_angle_alpha	89.973775
_cell_angle_beta	89.984079
_cell_angle_gamma	90.011826
loop_
_atom_site_label
_atom_site_type_symbol
_atom_site_fract_x
_atom_site_fract_y
_atom_site_fract_z
Zn1	Zn	1.200085	-0.418307	-0.443840
Zn2	Zn	1.200018	-0.594012	-0.312583
Zn3	Zn	1.068822	-0.418342	-0.312590
Zn4	Zn	1.068805	-0.593938	-0.443809
O5	O	1.134433	-0.506150	-0.378206
O6	O	1.309923	-0.441631	-0.426438
O7	O	1.182594	-0.570755	-0.202737
O8	O	1.086270	-0.271316	-0.330017
O9	O	1.309874	-0.570721	-0.330004
O10	O	1.182708	-0.271290	-0.426446
O11	O	1.086205	-0.441690	-0.202742
O12	O	0.958973	-0.441618	-0.329987
O13	O	1.086241	-0.570595	-0.553660
O14	O	0.958961	-0.570628	-0.426393
O15	O	1.182691	-0.441559	-0.553683
O16	O	1.182578	-0.741024	-0.329974
O17	O	1.086176	-0.740969	-0.426385
C18	C	0.930485	-0.506120	-0.378188
C19	C	0.843235	-0.506132	-0.378199
C20	C	0.802271	-0.439035	-0.428489
C21	C	0.720291	-0.439042	-0.428493
C22	C	0.679276	-0.506152	-0.378210
C23	C	0.720245	-0.573253	-0.327914
C24	C	0.802224	-0.573240	-0.327907
C25	C	0.549375	-0.573277	-0.327934
C26	C	0.467391	-0.573291	-0.327942
C27	C	0.467442	-0.439078	-0.428519
C28	C	0.549421	-0.439065	-0.428512
C29	C	0.590385	-0.506168	-0.378217
C30	C	1.134389	-0.779117	-0.378193
C31	C	1.134442	-0.895894	-0.378213
C32	C	1.234788	-0.895709	-0.478699
C33	C	1.284986	-0.950477	-0.528948
C34	C	1.285032	-1.060199	-0.528965
C35	C	1.234874	-1.115155	-0.478730
C36	C	1.184677	-1.060386	-0.428481
C37	C	1.184637	-0.950662	-0.428467
C38	C	1.084328	-1.060571	-0.328000
C39	C	1.084284	-0.950850	-0.327977
C40	C	1.034170	-1.115527	-0.277764
C41	C	0.983975	-1.060759	-0.227510
C42	C	0.983931	-0.951030	-0.227494
C43	C	1.034087	-0.896081	-0.277728
C44	C	1.339177	-0.506180	-0.378224
C45	C	1.426427	-0.506193	-0.378231
C46	C	1.134472	-0.506065	-0.582950
C47	C	1.134488	-0.506028	-0.670200
C48	C	1.134498	-0.232116	-0.378236
C49	C	1.134526	-0.115340	-0.378249
C50	C	1.184749	-0.573110	-1.046014
C51	C	1.184729	-0.573141	-0.964033
C52	C	1.134539	-0.505954	-0.923049
C53	C	1.084359	-0.438740	-0.964049
C54	C	1.084375	-0.438716	-1.046028
C55	C	1.084329	-0.438795	-0.793179
C56	C	1.084314	-0.438817	-0.711194
C57	C	1.184684	-0.573219	-0.711184
C58	C	1.184700	-0.573195	-0.793163
C59	C	1.134521	-0.505979	-0.834158
C60	C	1.134439	-0.506159	-0.174258
C61	C	1.134575	-0.505899	-0.087008
H62	H	0.686942	-0.384406	-0.469445
O63	O	0.680370	-0.638556	-0.279181
C64	C	0.587765	-0.780358	-0.268450
C65	C	0.632887	-0.706481	-0.323728
H66	H	0.549351	-0.835279	-0.304443
H67	H	0.631091	-0.828390	-0.232517
H68	H	0.549406	-0.732039	-0.227455
H69	H	0.671247	-0.754719	-0.364770
H70	H	0.589518	-0.658446	-0.359606
H71	H	0.582813	-0.384424	-0.469461
H72	H	1.034059	-0.806740	-0.277717
H73	H	1.225624	-0.627816	-1.079377
O74	O	0.935330	-1.114303	-0.178742
C75	C	0.890886	-1.283423	-0.134279
C76	C	0.946029	-1.222911	-0.189536
H77	H	0.899506	-1.371243	-0.142999
H78	H	0.904699	-1.261980	-0.070972
H79	H	0.827584	-1.261833	-0.147998
H80	H	1.009351	-1.244468	-0.175888
H81	H	0.932150	-1.244360	-0.252827
H82	H	1.225577	-0.627883	-0.930659
H83	H	0.835576	-0.627877	-0.286955
O84	O	0.935141	-0.897994	-0.178609
C85	C	0.835568	-0.909771	-0.078987
C86	C	0.890798	-0.969959	-0.134295
H87	H	0.799691	-0.967929	-0.043156
H88	H	0.871565	-0.858431	-0.037906
H89	H	0.794519	-0.858383	-0.115001
H90	H	0.931858	-1.021404	-0.098344
H91	H	0.854753	-1.021233	-0.175378
O92	O	1.233480	-0.638556	-0.832856
C93	C	1.333064	-0.771824	-0.824199
C94	C	1.277849	-0.697872	-0.779150
H95	H	1.368962	-0.819785	-0.780798
H96	H	1.297053	-0.826809	-0.862546
H97	H	1.374093	-0.723566	-0.862613
H98	H	1.236809	-0.746046	-0.740694
H99	H	1.313909	-0.642885	-0.740853
H100	H	1.234763	-0.806368	-0.478683
O101	O	0.427630	-0.638621	-0.279134
C102	C	0.402469	-0.817269	-0.240826
C103	C	0.447561	-0.743402	-0.296136
H104	H	0.418554	-0.902000	-0.254563
H105	H	0.418573	-0.798790	-0.177538
H106	H	0.336845	-0.805693	-0.249466
H107	H	0.513195	-0.754936	-0.287566
H108	H	0.431392	-0.761898	-0.359403
H109	H	1.225541	-0.627949	-0.677802
O110	O	1.035475	-0.373534	-0.671502
C111	C	0.935933	-0.240211	-0.680158
C112	C	0.991194	-0.314102	-0.725207
H113	H	0.900129	-0.192125	-0.723559
H114	H	0.894825	-0.288418	-0.641790
H115	H	0.971982	-0.185332	-0.641765
H116	H	0.955208	-0.368995	-0.763642
H117	H	1.032304	-0.265829	-0.763525
H118	H	0.582726	-0.627916	-0.286976
O119	O	0.427569	-0.374036	-0.477414
C120	C	0.335093	-0.360101	-0.583456
C121	C	0.380188	-0.433869	-0.528118
H122	H	0.296786	-0.408447	-0.624475
H123	H	0.296652	-0.305120	-0.547538
H124	H	0.378506	-0.312117	-0.619359
H125	H	0.336831	-0.481920	-0.492202
H126	H	0.418641	-0.488780	-0.564081
O127	O	1.333683	-0.896931	-0.577670
C128	C	1.378060	-0.727817	-0.622213
C129	C	1.322886	-0.788321	-0.566982
H130	H	1.369338	-0.639995	-0.613603
H131	H	1.441389	-0.749262	-0.608479
H132	H	1.364261	-0.749412	-0.685492
H133	H	1.336615	-0.766759	-0.503684
H134	H	1.259574	-0.766871	-0.580783
H135	H	1.234910	-1.204496	-0.478755
O136	O	1.333859	-1.113244	-0.577809
C137	C	1.433338	-1.101494	-0.677527
C138	C	1.378101	-1.041291	-0.622235
H139	H	1.469110	-1.043346	-0.713472
H140	H	1.474478	-1.152831	-0.641573
H141	H	1.397273	-1.152887	-0.718509
H142	H	1.414103	-0.989841	-0.581242
H143	H	1.336959	-0.990020	-0.658237
H144	H	1.034209	-1.204868	-0.277784
H145	H	1.043519	-0.383985	-1.079405
O146	O	1.035504	-0.373650	-0.833038
C147	C	0.929582	-0.359452	-0.925629
C148	C	0.984808	-0.433349	-0.880523
H149	H	0.888591	-0.407687	-0.964044
H150	H	0.893651	-0.311449	-0.882293
H151	H	0.965666	-0.304495	-0.963986
H152	H	0.948785	-0.488369	-0.842165
H153	H	1.020742	-0.481278	-0.923902
O154	O	0.842231	-0.373941	-0.477310
C155	C	0.968542	-0.314389	-0.521841
C156	C	0.923389	-0.388182	-0.466526
H157	H	1.034166	-0.325861	-0.513130
H158	H	0.952503	-0.332946	-0.585132
H159	H	0.952377	-0.229665	-0.508172
H160	H	0.939531	-0.472931	-0.480124
H161	H	0.939432	-0.369535	-0.403251
H162	H	1.043489	-0.384041	-0.930673
