data_functionalizedCrystal
_audit_creation_method	'MofGen! by Chris Wilmer'
_symmetry_space_group_name_H-M	'P1'
_symmetry_Int_Tables_number	1
_symmetry_cell_setting	triclinic
loop_
_symmetry_equiv_pos_as_xyz
  x,y,z
_cell_length_a	13.897441
_cell_length_b	18.215407
_cell_length_c	18.215405
_cell_angle_alpha	89.974667
_cell_angle_beta	89.965178
_cell_angle_gamma	90.022034
loop_
_atom_site_label
_atom_site_type_symbol
_atom_site_fract_x
_atom_site_fract_y
_atom_site_fract_z
Zn1	Zn	-0.545386	-1.125088	-0.292952
Zn2	Zn	-0.295386	-0.875088	-0.042952
Zn3	Zn	-0.045386	-0.625088	0.207048
Zn4	Zn	0.204614	-0.375088	0.457048
Zn5	Zn	-0.384076	-1.124992	-0.416032
Zn6	Zn	-0.134076	-0.874992	-0.166032
Zn7	Zn	0.115924	-0.624992	0.083968
Zn8	Zn	0.365924	-0.374992	0.333968
Zn9	Zn	-0.384101	-1.002016	-0.292985
Zn10	Zn	-0.134101	-0.752016	-0.042985
Zn11	Zn	0.115899	-0.502016	0.207015
Zn12	Zn	0.365899	-0.252016	0.457015
Zn13	Zn	-0.545325	-1.001986	-0.415982
Zn14	Zn	-0.295325	-0.751986	-0.165982
Zn15	Zn	-0.045325	-0.501986	0.084018
Zn16	Zn	0.204675	-0.251986	0.334018
O17	O	-0.464722	-1.063520	-0.354488
O18	O	-0.214722	-0.813520	-0.104488
O19	O	0.035278	-0.563520	0.145512
O20	O	0.285278	-0.313520	0.395512
O21	O	-0.524003	-1.228059	-0.309286
O22	O	-0.274003	-0.978059	-0.059286
O23	O	-0.024003	-0.728059	0.190714
O24	O	0.225997	-0.478059	0.440714
O25	O	-0.249097	-1.108651	-0.399745
O26	O	0.000903	-0.858651	-0.149745
O27	O	0.250903	-0.608651	0.100255
O28	O	0.500903	-0.358651	0.350255
O29	O	-0.405532	-1.018394	-0.189997
O30	O	-0.155532	-0.768394	0.060003
O31	O	0.094468	-0.518394	0.310003
O32	O	0.344468	-0.268394	0.560003
O33	O	-0.405489	-1.227989	-0.399713
O34	O	-0.155489	-0.977989	-0.149713
O35	O	0.094511	-0.727989	0.100287
O36	O	0.344511	-0.477989	0.350287
O37	O	-0.524028	-1.108815	-0.189972
O38	O	-0.274028	-0.858815	0.060028
O39	O	-0.024028	-0.608815	0.310028
O40	O	0.225972	-0.358815	0.560028
O41	O	-0.249116	-1.018301	-0.309343
O42	O	0.000884	-0.768301	-0.059343
O43	O	0.250884	-0.518301	0.190657
O44	O	0.500884	-0.268301	0.440657
O45	O	-0.405472	-0.899028	-0.309294
O46	O	-0.155472	-0.649028	-0.059294
O47	O	0.094528	-0.399028	0.190706
O48	O	0.344528	-0.149028	0.440706
O49	O	-0.680315	-1.018344	-0.399627
O50	O	-0.430315	-0.768344	-0.149627
O51	O	-0.180315	-0.518344	0.100373
O52	O	0.069685	-0.268344	0.350373
O53	O	-0.523923	-0.899006	-0.399659
O54	O	-0.273923	-0.649006	-0.149659
O55	O	-0.023923	-0.399006	0.100341
O56	O	0.226077	-0.149006	0.350341
O57	O	-0.680360	-1.108786	-0.309237
O58	O	-0.430360	-0.858786	-0.059237
O59	O	-0.180360	-0.608786	0.190763
O60	O	0.069640	-0.358786	0.440763
O61	O	-0.405430	-1.108622	-0.519010
O62	O	-0.155430	-0.858622	-0.269010
O63	O	0.094570	-0.608622	-0.019010
O64	O	0.344570	-0.358622	0.230990
O65	O	-0.523898	-1.018251	-0.518973
O66	O	-0.273898	-0.768251	-0.268973
O67	O	-0.023898	-0.518251	-0.018973
O68	O	0.226102	-0.268251	0.231027
C69	C	-0.464694	-0.872314	-0.354475
C70	C	-0.214694	-0.622314	-0.104475
C71	C	0.035306	-0.372314	0.145525
C72	C	0.285306	-0.122314	0.395525
C73	C	-0.464705	-0.790515	-0.354488
C74	C	-0.214705	-0.540515	-0.104488
C75	C	0.035295	-0.290515	0.145512
C76	C	0.285295	-0.040515	0.395512
C77	C	-0.716315	-1.063573	-0.354423
C78	C	-0.466315	-0.813573	-0.104423
C79	C	-0.216315	-0.563573	0.145577
C80	C	0.033685	-0.313573	0.395577
C81	C	-0.823529	-1.063595	-0.354395
C82	C	-0.573529	-0.813595	-0.104395
C83	C	-0.323529	-0.563595	0.145605
C84	C	-0.073529	-0.313595	0.395605
C85	C	-0.464676	-1.063443	-0.545694
C86	C	-0.214676	-0.813443	-0.295694
C87	C	0.035324	-0.563443	-0.045694
C88	C	0.285324	-0.313443	0.204306
C89	C	-0.464688	-1.063477	-0.627493
C90	C	-0.214688	-0.813477	-0.377493
C91	C	0.035312	-0.563477	-0.127493
C92	C	0.285312	-0.313477	0.122507
C93	C	-1.019824	-1.063615	-0.354345
C94	C	-0.769824	-0.813615	-0.104345
C95	C	-0.519824	-0.563615	0.145655
C96	C	-0.269824	-0.313615	0.395655
C97	C	-0.910592	-1.063602	-0.354375
C98	C	-0.660592	-0.813602	-0.104375
C99	C	-0.410592	-0.563602	0.145625
C100	C	-0.160592	-0.313602	0.395625
C101	C	-0.214108	-1.063511	-0.354500
C102	C	0.035892	-0.813511	-0.104500
C103	C	0.285892	-0.563511	0.145500
C104	C	0.535892	-0.313511	0.395500
C105	C	-0.106894	-1.063631	-0.354320
C106	C	0.143106	-0.813631	-0.104320
C107	C	0.393106	-0.563631	0.145680
C108	C	0.643106	-0.313631	0.395680
C109	C	-0.464750	-1.255473	-0.354501
C110	C	-0.214750	-1.005473	-0.104501
C111	C	0.035250	-0.755473	0.145499
C112	C	0.285250	-0.505473	0.395499
C113	C	-0.464762	-1.337272	-0.354507
C114	C	-0.214762	-1.087272	-0.104507
C115	C	0.035238	-0.837272	0.145493
C116	C	0.285238	-0.587272	0.395493
C117	C	-0.526305	-0.602329	-0.401615
C118	C	-0.276305	-0.352329	-0.151615
C119	C	-0.026305	-0.102329	0.098385
C120	C	0.223695	0.147671	0.348385
C121	C	-0.526317	-0.525471	-0.401617
C122	C	-0.276317	-0.275471	-0.151617
C123	C	-0.026317	-0.025471	0.098383
C124	C	0.223683	0.224529	0.348383
C125	C	-0.403160	-0.525464	-0.307374
C126	C	-0.153160	-0.275464	-0.057374
C127	C	0.096840	-0.025464	0.192626
C128	C	0.346840	0.224536	0.442626
C129	C	-0.403154	-0.602321	-0.307369
C130	C	-0.153154	-0.352321	-0.057369
C131	C	0.096846	-0.102321	0.192631
C132	C	0.346846	0.147679	0.442631
C133	C	-0.464725	-0.640752	-0.354493
C134	C	-0.214725	-0.390752	-0.104493
C135	C	0.035275	-0.140752	0.145507
C136	C	0.285275	0.109248	0.395507
C137	C	-0.464743	-0.487036	-0.354501
C138	C	-0.214743	-0.237036	-0.104501
C139	C	0.035257	0.012964	0.145499
C140	C	0.285257	0.262964	0.395499
C141	C	-0.464756	-0.403702	-0.354503
C142	C	-0.214756	-0.153702	-0.104503
C143	C	0.035244	0.096298	0.145497
C144	C	0.285244	0.346298	0.395497
C145	C	-0.464714	-0.724091	-0.354490
C146	C	-0.214714	-0.474091	-0.104490
C147	C	0.035286	-0.224091	0.145510
C148	C	0.285286	0.025909	0.395510
C149	C	-0.403115	-1.110644	-0.815682
C150	C	-0.153115	-0.860644	-0.565682
C151	C	0.096885	-0.610644	-0.315682
C152	C	0.346885	-0.360644	-0.065682
C153	C	-0.403138	-1.110677	-0.892541
C154	C	-0.153138	-0.860677	-0.642541
C155	C	0.096862	-0.610677	-0.392541
C156	C	0.346862	-0.360677	-0.142541
C157	C	-0.526399	-1.016491	-0.892542
C158	C	-0.276399	-0.766491	-0.642542
C159	C	-0.026399	-0.516491	-0.392542
C160	C	0.223601	-0.266491	-0.142542
C161	C	-0.526379	-1.016463	-0.815685
C162	C	-0.276379	-0.766463	-0.565685
C163	C	-0.026379	-0.516463	-0.315685
C164	C	0.223621	-0.266463	-0.065685
C165	C	-0.464732	-1.063538	-0.777257
C166	C	-0.214732	-0.813538	-0.527257
C167	C	0.035268	-0.563538	-0.277257
C168	C	0.285268	-0.313538	-0.027257
C169	C	-0.464775	-1.063599	-0.930973
C170	C	-0.214775	-0.813599	-0.680973
C171	C	0.035225	-0.563599	-0.430973
C172	C	0.285225	-0.313599	-0.180973
C173	C	-0.464800	-1.063635	-1.014306
C174	C	-0.214800	-0.813635	-0.764306
C175	C	0.035200	-0.563635	-0.514306
C176	C	0.285200	-0.313635	-0.264306
C177	C	-0.464707	-1.063504	-0.693918
C178	C	-0.214707	-0.813504	-0.443918
C179	C	0.035293	-0.563504	-0.193918
C180	C	0.285293	-0.313504	0.056082
C181	C	-0.464790	-1.063619	-0.162535
C182	C	-0.214790	-0.813619	0.087465
C183	C	0.035210	-0.563619	0.337465
C184	C	0.285210	-0.313619	0.587465
C185	C	-0.464819	-1.063660	-0.080736
C186	C	-0.214819	-0.813660	0.169264
C187	C	0.035181	-0.563660	0.419264
C188	C	0.285181	-0.313660	0.669264
H189	H	-0.576463	-0.494190	-0.439987
H190	H	-0.326463	-0.244190	-0.189987
H191	H	-0.076463	0.005810	0.060013
H192	H	0.173537	0.255810	0.310013
O193	O	-0.592846	-0.965652	-0.774238
O194	O	-0.342846	-0.715652	-0.524238
O195	O	-0.092846	-0.465652	-0.274238
O196	O	0.157154	-0.215652	-0.024238
H197	H	-0.582483	-0.973549	-0.714339
H198	H	-0.332483	-0.723549	-0.464339
H199	H	-0.082483	-0.473549	-0.214339
H200	H	0.167517	-0.223549	0.035661
O201	O	-0.336730	-0.643765	-0.256539
O202	O	-0.086730	-0.393765	-0.006539
O203	O	0.163270	-0.143765	0.243461
O204	O	0.413270	0.106235	0.493461
H205	H	-0.347080	-0.703665	-0.264447
H206	H	-0.097080	-0.453665	-0.014447
H207	H	0.152920	-0.203665	0.235553
H208	H	0.402920	0.046335	0.485553
O209	O	-0.592721	-0.643784	-0.452430
O210	O	-0.342721	-0.393784	-0.202430
O211	O	-0.092721	-0.143784	0.047570
O212	O	0.157279	0.106216	0.297570
H213	H	-0.635552	-0.604150	-0.485191
H214	H	-0.385552	-0.354150	-0.235191
H215	H	-0.135552	-0.104150	0.014809
H216	H	0.114448	0.145850	0.264809
H217	H	-0.353030	-0.494164	-0.269008
H218	H	-0.103030	-0.244164	-0.019008
H219	H	0.146970	0.005836	0.230992
H220	H	0.396970	0.255836	0.480992
H221	H	-0.352919	-1.148976	-0.784395
H222	H	-0.102919	-0.898976	-0.534395
H223	H	0.147081	-0.648976	-0.284395
H224	H	0.397081	-0.398976	-0.034395
H225	H	-0.352965	-1.149036	-0.923823
H226	H	-0.102965	-0.899036	-0.673823
H227	H	0.147035	-0.649036	-0.423823
H228	H	0.397035	-0.399036	-0.173823
O229	O	-0.592870	-0.965704	-0.933988
O230	O	-0.342870	-0.715704	-0.683988
O231	O	-0.092870	-0.465704	-0.433988
O232	O	0.157130	-0.215704	-0.183988
H233	H	-0.582522	-0.973628	-0.993888
H234	H	-0.332522	-0.723628	-0.743888
H235	H	-0.082522	-0.473628	-0.493888
H236	H	0.167478	-0.223628	-0.243888
