data_functionalizedCrystal
_audit_creation_method	'MofGen! by Chris Wilmer'
_symmetry_space_group_name_H-M	'P1'
_symmetry_Int_Tables_number	1
_symmetry_cell_setting	triclinic
loop_
_symmetry_equiv_pos_as_xyz
  x,y,z
_cell_length_a	9.016244
_cell_length_b	14.519709
_cell_length_c	10.540539
_cell_angle_alpha	84.102818
_cell_angle_beta	89.999933
_cell_angle_gamma	89.998272
loop_
_atom_site_label
_atom_site_type_symbol
_atom_site_fract_x
_atom_site_fract_y
_atom_site_fract_z
O1	O	0.123140	-1.224768	-0.166392
O2	O	0.123184	-0.956397	-0.185988
O3	O	0.123159	-1.096705	0.008579
O4	O	0.123165	-1.084460	-0.360959
O5	O	-0.123522	-1.096685	0.008574
O6	O	-0.123496	-0.956376	-0.185992
O7	O	-0.123541	-1.224748	-0.166397
Cu8	Cu	-0.146043	-1.090560	-0.176195
Cu9	Cu	0.145686	-1.090584	-0.176190
O10	O	-0.123516	-1.084439	-0.360964
C11	C	-0.000150	-0.922022	-0.185077
C12	C	-0.000133	-0.819626	-0.182340
N13	N	-0.351229	-1.090550	-0.176198
C14	C	-0.000178	-1.095777	0.055870
C15	C	-0.000170	-1.093029	0.196790
C16	C	-0.586248	-1.015263	-0.279934
C17	C	-0.414357	-1.015430	-0.280318
C18	C	-0.413583	-1.186970	-0.205347
C19	C	-0.585528	-1.186559	-0.206081
C20	C	-0.585770	-1.070372	-0.042965
C21	C	-0.413816	-1.068160	-0.043853
N22	N	0.350872	-1.090602	-0.176177
C23	C	-0.000203	-1.259123	-0.167308
C24	C	-0.000210	-1.361519	-0.170044
C25	C	-0.000201	-0.444676	-0.172266
C26	C	-0.000181	-0.548999	-0.175063
C27	C	-0.000165	-0.632148	-0.177303
C28	C	-0.000149	-0.736477	-0.180101
C29	C	-0.000175	-1.085368	-0.408255
C30	C	-0.000174	-1.088115	-0.549175
C31	C	0.000401	-0.987750	0.379142
C32	C	-0.000154	-0.990535	0.232553
C33	C	-0.141045	-1.142342	0.258949
C34	C	-0.141163	-1.138844	0.405458
C35	C	0.139359	-1.140952	0.406002
C36	C	0.141221	-1.141896	0.259030
H37	H	-0.372201	-0.943787	-0.262918
N38	N	0.152474	-1.240883	0.227968
H39	H	0.151212	-1.283912	0.309584
H40	H	0.248051	-1.249458	0.180613
N41	N	-0.641059	-0.920062	-0.257274
H42	H	-0.707188	-0.924842	-0.179533
H43	H	-0.699013	-0.892759	-0.334102
H44	H	-0.629442	-1.028098	-0.378227
H45	H	-0.245868	-1.108070	0.215998
N46	N	-0.359837	-1.032408	-0.411347
H47	H	-0.447501	-1.039845	-0.469070
H48	H	-0.297701	-1.090577	-0.404975
H49	H	-0.626432	-1.125303	0.034250
N50	N	0.279265	-1.094167	0.204308
H51	H	0.341818	-1.139801	0.161686
H52	H	0.338002	-1.069604	0.275152
H53	H	-0.625618	-1.204252	-0.303237
H54	H	0.101426	-0.947271	0.407331
N55	N	-0.640638	-1.263076	-0.109763
H56	H	-0.553232	-1.296930	-0.067025
H57	H	-0.702736	-1.307811	-0.154441
H58	H	-0.373062	-0.997228	-0.021736
N59	N	0.140608	-1.239015	0.469551
H60	H	0.051280	-1.249207	0.527100
H61	H	0.234119	-1.249696	0.521745
H62	H	-0.629207	-1.001548	-0.014989
H63	H	-0.370507	-1.205058	-0.301400
N64	N	-0.359433	-1.263052	-0.107925
H65	H	-0.293800	-1.235682	-0.043805
H66	H	-0.301115	-1.309766	-0.152258
H67	H	-0.370849	-1.119397	0.036991
N68	N	0.280795	-1.097029	0.447353
H69	H	0.285461	-1.030488	0.408739
H70	H	0.368830	-1.132073	0.417603
H71	H	0.100831	-0.951732	0.189555
N72	N	-0.280628	-1.090537	0.442314
H73	H	-0.253319	-1.033619	0.484788
H74	H	-0.340498	-1.133976	0.503373
N75	N	-0.148022	-1.242040	0.230345
H76	H	-0.239442	-1.272378	0.271220
H77	H	-0.056717	-1.275894	0.265624
N78	N	-0.132646	-0.934319	0.418595
H79	H	-0.193290	-0.974844	0.482700
H80	H	-0.195431	-0.914714	0.341155
N81	N	-0.134130	-0.938765	0.176693
H82	H	-0.129787	-0.872356	0.197085
H83	H	-0.227256	-0.968968	0.214471
H84	H	-0.147566	-1.212556	0.454179
