data_functionalizedCrystal
_audit_creation_method	'MofGen! by Chris Wilmer'
_symmetry_space_group_name_H-M	'P1'
_symmetry_Int_Tables_number	1
_symmetry_cell_setting	triclinic
loop_
_symmetry_equiv_pos_as_xyz
  x,y,z
_cell_length_a	19.188905
_cell_length_b	19.188930
_cell_length_c	17.666332
_cell_angle_alpha	90.006765
_cell_angle_beta	90.013693
_cell_angle_gamma	83.139668
loop_
_atom_site_label
_atom_site_type_symbol
_atom_site_fract_x
_atom_site_fract_y
_atom_site_fract_z
O1	O	0.926158	0.087081	0.063081
O2	O	1.426158	0.587081	0.563081
O3	O	0.722845	0.098833	0.063057
O4	O	1.222845	0.598833	0.563057
O5	O	0.830369	-0.008699	0.063055
O6	O	1.330369	0.491301	0.563055
O7	O	0.818634	0.194613	0.063083
O8	O	1.318634	0.694613	0.563083
O9	O	0.830355	-0.008695	-0.062842
O10	O	1.330355	0.491305	0.437158
O11	O	0.722830	0.098837	-0.062840
O12	O	1.222830	0.598837	0.437160
O13	O	0.926144	0.087085	-0.062815
O14	O	1.426144	0.587085	0.437185
Cu15	Cu	0.824486	0.092961	-0.074323
Cu16	Cu	1.324486	0.592961	0.425677
Cu17	Cu	0.824503	0.092957	0.074565
Cu18	Cu	1.324503	0.592957	0.574565
O19	O	0.818620	0.194617	-0.062814
O20	O	1.318620	0.694617	0.437186
C21	C	0.696826	0.098458	0.000105
C22	C	1.196826	0.598458	0.500105
C23	C	0.619321	0.097324	0.000095
C24	C	1.119321	0.597324	0.500095
C25	C	0.829982	-0.034708	0.000104
C26	C	1.329982	0.465292	0.500104
C27	C	0.828841	-0.112213	0.000098
C28	C	1.328841	0.387787	0.500098
C29	C	0.582937	0.096777	0.068723
C30	C	1.082937	0.596777	0.568723
C31	C	0.510113	0.095704	0.068732
C32	C	1.010113	0.595704	0.568732
C33	C	0.473678	0.095164	0.000110
C34	C	0.973678	0.595164	0.500110
C35	C	0.510070	0.095714	-0.068528
C36	C	1.010070	0.595714	0.431472
C37	C	0.582892	0.096794	-0.068535
C38	C	1.082892	0.596794	0.431465
N39	N	0.364652	0.053737	-0.050966
N40	N	0.864652	0.553737	0.449034
N41	N	0.295475	0.052709	-0.050954
N42	N	0.795475	0.552709	0.449046
C43	C	0.254272	0.091911	0.000127
C44	C	0.754272	0.591911	0.500127
N45	N	0.284859	0.132171	0.051208
N46	N	0.784859	0.632171	0.551208
N47	N	0.354043	0.133195	0.051199
N48	N	0.854043	0.633195	0.551199
C49	C	0.394716	0.093993	0.000110
C50	C	0.894716	0.593993	0.500110
C51	C	0.138924	0.090202	0.068770
C52	C	0.638924	0.590202	0.568770
C53	C	0.066098	0.089133	0.068777
C54	C	0.566098	0.589133	0.568777
C55	C	0.066058	0.089136	-0.068485
C56	C	0.566058	0.589136	0.431515
C57	C	0.138881	0.090212	-0.068490
C58	C	0.638881	0.590212	0.431510
C59	C	0.175310	0.090742	0.000140
C60	C	0.675310	0.590742	0.500140
C61	C	0.891933	-0.157142	0.000102
C62	C	1.391933	0.342858	0.500102
C63	C	0.890861	-0.229966	0.000114
C64	C	1.390861	0.270034	0.500114
C65	C	0.826694	-0.257857	0.000107
C66	C	1.326694	0.242143	0.500107
C67	C	0.763594	-0.212917	0.000107
C68	C	1.263594	0.287083	0.500107
C69	C	0.764668	-0.140095	0.000102
C70	C	1.264668	0.359905	0.500102
N71	N	0.777641	-0.365856	-0.042744
N72	N	1.277641	0.134144	0.457256
N73	N	0.776626	-0.435035	-0.042742
N74	N	1.276626	0.064965	0.457258
C75	C	0.823456	-0.477265	0.000122
C76	C	1.323456	0.022735	0.500122
N77	N	0.871350	-0.447705	0.042973
N78	N	1.371350	0.052295	0.542973
N79	N	0.872368	-0.378520	0.042967
N80	N	1.372368	0.121480	0.542967
C81	C	0.825523	-0.336819	0.000112
C82	C	1.325523	0.163181	0.500112
C83	C	0.885390	-0.601159	0.000140
C84	C	1.385390	-0.101159	0.500140
C85	C	0.884315	-0.673984	0.000156
C86	C	1.384315	-0.173984	0.500156
C87	C	0.757047	-0.656933	0.000142
C88	C	1.257047	-0.156933	0.500142
C89	C	0.758123	-0.584110	0.000133
C90	C	1.258123	-0.084110	0.500133
C91	C	0.822296	-0.556228	0.000128
C92	C	1.322296	-0.056228	0.500128
C93	C	0.952163	0.087460	0.000138
C94	C	1.452163	0.587460	0.500138
C95	C	1.029668	0.088594	0.000153
C96	C	1.529668	0.588594	0.500153
C97	C	0.819007	0.220626	0.000139
C98	C	1.319007	0.720626	0.500139
C99	C	0.820148	0.298131	0.000150
C100	C	1.320148	0.798131	0.500150
N101	N	0.824479	0.092964	-0.179042
N102	N	1.324479	0.592964	0.320958
C103	C	0.866730	0.135181	-0.781080
C104	C	1.366730	0.635181	-0.281080
C105	C	0.866723	0.135188	-0.701832
C106	C	1.366723	0.635188	-0.201832
C107	C	0.824509	0.092950	-0.662224
C108	C	1.324509	0.592950	-0.162224
C109	C	0.782286	0.050715	-0.701869
C110	C	1.282286	0.550715	-0.201869
C111	C	0.782289	0.050715	-0.781116
C112	C	1.282289	0.550715	-0.281116
N113	N	0.822819	0.031789	-0.537808
N114	N	1.322819	0.531789	-0.037808
N115	N	0.822820	0.031792	-0.462528
N116	N	1.322820	0.531792	0.037472
C117	C	0.824497	0.092950	-0.423460
C118	C	1.324497	0.592950	0.076540
N119	N	0.826186	0.154106	-0.462516
N120	N	1.326186	0.654106	0.037484
N121	N	0.826189	0.154103	-0.537804
N122	N	1.326189	0.654103	-0.037804
C123	C	0.824501	0.092946	-0.576295
C124	C	1.324501	0.592946	-0.076295
C125	C	0.866706	0.135193	-0.297895
C126	C	1.366706	0.635193	0.202105
C127	C	0.866694	0.135201	-0.218646
C128	C	1.366694	0.635201	0.281354
C129	C	0.782261	0.050722	-0.218684
C130	C	1.282261	0.550722	0.281316
C131	C	0.782269	0.050720	-0.297932
C132	C	1.282269	0.550720	0.202068
C133	C	0.824495	0.092954	-0.337532
C134	C	1.324495	0.592954	0.162468
N135	N	0.824515	0.092949	0.179284
N136	N	1.324515	0.592949	0.679284
H137	H	0.612593	0.097209	0.124607
H138	H	1.112593	0.597209	0.624607
H139	H	0.706747	-0.547527	0.000125
H140	H	1.206747	-0.047527	0.500125
H141	H	0.935694	-0.710565	0.000164
H142	H	1.435694	-0.210565	0.500164
Br143	Br	0.924010	0.192510	-0.351643
Br144	Br	1.424010	0.692510	0.148357
Br145	Br	0.188367	0.090926	0.161908
Br146	Br	0.688367	0.590926	0.661908
Br147	Br	0.460624	0.094989	-0.161660
Br148	Br	0.960624	0.594989	0.338340
Br149	Br	0.016717	0.088401	0.161924
Br150	Br	0.516717	0.588401	0.661924
H151	H	0.704801	-0.679641	0.000140
H152	H	1.204801	-0.179641	0.500140
H153	H	0.901069	0.169596	-0.186375
H154	H	1.401069	0.669596	0.313625
Br155	Br	0.676510	-0.250767	0.000107
Br156	Br	1.176510	0.249233	0.500107
Br157	Br	0.632274	0.097538	-0.161681
Br158	Br	1.132274	0.597538	0.338319
Br159	Br	0.188263	0.090952	-0.161634
Br160	Br	0.688263	0.590952	0.338366
Br161	Br	0.924032	0.192502	-0.834820
Br162	Br	1.424032	0.692502	-0.334820
Br163	Br	0.460723	0.094964	0.161877
Br164	Br	0.960723	0.594964	0.661877
H165	H	0.944187	-0.134445	0.000101
H166	H	1.444187	0.365555	0.500101
H167	H	0.747914	0.016326	-0.669615
H168	H	1.247914	0.516326	-0.169615
Br169	Br	0.924029	0.192495	-0.648029
Br170	Br	1.424029	0.692495	-0.148029
Br171	Br	0.016617	0.088413	-0.161619
Br172	Br	0.516617	0.588413	0.338381
H173	H	0.942239	-0.266555	0.000120
H174	H	1.442239	0.233445	0.500120
H175	H	0.713289	-0.103513	0.000099
H176	H	1.213289	0.396487	0.500099
H177	H	0.747897	0.016327	-0.330204
H178	H	1.247897	0.516327	0.169796
H179	H	0.747886	0.016336	-0.186436
H180	H	1.247886	0.516336	0.313564
Br181	Br	0.972480	-0.563314	0.000126
Br182	Br	1.472480	-0.063314	0.500126
Br183	Br	0.724992	-0.006603	-0.834911
Br184	Br	1.224992	0.493397	-0.334911
