data_functionalizedCrystal
_audit_creation_method	'MofGen! by Chris Wilmer'
_symmetry_space_group_name_H-M	'P1'
_symmetry_Int_Tables_number	1
_symmetry_cell_setting	triclinic
loop_
_symmetry_equiv_pos_as_xyz
  x,y,z
_cell_length_a	18.101398
_cell_length_b	18.050589
_cell_length_c	18.101390
_cell_angle_alpha	89.971488
_cell_angle_beta	89.975319
_cell_angle_gamma	90.023488
loop_
_atom_site_label
_atom_site_type_symbol
_atom_site_fract_x
_atom_site_fract_y
_atom_site_fract_z
Zn1	Zn	1.132138	-0.295725	-0.418861
Zn2	Zn	1.465472	0.037609	-0.085528
Zn3	Zn	1.798805	0.370942	0.247805
Zn4	Zn	1.132040	-0.419930	-0.295029
Zn5	Zn	1.465373	-0.086597	0.038304
Zn6	Zn	1.798706	0.246736	0.371637
Zn7	Zn	1.008297	-0.295749	-0.295023
Zn8	Zn	1.341630	0.037585	0.038311
Zn9	Zn	1.674963	0.370918	0.371644
Zn10	Zn	1.008254	-0.419867	-0.418818
Zn11	Zn	1.341588	-0.086534	-0.085485
Zn12	Zn	1.674921	0.246799	0.247849
O13	O	1.070182	-0.357818	-0.356933
O14	O	1.403516	-0.024484	-0.023599
O15	O	1.736849	0.308849	0.309734
O16	O	1.235758	-0.312217	-0.402456
O17	O	1.569092	0.021116	-0.069123
O18	O	1.902425	0.354449	0.264211
O19	O	1.115601	-0.403494	-0.191396
O20	O	1.448935	-0.070160	0.141938
O21	O	1.782268	0.263173	0.475271
O22	O	1.024783	-0.191821	-0.311465
O23	O	1.358117	0.141513	0.021868
O24	O	1.691450	0.474846	0.355201
O25	O	1.235686	-0.403471	-0.311477
O26	O	1.569019	-0.070137	0.021856
O27	O	1.902352	0.263196	0.355190
O28	O	1.115770	-0.191803	-0.402449
O29	O	1.449103	0.141530	-0.069116
O30	O	1.782436	0.474863	0.264217
O31	O	1.024688	-0.312258	-0.191391
O32	O	1.358021	0.021075	0.141943
O33	O	1.691354	0.354409	0.475276
O34	O	0.904658	-0.312197	-0.311423
O35	O	1.237991	0.021137	0.021910
O36	O	1.571325	0.354470	0.355243
O37	O	1.024711	-0.403363	-0.522457
O38	O	1.358045	-0.070030	-0.189123
O39	O	1.691378	0.263304	0.144210
O40	O	0.904627	-0.403386	-0.402375
O41	O	1.237960	-0.070053	-0.069042
O42	O	1.571294	0.263281	0.264291
O43	O	1.115729	-0.312156	-0.522489
O44	O	1.449062	0.021177	-0.189155
O45	O	1.782395	0.354510	0.144178
O46	O	1.115560	-0.523847	-0.311435
O47	O	1.448894	-0.190513	0.021898
O48	O	1.782227	0.142820	0.355232
O49	O	1.024616	-0.523800	-0.402382
O50	O	1.357949	-0.190467	-0.069048
O51	O	1.691282	0.142866	0.264285
C52	C	0.877772	-0.357788	-0.356894
C53	C	1.211105	-0.024454	-0.023561
C54	C	1.544438	0.308879	0.309772
C55	C	0.795458	-0.357793	-0.356895
C56	C	1.128791	-0.024459	-0.023562
C57	C	1.462124	0.308874	0.309771
C58	C	0.496367	-0.357839	-0.356957
C59	C	0.829700	-0.024506	-0.023624
C60	C	1.163033	0.308828	0.309709
C61	C	0.527687	-0.300178	-0.300012
C62	C	0.861020	0.033155	0.033321
C63	C	1.194353	0.366489	0.366655
C64	C	0.613305	-0.300333	-0.299769
C65	C	0.946638	0.033000	0.033564
C66	C	1.279972	0.366334	0.366898
C67	C	0.644749	-0.357815	-0.356927
C68	C	0.978083	-0.024482	-0.023593
C69	C	1.311416	0.308851	0.309740
C70	C	0.613635	-0.436048	-0.335608
C71	C	0.946968	-0.102715	-0.002275
C72	C	1.280302	0.230618	0.331059
C73	C	0.527990	-0.435728	-0.335212
C74	C	0.861323	-0.102395	-0.001879
C75	C	1.194656	0.230939	0.331455
C76	C	0.527981	-0.337947	-0.435355
C77	C	0.861314	-0.004614	-0.102022
C78	C	1.194648	0.328720	0.231311
C79	C	0.613632	-0.336205	-0.434927
C80	C	0.946965	-0.002872	-0.101594
C81	C	1.280298	0.330462	0.231739
C82	C	0.728609	-0.357807	-0.356910
C83	C	1.061942	-0.024473	-0.023577
C84	C	1.395275	0.308860	0.309756
C85	C	0.412507	-0.357853	-0.356972
C86	C	0.745841	-0.024519	-0.023638
C87	C	1.079174	0.308814	0.309695
C88	C	1.070093	-0.550770	-0.356921
C89	C	1.403426	-0.217437	-0.023587
C90	C	1.736760	0.115897	0.309746
C91	C	1.070122	-0.633316	-0.356940
C92	C	1.403456	-0.299982	-0.023607
C93	C	1.736789	0.033351	0.309727
C94	C	1.020715	-0.832768	-0.406380
C95	C	1.354049	-0.499435	-0.073046
C96	C	1.687382	-0.166101	0.260287
C97	C	1.002663	-0.882213	-0.338801
C98	C	1.335996	-0.548879	-0.005468
C99	C	1.669330	-0.215546	0.327866
C100	C	1.070195	-0.784446	-0.356950
C101	C	1.403529	-0.451113	-0.023616
C102	C	1.736862	-0.117779	0.309717
C103	C	1.088284	-0.882083	-0.424536
C104	C	1.421617	-0.548750	-0.091203
C105	C	1.754951	-0.215416	0.242130
C106	C	1.070264	-0.930431	-0.356965
C107	C	1.403597	-0.597098	-0.023632
C108	C	1.736931	-0.263764	0.309702
C109	C	1.052107	-0.832803	-0.289335
C110	C	1.385441	-0.499470	0.043998
C111	C	1.718774	-0.166137	0.377332
C112	C	1.137760	-0.832669	-0.375116
C113	C	1.471093	-0.499336	-0.041783
C114	C	1.804426	-0.166003	0.291551
C115	C	1.119733	-0.882092	-0.307491
C116	C	1.453066	-0.548758	0.025843
C117	C	1.786400	-0.215425	0.359176
C118	C	1.070154	-0.700348	-0.356942
C119	C	1.403487	-0.367014	-0.023609
C120	C	1.736820	-0.033681	0.309725
C121	C	1.070306	-1.014528	-0.356965
C122	C	1.403639	-0.681194	-0.023632
C123	C	1.736972	-0.347861	0.309701
C124	C	1.263344	-0.357849	-0.356972
C125	C	1.596678	-0.024515	-0.023639
C126	C	1.930011	0.308818	0.309695
C127	C	1.345658	-0.357862	-0.356989
C128	C	1.678992	-0.024528	-0.023655
C129	C	2.012325	0.308805	0.309678
C130	C	1.070226	-0.357750	-0.550095
C131	C	1.403560	-0.024417	-0.216761
C132	C	1.736893	0.308917	0.116572
C133	C	1.070245	-0.357721	-0.632409
C134	C	1.403578	-0.024388	-0.299076
C135	C	1.736912	0.308946	0.034258
C136	C	1.070292	-0.164112	-0.356961
C137	C	1.403626	0.169221	-0.023628
C138	C	1.736959	0.502555	0.309705
C139	C	1.070339	-0.081566	-0.356974
C140	C	1.403672	0.251767	-0.023640
C141	C	1.737006	0.585100	0.309693
C142	C	1.070285	-0.357675	-0.931500
C143	C	1.403618	-0.024341	-0.598167
C144	C	1.736952	0.308992	-0.264833
C145	C	1.127739	-0.300492	-0.900195
C146	C	1.461072	0.032842	-0.566862
C147	C	1.794406	0.366175	-0.233528
C148	C	1.127560	-0.300280	-0.814577
C149	C	1.460893	0.033054	-0.481243
C150	C	1.794227	0.366387	-0.147910
C151	C	1.070266	-0.357698	-0.783117
C152	C	1.403599	-0.024364	-0.449784
C153	C	1.736933	0.308969	-0.116451
C154	C	0.992248	-0.336428	-0.814182
C155	C	1.325581	-0.003095	-0.480849
C156	C	1.658915	0.330238	-0.147516
C157	C	0.992592	-0.336000	-0.899828
C158	C	1.325925	-0.002666	-0.566494
C159	C	1.659259	0.330667	-0.233161
C160	C	1.090162	-0.436274	-0.899920
C161	C	1.423495	-0.102941	-0.566587
C162	C	1.756828	0.230393	-0.233253
C163	C	1.091874	-0.435873	-0.814270
C164	C	1.425207	-0.102540	-0.480937
C165	C	1.758541	0.230793	-0.147604
C166	C	1.070250	-0.357712	-0.699258
C167	C	1.403584	-0.024379	-0.365925
C168	C	1.736917	0.308955	-0.032591
C169	C	1.070296	-0.357659	-1.015360
C170	C	1.403629	-0.024325	-0.682026
C171	C	1.736962	0.309008	-0.348693
C172	C	1.070181	-0.357832	-0.164522
C173	C	1.403514	-0.024498	0.168811
C174	C	1.736848	0.308835	0.502144
C175	C	1.070306	-0.357651	-0.082209
C176	C	1.403639	-0.024318	0.251125
C177	C	1.736973	0.309015	0.584458
H178	H	0.507727	-0.379945	-0.477785
H179	H	0.841060	-0.046611	-0.144452
H180	H	1.174393	0.286722	0.188882
C181	C	0.641159	-0.495647	-0.389879
C182	C	0.974492	-0.162314	-0.056545
C183	C	1.307826	0.171019	0.276788
N184	N	0.661895	-0.540537	-0.430754
N185	N	0.995228	-0.207204	-0.097421
N186	N	1.328561	0.126130	0.235912
H187	H	0.978810	-0.811110	-0.448122
H188	H	1.312144	-0.477777	-0.114788
H189	H	1.645477	-0.144443	0.218545
C190	C	0.640940	-0.318103	-0.221289
C191	C	0.974274	0.015230	0.112044
C192	C	1.307607	0.348563	0.445377
N193	N	0.661755	-0.331491	-0.162176
N194	N	0.995088	0.001842	0.171158
N195	N	1.328421	0.335176	0.504491
C196	C	1.214882	-0.803235	-0.395906
C197	C	1.548215	-0.469902	-0.062572
C198	C	1.881549	-0.136568	0.270761
N199	N	1.272969	-0.781060	-0.411574
N200	N	1.606302	-0.447726	-0.078241
N201	N	1.939635	-0.114393	0.255092
C202	C	0.642558	-0.459231	-0.259014
C203	C	0.975891	-0.125897	0.074320
C204	C	1.309225	0.207436	0.407653
N205	N	0.664341	-0.476687	-0.201320
N206	N	0.997674	-0.143353	0.132013
N207	N	1.331007	0.189980	0.465346
C208	C	1.031382	-0.803683	-0.212106
C209	C	1.364716	-0.470350	0.121228
C210	C	1.698049	-0.137016	0.454561
N211	N	1.015769	-0.781748	-0.153938
N212	N	1.349102	-0.448414	0.179395
N213	N	1.682436	-0.115081	0.512728
H214	H	0.975742	-0.278544	-0.919813
H215	H	1.309076	0.054789	-0.586479
H216	H	1.642409	0.388123	-0.253146
H217	H	0.507270	-0.480145	-0.374880
H218	H	0.840604	-0.146811	-0.041547
H219	H	1.173937	0.186522	0.291786
C220	C	0.932791	-0.389813	-0.927804
C221	C	1.266124	-0.056480	-0.594470
C222	C	1.599457	0.276854	-0.261137
N223	N	0.887745	-0.430340	-0.948872
N224	N	1.221078	-0.097007	-0.615539
N225	N	1.554412	0.236326	-0.282205
C226	C	0.925513	-0.911612	-0.318046
C227	C	1.258847	-0.578279	0.015287
C228	C	1.592180	-0.244946	0.348621
N229	N	0.867402	-0.933754	-0.302418
N230	N	1.200736	-0.600420	0.030915
N231	N	1.534069	-0.267087	0.364249
H232	H	0.506406	-0.281892	-0.454739
H233	H	0.839740	0.051441	-0.121406
H234	H	1.173073	0.384774	0.211928
C235	C	1.108917	-0.911327	-0.501744
C236	C	1.442250	-0.577993	-0.168411
C237	C	1.775583	-0.244660	0.164922
N238	N	1.124452	-0.933350	-0.559899
N239	N	1.457786	-0.600017	-0.226566
N240	N	1.791119	-0.266683	0.106767
H241	H	1.161606	-0.903613	-0.265648
H242	H	1.494939	-0.570279	0.067686
H243	H	1.828273	-0.236946	0.401019
H244	H	0.948278	-0.376795	-0.793803
H245	H	1.281612	-0.043462	-0.460469
H246	H	1.614945	0.289872	-0.127136
H247	H	1.185412	-0.313600	-0.793575
H248	H	1.518745	0.019733	-0.460241
H249	H	1.852078	0.353067	-0.126908
C250	C	1.206154	-0.318267	-0.928030
C251	C	1.539487	0.015066	-0.594696
C252	C	1.872820	0.348399	-0.261363
N253	N	1.265218	-0.331660	-0.948996
N254	N	1.598551	0.001674	-0.615663
N255	N	1.931885	0.335007	-0.282330
C256	C	1.033632	-0.493834	-0.927273
C257	C	1.366965	-0.160501	-0.593939
C258	C	1.700298	0.172832	-0.260606
N259	N	0.991052	-0.537183	-0.947880
N260	N	1.324385	-0.203850	-0.614546
N261	N	1.657719	0.129483	-0.281213
C262	C	0.498564	-0.317732	-0.221990
C263	C	0.831897	0.015601	0.111343
C264	C	1.165230	0.348934	0.444677
N265	N	0.476626	-0.330956	-0.163225
N266	N	0.809959	0.002378	0.170109
N267	N	1.143292	0.335711	0.503442
C268	C	1.110189	-0.222265	-0.929279
C269	C	1.443522	0.111068	-0.595946
C270	C	1.776856	0.444401	-0.262613
N271	N	1.096967	-0.163346	-0.951186
N272	N	1.430300	0.169988	-0.617853
N273	N	1.763634	0.503321	-0.284520
H274	H	0.507978	-0.452597	-0.277900
H275	H	0.841312	-0.119263	0.055434
H276	H	1.174645	0.214070	0.388767
H277	H	0.633973	-0.278634	-0.451002
H278	H	0.967306	0.054699	-0.117669
H279	H	1.300639	0.388033	0.215664
H280	H	0.635039	-0.375141	-0.479629
H281	H	0.968372	-0.041808	-0.146296
H282	H	1.301706	0.291526	0.187038
H283	H	1.114403	-0.242052	-0.794098
H284	H	1.447736	0.091282	-0.460765
H285	H	1.781069	0.424615	-0.127432
H286	H	0.975092	-0.279611	-0.792738
H287	H	1.308425	0.053722	-0.459405
H288	H	1.641758	0.387056	-0.126072
H289	H	1.146055	-0.455640	-0.921571
H290	H	1.479388	-0.122307	-0.588238
H291	H	1.812721	0.211027	-0.254904
C292	C	1.039447	-0.496526	-0.785344
C293	C	1.372780	-0.163193	-0.452011
C294	C	1.706113	0.170141	-0.118678
N295	N	0.999951	-0.542208	-0.763559
N296	N	1.333284	-0.208875	-0.430225
N297	N	1.666618	0.124459	-0.096892
C298	C	0.641728	-0.221957	-0.317810
C299	C	0.975061	0.111376	0.015523
C300	C	1.308394	0.444709	0.348857
N301	N	0.663132	-0.162920	-0.331395
N302	N	0.996466	0.170413	0.001939
N303	N	1.329799	0.503746	0.335272
C304	C	0.499890	-0.221564	-0.317861
C305	C	0.833224	0.111769	0.015473
C306	C	1.166557	0.445102	0.348806
N307	N	0.478948	-0.162350	-0.331305
N308	N	0.812282	0.170983	0.002028
N309	N	1.145615	0.504316	0.335361
C310	C	1.169436	-0.457545	-0.786837
C311	C	1.502769	-0.124212	-0.453504
C312	C	1.836103	0.209122	-0.120170
N313	N	1.227855	-0.473867	-0.766168
N314	N	1.561189	-0.140534	-0.432835
N315	N	1.894522	0.192800	-0.099502
