data_functionalizedCrystal
_audit_creation_method	'MofGen! by Chris Wilmer'
_symmetry_space_group_name_H-M	'P1'
_symmetry_Int_Tables_number	1
_symmetry_cell_setting	triclinic
loop_
_symmetry_equiv_pos_as_xyz
  x,y,z
_cell_length_a	19.188933
_cell_length_b	11.792241
_cell_length_c	10.868271
_cell_angle_alpha	90.005281
_cell_angle_beta	90.002902
_cell_angle_gamma	83.669492
loop_
_atom_site_label
_atom_site_type_symbol
_atom_site_fract_x
_atom_site_fract_y
_atom_site_fract_z
O1	O	-0.926946	-0.141705	-0.102282
O2	O	-0.723743	-0.160777	-0.102293
O3	O	-0.830276	0.014004	-0.102279
O4	O	-0.820414	-0.316485	-0.102296
O5	O	-0.830267	0.014010	0.102366
O6	O	-0.723734	-0.160770	0.102351
O7	O	-0.926937	-0.141698	0.102363
Zn8	Zn	-0.825335	-0.151233	0.134849
Zn9	Zn	-0.825346	-0.151242	-0.134779
O10	O	-0.820405	-0.316478	0.102348
C11	C	-0.697724	-0.160155	0.000028
C12	C	-0.620209	-0.158300	0.000023
C13	C	-0.829652	0.056289	0.000043
C14	C	-0.827798	0.182275	0.000042
C15	C	-0.952956	-0.142319	0.000039
C16	C	-1.030471	-0.144174	0.000035
C17	C	-0.066884	-0.145064	-0.111514
C18	C	-0.139718	-0.146800	-0.111519
C19	C	-0.176135	-0.147670	0.000032
C20	C	-0.139714	-0.146774	0.111597
C21	C	-0.066882	-0.145026	0.111598
N22	N	-0.285533	-0.214994	0.083061
N23	N	-0.354720	-0.216657	0.083052
C24	C	-0.395573	-0.152933	0.000034
N25	N	-0.364625	-0.087498	-0.082994
N26	N	-0.295432	-0.085840	-0.082988
C27	C	-0.255109	-0.149564	0.000043
C28	C	-0.510961	-0.155703	-0.111529
C29	C	-0.583797	-0.157433	-0.111529
C30	C	-0.583791	-0.157418	0.111590
C31	C	-0.510957	-0.155677	0.111587
C32	C	-0.474546	-0.154825	0.000024
N33	N	-0.825332	-0.151226	0.318863
C34	C	-0.821029	-0.358763	0.000024
C35	C	-0.822883	-0.484749	0.000017
C36	C	-0.824388	0.412936	0.000021
C37	C	-0.826283	0.284579	0.000033
N38	N	-0.825354	-0.151240	-0.318793
C39	C	-0.825343	-0.151239	0.569869
C40	C	-0.825334	-0.151235	0.430192
H41	H	-0.037243	-0.144365	-0.202358
Br42	Br	-0.633208	-0.158574	0.262985
H43	H	-0.481314	-0.155006	-0.202370
Br44	Br	-0.017462	-0.143822	0.262999
Br45	Br	-0.633217	-0.158622	-0.262932
Br46	Br	-0.189146	-0.148007	-0.262919
H47	H	-0.481310	-0.154957	0.202423
H48	H	-0.169370	-0.147480	0.202423
