data_functionalizedCrystal
_audit_creation_method	'MofGen! by Chris Wilmer'
_symmetry_space_group_name_H-M	'P1'
_symmetry_Int_Tables_number	1
_symmetry_cell_setting	triclinic
loop_
_symmetry_equiv_pos_as_xyz
  x,y,z
_cell_length_a	14.519731
_cell_length_b	14.519709
_cell_length_c	18.366186
_cell_angle_alpha	90.002495
_cell_angle_beta	90.006477
_cell_angle_gamma	83.684499
loop_
_atom_site_label
_atom_site_type_symbol
_atom_site_fract_x
_atom_site_fract_y
_atom_site_fract_z
O1	O	1.223858	0.120980	0.060553
O2	O	0.955384	0.135196	0.060554
O3	O	1.096740	-0.006150	0.060547
O4	O	1.082503	0.262326	0.060560
O5	O	1.096721	-0.006145	-0.060553
O6	O	0.955366	0.135201	-0.060545
O7	O	1.223840	0.120985	-0.060547
Zn8	Zn	1.089600	0.128094	-0.079773
Zn9	Zn	1.089624	0.128087	0.079781
O10	O	1.082485	0.262331	-0.060539
C11	C	0.921016	0.134532	0.000005
C12	C	0.818635	0.132536	0.000005
C13	C	0.735491	0.130915	0.000008
C14	C	0.631182	0.128888	0.000008
C15	C	0.548043	0.127280	0.000008
C16	C	0.443728	0.125253	0.000009
C17	C	1.096067	-0.040507	-0.000003
C18	C	1.094079	-0.142889	-0.000003
C19	C	1.086759	-0.517785	0.000016
C20	C	1.088792	-0.413477	0.000010
C21	C	1.090419	-0.330340	0.000005
C22	C	1.092452	-0.226025	0.000001
C23	C	1.258209	0.121649	0.000005
C24	C	1.360589	0.123645	0.000009
C25	C	1.083157	0.296688	0.000012
C26	C	1.085146	0.399070	0.000017
N27	N	1.089590	0.128098	-0.188664
C28	C	1.145663	0.184131	-0.773211
C29	C	1.145653	0.184140	-0.696983
C30	C	1.089633	0.128077	-0.658876
C31	C	1.033600	0.072019	-0.697002
C32	C	1.033604	0.072019	-0.773228
C33	C	1.086943	0.044917	-0.538113
C34	C	1.086945	0.044915	-0.461888
C35	C	1.089615	0.128080	-0.423768
C36	C	1.092301	0.211247	-0.461882
C37	C	1.092305	0.211246	-0.538108
C38	C	1.089622	0.128072	-0.576221
C39	C	1.145629	0.184149	-0.302996
C40	C	1.145613	0.184160	-0.226767
C41	C	1.033565	0.072030	-0.226787
C42	C	1.033575	0.072028	-0.303014
C43	C	1.089612	0.128086	-0.341115
N44	N	1.089641	0.128076	0.188672
H45	H	1.191291	0.229779	-0.804228
Cl46	Cl	0.963172	0.001543	-0.821149
H47	H	0.987961	0.026378	-0.334050
Cl48	Cl	1.216026	0.254656	-0.178847
H49	H	1.084760	-0.022809	-0.569145
H50	H	1.191272	0.229790	-0.665942
Cl51	Cl	1.095661	0.315803	-0.413968
Cl52	Cl	1.095674	0.315795	-0.586021
Cl53	Cl	1.083561	-0.059635	-0.413982
H54	H	1.191253	0.229799	-0.334019
Cl55	Cl	0.963170	0.001545	-0.649096
Cl56	Cl	0.963131	0.001558	-0.178887
