data_functionalizedCrystal
_audit_creation_method	'MofGen! by Chris Wilmer'
_symmetry_space_group_name_H-M	'P1'
_symmetry_Int_Tables_number	1
_symmetry_cell_setting	triclinic
loop_
_symmetry_equiv_pos_as_xyz
  x,y,z
_cell_length_a	14.628931
_cell_length_b	12.970454
_cell_length_c	12.970454
_cell_angle_alpha	59.999644
_cell_angle_beta	90.000112
_cell_angle_gamma	59.999998
loop_
_atom_site_label
_atom_site_type_symbol
_atom_site_fract_x
_atom_site_fract_y
_atom_site_fract_z
Zr1	Zr	0.880619	1.128519	-0.135304
O2	O	0.734657	1.343611	-0.299930
O3	O	0.925364	0.913427	-0.084837
O4	O	0.925363	1.128519	-0.299929
O5	O	0.734659	1.128518	0.084829
O6	O	1.075795	1.128519	-0.299929
O7	O	0.734658	1.128519	-0.084838
O8	O	1.075796	0.743759	0.084832
O9	O	0.734657	1.513278	-0.299931
O10	O	1.056713	1.001897	-0.063314
O11	O	0.944447	1.001897	0.063307
O12	O	0.944447	1.255140	-0.189936
O13	O	0.832181	1.255139	-0.063315
Zr14	Zr	1.120542	1.128517	0.135296
Zr15	Zr	1.120541	1.128518	-0.135304
Zr16	Zr	0.880620	1.128517	0.135296
Zr17	Zr	0.880619	1.399119	-0.135306
Zr18	Zr	1.120542	0.857917	0.135297
O19	O	1.075797	1.343608	0.084829
O20	O	1.075795	1.343610	-0.299930
O21	O	0.734659	1.343609	0.084828
O22	O	1.266503	0.913424	0.299922
O23	O	1.266502	0.913426	-0.084836
O24	O	0.925365	0.913426	0.299921
O25	O	1.266502	1.128517	-0.084837
O26	O	1.075797	1.128516	0.299921
O27	O	0.925365	1.128516	0.299920
O28	O	1.266502	1.128516	0.084830
O29	O	0.925363	1.513278	-0.299931
O30	O	1.075797	0.743758	0.299923
O31	O	1.266503	0.743757	0.299923
O32	O	1.266502	0.743758	0.084832
O33	O	0.734658	1.513277	-0.084840
O34	O	0.925364	1.513277	-0.084840
O35	O	1.056714	1.001896	0.189928
O36	O	1.168979	1.001896	0.063307
O37	O	1.056713	1.255139	-0.063315
O38	O	0.944447	1.255138	0.063306
C39	C	1.000580	0.790038	-0.000002
C40	C	1.000580	0.675162	-0.000002
C41	C	0.700474	1.128519	-0.000005
C42	C	0.598621	1.128519	-0.000005
C43	C	0.608904	1.002894	0.062808
C44	C	0.503634	1.002891	0.062810
C45	C	1.300686	1.128517	-0.000004
C46	C	1.402539	1.128516	-0.000003
C47	C	1.000579	1.128519	-0.338483
C48	C	1.000578	1.128520	-0.453360
C49	C	1.000580	1.466997	-0.000006
C50	C	1.000580	1.581874	-0.000006
C51	C	1.000581	1.128516	0.338475
C52	C	1.000582	1.128515	0.453352
C53	C	1.300686	0.790037	-0.000002
C54	C	1.402539	0.675160	-0.000001
C55	C	1.000581	0.790037	0.338477
C56	C	1.000582	0.675159	0.453354
C57	C	1.300687	0.790036	0.338477
C58	C	1.402541	0.675158	0.453355
C59	C	0.700473	1.467000	-0.338486
C60	C	0.598620	1.581877	-0.453363
C61	C	0.700475	1.466998	-0.000006
C62	C	0.598621	1.581875	-0.000007
C63	C	1.000579	1.466999	-0.338485
C64	C	1.000578	1.581876	-0.453362
C65	C	1.450371	0.527727	0.093476
C66	C	1.546064	0.419772	0.093481
C67	C	1.593926	0.459255	0.000013
C68	C	1.546085	0.606703	-0.093474
C69	C	1.450390	0.714654	-0.093483
C70	C	1.450380	0.527725	0.507302
C71	C	1.546093	0.419769	0.615230
C72	C	1.593960	0.459248	0.669213
C73	C	1.546116	0.606696	0.615256
C74	C	1.450410	0.714649	0.507325
C75	C	0.550789	1.729310	-0.507320
C76	C	0.455097	1.837266	-0.615272
C77	C	0.407233	1.797786	-0.669259
C78	C	0.455073	1.650339	-0.615296
C79	C	0.550768	1.542386	-0.507352
C80	C	0.550789	1.542347	0.093477
C81	C	0.455097	1.650271	0.093502
C82	C	0.407234	1.797723	0.000037
C83	C	0.455075	1.837250	-0.093453
C84	C	0.550770	1.729327	-0.093472
H85	H	0.695641	0.895343	0.116590
H86	H	0.512263	0.895339	0.116578
H87	H	0.416157	1.618059	0.169633
H88	H	0.329312	1.885586	0.000066
H89	H	0.393902	1.236074	-0.053788
F90	F	0.601658	1.385476	-0.449932
H91	H	1.585004	0.299721	0.169613
F92	F	1.399449	0.485674	0.192964
F93	F	1.597071	0.648691	0.672728
F94	F	1.695775	0.344346	0.000039
H95	H	0.589744	1.422292	0.169588
H96	H	0.589744	1.761484	-0.463374
F97	F	0.485252	1.269101	-0.070289
F98	F	0.601661	1.771419	-0.192983
F99	F	0.404120	1.994187	-0.192922
F100	F	1.399490	0.871565	-0.192983
F101	F	1.399454	0.485676	0.449867
F102	F	1.596991	0.262854	0.672639
F103	F	1.597036	0.648702	-0.192944
H104	H	1.411463	0.834694	0.463414
H105	H	1.671890	0.371331	0.757098
H106	H	0.416157	1.957317	-0.659190
F107	F	0.305384	1.912697	-0.784143
F108	F	0.404117	1.608343	-0.672765
