data_functionalizedCrystal
_audit_creation_method	'MofGen! by Chris Wilmer'
_symmetry_space_group_name_H-M	'P1'
_symmetry_Int_Tables_number	1
_symmetry_cell_setting	triclinic
loop_
_symmetry_equiv_pos_as_xyz
  x,y,z
_cell_length_a	10.654550
_cell_length_b	17.699083
_cell_length_c	9.130313
_cell_angle_alpha	89.997869
_cell_angle_beta	89.996220
_cell_angle_gamma	83.883958
loop_
_atom_site_label
_atom_site_type_symbol
_atom_site_fract_x
_atom_site_fract_y
_atom_site_fract_z
O1	O	1.665973	0.106299	-0.121923
O2	O	1.300318	0.116427	-0.121900
O3	O	1.493476	0.001240	-0.121899
O4	O	1.472815	0.221487	-0.121924
O5	O	1.493474	0.001243	0.121700
O6	O	1.300315	0.116430	0.121699
O7	O	1.665971	0.106302	0.121676
Cu8	Cu	1.483143	0.111366	0.143930
Cu9	Cu	1.483146	0.111363	-0.144154
O10	O	1.472812	0.221490	0.121675
C11	C	1.253531	0.115685	-0.000097
C12	C	1.114127	0.113460	-0.000088
C13	C	1.033454	0.181281	-0.000117
C14	C	0.902470	0.179185	-0.000142
C15	C	0.932845	0.041443	-0.000115
C16	C	1.063826	0.043539	-0.000080
C17	C	1.015917	0.260805	-0.000139
C18	C	0.884933	0.258710	-0.000164
C19	C	1.492735	-0.026961	-0.000099
C20	C	1.490514	-0.110993	-0.000099
C21	C	1.603894	-0.158893	-0.000104
C22	C	1.601799	-0.237850	-0.000117
C23	C	1.486324	-0.268905	-0.000114
C24	C	1.372935	-0.220998	-0.000113
C25	C	1.375031	-0.142043	-0.000111
C26	C	1.364481	-0.539415	-0.000124
C27	C	1.362394	-0.618376	-0.000122
C28	C	1.591249	-0.635222	-0.000130
C29	C	1.593345	-0.556266	-0.000128
C30	C	1.479957	-0.508367	-0.000135
C31	C	1.482229	-0.422753	-0.000124
C32	C	1.484050	-0.354517	-0.000114
C33	C	1.712757	0.107044	-0.000130
C34	C	1.852161	0.109269	-0.000149
C35	C	1.473554	0.249690	-0.000128
C36	C	1.475775	0.333722	-0.000138
N37	N	1.483150	0.111369	0.346553
N38	N	1.483149	0.111355	-0.346777
C39	C	1.568702	0.060381	0.423205
C40	C	1.568699	0.060372	0.576542
C41	C	1.397587	0.162345	0.576561
C42	C	1.397585	0.162349	0.423226
C43	C	1.667496	0.001510	0.423195
C44	C	1.667493	0.001501	0.576532
H45	H	1.044703	0.291908	0.101809
Cl46	Cl	1.227764	-0.260039	-0.000128
Cl47	Cl	1.290015	0.226439	0.326862
Cl48	Cl	1.070294	0.299896	-0.162517
H49	H	1.697927	-0.133615	-0.000097
H50	H	1.758357	0.019943	0.375629
Cl51	Cl	0.813757	0.295818	0.162195
Cl52	Cl	0.869599	-0.046452	-0.000105
Cl53	Cl	1.290026	0.226431	0.672959
Cl54	Cl	1.635961	-0.088301	0.358938
Cl55	Cl	1.738520	-0.517231	-0.000136
Cl56	Cl	1.232489	-0.081825	-0.000110
Cl57	Cl	1.733797	-0.695443	-0.000127
Cl58	Cl	1.621859	-0.083367	0.649967
Cl59	Cl	1.816146	0.021515	0.640784
H60	H	1.129507	-0.011687	-0.000035
H61	H	0.842677	0.288672	-0.102121
Cl62	Cl	1.217213	-0.657415	-0.000122
Cl63	Cl	1.221935	-0.479209	-0.000137
Cl64	Cl	1.744341	-0.298064	-0.000119
