data_functionalizedCrystal
_audit_creation_method	'MofGen! by Chris Wilmer'
_symmetry_space_group_name_H-M	'P1'
_symmetry_Int_Tables_number	1
_symmetry_cell_setting	triclinic
loop_
_symmetry_equiv_pos_as_xyz
  x,y,z
_cell_length_a	19.077236
_cell_length_b	29.839131
_cell_length_c	19.076919
_cell_angle_alpha	92.260621
_cell_angle_beta	90.112677
_cell_angle_gamma	87.667042
loop_
_atom_site_label
_atom_site_type_symbol
_atom_site_fract_x
_atom_site_fract_y
_atom_site_fract_z
Zn1	Zn	1.058221	0.163080	0.440493
Zn2	Zn	1.558221	0.663080	0.940493
Zn3	Zn	1.062830	0.235076	0.322965
Zn4	Zn	1.562830	0.735076	0.822965
Zn5	Zn	0.945437	0.162844	0.318273
Zn6	Zn	1.445437	0.662844	0.818273
Zn7	Zn	0.940647	0.241069	0.435701
Zn8	Zn	1.440647	0.741069	0.935701
O9	O	1.001784	0.200517	0.379358
O10	O	1.501784	0.700517	0.879358
O11	O	1.157167	0.170221	0.428871
O12	O	1.657167	0.670221	0.928871
O13	O	1.051191	0.222887	0.224012
O14	O	1.551191	0.722887	0.724012
O15	O	0.960474	0.100008	0.334528
O16	O	1.460474	0.600008	0.834528
O17	O	1.160554	0.223116	0.342524
O18	O	1.660554	0.723116	0.842524
O19	O	1.043336	0.100181	0.424322
O20	O	1.543336	0.600181	0.924322
O21	O	0.964943	0.169819	0.220565
O22	O	1.464943	0.669819	0.720565
O23	O	0.846467	0.175631	0.329881
O24	O	1.346467	0.675631	0.829881
O25	O	0.952310	0.233331	0.534667
O26	O	1.452310	0.733331	1.034667
O27	O	0.842948	0.233102	0.416155
O28	O	1.342948	0.733102	0.916155
O29	O	1.038691	0.176032	0.538187
O30	O	1.538691	0.676032	1.038187
O31	O	1.046547	0.298739	0.337878
O32	O	1.546547	0.798739	0.837878
O33	O	0.956779	0.303142	0.420704
O34	O	1.456779	0.803142	0.920704
C35	C	0.819210	0.204992	0.371990
C36	C	1.319210	0.704992	0.871990
C37	C	0.741104	0.206917	0.368854
C38	C	1.241104	0.706917	0.868854
C39	C	0.702644	0.180330	0.412406
C40	C	1.202644	0.680330	0.912406
C41	C	0.629255	0.182136	0.409454
C42	C	1.129255	0.682136	0.909454
C43	C	0.594327	0.210534	0.362952
C44	C	1.094327	0.710534	0.862952
C45	C	0.632792	0.237122	0.319396
C46	C	1.132792	0.737122	0.819396
C47	C	0.706180	0.235313	0.322345
C48	C	1.206180	0.735313	0.822345
C49	C	0.375030	0.218891	0.349300
C50	C	0.875030	0.718891	0.849300
C51	C	0.301636	0.220700	0.346356
C52	C	0.801636	0.720700	0.846356
C53	C	0.298104	0.165713	0.436413
C54	C	0.798104	0.665713	0.936413
C55	C	0.371494	0.163908	0.439361
C56	C	0.871494	0.663908	0.939361
C57	C	0.409953	0.190495	0.395802
C58	C	0.909953	0.690495	0.895802
N59	N	0.519311	0.212382	0.359935
N60	N	1.019311	0.712382	0.859935
N61	N	0.484967	0.188644	0.398816
N62	N	0.984967	0.688644	0.898816
C63	C	1.001662	0.317242	0.379296
C64	C	1.501662	0.817242	0.879296
C65	C	1.001673	0.367176	0.379296
C66	C	1.501673	0.867176	0.879296
C67	C	1.044848	0.676877	0.426185
C68	C	1.544848	1.176877	0.926185
C69	C	1.044895	0.864550	0.426233
C70	C	1.544895	1.364550	0.926233
O71	O	1.081535	0.888865	0.466048
O72	O	1.581535	1.388865	0.966048
N73	N	1.001799	0.887962	0.379451
N74	N	1.501799	1.387962	0.879451
C75	C	0.958685	0.864452	0.332657
C76	C	1.458685	1.364452	0.832657
O77	O	0.922025	0.888671	0.292872
O78	O	1.422025	1.388671	0.792872
C79	C	0.958635	0.676780	0.332613
C80	C	1.458635	1.176780	0.832613
C81	C	1.001739	0.653371	0.379393
C82	C	1.501739	1.153371	0.879393
C83	C	1.087947	0.653468	0.472962
C84	C	1.587947	1.153468	0.972962
C85	C	1.087938	0.606552	0.472946
C86	C	1.587938	1.106552	0.972946
C87	C	1.044829	0.583046	0.426155
C88	C	1.544829	1.083046	0.926155
C89	C	1.001729	0.606455	0.379378
C90	C	1.501729	1.106455	0.879378
C91	C	0.915518	0.653272	0.285823
C92	C	1.415518	1.153272	0.785823
C93	C	0.915508	0.606351	0.285817
C94	C	1.415508	1.106351	0.785817
C95	C	0.958611	0.582941	0.332597
C96	C	1.458611	1.082941	0.832597
C97	C	0.958611	0.536033	0.332571
C98	C	1.458611	1.036033	0.832571
N99	N	1.001707	0.512622	0.379353
N100	N	1.501707	1.012622	0.879353
C101	C	1.044816	0.536128	0.426145
C102	C	1.544816	1.036128	0.926145
C103	C	0.958715	0.962983	0.332683
C104	C	1.458715	1.462983	0.832683
C105	C	0.958728	1.009900	0.332693
C106	C	1.458728	1.509900	0.832693
C107	C	1.044937	1.009995	0.426270
C108	C	1.544937	1.509995	0.926270
C109	C	1.044927	0.963076	0.426256
C110	C	1.544927	1.463076	0.926256
C111	C	1.001811	0.939571	0.379465
C112	C	1.501811	1.439571	0.879465
C113	C	1.044793	0.437602	0.426109
C114	C	1.544793	0.937602	0.926109
C115	C	1.044782	0.390682	0.426088
C116	C	1.544782	0.890682	0.926088
C117	C	0.958571	0.390591	0.332514
C118	C	1.458571	0.890591	0.832514
C119	C	0.958584	0.437507	0.332532
C120	C	1.458584	0.937507	0.832532
C121	C	1.001698	0.461011	0.379335
C122	C	1.501698	0.961011	0.879335
O123	O	0.921984	0.511690	0.292782
O124	O	1.421984	1.011690	0.792782
O125	O	1.081459	0.511901	0.465934
O126	O	1.581459	1.011901	0.965934
C127	C	1.044857	0.723793	0.426200
C128	C	1.544857	1.223793	0.926200
C129	C	1.001757	0.747202	0.379423
C130	C	1.501757	1.247202	0.879423
C131	C	0.958648	0.723696	0.332631
C132	C	1.458648	1.223696	0.832631
C133	C	1.001771	0.794120	0.379433
C134	C	1.501771	1.294120	0.879433
C135	C	1.044880	0.817626	0.426225
C136	C	1.544880	1.317626	0.926225
C137	C	1.087975	0.794215	0.473007
C138	C	1.587975	1.294215	0.973007
C139	C	1.087966	0.747299	0.472992
C140	C	1.587966	1.247299	0.972992
C141	C	0.915552	0.747107	0.285850
C142	C	1.415552	1.247107	0.785850
C143	C	0.915566	0.794023	0.285868
C144	C	1.415566	1.294023	0.785868
C145	C	0.958675	0.817529	0.332660
C146	C	1.458675	1.317529	0.832660
C147	C	1.185071	0.196026	0.386756
C148	C	1.685071	0.696026	0.886756
C149	C	1.263177	0.194112	0.389908
C150	C	1.763177	0.694112	0.889908
C151	C	0.994452	0.205376	0.562636
C152	C	1.494452	0.705376	1.062636
C153	C	0.991328	0.207447	0.640738
C154	C	1.491328	0.707447	1.140738
C155	C	1.001888	1.083339	0.379440
C156	C	1.501888	1.583339	0.879440
C157	C	1.001838	1.033407	0.379485
C158	C	1.501838	1.533407	0.879485
C159	C	1.009128	0.195644	0.196795
C160	C	1.509128	0.695644	0.696795
C161	C	1.012388	0.193443	0.118699
C162	C	1.512388	0.693443	0.618699
C163	C	1.034832	0.178589	0.679264
C164	C	1.534832	0.678589	1.179264
C165	C	1.031888	0.180533	0.752649
C166	C	1.531888	0.680533	1.252649
C167	C	0.985443	0.211338	0.787506
C168	C	1.485443	0.711338	1.287506
C169	C	0.941934	0.240197	0.748975
C170	C	1.441934	0.740197	1.248975
C171	C	0.944875	0.238251	0.675591
C172	C	1.444875	0.738251	1.175591
C173	C	0.971820	0.220356	1.006783
C174	C	1.471820	0.720356	1.506783
C175	C	0.968884	0.222302	1.080172
C176	C	1.468884	0.722302	1.580172
C177	C	1.058837	0.162637	1.083842
C178	C	1.558837	0.662637	1.583842
C179	C	1.061777	0.160695	1.010457
C180	C	1.561777	0.660695	1.510457
C181	C	1.018266	0.189552	0.971931
C182	C	1.518266	0.689552	1.471931
N183	N	0.982434	0.213327	0.862518
N184	N	1.482434	0.713327	1.362518
N185	N	1.021272	0.187561	0.896921
N186	N	1.521272	0.687561	1.396921
H187	H	0.731077	0.157207	0.450274
H188	H	1.231077	0.657207	0.950274
H189	H	1.072655	0.153506	0.650889
H190	H	1.572655	0.653506	1.150889
F191	F	0.912694	0.365566	0.282716
F192	F	1.412694	0.865566	0.782716
H193	H	0.923604	0.943848	0.294578
H194	H	1.423604	1.443848	0.794578
F195	F	1.090662	0.365771	0.475878
F196	F	1.590662	0.865771	0.975878
H197	H	0.880418	0.672323	0.247729
H198	H	1.380418	1.172323	0.747729
H199	H	1.080026	0.944019	0.464348
H200	H	1.580026	1.444019	0.964348
H201	H	1.123065	0.728242	0.511084
H202	H	1.623065	1.228242	1.011084
F203	F	0.925512	0.251070	0.965791
F204	F	1.425512	0.751070	1.465791
H205	H	0.909442	0.261746	0.644223
H206	H	1.409442	0.761746	1.144223
H207	H	0.266783	0.144067	0.471876
H208	H	0.766783	0.644067	0.971876
F209	F	0.869615	0.581337	0.236015
F210	F	1.369615	1.081337	0.736015
F211	F	0.912718	0.462421	0.282736
F212	F	1.412718	0.962421	0.782736
F213	F	0.912861	1.034809	0.282895
F214	F	1.412861	1.534809	0.782895
F215	F	0.588326	0.153839	0.455809
F216	F	1.088326	0.653839	0.955809
H217	H	0.604347	0.260242	0.281530
H218	H	1.104347	0.760242	0.781530
H219	H	0.931061	0.247388	1.108550
H220	H	1.431061	0.747388	1.608550
F221	F	1.133831	0.678478	0.522771
F222	F	1.633831	1.178478	1.022771
F223	F	1.133811	0.581644	0.522741
F224	F	1.633811	1.081644	1.022741
H225	H	1.099600	0.135611	0.982081
H226	H	1.599600	0.635611	1.482081
F227	F	0.892500	0.272980	0.786074
F228	F	1.392500	0.772980	1.286074
F229	F	1.133858	0.819240	0.522804
F230	F	1.633858	1.319240	1.022804
H231	H	0.880447	0.727972	0.247747
H232	H	1.380447	1.227972	0.747747
F233	F	0.415952	0.247180	0.302928
F234	F	0.915952	0.747180	0.802928
H235	H	0.273200	0.243826	0.308489
H236	H	0.773200	0.743826	0.808489
F237	F	1.105140	0.131925	1.124848
F238	F	1.605140	0.631925	1.624848
H239	H	0.399927	0.140786	0.477230
H240	H	0.899927	0.640786	0.977230
H241	H	0.880467	0.813078	0.247768
H242	H	1.380467	1.313078	0.747768
F243	F	1.078215	0.149833	0.793650
F244	F	1.578215	0.649833	1.293650
H245	H	0.737493	0.256963	0.286880
H246	H	1.237493	0.756963	0.786880
F247	F	1.090818	1.035020	0.476069
F248	F	1.590818	1.535020	0.976069
F249	F	1.090680	0.462610	0.475921
F250	F	1.590680	0.962610	0.975921
