data_functionalizedCrystal
_audit_creation_method	'MofGen! by Chris Wilmer'
_symmetry_space_group_name_H-M	'P1'
_symmetry_Int_Tables_number	1
_symmetry_cell_setting	triclinic
loop_
_symmetry_equiv_pos_as_xyz
  x,y,z
_cell_length_a	10.723023
_cell_length_b	14.519709
_cell_length_c	9.798715
_cell_angle_alpha	90.004344
_cell_angle_beta	89.995809
_cell_angle_gamma	95.926154
loop_
_atom_site_label
_atom_site_type_symbol
_atom_site_fract_x
_atom_site_fract_y
_atom_site_fract_z
O1	O	-1.655978	0.129344	0.113510
O2	O	-1.292710	0.141726	0.113510
O3	O	-1.483976	0.001346	0.113498
O4	O	-1.464713	0.269724	0.113522
O5	O	-1.483962	0.001345	-0.113484
O6	O	-1.292696	0.141725	-0.113472
O7	O	-1.655964	0.129343	-0.113472
Zn8	Zn	-1.474328	0.135534	-0.149510
Zn9	Zn	-1.474346	0.135535	0.149548
O10	O	-1.464698	0.269723	-0.113460
C11	C	-1.246212	0.140825	0.000019
C12	C	-1.107683	0.138129	0.000018
C13	C	-0.902745	0.134141	-0.117563
C14	C	-1.045922	0.136927	-0.117565
C15	C	-1.483071	-0.033019	0.000006
C16	C	-1.480381	-0.135414	0.000006
C17	C	-0.702462	0.130245	0.000019
C18	C	-0.840992	0.132940	0.000020
C19	C	-1.470477	-0.510360	0.000041
C20	C	-1.473227	-0.406038	0.000031
C21	C	-1.475428	-0.322890	0.000022
C22	C	-1.478179	-0.218562	0.000014
C23	C	-1.465603	0.304088	0.000035
C24	C	-1.468293	0.406483	0.000044
N25	N	-1.474324	0.135533	-0.353610
C26	C	-1.546589	0.189009	-0.421383
C27	C	-1.546609	0.189008	-0.578545
N28	N	-1.474360	0.135530	0.353648
H29	H	-1.099029	0.137956	-0.218233
H30	H	-1.608471	0.234796	-0.636828
H31	H	-0.894120	0.133980	0.100686
O32	O	-1.628521	0.249667	-0.344139
H33	H	-1.615637	0.240157	-0.232819
H34	H	-1.412474	0.089746	-0.411940
O35	O	-1.037374	0.136755	0.133388
H36	H	-0.967090	0.198351	0.139250
H37	H	-1.412482	0.089748	-0.588078
H38	H	-0.849615	0.133112	-0.218229
