data_functionalizedCrystal
_audit_creation_method	'MofGen! by Chris Wilmer'
_symmetry_space_group_name_H-M	'P1'
_symmetry_Int_Tables_number	1
_symmetry_cell_setting	triclinic
loop_
_symmetry_equiv_pos_as_xyz
  x,y,z
_cell_length_a	10.908878
_cell_length_b	14.853567
_cell_length_c	9.482900
_cell_angle_alpha	99.351342
_cell_angle_beta	83.038437
_cell_angle_gamma	71.859861
loop_
_atom_site_label
_atom_site_type_symbol
_atom_site_fract_x
_atom_site_fract_y
_atom_site_fract_z
O1	O	1.723588	-0.156317	-0.120882
O2	O	1.349849	-0.085935	-0.120884
O3	O	1.546702	-0.253862	-0.120887
O4	O	1.526735	0.011610	-0.120879
O5	O	1.506717	-0.219639	0.120906
O6	O	1.309864	-0.051712	0.120909
O7	O	1.683602	-0.122095	0.120911
Cu8	Cu	1.493082	-0.083779	0.142988
Cu9	Cu	1.540369	-0.124251	-0.142961
O10	O	1.486749	0.045832	0.120915
C11	C	1.282027	-0.062246	0.000012
C12	C	1.139510	-0.042658	0.000011
C13	C	1.525806	-0.270203	0.000005
C14	C	1.523097	-0.369880	-0.000008
C15	C	1.090374	-0.114132	0.000008
C16	C	0.943075	-0.093889	0.000007
C17	C	1.394698	-0.763048	0.000019
C18	C	1.628563	-0.819596	0.000020
C19	C	1.631113	-0.725948	0.000012
C20	C	1.515454	-0.650845	0.000009
C21	C	1.397244	-0.669389	0.000015
C22	C	1.749318	-0.707394	0.000021
C23	C	1.751873	-0.613741	0.000014
C24	C	1.636214	-0.538637	0.000001
C25	C	1.518000	-0.557186	0.000005
C26	C	1.402341	-0.482083	0.000003
C27	C	1.284127	-0.500632	-0.000004
C28	C	1.281585	-0.594285	0.000002
C29	C	1.638756	-0.444984	-0.000005
C30	C	1.404887	-0.388425	-0.000002
C31	C	1.751425	-0.145784	0.000012
C32	C	1.893944	-0.165374	0.000003
C33	C	1.507647	0.062174	0.000019
C34	C	1.510357	0.161849	0.000022
N35	N	1.459833	-0.055315	0.344109
N36	N	1.573629	-0.152723	-0.344081
C37	C	1.530553	-0.115859	0.416307
C38	C	1.502898	-0.092171	0.583724
H39	H	1.157358	-0.190313	-0.000001
H40	H	1.611569	-0.185233	0.354177
Cl41	Cl	1.138731	-0.406205	0.000006
H42	H	1.185341	-0.609397	-0.000001
H43	H	0.876097	-0.017705	0.000002
Cl44	Cl	0.997347	-0.283002	-0.000017
H45	H	1.072528	0.033521	0.000007
H46	H	1.310702	-0.327279	-0.000010
Cl47	Cl	1.246096	-0.786367	-0.000002
Cl48	Cl	1.773951	-0.914007	0.000048
Cl49	Cl	1.377793	0.014937	0.679635
Cl50	Cl	1.699003	-0.259684	0.560012
Cl51	Cl	1.894703	-0.801806	0.000055
Cl52	Cl	1.334733	0.051788	0.440025
Cl53	Cl	1.787351	-0.421662	0.000030
Cl54	Cl	1.900486	-0.590434	-0.000003
