data_functionalizedCrystal
_audit_creation_method	'MofGen! by Chris Wilmer'
_symmetry_space_group_name_H-M	'P1'
_symmetry_Int_Tables_number	1
_symmetry_cell_setting	triclinic
loop_
_symmetry_equiv_pos_as_xyz
  x,y,z
_cell_length_a	16.625546
_cell_length_b	16.625548
_cell_length_c	19.076919
_cell_angle_alpha	92.280941
_cell_angle_beta	92.269917
_cell_angle_gamma	90.023536
loop_
_atom_site_label
_atom_site_type_symbol
_atom_site_fract_x
_atom_site_fract_y
_atom_site_fract_z
Zn1	Zn	-0.339312	1.214336	-0.397943
Zn2	Zn	0.160688	1.714336	0.102057
Zn3	Zn	-0.468732	1.219665	-0.280246
Zn4	Zn	0.031268	1.719665	0.219754
Zn5	Zn	-0.333921	1.084923	-0.280262
Zn6	Zn	0.166079	1.584923	0.219738
Zn7	Zn	-0.474107	1.079470	-0.397901
Zn8	Zn	0.025893	1.579470	0.102099
O9	O	-0.404018	1.149599	-0.339088
O10	O	0.095982	1.649599	0.160912
O11	O	-0.356487	1.327875	-0.382341
O12	O	0.143513	1.827875	0.117659
O13	O	-0.446344	1.206303	-0.181759
O14	O	0.053656	1.706303	0.318241
O15	O	-0.221805	1.102142	-0.295897
O16	O	0.278195	1.602142	0.204103
O17	O	-0.451571	1.331790	-0.295870
O18	O	0.048429	1.831790	0.204130
O19	O	-0.225765	1.197221	-0.382356
O20	O	0.274235	1.697221	0.117644
O21	O	-0.347298	1.107309	-0.181771
O22	O	0.152702	1.607309	0.318229
O23	O	-0.352510	0.971368	-0.295856
O24	O	0.147490	1.471368	0.204144
O25	O	-0.460732	1.092849	-0.496396
O26	O	0.039268	1.592849	0.003604
O27	O	-0.455504	0.967362	-0.382285
O28	O	0.044496	1.467362	0.117715
O29	O	-0.361698	1.191934	-0.496426
O30	O	0.138302	1.691934	0.003574
O31	O	-0.582277	1.201016	-0.295829
O32	O	-0.082277	1.701016	0.204171
O33	O	-0.586225	1.098016	-0.382270
O34	O	-0.086225	1.598016	0.117730
C35	C	-0.404006	0.940109	-0.339068
C36	C	0.095994	1.440109	0.160932
C37	C	-0.404020	0.850487	-0.339077
C38	C	0.095980	1.350487	0.160923
C39	C	-0.404027	0.522310	-0.339107
C40	C	0.095973	1.022310	0.160893
C41	C	-0.404023	0.613619	-0.339096
C42	C	0.095977	1.113619	0.160904
C43	C	-0.404024	0.686396	-0.339091
C44	C	0.095976	1.186396	0.160909
C45	C	-0.404019	0.777710	-0.339082
C46	C	0.095981	1.277710	0.160918
C47	C	-0.613507	1.149524	-0.339059
C48	C	-0.113507	1.649524	0.160941
C49	C	-0.703129	1.149564	-0.339069
C50	C	-0.203129	1.649564	0.160931
C51	C	-1.031308	1.149701	-0.339143
C52	C	-0.531308	1.649701	0.160857
C53	C	-0.939999	1.149661	-0.339124
C54	C	-0.439999	1.649661	0.160876
C55	C	-0.867221	1.149632	-0.339106
C56	C	-0.367221	1.649632	0.160894
C57	C	-0.775906	1.149593	-0.339088
C58	C	-0.275906	1.649593	0.160912
C59	C	-0.193711	1.149695	-0.339133
C60	C	0.306289	1.649695	0.160867
C61	C	-0.104091	1.149736	-0.339152
C62	C	0.395909	1.649736	0.160848
C63	C	-0.404031	1.359906	-0.339108
C64	C	0.095969	1.859906	0.160892
C65	C	-0.404037	1.449527	-0.339117
C66	C	0.095963	1.949527	0.160883
C67	C	-0.412416	1.141189	-0.522662
C68	C	0.087584	1.641189	-0.022662
C69	C	-0.415995	1.137605	-0.600890
C70	C	0.084005	1.637605	-0.100890
C71	C	-0.366117	1.187507	-0.637659
C72	C	0.133883	1.687507	-0.137659
C73	C	-0.369476	1.184130	-0.711163
C74	C	0.130524	1.684130	-0.211163
C75	C	-0.422718	1.130854	-0.747897
C76	C	0.077282	1.630854	-0.247897
C77	C	-0.472598	1.080946	-0.711123
C78	C	0.027402	1.580946	-0.211123
C79	C	-0.469234	1.084320	-0.637620
C80	C	0.030766	1.584320	-0.137620
C81	C	-0.438304	1.115228	-0.967724
C82	C	0.061696	1.615228	-0.467724
C83	C	-0.441666	1.111860	-1.041231
C84	C	0.058334	1.611860	-0.541231
C85	C	-0.338543	1.215043	-1.041267
C86	C	0.161457	1.715043	-0.541267
C87	C	-0.335187	1.218415	-0.967763
C88	C	0.164813	1.718415	-0.467763
C89	C	-0.385064	1.168505	-0.930995
C90	C	0.114936	1.668505	-0.430995
N91	N	-0.426155	1.127402	-0.823029
N92	N	0.073845	1.627402	-0.323029
N93	N	-0.381623	1.171953	-0.855864
N94	N	0.118377	1.671953	-0.355864
C95	C	-0.395595	1.158022	-0.156228
C96	C	0.104405	1.658022	0.343772
C97	C	-0.391789	1.161762	-0.078000
C98	C	0.108211	1.661762	0.422000
H99	H	-0.328863	1.224767	-0.741097
H100	H	0.171137	1.724767	-0.241097
O101	O	-0.517574	1.035763	-0.601873
O102	O	-0.017574	1.535763	-0.101873
C103	C	-0.524627	0.930734	-0.518842
C104	C	-0.024627	1.430734	-0.018842
C105	C	-0.469787	0.985668	-0.559289
C106	C	0.030213	1.485668	-0.059289
H107	H	-0.486014	0.890231	-0.484392
H108	H	0.013986	1.390231	0.015608
H109	H	-0.563243	0.892024	-0.557693
H110	H	-0.063243	1.392024	-0.057693
H111	H	-0.565234	0.969327	-0.484458
H112	H	-0.065234	1.469327	0.015542
H113	H	-0.429132	0.947138	-0.593674
H114	H	0.070868	1.447138	-0.093674
H115	H	-0.431227	1.024383	-0.520400
H116	H	0.068773	1.524383	-0.020400
H117	H	-0.291835	1.261800	-0.937859
H118	H	0.208165	1.761800	-0.437859
H119	H	-0.322764	1.230892	-0.607756
H120	H	0.177236	1.730892	-0.107756
H121	H	-0.515945	1.037565	-0.741037
H122	H	-0.015945	1.537565	-0.241037
O123	O	-0.493358	1.060166	-1.077024
O124	O	0.006642	1.560166	-0.577024
C125	C	-0.544188	1.009199	-1.190246
C126	C	-0.044188	1.509199	-0.690246
C127	C	-0.485632	1.067790	-1.149798
C128	C	0.014368	1.567790	-0.649798
H129	H	-0.537949	1.015331	-1.249090
H130	H	-0.037949	1.515331	-0.749090
H131	H	-0.608568	1.023974	-1.175838
H132	H	-0.108568	1.523974	-0.675838
H133	H	-0.529355	0.944867	-1.175745
H134	H	-0.029355	1.444867	-0.675745
H135	H	-0.500390	1.132142	-1.164277
H136	H	-0.000390	1.632142	-0.664277
H137	H	-0.421268	1.052946	-1.164209
H138	H	0.078732	1.552946	-0.664209
O139	O	-0.486868	1.066822	-0.932052
O140	O	0.013132	1.566822	-0.432052
C141	C	-0.622981	1.028578	-0.909576
C142	C	-0.122981	1.528578	-0.409576
C143	C	-0.568078	1.083469	-0.950003
C144	C	-0.068078	1.583469	-0.450003
H145	H	-0.688651	1.042005	-0.924085
H146	H	-0.188651	1.542005	-0.424085
H147	H	-0.611508	1.040123	-0.850721
H148	H	-0.111508	1.540123	-0.350721
H149	H	-0.609422	0.962918	-0.924029
H150	H	-0.109422	1.462918	-0.424029
H151	H	-0.581605	1.149148	-0.935609
H152	H	-0.081605	1.649148	-0.435609
H153	H	-0.579562	1.071855	-1.008848
H154	H	-0.079562	1.571855	-0.508848
O155	O	-0.290122	1.263436	-1.077092
O156	O	0.209878	1.763436	-0.577092
C157	C	-0.249627	1.304002	-1.190342
C158	C	0.250373	1.804002	-0.690342
C159	C	-0.304502	1.249139	-1.149859
C160	C	0.195498	1.749139	-0.649859
H161	H	-0.261246	1.292474	-1.249181
H162	H	0.238754	1.792474	-0.749181
H163	H	-0.183935	1.290529	-1.175953
H164	H	0.316065	1.790529	-0.675953
H165	H	-0.263116	1.369668	-1.175855
H166	H	0.236884	1.869668	-0.675855
H167	H	-0.291084	1.183455	-1.164324
H168	H	0.208916	1.683455	-0.664324
H169	H	-0.370177	1.262681	-1.164251
H170	H	0.129823	1.762681	-0.664251
