data_functionalizedCrystal
_audit_creation_method	'MofGen! by Chris Wilmer'
_symmetry_space_group_name_H-M	'P1'
_symmetry_Int_Tables_number	1
_symmetry_cell_setting	triclinic
loop_
_symmetry_equiv_pos_as_xyz
  x,y,z
_cell_length_a	13.033293
_cell_length_b	25.639240
_cell_length_c	13.032268
_cell_angle_alpha	97.135339
_cell_angle_beta	89.079182
_cell_angle_gamma	97.200942
loop_
_atom_site_label
_atom_site_type_symbol
_atom_site_fract_x
_atom_site_fract_y
_atom_site_fract_z
Zn1	Zn	1.498386	-0.162665	-0.781409
Zn2	Zn	1.998386	0.337335	-0.281409
Zn3	Zn	1.520093	-0.237801	-0.609402
Zn4	Zn	2.020093	0.262199	-0.109402
Zn5	Zn	1.348247	-0.159904	-0.587586
Zn6	Zn	1.848247	0.340096	-0.087586
Zn7	Zn	1.326334	-0.259596	-0.759432
Zn8	Zn	1.826334	0.240404	-0.259432
O9	O	1.423265	-0.204991	-0.684457
O10	O	1.923265	0.295009	-0.184457
O11	O	1.645188	-0.164666	-0.776919
O12	O	2.145188	0.335334	-0.276919
O13	O	1.515553	-0.217190	-0.462604
O14	O	2.015553	0.282810	0.037396
O15	O	1.368250	-0.087103	-0.613364
O16	O	1.868250	0.412897	-0.113364
O17	O	1.661136	-0.219868	-0.650546
O18	O	2.161136	0.280132	-0.150546
O19	O	1.478556	-0.089132	-0.755765
O20	O	1.978556	0.410868	-0.255765
O21	O	1.389298	-0.159960	-0.446576
O22	O	1.889298	0.340040	0.053424
O23	O	1.201418	-0.181094	-0.592054
O24	O	1.701418	0.318906	-0.092054
O25	O	1.330901	-0.257015	-0.906251
O26	O	1.830901	0.242985	-0.406251
O27	O	1.185318	-0.254338	-0.718309
O28	O	1.685318	0.245662	-0.218309
O29	O	1.457307	-0.185800	-0.922397
O30	O	1.957307	0.314200	-0.422397
O31	O	1.494304	-0.313858	-0.629236
O32	O	1.994304	0.186142	-0.129236
O33	O	1.351950	-0.329872	-0.739463
O34	O	1.851950	0.170128	-0.239463
C35	C	1.156050	-0.219782	-0.650430
C36	C	1.656050	0.280218	-0.150430
C37	C	1.041732	-0.226124	-0.635897
C38	C	1.541732	0.273876	-0.135897
C39	C	0.982861	-0.201695	-0.692041
C40	C	1.482861	0.298305	-0.192041
C41	C	0.864707	-0.208249	-0.677023
C42	C	1.364707	0.291751	-0.177023
C43	C	1.423130	-0.340836	-0.684358
C44	C	1.923130	0.159164	-0.184358
C45	C	1.423162	-0.398948	-0.684362
C46	C	1.923162	0.101052	-0.184362
C47	C	1.480719	-0.760335	-0.758728
C48	C	1.980719	-0.260335	-0.258728
C49	C	1.480747	-0.814940	-0.758753
C50	C	1.980747	-0.314940	-0.258753
O51	O	1.529521	-0.844051	-0.821877
O52	O	2.029521	-0.344051	-0.321877
N53	N	1.423395	-0.841230	-0.684574
N54	N	1.923395	-0.341230	-0.184574
C55	C	1.366004	-0.812913	-0.610373
C56	C	1.866004	-0.312913	-0.110373
O57	O	1.317223	-0.840289	-0.547282
O58	O	1.817223	-0.340289	-0.047282
C59	C	1.365971	-0.758311	-0.610354
C60	C	1.865971	-0.258311	-0.110354
C61	C	1.423334	-0.732023	-0.684530
C62	C	1.923334	-0.232023	-0.184530
C63	C	1.538077	-0.734047	-0.832899
C64	C	2.038077	-0.234047	-0.332899
C65	C	1.538050	-0.679447	-0.832873
C66	C	2.038050	-0.179447	-0.332873
C67	C	1.480666	-0.651134	-0.758675
C68	C	1.980666	-0.151134	-0.258675
C69	C	1.423308	-0.677422	-0.684504
C70	C	1.923308	-0.177422	-0.184504
C71	C	1.308574	-0.729997	-0.536158
C72	C	1.808574	-0.229997	-0.036158
C73	C	1.308546	-0.675391	-0.536145
C74	C	1.808546	-0.175391	-0.036145
C75	C	1.365909	-0.649103	-0.610322
C76	C	1.865909	-0.149103	-0.110322
C77	C	1.365897	-0.594510	-0.610280
C78	C	1.865897	-0.094510	-0.110280
N79	N	1.423249	-0.568219	-0.684459
N80	N	1.923249	-0.068219	-0.184459
C81	C	1.480633	-0.596532	-0.758656
C82	C	1.980633	-0.096532	-0.258656
C83	C	1.366076	-0.927583	-0.610421
C84	C	1.866076	-0.427583	-0.110421
C85	C	1.366114	-0.982183	-0.610434
C86	C	1.866114	-0.482183	-0.110434
C87	C	1.480855	-0.984206	-0.758816
C88	C	1.980855	-0.484206	-0.258816
C89	C	1.480822	-0.929603	-0.758796
C90	C	1.980822	-0.429603	-0.258796
C91	C	1.423427	-0.901293	-0.684599
C92	C	1.923427	-0.401293	-0.184599
C93	C	1.480574	-0.481867	-0.758595
C94	C	1.980574	0.018133	-0.258595
C95	C	1.480546	-0.427261	-0.758559
C96	C	1.980546	0.072739	-0.258559
C97	C	1.365801	-0.425244	-0.610182
C98	C	1.865801	0.074756	-0.110182
C99	C	1.365833	-0.479844	-0.610214
C100	C	1.865833	0.020156	-0.110214
C101	C	1.423222	-0.508155	-0.684429
C102	C	1.923222	-0.008155	-0.184429
O103	O	1.317144	-0.565365	-0.547191
O104	O	1.817144	-0.065365	-0.047191
O105	O	1.529394	-0.569151	-0.821745
O106	O	2.029394	-0.069151	-0.321745
C107	C	1.691523	-0.190143	-0.718618
C108	C	2.191523	0.309857	-0.218618
C109	C	1.805838	-0.183816	-0.733175
C110	C	2.305838	0.316184	-0.233175
C111	C	1.389238	-0.224147	-0.952680
C112	C	1.889238	0.275853	-0.452680
C113	C	1.374738	-0.232310	-1.066981
C114	C	1.874738	0.267690	-0.566981
C115	C	1.423426	-0.068616	-0.684582
C116	C	1.923426	0.431384	-0.184582
C117	C	1.423494	-0.010501	-0.684636
C118	C	1.923494	0.489499	-0.184636
C119	C	1.430817	-0.200713	-1.125928
C120	C	1.930817	0.299287	-0.625928
C121	C	1.415831	-0.209149	-1.244064
C122	C	1.915831	0.290851	-0.744064
C123	C	1.457218	-0.185869	-0.417285
C124	C	1.957218	0.314131	0.082715
C125	C	1.471918	-0.177548	-0.303010
C126	C	1.971918	0.322452	0.196990
H127	H	1.527262	-0.405859	-0.818963
H128	H	2.027262	0.094141	-0.318963
N129	N	1.296429	-0.276410	-1.115965
N130	N	1.796429	0.223590	-0.615965
H131	H	1.296818	-0.276182	-1.193413
H132	H	1.796818	0.223818	-0.693413
H133	H	1.314739	-0.311541	-1.099253
H134	H	1.814739	0.188459	-0.599253
N135	N	1.304250	-1.010528	-0.530419
N136	N	1.804250	-0.510528	-0.030419
H137	H	1.251265	-1.038815	-0.566101
H138	H	1.751265	-0.538815	-0.066101
H139	H	1.352205	-1.027427	-0.488153
H140	H	1.852205	-0.527427	0.011847
H141	H	1.019934	-0.175926	-0.751224
H142	H	1.519934	0.324074	-0.251224
N143	N	1.304189	-0.897045	-0.530374
N144	N	1.804189	-0.397045	-0.030374
H145	H	1.251177	-0.880023	-0.566031
H146	H	1.751177	-0.380023	-0.066031
H147	H	1.267936	-0.922017	-0.483410
H148	H	1.767936	-0.422017	0.016590
H149	H	0.827640	-0.234016	-0.617830
H150	H	1.327640	0.265984	-0.117830
N151	N	0.854924	-0.149677	-0.811575
N152	N	1.354924	0.350323	-0.311575
H153	H	0.932372	-0.149832	-0.811191
H154	H	1.432372	0.350168	-0.311191
H155	H	0.826897	-0.164146	-0.882626
H156	H	1.326897	0.335854	-0.382626
N157	N	0.992641	-0.260251	-0.557486
N158	N	1.492641	0.239749	-0.057486
H159	H	0.915194	-0.260094	-0.557869
H160	H	1.415194	0.239906	-0.057869
H161	H	1.009322	-0.297709	-0.575706
H162	H	1.509322	0.202291	-0.075706
H163	H	1.527579	-1.007268	-0.819233
H164	H	2.027579	-0.507268	-0.319233
H165	H	1.489918	-0.167415	-1.088936
H166	H	1.989918	0.332585	-0.588936
N167	N	1.542458	-0.512398	-0.838648
N168	N	2.042458	-0.012398	-0.338648
H169	H	1.578783	-0.487453	-0.885627
H170	H	2.078783	0.012547	-0.385627
H171	H	1.595410	-0.529423	-0.802917
H172	H	2.095410	-0.029423	-0.302917
H173	H	1.584757	-0.658047	-0.893277
H174	H	2.084757	-0.158047	-0.393277
N175	N	1.337518	-0.253251	-1.293044
N176	N	1.837518	0.246749	-0.793044
H177	H	1.337907	-0.253024	-1.370492
H178	H	1.837907	0.246976	-0.870492
H179	H	1.355828	-0.288383	-1.276332
H180	H	1.855828	0.211617	-0.776332
N181	N	1.599945	-0.764583	-0.912956
N182	N	2.099945	-0.264583	-0.412956
H183	H	1.636261	-0.739637	-0.959940
H184	H	2.136261	-0.239637	-0.459940
H185	H	1.652905	-0.781609	-0.877238
H186	H	2.152905	-0.281609	-0.377238
H187	H	1.527532	-0.908203	-0.819198
H188	H	2.027532	-0.408203	-0.319198
H189	H	1.261863	-0.751391	-0.475755
H190	H	1.761863	-0.251391	0.024245
H191	H	1.261804	-0.652343	-0.475725
H192	H	1.761804	-0.152343	0.024275
H193	H	1.319132	-0.501248	-0.549806
H194	H	1.819132	-0.001248	-0.049806
H195	H	1.319082	-0.402183	-0.549768
H196	H	1.819082	0.097817	-0.049768
N197	N	1.550210	-0.133435	-1.254030
N198	N	2.050210	0.366565	-0.754030
H199	H	1.549817	-0.133660	-1.176581
H200	H	2.049817	0.366340	-0.676581
H201	H	1.621296	-0.138834	-1.282097
H202	H	2.121296	0.361166	-0.782097
