data_functionalizedCrystal
_audit_creation_method	'MofGen! by Chris Wilmer'
_symmetry_space_group_name_H-M	'P1'
_symmetry_Int_Tables_number	1
_symmetry_cell_setting	triclinic
loop_
_symmetry_equiv_pos_as_xyz
  x,y,z
_cell_length_a	20.919309
_cell_length_b	17.052862
_cell_length_c	17.052832
_cell_angle_alpha	45.842616
_cell_angle_beta	77.702601
_cell_angle_gamma	67.963449
loop_
_atom_site_label
_atom_site_type_symbol
_atom_site_fract_x
_atom_site_fract_y
_atom_site_fract_z
Zr1	Zr	0.779205	0.802432	-0.191155
O2	O	0.723535	0.975326	-0.348728
O3	O	0.778572	0.635041	-0.126056
O4	O	0.833722	0.797105	-0.315834
O5	O	0.645015	0.815544	-0.028355
O6	O	0.940771	0.786644	-0.308991
O7	O	0.668386	0.813261	-0.158950
O8	O	0.842119	0.496740	0.030488
O9	O	0.743668	1.105448	-0.367833
O10	O	0.879575	0.694046	-0.113476
O11	O	0.782244	0.703557	-0.021121
O12	O	0.847175	0.894367	-0.244560
O13	O	0.749845	0.903878	-0.152205
Zr14	Zr	0.912663	0.789388	0.028044
Zr15	Zr	0.949936	0.785748	-0.180241
Zr16	Zr	0.741932	0.806073	0.017130
Zr17	Zr	0.811314	1.009962	-0.221625
Zr18	Zr	0.880554	0.581859	0.058514
O19	O	0.913296	0.956780	-0.037056
O20	O	0.966293	0.951603	-0.333210
O21	O	0.670538	0.980503	-0.052574
O22	O	0.968333	0.616495	0.185617
O23	O	1.021331	0.611318	-0.110537
O24	O	0.725575	0.640218	0.170099
O25	O	1.046853	0.776276	-0.134757
O26	O	0.858147	0.794715	0.152723
O27	O	0.751097	0.805176	0.145879
O28	O	1.023482	0.778559	-0.004161
O29	O	0.879376	1.092186	-0.359158
O30	O	0.812492	0.499634	0.196046
O31	O	0.948201	0.486372	0.204722
O32	O	0.977828	0.483478	0.039163
O33	O	0.714040	1.108342	-0.202274
O34	O	0.849749	1.095080	-0.193599
O35	O	0.844693	0.697453	0.081448
O36	O	0.942024	0.687943	-0.010907
O37	O	0.909624	0.888264	-0.141991
O38	O	0.812293	0.897774	-0.049636
C39	C	0.805771	0.536322	-0.043443
C40	C	0.792140	0.448220	-0.030508
C41	C	0.956940	0.180026	-0.186894
C42	C	0.969746	0.262807	-0.199054
C43	C	0.925346	0.309164	-0.156919
C44	C	0.868136	0.272732	-0.102620
C45	C	0.855325	0.189950	-0.090466
C46	C	0.823732	0.319088	-0.060491
C47	C	0.766522	0.282657	-0.006193
C48	C	0.753714	0.199882	0.005960
C49	C	0.798114	0.153525	-0.036176
C50	C	0.836543	0.401870	-0.072645
C51	C	0.734929	0.411795	0.023783
C52	C	0.722122	0.329014	0.035943
C53	C	0.632375	0.816780	-0.095207
C54	C	0.559895	0.823863	-0.099841
C55	C	0.542755	0.722628	-0.033598
C56	C	0.474651	0.729290	-0.037955
C57	C	0.423689	0.837188	-0.108561
C58	C	0.440832	0.938431	-0.174806
C59	C	0.508934	0.931768	-0.170442
C60	C	0.217218	0.862537	-0.125152
C61	C	0.149113	0.869193	-0.129513
C62	C	0.182937	0.660051	0.007340
C63	C	0.251039	0.653397	0.011692
C64	C	0.268176	0.754640	-0.054549
C65	C	0.354076	0.844000	-0.113018
C66	C	0.337787	0.747827	-0.050085
C67	C	1.059493	0.775041	-0.067904
C68	C	1.131973	0.767958	-0.063271
C69	C	0.892557	0.791356	-0.342088
C70	C	0.908380	0.789810	-0.430511
C71	C	0.886097	1.055499	-0.119669
C72	C	0.899729	1.143600	-0.132604
C73	C	0.717077	0.808497	-0.694829
C74	C	0.702210	0.809942	-0.611747
C75	C	0.753751	0.804909	-0.566434
C76	C	0.820162	0.798431	-0.604211
C77	C	0.835032	0.796977	-0.687295
C78	C	0.871706	0.793389	-0.558900
C79	C	0.938117	0.786911	-0.596677
C80	C	0.952984	0.785458	-0.679754
C81	C	0.901443	0.790490	-0.725066
C82	C	0.856836	0.794844	-0.475816
C83	C	0.974792	0.783324	-0.468282
C84	C	0.989659	0.781879	-0.551364
C85	C	0.799311	0.800464	0.178977
C86	C	0.783488	0.802010	0.267400
C87	C	1.019330	0.515452	-0.029791
C88	C	1.078179	0.420267	-0.012222
C89	C	0.759148	0.540876	0.217090
C90	C	0.729693	0.454320	0.318448
C91	C	0.972707	0.520006	0.230742
C92	C	1.015733	0.426367	0.336733
C93	C	0.719161	1.071814	-0.393853
C94	C	0.676136	1.165453	-0.499844
C95	C	0.672538	1.076368	-0.133320
C96	C	0.613689	1.171553	-0.150889
C97	C	0.932720	1.050944	-0.380201
C98	C	0.962175	1.137501	-0.481559
C99	C	1.073219	0.378753	-0.057521
C100	C	1.128513	0.289329	-0.041035
C101	C	1.188764	0.241414	0.020756
C102	C	1.193723	0.282937	0.066055
C103	C	1.138432	0.372365	0.049562
C104	C	0.748457	0.410486	0.419595
C105	C	0.720779	0.329170	0.514837
C106	C	0.674341	0.291682	0.508931
C107	C	0.655575	0.335524	0.407772
C108	C	0.683249	0.416845	0.312531
C109	C	1.086751	0.377428	0.338299
C110	C	1.127188	0.289455	0.437880
C111	C	1.096604	0.250417	0.535893
C112	C	1.025579	0.299365	0.534323
C113	C	0.985145	0.387342	0.434743
C114	C	0.605119	1.214402	-0.501412
C115	C	0.564686	1.302401	-0.600996
C116	C	0.595270	1.341444	-0.699010
C117	C	0.666294	1.292490	-0.697440
C118	C	0.706727	1.204499	-0.597857
C119	C	0.618652	1.213076	-0.105600
C120	C	0.563366	1.302523	-0.122113
C121	C	0.503116	1.350440	-0.183907
C122	C	0.498156	1.308914	-0.229201
C123	C	0.553443	1.219474	-0.212695
C124	C	1.008612	1.174962	-0.475617
C125	C	1.036300	1.256278	-0.570843
C126	C	1.017546	1.300138	-0.672010
C127	C	0.971107	1.262669	-0.677949
C128	C	0.943423	1.181348	-0.582723
H129	H	0.993083	0.142283	-0.221204
H130	H	0.449093	1.347941	-0.279515
H131	H	0.549392	1.185669	-0.249573
H132	H	0.292534	0.565535	0.069167
H133	H	0.231164	0.944976	-0.179108
H134	H	1.016325	0.292467	-0.243265
H135	H	1.124461	0.255533	-0.077925
H136	H	1.242787	0.243912	0.116365
H137	H	0.787693	0.086112	-0.026272
H138	H	0.927317	0.427178	0.433483
H139	H	0.736068	0.293482	0.597195
H140	H	0.651812	0.225464	0.586491
H141	H	1.023888	1.139264	-0.393251
H142	H	0.399332	1.026284	-0.232289
H143	H	0.691190	1.324290	-0.777255
H144	H	0.802764	0.800118	-0.445066
H145	H	0.617761	0.304989	0.402980
H146	H	0.707126	0.170231	0.050163
H147	H	0.312575	0.931851	-0.170505
H148	H	0.675541	0.299341	0.080152
H149	H	0.698773	0.449542	0.058090
H150	H	0.741643	0.806086	-0.498785
H151	H	1.040093	1.366355	-0.749541
H152	H	1.016761	0.779223	-0.431387
H153	H	0.506857	1.342245	-0.602254
H154	H	0.580203	1.182620	-0.421613
H155	H	0.584245	0.634765	0.023901
H156	H	0.562340	1.413093	-0.780089
H157	H	0.883123	0.431525	-0.116856
H158	H	0.648139	0.815215	-0.580991
H159	H	0.764552	1.164645	-0.596593
H160	H	0.667704	1.174068	-0.055276
H161	H	0.667968	0.452524	0.230178
H162	H	0.460700	0.646853	0.015988
H163	H	1.142478	0.406155	0.086458
H164	H	1.074110	1.286777	-0.565987
H165	H	0.168976	0.577625	0.061270
H166	H	0.107619	0.957061	-0.187014
H167	H	0.786268	0.441000	0.424424
H168	H	1.111665	0.409199	0.258502
H169	H	1.233780	0.168596	0.034178
H170	H	0.458103	1.423267	-0.197339
H171	H	0.675119	0.812584	-0.731722
H172	H	1.185017	0.249610	0.439139
H173	H	0.913546	0.789319	-0.792722
H174	H	0.935777	0.376567	-0.166823
H175	H	0.955843	1.298392	-0.760333
H176	H	0.567417	1.336318	-0.085221
H177	H	0.905610	1.150856	-0.587577
H178	H	0.522884	1.014204	-0.224372
H179	H	1.129536	0.178779	0.616970
H180	H	0.379282	0.659977	0.007406
H181	H	1.007062	0.780170	-0.710503
H182	H	1.024168	0.417764	-0.107849
H183	H	1.043731	0.776604	-0.582132
H184	H	1.000686	0.267567	0.614139
