data_functionalizedCrystal
_audit_creation_method	'MofGen! by Chris Wilmer'
_symmetry_space_group_name_H-M	'P1'
_symmetry_Int_Tables_number	1
_symmetry_cell_setting	triclinic
loop_
_symmetry_equiv_pos_as_xyz
  x,y,z
_cell_length_a	21.395362
_cell_length_b	13.033304
_cell_length_c	21.395355
_cell_angle_alpha	97.216878
_cell_angle_beta	89.979451
_cell_angle_gamma	82.802461
loop_
_atom_site_label
_atom_site_type_symbol
_atom_site_fract_x
_atom_site_fract_y
_atom_site_fract_z
Zn1	Zn	-0.128019	-1.597779	-0.476158
Zn2	Zn	0.371981	-1.097779	0.023842
Zn3	Zn	-0.232791	-1.597619	-0.371365
Zn4	Zn	0.267209	-1.097619	0.128635
Zn5	Zn	-0.141309	-1.422990	-0.358059
Zn6	Zn	0.358691	-0.922990	0.141941
Zn7	Zn	-0.246057	-1.422942	-0.462778
Zn8	Zn	0.253943	-0.922942	0.037222
O9	O	-0.187044	-1.510332	-0.417090
O10	O	0.312956	-1.010332	0.082910
O11	O	-0.130803	-1.744010	-0.473426
O12	O	0.369197	-1.244010	0.026574
O13	O	-0.220666	-1.574407	-0.281918
O14	O	0.279334	-1.074407	0.218082
O15	O	-0.051862	-1.446264	-0.373757
O16	O	0.448138	-0.946264	0.126243
O17	O	-0.207778	-1.743892	-0.396434
O18	O	0.292222	-1.243892	0.103566
O19	O	-0.042097	-1.574680	-0.460524
O20	O	0.457903	-1.074680	0.039476
O21	O	-0.153455	-1.446109	-0.272143
O22	O	0.346545	-0.946109	0.227857
O23	O	-0.166318	-1.276731	-0.360782
O24	O	0.333682	-0.776731	0.139218
O25	O	-0.230388	-1.446181	-0.552234
O26	O	0.269612	-0.946181	-0.052234
O27	O	-0.243276	-1.276696	-0.437718
O28	O	0.256724	-0.776696	0.062282
O29	O	-0.143666	-1.574633	-0.562065
O30	O	0.356334	-1.074633	-0.062065
O31	O	-0.322235	-1.574360	-0.383460
O32	O	0.177765	-1.074360	0.116540
O33	O	-0.331981	-1.446026	-0.450620
O34	O	0.168019	-0.946026	0.049380
C35	C	-0.207679	-1.238792	-0.396355
C36	C	0.292321	-0.738792	0.103645
C37	C	-0.216522	-1.122626	-0.387499
C38	C	0.283478	-0.622626	0.112501
C39	C	-0.182438	-1.070893	-0.421703
C40	C	0.317562	-0.570893	0.078297
C41	C	-0.191577	-0.950829	-0.412551
C42	C	0.308423	-0.450829	0.087449
C43	C	-0.349842	-1.510199	-0.417048
C44	C	0.150158	-1.010199	0.082952
C45	C	-0.419480	-1.510237	-0.417058
C46	C	0.080520	-1.010237	0.082942
C47	C	-0.447055	-1.577065	-0.462263
C48	C	0.052945	-1.077065	0.037737
C49	C	-0.512487	-1.577102	-0.462281
C50	C	-0.012487	-1.077102	0.037719
C51	C	-0.550342	-1.510322	-0.417084
C52	C	-0.050342	-1.010322	0.082916
C53	C	-0.522760	-1.443481	-0.371875
C54	C	-0.022760	-0.943481	0.128125
C55	C	-0.457329	-1.443438	-0.371862
C56	C	0.042671	-0.943438	0.128138
C57	C	-0.654661	-1.502186	-0.360024
C58	C	-0.154661	-1.002186	0.139976
C59	C	-0.720090	-1.502236	-0.360037
C60	C	-0.220090	-1.002236	0.139963
C61	C	-0.752153	-1.510446	-0.417123
C62	C	-0.252153	-1.010446	0.082877
C63	C	-0.718777	-1.518628	-0.474201
C64	C	-0.218777	-1.018628	0.025799
C65	C	-0.653347	-1.518586	-0.474188
C66	C	-0.153347	-1.018586	0.025812
C67	C	-0.621291	-1.510359	-0.417093
C68	C	-0.121291	-1.010359	0.082907
C69	C	-0.850677	-1.577317	-0.462352
C70	C	-0.350677	-1.077317	0.037648
C71	C	-0.916111	-1.577346	-0.462371
C72	C	-0.416111	-1.077346	0.037629
C73	C	-0.926383	-1.443731	-0.371959
C74	C	-0.426383	-0.943731	0.128041
C75	C	-0.860950	-1.443696	-0.371946
C76	C	-0.360950	-0.943696	0.128054
C77	C	-0.823101	-1.510495	-0.417142
C78	C	-0.323101	-1.010495	0.082858
C79	C	-0.023608	-1.510495	-0.417148
C80	C	0.476392	-1.010495	0.082852
C81	C	0.046038	-1.510564	-0.417173
C82	C	0.546038	-1.010564	0.082827
C83	C	-0.187025	-1.510419	-0.580520
C84	C	0.312975	-1.010419	-0.080520
C85	C	-0.187016	-1.510456	-0.650164
C86	C	0.312984	-1.010456	-0.150164
C87	C	-0.166325	-0.782933	-0.437902
C88	C	0.333675	-0.282933	0.062098
C89	C	-0.157488	-0.899099	-0.446761
C90	C	0.342512	-0.399099	0.053239
C91	C	-0.141859	-1.577338	-0.687997
C92	C	0.358141	-1.077338	-0.187997
C93	C	-0.141832	-1.577337	-0.753432
C94	C	0.358168	-1.077337	-0.253432
C95	C	-0.186973	-1.510464	-0.781033
C96	C	0.313027	-1.010464	-0.281033
C97	C	-0.232135	-1.443569	-0.743192
C98	C	0.267865	-0.943569	-0.243192
C99	C	-0.232156	-1.443565	-0.677757
C100	C	0.267844	-0.943565	-0.177757
C101	C	-0.244019	-1.502166	-0.884063
C102	C	0.255981	-1.002166	-0.384063
C103	C	-0.243998	-1.502177	-0.949497
C104	C	0.256002	-1.002177	-0.449497
C105	C	-0.186906	-1.510471	-0.982854
C106	C	0.313094	-1.010471	-0.482854
C107	C	-0.129832	-1.518775	-0.950771
C108	C	0.370168	-1.018775	-0.450771
C109	C	-0.129854	-1.518771	-0.885337
C110	C	0.370146	-1.018771	-0.385337
C111	C	-0.186954	-1.510461	-0.851985
C112	C	0.313046	-1.010461	-0.351985
C113	C	-0.141716	-1.577355	-1.091640
C114	C	0.358284	-1.077355	-0.591640
C115	C	-0.141689	-1.577346	-1.157076
C116	C	0.358311	-1.077346	-0.657076
C117	C	-0.231996	-1.443584	-1.146834
C118	C	0.268004	-0.943584	-0.646834
C119	C	-0.232019	-1.443587	-1.081399
C120	C	0.267981	-0.943587	-0.581399
C121	C	-0.186879	-1.510478	-1.053806
C122	C	0.313121	-1.010478	-0.553806
C123	C	-0.187013	-1.510306	-0.254300
C124	C	0.312987	-1.010306	0.245700
C125	C	-0.186830	-1.510472	-0.184672
C126	C	0.313170	-1.010472	0.315328
H127	H	-0.416240	-1.631454	-0.499066
H128	H	0.083760	-1.131454	0.000934
N129	N	-0.109870	-0.958148	-0.494534
N130	N	0.390130	-0.458148	0.005466
H131	H	-0.066519	-0.939224	-0.483453
H132	H	0.433481	-0.439224	0.016547
H133	H	-0.110143	-1.035528	-0.494283
H134	H	0.389857	-0.535528	0.005717
H135	H	-0.252468	-1.078029	-0.351438
H136	H	0.247532	-0.578029	0.148562
H137	H	-0.747259	-1.495580	-0.313561
H138	H	-0.247259	-0.995580	0.186439
H139	H	-0.534944	-1.631512	-0.499099
H140	H	-0.034944	-1.131512	0.000901
H141	H	-0.938561	-1.631766	-0.499185
H142	H	-0.438561	-1.131766	0.000815
N143	N	-0.831203	-1.371625	-0.323184
N144	N	-0.331203	-0.871625	0.176816
H145	H	-0.865111	-1.329326	-0.294552
H146	H	-0.365111	-0.829326	0.205448
H147	H	-0.800811	-1.414179	-0.297456
H148	H	-0.300811	-0.914179	0.202544
N149	N	-0.967198	-1.371695	-0.323209
N150	N	-0.467198	-0.871695	0.176791
H151	H	-0.998042	-1.323258	-0.344953
H152	H	-0.498042	-0.823258	0.155047
H153	H	-0.991066	-1.414279	-0.297457
H154	H	-0.491066	-0.914279	0.202543
H155	H	-0.146489	-1.115490	-0.457760
H156	H	0.353511	-0.615490	0.042240
N157	N	-0.617345	-1.527396	-0.535742
N158	N	-0.117345	-1.027396	-0.035742
H159	H	-0.623539	-1.595021	-0.562266
H160	H	-0.123539	-1.095021	-0.062266
H161	H	-0.633365	-1.466894	-0.559084
H162	H	-0.133365	-0.966894	-0.059084
N163	N	-0.753348	-1.527491	-0.535780
N164	N	-0.253348	-1.027491	-0.035780
H165	H	-0.799863	-1.526272	-0.527130
H166	H	-0.299863	-1.026272	-0.027130
H167	H	-0.746524	-1.467024	-0.559143
H168	H	-0.246524	-0.967024	-0.059143
H169	H	-0.083382	-1.525530	-0.859217
H170	H	0.416618	-1.025530	-0.359217
N171	N	-0.280871	-1.371422	-0.636957
N172	N	0.219129	-0.871422	-0.136957
H173	H	-0.306693	-1.413861	-0.613056
H174	H	0.193307	-0.913861	-0.113056
H175	H	-0.259052	-1.323026	-0.606140
H176	H	0.240948	-0.823026	-0.106140
H177	H	-0.083343	-1.525530	-0.977929
H178	H	0.416657	-1.025530	-0.477929
H179	H	-0.819859	-1.631706	-0.499155
H180	H	-0.319859	-1.131706	0.000845
H181	H	-0.227525	-0.906237	-0.376488
H182	H	0.272475	-0.406237	0.123512
H183	H	-0.628561	-1.495497	-0.313534
H184	H	-0.128561	-0.995497	0.186466
H185	H	-0.553586	-1.389105	-0.335076
H186	H	-0.053586	-0.889105	0.164924
H187	H	-0.434878	-1.389018	-0.335050
H188	H	0.065122	-0.889018	0.164950
N189	N	-0.093174	-1.649479	-0.658236
N190	N	0.406826	-1.149479	-0.158236
H191	H	-0.064562	-1.691848	-0.692136
H192	H	0.435438	-1.191848	-0.192136
H193	H	-0.067416	-1.606966	-0.627835
H194	H	0.432584	-1.106966	-0.127835
H195	H	-0.105056	-1.631798	-0.784241
H196	H	0.394944	-1.131798	-0.284241
H197	H	-0.290471	-1.495421	-0.975615
H198	H	0.209529	-0.995421	-0.475615
N199	N	-0.093031	-1.649493	-1.061873
N200	N	0.406969	-1.149493	-0.561873
H201	H	-0.064416	-1.691858	-1.095771
H202	H	0.435584	-1.191858	-0.595771
H203	H	-0.067277	-1.606979	-1.031468
H204	H	0.432723	-1.106979	-0.531468
H205	H	-0.104912	-1.631808	-1.187879
H206	H	0.395088	-1.131808	-0.687879
N207	N	-0.280681	-1.371446	-1.176593
N208	N	0.219319	-0.871446	-0.676593
H209	H	-0.273815	-1.381594	-1.223787
H210	H	0.226185	-0.881594	-0.723787
H211	H	-0.324201	-1.387665	-1.166398
H212	H	0.175799	-0.887665	-0.666398
H213	H	-0.268794	-1.389131	-1.050595
H214	H	0.231206	-0.889131	-0.550595
N215	N	-0.305601	-1.493234	-0.848089
N216	N	0.194399	-0.993234	-0.348089
H217	H	-0.341751	-1.487990	-0.878342
H218	H	0.158249	-0.987990	-0.378342
H219	H	-0.306579	-1.556913	-0.825818
H220	H	0.193421	-1.056913	-0.325818
N221	N	-0.280814	-1.371424	-0.772955
N222	N	0.219186	-0.871424	-0.272955
H223	H	-0.273948	-1.381573	-0.820149
H224	H	0.226052	-0.881573	-0.320149
H225	H	-0.324337	-1.387630	-0.762759
H226	H	0.175663	-0.887630	-0.262759
