data_functionalizedCrystal
_audit_creation_method	'MofGen! by Chris Wilmer'
_symmetry_space_group_name_H-M	'P1'
_symmetry_Int_Tables_number	1
_symmetry_cell_setting	triclinic
loop_
_symmetry_equiv_pos_as_xyz
  x,y,z
_cell_length_a	12.594517
_cell_length_b	16.625546
_cell_length_c	16.625539
_cell_angle_alpha	89.969603
_cell_angle_beta	90.020900
_cell_angle_gamma	89.977732
loop_
_atom_site_label
_atom_site_type_symbol
_atom_site_fract_x
_atom_site_fract_y
_atom_site_fract_z
Zn1	Zn	1.627215	0.321004	0.455905
Zn2	Zn	2.127215	0.821004	0.955905
Zn3	Zn	1.627087	0.455848	0.321067
Zn4	Zn	2.127087	0.955848	0.821067
Zn5	Zn	1.449220	0.321032	0.321084
Zn6	Zn	1.949220	0.821032	0.821084
Zn7	Zn	1.449181	0.455798	0.455856
Zn8	Zn	1.949181	0.955798	0.955856
O9	O	1.538176	0.388421	0.388478
O10	O	2.038176	0.888421	0.888478
O11	O	1.776144	0.338901	0.438031
O12	O	2.276144	0.838901	0.938031
O13	O	1.603456	0.437996	0.208237
O14	O	2.103456	0.937996	0.708237
O15	O	1.472901	0.208196	0.338996
O16	O	1.972901	0.708196	0.838996
O17	O	1.776050	0.437969	0.338967
O18	O	2.276050	0.937969	0.838967
O19	O	1.603673	0.208176	0.438048
O20	O	2.103673	0.708176	0.938048
O21	O	1.472778	0.338948	0.208250
O22	O	1.972778	0.838948	0.708250
O23	O	1.300269	0.338900	0.338949
O24	O	1.800269	0.838900	0.838949
O25	O	1.472835	0.437885	0.568695
O26	O	1.972835	0.937885	1.068695
O27	O	1.300241	0.437912	0.437965
O28	O	1.800241	0.937912	0.937965
O29	O	1.603636	0.338853	0.568731
O30	O	2.103636	0.838853	1.068731
O31	O	1.603418	0.568673	0.338919
O32	O	2.103418	1.068673	0.838919
O33	O	1.472711	0.568637	0.437948
O34	O	1.972711	1.068637	0.937948
C35	C	1.261635	0.388404	0.388454
C36	C	1.761635	0.888404	0.888454
C37	C	1.143329	0.388417	0.388463
C38	C	1.643329	0.888417	0.888463
C39	C	1.538075	0.597912	0.388444
C40	C	2.038075	1.097912	0.888444
C41	C	1.538129	0.687533	0.388457
C42	C	2.038129	1.187533	0.888457
C43	C	1.538245	0.388361	0.598787
C44	C	2.038245	0.888361	1.098787
C45	C	1.538275	0.388335	0.688408
C46	C	2.038275	0.888335	1.188408
C47	C	1.074061	0.334491	0.334711
C48	C	1.574061	0.834491	0.834711
C49	C	1.003239	0.408038	0.314872
C50	C	1.503239	0.908038	0.814872
C51	C	1.003352	0.314905	0.408316
C52	C	1.503352	0.814905	0.908316
C53	C	1.074066	0.462003	0.368586
C54	C	1.574066	0.962003	0.868586
C55	C	1.074185	0.368821	0.462064
C56	C	1.574185	0.868821	0.962064
C57	C	1.003395	0.442419	0.442253
C58	C	1.503395	0.942419	0.942253
C59	C	1.815797	0.388437	0.388502
C60	C	2.315797	0.888437	0.888502
C61	C	1.934102	0.388445	0.388513
C62	C	2.434102	0.888445	0.888513
C63	C	1.538306	0.178112	0.388530
C64	C	2.038306	0.678112	0.888530
C65	C	1.538361	0.088491	0.388552
C66	C	2.038361	0.588491	0.888552
C67	C	1.538315	1.015708	0.388541
C68	C	2.038315	1.515708	0.888541
C69	C	1.538260	0.924400	0.388520
C70	C	2.038260	1.424400	0.888520
C71	C	1.538221	0.851623	0.388498
C72	C	2.038221	1.351623	0.888498
C73	C	1.538168	0.760309	0.388478
C74	C	2.038168	1.260309	0.888478
C75	C	1.538168	0.388422	0.178987
C76	C	2.038168	0.888422	0.678987
C77	C	1.538345	0.388221	0.089367
C78	C	2.038345	0.888221	0.589367
C79	C	1.538324	0.388245	1.016584
C80	C	2.038324	0.888245	1.516584
C81	C	1.538307	0.388272	0.925276
C82	C	2.038307	0.888272	1.425276
C83	C	1.538300	0.388290	0.852499
C84	C	2.038300	0.888290	1.352499
C85	C	1.538282	0.388317	0.761185
C86	C	2.038282	0.888317	1.261185
H87	H	0.972079	0.424631	0.252651
H88	H	1.472079	0.924631	0.752651
C89	C	1.115843	0.546028	0.345825
C90	C	1.615843	1.046028	0.845825
C91	C	1.236247	0.561530	0.341558
C92	C	1.736247	1.061530	0.841558
C93	C	1.278026	0.645551	0.318793
C94	C	1.778026	1.145551	0.818793
C95	C	1.199401	0.714071	0.300297
C96	C	1.699401	1.214071	0.800297
C97	C	1.078990	0.698571	0.304564
C98	C	1.578990	1.198571	0.804564
C99	C	1.037210	0.614549	0.327328
C100	C	1.537210	1.114549	0.827328
H101	H	1.294457	0.510806	0.355250
H102	H	1.794457	1.010806	0.855250
H103	H	1.367163	0.657025	0.315635
H104	H	1.867163	1.157025	0.815635
H105	H	1.230329	0.776268	0.283445
H106	H	1.730329	1.276268	0.783445
H107	H	1.020780	0.749294	0.290871
H108	H	1.520780	1.249294	0.790871
H109	H	0.948073	0.603075	0.330487
H110	H	1.448073	1.103075	0.830487
C111	C	1.116294	0.346376	0.546103
C112	C	1.616294	0.846376	1.046103
C113	C	1.086831	0.398290	0.619464
C114	C	1.586831	0.898290	1.119464
C115	C	1.128928	0.375834	0.703507
C116	C	1.628928	0.875834	1.203507
C117	C	1.200487	0.301464	0.714190
C118	C	1.700487	0.801464	1.214190
C119	C	1.229954	0.249545	0.640828
C120	C	1.729954	0.749545	1.140828
C121	C	1.187857	0.272001	0.556784
C122	C	1.687857	0.772001	1.056784
H123	H	1.033855	0.453348	0.611558
H124	H	1.533855	0.953348	1.111558
H125	H	1.107114	0.414268	0.757815
H126	H	1.607114	0.914268	1.257815
H127	H	1.231650	0.284840	0.776404
H128	H	1.731650	0.784840	1.276404
H129	H	1.282930	0.194487	0.648734
H130	H	1.782930	0.694487	1.148734
H131	H	1.209671	0.233567	0.502476
H132	H	1.709671	0.733567	1.002476
H133	H	0.972234	0.252734	0.425059
H134	H	1.472234	0.752734	0.925059
H135	H	0.972562	0.488087	0.487730
H136	H	1.472562	0.988087	0.987730
H137	H	1.105089	0.288932	0.289199
H138	H	1.605089	0.788932	0.789199
