data_functionalizedCrystal
_audit_creation_method	'MofGen! by Chris Wilmer'
_symmetry_space_group_name_H-M	'P1'
_symmetry_Int_Tables_number	1
_symmetry_cell_setting	triclinic
loop_
_symmetry_equiv_pos_as_xyz
  x,y,z
_cell_length_a	19.805407
_cell_length_b	29.839125
_cell_length_c	19.805404
_cell_angle_alpha	89.982059
_cell_angle_beta	90.028597
_cell_angle_gamma	89.982174
loop_
_atom_site_label
_atom_site_type_symbol
_atom_site_fract_x
_atom_site_fract_y
_atom_site_fract_z
Zn1	Zn	1.034679	-0.254075	-0.269572
Zn2	Zn	1.034601	-0.178944	-0.382737
Zn3	Zn	0.921506	-0.178950	-0.269565
Zn4	Zn	0.921452	-0.254038	-0.382723
O5	O	0.978060	-0.216502	-0.326149
O6	O	1.129385	-0.244121	-0.284592
O7	O	1.019589	-0.116078	-0.367727
O8	O	0.936575	-0.188933	-0.174850
O9	O	1.129328	-0.188923	-0.367734
O10	O	1.019722	-0.244127	-0.174854
O11	O	0.936499	-0.116082	-0.284581
O12	O	0.826783	-0.188897	-0.284567
O13	O	0.936481	-0.316910	-0.367710
O14	O	0.826742	-0.244064	-0.367704
O15	O	1.019669	-0.316937	-0.284578
O16	O	1.019536	-0.188888	-0.477451
O17	O	0.936405	-0.244059	-0.477441
C18	C	0.802204	-0.216478	-0.326134
C19	C	0.726972	-0.216478	-0.326144
C20	C	0.265177	-0.245211	-0.369519
C21	C	0.335866	-0.245201	-0.369518
C22	C	0.371210	-0.216519	-0.326165
C23	C	0.335862	-0.187841	-0.282816
C24	C	0.265175	-0.187849	-0.282821
C25	C	0.620935	-0.187810	-0.282795
C26	C	0.691627	-0.187805	-0.282792
C27	C	0.691626	-0.245162	-0.369493
C28	C	0.620939	-0.245170	-0.369498
C29	C	0.585597	-0.216491	-0.326151
C30	C	0.508949	-0.216501	-0.326153
C31	C	0.447857	-0.216511	-0.326159
C32	C	0.978078	-0.333680	-0.326143
C33	C	0.978086	-0.383614	-0.326140
C34	C	1.021447	-0.693275	-0.282741
C35	C	1.021481	-0.880948	-0.282683
O36	O	1.058298	-0.905227	-0.245847
N37	N	0.978175	-0.904400	-0.325959
C38	C	0.934855	-0.880930	-0.369250
O39	O	0.898018	-0.905184	-0.406053
C40	C	0.934819	-0.693258	-0.369304
C41	C	0.978132	-0.669809	-0.326029
C42	C	1.064756	-0.669826	-0.239469
C43	C	1.064750	-0.622910	-0.239487
C44	C	1.021435	-0.599444	-0.282775
C45	C	0.978126	-0.622893	-0.326047
C46	C	0.891496	-0.669789	-0.412591
C47	C	0.891490	-0.622868	-0.412599
C48	C	0.934803	-0.599419	-0.369325
C49	C	0.934804	-0.552512	-0.369353
N50	N	0.978110	-0.529060	-0.326077
C51	C	1.021425	-0.552526	-0.282788
C52	C	0.934879	-0.979461	-0.369220
C53	C	0.934888	-1.026379	-0.369207
C54	C	1.021513	-1.026393	-0.282639
C55	C	1.021506	-0.979475	-0.282655
C56	C	0.978184	-0.956009	-0.325943
C57	C	1.021409	-0.454000	-0.282828
C58	C	1.021401	-0.407081	-0.282852
C59	C	0.934774	-0.407070	-0.369417
C60	C	0.934784	-0.453986	-0.369396
C61	C	0.978104	-0.477450	-0.326097
O62	O	0.898001	-0.528203	-0.406165
O63	O	1.058247	-0.528265	-0.245980
C64	C	1.021453	-0.740190	-0.282723
C65	C	0.978144	-0.763640	-0.325994
C66	C	0.934829	-0.740173	-0.369283
C67	C	0.978154	-0.810558	-0.325982
C68	C	1.021469	-0.834024	-0.282693
C69	C	1.064775	-0.810572	-0.239417
C70	C	1.064769	-0.763657	-0.239434
C71	C	0.891524	-0.763625	-0.412560
C72	C	0.891534	-0.810541	-0.412539
C73	C	0.934849	-0.834007	-0.369250
C74	C	1.154602	-0.216526	-0.326165
C75	C	1.229834	-0.216536	-0.326172
C76	C	0.977974	-0.216479	-0.502005
C77	C	0.978000	-0.216484	-0.577237
C78	C	0.978080	-0.099779	-0.326106
C79	C	0.978204	-0.049845	-0.325918
C80	C	1.021446	-0.245304	-1.038972
C81	C	1.021420	-0.245294	-0.968283
C82	C	0.978150	-0.216529	-0.932999
C83	C	0.934910	-0.187770	-0.968407
C84	C	0.934941	-0.187779	-1.039094
C85	C	0.934786	-0.187735	-0.683333
C86	C	0.934757	-0.187730	-0.612641
C87	C	1.021265	-0.245251	-0.612523
C88	C	1.021296	-0.245259	-0.683210
C89	C	0.978058	-0.216498	-0.718611
C90	C	0.978089	-0.216509	-0.795260
C91	C	0.978116	-0.216520	-0.856352
C92	C	0.978164	-0.216534	-0.149606
C93	C	0.978208	-0.216548	-0.074374
H94	H	0.720410	-0.268513	-0.404789
H95	H	0.236405	-0.268570	-0.404819
H96	H	1.100018	-0.603822	-0.204247
H97	H	0.364639	-0.268550	-0.404818
H98	H	1.100046	-0.829686	-0.204172
H99	H	0.364645	-0.164486	-0.247520
H100	H	0.856265	-0.829629	-0.447785
H101	H	0.856204	-0.603765	-0.447843
H102	H	0.720402	-0.164448	-0.247486
H103	H	0.899510	-0.387955	-0.404664
H104	H	1.056474	-0.268668	-0.583691
H105	H	1.100038	-0.744568	-0.204195
H106	H	1.056628	-0.268709	-0.939458
H107	H	0.856226	-0.688874	-0.447829
H108	H	0.592165	-0.268527	-0.404798
H109	H	1.056527	-0.268684	-0.711935
H110	H	0.592168	-0.164456	-0.247502
H111	H	0.899521	-0.164305	-0.583914
H112	H	0.899601	-0.960360	-0.404474
H113	H	0.236399	-0.164500	-0.247521
H114	H	1.056674	-0.387990	-0.247612
H115	H	0.856252	-0.744524	-0.447812
H116	H	1.056682	-0.473099	-0.247567
H117	H	1.100029	-0.688927	-0.204214
H118	H	1.056774	-0.960385	-0.247416
H119	H	0.899579	-0.164316	-0.712149
H120	H	1.056782	-1.045507	-0.247392
H121	H	0.899626	-1.045467	-0.404453
H122	H	0.899522	-0.473079	-0.404640
H123	H	1.056675	-0.268732	-1.067695
H124	H	0.899682	-0.164347	-0.939674
H125	H	0.899731	-0.164362	-1.067918
