data_functionalizedCrystal
_audit_creation_method	'MofGen! by Chris Wilmer'
_symmetry_space_group_name_H-M	'P1'
_symmetry_Int_Tables_number	1
_symmetry_cell_setting	triclinic
loop_
_symmetry_equiv_pos_as_xyz
  x,y,z
_cell_length_a	19.077105
_cell_length_b	19.077068
_cell_length_c	11.169409
_cell_angle_alpha	92.259152
_cell_angle_beta	87.678611
_cell_angle_gamma	90.115316
loop_
_atom_site_label
_atom_site_type_symbol
_atom_site_fract_x
_atom_site_fract_y
_atom_site_fract_z
Zn1	Zn	1.063029	-0.322913	-0.773436
Zn2	Zn	1.058206	-0.440439	-0.580445
Zn3	Zn	0.945511	-0.318226	-0.564397
Zn4	Zn	0.940764	-0.435654	-0.772715
O5	O	1.001878	-0.379308	-0.672748
O6	O	1.160721	-0.342467	-0.754853
O7	O	1.043225	-0.424267	-0.410367
O8	O	0.965105	-0.220518	-0.585712
O9	O	1.157178	-0.428812	-0.613064
O10	O	1.051445	-0.223962	-0.739292
O11	O	0.960428	-0.334478	-0.398576
O12	O	0.846549	-0.329839	-0.585013
O13	O	0.957015	-0.420658	-0.940760
O14	O	0.843062	-0.416113	-0.738063
O15	O	1.046842	-0.337828	-0.941290
O16	O	1.038622	-0.538133	-0.612365
O17	O	0.952338	-0.534618	-0.753624
C18	C	0.819309	-0.371949	-0.659719
C19	C	0.741205	-0.368818	-0.654174
C20	C	0.702712	-0.412333	-0.731139
C21	C	0.629325	-0.409382	-0.725934
C22	C	0.594433	-0.362918	-0.643759
C23	C	0.632932	-0.319398	-0.566791
C24	C	0.706317	-0.322346	-0.572002
C25	C	0.375147	-0.349273	-0.619647
C26	C	0.301756	-0.346329	-0.614439
C27	C	0.298154	-0.436312	-0.773584
C28	C	0.371541	-0.439259	-0.778783
C29	C	0.410034	-0.395737	-0.701820
N30	N	0.519420	-0.359902	-0.638435
N31	N	0.485045	-0.398750	-0.707151
C32	C	0.994461	-0.561872	-0.684685
C33	C	0.991352	-0.639977	-0.689837
C34	C	1.034850	-0.678478	-0.618777
C35	C	1.031931	-0.751866	-0.623629
C36	C	0.985509	-0.786750	-0.699536
C37	C	0.942009	-0.748243	-0.770604
C38	C	0.944933	-0.674857	-0.765757
C39	C	0.971947	-1.006037	-0.721918
C40	C	0.969025	-1.079428	-0.726757
C41	C	1.058948	-1.083046	-0.579783
C42	C	1.061865	-1.009658	-0.574937
C43	C	1.018368	-0.971158	-0.646010
N44	N	0.982522	-0.861764	-0.704495
N45	N	1.021359	-0.896145	-0.641056
C46	C	1.185159	-0.386696	-0.685829
C47	C	1.263262	-0.389844	-0.691403
C48	C	1.001937	-0.379232	-0.985790
C49	C	1.001962	-0.379200	-1.119189
C50	C	1.009342	-0.196031	-0.660792
C51	C	1.012523	-0.117930	-0.655697
C52	C	1.001861	-0.379334	-0.360924
C53	C	1.001980	-0.379174	-0.227522
H54	H	0.266806	-0.471745	-0.836245
H55	H	1.094362	-1.114400	-0.521921
F56	F	1.078230	-0.792839	-0.548000
F57	F	1.111281	-0.972537	-0.494160
H58	H	0.909513	-0.643510	-0.823624
F59	F	1.084255	-0.641358	-0.537977
H60	H	0.931232	-1.107829	-0.788592
F61	F	0.264622	-0.296878	-0.526966
F62	F	0.739840	-0.461790	-0.818596
H63	H	0.597986	-0.444817	-0.788606
H64	H	0.406478	-0.313839	-0.556969
F65	F	0.925652	-0.965071	-0.797559
H66	H	0.604517	-0.281563	-0.499887
H67	H	0.904215	-0.776652	-0.832415
H68	H	0.399945	-0.477096	-0.845696
H69	H	0.737658	-0.286908	-0.509336
