data_functionalizedCrystal
_audit_creation_method	'MofGen! by Chris Wilmer'
_symmetry_space_group_name_H-M	'P1'
_symmetry_Int_Tables_number	1
_symmetry_cell_setting	triclinic
loop_
_symmetry_equiv_pos_as_xyz
  x,y,z
_cell_length_a	15.625711
_cell_length_b	15.538191
_cell_length_c	14.185569
_cell_angle_alpha	97.872928
_cell_angle_beta	59.456640
_cell_angle_gamma	66.742475
loop_
_atom_site_label
_atom_site_type_symbol
_atom_site_fract_x
_atom_site_fract_y
_atom_site_fract_z
O1	O	-1.281558	-0.025279	0.382530
O2	O	-0.978056	-0.068099	0.272185
O3	O	-1.188885	0.095856	0.348832
O4	O	-1.070730	-0.189234	0.305883
O5	O	-1.251163	0.144285	0.538308
O6	O	-1.040335	-0.019670	0.461661
O7	O	-1.343837	0.023150	0.572006
Cu8	Cu	-1.197773	0.006162	0.534134
Cu9	Cu	-1.124121	-0.051111	0.310057
O10	O	-1.133009	-0.140805	0.495359
C11	C	-0.971301	-0.046739	0.353145
C12	C	-0.858391	-0.055233	0.312094
C13	C	-1.232385	0.156298	0.448061
C14	C	-1.269205	0.264245	0.461437
C15	C	-0.656626	0.048735	0.693350
C16	C	-0.550503	0.040721	0.654720
C17	C	-0.482662	-0.012070	0.448180
C18	C	-0.588778	-0.004065	0.486792
C19	C	-0.675754	0.026339	0.609379
C20	C	-0.607907	-0.026461	0.402821
C21	C	-0.714017	-0.018452	0.441431
C22	C	-0.800999	0.011954	0.564013
C23	C	-0.781865	0.034349	0.647989
C24	C	-0.520933	-0.056859	0.280236
C25	C	-0.540061	-0.079255	0.196264
C26	C	-0.646170	-0.071252	0.234873
C27	C	-0.733152	-0.040847	0.357455
C28	C	-0.665305	-0.093647	0.150897
C29	C	-0.771415	-0.085638	0.189507
C30	C	-0.839263	-0.032837	0.396065
C31	C	-0.350601	0.001801	0.491062
C32	C	-0.463535	0.010327	0.532160
C33	C	-1.089507	-0.201248	0.396128
C34	C	-1.052685	-0.309197	0.382744
N35	N	-1.249583	0.046446	0.691741
C36	C	-0.903379	0.518501	0.328454
C37	C	-0.938008	0.619942	0.341047
C38	C	-1.132778	0.660242	0.411859
C39	C	-1.098164	0.558801	0.399268
C40	C	-0.983464	0.487938	0.357566
C41	C	-1.178249	0.528238	0.428379
C42	C	-1.143639	0.426807	0.415794
C43	C	-1.028945	0.355939	0.374098
C44	C	-0.948855	0.386507	0.344981
C45	C	-1.292951	0.599105	0.470089
C46	C	-1.373036	0.568542	0.499200
C47	C	-1.338424	0.467107	0.486607
C48	C	-1.223730	0.396239	0.444911
C49	C	-1.418515	0.436539	0.515724
C50	C	-1.383905	0.335108	0.503139
C51	C	-1.189121	0.294808	0.432326
N52	N	-1.072321	-0.091386	0.152454
C53	C	-0.920117	-0.209698	0.939613
C54	C	-0.959368	-0.179190	1.058904
C55	C	-1.146067	-0.034054	1.126740
C56	C	-1.106829	-0.064548	1.007452
C57	C	-0.993854	-0.152371	0.913896
C58	C	-1.180567	-0.007221	0.981735
C59	C	-1.141335	-0.037715	0.862457
C60	C	-1.028366	-0.125537	0.768897
C61	C	-0.954622	-0.182866	0.794619
C62	C	-1.293545	0.080598	1.075293
C63	C	-1.367282	0.137925	1.049576
C64	C	-1.328047	0.107435	0.930296
C65	C	-1.215078	0.019613	0.836735
C66	C	-1.401790	0.164764	0.904574
C67	C	-1.362558	0.134269	0.785296
C68	C	-1.175846	-0.010881	0.717458
H69	H	-0.910077	-0.008094	0.495885
C70	C	-1.278770	0.149436	1.207292
C71	C	-1.270240	0.062487	1.229581
H72	H	-1.355431	0.209037	1.270778
H73	H	-1.220724	0.158774	1.203414
H74	H	-1.265959	0.139469	1.132573
H75	H	-1.283042	0.072451	1.304296
H76	H	-1.328303	0.053148	1.233471
H77	H	-0.828117	-0.281207	0.863433
C78	C	-0.773806	-0.243120	1.023826
C79	C	-0.878306	-0.242197	1.087177
H80	H	-0.723770	-0.282011	1.041291
H81	H	-0.734278	-0.273856	0.939411
H82	H	-0.792500	-0.174117	1.047829
H83	H	-0.859613	-0.311200	1.063168
H84	H	-0.917841	-0.211464	1.171610
H85	H	-1.000771	0.273350	0.363858
H86	H	-0.786985	-0.103880	0.121128
C87	C	-0.616351	-0.056379	-0.021949
C88	C	-0.569698	-0.127063	0.016153
H89	H	-0.557324	-0.077008	-0.105133
H90	H	-0.682270	-0.054826	-0.010975
H91	H	-0.641081	0.010635	0.024411
H92	H	-0.544976	-0.194076	-0.030201
H93	H	-0.503757	-0.128627	0.005169
H94	H	-1.325485	0.105421	1.172414
H95	H	-0.411835	-0.036821	0.348370
H96	H	-0.852680	0.059092	0.747809
C97	C	-0.628229	0.093714	0.862779
C98	C	-0.529477	0.065337	0.747032
H99	H	-0.615244	0.108906	0.919763
H100	H	-0.696382	0.153217	0.883782
H101	H	-0.640021	0.038252	0.863291
H102	H	-0.517691	0.120802	0.746517
H103	H	-0.461305	0.005828	0.726023
H104	H	-0.855452	0.328802	0.311015
H105	H	-0.727441	0.073479	0.793170
H106	H	-0.809976	0.460796	0.294488
C107	C	-1.510325	0.249125	1.262542
C108	C	-1.491459	0.234462	1.152416
H109	H	-1.586984	0.308730	1.326026
H110	H	-1.504522	0.190134	1.277639
H111	H	-1.452272	0.258475	1.258651
H112	H	-1.549507	0.225106	1.156304
H113	H	-1.497273	0.293468	1.137316
H114	H	-1.493780	0.236265	0.980762
H115	H	-0.872790	0.644823	0.317354
C116	C	-1.425945	0.219510	0.432652
C117	C	-1.471925	0.301498	0.535130
H118	H	-1.480284	0.198757	0.452410
H119	H	-1.413693	0.241362	0.370031
H120	H	-1.352681	0.162801	0.406029
H121	H	-1.545185	0.358210	0.561749
H122	H	-1.484191	0.279649	0.597772
H123	H	-1.422604	0.180951	0.764360
H124	H	-0.996426	-0.150367	0.671776
H125	H	-0.862622	-0.254374	0.718439
C126	C	-0.976085	0.093806	0.578208
C127	C	-0.917647	0.020771	0.606468
H128	H	-1.048096	0.099246	0.604416
H129	H	-0.992775	0.159211	0.617856
H130	H	-0.927017	0.072480	0.493182
H131	H	-0.966711	0.042101	0.691496
H132	H	-0.900960	-0.044647	0.566824
H133	H	-0.434531	-0.063384	0.248802
C134	C	-0.347272	-0.114983	0.045359
C135	C	-0.444451	-0.112680	0.061519
H136	H	-0.288245	-0.135627	-0.037830
H137	H	-0.372004	-0.047970	0.091697
H138	H	-0.315651	-0.162928	0.071233
H139	H	-0.476078	-0.064729	0.035653
H140	H	-0.419717	-0.179703	0.015164
H141	H	-1.226168	0.717953	0.445818
C142	C	-0.980418	0.204322	0.270673
C143	C	-1.063035	0.216901	0.386475
H144	H	-0.902583	0.156230	0.242373
H145	H	-0.993057	0.179098	0.217104
H146	H	-0.989572	0.269108	0.274013
H147	H	-1.053887	0.152116	0.383134
H148	H	-1.050391	0.242121	0.440057
H149	H	-1.466426	0.626253	0.533158
H150	H	-1.321123	0.681693	0.480324
H151	H	-1.511907	0.494253	0.549689
H152	H	-1.083845	-0.082390	0.641277
