data_functionalizedCrystal
_audit_creation_method	'MofGen! by Chris Wilmer'
_symmetry_space_group_name_H-M	'P1'
_symmetry_Int_Tables_number	1
_symmetry_cell_setting	triclinic
loop_
_symmetry_equiv_pos_as_xyz
  x,y,z
_cell_length_a	14.560438
_cell_length_b	27.440280
_cell_length_c	14.560438
_cell_angle_alpha	90.003387
_cell_angle_beta	60.005799
_cell_angle_gamma	59.997888
loop_
_atom_site_label
_atom_site_type_symbol
_atom_site_fract_x
_atom_site_fract_y
_atom_site_fract_z
Zr1	Zr	1.005090	0.469523	-0.120268
O2	O	1.196694	0.391708	-0.266907
O3	O	0.813499	0.493374	-0.075335
O4	O	1.005087	0.493378	-0.266911
O5	O	1.005104	0.391704	0.075810
O6	O	1.005069	0.573581	-0.266892
O7	O	1.005106	0.391704	-0.075331
O8	O	0.662353	0.573574	0.075803
O9	O	1.347820	0.391711	-0.266885
O10	O	0.892285	0.563405	-0.056133
O11	O	0.892296	0.503550	0.056647
O12	O	1.117866	0.503555	-0.168909
O13	O	1.117878	0.443701	-0.056129
Zr14	Zr	1.005057	0.597437	0.120815
Zr15	Zr	1.005062	0.597437	-0.120238
Zr16	Zr	1.005086	0.469523	0.120784
Zr17	Zr	1.246117	0.469528	-0.120233
Zr18	Zr	0.764030	0.597432	0.120779
O19	O	1.196648	0.573585	0.075881
O20	O	1.196654	0.573585	-0.266864
O21	O	1.196688	0.391708	0.075838
O22	O	0.813453	0.675252	0.267453
O23	O	0.813459	0.675252	-0.075292
O24	O	0.813493	0.493375	0.267410
O25	O	1.005044	0.675256	-0.075264
O26	O	1.005060	0.573581	0.267458
O27	O	1.005078	0.493379	0.267439
O28	O	1.005041	0.675256	0.075877
O29	O	1.347797	0.493386	-0.266861
O30	O	0.662350	0.573574	0.267407
O31	O	0.662328	0.675249	0.267431
O32	O	0.662331	0.675249	0.075827
O33	O	1.347816	0.391711	-0.075280
O34	O	1.347794	0.493386	-0.075256
O35	O	0.892281	0.563405	0.169456
O36	O	0.892270	0.623259	0.056675
O37	O	1.117851	0.563409	-0.056100
O38	O	1.117862	0.503555	0.056680
C39	C	0.703585	0.533473	0.000229
C40	C	0.601262	0.533471	0.000214
C41	C	0.636400	0.489290	-0.083018
C42	C	0.540211	0.489300	-0.082962
C43	C	0.373748	0.577674	0.083569
C44	C	0.469936	0.577666	0.083507
C45	C	0.767727	0.445096	-0.166311
C46	C	0.802871	0.400911	-0.249549
C47	C	0.706682	0.400920	-0.249493
C48	C	0.575348	0.445115	-0.166198
C49	C	1.005109	0.373479	0.000236
C50	C	1.005121	0.319176	0.000223
C51	C	0.887301	0.013719	0.059172
C52	C	0.887294	-0.037299	0.059182
O53	O	0.787151	-0.037118	0.109281
N54	N	1.005044	-0.094057	0.000313
C55	C	1.122809	-0.099796	-0.058560
O56	O	1.222963	-0.152757	-0.108631
C57	C	1.122814	-0.048778	-0.058563
C58	C	1.005057	0.007979	0.000301
C59	C	0.769553	0.070473	0.118032
C60	C	0.769561	0.121488	0.118020
C61	C	0.887316	0.115749	0.059148
C62	C	1.005064	0.058994	0.000289
C63	C	1.240578	-0.054517	-0.117429
C64	C	1.240573	-0.003493	-0.117426
C65	C	1.122816	0.053264	-0.058563
C66	C	1.122828	0.104269	-0.058595
N67	N	1.005078	0.161027	0.000274
C68	C	0.887322	0.166767	0.059146
C69	C	1.122787	-0.206934	-0.058548
C70	C	1.122783	-0.257952	-0.058553
C71	C	0.887268	-0.195452	0.059191
C72	C	0.887273	-0.144434	0.059189
C73	C	1.005037	-0.150177	0.000321
C74	C	0.887347	0.273899	0.059115
C75	C	0.887365	0.324915	0.059094
C76	C	1.122880	0.262411	-0.058645
C77	C	1.122862	0.211399	-0.058629
C78	C	1.005086	0.217147	0.000259
O79	O	1.222920	0.104134	-0.108665
O80	O	0.787184	0.219730	0.109220
C81	C	1.306562	0.533486	0.000318
C82	C	1.408885	0.533488	0.000333
C83	C	1.005079	0.533480	-0.301246
C84	C	1.005081	0.533480	-0.403579
C85	C	1.005038	0.693481	0.000311
C86	C	1.005026	0.747784	0.000324
C87	C	1.122830	0.502236	-0.510523
C88	C	1.122823	0.502238	-0.606672
C89	C	0.887309	0.564727	-0.488919
C90	C	0.887316	0.564729	-0.392773
C91	C	1.240594	0.470987	-0.521330
C92	C	1.358353	0.439741	-0.628279
C93	C	1.358346	0.439743	-0.724428
C94	C	1.240582	0.470991	-0.713627
C95	C	1.005068	0.533480	0.301793
C96	C	1.005067	0.533480	0.404126
C97	C	0.703549	0.693475	0.000267
C98	C	0.601215	0.747775	0.000265
C99	C	0.703580	0.533474	0.301749
C100	C	0.601255	0.533471	0.404067
C101	C	0.703544	0.693475	0.301786
C102	C	0.601208	0.747776	0.404117
C103	C	1.306603	0.373485	-0.301240
C104	C	1.408939	0.319184	-0.403571
C105	C	1.306598	0.373485	0.000280
C106	C	1.408932	0.319184	0.000282
C107	C	1.306568	0.533486	-0.301202
C108	C	1.408892	0.533488	-0.403520
C109	C	0.553165	0.742032	-0.058631
C110	C	0.457025	0.793049	-0.058656
C111	C	0.408928	0.849808	0.000223
C112	C	0.456987	0.855550	0.059121
C113	C	0.553133	0.804534	0.059138
C114	C	0.553144	0.804524	0.393302
C115	C	0.457002	0.855551	0.489444
C116	C	0.408918	0.849827	0.596399
C117	C	0.456992	0.793072	0.607211
C118	C	0.553139	0.742047	0.511071
C119	C	1.457015	0.262435	-0.392756
C120	C	1.553187	0.211409	-0.488897
C121	C	1.601275	0.217133	-0.595852
C122	C	1.553196	0.273888	-0.606665
C123	C	1.457032	0.324913	-0.510524
C124	C	1.456992	0.324928	0.059168
C125	C	1.553159	0.273911	0.059166
C126	C	1.601259	0.217152	0.000284
C127	C	1.553195	0.211410	-0.058610
C128	C	1.457036	0.262426	-0.058613
C129	C	0.553170	0.564715	0.511021
C130	C	0.457031	0.564708	0.607156
C131	C	0.457066	0.502214	0.489368
C132	C	0.553210	0.502217	0.393236
C133	C	0.601216	0.595969	0.521852
C134	C	0.553130	0.627215	0.628811
C135	C	0.456990	0.627209	0.724946
C136	C	0.408937	0.595955	0.714121
H137	H	0.266812	0.613654	0.151385
H138	H	1.679578	0.175580	-0.674127
Br139	Br	0.898273	0.445076	-0.166385
Br140	Br	1.240609	0.470979	-0.390846
Br141	Br	0.618385	0.812309	0.248161
H142	H	0.441320	0.613641	0.151284
H143	H	1.592276	0.278598	0.107128
Br144	Br	1.282603	-0.334974	-0.138463
H145	H	0.592360	0.476777	0.306147
H146	H	0.417907	0.788362	-0.106618
Br147	Br	1.391818	0.254621	-0.138533
Br148	Br	0.618325	0.812339	0.139084
Br149	Br	0.391776	0.932567	0.474743
Br150	Br	0.618358	0.669619	0.643501
H151	H	1.592373	0.165190	-0.106550
Br152	Br	0.278443	0.919038	0.000188
H153	H	1.679558	0.175617	0.000296
Br154	Br	0.278431	0.919082	0.726866
Br155	Br	1.518168	0.397343	-0.642935
Br156	Br	0.727540	0.401943	0.138981
H157	H	1.417889	0.371119	-0.519343
Br158	Br	0.981100	0.340942	-0.362597
H159	H	0.791435	0.590169	-0.305693
H160	H	1.240586	0.470996	-0.791923
H161	H	1.417836	0.371139	0.107125
Br162	Br	1.618470	0.281646	-0.751827
H163	H	0.679495	0.595979	0.443581
Br164	Br	0.391747	0.669605	0.870101
Br165	Br	0.391723	0.785314	0.752374
H166	H	0.330663	0.595947	0.792405
H167	H	0.592261	0.695841	0.519892
H168	H	1.417867	0.257763	-0.305676
Br169	Br	1.618415	0.134392	-0.474197
Br170	Br	0.754376	0.340962	-0.362465
Br171	Br	0.444807	0.445133	-0.166137
Br172	Br	0.391850	0.459802	0.474683
H173	H	0.417813	0.901770	0.107057
H174	H	0.791442	0.278588	0.107069
H175	H	0.673670	0.167699	0.165948
H176	H	0.791385	-0.098223	0.107130
Br177	Br	0.609719	0.078279	0.197945
H178	H	1.454231	0.414305	-0.811505
H179	H	0.791384	-0.190786	0.107124
H180	H	1.336469	-0.100723	-0.165361
Br181	Br	1.282626	-0.214737	-0.138457
Br182	Br	1.282677	0.134370	-0.138543
Br183	Br	1.282683	0.254634	-0.138520
Br184	Br	1.400406	-0.011292	-0.197318
H185	H	0.592324	0.695821	-0.106591
Br186	Br	0.727496	0.607131	-0.474266
