data_functionalizedCrystal
_audit_creation_method	'MofGen! by Chris Wilmer'
_symmetry_space_group_name_H-M	'P1'
_symmetry_Int_Tables_number	1
_symmetry_cell_setting	triclinic
loop_
_symmetry_equiv_pos_as_xyz
  x,y,z
_cell_length_a	8.597340
_cell_length_b	8.559649
_cell_length_c	7.088929
_cell_angle_alpha	95.344185
_cell_angle_beta	103.954719
_cell_angle_gamma	102.374957
loop_
_atom_site_label
_atom_site_type_symbol
_atom_site_fract_x
_atom_site_fract_y
_atom_site_fract_z
O1	O	2.074465	-0.219480	0.182749
O2	O	1.606585	-0.245569	0.105672
O3	O	1.881746	0.000135	0.151003
O4	O	1.799304	-0.465184	0.137418
O5	O	1.918527	0.033046	0.475038
O6	O	1.643366	-0.212659	0.429707
O7	O	2.111247	-0.186570	0.506784
Cu8	Cu	1.880665	-0.196609	0.497833
Cu9	Cu	1.837167	-0.235529	0.114624
O10	O	1.836086	-0.432274	0.461453
C11	C	1.565631	-0.228145	0.257914
C12	C	1.388806	-0.225241	0.228784
C13	C	1.906384	0.076129	0.314046
C14	C	1.924980	0.253534	0.317099
C15	C	2.152200	-0.203994	0.354539
C16	C	2.329024	-0.206900	0.383656
C17	C	1.811447	-0.508268	0.298406
C18	C	1.792850	-0.685674	0.295340
N19	N	1.911271	-0.169234	0.767363
N20	N	1.806574	-0.262892	-0.154904
H21	H	1.413123	-0.193407	0.538542
H22	H	1.304701	-0.238722	0.073888
H23	H	2.052339	0.337220	0.338095
C24	C	1.620800	0.201284	0.266986
N25	N	1.491209	0.116131	0.245625
H26	H	1.698069	-0.359948	0.745574
C27	C	2.057874	-0.038113	0.901823
N28	N	2.168291	0.060649	1.003100
