data_functionalizedCrystal
_audit_creation_method	'MofGen! by Chris Wilmer'
_symmetry_space_group_name_H-M	'P1'
_symmetry_Int_Tables_number	1
_symmetry_cell_setting	triclinic
loop_
_symmetry_equiv_pos_as_xyz
  x,y,z
_cell_length_a	16.625547
_cell_length_b	29.839131
_cell_length_c	16.625539
_cell_angle_alpha	89.960252
_cell_angle_beta	89.975178
_cell_angle_gamma	90.035164
loop_
_atom_site_label
_atom_site_type_symbol
_atom_site_fract_x
_atom_site_fract_y
_atom_site_fract_z
Zn1	Zn	1.232609	-0.178853	-0.455937
Zn2	Zn	1.565942	0.154480	-0.122603
Zn3	Zn	1.899276	0.487813	0.210730
Zn4	Zn	1.232482	-0.253984	-0.321077
Zn5	Zn	1.565816	0.079349	0.012256
Zn6	Zn	1.899149	0.412682	0.345590
Zn7	Zn	1.097771	-0.178869	-0.321107
Zn8	Zn	1.431104	0.154464	0.012226
Zn9	Zn	1.764437	0.487798	0.345559
Zn10	Zn	1.097711	-0.253957	-0.455857
Zn11	Zn	1.431045	0.079376	-0.122524
Zn12	Zn	1.764378	0.412710	0.210810
O13	O	1.165143	-0.216416	-0.388494
O14	O	1.498477	0.116918	-0.055161
O15	O	1.831810	0.450251	0.278172
O16	O	1.345425	-0.188824	-0.438068
O17	O	1.678758	0.144509	-0.104735
O18	O	2.012091	0.477842	0.228599
O19	O	1.214584	-0.244038	-0.208249
O20	O	1.547918	0.089295	0.125085
O21	O	1.881251	0.422629	0.458418
O22	O	1.115735	-0.116000	-0.339039
O23	O	1.449069	0.217334	-0.005705
O24	O	1.782402	0.550667	0.327628
O25	O	1.345331	-0.244023	-0.338987
O26	O	1.678665	0.089311	-0.005654
O27	O	2.011998	0.422644	0.327679
O28	O	1.214800	-0.115988	-0.438097
O29	O	1.548134	0.217345	-0.104764
O30	O	1.881467	0.550678	0.228569
O31	O	1.115612	-0.188851	-0.208271
O32	O	1.448946	0.144482	0.125063
O33	O	1.782279	0.477816	0.458396
O34	O	0.984931	-0.188825	-0.338961
O35	O	1.318264	0.144509	-0.005628
O36	O	1.651597	0.477842	0.327705
O37	O	1.115634	-0.243976	-0.568700
O38	O	1.448967	0.089357	-0.235367
O39	O	1.782300	0.422690	0.097967
O40	O	0.984887	-0.243991	-0.437961
O41	O	1.318220	0.089342	-0.104628
O42	O	1.651553	0.422675	0.228705
O43	O	1.214743	-0.188798	-0.568759
O44	O	1.548076	0.144535	-0.235425
O45	O	1.881409	0.477869	0.097908
O46	O	1.214526	-0.316848	-0.338910
O47	O	1.547860	0.016486	-0.005576
O48	O	1.881193	0.349819	0.327757
O49	O	1.115511	-0.316828	-0.437932
O50	O	1.448844	0.016506	-0.104599
O51	O	1.782177	0.349839	0.228735
C52	C	0.955652	-0.216407	-0.388456
C53	C	1.288986	0.116926	-0.055123
C54	C	1.622319	0.450260	0.278210
C55	C	0.866031	-0.216414	-0.388459
C56	C	1.199365	0.116919	-0.055126
C57	C	1.532698	0.450252	0.278207
C58	C	0.793249	-0.216415	-0.388469
C59	C	1.126582	0.116918	-0.055136
C60	C	1.459916	0.450252	0.278198
C61	C	0.701940	-0.216417	-0.388489
C62	C	1.035274	0.116916	-0.055156
C63	C	1.368607	0.450249	0.278177
C64	C	0.629164	-0.216422	-0.388510
C65	C	0.962497	0.116912	-0.055176
C66	C	1.295831	0.450245	0.278157
C67	C	0.537850	-0.216425	-0.388529
C68	C	0.871183	0.116909	-0.055196
C69	C	1.204516	0.450242	0.278138
C70	C	1.165020	-0.333138	-0.388426
C71	C	1.498354	0.000195	-0.055093
C72	C	1.831687	0.333528	0.278240
C73	C	1.165041	-0.383073	-0.388424
C74	C	1.498375	-0.049739	-0.055091
C75	C	1.831708	0.283594	0.278242
C76	C	1.216715	-0.692675	-0.440148
C77	C	1.550049	-0.359342	-0.106814
C78	C	1.883382	-0.026009	0.226519
C79	C	1.216803	-0.880348	-0.440196
C80	C	1.550136	-0.547015	-0.106863
C81	C	1.883469	-0.213682	0.226470
O82	O	1.260617	-0.904578	-0.484123
O83	O	1.593950	-0.571245	-0.150790
O84	O	1.927284	-0.237912	0.182544
N85	N	1.165280	-0.903858	-0.388584
N86	N	1.498614	-0.570524	-0.055251
N87	N	1.831947	-0.237191	0.278083
C88	C	1.113728	-0.880446	-0.336960
C89	C	1.447062	-0.547113	-0.003626
C90	C	1.780395	-0.213780	0.329707
O91	O	1.069902	-0.904749	-0.293067
O92	O	1.403235	-0.571415	0.040266
O93	O	1.736568	-0.238082	0.373600
C94	C	1.113637	-0.692774	-0.336916
C95	C	1.446971	-0.359441	-0.003582
C96	C	1.780304	-0.026107	0.329751
C97	C	1.165169	-0.669267	-0.388526
C98	C	1.498502	-0.335934	-0.055192
C99	C	1.831836	-0.002600	0.278141
C100	C	1.268242	-0.669168	-0.491754
C101	C	1.601575	-0.335835	-0.158421
C102	C	1.934909	-0.002502	0.174913
C103	C	1.268223	-0.622253	-0.491738
C104	C	1.601556	-0.288919	-0.158405
C105	C	1.934889	0.044414	0.174928
C106	C	1.216677	-0.598844	-0.440116
C107	C	1.550010	-0.265511	-0.106783
C108	C	1.883343	0.067822	0.226550
C109	C	1.165150	-0.622352	-0.388510
C110	C	1.498483	-0.289018	-0.055177
C111	C	1.831816	0.044315	0.278157
C112	C	1.062082	-0.669363	-0.285296
C113	C	1.395416	-0.336030	0.048037
C114	C	1.728749	-0.002697	0.381371
C115	C	1.062063	-0.622442	-0.285291
C116	C	1.395396	-0.289109	0.048042
C117	C	1.728729	0.044224	0.381375
C118	C	1.113594	-0.598935	-0.336901
C119	C	1.446928	-0.265602	-0.003568
C120	C	1.780261	0.067731	0.329766
C121	C	1.113584	-0.552028	-0.336872
C122	C	1.446918	-0.218694	-0.003539
C123	C	1.780251	0.114639	0.329794
N124	N	1.165107	-0.528518	-0.388484
N125	N	1.498440	-0.195185	-0.055151
N126	N	1.831774	0.138148	0.278182
C127	C	1.216653	-0.551927	-0.440107
C128	C	1.549986	-0.218593	-0.106773
C129	C	1.883320	0.114740	0.226560
C130	C	1.113781	-0.978977	-0.336985
C131	C	1.447114	-0.645643	-0.003652
C132	C	1.780448	-0.312310	0.329682
C133	C	1.113805	-1.025895	-0.336995
C134	C	1.447138	-0.692561	-0.003662
C135	C	1.780471	-0.359228	0.329672
C136	C	1.216878	-1.025794	-0.440233
C137	C	1.550211	-0.692460	-0.106899
C138	C	1.883545	-0.359127	0.226434
C139	C	1.216858	-0.978875	-0.440218
C140	C	1.550191	-0.645541	-0.106885
C141	C	1.883525	-0.312208	0.226448
C142	C	1.165303	-0.955467	-0.388597
C143	C	1.498637	-0.622134	-0.055264
C144	C	1.831970	-0.288801	0.278069
C145	C	1.216609	-0.453401	-0.440069
C146	C	1.549942	-0.120067	-0.106736
C147	C	1.883276	0.213266	0.226598
C148	C	1.216588	-0.406481	-0.440046
C149	C	1.549921	-0.073148	-0.106713
C150	C	1.883254	0.260186	0.226620
C151	C	1.113512	-0.406586	-0.336812
C152	C	1.446845	-0.073253	-0.003479
C153	C	1.780178	0.260080	0.329855
C154	C	1.113536	-0.453502	-0.336831
C155	C	1.446869	-0.120169	-0.003498
C156	C	1.780202	0.213165	0.329835
C157	C	1.165087	-0.476908	-0.388466
C158	C	1.498420	-0.143575	-0.055133
C159	C	1.831754	0.189759	0.278200
O160	O	1.069787	-0.527769	-0.292975
O161	O	1.403120	-0.194435	0.040358
O162	O	1.736453	0.138898	0.373692
O163	O	1.260461	-0.527616	-0.484005
O164	O	1.593794	-0.194283	-0.150672
O165	O	1.927127	0.139051	0.182662
C166	C	1.216735	-0.739591	-0.440164
C167	C	1.550068	-0.406257	-0.106830
C168	C	1.883401	-0.072924	0.226503
C169	C	1.165208	-0.763098	-0.388557
C170	C	1.498541	-0.429765	-0.055224
C171	C	1.831874	-0.096431	0.278109
C172	C	1.113662	-0.739690	-0.336935
C173	C	1.446995	-0.406356	-0.003602
C174	C	1.780328	-0.073023	0.329732
C175	C	1.165231	-0.810016	-0.388567
C176	C	1.498565	-0.476682	-0.055234
C177	C	1.831898	-0.143349	0.278100
C178	C	1.216777	-0.833424	-0.440189
C179	C	1.550111	-0.500091	-0.106856
C180	C	1.883444	-0.166757	0.226478
C181	C	1.268300	-0.809915	-0.491801
C182	C	1.601633	-0.476581	-0.158468
C183	C	1.934967	-0.143248	0.174865
C184	C	1.268281	-0.762999	-0.491786
C185	C	1.601614	-0.429666	-0.158452
C186	C	1.934947	-0.096332	0.174881
C187	C	1.062139	-0.763199	-0.285323
C188	C	1.395472	-0.429866	0.048011
C189	C	1.728806	-0.096532	0.381344
C190	C	1.062163	-0.810115	-0.285342
C191	C	1.395497	-0.476781	0.047991
C192	C	1.728830	-0.143448	0.381325
C193	C	1.113709	-0.833523	-0.336964
C194	C	1.447043	-0.500190	-0.003631
C195	C	1.780376	-0.166856	0.329702
C196	C	1.375452	-0.216425	-0.388533
C197	C	1.708785	0.116908	-0.055200
C198	C	2.042119	0.450242	0.278134
C199	C	1.465073	-0.216429	-0.388550
C200	C	1.798407	0.116905	-0.055216
C201	C	2.131740	0.450238	0.278117
C202	C	1.165196	-0.216382	-0.598803
C203	C	1.498529	0.116951	-0.265470
C204	C	1.831862	0.450284	0.067863
C205	C	1.165218	-0.216368	-0.688425
C206	C	1.498551	0.116965	-0.355091
C207	C	1.831885	0.450299	-0.021758
C208	C	1.165289	-0.099237	-0.388580
C209	C	1.498622	0.234096	-0.055247
C210	C	1.831955	0.567429	0.278086
C211	C	1.165351	-0.049303	-0.388617
C212	C	1.498684	0.284030	-0.055284
C213	C	1.832017	0.617364	0.278050
C214	C	1.165255	-0.216318	-1.016601
C215	C	1.498589	0.117016	-0.683267
C216	C	1.831922	0.450349	-0.349934
C217	C	1.165243	-0.216333	-0.925292
C218	C	1.498576	0.117000	-0.591959
C219	C	1.831909	0.450333	-0.258625
C220	C	1.165237	-0.216343	-0.852515
C221	C	1.498570	0.116990	-0.519182
C222	C	1.831904	0.450323	-0.185849
C223	C	1.165224	-0.216358	-0.761201
C224	C	1.498557	0.116975	-0.427868
C225	C	1.831890	0.450309	-0.094534
C226	C	1.165137	-0.216417	-0.179004
C227	C	1.498471	0.116917	0.154330
C228	C	1.831804	0.450250	0.487663
C229	C	1.165271	-0.216304	-0.089383
C230	C	1.498605	0.117029	0.243950
C231	C	1.831938	0.450362	0.577284
H232	H	1.258582	-0.472452	-0.482121
H233	H	1.591915	-0.139119	-0.148788
H234	H	1.925248	0.194214	0.184546
O235	O	1.323815	-0.596901	-0.547391
O236	O	1.657148	-0.263567	-0.214058
O237	O	1.990482	0.069766	0.119275
H238	H	1.359658	-0.621067	-0.583284
H239	H	1.692991	-0.287733	-0.249950
H240	H	2.026324	0.045600	0.083383
O241	O	1.272443	-0.953523	-0.495880
O242	O	1.605776	-0.620190	-0.162546
O243	O	1.939110	-0.286857	0.170787
H244	H	1.258585	-0.962506	-0.559151
H245	H	1.591918	-0.629173	-0.225817
H246	H	1.925252	-0.295839	0.107516
O247	O	1.272468	-1.051044	-0.495922
O248	O	1.605801	-0.717711	-0.162589
O249	O	1.939135	-0.384378	0.170744
H250	H	1.263815	-1.087618	-0.487260
H251	H	1.597148	-0.754284	-0.153926
H252	H	1.930482	-0.420951	0.179407
O253	O	1.058235	-1.051249	-0.281322
O254	O	1.391569	-0.717916	0.052011
O255	O	1.724902	-0.384582	0.385344
H256	H	0.994941	-1.042271	-0.295091
H257	H	1.328274	-0.708938	0.038242
H258	H	1.661608	-0.375604	0.371576
H259	H	1.071798	-0.959922	-0.294947
H260	H	1.405131	-0.626588	0.038386
H261	H	1.738465	-0.293255	0.371720
O262	O	1.272171	-0.381126	-0.495713
O263	O	1.605504	-0.047793	-0.162379
O264	O	1.938837	0.285540	0.170954
H265	H	1.313208	-0.359753	-0.459653
H266	H	1.646541	-0.026420	-0.126320
H267	H	1.979874	0.306913	0.207013
H268	H	1.020163	-0.744144	-0.243287
H269	H	1.353496	-0.410810	0.090047
H270	H	1.686830	-0.077477	0.423380
O271	O	1.323846	-0.694413	-0.547433
O272	O	1.657179	-0.361079	-0.214100
O273	O	1.990512	-0.027746	0.119233
H274	H	1.359669	-0.670177	-0.583307
H275	H	1.693003	-0.336844	-0.249974
H276	H	2.026336	-0.003510	0.083360
H277	H	1.020120	-0.688495	-0.243269
H278	H	1.353453	-0.355161	0.090064
H279	H	1.686786	-0.021828	0.423397
O280	O	1.006464	-0.597194	-0.229606
O281	O	1.339797	-0.263861	0.103727
O282	O	1.673131	0.069472	0.437061
H283	H	0.970645	-0.621426	-0.193719
H284	H	1.303978	-0.288093	0.139615
H285	H	1.637312	0.045241	0.472948
O286	O	1.057959	-0.478861	-0.281167
O287	O	1.391293	-0.145527	0.052167
O288	O	1.724626	0.187806	0.385500
H289	H	1.022111	-0.454699	-0.245271
H290	H	1.355444	-0.121366	0.088062
H291	H	1.688778	0.211968	0.421396
O292	O	1.057914	-0.381335	-0.281136
O293	O	1.391247	-0.048002	0.052197
O294	O	1.724581	0.285332	0.385530
H295	H	1.066556	-0.344762	-0.289808
H296	H	1.399889	-0.011428	0.043525
H297	H	1.733223	0.321905	0.376858
O298	O	1.323872	-0.737651	-0.547445
O299	O	1.657205	-0.404318	-0.214112
O300	O	1.990539	-0.070984	0.119222
H301	H	1.310014	-0.746632	-0.610717
H302	H	1.643348	-0.413299	-0.277384
H303	H	1.976681	-0.079965	0.055950
O304	O	1.323891	-0.835166	-0.547489
O305	O	1.657224	-0.501832	-0.214156
O306	O	1.990558	-0.168499	0.119178
H307	H	1.315235	-0.871739	-0.538829
H308	H	1.648568	-0.538406	-0.205495
H309	H	1.981901	-0.205072	0.127838
H310	H	1.020201	-0.829250	-0.243308
H311	H	1.353534	-0.495917	0.090026
H312	H	1.686868	-0.162583	0.423359
