data_functionalizedCrystal
_audit_creation_method	'MofGen! by Chris Wilmer'
_symmetry_space_group_name_H-M	'P1'
_symmetry_Int_Tables_number	1
_symmetry_cell_setting	triclinic
loop_
_symmetry_equiv_pos_as_xyz
  x,y,z
_cell_length_a	14.044220
_cell_length_b	8.559649
_cell_length_c	7.681481
_cell_angle_alpha	94.930900
_cell_angle_beta	83.746703
_cell_angle_gamma	81.483771
loop_
_atom_site_label
_atom_site_type_symbol
_atom_site_fract_x
_atom_site_fract_y
_atom_site_fract_z
O1	O	-1.220005	-0.394955	-0.146232
O2	O	-0.720005	0.105045	0.353768
O3	O	-0.945035	-0.381202	-0.146277
O4	O	-0.445035	0.118798	0.353723
O5	O	-1.106745	-0.158929	-0.146249
O6	O	-0.606745	0.341071	0.353751
O7	O	-1.058295	-0.617228	-0.146260
O8	O	-0.558295	-0.117228	0.353740
O9	O	-1.126654	-0.131503	0.146613
O10	O	-0.626654	0.368497	0.646613
O11	O	-0.964943	-0.353776	0.146584
O12	O	-0.464943	0.146224	0.646584
O13	O	-1.239914	-0.367530	0.146629
O14	O	-0.739914	0.132470	0.646629
Zn15	Zn	-1.105590	-0.356298	0.193105
Zn16	Zn	-0.605590	0.143702	0.693105
Zn17	Zn	-1.079359	-0.392433	-0.192752
Zn18	Zn	-0.579359	0.107567	0.307248
O19	O	-1.078204	-0.589802	0.146601
O20	O	-0.578204	-0.089802	0.646601
C21	C	-0.920113	-0.361467	0.000148
C22	C	-0.420113	0.138533	0.500148
C23	C	-0.816193	-0.343505	0.000131
C24	C	-0.316193	0.156495	0.500131
C25	C	-1.120371	-0.086210	0.000179
C26	C	-0.620371	0.413790	0.500179
C27	C	-1.131300	0.089612	0.000171
C28	C	-0.631300	0.589612	0.500171
C29	C	-1.264836	-0.387265	0.000201
C30	C	-0.764836	0.112735	0.500201
C31	C	-1.368754	-0.405228	0.000206
C32	C	-0.868754	0.094772	0.500206
C33	C	-0.625925	-0.310660	0.000166
C34	C	-0.125925	0.189340	0.500166
C35	C	-0.559018	-0.438066	0.000171
C36	C	-0.059018	0.061934	0.500171
C37	C	-0.453146	-0.419790	0.000190
C38	C	0.046854	0.080210	0.500190
C39	C	-0.731807	-0.328933	0.000146
C40	C	-0.231807	0.171067	0.500146
C41	C	-1.064577	-0.662522	0.000169
C42	C	-0.564577	-0.162522	0.500169
C43	C	-1.053648	-0.838345	0.000166
C44	C	-0.553648	-0.338345	0.500166
N45	N	-1.123498	-0.331637	0.456442
N46	N	-0.623498	0.168363	0.956442
N47	N	-1.061459	-0.417082	-0.456090
N48	N	-0.561459	0.082918	0.043910
H49	H	-0.603695	-0.187869	0.000179
H50	H	-0.103695	0.312131	0.500179
O51	O	-0.977551	-0.532579	0.444307
O52	O	-0.477551	-0.032579	0.944307
H53	H	-0.979866	-0.529348	0.300670
H54	H	-0.479866	-0.029348	0.800670
O55	O	-0.954503	0.065203	0.000152
O56	O	-0.454503	0.565203	0.500152
H57	H	-0.937605	-0.021552	-0.119225
H58	H	-0.437605	0.478448	0.380775
O59	O	-1.207405	-0.216125	0.556054
O60	O	-0.707405	0.283875	1.056054
H61	H	-1.201951	-0.094434	0.520769
H62	H	-0.701951	0.405566	1.020769
O63	O	-1.230450	0.186075	0.000200
O64	O	-0.730450	0.686075	0.500200
H65	H	-1.223769	0.313669	0.000201
H66	H	-0.723769	0.813669	0.500201
H67	H	-0.581249	-0.560867	0.000159
H68	H	-0.081249	-0.060867	0.500159
