data_functionalizedCrystal
_audit_creation_method	'MofGen! by Chris Wilmer'
_symmetry_space_group_name_H-M	'P1'
_symmetry_Int_Tables_number	1
_symmetry_cell_setting	triclinic
loop_
_symmetry_equiv_pos_as_xyz
  x,y,z
_cell_length_a	14.853566
_cell_length_b	19.188930
_cell_length_c	13.330367
_cell_angle_alpha	89.990231
_cell_angle_beta	89.995295
_cell_angle_gamma	83.389598
loop_
_atom_site_label
_atom_site_type_symbol
_atom_site_fract_x
_atom_site_fract_y
_atom_site_fract_z
O1	O	1.195863	0.091151	-0.083369
O2	O	0.933343	0.102011	-0.083387
O3	O	1.072178	-0.005050	-0.083358
O4	O	1.057027	0.198211	-0.083398
O5	O	1.072158	-0.005052	0.083489
O6	O	0.933323	0.102008	0.083460
O7	O	1.195843	0.091148	0.083478
Cu8	Cu	1.064581	0.096578	0.098704
Cu9	Cu	1.064605	0.096581	-0.098612
O10	O	1.057007	0.198209	0.083449
C11	C	0.899747	0.101518	0.000035
C12	C	0.799671	0.100043	0.000029
C13	C	0.376532	0.093810	-0.090901
C14	C	0.376531	0.093808	0.091002
C15	C	0.470558	0.095192	0.090999
C16	C	0.517575	0.095886	0.000044
C17	C	0.470567	0.095196	-0.090907
C18	C	0.517572	0.095889	0.181949
C19	C	0.611604	0.097274	0.181949
C20	C	0.658624	0.097964	0.090993
C21	C	0.611610	0.097273	0.000038
C22	C	0.658628	0.097967	-0.090916
C23	C	0.611616	0.097271	-0.181873
C24	C	0.517587	0.095886	-0.181863
C25	C	0.752653	0.099349	0.090983
C26	C	0.752662	0.099354	-0.090923
C27	C	1.071678	-0.031063	0.000069
C28	C	1.070205	-0.108573	0.000077
C29	C	1.151669	-0.153225	0.000088
C30	C	1.150285	-0.226054	0.000071
C31	C	1.067433	-0.254226	0.000065
C32	C	0.985958	-0.209564	0.000049
C33	C	0.987344	-0.136737	0.000055
N34	N	1.004095	-0.362443	0.056842
N35	N	1.002784	-0.431626	0.056838
C36	C	1.063252	-0.473649	0.000044
N37	N	1.125094	-0.443877	-0.056733
N38	N	1.126408	-0.374688	-0.056725
C39	C	1.065921	-0.333194	0.000058
C40	C	1.143221	-0.597271	0.000036
C41	C	1.141834	-0.670100	0.000013
C42	C	0.977504	-0.653609	0.000001
C43	C	0.978893	-0.580781	0.000013
C44	C	1.061754	-0.552617	0.000036
C45	C	1.229439	0.091642	0.000054
C46	C	1.329514	0.093116	0.000054
C47	C	1.057508	0.224223	0.000020
C48	C	1.058980	0.301732	0.000005
N49	N	1.064571	0.096576	0.237485
N50	N	1.064622	0.096578	-0.237394
C51	C	1.003125	0.143969	0.710095
C52	C	1.126108	0.049188	0.710089
C53	C	1.126098	0.049186	0.605071
C54	C	1.064601	0.096576	0.552560
C55	C	1.003115	0.143969	0.605067
C56	C	1.187589	0.001798	0.552555
C57	C	1.187582	0.001795	0.447531
C58	C	1.126080	0.049183	0.395018
C59	C	1.064591	0.096577	0.447532
C60	C	1.003095	0.143968	0.395021
C61	C	0.941600	0.191359	0.447533
C62	C	0.941614	0.191357	0.552554
C63	C	1.126067	0.049185	0.289996
C64	C	1.003085	0.143969	0.289993
H65	H	0.790925	0.099923	0.165038
C66	C	0.325590	0.093170	-0.189723
C67	C	0.338102	0.153521	-0.244615
C68	C	0.291196	0.152953	-0.335660
H69	H	0.262836	0.092280	-0.176838
H70	H	0.348055	0.052738	-0.227142
H71	H	0.315633	0.193943	-0.207203
H72	H	0.400846	0.154424	-0.257527
H73	H	0.313661	0.112520	-0.373079
H74	H	0.228445	0.152061	-0.322765
H75	H	0.299686	0.193897	-0.372920
C76	C	0.803778	0.099965	-0.189647
C77	C	0.868129	0.040734	-0.194965
C78	C	0.915225	0.041269	-0.285900
H79	H	0.833502	0.141143	-0.193539
H80	H	0.762345	0.099314	-0.243839
H81	H	0.909556	0.041391	-0.140788
H82	H	0.838430	-0.000454	-0.191091
H83	H	0.873792	0.040619	-0.340092
H84	H	0.944943	0.082450	-0.289783
H85	H	0.958887	0.001079	-0.289524
C86	C	0.874898	0.242921	0.609435
C87	C	0.889220	0.311553	0.583846
C88	C	0.827771	0.359071	0.636217
H89	H	0.883646	0.236234	0.679518
H90	H	0.814743	0.235293	0.592218
H91	H	0.949360	0.319177	0.601071
H92	H	0.880464	0.318262	0.513772
H93	H	0.767617	0.351444	0.618999
H94	H	0.836525	0.352378	0.706297
H95	H	0.837475	0.405643	0.618855
H96	H	0.649909	0.097841	-0.255928
H97	H	1.210691	-0.574338	0.000049
H98	H	0.912556	-0.544424	0.000011
C99	C	0.466636	0.095253	-0.280679
C100	C	0.479151	0.155605	-0.335569
C101	C	0.432233	0.155046	-0.426607
H102	H	0.403882	0.094369	-0.267785
H103	H	0.489088	0.054821	-0.318106
H104	H	0.456695	0.196026	-0.298151
H105	H	0.541895	0.156501	-0.348490
H106	H	0.454686	0.114614	-0.464033
H107	H	0.369482	0.154160	-0.413702
H108	H	0.440725	0.195990	-0.463864
H109	H	1.216626	-0.262417	0.000076
H110	H	1.208175	-0.706457	0.000016
C111	C	1.254233	-0.049849	0.390700
C112	C	1.239764	-0.118429	0.416403
C113	C	1.301135	-0.166058	0.364115
H114	H	1.314410	-0.042300	0.407888
H115	H	1.245488	-0.043192	0.320598
H116	H	1.248517	-0.125083	0.486490
H117	H	1.179599	-0.126000	0.399212
H118	H	1.292390	-0.159401	0.294013
H119	H	1.361308	-0.158502	0.381308
H120	H	1.291321	-0.212594	0.381541
C121	C	1.241538	-0.122512	0.000145
C122	C	1.225321	-0.049176	0.000170
C123	C	1.308085	-0.020858	0.000233
H124	H	1.275144	-0.137752	-0.058020
H125	H	1.275072	-0.137803	0.058354
H126	H	1.191800	-0.033892	-0.058032
H127	H	1.191729	-0.033916	0.058332
H128	H	1.341620	-0.036148	0.058441
H129	H	1.341685	-0.036102	-0.057934
H130	H	1.297093	0.028904	0.000259
C131	C	0.936403	0.195531	0.766970
C132	C	0.950726	0.264163	0.741386
C133	C	0.889269	0.311681	0.793748
H134	H	0.945143	0.188844	0.837054
H135	H	0.876251	0.187902	0.749742
H136	H	1.010863	0.271790	0.758620
H137	H	0.941979	0.270873	0.671310
H138	H	0.829117	0.304052	0.776520
H139	H	0.898014	0.304987	0.863830
H140	H	0.898973	0.358253	0.776390
C141	C	0.936274	0.195502	0.233166
C142	C	0.882443	0.237012	0.301634
C143	C	0.820897	0.284498	0.249323
H144	H	0.898761	0.170415	0.192203
H145	H	0.968560	0.224654	0.192208
H146	H	0.850160	0.207864	0.342575
H147	H	0.919932	0.262114	0.342599
H148	H	0.853183	0.313650	0.208365
H149	H	0.783390	0.259405	0.208362
H150	H	0.784371	0.312673	0.295770
H151	H	1.176181	0.010607	0.752847
C152	C	0.896094	-0.240283	0.000094
C153	C	0.912315	-0.313620	0.000120
C154	C	0.829552	-0.341940	0.000170
H155	H	0.862502	-0.225031	-0.058077
H156	H	0.862546	-0.225007	0.058298
H157	H	0.945849	-0.328890	-0.058078
H158	H	0.945894	-0.328891	0.058286
H159	H	0.796004	-0.326664	0.058373
H160	H	0.795966	-0.326683	-0.058002
H161	H	0.840547	-0.391702	0.000196
C162	C	1.192722	-0.002366	0.233022
C163	C	1.178385	-0.071004	0.258555
C164	C	1.239765	-0.118510	0.206076
H165	H	1.252897	0.005215	0.250169
H166	H	1.183895	0.004382	0.162947
H167	H	1.187219	-0.077748	0.328615
H168	H	1.118222	-0.078606	0.241406
H169	H	1.230939	-0.111762	0.136001
H170	H	1.299937	-0.110923	0.223227
H171	H	1.230041	-0.165086	0.223386
C172	C	0.898795	-0.088369	0.000101
C173	C	0.825936	-0.128624	0.000113
C174	C	0.744351	-0.084090	0.000171
H175	H	0.895800	-0.059589	-0.058061
H176	H	0.895864	-0.059637	0.058313
H177	H	0.828865	-0.157343	-0.058093
H178	H	0.828901	-0.157402	0.058271
H179	H	0.741420	-0.055359	0.058382
H180	H	0.741365	-0.055313	-0.057993
H181	H	0.694906	-0.111397	0.000188
H182	H	0.910044	-0.676546	-0.000009
C183	C	0.325643	0.093092	0.189853
C184	C	0.386937	0.094008	0.269502
C185	C	0.340087	0.093356	0.360582
H186	H	0.295990	0.051880	0.193784
H187	H	0.281945	0.133251	0.193684
H188	H	0.430619	0.053852	0.265673
H189	H	0.416592	0.135216	0.265605
H190	H	0.296389	0.133516	0.364413
H191	H	0.310436	0.052144	0.364502
H192	H	0.381666	0.093985	0.414635
H193	H	0.891533	0.229948	0.404766
C194	C	1.254253	-0.049619	0.609747
C195	C	1.241080	-0.039489	0.712959
C196	C	1.302468	-0.086851	0.765680
H197	H	1.314427	-0.041995	0.592648
H198	H	1.244644	-0.096247	0.592606
H199	H	1.250696	0.007127	0.730093
H200	H	1.180919	-0.047119	0.730088
H201	H	1.292859	-0.133479	0.748540
H202	H	1.362638	-0.079223	0.748573
H203	H	1.293533	-0.079989	0.835715
H204	H	0.649874	0.097839	0.256011
H205	H	0.479283	0.095329	0.255999
