data_functionalizedCrystal
_audit_creation_method	'MofGen! by Chris Wilmer'
_symmetry_space_group_name_H-M	'P1'
_symmetry_Int_Tables_number	1
_symmetry_cell_setting	triclinic
loop_
_symmetry_equiv_pos_as_xyz
  x,y,z
_cell_length_a	19.805407
_cell_length_b	17.640280
_cell_length_c	17.637464
_cell_angle_alpha	92.150542
_cell_angle_beta	101.195709
_cell_angle_gamma	78.800112
loop_
_atom_site_label
_atom_site_type_symbol
_atom_site_fract_x
_atom_site_fract_y
_atom_site_fract_z
Zn1	Zn	1.038358	-0.389139	-0.368358
Zn2	Zn	1.538358	0.110861	0.131642
Zn3	Zn	1.082283	-0.490460	-0.215729
Zn4	Zn	1.582283	0.009540	0.284271
Zn5	Zn	0.942731	-0.363492	-0.241376
Zn6	Zn	1.442731	0.136508	0.258624
Zn7	Zn	0.951588	-0.516080	-0.342683
Zn8	Zn	1.451588	-0.016080	0.157317
O9	O	1.003740	-0.439793	-0.292037
O10	O	1.503740	0.060207	0.207963
O11	O	1.138901	-0.402590	-0.348124
O12	O	1.638901	0.097410	0.151876
O13	O	1.078447	-0.452163	-0.112858
O14	O	1.578447	0.047837	0.387142
O15	O	0.933326	-0.260632	-0.279699
O16	O	1.433326	0.239368	0.220301
O17	O	1.171172	-0.477031	-0.235987
O18	O	1.671172	0.022969	0.264013
O19	O	1.003583	-0.279474	-0.372993
O20	O	1.503583	0.220526	0.127007
O21	O	0.975918	-0.358880	-0.131701
O22	O	1.475918	0.141120	0.368299
O23	O	0.849189	-0.383723	-0.254803
O24	O	1.349189	0.116277	0.245197
O25	O	0.948423	-0.520696	-0.452362
O26	O	1.448423	-0.020696	0.047638
O27	O	0.855697	-0.495828	-0.329232
O28	O	1.355697	0.004172	0.170768
O29	O	1.012172	-0.427433	-0.471226
O30	O	1.512172	0.072567	0.028774
O31	O	1.087036	-0.600121	-0.211091
O32	O	1.587036	-0.100121	0.288909
O33	O	0.991015	-0.618944	-0.304363
O34	O	1.491015	-0.118944	0.195637
C35	C	0.827884	-0.439773	-0.292015
C36	C	1.327884	0.060227	0.207985
C37	C	0.752654	-0.439787	-0.292020
C38	C	1.252654	0.060213	0.207980
C39	C	1.044769	-0.637088	-0.252174
C40	C	1.544769	-0.137088	0.247826
C41	C	1.062380	-0.721497	-0.235146
C42	C	1.562380	-0.221497	0.264854
C43	C	0.720742	-0.498218	-0.330682
C44	C	1.220742	0.001782	0.169318
C45	C	0.650052	-0.498221	-0.330693
C46	C	1.150052	0.001779	0.169307
C47	C	0.611277	-0.439796	-0.292036
C48	C	1.111277	0.060204	0.207964
C49	C	0.643193	-0.381360	-0.253373
C50	C	1.143193	0.118640	0.246627
C51	C	0.713880	-0.381354	-0.253367
C52	C	1.213880	0.118646	0.246633
C53	C	0.358120	-0.381382	-0.253394
C54	C	0.858120	0.118618	0.246606
C55	C	0.287428	-0.381393	-0.253401
C56	C	0.787428	0.118607	0.246599
C57	C	0.294292	-0.498249	-0.330720
C58	C	0.794292	0.001751	0.169280
C59	C	0.364979	-0.498243	-0.330714
C60	C	0.864979	0.001757	0.169286
C61	C	0.396888	-0.439805	-0.292055
C62	C	0.896888	0.060195	0.207945
C63	C	0.473537	-0.439801	-0.292045
C64	C	0.973537	0.060199	0.207955
C65	C	0.534630	-0.439803	-0.292040
C66	C	1.034630	0.060197	0.207960
C67	C	0.870191	-1.048189	-0.421672
C68	C	1.370191	-0.548189	0.078328
C69	C	0.886744	-1.127499	-0.405647
C70	C	1.386744	-0.627499	0.094353
C71	C	0.986770	-1.107853	-0.308621
C72	C	1.486770	-0.607853	0.191379
C73	C	0.970228	-1.028540	-0.324640
C74	C	1.470228	-0.528540	0.175360
C75	C	0.911937	-0.998714	-0.381165
C76	C	1.411937	-0.498714	0.118835
C77	C	1.011974	-0.979066	-0.284133
C78	C	1.511974	-0.479066	0.215867
C79	C	0.995430	-0.899759	-0.300148
C80	C	1.495430	-0.399759	0.199852
C81	C	0.937141	-0.869927	-0.356670
C82	C	1.437141	-0.369927	0.143330
C83	C	0.895393	-0.919408	-0.397180
C84	C	1.395393	-0.419408	0.102820
C85	C	1.070262	-1.008892	-0.227604
C86	C	1.570262	-0.508892	0.272396
C87	C	1.112007	-0.959418	-0.187097
C88	C	1.612007	-0.459418	0.312903
C89	C	1.095467	-0.880110	-0.203116
C90	C	1.595467	-0.380110	0.296884
C91	C	1.037178	-0.850278	-0.259638
C92	C	1.537178	-0.350278	0.240362
C93	C	1.137214	-0.830629	-0.162606
C94	C	1.637214	-0.330629	0.337394
C95	C	1.120671	-0.751323	-0.178621
C96	C	1.620671	-0.251323	0.321379
C97	C	1.020634	-0.770972	-0.275653
C98	C	1.520634	-0.270972	0.224347
C99	C	1.180282	-0.439813	-0.292059
C100	C	1.680282	0.060187	0.207941
C101	C	1.255514	-0.439822	-0.292068
C102	C	1.755514	0.060178	0.207932
C103	C	0.976386	-0.479783	-0.490120
C104	C	1.476386	0.020217	0.009880
C105	C	0.964729	-0.496825	-0.574531
C106	C	1.464729	0.003175	-0.074531
C107	C	0.962566	-0.241731	-0.332071
C108	C	1.462566	0.258269	0.167929
C109	C	0.945021	-0.157328	-0.349132
C110	C	1.445021	0.342672	0.150868
C111	C	0.915112	-0.569397	-0.683686
C112	C	1.415112	-0.069397	-0.183686
C113	C	0.926069	-0.553378	-0.604370
C114	C	1.426069	-0.053378	-0.104370
C115	C	0.992450	-0.456270	-0.624003
C116	C	1.492450	0.043730	-0.124003
C117	C	0.981502	-0.472283	-0.703322
C118	C	1.481502	0.027717	-0.203322
C119	C	0.942832	-0.528847	-0.733157
C120	C	1.442832	-0.028847	-0.233157
C121	C	1.009221	-0.431733	-0.752793
C122	C	1.509221	0.068267	-0.252793
C123	C	0.998270	-0.447743	-0.832106
C124	C	1.498270	0.052257	-0.332106
C125	C	0.959600	-0.504303	-0.861947
C126	C	1.459600	-0.004303	-0.361947
C127	C	0.931881	-0.544857	-0.812469
C128	C	1.431881	-0.044857	-0.312469
C129	C	1.047887	-0.375166	-0.722958
C130	C	1.547887	0.124834	-0.222958
C131	C	1.075607	-0.334616	-0.772429
C132	C	1.575607	0.165384	-0.272429
C133	C	1.064660	-0.350629	-0.851742
C134	C	1.564660	0.149371	-0.351742
C135	C	1.025990	-0.407189	-0.881584
C136	C	1.525990	0.092811	-0.381584
C137	C	1.092380	-0.310075	-0.901220
C138	C	1.592380	0.189925	-0.401220
C139	C	1.081429	-0.326084	-0.980532
C140	C	1.581429	0.173916	-0.480532
C141	C	1.015039	-0.423198	-0.960896
C142	C	1.515039	0.076802	-0.460896
C143	C	1.031015	-0.399903	-0.094735
C144	C	1.531015	0.100097	0.405265
C145	C	1.042758	-0.382648	-0.010367
C146	C	1.542758	0.117352	0.489633
H147	H	0.624074	-0.545802	-0.362174
H148	H	1.124074	-0.045802	0.137826
N149	N	1.174880	-0.991593	-0.126140
N150	N	1.674880	-0.491593	0.373860
H151	H	1.198817	-0.948215	-0.102912
H152	H	1.698817	-0.448215	0.397088
H153	H	1.159086	-1.017426	-0.084311
H154	H	1.659086	-0.517426	0.415689
N155	N	0.841712	-1.180859	-0.449340
N156	N	1.341712	-0.680859	0.050660
H157	H	0.841805	-1.177997	-0.506404
H158	H	1.341805	-0.677997	-0.006404
H159	H	0.861062	-1.235599	-0.430557
H160	H	1.361062	-0.735599	0.069443
N161	N	1.117330	-0.273628	-0.740237
N162	N	1.617330	0.226372	-0.240237
H163	H	1.087066	-0.231786	-0.714432
H164	H	1.587066	0.268214	-0.214432
H165	H	1.159644	-0.297936	-0.701133
H166	H	1.659644	0.202064	-0.201133
H167	H	1.083731	-1.073469	-0.214568
H168	H	1.583731	-0.573469	0.285432
H169	H	1.123859	-0.264015	-0.876917
H170	H	1.623859	0.235985	-0.376917
N171	N	1.111332	-0.282355	-1.033893
N172	N	1.611332	0.217645	-0.533893
H173	H	1.098524	-0.301080	-1.088664
H174	H	1.598524	0.198920	-0.588664
H175	H	1.091441	-0.225322	-1.030991
H176	H	1.591441	0.274678	-0.530991
N177	N	0.406803	-0.561261	-0.372402
N178	N	0.906803	-0.061261	0.127598
H179	H	0.375860	-0.598278	-0.396898
H180	H	0.875860	-0.098278	0.103102
H181	H	0.424861	-0.537508	-0.413829
H182	H	0.924861	-0.037508	0.086171
H183	H	1.023934	-0.410214	-0.599701
H184	H	1.523934	0.089786	-0.099701
N185	N	0.762563	-0.561238	-0.372370
N186	N	1.262563	-0.061238	0.127630
H187	H	0.731618	-0.598253	-0.396865
H188	H	1.231618	-0.098253	0.103135
H189	H	0.780622	-0.537487	-0.413798
H190	H	1.280622	-0.037487	0.086202
N191	N	0.245604	-0.318376	-0.211704
N192	N	0.745604	0.181624	0.288296
H193	H	0.276543	-0.281353	-0.187214
H194	H	0.776543	0.218647	0.312786
H195	H	0.204703	-0.289544	-0.249770
H196	H	0.704703	0.210456	0.250230
N197	N	0.748295	-0.318327	-0.211670
N198	N	1.248295	0.181673	0.288330
H199	H	0.745916	-0.319076	-0.155024
H200	H	1.245916	0.180924	0.344976
H201	H	0.798942	-0.327220	-0.217593
H202	H	1.298942	0.172780	0.282407
H203	H	0.384093	-0.333802	-0.221908
H204	H	0.884093	0.166198	0.278092
H205	H	0.268303	-0.545830	-0.362202
H206	H	0.768303	-0.045830	0.137798
N207	N	0.601380	-0.318354	-0.211661
N208	N	1.101380	0.181646	0.288339
H209	H	0.551760	-0.327229	-0.217520
H210	H	1.051760	0.172771	0.282480
H211	H	0.623672	-0.319154	-0.155035
H212	H	1.123672	0.180846	0.344965
N213	N	0.919293	-0.784388	-0.373941
N214	N	1.419293	-0.284388	0.126059
H215	H	0.959783	-0.768067	-0.391818
H216	H	1.459783	-0.268067	0.108182
H217	H	0.876015	-0.773063	-0.415875
H218	H	1.376015	-0.273063	0.084125
H219	H	0.903478	-0.586389	-0.564094
H220	H	1.403478	-0.086389	-0.064094
N221	N	1.049632	-1.140022	-0.247648
N222	N	1.549632	-0.640022	0.252352
H223	H	1.053777	-1.197770	-0.243645
H224	H	1.553777	-0.697770	0.256355
H225	H	1.093426	-1.128517	-0.262325
H226	H	1.593426	-0.628517	0.237675
H227	H	0.973172	-0.746688	-0.321687
H228	H	1.473172	-0.246688	0.178313
N229	N	1.200073	-0.862809	-0.101632
N230	N	1.700073	-0.362809	0.398368
H231	H	1.234007	-0.901924	-0.125884
H232	H	1.734007	-0.401924	0.374116
H233	H	1.223955	-0.819391	-0.078416
H234	H	1.723955	-0.319391	0.421584
H235	H	0.822729	-1.023905	-0.467706
H236	H	1.322729	-0.523905	0.032294
N237	N	0.832530	-0.887231	-0.458157
N238	N	1.332530	-0.387231	0.041843
H239	H	0.808594	-0.930607	-0.481394
H240	H	1.308594	-0.430607	0.018606
H241	H	0.798644	-0.848111	-0.433851
H242	H	1.298644	-0.348111	0.066149
N243	N	1.165691	-0.697954	-0.134931
N244	N	1.665691	-0.197954	0.365069
H245	H	1.205129	-0.728882	-0.096693
H246	H	1.705129	-0.228882	0.403307
H247	H	1.185845	-0.671262	-0.172529
H248	H	1.685845	-0.171262	0.327471
N249	N	0.973333	-0.484205	-0.993098
N250	N	1.473333	0.015795	-0.493098
H251	H	0.997025	-0.535681	-0.968341
H252	H	1.497025	-0.035681	-0.468341
H253	H	0.924431	-0.469554	-0.981678
H254	H	1.424431	0.030446	-0.481678
N255	N	0.947792	-0.521569	-0.947492
N256	N	1.447792	-0.021569	-0.447492
H257	H	0.968422	-0.577520	-0.956069
H258	H	1.468422	-0.077520	-0.456069
H259	H	0.895813	-0.511416	-0.969360
H260	H	1.395813	-0.011416	-0.469360
N261	N	0.890182	-0.605874	-0.844656
N262	N	1.390182	-0.105874	-0.344656
H263	H	0.874285	-0.629139	-0.801282
H264	H	1.374285	-0.129139	-0.301282
H265	H	0.847890	-0.581603	-0.883808
H266	H	1.347890	-0.081603	-0.383808
N267	N	0.873413	-0.630414	-0.715872
N268	N	1.373413	-0.130414	-0.215872
H269	H	0.857516	-0.653680	-0.672498
H270	H	1.357516	-0.153680	-0.172498
H271	H	0.831121	-0.606144	-0.755024
H272	H	1.331121	-0.106144	-0.255024
N273	N	1.059700	-0.357899	-0.637413
N274	N	1.559700	0.142101	-0.137413
H275	H	1.085612	-0.406135	-0.607785
H276	H	1.585612	0.093865	-0.107785
H277	H	1.088378	-0.315889	-0.626089
H278	H	1.588378	0.184111	-0.126089
