data_functionalizedCrystal
_audit_creation_method	'MofGen! by Chris Wilmer'
_symmetry_space_group_name_H-M	'P1'
_symmetry_Int_Tables_number	1
_symmetry_cell_setting	triclinic
loop_
_symmetry_equiv_pos_as_xyz
  x,y,z
_cell_length_a	19.805405
_cell_length_b	12.594517
_cell_length_c	19.805399
_cell_angle_alpha	89.994636
_cell_angle_beta	90.029301
_cell_angle_gamma	89.979947
loop_
_atom_site_label
_atom_site_type_symbol
_atom_site_fract_x
_atom_site_fract_y
_atom_site_fract_z
Zn1	Zn	-0.269594	-1.627165	0.382455
Zn2	Zn	0.230406	-1.127165	0.882455
Zn3	Zn	-0.382782	-1.627031	0.269263
Zn4	Zn	0.117218	-1.127031	0.769263
Zn5	Zn	-0.269600	-1.449176	0.269308
Zn6	Zn	0.230400	-0.949176	0.769308
Zn7	Zn	-0.382734	-1.449119	0.382438
Zn8	Zn	0.117266	-0.949119	0.882438
O9	O	-0.326177	-1.538123	0.325866
O10	O	0.173823	-1.038123	0.825866
O11	O	-0.284626	-1.776093	0.367428
O12	O	0.215374	-1.276093	0.867428
O13	O	-0.367791	-1.603406	0.174553
O14	O	0.132209	-1.103406	0.674553
O15	O	-0.174883	-1.472867	0.284342
O16	O	0.325117	-0.972867	0.784342
O17	O	-0.367785	-1.775995	0.284267
O18	O	0.132215	-1.275995	0.784267
O19	O	-0.174878	-1.603635	0.367471
O20	O	0.325122	-1.103635	0.867471
O21	O	-0.284637	-1.472737	0.174585
O22	O	0.215363	-0.972737	0.674585
O23	O	-0.284590	-1.300223	0.284326
O24	O	0.215410	-0.800223	0.784326
O25	O	-0.367703	-1.472769	0.477157
O26	O	0.132297	-0.972769	0.977157
O27	O	-0.367708	-1.300181	0.367443
O28	O	0.132292	-0.800181	0.867443
O29	O	-0.284579	-1.603579	0.477169
O30	O	0.215421	-1.103579	0.977169
O31	O	-0.477492	-1.603351	0.284251
O32	O	0.022508	-1.103351	0.784251
O33	O	-0.477457	-1.472639	0.367400
O34	O	0.022543	-0.972639	0.867400
C35	C	-0.326145	-1.261582	0.325888
C36	C	0.173855	-0.761582	0.825888
C37	C	-0.326147	-1.143277	0.325913
C38	C	0.173853	-0.643277	0.825913
C39	C	-0.371442	-1.074031	0.371036
C40	C	0.128558	-0.574031	0.871036
C41	C	-0.309729	-1.003239	0.387692
C42	C	0.190271	-0.503239	0.887692
C43	C	-0.387906	-1.003270	0.309250
C44	C	0.112094	-0.503270	0.809250
C45	C	-0.264401	-1.074043	0.342602
C46	C	0.235599	-0.574043	0.842602
C47	C	-0.342620	-1.074079	0.264131
C48	C	0.157380	-0.574079	0.764131
C49	C	-0.280864	-1.003319	0.280764
C50	C	0.219136	-0.503319	0.780764
C51	C	-0.502033	-1.538003	0.325833
C52	C	-0.002033	-1.038003	0.825833
C53	C	-0.577265	-1.538049	0.325842
C54	C	-0.077265	-1.038049	0.825842
C55	C	-0.612606	-1.606177	0.282591
C56	C	-0.112606	-1.106177	0.782591
C57	C	-0.683294	-1.606222	0.282606
C58	C	-0.183294	-1.106222	0.782606
C59	C	-0.718641	-1.538134	0.325869
C60	C	-0.218641	-1.038134	0.825869
C61	C	-0.683296	-1.470003	0.369124
C62	C	-0.183296	-0.970003	0.869124
C63	C	-0.612609	-1.469964	0.369112
C64	C	-0.112609	-0.969964	0.869112
C65	C	-0.968369	-1.470160	0.369174
C66	C	-0.468369	-0.970160	0.869174
C67	C	-1.039061	-1.470202	0.369181
C68	C	-0.539061	-0.970202	0.869181
C69	C	-1.039054	-1.606418	0.282669
C70	C	-0.539054	-1.106418	0.782669
C71	C	-0.968367	-1.606379	0.282657
C72	C	-0.468367	-1.106379	0.782657
C73	C	-0.933028	-1.538253	0.325914
C74	C	-0.433028	-1.038253	0.825914
C75	C	-0.856380	-1.538206	0.325898
C76	C	-0.356380	-1.038206	0.825898
C77	C	-0.795288	-1.538174	0.325882
C78	C	-0.295288	-1.038174	0.825882
C79	C	-0.149635	-1.538272	0.325914
C80	C	0.350365	-1.038272	0.825914
C81	C	-0.074403	-1.538336	0.325934
C82	C	0.425597	-1.038336	0.825934
C83	C	-0.326135	-1.538183	0.502409
C84	C	0.173865	-1.038183	1.002409
C85	C	-0.326117	-1.538208	0.577641
C86	C	0.173883	-1.038208	1.077641
C87	C	-0.326204	-0.815744	0.325855
C88	C	0.173796	-0.315744	0.825855
C89	C	-0.326200	-0.934049	0.325877
C90	C	0.173800	-0.434049	0.825877
C91	C	-0.326171	-1.538125	0.150010
C92	C	0.173829	-1.038125	0.650010
C93	C	-0.325999	-1.538306	0.074778
C94	C	0.174001	-1.038306	0.574778
C95	C	-0.282832	-1.606322	0.612992
C96	C	0.217168	-1.106322	1.112992
C97	C	-0.282812	-1.606333	0.683681
C98	C	0.217188	-1.106333	1.183681
C99	C	-0.326081	-1.538235	0.719016
C100	C	0.173919	-1.038235	1.219016
C101	C	-0.369368	-1.470113	0.683660
C102	C	0.130632	-0.970113	1.183660
C103	C	-0.369383	-1.470097	0.612973
C104	C	0.130617	-0.970097	1.112973
C105	C	-0.369305	-1.470173	0.968733
C106	C	0.130695	-0.970173	1.468733
C107	C	-0.369287	-1.470196	1.039425
C108	C	0.130713	-0.970196	1.539425
C109	C	-0.282734	-1.606409	1.039442
C110	C	0.217266	-1.106409	1.539442
C111	C	-0.282749	-1.606393	0.968754
C112	C	0.217251	-1.106393	1.468754
C113	C	-0.326033	-1.538268	0.933404
C114	C	0.173967	-1.038268	1.433404
C115	C	-0.326053	-1.538256	0.856755
C116	C	0.173947	-1.038256	1.356755
C117	C	-0.326065	-1.538252	0.795664
C118	C	0.173935	-1.038252	1.295664
H119	H	-0.212180	-1.105000	0.356740
H120	H	0.287820	-0.605000	0.856740
H121	H	-0.242538	-0.972466	0.242590
H122	H	0.257462	-0.472466	0.742590
Cl123	Cl	-0.423686	-1.384578	1.083846
Cl124	Cl	0.076314	-0.884578	1.583846
Cl125	Cl	-0.430474	-1.121974	0.430015
Cl126	Cl	0.069526	-0.621974	0.930015
H127	H	-0.356553	-1.105219	0.211913
H128	H	0.143447	-0.605219	0.711913
Cl129	Cl	-0.727719	-1.691875	0.228234
Cl130	Cl	-0.227719	-1.191875	0.728234
Cl131	Cl	-0.423719	-1.384530	0.924302
Cl132	Cl	0.076281	-0.884530	1.424302
H133	H	-0.247600	-1.661779	0.584227
H134	H	0.252400	-1.161779	1.084227
H135	H	-0.295815	-0.972123	0.439925
H136	H	0.204185	-0.472123	0.939925
H137	H	-0.583831	-1.661618	0.247359
H138	H	-0.083831	-1.161618	0.747359
H139	H	-0.440112	-0.972177	0.295173
H140	H	0.059888	-0.472177	0.795173
Cl141	Cl	-0.923935	-1.691980	0.228268
Cl142	Cl	-0.423935	-1.191980	0.728268
H143	H	-1.067836	-1.661894	0.247449
H144	H	-0.567836	-1.161894	0.747449
H145	H	-0.404623	-1.414621	0.584190
H146	H	0.095377	-0.914621	1.084190
Cl147	Cl	-0.228354	-1.692009	0.924336
Cl148	Cl	0.271646	-1.192009	1.424336
Cl149	Cl	-0.423761	-1.384499	0.728082
Cl150	Cl	0.076239	-0.884499	1.228082
H151	H	-1.067839	-1.414758	0.404416
H152	H	-0.567839	-0.914758	0.904416
H153	H	-0.939601	-1.414688	0.404394
H154	H	-0.439601	-0.914688	0.904394
Cl155	Cl	-0.727732	-1.384412	0.423515
Cl156	Cl	-0.227732	-0.884412	0.923515
Cl157	Cl	-0.568181	-1.384318	0.423488
Cl158	Cl	-0.068181	-0.884318	0.923488
H159	H	-0.247568	-1.661801	0.712461
H160	H	0.252432	-1.161801	1.212461
H161	H	-0.247488	-1.661876	1.068232
H162	H	0.252512	-1.161876	1.568232
