data_functionalizedCrystal
_audit_creation_method	'MofGen! by Chris Wilmer'
_symmetry_space_group_name_H-M	'P1'
_symmetry_Int_Tables_number	1
_symmetry_cell_setting	triclinic
loop_
_symmetry_equiv_pos_as_xyz
  x,y,z
_cell_length_a	12.759401
_cell_length_b	18.215405
_cell_length_c	12.759393
_cell_angle_alpha	89.963505
_cell_angle_beta	89.979062
_cell_angle_gamma	90.026410
loop_
_atom_site_label
_atom_site_type_symbol
_atom_site_fract_x
_atom_site_fract_y
_atom_site_fract_z
Zn1	Zn	1.606192	-0.292919	-0.593976
Zn2	Zn	1.606052	-0.416003	-0.418278
Zn3	Zn	1.430491	-0.292958	-0.418311
Zn4	Zn	1.430451	-0.415951	-0.593915
O5	O	1.518296	-0.354458	-0.506120
O6	O	1.753194	-0.309251	-0.570681
O7	O	1.582721	-0.399719	-0.271261
O8	O	1.453873	-0.189968	-0.441653
O9	O	1.753091	-0.399681	-0.441596
O10	O	1.582960	-0.189940	-0.570714
O11	O	1.453737	-0.309318	-0.271286
O12	O	1.283465	-0.309268	-0.441594
O13	O	1.453806	-0.399593	-0.740944
O14	O	1.283436	-0.399631	-0.570609
O15	O	1.582922	-0.309201	-0.740989
O16	O	1.582683	-0.518980	-0.441537
O17	O	1.453670	-0.518942	-0.570577
C18	C	1.245329	-0.354449	-0.506099
C19	C	1.128552	-0.354463	-0.506115
C20	C	1.073703	-0.401586	-0.573188
C21	C	0.963979	-0.401589	-0.573209
C22	C	0.963964	-0.307343	-0.439076
C23	C	1.073686	-0.307337	-0.439061
C24	C	1.518186	-0.545664	-0.506070
C25	C	1.518234	-0.627463	-0.506083
C26	C	1.585569	-0.815652	-0.439016
C27	C	1.585616	-0.892511	-0.439041
C28	C	1.451158	-0.892511	-0.573300
C29	C	1.451118	-0.815654	-0.573279
C30	C	1.518321	-0.777226	-0.506131
C31	C	1.518409	-0.930942	-0.506178
C32	C	1.518460	-1.014276	-0.506206
C33	C	1.518272	-0.693887	-0.506104
C34	C	1.792330	-0.354467	-0.506142
C35	C	1.909106	-0.354471	-0.506151
C36	C	1.518375	-0.354387	-0.780154
C37	C	1.518409	-0.354357	-0.896930
C38	C	1.518437	-0.162505	-0.506194
C39	C	1.518496	-0.080706	-0.506225
C40	C	1.585644	-0.307283	-0.951818
C41	C	1.585662	-0.307251	-1.061542
C42	C	1.451206	-0.401374	-1.061482
C43	C	1.451183	-0.401402	-0.951760
C44	C	1.518279	-0.354475	-0.233153
C45	C	1.518449	-0.354298	-0.116377
H46	H	1.118372	-0.439957	-0.627791
O47	O	0.910652	-0.447261	-0.638473
C48	C	0.847225	-0.405426	-0.706438
H49	H	0.880327	-0.347468	-0.713077
H50	H	0.764053	-0.402866	-0.673976
C51	C	0.804923	-0.512660	-0.807405
C52	C	0.845585	-0.441477	-0.815567
H53	H	0.803907	-0.534899	-0.874720
H54	H	0.847652	-0.540846	-0.761614
H55	H	0.735616	-0.510517	-0.780349
H56	H	0.914895	-0.443621	-0.842609
H57	H	0.802868	-0.413291	-0.861365
H58	H	0.919278	-0.268976	-0.384480
O59	O	1.650825	-0.261443	-1.114902
C60	C	1.591058	-0.213899	-1.178391
H61	H	1.508308	-0.209361	-1.145313
H62	H	1.587439	-0.236626	-1.261542
C63	C	1.744077	-0.142970	-1.220731
C64	C	1.642445	-0.137391	-1.180099
H65	H	1.775776	-0.095776	-1.221789
H66	H	1.784345	-0.175002	-1.177961
H67	H	1.741048	-0.161911	-1.290019
H68	H	1.645477	-0.118458	-1.110808
H69	H	1.602179	-0.105354	-1.222857
O70	O	1.126811	-0.261535	-0.373802
C71	C	1.054859	-0.219934	-0.314633
H72	H	0.976625	-0.250076	-0.310921
H73	H	1.043240	-0.164074	-0.353256
C74	C	1.193725	-0.172207	-0.207400
C75	C	1.097640	-0.209232	-0.202833
H76	H	1.220116	-0.165603	-0.138438
H77	H	1.242202	-0.200233	-0.247265
H78	H	1.184030	-0.125662	-0.239590
H79	H	1.107339	-0.255780	-0.170655
H80	H	1.049166	-0.181215	-0.162960
O81	O	1.386063	-0.447153	-1.114794
C82	C	1.445855	-0.494661	-1.178270
H83	H	1.528591	-0.499219	-1.145214
H84	H	1.449511	-0.471886	-1.261436
C85	C	1.292851	-0.565563	-1.220518
C86	C	1.394466	-0.571167	-1.179913
H87	H	1.261151	-0.612755	-1.221537
H88	H	1.252567	-0.533555	-1.177757
H89	H	1.295911	-0.546582	-1.289820
H90	H	1.391404	-0.590140	-1.110609
H91	H	1.434749	-0.603181	-1.222664
O92	O	1.385835	-0.447203	-0.898598
C93	C	1.326493	-0.488712	-0.970517
H94	H	1.369537	-0.491246	-1.048739
H95	H	1.246723	-0.461756	-0.982183
C96	C	1.258416	-0.563934	-0.831582
C97	C	1.311288	-0.567051	-0.927653
H98	H	1.249032	-0.612256	-0.805141
H99	H	1.298392	-0.535967	-0.783128
H100	H	1.191947	-0.541467	-0.841317
H101	H	1.377761	-0.589509	-0.917914
H102	H	1.271323	-0.595024	-0.976105
H103	H	1.640292	-0.784366	-0.384341
H104	H	1.640377	-0.923793	-0.384391
H105	H	1.396442	-0.923808	-0.627968
H106	H	1.396356	-0.784366	-0.627938
H107	H	1.640381	-0.268974	-0.907179
