data_functionalizedCrystal
_audit_creation_method	'MofGen! by Chris Wilmer'
_symmetry_space_group_name_H-M	'P1'
_symmetry_Int_Tables_number	1
_symmetry_cell_setting	triclinic
loop_
_symmetry_equiv_pos_as_xyz
  x,y,z
_cell_length_a	9.730223
_cell_length_b	11.792254
_cell_length_c	10.654559
_cell_angle_alpha	95.656379
_cell_angle_beta	89.999562
_cell_angle_gamma	90.004044
loop_
_atom_site_label
_atom_site_type_symbol
_atom_site_fract_x
_atom_site_fract_y
_atom_site_fract_z
O1	O	-0.114330	-1.507301	0.172202
O2	O	-0.114325	-1.177003	0.189926
O3	O	-0.114317	-1.349741	-0.001696
O4	O	-0.114338	-1.334564	0.363824
O5	O	0.114263	-1.349730	-0.001685
O6	O	0.114255	-1.176992	0.189936
O7	O	0.114250	-1.507290	0.172213
Zn8	Zn	0.150545	-1.342139	0.181076
Zn9	Zn	-0.150619	-1.342154	0.181062
O10	O	0.114242	-1.334552	0.363834
C11	C	-0.000034	-1.134705	0.188815
C12	C	-0.000031	-1.008684	0.185473
N13	N	0.356081	-1.342138	0.181085
N14	N	-0.356156	-1.342165	0.181043
C15	C	-0.000034	-0.906341	0.182758
C16	C	-0.000032	-0.777946	0.179362
C17	C	0.428014	-1.411574	0.257767
C18	C	0.571897	-1.411591	0.257743
C19	C	0.571901	-1.272725	0.104353
C20	C	0.428021	-1.272715	0.104371
C21	C	0.428013	-1.491743	0.346329
C22	C	0.571896	-1.491760	0.346305
C23	C	-0.000027	-1.348619	-0.048485
C24	C	-0.000028	-1.345278	-0.187918
C25	C	-0.000037	-0.549589	0.173324
C26	C	-0.000029	-0.675610	0.176666
C27	C	-0.124651	-1.340584	-0.384428
C28	C	-0.124636	-1.343720	-0.253415
C29	C	0.124574	-1.343713	-0.253443
C30	C	0.124558	-1.340585	-0.384454
C31	C	-0.268531	-1.340583	-0.384411
C32	C	-0.268516	-1.343719	-0.253398
C33	C	-0.000051	-1.335674	0.410624
C34	C	-0.000059	-1.339015	0.550057
H35	H	0.630492	-1.216204	0.041896
H36	H	-0.323785	-1.419023	-0.430897
N37	N	0.623647	-1.454722	0.477583
H38	H	0.681341	-1.383682	0.475930
H39	H	0.681248	-1.517558	0.508520
N40	N	-0.327688	-1.453354	-0.214507
H41	H	-0.325521	-1.451653	-0.119566
H42	H	-0.271363	-1.519832	-0.253032
N43	N	0.368895	-1.444433	0.471717
H44	H	0.310468	-1.375547	0.459686
H45	H	0.446230	-1.421643	0.532233
N46	N	-0.327639	-1.230933	-0.423296
H47	H	-0.356192	-1.180255	-0.345722
H48	H	-0.410325	-1.248568	-0.479128
H49	H	-0.323748	-1.265279	-0.206894
H50	H	0.616500	-1.577245	0.306590
H51	H	0.226013	-1.339325	-0.437794
H52	H	0.226033	-1.344992	-0.200106
H53	H	0.369458	-1.216186	0.041917
H54	H	0.388948	-1.581259	0.315223
