data_functionalizedCrystal
_audit_creation_method	'MofGen! by Chris Wilmer'
_symmetry_space_group_name_H-M	'P1'
_symmetry_Int_Tables_number	1
_symmetry_cell_setting	triclinic
loop_
_symmetry_equiv_pos_as_xyz
  x,y,z
_cell_length_a	9.065215
_cell_length_b	7.540329
_cell_length_c	9.065215
_cell_angle_alpha	89.997358
_cell_angle_beta	85.014697
_cell_angle_gamma	89.997574
loop_
_atom_site_label
_atom_site_type_symbol
_atom_site_fract_x
_atom_site_fract_y
_atom_site_fract_z
O1	O	1.960399	-0.147458	0.216335
O2	O	2.293732	0.185875	0.549668
O3	O	2.627065	0.519209	0.883001
O4	O	1.531113	-0.147466	0.234085
O5	O	1.864446	0.185868	0.567419
O6	O	2.197780	0.519201	0.900752
O7	O	1.754631	-0.147454	0.010567
O8	O	2.087965	0.185879	0.343901
O9	O	2.421298	0.519213	0.677234
O10	O	1.736880	-0.147469	0.439853
O11	O	2.070214	0.185864	0.773186
O12	O	2.403547	0.519197	1.106519
O13	O	1.754618	0.147511	0.010564
O14	O	2.087951	0.480844	0.343898
O15	O	2.421284	0.814178	0.677231
O16	O	1.531100	0.147499	0.234083
O17	O	1.864433	0.480833	0.567416
O18	O	2.197766	0.814166	0.900749
O19	O	1.960385	0.147507	0.216332
O20	O	2.293718	0.480840	0.549665
O21	O	2.627052	0.814174	0.882998
Cu22	Cu	1.745741	0.174436	0.225207
Cu23	Cu	2.079074	0.507769	0.558540
Cu24	Cu	2.412408	0.841103	0.891873
Cu25	Cu	1.745757	-0.174394	0.225210
Cu26	Cu	2.079090	0.158939	0.558544
Cu27	Cu	2.412424	0.492272	0.891877
O28	O	1.736867	0.147496	0.439850
O29	O	2.070200	0.480829	0.773183
O30	O	2.403534	0.814162	1.106517
C31	C	1.476120	0.000016	0.232379
C32	C	1.809453	0.333349	0.565712
C33	C	2.142786	0.666683	0.899046
C34	C	1.312277	0.000013	0.227281
C35	C	1.645610	0.333346	0.560614
C36	C	1.978943	0.666680	0.893948
C37	C	1.752920	0.000027	-0.044421
C38	C	2.086253	0.333360	0.288912
C39	C	2.419586	0.666693	0.622246
C40	C	1.747822	0.000021	-0.208264
C41	C	2.081155	0.333354	0.125069
C42	C	2.414488	0.666688	0.458403
C43	C	2.015379	0.000022	0.218038
C44	C	2.348712	0.333355	0.551371
C45	C	2.682045	0.666688	0.884705
C46	C	2.179222	0.000013	0.223136
C47	C	2.512555	0.333346	0.556469
C48	C	2.845888	0.666680	0.889803
N49	N	1.745741	0.419784	0.225204
N50	N	2.079074	0.753118	0.558537
N51	N	2.412407	1.086451	0.891870
N52	N	1.745769	-0.419743	0.225202
N53	N	2.079102	-0.086410	0.558535
N54	N	2.412436	0.246924	0.891869
C55	C	1.738579	0.000011	0.494838
C56	C	2.071912	0.333344	0.828171
C57	C	2.405245	0.666678	1.161505
C58	C	1.743677	0.000005	0.658681
C59	C	2.077010	0.333338	0.992014
C60	C	2.410343	0.666672	1.325348
