data_functionalizedCrystal
_audit_creation_method	'MofGen! by Chris Wilmer'
_symmetry_space_group_name_H-M	'P1'
_symmetry_Int_Tables_number	1
_symmetry_cell_setting	triclinic
loop_
_symmetry_equiv_pos_as_xyz
  x,y,z
_cell_length_a	25.639242
_cell_length_b	16.120484
_cell_length_c	16.120297
_cell_angle_alpha	84.385569
_cell_angle_beta	92.869733
_cell_angle_gamma	87.078463
loop_
_atom_site_label
_atom_site_type_symbol
_atom_site_fract_x
_atom_site_fract_y
_atom_site_fract_z
Zn1	Zn	0.772386	0.356854	-0.489650
Zn2	Zn	0.772320	0.489544	-0.356960
Zn3	Zn	0.689623	0.349779	-0.349875
Zn4	Zn	0.680262	0.496572	-0.496659
O5	O	0.728648	0.423187	-0.423286
O6	O	0.845541	0.374475	-0.472080
O7	O	0.765240	0.465101	-0.239059
O8	O	0.704547	0.233753	-0.362517
O9	O	0.845493	0.471962	-0.374593
O10	O	0.765353	0.238951	-0.465209
O11	O	0.704483	0.362416	-0.233854
O12	O	0.615218	0.369231	-0.369314
O13	O	0.688592	0.483941	-0.612690
O14	O	0.608340	0.477080	-0.477156
O15	O	0.756276	0.381290	-0.607540
O16	O	0.756163	0.607441	-0.381390
O17	O	0.688528	0.612605	-0.484027
C18	C	0.721336	0.640351	-0.434256
C19	C	0.718255	0.733256	-0.438977
C20	C	0.592808	0.423151	-0.423228
C21	C	0.534694	0.423157	-0.423223
C22	C	0.721397	0.434189	-0.641290
C23	C	0.718307	0.438877	-0.734190
C24	C	0.170755	0.479431	-0.479393
C25	C	0.116150	0.479436	-0.479406
O26	O	0.084875	0.527239	-0.527114
N27	N	0.092406	0.423213	-0.423342
C28	C	0.123271	0.366974	-0.367265
O29	O	0.098061	0.319152	-0.319579
C30	C	0.177874	0.366965	-0.367256
C31	C	0.201615	0.423198	-0.423319
C32	C	0.194495	0.535658	-0.535452
C33	C	0.249097	0.535653	-0.535437
C34	C	0.279957	0.479421	-0.479364
C35	C	0.256216	0.423193	-0.423305
C36	C	0.208738	0.310723	-0.311185
C37	C	0.263345	0.310718	-0.311181
C38	C	0.287086	0.366951	-0.367244
C39	C	0.341678	0.366955	-0.367216
N40	N	0.365421	0.423179	-0.423281
C41	C	0.334561	0.479412	-0.479355
C42	C	0.008598	0.366997	-0.367289
C43	C	-0.046004	0.367009	-0.367293
C44	C	-0.053122	0.479471	-0.479436
C45	C	0.001482	0.479461	-0.479427
C46	C	0.032342	0.423220	-0.423354
C47	C	0.449227	0.479397	-0.479319
C48	C	0.503834	0.479390	-0.479297
C49	C	0.510946	0.366926	-0.367158
C50	C	0.456345	0.366936	-0.367177
C51	C	0.425486	0.423175	-0.423264
O52	O	0.372985	0.319175	-0.319535
O53	O	0.359778	0.527219	-0.527040
C54	C	0.865018	0.423224	-0.423345
C55	C	0.923130	0.423239	-0.423370
C56	C	0.736001	0.205176	-0.412291
C57	C	0.739135	0.112273	-0.407606
C58	C	0.712633	0.903356	-0.447614
C59	C	0.744756	0.942179	-0.398972
C60	C	0.741627	1.036828	-0.403777
C61	C	0.715761	0.808698	-0.442809
C62	C	0.712647	0.447418	-0.904279
C63	C	0.744760	0.398706	-0.943132
C64	C	0.741610	0.403458	-1.037775
C65	C	0.715796	0.442667	-0.809627
C66	C	0.735902	0.412168	-0.206127
C67	C	0.739101	0.407244	-0.113215
H68	H	0.523160	0.525185	-0.524951
Br69	Br	0.662882	0.966431	-0.523034
H70	H	0.536082	0.321145	-0.321502
Br71	Br	-0.078217	0.290703	-0.291192
H72	H	0.774616	0.353432	-0.905316
H73	H	0.774606	0.904332	-0.353718
H74	H	0.424109	0.525191	-0.524993
Br75	Br	0.281307	0.611970	-0.611530
Br76	Br	0.662887	0.522875	-0.967305
H77	H	0.169374	0.581450	-0.581119
Br78	Br	0.033696	0.555780	-0.555515
Br79	Br	0.176533	0.234397	-0.235099
Br80	Br	-0.095014	0.555781	-0.555543
Br81	Br	0.050474	0.290667	-0.291178
Br82	Br	0.424124	0.290635	-0.291076
Br83	Br	0.305223	0.234384	-0.235080
