data_functionalizedCrystal
_audit_creation_method	'MofGen! by Chris Wilmer'
_symmetry_space_group_name_H-M	'P1'
_symmetry_Int_Tables_number	1
_symmetry_cell_setting	triclinic
loop_
_symmetry_equiv_pos_as_xyz
  x,y,z
_cell_length_a	16.974885
_cell_length_b	13.101039
_cell_length_c	16.992695
_cell_angle_alpha	93.597589
_cell_angle_beta	92.977267
_cell_angle_gamma	89.709405
loop_
_atom_site_label
_atom_site_type_symbol
_atom_site_fract_x
_atom_site_fract_y
_atom_site_fract_z
O1	O	1.055340	-0.002237	-0.100015
O2	O	0.826846	0.016695	-0.111787
O3	O	0.940178	0.007313	0.008245
O4	O	0.942009	0.007144	-0.220047
O5	O	0.932047	-0.162443	-0.000381
O6	O	0.818716	-0.153062	-0.120413
O7	O	1.047209	-0.171994	-0.108641
Zn8	Zn	0.931672	-0.189481	-0.115897
Zn9	Zn	0.942384	0.034181	-0.104531
O10	O	0.933878	-0.162613	-0.228673
C11	C	0.793409	-0.065750	-0.115493
C12	C	0.705889	-0.058498	-0.113674
C13	C	0.213723	-0.007672	-0.102905
C14	C	0.295957	-0.014500	-0.104614
C15	C	0.332634	-0.110450	-0.110177
C16	C	0.287072	-0.199577	-0.114023
C17	C	0.204840	-0.192748	-0.112308
C18	C	0.578095	-0.140796	-0.115805
C19	C	0.660333	-0.147618	-0.117522
C20	C	0.669212	0.037459	-0.108112
C21	C	0.586978	0.044280	-0.106402
C22	C	0.541424	-0.044848	-0.110244
N23	N	0.416690	-0.117431	-0.111927
N24	N	0.457370	-0.037865	-0.108489
N25	N	0.924367	-0.342125	-0.123653
C26	C	0.914428	-0.550345	-0.134213
C27	C	0.959631	-0.604962	-0.086211
C28	C	0.954101	-0.720823	-0.092087
C29	C	0.919957	-0.434473	-0.128338
C30	C	1.080647	-0.089547	-0.104935
C31	C	1.168168	-0.096793	-0.106753
C32	C	0.940300	-0.077932	-0.253580
C33	C	0.947331	-0.078521	-0.340646
N34	N	0.949695	0.186825	-0.096768
C35	C	0.879486	-0.072900	-0.390676
C36	C	0.886098	-0.073435	-0.472483
C37	C	0.960556	-0.079599	-0.504258
C38	C	1.028407	-0.085218	-0.454221
C39	C	1.021795	-0.084675	-0.372416
C40	C	0.987963	-0.081846	-0.747939
C41	C	0.994571	-0.082391	-0.829751
C42	C	0.852261	-0.070606	-0.848007
C43	C	0.845654	-0.070070	-0.766199
C44	C	0.913506	-0.075684	-0.716170
N45	N	0.967317	-0.080149	-0.587877
N46	N	0.906745	-0.075126	-0.632552
C47	C	0.933756	-0.077365	0.033152
C48	C	0.926725	-0.076769	0.120219
H49	H	0.541016	-0.213370	-0.118922
C50	C	1.076478	-0.089167	-0.864709
C51	C	1.096369	-0.179315	-0.922922
C52	C	1.178271	-0.186093	-0.957884
C53	C	1.240282	-0.102724	-0.934632
C54	C	1.220392	-0.012570	-0.876415
C55	C	1.138491	-0.005791	-0.841454
H56	H	1.050464	-0.241036	-0.940138
H57	H	1.192994	-0.252832	-1.000979
H58	H	1.300910	-0.107742	-0.960512
H59	H	1.266298	0.049151	-0.859200
H60	H	1.123768	0.060947	-0.798358
C61	C	0.173383	0.097876	-0.096786
C62	C	0.113411	0.128413	-0.162342
C63	C	0.073074	0.233964	-0.156220
C64	C	0.092710	0.308977	-0.084541
C65	C	0.152686	0.278441	-0.018979
C66	C	0.193022	0.172890	-0.025102
H67	H	0.098872	0.072883	-0.215408
H68	H	0.028676	0.256569	-0.204753
H69	H	0.062850	0.387112	-0.080009
H70	H	0.167224	0.333972	0.034086
H71	H	0.237420	0.150286	0.023432
H72	H	0.871579	-0.590595	-0.179719
H73	H	0.706311	0.110021	-0.104984
H74	H	1.089033	-0.090239	-0.480099
C75	C	0.346063	0.083539	-0.100384
C76	C	0.343073	0.160438	-0.028240
C77	C	0.393177	0.258484	-0.024007
C78	C	0.446269	0.279630	-0.091918
C79	C	0.449261	0.202729	-0.164068
C80	C	0.399158	0.104683	-0.168300
H81	H	0.303769	0.144787	0.022037
H82	H	0.390962	0.315412	0.029403
H83	H	0.483359	0.352210	-0.088785
H84	H	0.488565	0.218380	-0.214344
H85	H	0.401373	0.047755	-0.221710
H86	H	1.002484	-0.564707	-0.040703
H87	H	0.557122	0.122412	-0.101872
H88	H	0.690192	-0.225756	-0.122058
H89	H	0.818853	-0.067892	-0.364812
H90	H	1.043213	-0.086424	-0.707215
H91	H	0.830851	-0.068853	-0.513214
C92	C	1.096425	-0.090862	-0.317379
C93	C	1.107228	-0.180256	-0.263111
C94	C	1.181862	-0.186436	-0.208074
C95	C	1.245692	-0.103223	-0.207305
C96	C	1.234891	-0.013822	-0.261575
C97	C	1.160257	-0.007642	-0.316611
H98	H	1.059976	-0.241861	-0.263679
H99	H	1.189857	-0.252617	-0.167900
H100	H	1.300940	-0.107798	-0.166563
H101	H	1.282143	0.047783	-0.261007
H102	H	1.152262	0.058539	-0.356785
H103	H	0.316941	-0.277701	-0.118547
H104	H	0.797020	-0.066034	-0.888749
C105	C	0.154725	-0.290781	-0.116544
C106	C	0.157698	-0.367676	-0.188693
C107	C	0.107583	-0.465711	-0.192925
C108	C	0.054495	-0.486853	-0.125009
C109	C	0.051520	-0.409957	-0.052855
C110	C	0.101635	-0.311921	-0.048623
H111	H	0.196999	-0.352027	-0.238973
H112	H	0.109786	-0.522635	-0.246339
H113	H	0.017397	-0.559425	-0.128143
H114	H	0.012219	-0.425605	-0.002575
H115	H	0.099432	-0.254997	0.004791
H116	H	0.785023	-0.065039	-0.740334
