data_functionalizedCrystal
_audit_creation_method	'MofGen! by Chris Wilmer'
_symmetry_space_group_name_H-M	'P1'
_symmetry_Int_Tables_number	1
_symmetry_cell_setting	triclinic
loop_
_symmetry_equiv_pos_as_xyz
  x,y,z
_cell_length_a	14.853567
_cell_length_b	16.992695
_cell_length_c	13.330367
_cell_angle_alpha	90.004919
_cell_angle_beta	89.996055
_cell_angle_gamma	87.151577
loop_
_atom_site_label
_atom_site_type_symbol
_atom_site_fract_x
_atom_site_fract_y
_atom_site_fract_z
O1	O	-1.203597	-0.102368	0.083355
O2	O	-0.941999	-0.114564	0.083372
O3	O	-1.071749	0.005678	0.083356
O4	O	-1.073847	-0.222609	0.083372
O5	O	-1.071730	0.005659	-0.083491
O6	O	-0.941979	-0.114583	-0.083475
O7	O	-1.203577	-0.102387	-0.083492
Cu8	Cu	-1.072776	-0.108487	-0.098718
Cu9	Cu	-1.072800	-0.108464	0.098598
O10	O	-1.073827	-0.222629	-0.083476
C11	C	-0.908361	-0.114021	-0.000049
C12	C	-0.808161	-0.112365	-0.000043
C13	C	-1.069041	0.034884	-0.000067
C14	C	-1.060991	0.121937	-0.000067
C15	C	-1.237215	-0.102930	-0.000068
C16	C	-1.337416	-0.104586	-0.000068
C17	C	-0.390089	-0.033938	-0.000071
C18	C	-0.378895	-0.176788	-0.000060
C19	C	-0.473038	-0.178345	-0.000056
C20	C	-0.525712	-0.107698	-0.000059
C21	C	-0.484242	-0.035493	-0.000064
C22	C	-0.514515	-0.250549	-0.000041
C23	C	-0.608665	-0.252109	-0.000036
C24	C	-0.661340	-0.181460	-0.000046
C25	C	-0.619864	-0.109253	-0.000052
C26	C	-0.672538	-0.038605	-0.000055
C27	C	-0.631064	0.033603	-0.000068
C28	C	-0.536917	0.035155	-0.000074
C29	C	-0.755487	-0.183012	-0.000040
C30	C	-0.766691	-0.040160	-0.000048
C31	C	-1.076535	-0.251835	-0.000050
C32	C	-1.084585	-0.338888	-0.000044
N33	N	-1.072766	-0.108502	-0.237499
C34	C	-1.138666	0.172093	-0.000073
C35	C	-1.131097	0.253888	-0.000063
C36	C	-1.045851	0.285525	-0.000054
C37	C	-0.968170	0.235363	-0.000045
C38	C	-0.975740	0.153569	-0.000047
C39	C	-1.014475	0.529157	-0.000038
C40	C	-1.006910	0.610957	-0.000038
C41	C	-1.169838	0.629476	-0.000054
C42	C	-1.177401	0.547680	-0.000063
C43	C	-1.099720	0.497525	-0.000049
N44	N	-1.038112	0.369132	-0.000047
N45	N	-1.107460	0.413920	-0.000049
C46	C	-1.130919	-0.156097	-0.710112
C47	C	-1.014706	-0.060799	-0.710100
C48	C	-1.014694	-0.060811	-0.605082
C49	C	-1.072796	-0.108466	-0.552574
C50	C	-1.130910	-0.156109	-0.605084
C51	C	-0.956587	-0.013164	-0.552564
C52	C	-0.956573	-0.013173	-0.447539
C53	C	-1.014671	-0.060833	-0.395029
C54	C	-1.072787	-0.108478	-0.447546
C55	C	-1.130889	-0.156133	-0.395038
C56	C	-1.189001	-0.203783	-0.447552
C57	C	-1.189008	-0.203769	-0.552574
C58	C	-1.014665	-0.060847	-0.290008
C59	C	-1.130881	-0.156145	-0.290009
N60	N	-1.072817	-0.108442	0.237380
H61	H	-0.809572	0.017371	-0.000054
H62	H	-0.336002	-0.234306	-0.000049
H63	H	-1.208083	0.146341	-0.000086
H64	H	-0.471622	-0.308066	-0.000028
H65	H	-1.233081	0.670321	-0.000064
C66	C	-1.217125	0.356607	0.085711
C67	C	-1.216484	0.309015	-0.000066
H68	H	-1.269847	0.390635	0.085713
H69	H	-1.165284	0.387156	0.085712
H70	H	-1.216696	0.324304	0.143883
H71	H	-1.216907	0.341318	-0.058238
H72	H	-1.268340	0.278463	-0.000076
C73	C	-1.337688	0.574205	-0.000078
C74	C	-1.271106	0.512907	-0.000075
H75	H	-1.395537	0.552736	-0.000084
H76	H	-1.331336	0.605719	-0.058254
H77	H	-1.331353	0.605725	0.058113
H78	H	-1.277437	0.481391	-0.058270
H79	H	-1.277461	0.481380	0.058107
C80	C	-1.342263	-0.234796	-0.584887
C81	C	-1.252888	-0.256135	-0.610299
H82	H	-1.381700	-0.267126	-0.620524
H83	H	-1.355144	-0.181171	-0.602079
H84	H	-1.350562	-0.241631	-0.514824
H85	H	-1.244588	-0.249294	-0.680361
H86	H	-1.240004	-0.309772	-0.593114
C87	C	-1.284172	-0.187133	-0.742420
C88	C	-1.194796	-0.208471	-0.767828
H89	H	-1.323606	-0.219470	-0.778049
H90	H	-1.297056	-0.133512	-0.759624
H91	H	-1.292470	-0.193959	-0.672356
H92	H	-1.186497	-0.201640	-0.837892
H93	H	-1.181908	-0.262105	-0.750631
H94	H	-0.937489	0.636712	-0.000047
C95	C	-0.852670	0.519079	-0.000045
C96	C	-0.929088	0.474034	-0.000041
H97	H	-0.799955	0.485044	-0.000056
H98	H	-0.853110	0.551366	0.058137
H99	H	-0.853114	0.551368	-0.058230
H100	H	-0.928647	0.441749	0.058148
H101	H	-0.928647	0.441733	-0.058229
H102	H	-0.967408	-0.021996	-0.752859
H103	H	-0.967353	-0.022049	-0.247255
H104	H	-0.898761	0.261128	-0.000031
H105	H	-0.909254	0.025626	-0.404791
H106	H	-0.912488	0.112733	-0.000042
C107	C	-1.245755	-0.250345	-0.300571
C108	C	-1.194751	-0.208529	-0.232296
H109	H	-1.285189	-0.282680	-0.264939
H110	H	-1.206577	-0.282406	-0.341543
H111	H	-1.280102	-0.214304	-0.341523
H112	H	-1.160399	-0.244569	-0.191349
H113	H	-1.233934	-0.176465	-0.191307
C114	C	-0.904935	0.029113	-0.713546
C115	C	-0.892722	0.039217	-0.610274
H116	H	-0.865499	0.061449	-0.749173
H117	H	-0.965565	0.043556	-0.730787
H118	H	-0.892008	-0.024519	-0.730718
H119	H	-0.905655	0.092849	-0.593101
H120	H	-0.832077	0.024779	-0.593027
H121	H	-0.673963	0.091124	-0.000063
C122	C	-0.397569	0.100964	-0.000073
C123	C	-0.491327	0.114521	-0.000078
H124	H	-0.369423	0.149961	-0.000067
H125	H	-0.379842	0.071871	-0.058252
H126	H	-0.379855	0.071875	0.058115
H127	H	-0.509042	0.143605	-0.058270
H128	H	-0.509061	0.143626	0.058107
H129	H	-0.356317	0.024852	-0.000086
H130	H	-0.642424	-0.310905	-0.000025
H131	H	-1.236312	-0.242580	-0.404786
C132	C	-0.734960	-0.324056	-0.000020
C133	C	-0.801075	-0.262375	-0.000026
H134	H	-0.763106	-0.373053	-0.000018
H135	H	-0.698478	-0.320469	0.058159
H136	H	-0.698467	-0.320482	-0.058208
H137	H	-0.837565	-0.265945	0.058166
H138	H	-0.837573	-0.265964	-0.058211
