data_functionalizedCrystal
_audit_creation_method	'MofGen! by Chris Wilmer'
_symmetry_space_group_name_H-M	'P1'
_symmetry_Int_Tables_number	1
_symmetry_cell_setting	triclinic
loop_
_symmetry_equiv_pos_as_xyz
  x,y,z
_cell_length_a	19.805407
_cell_length_b	12.759399
_cell_length_c	19.805399
_cell_angle_alpha	90.023653
_cell_angle_beta	90.019573
_cell_angle_gamma	90.015116
loop_
_atom_site_label
_atom_site_type_symbol
_atom_site_fract_x
_atom_site_fract_y
_atom_site_fract_z
Zn1	Zn	1.034789	-0.418291	0.382738
Zn2	Zn	1.034726	-0.593984	0.269558
Zn3	Zn	0.921603	-0.418320	0.269563
Zn4	Zn	0.921589	-0.593928	0.382704
O5	O	0.978177	-0.506131	0.326141
O6	O	1.129497	-0.441608	0.367736
O7	O	1.019700	-0.570717	0.174842
O8	O	0.936650	-0.271295	0.284592
O9	O	1.129451	-0.570689	0.284583
O10	O	1.019807	-0.271273	0.367741
O11	O	0.936589	-0.441657	0.174845
O12	O	0.826885	-0.441603	0.284559
O13	O	0.936626	-0.570594	0.477425
O14	O	0.826875	-0.570622	0.367684
O15	O	1.019793	-0.441554	0.477450
O16	O	1.019686	-0.740998	0.284551
O17	O	0.936565	-0.740957	0.367679
C18	C	0.802321	-0.506110	0.326119
C19	C	0.727089	-0.506127	0.326126
C20	C	0.691757	-0.573408	0.369339
C21	C	0.621069	-0.573410	0.369348
C22	C	0.585713	-0.506135	0.326141
C23	C	0.621050	-0.438847	0.282926
C24	C	0.691737	-0.438840	0.282920
C25	C	0.335977	-0.438870	0.282948
C26	C	0.265285	-0.438884	0.282956
C27	C	0.265308	-0.573440	0.369376
C28	C	0.335995	-0.573433	0.369370
C29	C	0.371326	-0.506141	0.326158
C30	C	0.447974	-0.506139	0.326149
C31	C	0.509066	-0.506143	0.326146
C32	C	0.978135	-0.779098	0.326125
C33	C	0.978180	-0.895875	0.326141
C34	C	1.021510	-0.950723	0.282906
C35	C	1.021554	-1.060447	0.282928
C36	C	0.934930	-1.060465	0.369424
C37	C	0.934891	-0.950743	0.369405
C38	C	1.101446	-1.210321	0.258846
C39	C	1.144771	-1.265173	0.215599
C40	C	1.155188	-1.229620	0.149559
C41	C	1.122271	-1.139217	0.126751
C42	C	1.078942	-1.084370	0.169994
C43	C	1.068537	-1.119922	0.236044
C44	C	0.854997	-0.800867	0.393480
C45	C	0.811663	-0.746018	0.436720
C46	C	0.801239	-0.781569	0.502762
C47	C	0.834144	-0.871976	0.525567
C48	C	0.877478	-0.926825	0.482327
C49	C	0.887903	-0.891266	0.416286
C50	C	1.154720	-0.506152	0.326163
C51	C	1.229952	-0.506160	0.326173
C52	C	0.978215	-0.506064	0.502684
C53	C	0.978231	-0.506036	0.577916
C54	C	0.978237	-0.232097	0.326171
C55	C	0.978263	-0.115321	0.326184
C56	C	0.978178	-0.506121	0.150285
C57	C	0.978293	-0.505853	0.075053
C58	C	1.021537	-0.438842	0.613274
C59	C	1.021544	-0.438811	0.683962
C60	C	0.978248	-0.505981	0.719291
C61	C	0.934937	-0.573179	0.683928
C62	C	0.934927	-0.573203	0.613241
C63	C	0.934975	-0.573081	0.969002
C64	C	0.934990	-0.573054	1.039694
C65	C	1.021592	-0.438689	1.039723
C66	C	1.021582	-0.438713	0.969036
C67	C	0.978269	-0.505906	0.933679
C68	C	0.978261	-0.505937	0.857030
C69	C	0.978259	-0.505957	0.795938
H70	H	0.592304	-0.628198	0.404536
H71	H	1.056810	-0.384097	0.712748
O72	O	0.582910	-0.366312	0.236312
H73	H	0.550711	-0.312930	0.266658
O74	O	0.776171	-0.648503	0.412128
H75	H	0.790707	-0.632983	0.358943
O76	O	0.754345	-0.722455	0.549268
H77	H	0.712609	-0.774892	0.565315
H78	H	0.364778	-0.628219	0.404552
O79	O	0.888280	-0.645495	1.077798
H80	H	0.918562	-0.698952	1.109998
O81	O	0.866240	-0.762527	0.322244
H82	H	0.836069	-0.690458	0.313647
H83	H	1.052143	-1.010764	0.151425
H84	H	1.056857	-0.383973	1.068519
O85	O	0.888237	-0.645626	0.722031
H86	H	0.835118	-0.627593	0.708459
H87	H	0.364735	-0.384085	0.247757
H88	H	1.056796	-0.384147	0.584514
H89	H	1.092975	-1.239270	0.312623
H90	H	0.825657	-0.900922	0.579344
H91	H	1.056760	-0.906052	0.247679
O92	O	0.227173	-0.646046	0.415947
H93	H	0.240724	-0.728464	0.404206
O94	O	0.227147	-0.366311	0.236358
H95	H	0.263589	-0.319508	0.206314
H96	H	1.130751	-1.110283	0.072972
O97	O	1.068284	-0.366267	0.930934
H98	H	1.061006	-0.377580	0.875841
O99	O	0.729851	-0.366286	0.236305
H100	H	0.693392	-0.319516	0.206254
O101	O	0.912968	-1.024335	0.506929
H102	H	0.898069	-1.091947	0.474939
H103	H	0.899717	-0.627809	0.940222
O104	O	0.888210	-0.645662	0.575099
H105	H	0.858105	-0.692367	0.611540
H106	H	0.720538	-0.628195	0.404521
H107	H	1.190465	-1.274288	0.114348
H108	H	1.171572	-1.338780	0.234176
O109	O	0.888228	-1.119642	0.416073
H110	H	0.895526	-1.205154	0.408816
