data_functionalizedCrystal
_audit_creation_method	'MofGen! by Chris Wilmer'
_symmetry_space_group_name_H-M	'P1'
_symmetry_Int_Tables_number	1
_symmetry_cell_setting	triclinic
loop_
_symmetry_equiv_pos_as_xyz
  x,y,z
_cell_length_a	19.288859
_cell_length_b	13.262508
_cell_length_c	18.366186
_cell_angle_alpha	105.912108
_cell_angle_beta	89.990083
_cell_angle_gamma	83.810045
loop_
_atom_site_label
_atom_site_type_symbol
_atom_site_fract_x
_atom_site_fract_y
_atom_site_fract_z
O1	O	0.922001	0.130898	-0.034639
O2	O	1.422001	0.630898	0.465361
O3	O	0.719827	0.148567	-0.031138
O4	O	1.219827	0.648567	0.468862
O5	O	0.826005	-0.013079	-0.063149
O6	O	1.326005	0.486921	0.436851
O7	O	0.815824	0.292544	-0.002629
O8	O	1.315824	0.792544	0.497371
O9	O	0.825986	-0.013087	0.057949
O10	O	1.325986	0.486913	0.557949
O11	O	0.719809	0.148559	0.089959
O12	O	1.219809	0.648559	0.589959
O13	O	0.921983	0.130890	0.086458
O14	O	1.421983	0.630890	0.586458
Zn15	Zn	0.820893	0.139723	0.107436
Zn16	Zn	1.320893	0.639723	0.607436
Zn17	Zn	0.820917	0.139734	-0.052116
Zn18	Zn	1.320917	0.639734	0.447884
O19	O	0.815806	0.292536	0.118469
O20	O	1.315806	0.792536	0.618469
C21	C	0.693939	0.147995	0.029298
C22	C	1.193939	0.647995	0.529298
C23	C	0.616827	0.146292	0.028962
C24	C	1.116827	0.646292	0.528962
C25	C	0.053197	0.229615	0.045461
C26	C	0.553197	0.729615	0.545461
C27	C	0.125652	0.231225	0.045775
C28	C	0.625652	0.731225	0.545775
C29	C	0.169890	0.136379	0.026995
C30	C	0.669890	0.636379	0.526995
C31	C	0.141669	0.039915	0.007880
C32	C	0.641669	0.539915	0.507880
C33	C	0.069216	0.038308	0.007558
C34	C	0.569216	0.538308	0.507558
C35	C	0.290805	0.065640	0.055417
C36	C	0.790805	0.565640	0.555417
C37	C	0.363257	0.067251	0.055744
C38	C	0.863257	0.567251	0.555744
C39	C	0.393361	0.141331	0.027983
C40	C	0.893361	0.641331	0.527983
C41	C	0.351003	0.213818	-0.000091
C42	C	0.851003	0.713818	0.499909
C43	C	0.278549	0.212211	-0.000413
C44	C	0.778549	0.712211	0.499587
C45	C	0.248455	0.138111	0.027342
C46	C	0.748455	0.638111	0.527342
C47	C	0.500137	0.239534	0.047434
C48	C	1.000137	0.739534	0.547434
C49	C	0.572593	0.241139	0.047743
C50	C	1.072593	0.741139	0.547743
C51	C	0.588609	0.049827	0.009855
C52	C	1.088609	0.549827	0.509855
C53	C	0.516155	0.048224	0.009538
C54	C	1.016155	0.548224	0.509538
C55	C	0.471922	0.143080	0.028332
C56	C	0.971922	0.643080	0.528332
C57	C	0.825427	-0.052183	-0.010344
C58	C	1.325427	0.447817	0.489656
C59	C	0.823723	-0.168689	-0.033419
C60	C	1.323723	0.331311	0.466581
C61	C	0.818876	-0.497130	0.165586
C62	C	1.318876	0.002870	0.665586
C63	C	0.820472	-0.387666	0.187267
C64	C	1.320472	0.112334	0.687267
C65	C	0.821285	-0.332916	0.132097
C66	C	1.321285	0.167084	0.632097
C67	C	0.820502	-0.387642	0.055243
C68	C	1.320502	0.112358	0.555243
C69	C	0.818900	-0.497115	0.033559
C70	C	1.318900	0.002885	0.533559
C71	C	0.821309	-0.332902	0.000071
C72	C	1.321309	0.167098	0.500071
C73	C	0.820526	-0.387627	-0.076784
C74	C	1.320526	0.112373	0.423216
C75	C	0.818925	-0.497090	-0.098463
C76	C	1.318925	0.002910	0.401537
C77	C	0.818112	-0.551840	-0.043293
C78	C	1.318112	-0.051840	0.456707
C79	C	0.822910	-0.223428	0.021754
C80	C	1.322910	0.276572	0.521754
C81	C	0.822934	-0.223413	-0.110272
C82	C	1.322934	0.276587	0.389728
C83	C	0.821339	-0.332877	-0.131953
C84	C	1.321339	0.167123	0.368047
C85	C	0.947872	0.131461	0.026020
C86	C	1.447872	0.631461	0.526020
C87	C	1.024984	0.133165	0.026352
C88	C	1.524984	0.633165	0.526352
C89	C	0.816384	0.331640	0.065662
C90	C	1.316384	0.831640	0.565662
C91	C	0.818088	0.448146	0.088733
C92	C	1.318088	0.948146	0.588733
N93	N	0.820882	0.139715	0.216325
N94	N	1.320882	0.639715	0.716325
N95	N	0.820934	0.139733	-0.161007
N96	N	1.320934	0.639733	0.338993
C97	C	0.867913	0.068174	0.240259
C98	C	1.367913	0.568174	0.740259
C99	C	0.867917	0.068169	0.316485
C100	C	1.367917	0.568169	0.816485
C101	C	0.820898	0.139724	0.368780
C102	C	1.320898	0.639724	0.868780
C103	C	0.773858	0.211271	0.344839
C104	C	1.273858	0.711271	0.844839
C105	C	0.773850	0.211267	0.268611
C106	C	1.273850	0.711267	0.768611
C107	C	0.812071	0.235354	0.508477
C108	C	1.312071	0.735354	1.008477
C109	C	0.812084	0.235360	0.584703
C110	C	1.312084	0.735360	1.084703
C111	C	0.820917	0.139737	0.603890
C112	C	1.320917	0.639737	1.103890
C113	C	0.829753	0.044105	0.546841
C114	C	1.329753	0.544105	1.046841
C115	C	0.829745	0.044100	0.470613
C116	C	1.329745	0.544100	0.970613
C117	C	0.820900	0.139736	0.451437
C118	C	1.320900	0.639736	0.951437
C119	C	0.867956	0.068185	0.710476
C120	C	1.367956	0.568185	1.210476
C121	C	0.867955	0.068178	0.786704
C122	C	1.367955	0.568178	1.286704
C123	C	0.773899	0.211290	0.815057
C124	C	1.273899	0.711290	1.315057
C125	C	0.773896	0.211287	0.738829
C126	C	1.273896	0.711287	1.238829
C127	C	0.820928	0.139735	0.686543
C128	C	1.320928	0.639735	1.186543
H129	H	0.375511	0.274144	-0.022694
H130	H	0.875511	0.774144	0.477306
H131	H	0.735602	0.269547	0.719343
H132	H	1.235602	0.769547	1.219343
H133	H	0.823541	-0.178880	0.084330
H134	H	1.323541	0.321120	0.584330
H135	H	0.906251	0.009915	0.806188
H136	H	1.406251	0.509915	1.306188
H137	H	0.735572	0.269531	0.387420
H138	H	1.235572	0.769531	0.887420
H139	H	0.735551	0.269526	0.249126
H140	H	1.235551	0.769526	0.749126
H141	H	0.818209	-0.541716	0.210497
H142	H	1.318209	-0.041716	0.710497
H143	H	0.148628	0.309769	0.061343
H144	H	0.648628	0.809769	0.561343
H145	H	0.821117	-0.343118	0.249842
H146	H	1.321117	0.156882	0.749842
H147	H	0.804894	0.313230	0.631148
H148	H	1.304894	0.813230	1.131148
H149	H	0.816817	-0.640975	-0.060943
H150	H	1.316817	-0.140975	0.439057
H151	H	0.906217	0.009909	0.335975
H152	H	1.406217	0.509909	0.835975
H153	H	0.822583	-0.243785	0.149755
H154	H	1.322583	0.256215	0.649755
H155	H	0.818282	-0.541643	-0.161043
H156	H	1.318282	-0.041643	0.338957
H157	H	0.906250	0.009920	0.667902
H158	H	1.406250	0.509920	1.167902
H159	H	0.820701	-0.377450	-0.194529
H160	H	1.320701	0.122550	0.305471
H161	H	0.046246	-0.040235	-0.008003
H162	H	0.546246	0.459765	0.491997
H163	H	0.823591	-0.178835	-0.155196
H164	H	1.323591	0.321165	0.344804
H165	H	0.397739	0.008233	0.078608
H166	H	0.897739	0.508233	0.578608
H167	H	0.906208	0.009910	0.197688
H168	H	1.406208	0.509910	0.697688
H169	H	0.177693	-0.037309	-0.007413
H170	H	0.677693	0.462691	0.492587
H171	H	0.836938	-0.033767	0.424166
H172	H	1.336938	0.466233	0.924166
H173	H	0.836946	-0.033761	0.562459
H174	H	1.336946	0.466239	1.062459
H175	H	0.735612	0.269547	0.857634
H176	H	1.235612	0.769547	1.357634
H177	H	0.017187	0.306855	0.060760
H178	H	0.517187	0.806855	0.560760
H179	H	0.244064	0.271231	-0.023273
H180	H	0.744064	0.771231	0.476727
H181	H	0.464121	0.316771	0.062735
H182	H	0.964121	0.816771	0.562735
H183	H	0.595562	0.319684	0.063299
H184	H	1.095562	0.819684	0.563299
H185	H	0.493184	-0.030316	-0.006018
H186	H	0.993184	0.469684	0.493982
H187	H	0.624628	-0.027399	-0.005442
H188	H	1.124628	0.472601	0.494558
H189	H	0.266302	0.005310	0.078023
H190	H	0.766302	0.505310	0.578023
H191	H	0.804866	0.313227	0.492865
H192	H	1.304866	0.813227	0.992865
