data_functionalizedCrystal
_audit_creation_method	'MofGen! by Chris Wilmer'
_symmetry_space_group_name_H-M	'P1'
_symmetry_Int_Tables_number	1
_symmetry_cell_setting	triclinic
loop_
_symmetry_equiv_pos_as_xyz
  x,y,z
_cell_length_a	15.298068
_cell_length_b	19.120786
_cell_length_c	15.297908
_cell_angle_alpha	97.650460
_cell_angle_beta	69.187878
_cell_angle_gamma	101.659200
loop_
_atom_site_label
_atom_site_type_symbol
_atom_site_fract_x
_atom_site_fract_y
_atom_site_fract_z
Zn1	Zn	1.501034	-0.180094	-0.760439
Zn2	Zn	2.001034	0.319906	-0.260439
Zn3	Zn	1.467374	-0.280236	-0.598254
Zn4	Zn	1.967374	0.219764	-0.098254
Zn5	Zn	1.318585	-0.180085	-0.577968
Zn6	Zn	1.818585	0.319915	-0.077968
Zn7	Zn	1.336504	-0.314811	-0.724474
Zn8	Zn	1.836504	0.185189	-0.224474
O9	O	1.405874	-0.238807	-0.665284
O10	O	1.905874	0.261193	-0.165284
O11	O	1.627694	-0.178912	-0.762466
O12	O	2.127694	0.321088	-0.262466
O13	O	1.426051	-0.252477	-0.466374
O14	O	1.926051	0.247523	0.033626
O15	O	1.349375	-0.081794	-0.608735
O16	O	1.849375	0.418206	-0.108735
O17	O	1.602964	-0.252486	-0.643309
O18	O	2.102964	0.247514	-0.143309
O19	O	1.483419	-0.081800	-0.742795
O20	O	1.983419	0.418200	-0.242795
O21	O	1.316736	-0.178897	-0.451470
O22	O	1.816736	0.321103	0.048530
O23	O	1.189837	-0.212423	-0.573861
O24	O	1.689837	0.287577	-0.073861
O25	O	1.379915	-0.311414	-0.858433
O26	O	1.879915	0.188586	-0.358433
O27	O	1.203002	-0.311406	-0.681499
O28	O	1.703002	0.188594	-0.181499
O29	O	1.500795	-0.212438	-0.884857
O30	O	2.000795	0.287562	-0.384857
O31	O	1.443426	-0.383115	-0.608435
O32	O	1.943426	0.116885	-0.108435
O33	O	1.347277	-0.408517	-0.701169
O34	O	1.847277	0.091483	-0.201169
C35	C	1.162420	-0.265666	-0.621577
C36	C	1.662420	0.234334	-0.121577
C37	C	1.058272	-0.277176	-0.602899
C38	C	1.558272	0.222824	-0.102899
C39	C	0.816243	-0.156720	-0.798763
C40	C	1.316243	0.343280	-0.298763
C41	C	0.914097	-0.145909	-0.816316
C42	C	1.414097	0.354091	-0.316316
C43	C	0.950145	-0.178724	-0.762963
C44	C	1.450145	0.321276	-0.262963
C45	C	0.888331	-0.222354	-0.692055
C46	C	1.388331	0.277646	-0.192055
C47	C	0.790469	-0.233171	-0.674504
C48	C	1.290469	0.266829	-0.174504
C49	C	0.924371	-0.255175	-0.638705
C50	C	1.424371	0.244825	-0.138705
C51	C	0.862556	-0.298804	-0.567796
C52	C	1.362556	0.201196	-0.067796
C53	C	0.764704	-0.309619	-0.550249
C54	C	1.264704	0.190381	-0.050249
C55	C	0.728655	-0.276803	-0.603601
C56	C	1.228655	0.223197	-0.103601
C57	C	1.022233	-0.244358	-0.656255
C58	C	1.522233	0.255642	-0.156255
C59	C	0.996458	-0.320808	-0.531997
C60	C	1.496458	0.179192	-0.031997
C61	C	0.898605	-0.331620	-0.514443
C62	C	1.398605	0.168380	-0.014443
C63	C	1.393672	-0.421302	-0.653125
C64	C	1.893672	0.078698	-0.153125
C65	C	1.388543	-0.499368	-0.647970
C66	C	1.888543	0.000632	-0.147970
C67	C	1.455886	-0.535997	-0.715387
C68	C	1.955886	-0.035997	-0.215387
C69	C	1.451063	-0.609349	-0.710544
C70	C	1.951063	-0.109349	-0.210544
C71	C	1.378900	-0.646070	-0.638280
C72	C	1.878900	-0.146070	-0.138280
C73	C	1.311550	-0.609436	-0.570860
C74	C	1.811550	-0.109436	-0.070860
C75	C	1.316370	-0.536087	-0.575708
C76	C	1.816370	-0.036087	-0.075708
C77	C	1.360855	-0.867542	-0.620154
C78	C	1.860855	-0.367542	-0.120154
C79	C	1.356042	-0.940897	-0.615310
C80	C	1.856042	-0.440897	-0.115310
C81	C	1.495555	-0.940805	-0.754995
C82	C	1.995555	-0.440805	-0.254995
C83	C	1.500371	-0.867453	-0.759832
C84	C	2.000371	-0.367453	-0.259832
C85	C	1.433018	-0.830826	-0.692416
C86	C	1.933018	-0.330826	-0.192416
C87	C	1.373971	-0.721047	-0.633327
C88	C	1.873971	-0.221047	-0.133327
C89	C	1.437945	-0.755851	-0.697374
C90	C	1.937945	-0.255851	-0.197374
C91	C	1.650279	-0.211843	-0.709162
C92	C	2.150279	0.288157	-0.209162
C93	C	1.754430	-0.200353	-0.727860
C94	C	2.254430	0.299647	-0.227860
C95	C	1.446108	-0.265784	-0.906079
C96	C	1.946108	0.234216	-0.406079
C97	C	1.463254	-0.277280	-1.008691
C98	C	1.963254	0.222720	-0.508691
C99	C	1.418153	-0.055598	-0.677514
C100	C	1.918153	0.444402	-0.177514
C101	C	1.423385	0.022474	-0.682726
C102	C	1.923385	0.522474	-0.182726
C103	C	1.283934	-0.156450	-1.266910
C104	C	1.783934	0.343550	-0.766910
C105	C	1.267828	-0.145642	-1.170501
C106	C	1.767828	0.354358	-0.670501
C107	C	1.316682	-0.178551	-1.130044
C108	C	1.816682	0.321449	-0.630044
C109	C	1.381647	-0.222269	-1.186005
C110	C	1.881647	0.277731	-0.686005
C111	C	1.397761	-0.233074	-1.282424
C112	C	1.897761	0.266926	-0.782424
C113	C	1.430509	-0.255174	-1.145558
C114	C	1.930509	0.244826	-0.645558
C115	C	1.495475	-0.298893	-1.201520
C116	C	1.995475	0.201107	-0.701520
C117	C	1.511585	-0.309696	-1.297929
C118	C	2.011585	0.190304	-0.797929
C119	C	1.462730	-0.276787	-1.338387
C120	C	1.962730	0.223213	-0.838387
C121	C	1.414395	-0.244370	-1.049139
C122	C	1.914395	0.255630	-0.549139
C123	C	1.528222	-0.320993	-1.064653
C124	C	2.028222	0.179007	-0.564653
C125	C	1.544329	-0.331802	-1.161062
C126	C	2.044329	0.168198	-0.661062
C127	C	1.365854	-0.211878	-0.425438
C128	C	1.865854	0.288122	0.074562
C129	C	1.348903	-0.200164	-0.322872
C130	C	1.848903	0.299836	0.177128
H131	H	1.029822	-0.169916	-0.777257
H132	H	1.529822	0.330084	-0.277257
Cl133	Cl	1.099930	-0.189510	-0.745394
Cl134	Cl	1.599930	0.310490	-0.245394
Cl135	Cl	1.296430	-0.164964	-1.008842
Cl136	Cl	1.796430	0.335036	-0.508842
H137	H	1.297273	-0.970793	-0.556463
H138	H	1.797273	-0.470793	-0.056463
H139	H	1.568006	-0.347789	-1.031714
H140	H	2.068006	0.152211	-0.531714
Cl141	Cl	1.580218	-0.986854	-0.839745
Cl142	Cl	2.080218	-0.486854	-0.339745
H143	H	1.475835	-0.285590	-1.416889
H144	H	1.975835	0.214410	-0.916889
Cl145	Cl	0.991799	-0.091066	-0.905458
Cl146	Cl	1.491799	0.408934	-0.405458
H147	H	1.306015	-0.837726	-0.565259
H148	H	1.806015	-0.337726	-0.065259
Cl149	Cl	1.528657	-0.709688	-0.788220
Cl150	Cl	2.028657	-0.209688	-0.288220
Cl151	Cl	1.625997	-0.386760	-1.231424
Cl152	Cl	2.125997	0.113240	-0.731424
H153	H	1.361501	-0.208773	-1.003585
H154	H	1.861501	0.291227	-0.503585
Cl155	Cl	0.770921	-0.115482	-0.865836
Cl156	Cl	1.270921	0.384518	-0.365836
Cl157	Cl	1.222534	-0.115078	-1.317777
Cl158	Cl	1.722534	0.384922	-0.817777
Cl159	Cl	0.605635	-0.290391	-0.581535
Cl160	Cl	1.105635	0.209609	-0.081535
H161	H	1.514653	-0.506103	-0.774228
H162	H	2.014653	-0.006103	-0.274228
H163	H	1.214932	-0.110047	-1.124944
H164	H	1.714932	0.389953	-0.624944
H165	H	1.025808	-0.347533	-0.488556
H166	H	1.525808	0.152467	0.011444
Cl167	Cl	1.220822	-0.655602	-0.480021
Cl168	Cl	1.720822	-0.155602	0.019979
H169	H	1.261531	-0.506264	-0.520811
H170	H	1.761531	-0.006264	-0.020811
Cl171	Cl	1.283249	-0.767218	-0.542488
Cl172	Cl	1.783249	-0.267218	-0.042488
Cl173	Cl	1.593263	-0.364651	-1.368280
Cl174	Cl	2.093263	0.135349	-0.868280
H175	H	1.559132	-0.837556	-0.818675
H176	H	2.059132	-0.337556	-0.318675
Cl177	Cl	0.686996	-0.364465	-0.461103
Cl178	Cl	1.186996	0.135535	0.038897
H179	H	0.848262	-0.367144	-0.456709
H180	H	1.348262	0.132856	0.043291
H181	H	1.505908	-0.639168	-0.765435
H182	H	2.005908	-0.139168	-0.265435
