data_functionalizedCrystal
_audit_creation_method	'MofGen! by Chris Wilmer'
_symmetry_space_group_name_H-M	'P1'
_symmetry_Int_Tables_number	1
_symmetry_cell_setting	triclinic
loop_
_symmetry_equiv_pos_as_xyz
  x,y,z
_cell_length_a	10.540539
_cell_length_b	10.540539
_cell_length_c	9.016244
_cell_angle_alpha	90.000067
_cell_angle_beta	89.994699
_cell_angle_gamma	95.474508
loop_
_atom_site_label
_atom_site_type_symbol
_atom_site_fract_x
_atom_site_fract_y
_atom_site_fract_z
O1	O	1.685893	-0.178895	-0.123263
O2	O	1.316480	-0.195751	-0.123280
O3	O	1.509614	-0.002617	-0.123269
O4	O	1.492759	-0.372030	-0.123274
O5	O	1.509586	-0.002621	0.123411
O6	O	1.316452	-0.195755	0.123400
O7	O	1.685865	-0.178900	0.123418
Cu8	Cu	1.501156	-0.187328	0.145933
Cu9	Cu	1.501189	-0.187323	-0.145795
O10	O	1.492730	-0.372034	0.123407
C11	C	1.269163	-0.194489	0.000058
C12	C	1.128215	-0.190707	0.000051
C13	C	0.944788	-0.045790	0.000628
C14	C	1.091406	-0.049624	0.000057
C15	C	1.066558	-0.258600	-0.140811
C16	C	0.920014	-0.253785	-0.140914
C17	C	0.919493	-0.256660	0.139608
C18	C	1.066475	-0.257960	0.141455
C19	C	1.508336	0.044684	0.000068
C20	C	1.504554	0.185632	0.000060
C21	C	1.733182	-0.180161	0.000077
C22	C	1.874130	-0.183943	0.000074
C23	C	1.494008	-0.419335	0.000066
C24	C	1.497790	-0.560283	0.000064
N25	N	1.501141	-0.187331	0.351119
C26	C	1.359637	0.369059	-0.000500
C27	C	1.363471	0.222441	0.000055
C28	C	1.572434	0.247287	0.140930
C29	C	1.567619	0.393832	0.141049
C30	C	1.570520	0.394355	-0.139473
C31	C	1.571820	0.247373	-0.141336
N32	N	1.501213	-0.187310	-0.350982
C33	C	1.397510	-0.290298	0.586146
C34	C	1.397739	-0.290684	0.414255
C35	C	1.633864	-0.217464	0.413464
C36	C	1.633298	-0.218193	0.585409
C37	C	1.473367	-0.053892	0.585663
C38	C	1.470322	-0.054757	0.413709
H39	H	0.872045	-0.355250	-0.147309
H40	H	1.109159	-0.211434	-0.245643
O41	O	0.856935	-0.391641	0.140873
H42	H	0.889446	-0.442352	0.239691
O43	O	1.267107	-0.266690	0.358411
H44	H	1.195806	-0.342795	0.399719
H45	H	1.298584	-0.272446	0.627535
O46	O	1.146729	0.021636	-0.133928
H47	H	1.197014	-0.043953	-0.204359
H48	H	1.378630	-0.025213	0.629106
O49	O	1.738673	-0.122705	0.640502
H50	H	1.739055	-0.122506	0.763606
O51	O	1.340982	-0.024495	0.359765
H52	H	1.298816	-0.103533	0.288662
H53	H	1.522153	0.206517	-0.245547
O54	O	1.708078	0.215305	-0.152596
H55	H	1.721036	0.163206	-0.257667
O56	O	1.147835	0.021137	0.133815
H57	H	1.215972	0.101666	0.096691
H58	H	1.672424	0.441581	-0.140416
O59	O	1.509956	0.190860	0.279793
H60	H	1.408084	0.209492	0.281183
O61	O	1.096150	-0.395845	-0.147770
H62	H	1.149066	-0.411768	-0.251515
H63	H	0.887935	-0.211004	0.246381
O64	O	1.420904	-0.420681	0.643337
H65	H	1.506072	-0.412451	0.716344
H66	H	1.540849	0.025564	0.370737
O67	O	0.904784	0.027738	-0.132427
H68	H	0.955206	0.125111	-0.130958
O69	O	1.421456	-0.421793	0.359729
H70	H	1.432819	-0.485165	0.456174
H71	H	1.548979	0.022762	0.626319
O72	O	1.120710	-0.192274	0.279505
H73	H	1.191348	-0.112065	0.247559
H74	H	1.657653	-0.315531	0.625498
H75	H	1.524871	0.425910	-0.246244
O76	O	1.738595	-0.120826	0.359297
H77	H	1.697061	-0.050129	0.287186
H78	H	1.303918	0.397661	-0.101521
H79	H	1.658762	-0.313702	0.370386
H80	H	0.916191	0.009944	0.101649
O81	O	1.098563	-0.394209	0.152743
H82	H	1.159277	-0.416222	0.057311
H83	H	1.310059	0.179839	-0.100926
O84	O	0.882648	-0.187289	-0.280367
H85	H	0.969211	-0.158863	-0.347094
O86	O	1.286101	0.409047	0.132568
H87	H	1.279753	0.513500	0.128624
O88	O	1.292224	0.167113	0.134048
H89	H	1.254902	0.245097	0.198709
H90	H	1.517429	0.422030	0.246347
O91	O	1.702010	0.457388	0.149557
H92	H	1.770149	0.383414	0.153580
H93	H	1.676041	0.224933	0.146173
