data_functionalizedCrystal
_audit_creation_method	'MofGen! by Chris Wilmer'
_symmetry_space_group_name_H-M	'P1'
_symmetry_Int_Tables_number	1
_symmetry_cell_setting	triclinic
loop_
_symmetry_equiv_pos_as_xyz
  x,y,z
_cell_length_a	8.559649
_cell_length_b	10.654550
_cell_length_c	9.130313
_cell_angle_alpha	90.001595
_cell_angle_beta	90.003285
_cell_angle_gamma	77.131797
loop_
_atom_site_label
_atom_site_type_symbol
_atom_site_fract_x
_atom_site_fract_y
_atom_site_fract_z
O1	O	-2.119654	0.042558	-0.121777
O2	O	-1.655168	-0.022229	-0.121782
O3	O	-1.898091	0.194007	-0.121780
O4	O	-1.876732	-0.173678	-0.121778
O5	O	-1.898074	0.194011	0.121818
O6	O	-1.655151	-0.022225	0.121817
O7	O	-2.119637	0.042562	0.121822
Cu8	Cu	-1.887393	0.010169	0.144062
Cu9	Cu	-1.887413	0.010164	-0.144022
O10	O	-1.876715	-0.173674	0.121820
C11	C	-1.595684	-0.027137	0.000017
C12	C	-1.418466	-0.041751	0.000015
C13	C	-1.896514	0.240645	0.000016
C14	C	-1.891822	0.379603	0.000005
C15	C	-2.179121	0.047469	0.000020
C16	C	-2.356339	0.062084	0.000012
C17	C	-1.878292	-0.220312	0.000021
C18	C	-1.882984	-0.359271	0.000022
C19	C	-1.885201	0.575457	-0.132769
C20	C	-1.889626	0.444894	-0.132778
C21	C	-1.889609	0.444886	0.132807
C22	C	-1.885196	0.575449	0.132814
N23	N	-1.887391	0.010174	0.346685
N24	N	-1.887428	0.010170	-0.346645
C25	C	-1.994993	0.105891	0.423337
C26	C	-1.995009	0.105892	0.576674
C27	C	-1.779813	-0.085552	0.576692
C28	C	-1.779792	-0.085547	0.423358
H29	H	-1.438727	0.162162	0.000005
C30	C	-1.661425	-0.190814	0.661031
H31	H	-1.597314	-0.247803	0.593414
H32	H	-1.719374	-0.237549	0.720854
H33	H	-1.594512	-0.152018	0.720839
C34	C	-2.113343	0.211176	0.338994
H35	H	-2.097936	0.197465	0.236694
H36	H	-2.095104	0.293242	0.364130
H37	H	-2.220018	0.207757	0.364110
H38	H	-1.336069	-0.141836	0.000008
C39	C	-1.882748	0.647258	0.278887
H40	H	-1.879818	0.734369	0.259870
H41	H	-1.790553	0.607323	0.333447
H42	H	-1.976392	0.644404	0.333449
C43	C	-2.113378	0.211177	0.660985
H44	H	-2.177459	0.268175	0.593356
H45	H	-2.055405	0.257893	0.720816
H46	H	-2.180323	0.172412	0.720784
C47	C	-1.882783	0.647270	-0.278829
H48	H	-1.879822	0.734375	-0.259811
H49	H	-1.976424	0.644414	-0.333390
H50	H	-1.790585	0.607331	-0.333391
C51	C	-1.661427	-0.190844	0.339035
H52	H	-1.597364	-0.247863	0.406657
H53	H	-1.594486	-0.152088	0.279234
H54	H	-1.719420	-0.237555	0.279205
H55	H	-1.891434	0.391755	-0.240910
H56	H	-1.891407	0.391718	0.240921
