data_functionalizedCrystal
_audit_creation_method	'MofGen! by Chris Wilmer'
_symmetry_space_group_name_H-M	'P1'
_symmetry_Int_Tables_number	1
_symmetry_cell_setting	triclinic
loop_
_symmetry_equiv_pos_as_xyz
  x,y,z
_cell_length_a	10.654545
_cell_length_b	10.489741
_cell_length_c	9.565339
_cell_angle_alpha	89.999484
_cell_angle_beta	90.003137
_cell_angle_gamma	84.511126
loop_
_atom_site_label
_atom_site_type_symbol
_atom_site_fract_x
_atom_site_fract_y
_atom_site_fract_z
O1	O	1.667928	0.179126	0.116245
O2	O	1.302456	0.196201	0.116251
O3	O	1.493508	0.002061	0.116240
O4	O	1.476876	0.373265	0.116257
O5	O	1.493493	0.002073	-0.116280
O6	O	1.302441	0.196213	-0.116269
O7	O	1.667912	0.179138	-0.116275
Zn8	Zn	1.485174	0.187677	-0.153190
Zn9	Zn	1.485194	0.187661	0.153166
O10	O	1.476861	0.373277	-0.116264
C11	C	1.255650	0.194955	-0.000008
C12	C	1.116205	0.191207	-0.000006
C13	C	1.050691	0.189450	-0.126754
C14	C	0.919670	0.185907	-0.126754
C15	C	0.919687	0.185886	0.126752
C16	C	1.050707	0.189419	0.126751
C17	C	1.492244	-0.045464	-0.000020
C18	C	1.488486	-0.187091	-0.000017
C19	C	1.366925	-0.255171	-0.000005
C20	C	1.424342	-0.347316	-0.114650
C21	C	1.424386	-0.347302	0.114596
C22	C	1.545953	-0.277371	-0.114757
C23	C	1.545980	-0.277348	0.114593
C24	C	1.603484	-0.369466	-0.000081
C25	C	1.714719	0.180384	-0.000012
C26	C	1.854164	0.184132	-0.000005
C27	C	1.478125	0.420802	-0.000001
C28	C	1.481883	0.562430	0.000005
N29	N	1.485170	0.187688	-0.362269
C30	C	1.396788	0.277440	-0.453467
C31	C	1.510504	0.303194	-0.546646
C32	C	1.371503	0.161944	-0.546645
C33	C	1.598943	0.213499	-0.453397
C34	C	1.459868	0.072198	-0.453387
C35	C	1.573666	0.097904	-0.546524
N36	N	1.485209	0.187641	0.362245
H37	H	1.104016	0.190906	-0.229968
H38	H	1.266979	-0.205470	-0.000119
C39	C	0.847634	0.183936	0.266173
H40	H	0.760218	0.181594	0.248023
H41	H	0.878016	0.110259	0.318253
H42	H	0.860201	0.258777	0.318250
H43	H	1.648506	0.021979	-0.587127
H44	H	1.104050	0.190846	0.229970
H45	H	1.597337	-0.246560	-0.211789
H46	H	1.703521	-0.418940	-0.000146
C47	C	1.615410	-0.235436	0.245529
H48	H	1.572106	-0.259118	0.326914
H49	H	1.698971	-0.276151	0.246354
H50	H	1.617956	-0.145164	0.244116
C51	C	1.430875	-0.059666	-0.397989
H52	H	1.350024	-0.077813	-0.429859
H53	H	1.492844	-0.123616	-0.431235
H54	H	1.431836	-0.058908	-0.298682
C55	C	1.354892	-0.389120	0.245534
H56	H	1.270857	-0.349591	0.245384
H57	H	1.353663	-0.479549	0.245058
H58	H	1.397270	-0.363988	0.326944
H59	H	1.275362	0.140191	-0.587608
H60	H	0.866335	0.184477	-0.229965
C61	C	1.354855	-0.389178	-0.245580
H62	H	1.270811	-0.349673	-0.245442
H63	H	1.397228	-0.364076	-0.326992
H64	H	1.353632	-0.479614	-0.245059
H65	H	1.695107	0.235370	-0.412609
H66	H	1.322115	0.353412	-0.412608
H67	H	1.531931	0.400841	-0.587609
