data_functionalizedCrystal
_audit_creation_method	'MofGen! by Chris Wilmer'
_symmetry_space_group_name_H-M	'P1'
_symmetry_Int_Tables_number	1
_symmetry_cell_setting	triclinic
loop_
_symmetry_equiv_pos_as_xyz
  x,y,z
_cell_length_a	15.944493
_cell_length_b	14.044220
_cell_length_c	12.503572
_cell_angle_alpha	86.156832
_cell_angle_beta	86.482830
_cell_angle_gamma	91.668039
loop_
_atom_site_label
_atom_site_type_symbol
_atom_site_fract_x
_atom_site_fract_y
_atom_site_fract_z
O1	O	1.128121	-0.116503	-0.089309
O2	O	0.884698	-0.131632	-0.089315
O3	O	1.002755	0.013916	-0.089301
O4	O	1.010064	-0.262051	-0.089322
O5	O	0.993878	0.002951	0.089340
O6	O	0.875821	-0.142596	0.089326
O7	O	1.119244	-0.127467	0.089332
Cu8	Cu	0.996722	-0.136033	0.105640
Cu9	Cu	1.007220	-0.123067	-0.105623
O10	O	1.001187	-0.273015	0.089318
C11	C	0.848918	-0.136496	0.000005
C12	C	0.755531	-0.134642	0.000003
C13	C	0.526186	-0.220315	-0.000004
C14	C	0.467791	-0.179521	0.088083
C15	C	0.584552	-0.131207	0.000006
C16	C	0.476547	-0.168690	-0.088042
C17	C	0.419395	-0.127895	0.000003
C18	C	0.527384	-0.090442	0.088166
C19	C	0.536147	-0.079619	-0.088039
C20	C	0.477779	-0.038761	0.000070
C21	C	0.679695	-0.133117	0.000008
C22	C	0.324254	-0.125978	0.000009
C23	C	0.995118	0.043747	0.000019
C24	C	0.985576	0.148972	0.000021
C25	C	1.155024	-0.122603	0.000010
C26	C	1.248411	-0.124457	0.000004
C27	C	1.008824	-0.302847	-0.000005
C28	C	1.018366	-0.408070	-0.000013
N29	N	0.989344	-0.145152	0.254232
C30	C	0.968133	0.341631	0.000005
C31	C	1.035805	0.399276	0.000003
C32	C	1.026099	0.506478	-0.000006
C33	C	0.977838	0.234419	0.000014
N34	N	1.014604	-0.113940	-0.254215
C35	C	0.978491	-0.158575	0.473346
C36	C	1.025454	-0.100520	0.526678
C37	C	1.019416	-0.107989	0.648601
C38	C	0.984529	-0.151108	0.351412
H39	H	0.437971	-0.221723	0.162548
H40	H	0.933753	-0.213884	0.519248
H41	H	0.547554	-0.297077	0.000073
C42	C	0.576466	-0.022658	-0.188635
H43	H	0.559151	-0.050586	-0.251162
H44	H	0.559176	0.041525	-0.189265
H45	H	0.635953	-0.023793	-0.187554
C46	C	0.446272	-0.213367	-0.188641
H47	H	0.462758	-0.277835	-0.188532
H48	H	0.386758	-0.211327	-0.188272
H49	H	0.470643	-0.178513	-0.251185
C50	C	0.557507	-0.045823	0.188876
H51	H	0.510340	-0.025976	0.230886
H52	H	0.586846	-0.091746	0.230045
H53	H	0.593913	0.007795	0.167824
C54	C	0.449102	0.064999	0.000145
H55	H	0.466540	0.092659	0.062770
H56	H	0.473493	0.100673	-0.061829
H57	H	0.389569	0.065671	-0.000436
H58	H	1.101033	0.368120	-0.000068
C59	C	0.880025	0.383714	0.000001
H60	H	0.838838	0.333452	-0.000003
H61	H	0.870342	0.418013	0.062293
H62	H	0.876533	0.425641	-0.062307
C63	C	1.085924	-0.025827	0.464669
H64	H	1.082120	-0.030557	0.389670
H65	H	1.071101	0.036314	0.483022
H66	H	1.141872	-0.037184	0.483044
