data_functionalizedCrystal
_audit_creation_method	'MofGen! by Chris Wilmer'
_symmetry_space_group_name_H-M	'P1'
_symmetry_Int_Tables_number	1
_symmetry_cell_setting	triclinic
loop_
_symmetry_equiv_pos_as_xyz
  x,y,z
_cell_length_a	29.839134
_cell_length_b	16.120507
_cell_length_c	16.120297
_cell_angle_alpha	84.388175
_cell_angle_beta	92.868807
_cell_angle_gamma	87.070741
loop_
_atom_site_label
_atom_site_type_symbol
_atom_site_fract_x
_atom_site_fract_y
_atom_site_fract_z
Zn1	Zn	0.663643	0.356870	-0.489657
Zn2	Zn	0.996977	0.690204	-0.156324
Zn3	Zn	1.330310	1.023537	0.177009
Zn4	Zn	0.663576	0.489560	-0.356963
Zn5	Zn	0.996910	0.822894	-0.023630
Zn6	Zn	1.330243	1.156227	0.309704
Zn7	Zn	0.592530	0.349793	-0.349881
Zn8	Zn	0.925863	0.683127	-0.016547
Zn9	Zn	1.259196	1.016460	0.316786
Zn10	Zn	0.584475	0.496587	-0.496659
Zn11	Zn	0.917808	0.829920	-0.163326
Zn12	Zn	1.251141	1.163254	0.170007
O13	O	0.626056	0.423203	-0.423290
O14	O	0.959389	0.756536	-0.089957
O15	O	1.292723	1.089869	0.243377
O16	O	0.726500	0.374493	-0.472089
O17	O	1.059833	0.707826	-0.138756
O18	O	1.393167	1.041160	0.194578
O19	O	0.657495	0.465117	-0.239063
O20	O	0.990828	0.798451	0.094270
O21	O	1.324161	1.131784	0.427604
O22	O	0.605362	0.233767	-0.362528
O23	O	0.938695	0.567100	-0.029195
O24	O	1.272029	0.900434	0.304139
O25	O	0.726451	0.471980	-0.374599
O26	O	1.059784	0.805313	-0.041266
O27	O	1.393117	1.138646	0.292068
O28	O	0.657609	0.238967	-0.465221
O29	O	0.990942	0.572300	-0.131888
O30	O	1.324276	0.905633	0.201445
O31	O	0.605297	0.362431	-0.233859
O32	O	0.938630	0.695764	0.099474
O33	O	1.271964	1.029098	0.432807
O34	O	0.528595	0.369245	-0.369317
O35	O	0.861929	0.702578	-0.035984
O36	O	1.195262	1.035911	0.297349
O37	O	0.591634	0.483956	-0.612691
O38	O	0.924967	0.817289	-0.279358
O39	O	1.258300	1.150622	0.053976
O40	O	0.522678	0.477093	-0.477155
O41	O	0.856011	0.810427	-0.143822
O42	O	1.189344	1.143760	0.189512
O43	O	0.649798	0.381306	-0.607547
O44	O	0.983132	0.714640	-0.274213
O45	O	1.316465	1.047973	0.059120
O46	O	0.649684	0.607457	-0.381388
O47	O	0.983018	0.940791	-0.048055
O48	O	1.316351	1.274124	0.285278
O49	O	0.591569	0.612620	-0.484023
O50	O	0.924902	0.945953	-0.150689
O51	O	1.258235	1.279286	0.182644
C52	C	0.509336	0.423164	-0.423228
C53	C	0.842669	0.756497	-0.089895
C54	C	1.176003	1.089831	0.243439
C55	C	0.459402	0.423169	-0.423222
C56	C	0.792735	0.756502	-0.089889
C57	C	1.126068	1.089835	0.243444
C58	C	0.146683	0.479435	-0.479380
C59	C	0.480017	0.812769	-0.146046
C60	C	0.813350	1.146102	0.187287
C61	C	-0.040992	0.479461	-0.479418
C62	C	0.292342	0.812794	-0.146085
C63	C	0.625675	1.146127	0.187249
O64	O	-0.067869	0.527259	-0.527127
O65	O	0.265464	0.860592	-0.193794
O66	O	0.598798	1.193926	0.139539
N67	N	-0.061389	0.423236	-0.423355
N68	N	0.271945	0.756570	-0.090021
N69	N	0.605278	1.089903	0.243312
C70	C	-0.034864	0.366998	-0.367281
C71	C	0.298469	0.700332	-0.033948
C72	C	0.631802	1.033665	0.299385
O73	O	-0.056520	0.319171	-0.319602
O74	O	0.276814	0.652504	0.013731
O75	O	0.610147	0.985838	0.347064
C76	C	0.152810	0.366970	-0.367247
C77	C	0.486143	0.700303	-0.033914
C78	C	0.819476	1.033636	0.299419
C79	C	0.173204	0.423203	-0.423309
C80	C	0.506538	0.756536	-0.089976
C81	C	0.839871	1.089870	0.243358
C82	C	0.167078	0.535663	-0.535437
C83	C	0.500411	0.868997	-0.202104
C84	C	0.833745	1.202330	0.131229
C85	C	0.213994	0.535660	-0.535424
C86	C	0.547327	0.868993	-0.202091
C87	C	0.880661	1.202326	0.131243
C88	C	0.240515	0.479427	-0.479353
C89	C	0.573848	0.812761	-0.146020
C90	C	0.907182	1.146094	0.187313
C91	C	0.220120	0.423199	-0.423296
C92	C	0.553454	0.756532	-0.089962
C93	C	0.886787	1.089866	0.243371
C94	C	0.179333	0.310728	-0.311179
C95	C	0.512667	0.644061	0.022155
C96	C	0.846000	0.977395	0.355488
C97	C	0.226255	0.310724	-0.311177
C98	C	0.559588	0.644058	0.022157
C99	C	0.892921	0.977391	0.355490
C100	C	0.246649	0.366958	-0.367238
C101	C	0.579982	0.700291	-0.033905
C102	C	0.913316	1.033625	0.299428
C103	C	0.293557	0.366963	-0.367212
C104	C	0.626890	0.700296	-0.033878
C105	C	0.960224	1.033630	0.299455
N106	N	0.313954	0.423187	-0.423275
N107	N	0.647288	0.756521	-0.089942
N108	N	0.980621	1.089854	0.243391
C109	C	0.287433	0.479419	-0.479346
C110	C	0.620767	0.812753	-0.146013
C111	C	0.954100	1.146086	0.187321
C112	C	-0.133396	0.367018	-0.367302
C113	C	0.199937	0.700352	-0.033968
C114	C	0.533271	1.033685	0.299365
C115	C	-0.180314	0.367027	-0.367309
C116	C	0.153019	0.700360	-0.033976
C117	C	0.486352	1.033693	0.299358
C118	C	-0.186438	0.479488	-0.479447
C119	C	0.146895	0.812821	-0.146114
C120	C	0.480228	1.146155	0.187220
C121	C	-0.139519	0.479483	-0.479435
C122	C	0.193814	0.812817	-0.146102
C123	C	0.527147	1.146150	0.187231
C124	C	-0.112999	0.423243	-0.423365
C125	C	0.220335	0.756576	-0.090032
C126	C	0.553668	1.089909	0.243301
C127	C	0.385960	0.479407	-0.479314
C128	C	0.719294	0.812741	-0.145980
C129	C	1.052627	1.146074	0.187353
C130	C	0.432881	0.479401	-0.479293
C131	C	0.766214	0.812734	-0.145960
C132	C	1.099547	1.146068	0.187374
C133	C	0.439001	0.366937	-0.367158
C134	C	0.772334	0.700270	-0.033825
C135	C	1.105667	1.033604	0.299508
C136	C	0.392085	0.366946	-0.367175
C137	C	0.725418	0.700279	-0.033842
C138	C	1.058751	1.033613	0.299491
C139	C	0.365565	0.423184	-0.423260
C140	C	0.698899	0.756518	-0.089927
C141	C	1.032232	1.089851	0.243407
O142	O	0.320462	0.319183	-0.319534
O143	O	0.653795	0.652517	0.013800
O144	O	0.987129	0.985850	0.347133
O145	O	0.309097	0.527227	-0.527030
O146	O	0.642431	0.860560	-0.193697
O147	O	0.975764	1.193894	0.139637
C148	C	0.099767	0.479439	-0.479393
C149	C	0.433101	0.812772	-0.146060
C150	C	0.766434	1.146106	0.187274
C151	C	0.079372	0.423211	-0.423335
C152	C	0.412706	0.756544	-0.090002
C153	C	0.746039	1.089877	0.243331
C154	C	0.105893	0.366979	-0.367265
C155	C	0.439227	0.700312	-0.033931
C156	C	0.772560	1.033645	0.299402
C157	C	0.032454	0.423219	-0.423343
C158	C	0.365787	0.756552	-0.090009
C159	C	0.699121	1.089885	0.243324
C160	C	0.005933	0.479451	-0.479413
C161	C	0.339266	0.812784	-0.146080
C162	C	0.672600	1.146118	0.187253
C163	C	0.026330	0.535675	-0.535477
C164	C	0.359664	0.869008	-0.202143
C165	C	0.692997	1.202342	0.131190
C166	C	0.073246	0.535671	-0.535464
C167	C	0.406580	0.869005	-0.202130
C168	C	0.739913	1.202338	0.131203
C169	C	0.085496	0.310754	-0.311201
C170	C	0.418830	0.644088	0.022132
C171	C	0.752163	0.977421	0.355466
C172	C	0.038580	0.310764	-0.311218
C173	C	0.371913	0.644097	0.022115
C174	C	0.705247	0.977430	0.355448
C175	C	0.012059	0.366996	-0.367289
C176	C	0.345392	0.700329	-0.033956
C177	C	0.678726	1.033662	0.299378
C178	C	0.619757	0.640367	-0.434252
C179	C	0.953090	0.973700	-0.100919
C180	C	1.286424	1.307034	0.232415
C181	C	0.617102	0.733272	-0.438969
C182	C	0.950436	1.066606	-0.105636
C183	C	1.283769	1.399939	0.227697
C184	C	0.639864	0.942186	-0.398947
C185	C	0.973197	1.275519	-0.065613
C186	C	1.306530	1.608853	0.267720
C187	C	0.612264	0.903366	-0.447591
C188	C	0.945597	1.236699	-0.114258
C189	C	1.278931	1.570033	0.219075
C190	C	0.614957	0.808717	-0.442793
C191	C	0.948290	1.142050	-0.109459
C192	C	1.281624	1.475384	0.223874
C193	C	0.637171	1.036843	-0.403744
C194	C	0.970505	1.370177	-0.070411
C195	C	1.303838	1.703510	0.262922
C196	C	0.743232	0.423242	-0.423353
C197	C	1.076565	0.756575	-0.090020
C198	C	1.409898	1.089909	0.243314
C199	C	0.793165	0.423259	-0.423380
C200	C	1.126498	0.756592	-0.090046
C201	C	1.459831	1.089925	0.243287
C202	C	0.619825	0.434204	-0.641293
C203	C	0.953158	0.767538	-0.307960
C204	C	1.286492	1.100871	0.025373
C205	C	0.617170	0.438893	-0.734194
C206	C	0.950503	0.772226	-0.400860
C207	C	1.283836	1.105559	-0.067527
C208	C	0.632374	1.205191	-0.412291
C209	C	0.965708	1.538524	-0.078958
C210	C	1.299041	1.871857	0.254376
C211	C	0.635024	1.112285	-0.407571
C212	C	0.968357	1.445618	-0.074238
C213	C	1.301690	1.778952	0.259096
C214	C	0.612306	0.447433	-0.904282
C215	C	0.945639	0.780767	-0.570948
C216	C	1.278972	1.114100	-0.237615
C217	C	0.639902	0.398721	-0.943138
C218	C	0.973235	0.732055	-0.609804
C219	C	1.306569	1.065388	-0.276471
C220	C	0.637196	0.403474	-1.037780
C221	C	0.970529	0.736807	-0.704447
C222	C	1.303862	1.070140	-0.371114
C223	C	0.615011	0.442682	-0.809630
C224	C	0.948345	0.776016	-0.476297
C225	C	1.281678	1.109349	-0.142964
C226	C	0.632290	0.412183	-0.206132
C227	C	0.965624	0.745517	0.127202
C228	C	1.298957	1.078850	0.460535
C229	C	0.635039	0.407260	-0.113220
C230	C	0.968373	0.740593	0.220113
C231	C	1.301706	1.073926	0.553446
H232	H	0.449483	0.525196	-0.524946
H233	H	0.782817	0.858529	-0.191612
H234	H	1.116150	1.191863	0.141721
Cl235	Cl	0.012947	0.240064	-0.240731
Cl236	Cl	0.346281	0.573398	0.092602
Cl237	Cl	0.679614	0.906731	0.425935
H238	H	0.665560	0.353448	-0.905324
H239	H	0.998893	0.686781	-0.571991
H240	H	1.332226	1.020114	-0.238657
Cl241	Cl	0.572696	0.517331	-0.962660
Cl242	Cl	0.906029	0.850664	-0.629327
Cl243	Cl	1.239362	1.183998	-0.295993
H244	H	-0.111807	0.321219	-0.321639
H245	H	0.221527	0.654553	0.011695
H246	H	0.554860	0.987886	0.345028
H247	H	0.364374	0.525200	-0.524985
H248	H	0.697707	0.858534	-0.191651
H249	H	1.031040	1.191867	0.141682
Cl250	Cl	0.572658	0.961798	-0.517451
Cl251	Cl	0.905991	1.295132	-0.184117
Cl252	Cl	1.239325	1.628465	0.149216
H253	H	0.230595	0.581449	-0.581077
H254	H	0.563928	0.914782	-0.247743
H255	H	0.897261	1.248116	0.085590
H256	H	0.145489	0.581455	-0.581101
H257	H	0.478822	0.914788	-0.247768
H258	H	0.812156	1.248122	0.085565
H259	H	-0.122917	0.525272	-0.525087
H260	H	0.210416	0.858606	-0.191753
H261	H	0.543749	1.191939	0.141580
Cl262	Cl	-0.219788	0.550174	-0.549941
Cl263	Cl	0.113546	0.883507	-0.216608
Cl264	Cl	0.446879	1.216841	0.116725
H265	H	0.665513	0.904341	-0.353699
H266	H	0.998846	1.237674	-0.020366
H267	H	1.332180	1.571008	0.312967
Cl268	Cl	0.259592	0.240017	-0.240685
Cl269	Cl	0.592925	0.573350	0.092649
Cl270	Cl	0.926259	0.906683	0.425982
Cl271	Cl	-0.205947	0.296340	-0.296818
Cl272	Cl	0.127386	0.629673	0.036515
Cl273	Cl	0.460720	0.963007	0.369848
H274	H	0.375479	0.321158	-0.321524
H275	H	0.708812	0.654491	0.011809
H276	H	1.042145	0.987824	0.345143
Cl277	Cl	0.153706	0.240024	-0.240702
Cl278	Cl	0.487040	0.573357	0.092631
Cl279	Cl	0.820373	0.906690	0.425964
Cl280	Cl	-0.007019	0.606369	-0.605962
Cl281	Cl	0.326314	0.939703	-0.272628
Cl282	Cl	0.659647	1.273036	0.060705
Cl283	Cl	0.118830	0.240054	-0.240706
Cl284	Cl	0.452164	0.573387	0.092627
Cl285	Cl	0.785497	0.906720	0.425961
Cl286	Cl	0.098878	0.606368	-0.605946
Cl287	Cl	0.432211	0.939701	-0.272613
Cl288	Cl	0.765545	1.273034	0.060721
Cl289	Cl	0.472350	0.296248	-0.296674
Cl290	Cl	0.805683	0.629581	0.036659
Cl291	Cl	1.139017	0.962915	0.369993
