data_functionalizedCrystal
_audit_creation_method	'MofGen! by Chris Wilmer'
_symmetry_space_group_name_H-M	'P1'
_symmetry_Int_Tables_number	1
_symmetry_cell_setting	triclinic
loop_
_symmetry_equiv_pos_as_xyz
  x,y,z
_cell_length_a	14.044191
_cell_length_b	8.597304
_cell_length_c	7.681481
_cell_angle_alpha	103.491353
_cell_angle_beta	83.749037
_cell_angle_gamma	89.224089
loop_
_atom_site_label
_atom_site_type_symbol
_atom_site_fract_x
_atom_site_fract_y
_atom_site_fract_z
O1	O	1.248746	0.398150	0.206735
O2	O	0.972775	0.384273	0.204652
O3	O	1.118308	0.160245	0.170649
O4	O	1.103213	0.622178	0.240738
O5	O	1.136221	0.132603	-0.126404
O6	O	0.990688	0.356631	-0.092401
O7	O	1.266659	0.370507	-0.090319
Zn8	Zn	1.131517	0.359180	-0.138524
Zn9	Zn	1.107917	0.395600	0.252857
O10	O	1.121126	0.594536	-0.056316
C11	C	0.946417	0.364381	0.055207
C12	C	0.841191	0.346271	0.052469
C13	C	1.126642	0.086950	0.013102
C14	C	1.124774	-0.090266	-0.013775
C15	C	0.590904	0.441604	0.066916
C16	C	0.648535	0.313185	0.047434
C17	C	0.755738	0.331598	0.050236
C18	C	0.483690	0.423193	0.064114
C19	C	1.293017	0.390400	0.059130
C20	C	1.398242	0.408511	0.061880
C21	C	1.112792	0.667831	0.101235
C22	C	1.114659	0.845048	0.128123
N23	N	1.147631	0.334325	-0.405630
N24	N	1.091810	0.420444	0.519962
H25	H	1.107425	-0.074755	0.270181
H26	H	0.622075	0.565367	0.085700
H27	H	1.034828	0.508346	-0.391500
H28	H	1.131995	-0.170471	-0.155841
H29	H	0.617354	0.189424	0.028780
H30	H	1.204624	0.246430	-0.494177
