data_functionalizedCrystal
_audit_creation_method	'MofGen! by Chris Wilmer'
_symmetry_space_group_name_H-M	'P1'
_symmetry_Int_Tables_number	1
_symmetry_cell_setting	triclinic
loop_
_symmetry_equiv_pos_as_xyz
  x,y,z
_cell_length_a	11.792254
_cell_length_b	10.868271
_cell_length_c	10.654550
_cell_angle_alpha	89.995020
_cell_angle_beta	95.658236
_cell_angle_gamma	90.004259
loop_
_atom_site_label
_atom_site_type_symbol
_atom_site_fract_x
_atom_site_fract_y
_atom_site_fract_z
O1	O	1.507298	0.102321	-0.172212
O2	O	1.176999	0.102324	-0.189936
O3	O	1.349743	0.102314	0.001687
O4	O	1.334554	0.102330	-0.363834
O5	O	1.349728	-0.102330	0.001694
O6	O	1.176985	-0.102321	-0.189928
O7	O	1.507283	-0.102324	-0.172204
Zn8	Zn	1.342132	-0.134814	-0.181065
Zn9	Zn	1.342151	0.134814	-0.181075
O10	O	1.334540	-0.102315	-0.363827
C11	C	1.134699	0.000002	-0.188815
C12	C	1.008678	0.000002	-0.185474
C13	C	0.906335	0.000007	-0.182758
C14	C	0.777941	0.000008	-0.179363
N15	N	1.342127	-0.318828	-0.181058
C16	C	1.342145	-0.569834	-0.181072
C17	C	1.342131	-0.430157	-0.181068
C18	C	1.549584	0.000001	-0.173325
C19	C	1.675605	0.000008	-0.176666
C20	C	1.348620	-0.000007	0.048485
C21	C	1.345284	-0.000005	0.187919
N22	N	1.342164	0.318828	-0.181073
C23	C	1.335662	0.000010	-0.410625
C24	C	1.338999	0.000016	-0.550059
C25	C	1.446992	-0.000006	0.267687
C26	C	1.443850	0.000009	0.398699
C27	C	1.237283	0.000020	0.370162
C28	C	1.240426	0.000014	0.239153
C29	C	1.563644	0.071712	0.594875
C30	C	1.665358	0.071690	0.674648
C31	C	1.757559	-0.000026	0.644735
C32	C	1.748051	-0.071751	0.535051
C33	C	1.646335	-0.071741	0.455284
C34	C	1.554138	0.000004	0.485196
C35	C	1.120640	-0.071699	0.042976
C36	C	1.018923	-0.071697	-0.036793
C37	C	0.926712	0.000012	-0.006884
C38	C	0.936208	0.071718	0.102803
C39	C	1.037925	0.071716	0.182572
C40	C	1.130137	0.000010	0.152654
H41	H	1.532374	-0.000019	0.225978
N42	N	1.124196	0.000023	0.425434
H43	H	1.079585	-0.075839	0.396402
H44	H	1.079684	0.075935	0.396377
N45	N	1.675615	0.149038	0.792950
H46	H	1.601774	0.194487	0.799793
H47	H	1.739637	0.210258	0.789251
H48	H	0.843883	-0.000009	-0.071835
N49	N	1.464195	0.149068	0.627133
H50	H	1.443767	0.210382	0.557312
H51	H	1.485724	0.194409	0.708751
H52	H	1.045658	0.130122	0.271876
H53	H	0.861113	0.130084	0.127173
H54	H	1.011192	-0.130100	-0.126098
H55	H	1.823130	-0.130158	0.510714
N56	N	1.636066	-0.149093	0.336992
H57	H	1.709908	-0.194537	0.330147
H58	H	1.619285	-0.094100	0.261015
N59	N	1.220106	-0.149034	0.010711
H60	H	1.198651	-0.194467	-0.070873
H61	H	1.240505	-0.210268	0.080610
H62	H	1.840377	-0.000042	0.709696
