data_functionalizedCrystal
_audit_creation_method	'MofGen! by Chris Wilmer'
_symmetry_space_group_name_H-M	'P1'
_symmetry_Int_Tables_number	1
_symmetry_cell_setting	triclinic
loop_
_symmetry_equiv_pos_as_xyz
  x,y,z
_cell_length_a	10.686220
_cell_length_b	19.120785
_cell_length_c	10.686551
_cell_angle_alpha	83.346482
_cell_angle_beta	90.308082
_cell_angle_gamma	97.021883
loop_
_atom_site_label
_atom_site_type_symbol
_atom_site_fract_x
_atom_site_fract_y
_atom_site_fract_z
Zn1	Zn	1.958094	-0.172368	-0.550221
Zn2	Zn	2.458094	0.327632	-0.050221
Zn3	Zn	1.931328	-0.300335	-0.331432
Zn4	Zn	2.431328	0.199665	0.168568
Zn5	Zn	1.730724	-0.190454	-0.355262
Zn6	Zn	2.230724	0.309546	0.144738
Zn7	Zn	1.737876	-0.298902	-0.557310
Zn8	Zn	2.237876	0.201098	-0.057310
O9	O	1.839506	-0.240515	-0.448556
O10	O	2.339506	0.259485	0.051444
O11	O	2.130660	-0.182373	-0.508258
O12	O	2.630660	0.317627	-0.008258
O13	O	1.890522	-0.293928	-0.158471
O14	O	2.390522	0.206072	0.341529
O15	O	1.769093	-0.089113	-0.388131
O16	O	2.269093	0.410887	0.111869
O17	O	2.110994	-0.276391	-0.347514
O18	O	2.610994	0.223609	0.152486
O19	O	1.936142	-0.075826	-0.531366
O20	O	2.436142	0.424174	-0.031366
O21	O	1.743139	-0.213198	-0.175979
O22	O	2.243139	0.286802	0.324021
O23	O	1.555557	-0.211809	-0.395005
O24	O	2.055557	0.288191	0.104995
O25	O	1.781284	-0.273949	-0.732492
O26	O	2.281284	0.226051	-0.232492
O27	O	1.560812	-0.291486	-0.543448
O28	O	2.060812	0.208514	-0.043448
O29	O	1.943077	-0.180984	-0.727284
O30	O	2.443077	0.319016	-0.227284
O31	O	1.897458	-0.399086	-0.354388
O32	O	2.397458	0.100914	0.145612
O33	O	1.755330	-0.398034	-0.520340
O34	O	2.255330	0.101966	-0.020340
C35	C	1.512519	-0.253455	-0.472582
C36	C	2.012519	0.246545	0.027418
C37	C	1.372634	-0.259007	-0.482889
C38	C	1.872634	0.240993	0.017111
C39	C	1.824302	-0.424212	-0.435573
C40	C	2.324302	0.075788	0.064427
C41	C	1.817916	-0.502792	-0.430052
C42	C	2.317916	-0.002792	0.069948
C43	C	1.777410	-0.947573	-0.395126
C44	C	2.277410	-0.447573	0.104874
C45	C	1.783413	-0.873739	-0.400313
C46	C	2.283413	-0.373739	0.099687
C47	C	1.873338	-0.829843	-0.477549
C48	C	2.373338	-0.329843	0.022451
C49	C	1.957257	-0.859785	-0.549612
C50	C	2.457257	-0.359785	-0.049612
C51	C	1.951247	-0.933618	-0.544431
C52	C	2.451247	-0.433618	-0.044431
C53	C	1.895826	-0.606566	-0.496934
C54	C	2.395826	-0.106566	0.003066
C55	C	1.901831	-0.532729	-0.502106
C56	C	2.401831	-0.032729	-0.002106
C57	C	1.727985	-0.546687	-0.352809
C58	C	2.227985	-0.046687	0.147191
C59	C	1.721988	-0.620521	-0.347629
C60	C	2.221988	-0.120521	0.152371
C61	C	1.805903	-0.650457	-0.419697
C62	C	2.305903	-0.150457	0.080303
C63	C	1.879478	-0.754373	-0.482850
C64	C	2.379478	-0.254373	0.017150
C65	C	1.799756	-0.725926	-0.414402
C66	C	2.299756	-0.225926	0.085598
C67	C	2.167769	-0.227524	-0.424437
C68	C	2.667769	0.272476	0.075563
C69	C	2.307655	-0.221989	-0.414159
C70	C	2.807655	0.278011	0.085841
C71	C	1.865964	-0.225289	-0.776831
C72	C	2.365964	0.274711	-0.276831
C73	C	1.877239	-0.218801	-0.916722
C74	C	2.377239	0.281199	-0.416722
C75	C	1.854805	-0.056098	-0.461616
C76	C	2.354805	0.443902	0.038384
C77	C	1.861325	0.022490	-0.467181
C78	C	2.361325	0.522490	0.032819
C79	C	1.813227	-0.255627	-0.121557
C80	C	2.313227	0.244373	0.378443
C81	C	1.802212	-0.261907	0.018337
C82	C	2.302212	0.238093	0.518337
H83	H	1.359039	-0.186049	-0.347430
H84	H	1.859039	0.313951	0.152570
F85	F	1.305467	-0.305993	-0.570104
F86	F	1.805467	0.194007	-0.070104
F87	F	2.052952	-0.813067	-0.631825
F88	F	2.552952	-0.313067	-0.131825
H89	H	1.729356	-0.303777	-0.930240
H90	H	2.229356	0.196223	-0.430240
H91	H	1.659664	-0.522307	-0.294136
H92	H	2.159664	-0.022307	0.205864
F93	F	1.975175	-0.707650	-0.565054
F94	F	2.475175	-0.207650	-0.065054
F95	F	1.681705	-0.994284	-0.312913
F96	F	2.181705	-0.494284	0.187087
F97	F	1.972487	-0.164075	-0.983937
F98	F	2.472487	0.335925	-0.483937
H99	H	1.715082	-0.849364	-0.341642
H100	H	2.215082	-0.349364	0.158358
F101	F	1.997550	-0.486013	-0.584311
F102	F	2.497550	0.013987	-0.084311
F103	F	1.985127	-0.638417	-0.573646
F104	F	2.485127	-0.138417	-0.073646
H105	H	1.726534	-0.761669	-0.351522
H106	H	2.226534	-0.261669	0.148478
F107	F	1.626277	-0.667233	-0.265425
F108	F	2.126277	-0.167233	0.234575
F109	F	2.040560	-0.965479	-0.621124
F110	F	2.540560	-0.465479	-0.121124
