data_functionalizedCrystal
_audit_creation_method	'MofGen! by Chris Wilmer'
_symmetry_space_group_name_H-M	'P1'
_symmetry_Int_Tables_number	1
_symmetry_cell_setting	triclinic
loop_
_symmetry_equiv_pos_as_xyz
  x,y,z
_cell_length_a	15.625110
_cell_length_b	11.026607
_cell_length_c	9.482900
_cell_angle_alpha	78.599815
_cell_angle_beta	98.477792
_cell_angle_gamma	84.190764
loop_
_atom_site_label
_atom_site_type_symbol
_atom_site_fract_x
_atom_site_fract_y
_atom_site_fract_z
O1	O	1.176602	-0.236926	0.499491
O2	O	0.929036	-0.235304	0.368956
O3	O	1.032301	-0.057728	0.423410
O4	O	1.073338	-0.414503	0.445037
O5	O	1.011349	-0.093951	0.654154
O6	O	0.908084	-0.271528	0.599700
O7	O	1.155651	-0.273150	0.730235
Cu8	Cu	1.029954	-0.275646	0.686036
Cu9	Cu	1.054732	-0.232808	0.413155
O10	O	1.052386	-0.450726	0.675781
C11	C	0.886374	-0.249896	0.467357
C12	C	0.790466	-0.239390	0.416787
C13	C	0.666708	-0.204841	0.219741
C14	C	0.756826	-0.214714	0.267274
C15	C	0.733994	-0.254210	0.518826
C16	C	0.643872	-0.244346	0.471315
C17	C	0.610236	-0.219660	0.321771
C18	C	0.587401	-0.259165	0.573344
C19	C	0.497286	-0.249296	0.525836
C20	C	0.463643	-0.224607	0.376298
C21	C	0.520122	-0.209791	0.274262
C22	C	0.621037	-0.283842	0.722887
C23	C	0.564566	-0.298661	0.824917
C24	C	0.474450	-0.288801	0.777409
C25	C	0.440807	-0.264112	0.627871
C26	C	0.417972	-0.303617	0.879445
C27	C	0.327857	-0.293748	0.831936
C28	C	0.350693	-0.254243	0.580363
C29	C	1.014255	-0.029988	0.534789
C30	C	0.991687	0.106635	0.522884
C31	C	1.198313	-0.258558	0.631831
C32	C	1.294222	-0.269062	0.682392
C33	C	1.070432	-0.478466	0.564399
C34	C	1.093001	-0.615087	0.576295
N35	N	1.012533	-0.305777	0.877970
C36	C	1.054001	0.175171	0.555739
C37	C	1.030678	0.316379	0.543436
N38	N	1.072159	-0.202668	0.221224
C39	C	1.049587	-0.241688	0.969708
C40	C	1.035100	-0.266767	1.129486
H41	H	0.639321	-0.184754	0.097968
H42	H	1.163631	0.339072	0.613427
C43	C	0.890351	0.260491	0.345150
C44	C	0.896356	0.168539	0.472614
H45	H	0.831497	0.298709	0.314122
H46	H	0.909047	0.223357	0.270709
H47	H	0.926429	0.321779	0.364185
H48	H	0.860284	0.107246	0.453576
H49	H	0.877650	0.205673	0.547071
C50	C	0.870693	-0.372856	0.850387
C51	C	0.955224	-0.404911	0.931612
H52	H	0.835312	-0.434056	0.883509
H53	H	0.872917	-0.369019	0.750066
H54	H	0.846517	-0.293760	0.862522
H55	H	0.979403	-0.484003	0.919469
H56	H	0.953004	-0.408761	1.031957
H57	H	1.124616	0.129306	0.592981
C58	C	0.929337	0.470229	0.365699
C59	C	0.935342	0.378278	0.493163
H60	H	0.870483	0.508447	0.334671
H61	H	0.948033	0.433095	0.291258
H62	H	0.965415	0.531517	0.384734
H63	H	0.899270	0.316984	0.474125
H64	H	0.916636	0.415411	0.567620
C65	C	1.071256	-0.025973	0.933882
C66	C	1.106899	-0.142570	0.916031
H67	H	1.106640	0.035212	0.900728
H68	H	1.069057	-0.029798	1.034208
H69	H	1.013903	-0.004250	0.878795
H70	H	1.164250	-0.164297	0.971127
H71	H	1.109108	-0.138747	0.815687
H72	H	0.992645	-0.340202	1.169223
H73	H	1.114606	-0.129223	1.181483
H74	H	0.323306	-0.234156	0.458590
H75	H	0.591965	-0.318756	0.946676
H76	H	0.390266	-0.216574	0.337619
C77	C	0.518309	-0.277904	0.048617
C78	C	0.483139	-0.182672	0.109880
H79	H	0.495479	-0.261158	-0.052861
H80	H	0.503243	-0.355476	0.094839
H81	H	0.580060	-0.281647	0.062307
H82	H	0.421389	-0.178934	0.096200
H83	H	0.498200	-0.105078	0.063643
C84	C	0.770345	-0.174703	0.013825
C85	C	0.818903	-0.198446	0.155111
H86	H	0.808671	-0.164670	-0.055415
H87	H	0.730336	-0.100582	-0.001791
H88	H	0.739108	-0.242769	0.002856
H89	H	0.850135	-0.130375	0.166082
H90	H	0.858928	-0.272575	0.170732
H91	H	0.761392	-0.274305	0.640586
H92	H	0.445371	-0.323705	1.001204
C93	C	0.314331	-0.333801	1.085376
C94	C	0.265778	-0.310042	0.944085
H95	H	0.276003	-0.343864	1.154610
H96	H	0.345557	-0.265743	1.096367
H97	H	0.354350	-0.407925	1.100977
H98	H	0.225762	-0.235912	0.928479
H99	H	0.234536	-0.378106	0.933088
C100	C	0.749853	-0.182405	0.719057
C101	C	0.720091	-0.294672	0.775126
H102	H	0.811004	-0.189091	0.751305
H103	H	0.720845	-0.116390	0.752441
H104	H	0.737907	-0.165610	0.615394
H105	H	0.732031	-0.311463	0.878789
H106	H	0.749109	-0.360707	0.741750
