data_functionalizedCrystal
_audit_creation_method	'MofGen! by Chris Wilmer'
_symmetry_space_group_name_H-M	'P1'
_symmetry_Int_Tables_number	1
_symmetry_cell_setting	triclinic
loop_
_symmetry_equiv_pos_as_xyz
  x,y,z
_cell_length_a	11.169417
_cell_length_b	16.625546
_cell_length_c	16.625539
_cell_angle_alpha	90.030397
_cell_angle_beta	90.017240
_cell_angle_gamma	90.023347
loop_
_atom_site_label
_atom_site_type_symbol
_atom_site_fract_x
_atom_site_fract_y
_atom_site_fract_z
Zn1	Zn	1.834831	-0.320981	0.455826
Zn2	Zn	2.334831	0.179019	0.955826
Zn3	Zn	1.834686	-0.455824	0.320988
Zn4	Zn	2.334686	0.044176	0.820988
Zn5	Zn	1.634125	-0.321012	0.321014
Zn6	Zn	2.134125	0.178988	0.821014
Zn7	Zn	1.634081	-0.455778	0.455786
Zn8	Zn	2.134081	0.044222	0.955786
O9	O	1.734431	-0.388399	0.388404
O10	O	2.234431	0.111601	0.888404
O11	O	2.002761	-0.338875	0.437945
O12	O	2.502761	0.161125	0.937945
O13	O	1.808040	-0.437973	0.208159
O14	O	2.308040	0.062027	0.708159
O15	O	1.660828	-0.208175	0.338925
O16	O	2.160828	0.291825	0.838925
O17	O	2.002655	-0.437944	0.338881
O18	O	2.502655	0.062056	0.838881
O19	O	1.808285	-0.208153	0.437971
O20	O	2.308285	0.291847	0.937971
O21	O	1.660688	-0.338927	0.208178
O22	O	2.160688	0.161073	0.708178
O23	O	1.466170	-0.338882	0.338886
O24	O	1.966170	0.161118	0.838886
O25	O	1.660753	-0.437864	0.568624
O26	O	2.160753	0.062136	1.068624
O27	O	1.466138	-0.437894	0.437902
O28	O	1.966138	0.062106	0.937902
O29	O	1.808243	-0.338830	0.568653
O30	O	2.308243	0.161170	1.068653
O31	O	1.807997	-0.568651	0.338842
O32	O	2.307997	-0.068651	0.838842
O33	O	1.660613	-0.568616	0.437877
O34	O	2.160613	-0.068616	0.937877
C35	C	1.422606	-0.388387	0.388393
C36	C	1.922606	0.111613	0.888393
C37	C	1.289206	-0.388401	0.388408
C38	C	1.789206	0.111599	0.888408
C39	C	1.734317	-0.597890	0.388370
C40	C	2.234317	-0.097890	0.888370
C41	C	1.734379	-0.687511	0.388382
C42	C	2.234379	-0.187511	0.888382
C43	C	1.734588	-1.015686	0.388466
C44	C	2.234588	-0.515686	0.888466
C45	C	1.734526	-0.924378	0.388445
C46	C	2.234526	-0.424378	0.888445
C47	C	1.734482	-0.851601	0.388424
C48	C	2.234482	-0.351601	0.888424
C49	C	1.734422	-0.760287	0.388404
C50	C	2.234422	-0.260287	0.888404
C51	C	2.047473	-0.388412	0.388415
C52	C	2.547473	0.111588	0.888415
C53	C	2.180873	-0.388417	0.388419
C54	C	2.680873	0.111583	0.888419
C55	C	1.734509	-0.388339	0.598713
C56	C	2.234509	0.111661	1.098713
C57	C	1.734542	-0.388313	0.688334
C58	C	2.234542	0.111687	1.188334
C59	C	1.734578	-0.178090	0.388455
C60	C	2.234578	0.321910	0.888455
C61	C	1.734640	-0.088469	0.388477
C62	C	2.234640	0.411531	0.888477
C63	C	1.734422	-0.388400	0.178913
C64	C	2.234422	0.111600	0.678913
C65	C	1.734622	-0.388199	0.089292
C66	C	2.234622	0.111801	0.589292
C67	C	1.734598	-0.388223	1.016510
C68	C	2.234598	0.111777	1.516510
C69	C	1.734579	-0.388250	0.925201
C70	C	2.234579	0.111750	1.425201
C71	C	1.734571	-0.388269	0.852425
C72	C	2.234571	0.111731	1.352425
C73	C	1.734551	-0.388295	0.761110
C74	C	2.234551	0.111705	1.261110
