data_functionalizedCrystal
_audit_creation_method	'MofGen! by Chris Wilmer'
_symmetry_space_group_name_H-M	'P1'
_symmetry_Int_Tables_number	1
_symmetry_cell_setting	triclinic
loop_
_symmetry_equiv_pos_as_xyz
  x,y,z
_cell_length_a	18.101390
_cell_length_b	15.297475
_cell_length_c	15.297327
_cell_angle_alpha	88.374454
_cell_angle_beta	99.643178
_cell_angle_gamma	99.683110
loop_
_atom_site_label
_atom_site_type_symbol
_atom_site_fract_x
_atom_site_fract_y
_atom_site_fract_z
Zn1	Zn	-0.682522	-1.278654	-0.580734
Zn2	Zn	-0.575867	-1.253195	-0.727204
Zn3	Zn	-0.534324	-1.132182	-0.555390
Zn4	Zn	-0.675294	-1.106797	-0.701768
O5	O	-0.617002	-1.192707	-0.641274
O6	O	-0.688785	-1.397844	-0.621416
O7	O	-0.466724	-1.237111	-0.704451
O8	O	-0.539622	-1.172890	-0.436194
O9	O	-0.610426	-1.379139	-0.729027
O10	O	-0.648502	-1.280503	-0.454814
O11	O	-0.436203	-1.148203	-0.578220
O12	O	-0.532614	-1.006248	-0.553555
O13	O	-0.779885	-1.129626	-0.685674
O14	O	-0.636184	-0.987598	-0.661098
O15	O	-0.785195	-1.255888	-0.596751
O16	O	-0.603417	-1.212496	-0.846388
O17	O	-0.676466	-1.104939	-0.827700
C18	C	-0.579107	-0.965142	-0.601817
C19	C	-0.562915	-0.867785	-0.584958
C20	C	-0.643686	-1.153224	-0.868826
C21	C	-0.655139	-1.136413	-0.966187
C22	C	-0.810162	-1.192765	-0.641202
C23	C	-0.892475	-1.192790	-0.641171
C24	C	-1.043186	-1.192826	-0.641150
C25	C	-1.077880	-1.272271	-0.585196
C26	C	-1.163567	-1.272522	-0.585428
C27	C	-1.191570	-1.192862	-0.641126
C28	C	-1.175420	-1.201571	-0.737791
C29	C	-1.089810	-1.202110	-0.737498
C30	C	-1.056528	-1.104370	-0.601211
C31	C	-1.142024	-1.105239	-0.599247
C32	C	-1.275431	-1.192880	-0.641119
C33	C	-0.959326	-1.192810	-0.641164
C34	C	-0.424594	-1.192710	-0.641291
C35	C	-0.342281	-1.192898	-0.641104
C36	C	-0.655045	-1.421161	-0.680886
C37	C	-0.671257	-1.518514	-0.697766
C38	C	-0.732728	-0.554548	-0.761773
C39	C	-0.747940	-0.646019	-0.777619
C40	C	-0.701685	-0.701465	-0.729455
C41	C	-0.640216	-0.665431	-0.665442
C42	C	-0.625000	-0.573951	-0.649599
C43	C	-0.593956	-0.720868	-0.617282
C44	C	-0.532487	-0.684834	-0.553269
C45	C	-0.517274	-0.593363	-0.537429
C46	C	-0.563528	-0.537917	-0.585593
C47	C	-0.609173	-0.812348	-0.633125
C48	C	-0.501444	-0.831751	-0.520951
C49	C	-0.486233	-0.740280	-0.505105
C50	C	-0.535455	-1.313218	-1.279461
C51	C	-0.524690	-1.329013	-1.187985
C52	C	-0.557301	-1.280864	-1.132531
C53	C	-0.600679	-1.216919	-1.168562
C54	C	-0.611440	-1.201118	-1.260047
C55	C	-0.633287	-1.168764	-1.113117
C56	C	-0.676665	-1.104818	-1.149148
C57	C	-0.687425	-1.089021	-1.240623
C58	C	-0.654813	-1.137169	-1.296077
C59	C	-0.622526	-1.184565	-1.021633
C60	C	-0.698512	-1.072464	-1.002218
C61	C	-0.709277	-1.056670	-1.093694
C62	C	-0.590234	-1.232368	-0.412838
C63	C	-0.578827	-1.249269	-0.315492
H64	H	-1.173992	-1.268944	-0.514263
O65	O	-1.040787	-1.268390	-0.500039
C66	C	-1.031046	-1.335972	-0.355245
C67	C	-1.073137	-1.340463	-0.451654
H68	H	-1.057173	-1.394245	-0.316102
H69	H	-1.036259	-1.271135	-0.323683
H70	H	-0.968500	-1.339238	-0.354595
H71	H	-1.135697	-1.337233	-0.452383
H72	H	-1.067861	-1.405295	-0.483176
O73	O	-0.548804	-0.449082	-0.570072
C74	C	-0.536235	-0.332358	-0.463410
C75	C	-0.552935	-0.432985	-0.480861
H76	H	-0.539553	-0.319313	-0.391280
H77	H	-0.579871	-0.298898	-0.508775
H78	H	-0.476858	-0.304368	-0.477250
H79	H	-0.612291	-0.461054	-0.467012
H80	H	-0.509252	-0.466383	-0.435504
O81	O	-1.029337	-1.033973	-0.649648
C82	C	-1.058094	-0.908420	-0.739780
C83	C	-1.088994	-0.988115	-0.684967
H84	H	-1.106309	-0.871310	-0.768335
H85	H	-1.032984	-0.932951	-0.796207
H86	H	-1.012093	-0.861962	-0.695319
H87	H	-1.135021	-1.034604	-0.729356
H88	H	-1.114056	-0.963521	-0.628532
H89	H	-0.714074	-0.775944	-0.742360
O90	O	-1.203902	-1.351141	-0.618378
C91	C	-1.289918	-1.483587	-0.591382
C92	C	-1.244254	-1.394592	-0.553929
H93	H	-1.322566	-1.518733	-0.539300
H94	H	-1.249387	-1.527029	-0.609528
H95	H	-1.331651	-1.470849	-0.653080
H96	H	-1.202518	-1.407246	-0.492208
H97	H	-1.284830	-1.351178	-0.535845
H98	H	-0.463779	-0.876895	-0.481734
O99	O	-0.426510	-0.705422	-0.442871
C100	C	-0.321233	-0.734306	-0.333320
C101	C	-0.388854	-0.773903	-0.403758
H102	H	-0.290759	-0.789652	-0.301691
H103	H	-0.342775	-0.699463	-0.280107
H104	H	-0.280069	-0.684471	-0.366068
H105	H	-0.430044	-0.823773	-0.371090
H106	H	-0.367256	-0.808690	-0.456965
O107	O	-1.062848	-1.135047	-0.789916
C108	C	-0.954558	-1.058918	-0.849679
C109	C	-0.984981	-1.134877	-0.790269
H110	H	-0.891603	-1.058767	-0.849999
H111	H	-0.962397	-0.992863	-0.822935
H112	H	-0.987172	-1.068928	-0.920143
H113	H	-0.952388	-1.124952	-0.719791
H114	H	-0.977155	-1.200904	-0.817086
H115	H	-0.467215	-0.564026	-0.485315
O116	O	-0.482551	-1.391066	-1.152838
C117	C	-0.432330	-1.465119	-1.020521
C118	C	-0.480057	-1.394799	-1.060206
H119	H	-0.430311	-1.468173	-0.945626
H120	H	-0.372150	-1.446670	-1.035849
H121	H	-0.459243	-1.532624	-1.050726
H122	H	-0.453211	-1.327269	-1.030024
H123	H	-0.540233	-1.413325	-1.044887
H124	H	-0.659222	-0.841677	-0.685244
H125	H	-0.587207	-1.236630	-0.992305
H126	H	-1.193878	-1.144794	-0.781311
H127	H	-0.725065	-1.033256	-0.957067
H128	H	-0.797986	-0.675350	-0.829740
H129	H	-1.159913	-1.044207	-0.635716
H130	H	-0.744596	-1.004604	-1.123043
H131	H	-0.548533	-1.293727	-1.058048
H132	H	-0.508902	-1.352408	-1.324618
O133	O	-0.777596	-0.500568	-0.808449
C134	C	-0.801859	-0.351033	-0.833794
C135	C	-0.750993	-0.412067	-0.780849
H136	H	-0.780360	-0.279465	-0.811513
H137	H	-0.862805	-0.371626	-0.821611
H138	H	-0.800040	-0.356824	-0.907511
H139	H	-0.752747	-0.406307	-0.707117
H140	H	-0.690070	-0.391457	-0.793107
H141	H	-1.210446	-1.264939	-0.769952
O142	O	-0.665405	-1.121910	-1.384954
C143	C	-0.755602	-1.121674	-1.520029
C144	C	-0.743713	-1.138999	-1.419384
H145	H	-0.818912	-1.135464	-1.547893
H146	H	-0.724900	-1.167100	-1.553519
H147	H	-0.731788	-1.049561	-1.533173
H148	H	-0.767531	-1.211087	-1.406159
H149	H	-0.774399	-1.093516	-1.385945
H150	H	-0.722736	-1.036942	-1.269955
H151	H	-1.083476	-1.266286	-0.769435
H152	H	-1.069557	-1.337782	-0.612665
H153	H	-1.151275	-1.098374	-0.528031
O154	O	-1.016917	-1.091166	-0.517601
C155	C	-0.893899	-1.070823	-0.424711
C156	C	-0.938663	-1.085782	-0.519442
H157	H	-0.830621	-1.066447	-0.426171
H158	H	-0.913391	-1.128489	-0.380582
H159	H	-0.904548	-1.006389	-0.397255
H160	H	-0.928036	-1.150186	-0.546977
H161	H	-0.919164	-1.028067	-0.563510
