data_functionalizedCrystal
_audit_creation_method	'MofGen! by Chris Wilmer'
_symmetry_space_group_name_H-M	'P1'
_symmetry_Int_Tables_number	1
_symmetry_cell_setting	triclinic
loop_
_symmetry_equiv_pos_as_xyz
  x,y,z
_cell_length_a	18.215407
_cell_length_b	19.121063
_cell_length_c	18.215399
_cell_angle_alpha	92.409843
_cell_angle_beta	89.980167
_cell_angle_gamma	92.469446
loop_
_atom_site_label
_atom_site_type_symbol
_atom_site_fract_x
_atom_site_fract_y
_atom_site_fract_z
Zn1	Zn	1.112559	-0.279613	-0.428596
Zn2	Zn	1.612559	0.220387	0.071404
Zn3	Zn	1.107212	-0.397068	-0.310772
Zn4	Zn	1.607212	0.102932	0.189228
Zn5	Zn	0.989491	-0.279636	-0.305544
Zn6	Zn	1.489491	0.220364	0.194456
Zn7	Zn	0.984203	-0.397029	-0.433795
Zn8	Zn	1.484203	0.102971	0.066205
O9	O	1.048366	-0.338336	-0.369677
O10	O	1.548366	0.161664	0.130323
O11	O	1.214834	-0.295200	-0.412978
O12	O	1.714834	0.204800	0.087022
O13	O	1.091570	-0.381516	-0.207095
O14	O	1.591570	0.118484	0.292905
O15	O	1.010267	-0.181348	-0.317504
O16	O	1.510267	0.318652	0.182496
O17	O	1.210905	-0.381494	-0.326414
O18	O	1.710905	0.118506	0.173586
O19	O	1.100685	-0.181331	-0.407909
O20	O	1.600685	0.318669	0.092091
O21	O	1.005081	-0.295240	-0.203255
O22	O	1.505081	0.204760	0.296745
O23	O	0.885805	-0.295202	-0.322545
O24	O	1.385805	0.204798	0.177455
O25	O	1.001255	-0.381427	-0.536089
O26	O	1.501255	0.118573	-0.036089
O27	O	0.881921	-0.381450	-0.416771
O28	O	1.381921	0.118550	0.083229
O29	O	1.095558	-0.295162	-0.532269
O30	O	1.595558	0.204838	-0.032269
O31	O	1.086443	-0.495348	-0.331455
O32	O	1.586443	0.004652	0.168545
O33	O	0.996070	-0.495319	-0.421840
O34	O	1.496070	0.004681	0.078160
C35	C	0.857160	-0.338324	-0.369655
C36	C	1.357160	0.161676	0.130345
C37	C	0.775361	-0.338336	-0.369664
C38	C	1.275361	0.161664	0.130336
C39	C	0.585160	-0.383316	-0.418671
C40	C	1.085160	0.116684	0.081329
C41	C	0.508302	-0.383318	-0.418681
C42	C	1.008302	0.116682	0.081319
C43	C	0.512323	-0.293369	-0.320699
C44	C	1.012323	0.206631	0.179301
C45	C	0.589181	-0.293364	-0.320694
C46	C	1.089181	0.206636	0.179306
C47	C	0.625597	-0.338342	-0.369679
C48	C	1.125597	0.161658	0.130321
C49	C	0.471881	-0.338349	-0.369694
C50	C	0.971881	0.161651	0.130306
C51	C	0.388547	-0.338351	-0.369703
C52	C	0.888547	0.161649	0.130297
C53	C	0.708936	-0.338339	-0.369671
C54	C	1.208936	0.161661	0.130329
C55	C	1.040122	-0.520817	-0.377795
C56	C	1.540122	-0.020817	0.122205
C57	C	1.036663	-0.598883	-0.381293
C58	C	1.536663	-0.098883	0.118707
C59	C	1.082127	-0.635551	-0.335916
C60	C	1.582127	-0.135551	0.164084
C61	C	1.078878	-0.708902	-0.339210
C62	C	1.578878	-0.208902	0.160790
C63	C	1.030161	-0.745585	-0.387877
C64	C	1.530161	-0.245585	0.112123
C65	C	0.984695	-0.708912	-0.433258
C66	C	1.484695	-0.208912	0.066742
C67	C	0.987948	-0.635562	-0.429968
C68	C	1.487948	-0.135562	0.070032
C69	C	1.017985	-0.967055	-0.400168
C70	C	1.517985	-0.467055	0.099832
C71	C	1.014733	-1.040410	-0.403454
C72	C	1.514733	-0.540410	0.096546
C73	C	1.108918	-1.040394	-0.309406
C74	C	1.608918	-0.540394	0.190594
C75	C	1.112164	-0.967043	-0.306117
C76	C	1.612164	-0.467043	0.193883
C77	C	1.066701	-0.930377	-0.351501
C78	C	1.566701	-0.430377	0.148499
C79	C	1.026837	-0.820561	-0.391243
C80	C	1.526837	-0.320561	0.108757
C81	C	1.070029	-0.855401	-0.348138
C82	C	1.570029	-0.355401	0.151862
C83	C	1.240319	-0.338349	-0.369699
C84	C	1.740319	0.161651	0.130301
C85	C	1.322117	-0.338354	-0.369709
C86	C	1.822117	0.161646	0.130291
C87	C	1.048413	-0.338288	-0.561628
C88	C	1.548413	0.161712	-0.061628
C89	C	1.048433	-0.338267	-0.643426
C90	C	1.548433	0.161733	-0.143426
C91	C	1.056662	-0.155143	-0.361543
C92	C	1.556662	0.344857	0.138457
C93	C	1.060197	-0.077077	-0.358077
C94	C	1.560197	0.422923	0.141923
C95	C	1.097555	-0.293307	-0.829630
C96	C	1.597555	0.206693	-0.329630
C97	C	1.097565	-0.293287	-0.906488
C98	C	1.597565	0.206713	-0.406488
C99	C	0.999368	-0.383119	-0.910455
C100	C	1.499368	0.116881	-0.410455
C101	C	0.999355	-0.383135	-0.833598
C102	C	1.499355	0.116865	-0.333598
C103	C	1.048453	-0.338231	-0.793188
C104	C	1.548453	0.161769	-0.293188
C105	C	1.048476	-0.338194	-0.946902
C106	C	1.548476	0.161806	-0.446902
C107	C	1.048486	-0.338172	-1.030235
C108	C	1.548486	0.161828	-0.530235
C109	C	1.048442	-0.338251	-0.709850
C110	C	1.548442	0.161749	-0.209850
C111	C	1.048364	-0.338334	-0.178471
C112	C	1.548364	0.161666	0.321529
C113	C	1.048495	-0.338157	-0.096664
C114	C	1.548495	0.161843	0.403336
H115	H	1.121795	-0.605688	-0.296283
H116	H	1.621795	-0.105688	0.203717
O117	O	1.153059	-1.076121	-0.265407
O118	O	1.653059	-0.576121	0.234593
C119	C	1.139734	-1.148727	-0.278733
C120	C	1.639734	-0.648727	0.221267
H121	H	1.115147	-1.158727	-0.335950
H122	H	1.615147	-0.658727	0.164050
H123	H	1.193630	-1.176560	-0.275051
H124	H	1.693630	-0.676560	0.224949
H125	H	1.099651	-1.169607	-0.235976
H126	H	1.599651	-0.669607	0.264024
H127	H	1.115899	-0.738753	-0.302259
H128	H	1.615899	-0.238753	0.197741
H129	H	1.151834	-0.937177	-0.266488
H130	H	1.651834	-0.437177	0.233512
H131	H	1.137532	-0.256741	-0.796730
H132	H	1.637532	0.243259	-0.296730
O133	O	0.951714	-0.426839	-0.949635
O134	O	1.451714	0.073161	-0.449635
C135	C	0.964640	-0.496845	-0.933975
C136	C	1.464640	0.003155	-0.433975
H137	H	0.992853	-0.498312	-0.878241
H138	H	1.492853	0.001688	-0.378241
H139	H	0.910102	-0.528338	-0.932734
H140	H	1.410102	-0.028338	-0.432734
H141	H	1.001415	-0.520492	-0.978286
H142	H	1.501415	-0.020492	-0.478286
H143	H	0.614808	-0.419938	-0.458560
H144	H	1.114808	0.080062	0.041440
O145	O	0.477024	-0.249720	-0.273013
O146	O	0.977024	0.250280	0.226987
C147	C	0.495071	-0.264991	-0.200317
C148	C	0.995071	0.235009	0.299683
H149	H	0.549657	-0.291983	-0.199942
H150	H	1.049657	0.208017	0.300058
H151	H	0.499974	-0.214263	-0.165145
H152	H	0.999974	0.285737	0.334855
H153	H	0.450177	-0.301076	-0.177078
H154	H	0.950177	0.198924	0.322922
O155	O	0.967491	-1.076016	-0.450838
O156	O	1.467491	-0.576016	0.049162
C157	C	0.984325	-1.058025	-0.523394
C158	C	1.484325	-0.558025	-0.023394
H159	H	1.044010	-1.037808	-0.526253
H160	H	1.544010	-0.537808	-0.026253
H161	H	0.975833	-1.106248	-0.561904
H162	H	1.475833	-0.606248	-0.061904
H163	H	0.946743	-1.015471	-0.540695
H164	H	1.446743	-0.515471	-0.040695
H165	H	0.475381	-0.419940	-0.458576
H166	H	0.975381	0.080060	0.041424
H167	H	0.622106	-0.256736	-0.280798
H168	H	1.122106	0.243264	0.219202
H169	H	0.980966	-0.937207	-0.437120
H170	H	1.480966	-0.437207	0.062880
O171	O	0.951756	-0.426812	-0.798113
O172	O	1.451756	0.073188	-0.298113
C173	C	0.991597	-0.472195	-0.755689
C174	C	1.491597	0.027805	-0.255689
H175	H	1.048488	-0.447428	-0.743091
H176	H	1.548488	0.052572	-0.243091
H177	H	0.961188	-0.481615	-0.702053
H178	H	1.461188	0.018385	-0.202053
H179	H	0.997331	-0.524240	-0.787617
H180	H	1.497331	-0.024240	-0.287617
H181	H	0.945031	-0.738785	-0.472887
H182	H	1.445031	-0.238785	0.027113
H183	H	0.950927	-0.605708	-0.466919
H184	H	1.450927	-0.105708	0.033081
O185	O	1.117310	-0.819848	-0.300764
O186	O	1.617310	-0.319848	0.199236
C187	C	1.100453	-0.837815	-0.228206
C188	C	1.600453	-0.337815	0.271794
H189	H	1.069806	-0.891098	-0.229043
H190	H	1.569806	-0.391098	0.270957
H191	H	1.153472	-0.840297	-0.195361
H192	H	1.653472	-0.340297	0.304639
H193	H	1.064453	-0.796581	-0.201543
H194	H	1.564453	-0.296581	0.298457
H195	H	1.137548	-0.256705	-0.936156
H196	H	1.637548	0.243295	-0.436156
O197	O	0.979608	-0.856275	-0.438551
O198	O	1.479608	-0.356275	0.061449
C199	C	1.019603	-0.898625	-0.488033
C200	C	1.519603	-0.398625	0.011967
H201	H	1.074908	-0.909578	-0.462624
H202	H	1.574908	-0.409578	0.037376
H203	H	0.987339	-0.950227	-0.500175
H204	H	1.487339	-0.450227	-0.000175
H205	H	1.028905	-0.870318	-0.541312
H206	H	1.528905	-0.370318	-0.041312
