data_functionalizedCrystal
_audit_creation_method	'MofGen! by Chris Wilmer'
_symmetry_space_group_name_H-M	'P1'
_symmetry_Int_Tables_number	1
_symmetry_cell_setting	triclinic
loop_
_symmetry_equiv_pos_as_xyz
  x,y,z
_cell_length_a	16.959455
_cell_length_b	16.625546
_cell_length_c	16.959447
_cell_angle_alpha	90.032216
_cell_angle_beta	90.014322
_cell_angle_gamma	90.019415
loop_
_atom_site_label
_atom_site_type_symbol
_atom_site_fract_x
_atom_site_fract_y
_atom_site_fract_z
Zn1	Zn	1.208371	-0.321051	0.446898
Zn2	Zn	1.708371	0.178949	0.946898
Zn3	Zn	1.208288	-0.455899	0.314715
Zn4	Zn	1.708288	0.044101	0.814715
Zn5	Zn	1.076199	-0.321077	0.314736
Zn6	Zn	1.576199	0.178923	0.814736
Zn7	Zn	1.076158	-0.455839	0.446854
Zn8	Zn	1.576158	0.044161	0.946854
O9	O	1.142254	-0.388466	0.380801
O10	O	1.642254	0.111534	0.880801
O11	O	1.318970	-0.338954	0.429374
O12	O	1.818970	0.161046	0.929374
O13	O	1.190748	-0.438050	0.204107
O14	O	1.690748	0.061950	0.704107
O15	O	1.093784	-0.208241	0.332295
O16	O	1.593784	0.291759	0.832295
O17	O	1.318909	-0.438026	0.332260
O18	O	1.818909	0.061974	0.832260
O19	O	1.190890	-0.208222	0.429394
O20	O	1.690890	0.291778	0.929394
O21	O	1.093703	-0.338997	0.204122
O22	O	1.593703	0.161003	0.704122
O23	O	0.965583	-0.338939	0.332252
O24	O	1.465583	0.161061	0.832252
O25	O	1.093714	-0.437923	0.557471
O26	O	1.593714	0.062077	1.057471
O27	O	0.965553	-0.437947	0.429318
O28	O	1.465553	0.062053	0.929318
O29	O	1.190850	-0.338895	0.557503
O30	O	1.690850	0.161105	1.057503
O31	O	1.190709	-0.568723	0.332217
O32	O	1.690709	-0.068723	0.832217
O33	O	1.093634	-0.568679	0.429298
O34	O	1.593634	-0.068679	0.929298
C35	C	0.936888	-0.388440	0.380783
C36	C	1.436888	0.111560	0.880783
C37	C	0.849031	-0.388448	0.380794
C38	C	1.349031	0.111552	0.880794
C39	C	0.477547	-0.336870	0.330364
C40	C	0.977547	0.163130	0.830364
C41	C	0.477564	-0.440129	0.431283
C42	C	0.977564	0.059871	0.931283
C43	C	0.560110	-0.440117	0.431278
C44	C	1.060110	0.059883	0.931278
C45	C	0.601378	-0.388482	0.380815
C46	C	1.101378	0.111518	0.880815
C47	C	0.560100	-0.336859	0.330356
C48	C	1.060100	0.163141	0.830356
C49	C	0.601394	-0.491746	0.481731
C50	C	1.101394	0.008254	0.981731
C51	C	0.683945	-0.491737	0.481727
C52	C	1.183945	0.008263	0.981727
C53	C	0.725215	-0.440097	0.431267
C54	C	1.225215	0.059903	0.931267
C55	C	0.683932	-0.388471	0.380807
C56	C	1.183932	0.111529	0.880807
C57	C	0.725200	-0.336836	0.330343
C58	C	1.225200	0.163164	0.830343
C59	C	0.683918	-0.285205	0.279886
C60	C	1.183918	0.214795	0.779886
C61	C	0.601370	-0.285219	0.279895
C62	C	1.101370	0.214781	0.779895
C63	C	0.807763	-0.440083	0.431257
C64	C	1.307763	0.059917	0.931257
C65	C	0.807753	-0.336824	0.330335
C66	C	1.307753	0.163176	0.830335
C67	C	1.142179	-0.597957	0.380768
C68	C	1.642179	-0.097957	0.880768
C69	C	1.142219	-0.687578	0.380780
C70	C	1.642219	-0.187578	0.880780
C71	C	1.142357	-1.015754	0.380862
C72	C	1.642357	-0.515754	0.880862
C73	C	1.142316	-0.924445	0.380842
C74	C	1.642316	-0.424445	0.880842
C75	C	1.142288	-0.851669	0.380821
C76	C	1.642288	-0.351669	0.880821
C77	C	1.142248	-0.760355	0.380801
C78	C	1.642248	-0.260355	0.880801
C79	C	1.348422	-0.388494	0.380819
C80	C	1.848422	0.111506	0.880819
C81	C	1.436279	-0.388505	0.380827
C82	C	1.936279	0.111495	0.880827
C83	C	1.142287	-0.388400	0.586969
C84	C	1.642287	0.111600	1.086969
C85	C	1.142301	-0.388371	0.674826
C86	C	1.642301	0.111629	1.174826
C87	C	1.142351	-0.178157	0.380851
C88	C	1.642351	0.321843	0.880851
C89	C	1.142392	-0.088536	0.380873
C90	C	1.642392	0.411464	0.880873
C91	C	1.142267	-0.388475	0.175435
C92	C	1.642267	0.111525	0.675435
C93	C	1.142406	-0.388276	0.087578
C94	C	1.642406	0.111724	0.587578
C95	C	1.091821	-0.439845	1.046287
C96	C	1.591821	0.060155	1.546287
C97	C	1.192969	-0.336727	1.046316
C98	C	1.692969	0.163273	1.546316
C99	C	1.192948	-0.336744	0.963770
C100	C	1.692948	0.163256	1.463770
C101	C	1.142364	-0.388313	0.922479
C102	C	1.642364	0.111687	1.422479
C103	C	1.091800	-0.439866	0.963734
C104	C	1.591800	0.060134	1.463734
C105	C	1.243517	-0.285199	0.922509
C106	C	1.743517	0.214801	1.422509
C107	C	1.243498	-0.285214	0.839958
C108	C	1.743498	0.214786	1.339958
C109	C	1.192909	-0.336780	0.798666
C110	C	1.692909	0.163220	1.298666
C111	C	1.142343	-0.388334	0.839925
C112	C	1.642343	0.111666	1.339925
C113	C	1.091758	-0.439903	0.798634
C114	C	1.591758	0.060097	1.298634
C115	C	1.041187	-0.491453	0.839892
C116	C	1.541187	0.008547	1.339892
C117	C	1.041211	-0.491431	0.922441
C118	C	1.541211	0.008569	1.422441
C119	C	1.192886	-0.336802	0.716117
C120	C	1.692886	0.163198	1.216117
C121	C	1.091737	-0.439923	0.716080
C122	C	1.591737	0.060077	1.216080
H123	H	1.050537	-0.481911	0.682467
H124	H	1.550537	0.018089	1.182467
H125	H	0.717550	-0.533777	0.522813
H126	H	1.217550	-0.033777	1.022813
C127	C	1.036200	-0.496548	1.091666
C128	C	1.536200	0.003452	1.591666
H129	H	1.043457	-0.489156	1.146743
H130	H	1.543457	0.010844	1.646743
H131	H	0.983094	-0.484747	1.078138
H132	H	1.483094	0.015253	1.578138
H133	H	1.047747	-0.550731	1.078120
H134	H	1.547747	-0.050731	1.578120
C135	C	0.432176	-0.496864	0.486849
C136	C	0.932176	0.003136	0.986849
H137	H	0.468584	-0.527592	0.516913
H138	H	0.968584	-0.027592	1.016913
H139	H	0.400020	-0.466010	0.521322
H140	H	0.900020	0.033990	1.021322
H141	H	0.399928	-0.531988	0.456604
H142	H	0.899928	-0.031988	0.956604
H143	H	1.234158	-0.294746	1.079940
H144	H	1.734158	0.205254	1.579940
H145	H	0.717529	-0.243167	0.238795
H146	H	1.217529	0.256833	0.738795
H147	H	0.841371	-0.482122	0.472336
H148	H	1.341371	0.017878	0.972336
C149	C	1.299144	-0.228468	0.967929
C150	C	1.799144	0.271532	1.467929
H151	H	1.291903	-0.235830	1.023001
H152	H	1.791903	0.264170	1.523001
H153	H	1.352249	-0.240268	0.954407
H154	H	1.852249	0.259732	1.454407
H155	H	1.287584	-0.174295	0.954411
H156	H	1.787584	0.325705	1.454411
C157	C	1.299116	-0.228506	0.794581
C158	C	1.799116	0.271494	1.294581
H159	H	1.329241	-0.197788	0.830997
H160	H	1.829241	0.302212	1.330997
H161	H	1.333534	-0.259357	0.762364
H162	H	1.833534	0.240643	1.262364
H163	H	1.268879	-0.193374	0.762396
H164	H	1.768879	0.306626	1.262396
C165	C	1.248506	-0.280108	0.670733
C166	C	1.748506	0.219892	1.170733
H167	H	1.241253	-0.287508	0.615656
H168	H	1.741253	0.212492	1.115656
H169	H	1.236974	-0.225927	0.684279
H170	H	1.736974	0.274073	1.184279
H171	H	1.301615	-0.291924	0.684256
H172	H	1.801615	0.208076	1.184256
H173	H	0.567788	-0.533790	0.522810
H174	H	1.067788	-0.033790	1.022810
H175	H	0.841348	-0.294771	0.289245
H176	H	1.341348	0.205229	0.789245
H177	H	1.000005	-0.533444	0.806262
H178	H	1.500005	-0.033444	1.306262
H179	H	0.443932	-0.294831	0.289285
H180	H	0.943932	0.205169	0.789285
C181	C	0.555959	-0.228443	0.224389
C182	C	1.055959	0.271557	0.724389
H183	H	0.500886	-0.235855	0.231614
H184	H	1.000886	0.264145	0.731614
H185	H	0.569495	-0.174277	0.236042
H186	H	1.069495	0.325723	0.736042
H187	H	0.569471	-0.240186	0.171258
H188	H	1.069471	0.259814	0.671258
C189	C	0.985595	-0.548135	0.967825
C190	C	1.485595	-0.048135	1.467825
H191	H	0.992860	-0.540743	1.022902
H192	H	1.492860	-0.040743	1.522902
H193	H	0.932487	-0.536335	0.954306
H194	H	1.432487	-0.036335	1.454306
H195	H	0.997141	-0.602317	0.954278
H196	H	1.497141	-0.102317	1.454278
