data_functionalizedCrystal
_audit_creation_method	'MofGen! by Chris Wilmer'
_symmetry_space_group_name_H-M	'P1'
_symmetry_Int_Tables_number	1
_symmetry_cell_setting	triclinic
loop_
_symmetry_equiv_pos_as_xyz
  x,y,z
_cell_length_a	18.050590
_cell_length_b	13.897449
_cell_length_c	18.050565
_cell_angle_alpha	90.068051
_cell_angle_beta	89.896661
_cell_angle_gamma	89.981520
loop_
_atom_site_label
_atom_site_type_symbol
_atom_site_fract_x
_atom_site_fract_y
_atom_site_fract_z
Zn1	Zn	-0.295121	-1.475097	-0.419993
Zn2	Zn	-0.419478	-1.474870	-0.295800
Zn3	Zn	-0.295306	-1.313668	-0.295807
Zn4	Zn	-0.419274	-1.313765	-0.419940
O5	O	-0.357295	-1.394350	-0.357885
O6	O	-0.311626	-1.610048	-0.403537
O7	O	-0.403169	-1.453351	-0.191876
O8	O	-0.191357	-1.335136	-0.312305
O9	O	-0.402990	-1.609882	-0.312294
O10	O	-0.191221	-1.453737	-0.403544
O11	O	-0.311941	-1.334916	-0.191881
O12	O	-0.311743	-1.178699	-0.312255
O13	O	-0.402642	-1.335302	-0.523872
O14	O	-0.402821	-1.178771	-0.403455
O15	O	-0.311428	-1.453831	-0.523911
O16	O	-0.523376	-1.453445	-0.312243
O17	O	-0.523226	-1.335082	-0.403448
C18	C	-0.357281	-1.143736	-0.357850
C19	C	-0.357292	-1.036522	-0.357853
C20	C	-0.357294	-0.949452	-0.357862
C21	C	-0.357298	-0.840219	-0.357881
C22	C	-0.550247	-1.394276	-0.357856
C23	C	-0.632793	-1.394332	-0.357868
C24	C	-0.832298	-1.458832	-0.308340
C25	C	-0.881542	-1.482463	-0.376121
C26	C	-0.783923	-1.394387	-0.357897
C27	C	-0.881761	-1.370855	-0.290146
C28	C	-0.929908	-1.394442	-0.357920
C29	C	-0.832080	-1.418063	-0.425715
C30	C	-0.832295	-1.306414	-0.339694
C31	C	-0.881516	-1.330011	-0.407522
C32	C	-0.699825	-1.394358	-0.357883
C33	C	-1.014005	-1.394471	-0.357942
C34	C	-0.163589	-1.394451	-0.357931
C35	C	-0.081044	-1.394494	-0.357951
C36	C	-0.356992	-1.394603	-0.551591
C37	C	-0.356862	-1.394711	-0.634138
C38	C	-0.357307	-0.645943	-0.357912
C39	C	-0.357304	-0.753157	-0.357900
C40	C	-0.357544	-1.394154	-0.164932
C41	C	-0.357464	-1.394233	-0.082387
C42	C	-0.406452	-1.459327	0.117104
C43	C	-0.425039	-1.371542	0.166687
C44	C	-0.357261	-1.394392	0.068743
C45	C	-0.338512	-1.482330	0.166240
C46	C	-0.357067	-1.394553	0.214728
C47	C	-0.375885	-1.306559	0.117240
C48	C	-0.289326	-1.417406	0.116788
C49	C	-0.307888	-1.329560	0.166350
C50	C	-0.357375	-1.394300	-0.015355
C51	C	-0.356953	-1.394635	0.298824
H52	H	-0.810684	-1.513350	-0.266474
H53	H	-0.391725	-1.232236	0.095801
C54	C	-0.802735	-1.445107	-0.503150
H55	H	-0.750106	-1.444957	-0.502662
H56	H	-0.819979	-1.399638	-0.538390
H57	H	-0.820006	-1.507431	-0.516163
C58	C	-0.910537	-1.256423	-0.464212
H59	H	-0.893430	-1.273317	-0.512305
H60	H	-0.892928	-1.194098	-0.451684
H61	H	-0.963165	-1.256472	-0.463631
C62	C	-0.462801	-1.533322	0.087882
H63	H	-0.510980	-1.516864	0.104975
H64	H	-0.450024	-1.595580	0.105381
H65	H	-0.462170	-1.533152	0.035255
H66	H	-0.810644	-1.232015	-0.324262
H67	H	-0.903177	-1.556883	-0.391533
C68	C	-0.911232	-1.343928	-0.212733
H69	H	-0.894371	-1.389762	-0.177578
H70	H	-0.963852	-1.343563	-0.213403
H71	H	-0.893638	-1.281853	-0.199455
H72	H	-0.482407	-1.352139	0.188598
H73	H	-0.266206	-1.274652	0.187838
H74	H	-0.231974	-1.436836	0.094862
H75	H	-0.322734	-1.556631	0.187771
