data_functionalizedCrystal
_audit_creation_method	'MofGen! by Chris Wilmer'
_symmetry_space_group_name_H-M	'P1'
_symmetry_Int_Tables_number	1
_symmetry_cell_setting	triclinic
loop_
_symmetry_equiv_pos_as_xyz
  x,y,z
_cell_length_a	15.995350
_cell_length_b	15.995350
_cell_length_c	14.472310
_cell_angle_alpha	90.001162
_cell_angle_beta	89.990621
_cell_angle_gamma	83.492375
loop_
_atom_site_label
_atom_site_type_symbol
_atom_site_fract_x
_atom_site_fract_y
_atom_site_fract_z
O1	O	1.110997	0.107921	-0.076758
O2	O	0.867221	0.121248	-0.076776
O3	O	0.995773	-0.007303	-0.076766
O4	O	0.982445	0.236472	-0.076769
O5	O	0.995740	-0.007296	0.076916
O6	O	0.867188	0.121256	0.076906
O7	O	1.110963	0.107928	0.076924
Cu8	Cu	0.989073	0.114593	0.090947
Cu9	Cu	0.989112	0.114584	-0.090800
O10	O	0.982412	0.236480	0.076913
C11	C	0.836010	0.120701	0.000062
C12	C	0.743060	0.119049	0.000055
C13	C	0.405312	0.113117	0.000074
C14	C	0.452746	0.021565	0.000418
C15	C	0.549436	0.023217	0.000065
C16	C	0.572873	0.116060	0.000065
C17	C	0.531804	0.161212	-0.087692
C18	C	0.435169	0.158912	-0.087759
C19	C	0.434792	0.160812	0.087007
C20	C	0.531737	0.160790	0.088160
C21	C	0.667570	0.117727	0.000057
C22	C	0.310614	0.111452	0.000076
C23	C	0.995205	-0.038494	0.000073
C24	C	0.993553	-0.131444	0.000068
C25	C	0.987621	-0.469192	0.000071
C26	C	0.896069	-0.421758	-0.000281
C27	C	0.897721	-0.325068	0.000066
C28	C	0.990564	-0.301631	0.000069
C29	C	1.035701	-0.342705	0.087831
C30	C	1.033401	-0.439340	0.087904
C31	C	1.035330	-0.439707	-0.086861
C32	C	1.035309	-0.342762	-0.088021
C33	C	0.992231	-0.206934	0.000071
C34	C	0.985956	-0.563890	0.000075
C35	C	1.142175	0.108476	0.000083
C36	C	1.235125	0.110127	0.000084
C37	C	0.982980	0.267671	0.000072
C38	C	0.984631	0.360621	0.000071
N39	N	0.989051	0.114598	0.218778
N40	N	0.989140	0.114572	-0.218631
C41	C	0.989111	0.114581	0.592869
C42	C	0.920095	0.183135	0.553698
C43	C	0.920254	0.183385	0.446610
C44	C	0.989081	0.114590	0.407278
C45	C	1.076445	0.133671	0.446122
C46	C	1.076057	0.134159	0.553243
C47	C	0.971542	0.026741	0.553398
C48	C	0.969538	0.027327	0.446270
C49	C	0.989069	0.114593	0.302390
C50	C	0.989128	0.114579	0.697757
H51	H	0.434210	-0.015027	0.063352
Br52	Br	0.596802	-0.035940	0.104916
Br53	Br	1.164093	0.052662	0.403665
Br54	Br	0.381416	0.270939	-0.094396
H55	H	1.092297	0.197002	0.419285
H56	H	0.855314	0.172016	0.420349
H57	H	0.545930	0.229421	-0.090955
H58	H	0.414242	0.130885	0.153524
H59	H	0.577308	-0.012521	-0.062951
H60	H	0.931473	0.248569	0.420976
Br61	Br	0.862422	0.003186	0.403961
Br62	Br	1.149388	-0.319166	0.093280
Br63	Br	0.420106	-0.039163	-0.103888
Br64	Br	1.164140	0.054010	0.596435
H65	H	0.559040	0.127830	0.153082
H66	H	1.004324	-0.314320	0.153137
H67	H	0.416874	0.125979	-0.153359
Br68	Br	1.047887	-0.061689	0.401667
Br69	Br	0.381858	0.273317	0.087996
Br70	Br	1.145427	-0.493094	0.094556
H71	H	1.005412	-0.460250	-0.153379
H72	H	1.021872	-0.024275	0.578728
Br73	Br	0.838133	-0.278611	0.105088
H74	H	0.560193	0.129845	-0.153002
H75	H	0.859626	-0.441349	0.062299
H76	H	0.547101	0.228494	0.093461
H77	H	0.909219	0.008392	0.580461
H78	H	0.862239	-0.296649	-0.062846
H79	H	1.103014	-0.327400	-0.093317
H80	H	1.000459	-0.457639	0.153505
Br81	Br	1.147835	-0.492643	-0.087843
H82	H	1.002307	-0.315516	-0.152945
Br83	Br	0.835096	-0.452645	-0.105181
Br84	Br	0.811498	0.164485	0.596643
H85	H	0.931159	0.247952	0.580608
Br86	Br	1.101863	0.240930	0.594878
