data_functionalizedCrystal
_audit_creation_method	'MofGen! by Chris Wilmer'
_symmetry_space_group_name_H-M	'P1'
_symmetry_Int_Tables_number	1
_symmetry_cell_setting	triclinic
loop_
_symmetry_equiv_pos_as_xyz
  x,y,z
_cell_length_a	18.215407
_cell_length_b	15.297510
_cell_length_c	18.215399
_cell_angle_alpha	99.649898
_cell_angle_beta	90.016885
_cell_angle_gamma	80.294185
loop_
_atom_site_label
_atom_site_type_symbol
_atom_site_fract_x
_atom_site_fract_y
_atom_site_fract_z
Zn1	Zn	1.074336	0.359231	0.466768
Zn2	Zn	1.052939	0.510103	0.364996
Zn3	Zn	0.951267	0.359253	0.343724
Zn4	Zn	0.929937	0.510043	0.488018
O5	O	1.002120	0.434658	0.415877
O6	O	1.174480	0.379260	0.453277
O7	O	1.039424	0.490126	0.259195
O8	O	0.985474	0.233004	0.342251
O9	O	1.158760	0.490104	0.378506
O10	O	1.075893	0.232987	0.432651
O11	O	0.964726	0.379298	0.243567
O12	O	0.845455	0.379241	0.362856
O13	O	0.949120	0.490003	0.588178
O14	O	0.829784	0.490025	0.468868
O15	O	1.055210	0.379202	0.572567
O16	O	1.018741	0.636341	0.399110
O17	O	0.928372	0.636298	0.489494
C18	C	0.810917	0.434630	0.415860
C19	C	0.729117	0.434640	0.415873
C20	C	0.549091	0.377042	0.454898
C21	C	0.472231	0.377049	0.454902
C22	C	0.455897	0.492299	0.376872
C23	C	0.532756	0.492286	0.376864
C24	C	0.579351	0.434659	0.415882
C25	C	0.425632	0.434679	0.415893
C26	C	0.342297	0.434688	0.415896
C27	C	0.662691	0.434648	0.415877
C28	C	0.968940	0.669054	0.448932
C29	C	0.954813	0.769329	0.463098
C30	C	1.103356	1.051955	0.314925
C31	C	1.116629	0.957741	0.301611
C32	C	1.076176	0.910633	0.341982
C33	C	1.022448	0.957749	0.395668
C34	C	1.009169	1.051972	0.408978
C35	C	0.981990	0.910651	0.436036
C36	C	0.928261	0.957766	0.489722
C37	C	0.914986	1.051980	0.503030
C38	C	0.955439	1.099088	0.462659
C39	C	0.995268	0.816428	0.422725
C40	C	0.901082	0.816445	0.516779
C41	C	0.887809	0.910659	0.530092
C42	C	1.194069	0.434686	0.415894
C43	C	1.275866	0.434698	0.415901
C44	C	1.002172	0.434594	0.607821
C45	C	1.002194	0.434566	0.689616
C46	C	1.035442	1.199346	0.382716
C47	C	1.049625	1.099070	0.368606
C48	C	1.002119	0.434656	0.224670
C49	C	1.002276	0.434429	0.142840
C50	C	1.057473	0.376794	0.946535
C51	C	1.057461	0.376819	0.869679
C52	C	0.946993	0.492208	0.885927
C53	C	0.947009	0.492187	0.962782
C54	C	1.002249	0.434475	0.993083
C55	C	1.002221	0.434520	0.839373
C56	C	1.002207	0.434547	0.756043
C57	C	1.002264	0.434449	1.076418
H58	H	1.039014	0.778074	0.379013
H59	H	0.902037	0.539163	1.000683
H60	H	1.086985	0.833920	0.331138
H61	H	0.587027	0.330115	0.486666
H62	H	0.844062	0.949034	0.573804
H63	H	1.160373	0.919383	0.257900
H64	H	0.447598	0.330130	0.486671
O65	O	1.142580	1.097854	0.275780
C66	C	1.163773	1.243001	0.254520
C67	C	1.119323	1.191133	0.298936
H68	H	1.144976	1.318427	0.273215
H69	H	1.225743	1.224504	0.264850
H70	H	1.153473	1.224461	0.192568
H71	H	1.129560	1.209645	0.360902
H72	H	1.057368	1.209634	0.288544
H73	H	0.871228	1.090339	0.546736
O74	O	0.410523	0.548251	0.339043
C75	C	0.284883	0.599315	0.304438
C76	C	0.336180	0.535914	0.347323
H77	H	0.224768	0.589349	0.311105
H78	H	0.289653	0.672097	0.327531
H79	H	0.302269	0.583389	0.242878
H80	H	0.318829	0.551758	0.408889
H81	H	0.331404	0.463151	0.324170
O82	O	0.562029	0.548345	0.338951
C83	C	0.537729	0.662619	0.261519
C84	C	0.504476	0.599201	0.304439
H85	H	0.491215	0.703740	0.233592
H86	H	0.567019	0.709896	0.301874
H87	H	0.579586	0.621116	0.217270
H88	H	0.462589	0.640631	0.348688
H89	H	0.475233	0.551922	0.264038
O90	O	0.893306	0.548359	0.856618
C91	C	0.783732	0.662797	0.880844
C92	C	0.844496	0.599259	0.914134
H93	H	0.744244	0.703953	0.927328
H94	H	0.810804	0.710036	0.851550
H95	H	0.751135	0.621387	0.838995
H96	H	0.877114	0.640597	0.956013
H97	H	0.817379	0.552018	0.943382
H98	H	1.102431	0.329850	0.831783
O99	O	0.942616	1.190610	0.475712
C100	C	0.942415	1.325734	0.565389
C101	C	0.956974	1.222086	0.550705
H102	H	0.954002	1.351214	0.626023
H103	H	0.980581	1.351350	0.527366
H104	H	0.881824	1.351372	0.553652
H105	H	1.017544	1.196372	0.562449
H106	H	0.918760	1.196532	0.588722
O107	O	0.861872	0.770556	0.555957
C108	C	0.840557	0.625412	0.577104
C109	C	0.885024	0.677275	0.532700
H110	H	0.859247	0.549986	0.558306
H111	H	0.850854	0.643810	0.639072
H112	H	0.778603	0.644054	0.566770
H113	H	0.946991	0.658661	0.542971
H114	H	0.874664	0.658873	0.470747
H115	H	1.102453	0.329801	0.971203
