data_functionalizedCrystal
_audit_creation_method	'MofGen! by Chris Wilmer'
_symmetry_space_group_name_H-M	'P1'
_symmetry_Int_Tables_number	1
_symmetry_cell_setting	triclinic
loop_
_symmetry_equiv_pos_as_xyz
  x,y,z
_cell_length_a	11.169417
_cell_length_b	16.959454
_cell_length_c	11.169409
_cell_angle_alpha	89.967057
_cell_angle_beta	89.980176
_cell_angle_gamma	90.020954
loop_
_atom_site_label
_atom_site_type_symbol
_atom_site_fract_x
_atom_site_fract_y
_atom_site_fract_z
Zn1	Zn	1.834881	-0.314599	-0.678538
Zn2	Zn	2.334881	0.185401	-0.178538
Zn3	Zn	1.834736	-0.446806	-0.477852
Zn4	Zn	2.334736	0.053194	0.022148
Zn5	Zn	1.634167	-0.314647	-0.477872
Zn6	Zn	2.134167	0.185353	0.022128
Zn7	Zn	1.634140	-0.446741	-0.678497
Zn8	Zn	2.134140	0.053259	-0.178497
O9	O	1.734481	-0.380698	-0.578190
O10	O	2.234481	0.119302	-0.078190
O11	O	2.002812	-0.332143	-0.651925
O12	O	2.502812	0.167857	-0.151925
O13	O	1.808081	-0.429322	-0.309905
O14	O	2.308081	0.070678	0.190095
O15	O	1.660864	-0.204030	-0.504516
O16	O	2.160864	0.295970	-0.004516
O17	O	2.002705	-0.429275	-0.504482
O18	O	2.502705	0.070725	-0.004482
O19	O	1.808328	-0.203995	-0.651944
O20	O	2.308328	0.296005	-0.151944
O21	O	1.660724	-0.332225	-0.309920
O22	O	2.160724	0.167775	0.190080
O23	O	1.466214	-0.332163	-0.504477
O24	O	1.966214	0.167837	-0.004477
O25	O	1.660819	-0.429165	-0.846452
O26	O	2.160819	0.070835	-0.346452
O27	O	1.466194	-0.429212	-0.651875
O28	O	1.966194	0.070788	-0.151875
O29	O	1.808302	-0.332081	-0.846482
O30	O	2.308302	0.167919	-0.346482
O31	O	1.808055	-0.557408	-0.504443
O32	O	2.308055	-0.057408	-0.004443
O33	O	1.660678	-0.557361	-0.651856
O34	O	2.160678	-0.057361	-0.151856
C35	C	1.422657	-0.380686	-0.578174
C36	C	1.922657	0.119314	-0.078174
C37	C	1.289257	-0.380700	-0.578196
C38	C	1.789257	0.119300	-0.078196
C39	C	1.734381	-0.586065	-0.578169
C40	C	2.234381	-0.086065	-0.078169
C41	C	1.734447	-0.673921	-0.578201
C42	C	2.234447	-0.173921	-0.078201
C43	C	1.657853	-1.045402	-0.654940
C44	C	2.157853	-0.545402	-0.154940
C45	C	1.811443	-1.045391	-0.501562
C46	C	2.311443	-0.545391	-0.001562
C47	C	1.811401	-0.962846	-0.501551
C48	C	2.311401	-0.462846	-0.001551
C49	C	1.734583	-0.921574	-0.578234
C50	C	2.234583	-0.421574	-0.078234
C51	C	1.657807	-0.962849	-0.654928
C52	C	2.157807	-0.462849	-0.154928
C53	C	1.888168	-0.921565	-0.424850
C54	C	2.388168	-0.421565	0.075150
C55	C	1.888128	-0.839014	-0.424835
C56	C	2.388128	-0.339014	0.075165
C57	C	1.811315	-0.797741	-0.501525
C58	C	2.311315	-0.297741	-0.001525
C59	C	1.734536	-0.839021	-0.578223
C60	C	2.234536	-0.339021	-0.078223
C61	C	1.657718	-0.797749	-0.654906
C62	C	2.157718	-0.297749	-0.154906
C63	C	1.580944	-0.839027	-0.731611
C64	C	2.080944	-0.339027	-0.231611
C65	C	1.580993	-0.921576	-0.731618
C66	C	2.080993	-0.421576	-0.231618
C67	C	1.811266	-0.715193	-0.501518
C68	C	2.311266	-0.215193	-0.001518
C69	C	1.657671	-0.715196	-0.654895
C70	C	2.157671	-0.215196	-0.154895
C71	C	2.047524	-0.380711	-0.578206
C72	C	2.547524	0.119289	-0.078206
C73	C	2.180924	-0.380716	-0.578213
C74	C	2.680924	0.119284	-0.078213
C75	C	1.734573	-0.380611	-0.891232
C76	C	2.234573	0.119389	-0.391232
C77	C	1.734613	-0.380573	-1.024633
C78	C	2.234613	0.119427	-0.524633
C79	C	1.734615	-0.174530	-0.578237
C80	C	2.234615	0.325470	-0.078237
C81	C	1.734672	-0.086674	-0.578257
C82	C	2.234672	0.413326	-0.078257
C83	C	1.734459	-0.380729	-0.266365
C84	C	2.234459	0.119271	0.233635
C85	C	1.734652	-0.380543	-0.132966
C86	C	2.234652	0.119457	0.367034
H87	H	1.595120	-0.681597	-0.717344
H88	H	2.095120	-0.181597	-0.217344
H89	H	1.518393	-0.805415	-0.794042
H90	H	2.018393	-0.305415	-0.294042
H91	H	1.518487	-0.955192	-0.794066
H92	H	2.018487	-0.455192	-0.294066
H93	H	1.595350	-1.079014	-0.717394
H94	H	2.095350	-0.579014	-0.217394
H95	H	1.950642	-0.805410	-0.362380
H96	H	2.450642	-0.305410	0.137620
O97	O	1.894313	-1.089914	-0.418892
O98	O	2.394313	-0.589914	0.081108
H99	H	1.840666	-1.127590	-0.357793
H100	H	2.340666	-0.627590	0.142207
H101	H	1.950700	-0.955174	-0.362410
H102	H	2.450700	-0.455174	0.137590
H103	H	1.873768	-0.681588	-0.439060
H104	H	2.373768	-0.181588	0.060940
