data_functionalizedCrystal
_audit_creation_method	'MofGen! by Chris Wilmer'
_symmetry_space_group_name_H-M	'P1'
_symmetry_Int_Tables_number	1
_symmetry_cell_setting	triclinic
loop_
_symmetry_equiv_pos_as_xyz
  x,y,z
_cell_length_a	18.050590
_cell_length_b	18.050583
_cell_length_c	16.625546
_cell_angle_alpha	90.037482
_cell_angle_beta	89.988365
_cell_angle_gamma	89.999666
loop_
_atom_site_label
_atom_site_type_symbol
_atom_site_fract_x
_atom_site_fract_y
_atom_site_fract_z
Zn1	Zn	1.135330	-0.419595	0.321177
Zn2	Zn	1.135251	-0.295403	0.456037
Zn3	Zn	1.011147	-0.295453	0.321196
Zn4	Zn	1.011110	-0.419585	0.455946
O5	O	1.073210	-0.357509	0.388589
O6	O	1.239244	-0.403104	0.339097
O7	O	1.118771	-0.191485	0.438196
O8	O	1.027669	-0.311947	0.208361
O9	O	1.239186	-0.311860	0.438177
O10	O	1.118906	-0.403153	0.208347
O11	O	1.027592	-0.191522	0.339129
O12	O	0.907218	-0.311937	0.339041
O13	O	1.027606	-0.523511	0.438022
O14	O	0.907190	-0.403136	0.438041
O15	O	1.118870	-0.523519	0.339008
O16	O	1.118735	-0.311850	0.568857
O17	O	1.027529	-0.403087	0.568790
C18	C	0.880257	-0.357541	0.388534
C19	C	0.797712	-0.357573	0.388530
C20	C	0.598268	-0.407049	0.442520
C21	C	0.548868	-0.425325	0.368996
C22	C	0.646581	-0.357536	0.388575
C23	C	0.548899	-0.339259	0.462141
C24	C	0.500596	-0.357503	0.388625
C25	C	0.598269	-0.375848	0.315012
C26	C	0.598304	-0.289750	0.408206
C27	C	0.548927	-0.308001	0.334631
C28	C	0.730680	-0.357558	0.388547
C29	C	0.416500	-0.357481	0.388644
C30	C	1.073242	-0.551215	0.388503
C31	C	1.073256	-0.633761	0.388466
C32	C	1.122935	-0.833216	0.334597
C33	C	1.055200	-0.882629	0.314848
C34	C	1.073286	-0.784891	0.388452
C35	C	1.141049	-0.882559	0.408150
C36	C	1.073321	-0.930876	0.388438
C37	C	1.005515	-0.833218	0.368666
C38	C	1.091409	-0.833143	0.462002
C39	C	1.023627	-0.882535	0.442282
C40	C	1.073267	-0.700793	0.388459
C41	C	1.073332	-1.014973	0.388431
C42	C	1.266915	-0.357478	0.388645
C43	C	1.349461	-0.357464	0.388669
C44	C	1.073139	-0.357478	0.598080
C45	C	1.073177	-0.357490	0.687701
C46	C	1.073220	-0.164557	0.388617
C47	C	1.073349	-0.082012	0.388426
C48	C	1.073300	-0.357557	0.178280
C49	C	1.073339	-0.357577	0.088659
C50	C	1.073307	-0.357567	1.015877
C51	C	1.073268	-0.357548	0.924568
C52	C	1.073241	-0.357528	0.851792
C53	C	1.073204	-0.357509	0.760477
H54	H	0.527399	-0.266116	0.288980
Br55	Br	0.512676	-0.520846	0.341345
H56	H	1.198340	-0.904236	0.424814
Br57	Br	0.634496	-0.194238	0.435873
Br58	Br	0.512750	-0.313516	0.565798
H59	H	1.164854	-0.811558	0.289024
H60	H	1.039882	-0.904366	0.252643
Br61	Br	0.634380	-0.476909	0.518428
Br62	Br	0.634257	-0.401699	0.211321
Br63	Br	0.909993	-0.797250	0.340782
H64	H	0.981607	-0.904053	0.487820
Br65	Br	1.116974	-0.796885	0.565654
