data_functionalizedCrystal
_audit_creation_method	'MofGen! by Chris Wilmer'
_symmetry_space_group_name_H-M	'P1'
_symmetry_Int_Tables_number	1
_symmetry_cell_setting	triclinic
loop_
_symmetry_equiv_pos_as_xyz
  x,y,z
_cell_length_a	17.639115
_cell_length_b	17.640280
_cell_length_c	17.640618
_cell_angle_alpha	114.318309
_cell_angle_beta	92.168398
_cell_angle_gamma	70.389850
loop_
_atom_site_label
_atom_site_type_symbol
_atom_site_fract_x
_atom_site_fract_y
_atom_site_fract_z
Zn1	Zn	-1.336329	0.572363	-0.060673
Zn2	Zn	-0.836329	1.072363	0.439327
Zn3	Zn	-1.336251	0.738012	0.104952
Zn4	Zn	-0.836251	1.238012	0.604952
Zn5	Zn	-1.181944	0.561142	0.037962
Zn6	Zn	-0.681944	1.061142	0.537962
Zn7	Zn	-1.226379	0.682276	-0.060708
Zn8	Zn	-0.726379	1.182276	0.439292
O9	O	-1.270226	0.638448	0.005383
O10	O	-0.770226	1.138448	0.505383
O11	O	-1.446912	0.622358	-0.010652
O12	O	-0.946912	1.122358	0.489348
O13	O	-1.297153	0.733180	0.206674
O14	O	-0.797153	1.233180	0.706674
O15	O	-1.183860	0.442611	-0.003143
O16	O	-0.683860	0.942611	0.496857
O17	O	-1.446854	0.744060	0.111032
O18	O	-0.946854	1.244060	0.611032
O19	O	-1.297286	0.450854	-0.075610
O20	O	-0.797286	0.950854	0.424390
O21	O	-1.183784	0.603234	0.157457
O22	O	-0.683784	1.103234	0.657457
O23	O	-1.077245	0.549189	-0.003177
O24	O	-0.577245	1.049189	0.496823
O25	O	-1.259593	0.649066	-0.171312
O26	O	-0.759593	1.149066	0.328688
O27	O	-1.109891	0.638186	-0.075670
O28	O	-0.609891	1.138186	0.424330
O29	O	-1.340373	0.568313	-0.171286
O30	O	-0.840373	1.068313	0.328714
O31	O	-1.340240	0.850639	0.110998
O32	O	-0.840240	1.350639	0.610998
O33	O	-1.259517	0.809690	-0.010712
O34	O	-0.759517	1.309690	0.489288
C35	C	-1.064893	0.586423	-0.046697
C36	C	-0.564893	1.086423	0.453303
C37	C	-0.977057	0.564183	-0.068991
C38	C	-0.477057	1.064183	0.431009
C39	C	-0.853311	0.469551	-0.163820
C40	C	-0.353311	0.969551	0.336180
C41	C	-0.935846	0.490456	-0.142864
C42	C	-0.435846	0.990456	0.357136
C43	C	-0.935741	0.617032	-0.016042
C44	C	-0.435741	1.117032	0.483958
C45	C	-0.853203	0.596136	-0.036985
C46	C	-0.353203	1.096136	0.463015
C47	C	-0.811995	0.522395	-0.110876
C48	C	-0.311995	1.022395	0.389124
C49	C	-0.811887	0.648979	0.015959
C50	C	-0.311887	1.148979	0.515959
C51	C	-0.729357	0.628086	-0.004985
C52	C	-0.229357	1.128086	0.495015
C53	C	-0.688144	0.554350	-0.078873
C54	C	-0.188144	1.054350	0.421127
C55	C	-0.729465	0.501502	-0.131820
C56	C	-0.229465	1.001502	0.368180
C57	C	-0.853098	0.722723	0.089846
C58	C	-0.353098	1.222723	0.589846
C59	C	-0.811782	0.775567	0.142791
C60	C	-0.311782	1.275567	0.642791
C61	C	-0.729249	0.754671	0.121850
C62	C	-0.229249	1.254671	0.621850
C63	C	-0.688036	0.680935	0.047962
C64	C	-0.188036	1.180935	0.547962
C65	C	-0.687928	0.807519	0.174796
C66	C	-0.187928	1.307519	0.674796
C67	C	-0.605398	0.786627	0.153852
C68	C	-0.105398	1.286627	0.653852
C69	C	-0.605506	0.660042	0.027018
C70	C	-0.105506	1.160042	0.527018
C71	C	-1.304716	0.861286	0.057397
C72	C	-0.804716	1.361286	0.557397
C73	C	-1.319548	0.956632	0.079640
C74	C	-0.819548	1.456632	0.579640
C75	C	-1.304948	0.603724	-0.200780
C76	C	-0.804948	1.103724	0.299220
C77	C	-1.319745	0.588926	-0.288635
C78	C	-0.819745	1.088926	0.211365
C79	C	-0.476357	0.690665	0.057670
C80	C	0.023643	1.190665	0.557670
C81	C	-0.564190	0.712886	0.079962
C82	C	-0.064190	1.212886	0.579962
C83	C	-1.235625	0.414742	-0.046845
C84	C	-0.735625	0.914742	0.453155
C85	C	-1.220881	0.319412	-0.069102
C86	C	-0.720881	0.819412	0.430898
C87	C	-1.157923	1.163742	-0.163803
C88	C	-0.657923	1.663742	0.336197
C89	C	-1.171857	1.253337	-0.142877
C90	C	-0.671857	1.753337	0.357123
C91	C	-1.255993	1.295911	-0.016226
C92	C	-0.755993	1.795911	0.483774
C93	C	-1.242070	1.206317	-0.037144
C94	C	-0.742070	1.706317	0.462856
C95	C	-1.193033	1.140239	-0.110933
C96	C	-0.693033	1.640239	0.389067
C97	C	-1.277180	1.182814	0.015725
C98	C	-0.777180	1.682814	0.515725
C99	C	-1.263253	1.093228	-0.005189
C100	C	-0.763253	1.593228	0.494811
C101	C	-1.214217	1.027145	-0.078974
C102	C	-0.714217	1.527145	0.421026
C103	C	-1.179107	1.050653	-0.131848
C104	C	-0.679107	1.550653	0.368152
C105	C	-1.326212	1.248894	0.089517
C106	C	-0.826212	1.748894	0.589517
C107	C	-1.361322	1.225391	0.142387
C108	C	-0.861322	1.725391	0.642387
C109	C	-1.347400	1.135804	0.121469
C110	C	-0.847400	1.635804	0.621469
C111	C	-1.298364	1.069721	0.047685
C112	C	-0.798364	1.569721	0.547685
C113	C	-1.382511	1.112296	0.174344
C114	C	-0.882511	1.612296	0.674344
C115	C	-1.368584	1.022710	0.153429
C116	C	-0.868584	1.522710	0.653429
C117	C	-1.284438	0.980134	0.026771
C118	C	-0.784438	1.480134	0.526771
C119	C	-1.382654	0.526029	-0.412450
C120	C	-0.882654	1.026029	0.087550
C121	C	-1.368746	0.539939	-0.329897
C122	C	-0.868746	1.039939	0.170103
C123	C	-1.284630	0.624020	-0.329917
C124	C	-0.784630	1.124020	0.170083
C125	C	-1.298528	0.610113	-0.412473
C126	C	-0.798528	1.110113	0.087527
C127	C	-1.347542	0.561118	-0.453733
C128	C	-0.847542	1.061118	0.046267
C129	C	-1.263416	0.645202	-0.453756
C130	C	-0.763416	1.145202	0.046244
C131	C	-1.277317	0.631301	-0.536304
C132	C	-0.777317	1.131301	-0.036304
C133	C	-1.326330	0.582310	-0.577568
C134	C	-0.826330	1.082310	-0.077568
C135	C	-1.361442	0.547216	-0.536280
C136	C	-0.861442	1.047216	-0.036280
C137	C	-1.214408	0.694203	-0.412493
C138	C	-0.714408	1.194203	0.087507
C139	C	-1.179296	0.729292	-0.453776
C140	C	-0.679296	1.229292	0.046224
C141	C	-1.193191	0.715385	-0.536327
C142	C	-0.693191	1.215385	-0.036327
C143	C	-1.242204	0.666394	-0.577591
C144	C	-0.742204	1.166394	-0.077591
C145	C	-1.158079	0.750479	-0.577615
C146	C	-0.658079	1.250479	-0.077615
C147	C	-1.171980	0.736577	-0.660162
C148	C	-0.671980	1.236577	-0.160162
C149	C	-1.256105	0.652493	-0.660139
C150	C	-0.756105	1.152493	-0.160139
C151	C	-1.235674	0.672987	0.210742
C152	C	-0.735674	1.172987	0.710742
C153	C	-1.220993	0.687582	0.298579
C154	C	-0.720993	1.187582	0.798579
H155	H	-0.571949	0.599987	-0.033145
H156	H	-0.071949	1.099987	0.466855
C157	C	-1.407375	0.501332	-0.284489
C158	C	-0.907375	1.001332	0.215511
N159	N	-1.436471	0.472255	-0.250288
N160	N	-0.936471	0.972255	0.249712
H161	H	-1.139183	0.996848	-0.191939
H162	H	-0.639183	1.496848	0.308061
C163	C	-1.133352	0.775174	-0.705577
C164	C	-0.633352	1.275174	-0.205577
N165	N	-1.104258	0.804248	-0.739782
N166	N	-0.604258	1.304248	-0.239782
C167	C	-0.943884	0.745705	0.112883
C168	C	-0.443884	1.245705	0.612883
N169	N	-1.012264	0.763013	0.130233
N170	N	-0.512264	1.263013	0.630233
H171	H	-1.397174	1.003576	0.196482
H172	H	-0.897174	1.503576	0.696482
H173	H	-0.845345	0.835608	0.202951
H174	H	-0.345345	1.335608	0.702951
H175	H	-0.620943	0.537343	-0.095926
H176	H	-0.120943	1.037343	0.404074
H177	H	-1.337551	1.321840	0.106541
H178	H	-0.837551	1.821840	0.606541
C179	C	-1.103968	1.091048	-0.244967
C180	C	-0.603968	1.591048	0.255033
N181	N	-1.063323	1.036296	-0.306093
N182	N	-0.563323	1.536296	0.193907
H183	H	-1.244726	0.663914	-0.296312
H184	H	-0.744726	1.163914	0.203688
H185	H	-1.143273	1.272467	-0.185942
H186	H	-0.643273	1.772467	0.314058
C187	C	-1.415257	1.298086	0.223555
C188	C	-0.915257	1.798086	0.723555
N189	N	-1.455882	1.352839	0.284691
N190	N	-0.955882	1.852839	0.784691
H191	H	-0.695908	0.441446	-0.191982
H192	H	-0.195908	0.941446	0.308018
C193	C	-1.436439	1.184992	0.255515
C194	C	-0.936439	1.684992	0.755515
N195	N	-1.477058	1.239747	0.316656
N196	N	-0.977058	1.739747	0.816656
C197	C	-1.104169	0.804375	-0.532217
C198	C	-0.604169	1.304375	-0.032217
N199	N	-1.063562	0.844969	-0.498024
N200	N	-0.563562	1.344969	0.001976
C201	C	-0.733268	0.888632	0.256073
C202	C	-0.233268	1.388632	0.756073
N203	N	-0.767418	0.949726	0.317293
N204	N	-0.267418	1.449726	0.817293
H205	H	-1.295916	1.349723	0.043854
H206	H	-0.795916	1.849723	0.543854
C207	C	-1.230482	0.907441	-0.054394
C208	C	-0.730482	1.407441	0.445606
N209	N	-1.189837	0.852689	-0.115519
N210	N	-0.689837	1.352689	0.384481
H211	H	-1.422555	0.486120	-0.446051
H212	H	-0.922555	0.986120	0.053949
H213	H	-0.819754	0.409496	-0.223982
H214	H	-0.319754	0.909496	0.276018
H215	H	-1.296006	0.612584	-0.693739
H216	H	-0.796006	1.112584	-0.193739
H217	H	-1.337649	0.570995	-0.644782
H218	H	-0.837649	1.070995	-0.144782
H219	H	-1.203096	0.705524	-0.345276
H220	H	-0.703096	1.205524	0.154724
H221	H	-0.571758	0.829659	0.196964
H222	H	-0.071758	1.329659	0.696964
H223	H	-1.401343	0.507307	-0.569881
H224	H	-0.901343	1.007307	-0.069881
C225	C	-1.125379	0.783181	-0.408383
C226	C	-0.625379	1.283181	0.091617
N227	N	-1.084764	0.823767	-0.374195
N228	N	-0.584764	1.323767	0.125805
H229	H	-0.969482	0.447417	-0.185982
H230	H	-0.469482	0.947417	0.314018
H231	H	-0.969305	0.677074	0.044118
H232	H	-0.469305	1.177074	0.544118
H233	H	-1.202873	0.954199	-0.095997
H234	H	-0.702873	1.454199	0.404003
