data_functionalizedCrystal
_audit_creation_method	'MofGen! by Chris Wilmer'
_symmetry_space_group_name_H-M	'P1'
_symmetry_Int_Tables_number	1
_symmetry_cell_setting	triclinic
loop_
_symmetry_equiv_pos_as_xyz
  x,y,z
_cell_length_a	10.686220
_cell_length_b	29.839131
_cell_length_c	10.686551
_cell_angle_alpha	94.410099
_cell_angle_beta	89.691918
_cell_angle_gamma	94.423467
loop_
_atom_site_label
_atom_site_type_symbol
_atom_site_fract_x
_atom_site_fract_y
_atom_site_fract_z
Zn1	Zn	1.972144	-0.109531	0.562362
Zn2	Zn	1.955808	-0.190848	0.352586
Zn3	Zn	1.746247	-0.121024	0.368677
Zn4	Zn	1.762239	-0.189937	0.578364
O5	O	1.859109	-0.152835	0.465497
O6	O	2.145524	-0.115889	0.521104
O7	O	1.914480	-0.186776	0.179174
O8	O	1.776357	-0.056627	0.394408
O9	O	2.133522	-0.175632	0.366982
O10	O	1.942322	-0.048183	0.536707
O11	O	1.760516	-0.135477	0.190996
O12	O	1.572821	-0.134594	0.409924
O13	O	1.803613	-0.174081	0.751788
O14	O	1.584570	-0.185225	0.563980
O15	O	1.957829	-0.115006	0.740032
O16	O	1.929986	-0.253599	0.382499
O17	O	1.787772	-0.252930	0.548377
C18	C	1.533178	-0.161058	0.490435
C19	C	1.393745	-0.164586	0.501133
C20	C	1.858878	-0.269565	0.465453
C21	C	1.858897	-0.319499	0.465467
C22	C	1.933315	-0.629464	0.379231
C23	C	1.933474	-0.817132	0.379268
O24	O	1.996563	-0.841676	0.305913
N25	N	1.859377	-0.840268	0.465572
C26	C	1.785241	-0.816484	0.551879
O27	O	1.722231	-0.840468	0.625295
C28	C	1.785090	-0.628816	0.551847
C29	C	1.859182	-0.605683	0.465528
C30	C	2.007402	-0.606331	0.292920
C31	C	2.007357	-0.559417	0.292908
C32	C	1.933224	-0.535636	0.379205
C33	C	1.859137	-0.558769	0.465516
C34	C	1.710962	-0.605033	0.638159
C35	C	1.710934	-0.558113	0.638145
C36	C	1.785026	-0.534980	0.551827
C37	C	1.784958	-0.488075	0.551801
N38	N	1.859055	-0.464939	0.465496
C39	C	1.933188	-0.488720	0.379198
C40	C	1.785324	-0.915012	0.551888
C41	C	1.785360	-0.961928	0.551895
C42	C	1.933594	-0.962573	0.379285
C43	C	1.933551	-0.915656	0.379273
C44	C	1.859421	-0.891876	0.465583
C45	C	1.933086	-0.390197	0.379177
C46	C	1.933030	-0.343279	0.379169
C47	C	1.784801	-0.342638	0.551783
C48	C	1.784851	-0.389552	0.551787
C49	C	1.859004	-0.413330	0.465480
O50	O	1.721913	-0.463501	0.625126
O51	O	1.996210	-0.464726	0.305811
C52	C	1.933361	-0.676378	0.379244
C53	C	1.859273	-0.699511	0.465554
C54	C	1.785141	-0.675730	0.551852
C55	C	1.859309	-0.746428	0.465561
C56	C	1.933442	-0.770208	0.379263
C57	C	2.007539	-0.747072	0.292959
C58	C	2.007493	-0.700158	0.292946
C59	C	1.711044	-0.698867	0.638156
C60	C	1.711094	-0.745781	0.638161
C61	C	1.785227	-0.769561	0.551863
C62	C	2.186314	-0.144580	0.440463
C63	C	2.325749	-0.141063	0.429795
C64	C	1.884327	-0.143160	0.792700
C65	C	1.895073	-0.139037	0.932134
C66	C	1.859378	-0.035647	0.465567
C67	C	1.859492	0.014291	0.465597
C68	C	1.834062	-0.162438	0.139563
C69	C	1.823559	-0.166429	0.000111
H70	H	1.345283	-0.187428	0.570390
H71	H	1.754116	-0.193035	0.951637
C72	C	1.988903	-0.103091	0.997614
C73	C	2.094213	-0.117441	1.080176
C74	C	2.188041	-0.081496	1.145656
C75	C	2.176558	-0.031202	1.128573
C76	C	2.071243	-0.016850	1.046006
C77	C	1.977415	-0.052795	0.980526
H78	H	2.102718	-0.154674	1.092826
H79	H	2.266002	-0.092121	1.206777
H80	H	2.246015	-0.004594	1.177044
H81	H	2.062738	0.020383	1.033357
H82	H	1.899454	-0.042170	0.919405
H83	H	1.374204	-0.118225	0.360535
C84	C	1.629583	-0.771223	0.733119
C85	C	1.526962	-0.807617	0.686244
C86	C	1.445462	-0.833057	0.781206
C87	C	1.466583	-0.822103	0.923044
C88	C	1.569209	-0.785707	0.969926
C89	C	1.650708	-0.760267	0.874963
H90	H	1.511323	-0.815728	0.581241
H91	H	1.369492	-0.860000	0.746501
H92	H	1.406252	-0.840935	0.993341
H93	H	1.584848	-0.777597	1.074929
H94	H	1.726679	-0.733325	0.909669
C95	C	2.014539	-0.317834	0.284215
C96	C	1.952641	-0.289901	0.189818
C97	C	2.034149	-0.264458	0.094868
C98	C	2.177554	-0.266947	0.094316
C99	C	2.239460	-0.294881	0.188717
C100	C	2.157952	-0.320324	0.283666
H101	H	1.846477	-0.288057	0.190223
H102	H	1.988322	-0.243779	0.024987
H103	H	2.237891	-0.248112	0.024029
H104	H	2.345624	-0.296724	0.188311
H105	H	2.203780	-0.341003	0.353548
C106	C	2.014644	-0.416349	0.284233
C107	C	1.993508	-0.414389	0.142393
C108	C	2.075057	-0.440541	0.047442
C109	C	2.177741	-0.468654	0.094332
C110	C	2.198881	-0.470615	0.236180
C111	C	2.117333	-0.444463	0.331130
H112	H	1.917491	-0.393577	0.107675
H113	H	2.059407	-0.439089	-0.057563
H114	H	2.238108	-0.488013	0.024044
H115	H	2.274898	-0.491427	0.270897
H116	H	2.132983	-0.445915	0.436135
C117	C	2.089088	-0.773237	0.198031
C118	C	2.067979	-0.771290	0.056182
C119	C	2.149529	-0.797456	-0.038734
C120	C	2.252189	-0.825570	0.008199
C121	C	2.273303	-0.827519	0.150055
C122	C	2.191753	-0.801352	0.244971
H123	H	1.991980	-0.750477	0.021433
H124	H	2.133898	-0.796014	-0.143745
H125	H	2.312557	-0.844941	-0.062063
H126	H	2.349302	-0.848331	0.184804
H127	H	2.207383	-0.802794	0.349983
H128	H	2.067693	-0.540584	0.222623
H129	H	2.067777	-0.625688	0.222645
C130	C	1.703846	-0.987372	0.646837
C131	C	1.622312	-0.961207	0.741763
C132	C	1.540803	-0.986649	0.836715
C133	C	1.540828	-1.038255	0.836741
C134	C	1.622365	-1.064423	0.741812
C135	C	1.703874	-1.038982	0.646860
H136	H	1.622291	-0.923003	0.741747
H137	H	1.480443	-0.967278	0.906988
H138	H	1.480489	-1.057089	0.907030
H139	H	1.622386	-1.102628	0.741828
H140	H	1.764234	-1.058353	0.576587
H141	H	1.724955	-0.895653	0.622174
H142	H	1.993883	-0.896824	0.308986
C143	C	2.089002	-0.674715	0.197999
C144	C	2.191622	-0.638323	0.244888
C145	C	2.273136	-0.612883	0.149937
C146	C	2.252031	-0.623835	0.008097
C147	C	2.149406	-0.660228	-0.038799
C148	C	2.067892	-0.685669	0.056152
H149	H	2.207249	-0.630214	0.349893
H150	H	2.349106	-0.585941	0.184654
H151	H	2.312373	-0.605002	-0.062192
H152	H	2.133779	-0.668337	-0.143804
H153	H	1.991923	-0.712610	0.021435
C154	C	1.629487	-0.672711	0.733084
C155	C	1.691310	-0.636139	0.827468
C156	C	1.609741	-0.609986	0.922396
C157	C	1.466349	-0.620405	0.922940
C158	C	1.404518	-0.656978	0.828552
C159	C	1.486087	-0.683132	0.733624
H160	H	1.797464	-0.628425	0.827068
H161	H	1.655513	-0.582911	0.992268
H162	H	1.405967	-0.601044	0.993212
H163	H	1.298364	-0.664692	0.828952
H164	H	1.440315	-0.710206	0.663752
C165	C	1.629382	-0.531955	0.733085
C166	C	1.485988	-0.542370	0.733645
C167	C	1.404434	-0.516214	0.828581
C168	C	1.466274	-0.479642	0.922956
C169	C	1.609675	-0.469225	0.922399
C170	C	1.691229	-0.495382	0.827464
H171	H	1.440204	-0.569445	0.663780
H172	H	1.298279	-0.523925	0.828992
H173	H	1.405902	-0.460279	0.993233
H174	H	1.655459	-0.442151	0.992265
H175	H	1.797384	-0.487671	0.827052
H176	H	1.993956	-0.981943	0.309018
C177	C	1.703259	-0.316473	0.646705
C178	C	1.559862	-0.326878	0.647275
C179	C	1.478326	-0.300709	0.742202
C180	C	1.540188	-0.264137	0.836560
C181	C	1.683592	-0.253730	0.835994
C182	C	1.765128	-0.279898	0.741067
H183	H	1.514061	-0.353952	0.577422
H184	H	1.372169	-0.308413	0.742621
H185	H	1.479830	-0.244766	0.906831
H186	H	1.729393	-0.226655	0.905847
H187	H	1.871286	-0.272194	0.740648
H188	H	1.650622	-0.623860	0.708443
H189	H	1.724524	-0.408388	0.622078
