data_functionalizedCrystal
_audit_creation_method	'MofGen! by Chris Wilmer'
_symmetry_space_group_name_H-M	'P1'
_symmetry_Int_Tables_number	1
_symmetry_cell_setting	triclinic
loop_
_symmetry_equiv_pos_as_xyz
  x,y,z
_cell_length_a	18.050589
_cell_length_b	14.908750
_cell_length_c	18.050583
_cell_angle_alpha	86.716907
_cell_angle_beta	89.971909
_cell_angle_gamma	93.267480
loop_
_atom_site_label
_atom_site_type_symbol
_atom_site_fract_x
_atom_site_fract_y
_atom_site_fract_z
Zn1	Zn	-0.361148	-1.379082	-0.354309
Zn2	Zn	0.138852	-0.879082	0.145691
Zn3	Zn	-0.485347	-1.378965	-0.230134
Zn4	Zn	0.014653	-0.878965	0.269866
Zn5	Zn	-0.354015	-1.228230	-0.237312
Zn6	Zn	0.145985	-0.728230	0.262688
Zn7	Zn	-0.478132	-1.228175	-0.361458
Zn8	Zn	0.021868	-0.728175	0.138542
O9	O	-0.419660	-1.303613	-0.295804
O10	O	0.080340	-0.803613	0.204196
O11	O	-0.383628	-1.505305	-0.331841
O12	O	0.116372	-1.005305	0.168159
O13	O	-0.467960	-1.358943	-0.127163
O14	O	0.032040	-0.858943	0.372837
O15	O	-0.251040	-1.248312	-0.252844
O16	O	0.248960	-0.748312	0.247156
O17	O	-0.474877	-1.505219	-0.240611
O18	O	0.025123	-1.005219	0.259389
O19	O	-0.256281	-1.359143	-0.338801
O20	O	0.243719	-0.859143	0.161199
O21	O	-0.371471	-1.248199	-0.132436
O22	O	0.128529	-0.748199	0.367564
O23	O	-0.364474	-1.101984	-0.259776
O24	O	0.135526	-0.601984	0.240224
O25	O	-0.462579	-1.248220	-0.464433
O26	O	0.037421	-0.748220	0.035567
O27	O	-0.455662	-1.101944	-0.350986
O28	O	0.044338	-0.601944	0.149014
O29	O	-0.376632	-1.359090	-0.459181
O30	O	0.123368	-0.859090	0.040819
O31	O	-0.588311	-1.358891	-0.247543
O32	O	-0.088311	-0.858891	0.252457
O33	O	-0.583010	-1.248106	-0.344026
O34	O	-0.083010	-0.748106	0.155974
C35	C	-0.408512	-1.069232	-0.306936
C36	C	0.091488	-0.569232	0.193064
C37	C	-0.403760	-0.968963	-0.311716
C38	C	0.096240	-0.468963	0.188284
C39	C	-0.349639	-0.827679	-0.366021
C40	C	0.150361	-0.327679	0.133979
C41	C	-0.354097	-0.921890	-0.361533
C42	C	0.145903	-0.421890	0.138467
C43	C	-0.448970	-0.921816	-0.266385
C44	C	0.051030	-0.421816	0.233615
C45	C	-0.444512	-0.827604	-0.270873
C46	C	0.055488	-0.327604	0.229127
C47	C	-0.394844	-0.780539	-0.320691
C48	C	0.105156	-0.280539	0.179309
C49	C	-0.390383	-0.686325	-0.325175
C50	C	0.109617	-0.186325	0.174825
C51	C	-0.485259	-0.686253	-0.230031
C52	C	0.014741	-0.186253	0.269969
C53	C	-0.489717	-0.780465	-0.225543
C54	C	0.010283	-0.280465	0.274457
C55	C	-0.612607	-1.303504	-0.295796
C56	C	-0.112607	-0.803504	0.204204
C57	C	-0.695155	-1.303540	-0.295814
C58	C	-0.195155	-0.803540	0.204186
C59	C	-0.891753	-1.243355	-0.348262
C60	C	-0.391753	-0.743355	0.151738
C61	C	-0.940154	-1.221366	-0.281541
C62	C	-0.440154	-0.721366	0.218459
C63	C	-0.846289	-1.303629	-0.295820
C64	C	-0.346289	-0.803629	0.204180
C65	C	-0.944972	-1.325661	-0.362546
C66	C	-0.444972	-0.825661	0.137454
C67	C	-0.992278	-1.303713	-0.295831
C68	C	-0.492278	-0.803713	0.204169
C69	C	-0.893601	-1.281597	-0.229065
C70	C	-0.393601	-0.781597	0.270935
C71	C	-0.898417	-1.385931	-0.310114
C72	C	-0.398417	-0.885931	0.189886
C73	C	-0.946797	-1.363973	-0.243345
C74	C	-0.446797	-0.863973	0.256655
C75	C	-0.762189	-1.303578	-0.295814
C76	C	-0.262189	-0.803578	0.204186
C77	C	-1.076377	-1.303763	-0.295829
C78	C	-0.576377	-0.803763	0.204171
C79	C	-0.225961	-1.303747	-0.295826
C80	C	0.274039	-0.803747	0.204174
C81	C	-0.143418	-1.303804	-0.295835
C82	C	0.356582	-0.803804	0.204165
C83	C	-0.419596	-1.303662	-0.489507
C84	C	0.080404	-0.803662	0.010493
C85	C	-0.419569	-1.303683	-0.572052
C86	C	0.080431	-0.803683	-0.072052
C87	C	-0.430846	-0.538909	-0.284622
C88	C	0.069154	-0.038909	0.215378
C89	C	-0.435593	-0.639179	-0.279844
C90	C	0.064407	-0.139179	0.220156
C91	C	-0.372783	-1.364031	-0.818019
C92	C	0.127217	-0.864031	-0.318019
C93	C	-0.441592	-1.386043	-0.767562
C94	C	0.058408	-0.886043	-0.267562
C95	C	-0.419525	-1.303741	-0.869169
C96	C	0.080475	-0.803741	-0.369169
C97	C	-0.350744	-1.281742	-0.772543
C98	C	0.149256	-0.781742	-0.272543
C99	C	-0.419543	-1.303715	-0.723186
C100	C	0.080457	-0.803715	-0.223186
C101	C	-0.488371	-1.325797	-0.819798
C102	C	0.011629	-0.825797	-0.319798
C103	C	-0.397475	-1.221457	-0.824786
C104	C	0.102525	-0.721457	-0.324786
C105	C	-0.466329	-1.243438	-0.774353
C106	C	0.033671	-0.743438	-0.274353
C107	C	-0.419513	-1.303759	-0.953267
C108	C	0.080487	-0.803759	-0.453267
C109	C	-0.419562	-1.303697	-0.639090
C110	C	0.080438	-0.803697	-0.139090
C111	C	-0.419673	-1.303616	-0.102851
C112	C	0.080327	-0.803616	0.397149
C113	C	-0.419499	-1.303770	-0.020299
C114	C	0.080501	-0.803770	0.479701
H115	H	-0.522070	-0.647861	-0.193121
H116	H	-0.022070	-0.147861	0.306879
H117	H	-0.530157	-0.818798	-0.184984
H118	H	-0.030157	-0.318798	0.315016
H119	H	-0.867673	-1.192308	-0.392554
H120	H	-0.367673	-0.692308	0.107446
N121	N	-0.336815	-0.635568	-0.378910
N122	N	0.163185	-0.135568	0.121090
H123	H	-0.365187	-0.596484	-0.415135
H124	H	0.134813	-0.096484	0.084865
H125	H	-0.300521	-0.596530	-0.350598
H126	H	0.199479	-0.096530	0.149402
N127	N	-0.466315	-1.478197	-0.734430
N128	N	0.033685	-0.978197	-0.234430
H129	H	-0.430969	-1.523708	-0.750229
H130	H	0.069031	-1.023708	-0.250229
H131	H	-0.466609	-1.477266	-0.678529
H132	H	0.033391	-0.977266	-0.178529
H133	H	-0.970737	-1.414981	-0.198953
H134	H	-0.470737	-0.914981	0.301047
N135	N	-0.964600	-1.129219	-0.265524
N136	N	-0.464600	-0.629219	0.234476
H137	H	-0.995031	-1.105138	-0.308379
H138	H	-0.495031	-0.605138	0.191621
H139	H	-0.995586	-1.133644	-0.218715
H140	H	-0.495586	-0.633644	0.281285
N141	N	-0.863881	-1.256854	-0.154304
N142	N	-0.363881	-0.756854	0.345696
H143	H	-0.807934	-1.256948	-0.154768
H144	H	-0.307934	-0.756948	0.345232
H145	H	-0.879458	-1.194935	-0.143433
H146	H	-0.379458	-0.694935	0.356567
N147	N	-0.372726	-1.129327	-0.857936
N148	N	0.127274	-0.629327	-0.357936
H149	H	-0.373375	-1.129885	-0.913857
H150	H	0.126625	-0.629885	-0.413857
H151	H	-0.407505	-1.083647	-0.841303
H152	H	0.092495	-0.583647	-0.341303
H153	H	-0.879940	-1.455475	-0.322227
H154	H	-0.379940	-0.955475	0.177773
H155	H	-0.292569	-1.263147	-0.751748
H156	H	0.207431	-0.763147	-0.251748
H157	H	-0.309190	-0.789357	-0.406578
H158	H	0.190810	-0.289357	0.093422
H159	H	-0.967502	-1.344263	-0.418972
H160	H	-0.467502	-0.844263	0.081028
H161	H	-0.333302	-1.415066	-0.837281
H162	H	0.166698	-0.915066	-0.337281
H163	H	-0.546563	-1.344493	-0.840496
H164	H	-0.046563	-0.844493	-0.340496
N165	N	-0.518757	-1.175893	-0.749001
N166	N	-0.018757	-0.675893	-0.249001
H167	H	-0.502566	-1.113928	-0.770712
H168	H	-0.002566	-0.613928	-0.270712
H169	H	-0.570661	-1.192697	-0.766257
H170	H	-0.070661	-0.692697	-0.266257
N171	N	-0.305344	-0.972736	-0.410426
N172	N	0.194656	-0.472736	0.089574
H173	H	-0.273206	-0.928621	-0.442666
H174	H	0.226794	-0.428621	0.057334
H175	H	-0.272788	-1.011823	-0.378394
H176	H	0.227212	-0.511823	0.121606
H177	H	-0.489410	-0.960153	-0.225827
H178	H	0.010590	-0.460153	0.274173
