data_functionalizedCrystal
_audit_creation_method	'MofGen! by Chris Wilmer'
_symmetry_space_group_name_H-M	'P1'
_symmetry_Int_Tables_number	1
_symmetry_cell_setting	triclinic
loop_
_symmetry_equiv_pos_as_xyz
  x,y,z
_cell_length_a	19.121321
_cell_length_b	12.759399
_cell_length_c	12.759393
_cell_angle_alpha	90.030906
_cell_angle_beta	92.418264
_cell_angle_gamma	92.420442
loop_
_atom_site_label
_atom_site_type_symbol
_atom_site_fract_x
_atom_site_fract_y
_atom_site_fract_z
Zn1	Zn	1.073754	0.486633	-0.525497
Zn2	Zn	1.073680	0.662344	-0.349821
Zn3	Zn	0.956301	0.479201	-0.357327
Zn4	Zn	0.956295	0.654787	-0.532949
O5	O	1.015008	0.570741	-0.441398
O6	O	1.172025	0.516215	-0.495933
O7	O	1.058082	0.638102	-0.203797
O8	O	0.971915	0.333168	-0.379659
O9	O	1.171971	0.645309	-0.366864
O10	O	1.058207	0.338629	-0.503212
O11	O	0.971844	0.503547	-0.209312
O12	O	0.858020	0.496219	-0.386884
O13	O	0.971904	0.632428	-0.678980
O14	O	0.858015	0.625221	-0.515912
O15	O	1.058201	0.508887	-0.673505
O16	O	1.058075	0.808361	-0.374090
O17	O	0.971833	0.802808	-0.508633
C18	C	1.014965	0.843706	-0.441377
C19	C	1.015010	0.960485	-0.441399
C20	C	0.832535	0.559094	-0.453022
C21	C	0.754472	0.554137	-0.458019
C22	C	1.015060	0.570644	-0.715429
C23	C	1.015083	0.570602	-0.832204
C24	C	0.312966	0.522650	-0.489709
C25	C	0.386314	0.527327	-0.485008
C26	C	0.422951	0.596768	-0.415349
C27	C	0.386236	0.661543	-0.350395
C28	C	0.312889	0.656870	-0.355103
C29	C	0.644410	0.614239	-0.397773
C30	C	0.717762	0.618905	-0.393068
C31	C	0.717835	0.484690	-0.527683
C32	C	0.644487	0.480019	-0.532380
C33	C	0.607778	0.544797	-0.467430
C34	C	0.497925	0.601548	-0.410539
C35	C	0.532805	0.540022	-0.472245
C36	C	1.198193	0.582434	-0.429730
C37	C	1.276256	0.587417	-0.424758
C38	C	1.015070	0.296712	-0.441441
C39	C	1.015097	0.179937	-0.441460
C40	C	1.059968	1.018207	-0.371416
C41	C	1.060013	1.127934	-0.371448
C42	C	0.970137	1.122208	-0.511451
C43	C	0.970096	1.012483	-0.511423
C44	C	1.060021	0.506264	-0.884217
C45	C	1.060032	0.506219	-0.993940
C46	C	0.970166	0.634861	-0.999628
C47	C	0.970152	0.634899	-0.889907
C48	C	1.014996	0.570765	-0.168432
C49	C	1.015109	0.570519	-0.051648
H50	H	0.283141	0.466097	-0.546427
C51	C	0.920756	0.705609	-1.063095
C52	C	0.840914	0.691962	-1.053091
C53	C	0.791506	0.762722	-1.116551
C54	C	0.821940	0.847130	-1.190014
C55	C	0.901786	0.860781	-1.200022
C56	C	0.951194	0.790020	-1.136562
H57	H	0.818381	0.629475	-0.998706
H58	H	0.732399	0.752617	-1.109142
H59	H	0.785366	0.899512	-1.236991
H60	H	0.924319	0.923268	-1.254407
H61	H	1.010301	0.800126	-1.143970
H62	H	0.283001	0.709613	-0.302214
C63	C	0.920714	0.705677	-0.832690
C64	C	0.840878	0.691995	-0.852858
C65	C	0.791440	0.762765	-0.795642
C66	C	0.821838	0.847217	-0.718258
C67	C	0.901678	0.860902	-0.698086
C68	C	0.951116	0.790132	-0.755302
H69	H	0.818373	0.629476	-0.910146
H70	H	0.732337	0.752634	-0.810575
H71	H	0.785241	0.899605	-0.675903
H72	H	0.924184	0.923421	-0.640798
H73	H	1.010219	0.800263	-0.740368
C74	C	1.109466	0.435447	-1.051154
C75	C	1.158885	0.364724	-0.987679
C76	C	1.208319	0.293947	-1.044892
C77	C	1.208336	0.293892	-1.165581
C78	C	1.158915	0.364617	-1.229064
C79	C	1.109481	0.435395	-1.171850
H80	H	1.158874	0.364763	-0.898331
H81	H	1.244904	0.241591	-0.997898
H82	H	1.244930	0.241498	-1.207934
H83	H	1.158926	0.364579	-1.318411
H84	H	1.072896	0.487750	-1.218845
C85	C	1.109438	0.435531	-0.820742
C86	C	1.079014	0.351134	-0.747257
C87	C	1.128431	0.280397	-0.683786
C88	C	1.208272	0.294058	-0.693798
C89	C	1.238699	0.378459	-0.767286
C90	C	1.189282	0.449196	-0.830758
H91	H	1.019908	0.341018	-0.739843
H92	H	1.105906	0.217917	-0.629385
H93	H	1.244853	0.241694	-0.646813
H94	H	1.297806	0.388575	-0.774701
H95	H	1.211807	0.511676	-0.885158
C96	C	0.604198	0.403651	-0.609034
C97	C	0.553810	0.446091	-0.694674
C98	C	0.513526	0.369725	-0.771338
C99	C	0.523628	0.250920	-0.762362
C100	C	0.574017	0.208474	-0.676718
C101	C	0.614302	0.284839	-0.600054
H102	H	0.546330	0.534043	-0.701322
H103	H	0.476224	0.401147	-0.834737
H104	H	0.493807	0.194390	-0.819113
H105	H	0.581497	0.120522	-0.670070
H106	H	0.651603	0.253417	-0.536655
H107	H	0.747731	0.431952	-0.580562
C108	C	1.109378	0.961008	-0.294401
C109	C	1.103698	0.975840	-0.175324
C110	C	1.153111	0.918644	-0.098309
C111	C	1.208205	0.846616	-0.140372
C112	C	1.213887	0.831781	-0.259455
C113	C	1.164474	0.888977	-0.336469
H114	H	1.062912	1.029162	-0.144181
H115	H	1.148905	0.929626	-0.010156
H116	H	1.244784	0.804277	-0.083361
H117	H	1.254673	0.778459	-0.290598
H118	H	1.168681	0.877995	-0.424623
C119	C	0.604040	0.685491	-0.326322
C120	C	0.614081	0.677407	-0.206258
C121	C	0.573709	0.748664	-0.134802
C122	C	0.523296	0.828005	-0.183411
C123	C	0.513252	0.836092	-0.303482
C124	C	0.553624	0.764835	-0.374937
H125	H	0.651402	0.618671	-0.170269
H126	H	0.581144	0.742676	-0.045918
H127	H	0.493410	0.880753	-0.130515
H128	H	0.475932	0.894828	-0.339470
H129	H	0.546189	0.770822	-0.463822
H130	H	0.416200	0.474590	-0.537902
H131	H	0.933568	1.164557	-0.568460
H132	H	0.933486	0.965483	-0.568417
H133	H	0.416072	0.718087	-0.293681
C134	C	0.492507	0.463636	-0.548865
C135	C	0.442104	0.506049	-0.634498
C136	C	0.401797	0.429658	-0.711113
C137	C	0.411893	0.310854	-0.702093
C138	C	0.462298	0.268435	-0.616456
C139	C	0.502605	0.344826	-0.539842
H140	H	0.434628	0.594000	-0.641178
H141	H	0.364484	0.461060	-0.774507
H142	H	0.382055	0.254305	-0.758808
H143	H	0.469773	0.180484	-0.609776
H144	H	0.539918	0.313424	-0.476447
H145	H	0.747590	0.675455	-0.336342
H146	H	0.527763	0.658083	-0.353819
H147	H	1.096623	1.174926	-0.314462
