data_functionalizedCrystal
_audit_creation_method	'MofGen! by Chris Wilmer'
_symmetry_space_group_name_H-M	'P1'
_symmetry_Int_Tables_number	1
_symmetry_cell_setting	triclinic
loop_
_symmetry_equiv_pos_as_xyz
  x,y,z
_cell_length_a	11.792241
_cell_length_b	10.654556
_cell_length_c	9.730223
_cell_angle_alpha	89.998368
_cell_angle_beta	89.995449
_cell_angle_gamma	84.340476
loop_
_atom_site_label
_atom_site_type_symbol
_atom_site_fract_x
_atom_site_fract_y
_atom_site_fract_z
O1	O	0.159454	1.667383	-0.114239
O2	O	0.174635	1.301863	-0.114253
O3	O	0.001895	1.493493	-0.114236
O4	O	0.332194	1.475753	-0.114256
O5	O	0.001890	1.493481	0.114344
O6	O	0.174630	1.301851	0.114327
O7	O	0.159449	1.667371	0.114341
Zn8	Zn	0.167039	1.484609	0.150626
Zn9	Zn	0.167045	1.484625	-0.150538
O10	O	0.332190	1.475741	0.114324
C11	C	0.173516	1.255062	0.000035
C12	C	0.170177	1.115629	0.000030
C13	C	0.165478	0.919103	-0.124558
C14	C	0.168608	1.050117	-0.124566
C15	C	0.168603	1.050122	0.124644
C16	C	0.165464	0.919112	0.124651
C17	C	-0.040401	1.492373	0.000054
C18	C	-0.166423	1.489037	0.000052
C19	C	-0.397149	1.482904	0.000029
C20	C	-0.268756	1.486312	0.000042
C21	C	0.374486	1.476861	0.000032
C22	C	0.500507	1.480197	0.000024
C23	C	0.160568	1.714172	0.000050
C24	C	0.163907	1.853605	0.000046
N25	N	0.167034	1.484607	0.356163
N26	N	0.167041	1.484637	-0.356074
C27	C	0.090577	1.569490	0.428096
C28	C	0.090578	1.569502	0.571979
C29	C	0.243502	1.399745	0.571982
C30	C	0.243495	1.399727	0.428102
H31	H	0.169873	1.103473	0.226093
H32	H	0.305756	1.330640	0.630570
H33	H	0.028318	1.638620	0.630543
H34	H	0.305756	1.330599	0.369530
H35	H	0.164209	0.865772	-0.226019
H36	H	0.164184	0.865782	0.226125
H37	H	0.028317	1.638602	0.369526
H38	H	0.169886	1.103440	-0.226032
