data_functionalizedCrystal
_audit_creation_method	'MofGen! by Chris Wilmer'
_symmetry_space_group_name_H-M	'P1'
_symmetry_Int_Tables_number	1
_symmetry_cell_setting	triclinic
loop_
_symmetry_equiv_pos_as_xyz
  x,y,z
_cell_length_a	17.699077
_cell_length_b	14.044190
_cell_length_c	16.176319
_cell_angle_alpha	89.988653
_cell_angle_beta	89.993140
_cell_angle_gamma	88.236177
loop_
_atom_site_label
_atom_site_type_symbol
_atom_site_fract_x
_atom_site_fract_y
_atom_site_fract_z
O1	O	1.012350	0.119823	-0.068745
O2	O	0.793047	0.135422	-0.068750
O3	O	0.899404	-0.010354	-0.068731
O4	O	0.905993	0.265600	-0.068764
O5	O	0.899387	-0.010364	0.068762
O6	O	0.793030	0.135413	0.068743
O7	O	1.012333	0.119814	0.068748
Cu8	Cu	0.902680	0.127613	0.081300
Cu9	Cu	0.902700	0.127624	-0.081302
O10	O	0.905976	0.265591	0.068730
C11	C	0.764803	0.134859	-0.000004
C12	C	0.680669	0.133185	-0.000005
C13	C	0.641138	0.132392	0.074943
C14	C	0.562086	0.130804	0.074944
C15	C	0.522566	0.130016	-0.000004
C16	C	0.562103	0.130807	-0.074958
C17	C	0.641154	0.132389	-0.074958
C18	C	0.243299	0.124430	-0.074959
C19	C	0.164243	0.122851	-0.074953
C20	C	0.164232	0.122845	0.074944
C21	C	0.243283	0.124426	0.074944
C22	C	0.282813	0.125212	-0.000010
C23	C	0.368530	0.126932	-0.000010
C24	C	0.436850	0.128303	-0.000005
C25	C	0.896513	-0.045667	0.000018
C26	C	0.887915	-0.150873	0.000025
C27	C	0.933175	-0.401265	-0.000007
C28	C	0.872208	-0.343494	-0.000002
C29	C	0.880950	-0.236310	0.000013
C30	C	0.924435	-0.508459	-0.000022
C31	C	1.040577	0.120377	0.000000
C32	C	1.124711	0.122051	-0.000004
C33	C	0.908867	0.300903	-0.000021
C34	C	0.917465	0.406109	-0.000034
N35	N	0.902672	0.127604	0.195665
N36	N	0.902714	0.127624	-0.195667
C37	C	0.949784	0.063081	0.238938
C38	C	0.949788	0.063080	0.325485
C39	C	0.902683	0.127608	0.368758
C40	C	0.855565	0.192134	0.325479
C41	C	0.855558	0.192130	0.238934
C42	C	0.855593	0.192152	0.674507
C43	C	0.855605	0.192153	0.761059
C44	C	0.949822	0.063102	0.761059
C45	C	0.949815	0.063098	0.674513
C46	C	0.902695	0.127620	0.631242
C47	C	0.902690	0.127619	0.537398
C48	C	0.902691	0.127614	0.462600
H49	H	0.275475	0.125067	-0.135991
N50	N	0.521719	0.129986	0.151510
N51	N	0.557013	0.130691	0.218422
H52	H	0.528505	0.130111	0.272501
H53	H	0.529920	0.130160	-0.135983
N54	N	0.807448	0.258055	0.194729
N55	N	0.835425	0.316845	0.146418
H56	H	0.801445	0.363405	0.115199
N57	N	0.997919	-0.002818	0.630299
N58	N	0.997903	-0.002815	0.553027
H59	H	1.031875	-0.049372	0.521800
H60	H	0.275456	0.125072	0.135974
H61	H	0.673310	0.133041	0.135975
H62	H	0.991932	-0.370228	0.000003
H63	H	0.988146	0.010539	0.203711
H64	H	0.132038	0.122200	0.135975
N65	N	0.997913	-0.002840	0.369673
N66	N	1.039970	-0.060446	0.331027
H67	H	1.073960	-0.107007	0.362234
N68	N	0.997947	-0.002807	0.805273
N69	N	0.997948	-0.002802	0.882545
H70	H	1.031936	-0.049348	0.913771
H71	H	0.817244	0.244701	0.796290
N72	N	0.807455	0.258060	0.630327
N73	N	0.765402	0.315667	0.668977
H74	H	0.731401	0.362218	0.637773
N75	N	0.123884	0.122049	-0.151523
N76	N	0.159186	0.122751	-0.218440
H77	H	0.130684	0.122186	-0.272515
N78	N	0.798497	-0.382438	0.000004
N79	N	0.778846	-0.435106	0.057958
H80	H	0.726789	-0.462615	0.057967
N81	N	0.681525	0.133191	-0.151524
N82	N	0.646233	0.132485	-0.218438
H83	H	0.674743	0.133046	-0.272515
N84	N	0.807447	0.258035	0.369691
N85	N	0.807459	0.258032	0.446963
H86	H	0.773475	0.304576	0.478188
