data_functionalizedCrystal
_audit_creation_method	'MofGen! by Chris Wilmer'
_symmetry_space_group_name_H-M	'P1'
_symmetry_Int_Tables_number	1
_symmetry_cell_setting	triclinic
loop_
_symmetry_equiv_pos_as_xyz
  x,y,z
_cell_length_a	14.908571
_cell_length_b	16.994746
_cell_length_c	14.908308
_cell_angle_alpha	86.704843
_cell_angle_beta	89.824947
_cell_angle_gamma	86.707907
loop_
_atom_site_label
_atom_site_type_symbol
_atom_site_fract_x
_atom_site_fract_y
_atom_site_fract_z
Zn1	Zn	1.345367	-0.411654	0.587812
Zn2	Zn	1.353969	-0.536423	0.437522
Zn3	Zn	1.203680	-0.396503	0.428801
Zn4	Zn	1.194997	-0.535486	0.579173
O5	O	1.274503	-0.470016	0.508327
O6	O	1.472335	-0.434938	0.575140
O7	O	1.341267	-0.511914	0.310537
O8	O	1.222509	-0.288131	0.449860
O9	O	1.478655	-0.526605	0.464723
O10	O	1.326606	-0.299263	0.566684
O11	O	1.230850	-0.409115	0.304130
O12	O	1.076701	-0.408206	0.441483
O13	O	1.207710	-0.525008	0.706147
O14	O	1.070321	-0.510316	0.551961
O15	O	1.318186	-0.434029	0.712494
O16	O	1.332847	-0.646680	0.456346
O17	O	1.216051	-0.645991	0.560417
C18	C	1.040885	-0.457516	0.494839
C19	C	0.940941	-0.452188	0.489090
C20	C	1.274451	-0.674957	0.508388
C21	C	1.274459	-0.764279	0.508396
Zn22	Zn	1.203836	-1.027568	0.428655
Zn23	Zn	1.354104	-0.903674	0.437630
Zn24	Zn	1.345279	-1.042740	0.587884
Zn25	Zn	1.194913	-0.902883	0.579036
O26	O	1.274533	-0.969216	0.508301
O27	O	1.231198	-1.005115	0.304029
O28	O	1.478749	-0.928803	0.465020
O29	O	1.326557	-1.151108	0.566709
O30	O	1.341598	-0.914091	0.310623
O31	O	1.222640	-1.139961	0.449724
O32	O	1.472265	-1.030974	0.575411
O33	O	1.317904	-1.030206	0.712527
O34	O	1.070281	-0.912741	0.551628
O35	O	1.207431	-0.927453	0.706026
O36	O	1.076837	-1.004347	0.441144
O37	O	1.332946	-0.793189	0.456441
O38	O	1.215989	-0.792607	0.560331
C39	C	0.746551	-0.548654	0.593173
C40	C	0.652644	-0.543650	0.587774
C41	C	0.659220	-0.437175	0.472899
C42	C	0.753127	-0.442179	0.478298
C43	C	0.796789	-0.497920	0.538436
C44	C	0.890697	-0.502927	0.543829
C45	C	0.897271	-0.396449	0.428959
C46	C	0.803364	-0.391445	0.423561
C47	C	1.509033	-0.482566	0.521868
C48	C	1.608976	-0.487914	0.527639
C49	C	1.261020	-0.481104	0.742858
C50	C	1.255274	-0.485829	0.842802
C51	C	1.274560	-0.264276	0.508260
C52	C	1.274588	-0.174954	0.508232
C53	C	1.287986	-0.458918	0.274711
C54	C	1.293906	-0.453980	0.174778
C55	C	1.359514	-0.399953	1.037216
C56	C	1.354118	-0.404390	1.131122
C57	C	1.239083	-0.499135	1.124521
C58	C	1.244479	-0.494698	1.030615
C59	C	1.304697	-0.445106	0.986966
C60	C	1.310097	-0.440674	0.893059
C61	C	1.195058	-0.535414	0.886459
C62	C	1.189662	-0.539851	0.980364
C63	C	1.260741	-0.980390	0.741899
C64	C	1.254820	-0.985150	0.841832
C65	C	1.040024	-0.956763	0.494398
C66	C	0.940090	-0.951457	0.488474
C67	C	1.288378	-0.957999	0.273791
C68	C	1.294278	-0.953218	0.173857
C69	C	1.508133	-0.981674	0.522099
C70	C	1.608076	-0.987193	0.527852
C71	C	1.194605	-0.933812	0.885362
C72	C	1.189024	-0.938283	0.979259
C73	C	1.243662	-0.994089	1.029624
C74	C	1.303879	-1.045432	0.986088
C75	C	1.309456	-1.040964	0.892193
C76	C	0.896569	-0.996665	0.428168
C77	C	0.802671	-0.991695	0.422601
C78	C	0.752296	-0.941512	0.477337
C79	C	0.795823	-0.896302	0.537649
C80	C	0.889720	-0.901277	0.543220
C81	C	1.354566	-1.004477	0.130306
C82	C	1.360110	-1.000002	0.036407
C83	C	1.305369	-0.944263	-0.013939
C84	C	1.245073	-0.893002	0.029617
C85	C	1.239526	-0.897482	0.123514
C86	C	1.651870	-0.941719	0.587679
C87	C	1.745776	-0.946905	0.593103
C88	C	1.795888	-0.997561	0.538693
C89	C	1.752088	-1.043040	0.478863
C90	C	1.658182	-1.037858	0.473445
H91	H	0.926245	-0.548316	0.592795
H92	H	1.409214	-1.041744	0.000958
H93	H	1.190056	-0.539510	1.160076
H94	H	1.150424	-0.572184	0.845535
H95	H	1.872351	-1.001770	0.543110
H96	H	0.754794	-0.855444	0.582213
H97	H	1.150111	-0.888365	0.844366
H98	H	1.611081	-0.900465	0.631985
O99	O	1.368564	-0.392564	0.850515
C100	C	1.427812	-0.343690	0.708773
C101	C	1.361578	-0.398226	0.756836
H102	H	1.422173	-0.348237	0.633026
H103	H	1.499278	-0.362281	0.731358
H104	H	1.410973	-0.280128	0.726361
H105	H	1.378334	-0.461803	0.739272
H106	H	1.290131	-0.379568	0.734248
O107	O	0.931851	-0.857271	0.601817
C108	C	0.915122	-0.762153	0.715364
C109	C	0.867302	-0.811935	0.649024
H110	H	0.862955	-0.725499	0.753562
H111	H	0.961467	-0.721209	0.676752
H112	H	0.956354	-0.802948	0.764937
H113	H	0.826023	-0.771201	0.599435
H114	H	0.821011	-0.852888	0.687695
O115	O	1.130512	-0.888318	1.021398
C116	C	1.017160	-0.781587	1.004691
C117	C	1.083398	-0.838112	0.956860
H118	H	0.979037	-0.740993	0.952533
H119	H	1.055846	-0.744633	1.051097
H120	H	0.967514	-0.817336	1.045861
H121	H	1.133059	-0.802426	0.915642
H122	H	1.044653	-0.875069	0.910507
H123	H	1.792903	-1.084283	0.434565
H124	H	0.675840	-0.937468	0.472792
O125	O	0.616747	-0.383123	0.414418
C126	C	0.517563	-0.360912	0.287027
C127	C	0.565638	-0.422219	0.353167
H128	H	0.476215	-0.392497	0.237501
H129	H	0.569544	-0.325498	0.248758
H130	H	0.471289	-0.319343	0.325907
H131	H	0.611910	-0.463839	0.314357
H132	H	0.513608	-0.457576	0.391436
O133	O	0.760807	-0.337367	0.365170
C134	C	0.619051	-0.282430	0.305989
C135	C	0.667131	-0.343724	0.372141
H136	H	0.543306	-0.287538	0.311616
H137	H	0.641596	-0.293737	0.234501
H138	H	0.636666	-0.220595	0.322923
H139	H	0.649539	-0.405583	0.355290
H140	H	0.644583	-0.332348	0.443610
O141	O	1.131044	-0.587931	1.022720
C142	C	0.976441	-0.619442	1.042593
C143	C	1.042723	-0.564920	0.994584
H144	H	0.905021	-0.600868	1.019850
H145	H	0.981919	-0.614852	1.118349
H146	H	0.993329	-0.683015	1.025077
H147	H	1.025879	-0.501324	1.012028
H148	H	1.037234	-0.569578	0.918840
H149	H	1.239114	-0.997718	1.106079
O150	O	1.407781	-1.058697	0.179064
C151	C	1.522492	-1.164331	0.175862
C152	C	1.462265	-1.102970	0.120542
H153	H	1.566570	-1.200131	0.128571
H154	H	1.478675	-1.205536	0.217335
H155	H	1.566862	-1.132708	0.222647
H156	H	1.417884	-1.134527	0.073708
H157	H	1.506134	-1.061769	0.079129
H158	H	0.767244	-1.028510	0.373486
H159	H	1.348362	-1.090869	1.027109
H160	H	1.398753	-0.367619	1.172033
O161	O	1.788171	-0.902638	0.651238
C162	C	1.771977	-0.806758	0.763997
C163	C	1.723855	-0.856832	0.698185
H164	H	1.719998	-0.769724	0.801984
H165	H	1.818406	-0.766165	0.724977
H166	H	1.813159	-0.847364	0.813798
H167	H	1.682625	-0.816286	0.648368
H168	H	1.677479	-0.897433	0.737263
H169	H	0.782101	-0.594045	0.642134
O170	O	1.615600	-1.082116	0.415445
C171	C	1.509937	-1.182254	0.398011
C172	C	1.558107	-1.132191	0.463799
H173	H	1.463428	-1.222740	0.437077
H174	H	1.561850	-1.219400	0.360072
H175	H	1.468824	-1.141637	0.348164
H176	H	1.599218	-1.172750	0.513700
H177	H	1.506148	-1.095037	0.501672
H178	H	1.190435	-0.855735	0.158965
O179	O	0.946207	-0.347200	0.375875
C180	C	1.093791	-0.307759	0.333229
C181	C	1.038480	-0.363562	0.393415
H182	H	1.168405	-0.320979	0.347375
H183	H	1.074491	-0.243928	0.348047
H184	H	1.079418	-0.317095	0.259652
H185	H	1.052824	-0.354297	0.467012
H186	H	1.057789	-0.427373	0.378520
O187	O	1.310770	-0.939768	-0.105151
C188	C	1.341877	-0.858967	-0.238498
C189	C	1.335766	-0.863940	-0.135203
H190	H	1.362104	-0.797670	-0.262826
H191	H	1.273767	-0.870366	-0.268187
H192	H	1.394347	-0.905211	-0.260949
H193	H	1.283334	-0.817702	-0.112674
H194	H	1.403911	-0.852575	-0.105574
O195	O	1.417911	-0.351670	0.994844
C196	C	1.463291	-0.218482	0.968620
C197	C	1.397083	-0.273069	1.016640
H198	H	1.446487	-0.154924	0.986239
H199	H	1.457727	-0.222999	0.892860
H200	H	1.534725	-0.237128	0.991260
H201	H	1.325620	-0.254460	0.994074
H202	H	1.402725	-0.268545	1.092392
O203	O	0.603980	-0.593015	0.640982
C204	C	0.607369	-0.699114	0.755537
C205	C	0.662591	-0.643270	0.695311
H206	H	0.654731	-0.739748	0.799491
H207	H	0.565791	-0.736066	0.711719
H208	H	0.560690	-0.662826	0.800035
H209	H	0.709319	-0.679497	0.650803
H210	H	0.704109	-0.606315	0.739182
O211	O	1.191941	-0.838755	-0.019192
C212	C	1.150003	-0.700887	-0.050521
C213	C	1.210209	-0.762242	0.004830
H214	H	1.164765	-0.639012	-0.031133
H215	H	1.076401	-0.711698	-0.036357
H216	H	1.164317	-0.706534	-0.125107
H217	H	1.195974	-0.756631	0.079433
H218	H	1.283792	-0.751413	-0.009410
H219	H	1.358495	-1.082768	0.856759
O220	O	0.945354	-1.045486	0.374962
C221	C	0.942208	-1.139558	0.260244
C222	C	0.886858	-1.084305	0.320459
H223	H	0.894938	-1.170946	0.216150
H224	H	0.983724	-1.185156	0.304071
H225	H	0.988952	-1.103428	0.215886
H226	H	0.840064	-1.120370	0.364827
H227	H	0.845402	-1.038706	0.276579
