data_functionalizedCrystal
_audit_creation_method	'MofGen! by Chris Wilmer'
_symmetry_space_group_name_H-M	'P1'
_symmetry_Int_Tables_number	1
_symmetry_cell_setting	triclinic
loop_
_symmetry_equiv_pos_as_xyz
  x,y,z
_cell_length_a	17.077404
_cell_length_b	19.805405
_cell_length_c	17.077396
_cell_angle_alpha	89.968350
_cell_angle_beta	89.980499
_cell_angle_gamma	90.026635
loop_
_atom_site_label
_atom_site_type_symbol
_atom_site_fract_x
_atom_site_fract_y
_atom_site_fract_z
Zn1	Zn	1.200035	-0.269459	-0.443825
Zn2	Zn	1.199934	-0.382652	-0.312552
Zn3	Zn	1.068767	-0.269483	-0.312573
Zn4	Zn	1.068727	-0.382612	-0.443776
O5	O	1.134366	-0.326052	-0.378182
O6	O	1.309869	-0.284481	-0.426424
O7	O	1.182509	-0.367667	-0.202708
O8	O	1.086239	-0.174763	-0.330014
O9	O	1.309795	-0.367644	-0.329978
O10	O	1.182681	-0.174746	-0.426444
O11	O	1.086141	-0.284522	-0.202724
O12	O	0.958915	-0.284483	-0.329966
O13	O	1.086171	-0.367575	-0.553629
O14	O	0.958886	-0.367598	-0.426360
O15	O	1.182643	-0.284442	-0.553666
O16	O	1.182470	-0.477363	-0.329930
O17	O	1.086073	-0.477334	-0.426339
C18	C	0.930418	-0.326039	-0.378160
C19	C	0.843168	-0.326050	-0.378169
C20	C	0.802183	-0.369394	-0.428281
C21	C	0.720203	-0.369395	-0.428294
C22	C	0.679209	-0.326056	-0.378190
C23	C	0.720200	-0.282708	-0.328076
C24	C	0.802179	-0.282703	-0.328068
C25	C	0.549330	-0.282721	-0.328095
C26	C	0.467345	-0.282726	-0.328102
C27	C	0.467354	-0.369413	-0.428321
C28	C	0.549333	-0.369409	-0.428313
C29	C	0.590318	-0.326061	-0.378197
C30	C	1.134278	-0.501908	-0.378144
C31	C	1.134312	-0.577140	-0.378154
C32	C	1.184555	-0.612477	-0.328006
C33	C	1.184588	-0.683165	-0.328023
C34	C	1.134374	-0.718515	-0.378185
C35	C	1.084129	-0.683173	-0.428338
C36	C	1.084100	-0.612486	-0.428324
C37	C	1.084245	-0.968246	-0.428397
C38	C	1.084276	-1.038938	-0.428405
C39	C	1.184733	-1.038925	-0.328095
C40	C	1.184704	-0.968238	-0.328081
C41	C	1.134462	-0.932902	-0.378237
C42	C	1.134427	-0.856254	-0.378219
C43	C	1.134404	-0.795162	-0.378200
C44	C	1.339110	-0.326064	-0.378204
C45	C	1.426360	-0.326070	-0.378213
C46	C	1.134414	-0.326002	-0.582926
C47	C	1.134434	-0.325980	-0.670176
C48	C	1.134476	-0.149509	-0.378237
C49	C	1.134523	-0.074277	-0.378261
C50	C	1.184668	-0.282690	-0.711186
C51	C	1.184678	-0.282667	-0.793167
C52	C	1.134456	-0.325939	-0.834135
C53	C	1.084216	-0.369232	-0.793119
C54	C	1.084203	-0.369251	-0.711140
C55	C	1.084248	-0.369191	-0.963989
C56	C	1.084261	-0.369174	-1.045974
C57	C	1.184722	-0.282608	-1.046016
C58	C	1.184709	-0.282626	-0.964037
C59	C	1.134470	-0.325920	-0.923026
C60	C	1.134364	-0.326052	-0.174234
C61	C	1.134496	-0.325883	-0.086984
H62	H	0.582697	-0.247417	-0.287293
F63	F	0.845805	-0.415525	-0.481605
H64	H	1.043364	-0.404408	-1.079328
F65	F	1.030763	-0.415283	-0.836723
F66	F	1.030775	-0.415268	-0.920345
F67	F	1.030772	-0.930648	-0.481776
H68	H	1.225586	-0.247417	-0.826554
H69	H	1.043188	-0.583715	-0.469161
H70	H	1.225645	-1.067704	-0.287259
F71	F	0.423718	-0.236603	-0.274773
F72	F	0.676569	-0.236579	-0.274757
F73	F	1.030691	-0.720797	-0.481729
F74	F	0.845797	-0.236570	-0.274734
H75	H	1.225500	-0.711933	-0.287187
H76	H	1.043386	-1.067719	-0.469259
F77	F	1.238126	-0.236636	-0.667592
F78	F	1.238166	-0.236575	-0.920437
H79	H	1.043289	-0.404496	-0.677751
H80	H	1.225590	-0.939458	-0.287232
H81	H	0.686837	-0.404691	-0.469099
F82	F	0.592960	-0.415539	-0.481633
F83	F	0.423734	-0.415539	-0.481666
F84	F	1.237995	-0.574861	-0.274611
F85	F	1.238192	-0.236531	-1.089663
