data_functionalizedCrystal
_audit_creation_method	'MofGen! by Chris Wilmer'
_symmetry_space_group_name_H-M	'P1'
_symmetry_Int_Tables_number	1
_symmetry_cell_setting	triclinic
loop_
_symmetry_equiv_pos_as_xyz
  x,y,z
_cell_length_a	14.519709
_cell_length_b	17.699077
_cell_length_c	16.776229
_cell_angle_alpha	90.000648
_cell_angle_beta	90.008351
_cell_angle_gamma	83.480361
loop_
_atom_site_label
_atom_site_type_symbol
_atom_site_fract_x
_atom_site_fract_y
_atom_site_fract_z
O1	O	0.116600	1.004408	0.066279
O2	O	0.616600	1.504408	0.566279
O3	O	0.131779	0.784073	0.066283
O4	O	0.631779	1.284073	0.566283
O5	O	-0.010074	0.900083	0.066274
O6	O	0.489926	1.400083	0.566274
O7	O	0.258453	0.888399	0.066289
O8	O	0.758453	1.388399	0.566289
O9	O	-0.010087	0.900080	-0.066302
O10	O	0.489913	1.400080	0.433698
O11	O	0.131766	0.784071	-0.066293
O12	O	0.631766	1.284071	0.433707
O13	O	0.116587	1.004406	-0.066297
O14	O	0.616587	1.504406	0.433703
Zn15	Zn	0.124175	0.894238	-0.087345
Zn16	Zn	0.624175	1.394238	0.412655
Zn17	Zn	0.124191	0.894241	0.087331
Zn18	Zn	0.624191	1.394241	0.587331
O19	O	0.258440	0.888397	-0.066288
O20	O	0.758440	1.388397	0.433712
C21	C	0.131230	0.755873	-0.000004
C22	C	0.631230	1.255873	0.499996
C23	C	0.129601	0.671850	-0.000003
C24	C	0.629601	1.171850	0.499997
C25	C	0.128826	0.632380	-0.072271
C26	C	0.628826	1.132380	0.427729
C27	C	0.127281	0.553433	-0.072272
C28	C	0.627281	1.053433	0.427728
C29	C	0.126517	0.513957	-0.000004
C30	C	0.626517	1.013957	0.499996
C31	C	0.127289	0.553434	0.072270
C32	C	0.627289	1.053434	0.572270
C33	C	0.128827	0.632380	0.072270
C34	C	0.628827	1.132380	0.572270
C35	C	0.121082	0.235053	0.072271
C36	C	0.621082	0.735053	0.572271
C37	C	0.119547	0.156100	0.072265
C38	C	0.619547	0.656100	0.572265
C39	C	0.119536	0.156105	-0.072271
C40	C	0.619536	0.656105	0.427729
C41	C	0.121075	0.235052	-0.072271
C42	C	0.621075	0.735052	0.427729
C43	C	0.121842	0.274522	0.000002
C44	C	0.621842	0.774522	0.500002
C45	C	0.123515	0.360125	0.000002
C46	C	0.623515	0.860125	0.500002
C47	C	0.124850	0.428354	-0.000003
C48	C	0.624850	0.928354	0.499997
C49	C	-0.044438	0.899537	-0.000014
C50	C	0.455562	1.399537	0.499986
C51	C	-0.146812	0.897905	-0.000015
C52	C	0.353188	1.397905	0.499985
C53	C	-0.521682	0.891898	0.000006
C54	C	-0.021682	1.391898	0.500006
C55	C	-0.417381	0.893566	0.000000
C56	C	0.082619	1.393566	0.500000
C57	C	-0.334250	0.894902	-0.000005
C58	C	0.165750	1.394902	0.499995
C59	C	-0.229943	0.896570	-0.000010
C60	C	0.270057	1.396570	0.499990
C61	C	0.292804	0.888942	0.000002
C62	C	0.792804	1.388942	0.500002
C63	C	0.395178	0.890574	0.000008
C64	C	0.895178	1.390574	0.500008
C65	C	0.117137	1.032606	-0.000008
C66	C	0.617137	1.532606	0.499992
C67	C	0.118766	1.116629	-0.000004
C68	C	0.618766	1.616629	0.499996
N69	N	0.124196	0.894243	0.206542
N70	N	0.624196	1.394243	0.706542
N71	N	0.124163	0.894242	-0.206556
N72	N	0.624163	1.394242	0.293444
C73	C	0.061507	0.945708	0.248255
C74	C	0.561507	1.445708	0.748255
C75	C	0.061505	0.945711	0.331707
C76	C	0.561505	1.445711	0.831707
C77	C	0.124188	0.894245	0.373445
C78	C	0.624188	1.394245	0.873445
C79	C	0.186883	0.842777	0.331726
C80	C	0.686883	1.342777	0.831726
C81	C	0.186889	0.842779	0.248275
C82	C	0.686889	1.342779	0.748275
C83	C	0.186861	0.842772	0.668273
C84	C	0.686861	1.342772	1.168273
C85	C	0.186848	0.842773	0.751730
C86	C	0.686848	1.342773	1.251730
C87	C	0.061476	0.945704	0.751705
C88	C	0.561476	1.445704	1.251705
C89	C	0.061482	0.945705	0.668254
C90	C	0.561482	1.445705	1.168254
C91	C	0.124181	0.894241	0.626543
C92	C	0.624181	1.394241	1.126543
C93	C	0.124184	0.894239	0.536054
C94	C	0.624184	1.394239	1.036054
C95	C	0.124181	0.894242	0.463932
C96	C	0.624181	1.394242	0.963932
H97	H	0.126660	0.521287	0.131112
H98	H	0.626660	1.021287	0.631112
C99	C	-0.062461	1.047449	0.743297
C100	C	0.437539	1.547449	1.243297
C101	C	-0.007440	1.002282	0.797556
C102	C	0.492560	1.502282	1.297556
H103	H	-0.105011	1.082372	0.771603
H104	H	0.394989	1.582372	1.271603
H105	H	-0.024043	1.074657	0.710757
H106	H	0.475957	1.574657	1.210757
H107	H	-0.095658	1.015949	0.710740
H108	H	0.404342	1.515949	1.210740
H109	H	0.025761	1.033781	0.830109
H110	H	0.525761	1.533781	1.330109
H111	H	-0.045864	0.975072	0.830109
H112	H	0.454136	1.475072	1.330109
H113	H	0.010459	0.987618	0.365669
H114	H	0.510459	1.487618	0.865669
H115	H	0.118924	0.123962	0.131118
H116	H	0.618924	0.623962	0.631118
C117	C	0.200813	0.250940	0.195476
C118	C	0.700813	0.750940	0.695476
C119	C	0.121932	0.278429	0.151714
C120	C	0.621932	0.778429	0.651714
H121	H	0.201338	0.277725	0.244521
H122	H	0.701338	0.777725	0.744521
H123	H	0.199783	0.198279	0.205809
H124	H	0.699783	0.698279	0.705809
H125	H	0.254814	0.258188	0.165779
H126	H	0.754814	0.758188	0.665779
H127	H	0.067931	0.271176	0.181409
H128	H	0.567931	0.771176	0.681409
H129	H	0.122953	0.331102	0.141383
H130	H	0.622953	0.831102	0.641383
H131	H	0.010437	0.987611	0.634274
H132	H	0.510437	1.487611	1.134274
C133	C	0.312426	0.826327	0.154457
C134	C	0.812426	1.326327	0.654457
C135	C	0.255799	0.786205	0.202424
C136	C	0.755799	1.286205	0.702424
H137	H	0.354975	0.791400	0.126156
H138	H	0.854975	1.291400	0.626156
H139	H	0.275097	0.856971	0.117660
H140	H	0.775097	1.356971	0.617660
H141	H	0.345623	0.857814	0.187029
H142	H	0.845623	1.357814	0.687029
H143	H	0.222597	0.754723	0.169851
H144	H	0.722597	1.254723	0.669851
H145	H	0.293133	0.755548	0.239225
H146	H	0.793133	1.255548	0.739225
H147	H	0.237896	0.800861	0.785711
H148	H	0.737896	1.300861	1.285711
C149	C	0.206816	0.739789	0.574437
C150	C	0.706816	1.239789	1.074437
C151	C	0.255772	0.786196	0.622433
C152	C	0.755772	1.286196	1.122433
H153	H	0.249362	0.704862	0.546133
H154	H	0.749362	1.204862	1.046133
H155	H	0.168399	0.712585	0.606983
H156	H	0.668399	1.212585	1.106983
H157	H	0.169495	0.770447	0.537635
H158	H	0.669495	1.270447	1.037635
H159	H	0.293088	0.755538	0.659239
H160	H	0.793088	1.255538	1.159239
H161	H	0.294205	0.813402	0.589883
H162	H	0.794205	1.313402	1.089883
C163	C	0.312397	0.826324	0.425604
C164	C	0.812397	1.326324	0.925604
C165	C	0.255785	0.786204	0.377605
C166	C	0.755785	1.286204	0.877605
H167	H	0.354929	0.791394	0.453930
H168	H	0.854929	1.291394	0.953930
H169	H	0.345605	0.857805	0.393058
H170	H	0.845605	1.357805	0.893058
H171	H	0.275050	0.856972	0.462387
H172	H	0.775050	1.356972	0.962387
H173	H	0.293132	0.755560	0.340818
H174	H	0.793132	1.255560	0.840818
H175	H	0.222574	0.754710	0.410154
H176	H	0.722574	1.254710	0.910154
C177	C	0.128649	0.624448	-0.215144
C178	C	0.628649	1.124448	0.284856
C179	C	0.129661	0.675768	-0.151712
C180	C	0.629661	1.175768	0.348288
H181	H	0.129156	0.651235	-0.264188
H182	H	0.629156	1.151235	0.235812
H183	H	0.181805	0.587957	-0.212137
H184	H	0.681805	1.087957	0.287863
H185	H	0.074288	0.599356	-0.212131
H186	H	0.574288	1.099356	0.287869
H187	H	0.184026	0.700856	-0.154722
H188	H	0.684026	1.200856	0.345278
H189	H	0.076500	0.712272	-0.154721
H190	H	0.576500	1.212272	0.345279
C191	C	0.123428	0.356072	-0.136448
C192	C	0.623428	0.856072	0.363552
C193	C	0.121912	0.278443	-0.151710
C194	C	0.621912	0.778443	0.348290
H195	H	0.123947	0.382858	-0.185492
H196	H	0.623947	0.882858	0.314508
H197	H	0.069929	0.374705	-0.106759
H198	H	0.569929	0.874705	0.393241
H199	H	0.177446	0.363300	-0.106752
H200	H	0.677446	0.863300	0.393248
H201	H	0.067890	0.271215	-0.181401
H202	H	0.567890	0.771215	0.318599
H203	H	0.175416	0.259805	-0.181411
H204	H	0.675416	0.759805	0.318589
C205	C	0.046279	0.473080	-0.156138
C206	C	0.546279	0.973080	0.343862
C207	C	0.126419	0.510055	-0.151716
C208	C	0.626419	1.010055	0.348284
H209	H	0.045741	0.446308	-0.205189
H210	H	0.545741	0.946308	0.294811
H211	H	0.045610	0.438269	-0.113109
H212	H	0.545610	0.938269	0.386891
H213	H	-0.006867	0.509593	-0.153126
H214	H	0.493133	1.009593	0.346874
H215	H	0.179565	0.473541	-0.154722
H216	H	0.679565	0.973541	0.345278
H217	H	0.127097	0.544869	-0.194757
H218	H	0.627097	1.044869	0.305243
H219	H	0.118908	0.123960	-0.131120
H220	H	0.618908	0.623960	0.368880
C221	C	0.131184	0.753400	0.136449
C222	C	0.631184	1.253400	0.636449
C223	C	0.129679	0.675770	0.151709
C224	C	0.629679	1.175770	0.651709
H225	H	0.131701	0.780186	0.185494
H226	H	0.631701	1.280186	0.685494
H227	H	0.185190	0.760633	0.106766
H228	H	0.685190	1.260633	0.606766
H229	H	0.077673	0.772031	0.106749
H230	H	0.577673	1.272031	0.606749
H231	H	0.183194	0.657138	0.181405
H232	H	0.683194	1.157138	0.681405
H233	H	0.075668	0.668533	0.181405
H234	H	0.575668	1.168533	0.681405
C235	C	-0.062423	1.047454	0.256621
C236	C	0.437577	1.547454	0.756621
C237	C	-0.007401	1.002280	0.202381
C238	C	0.492599	1.502280	0.702381
H239	H	-0.104961	1.082382	0.228301
H240	H	0.395039	1.582382	0.728301
H241	H	-0.095625	1.015964	0.289163
H242	H	0.404375	1.515964	0.789163
H243	H	-0.023998	1.074661	0.289178
H244	H	0.476002	1.574661	0.789178
H245	H	-0.045826	0.975068	0.169828
H246	H	0.454174	1.475068	0.669828
H247	H	0.025803	1.033774	0.169826
H248	H	0.525803	1.533774	0.669826
