data_functionalizedCrystal
_audit_creation_method	'MofGen! by Chris Wilmer'
_symmetry_space_group_name_H-M	'P1'
_symmetry_Int_Tables_number	1
_symmetry_cell_setting	triclinic
loop_
_symmetry_equiv_pos_as_xyz
  x,y,z
_cell_length_a	10.723024
_cell_length_b	10.723024
_cell_length_c	9.198806
_cell_angle_alpha	89.997988
_cell_angle_beta	89.996352
_cell_angle_gamma	84.467869
loop_
_atom_site_label
_atom_site_type_symbol
_atom_site_fract_x
_atom_site_fract_y
_atom_site_fract_z
O1	O	1.657188	0.175024	-0.120879
O2	O	2.157188	0.675024	0.379121
O3	O	1.294035	0.191778	-0.120884
O4	O	1.794035	0.691778	0.379116
O5	O	1.483988	0.001825	-0.120876
O6	O	1.983988	0.501825	0.379124
O7	O	1.467235	0.364977	-0.120887
O8	O	1.967235	0.864977	0.379113
O9	O	1.483973	0.001824	0.120909
O10	O	1.983973	0.501824	0.620909
O11	O	1.294020	0.191777	0.120901
O12	O	1.794020	0.691777	0.620901
O13	O	1.657173	0.175024	0.120906
O14	O	2.157173	0.675024	0.620906
Cu15	Cu	1.475595	0.183401	0.142981
Cu16	Cu	1.975595	0.683401	0.642981
Cu17	Cu	1.475613	0.183401	-0.142958
Cu18	Cu	1.975613	0.683401	0.357042
O19	O	1.467220	0.364977	0.120898
O20	O	1.967220	0.864977	0.620898
C21	C	1.247528	0.190558	0.000008
C22	C	1.747528	0.690558	0.500008
C23	C	1.108974	0.186911	0.000007
C24	C	1.608974	0.686911	0.500007
C25	C	1.033991	0.293198	0.000002
C26	C	1.533991	0.793198	0.500002
C27	C	0.890788	0.289431	0.000001
C28	C	1.390788	0.789431	0.500001
C29	C	1.482762	-0.044675	0.000015
C30	C	1.982762	0.455325	0.500015
C31	C	1.479114	-0.183229	0.000010
C32	C	1.979114	0.316771	0.500010
C33	C	1.585401	-0.258212	0.000009
C34	C	2.085401	0.241788	0.500009
C35	C	1.581634	-0.401415	0.000004
C36	C	2.081634	0.098585	0.500004
C37	C	1.703680	0.176243	0.000011
C38	C	2.203680	0.676243	0.500011
C39	C	1.842234	0.179891	0.000003
C40	C	2.342234	0.679891	0.500003
C41	C	1.468447	0.411477	0.000004
C42	C	1.968447	0.911477	0.500004
C43	C	1.472094	0.550031	-0.000000
C44	C	1.972094	1.050031	0.500000
N45	N	1.475592	0.183399	0.344095
N46	N	1.975592	0.683399	0.844095
N47	N	1.475626	0.183393	-0.344072
N48	N	1.975626	0.683393	0.155928
C49	C	1.555347	0.103292	0.416295
C50	C	2.055347	0.603292	0.916295
C51	C	1.555367	0.103288	0.583707
C52	C	2.055367	0.603288	1.083707
H53	H	0.906659	0.088896	-0.000003
H54	H	1.406659	0.588896	0.499997
Cl55	Cl	0.791315	0.429921	-0.000016
Cl56	Cl	1.291315	0.929921	0.499984
H57	H	1.407319	0.251975	0.406220
H58	H	1.907319	0.751975	0.906220
H59	H	1.623653	0.034709	0.645796
H60	H	2.123653	0.534709	1.145796
H61	H	1.067152	0.093125	-0.000028
H62	H	1.567152	0.593125	0.499972
Cl63	Cl	1.098550	0.438004	0.000002
Cl64	Cl	1.598550	0.938004	0.500002
H65	H	1.679187	-0.216390	0.000019
H66	H	2.179187	0.283610	0.500019
H67	H	1.407345	0.251984	0.593848
H68	H	1.907345	0.751984	1.093848
Cl69	Cl	1.331599	-0.350504	0.000012
Cl70	Cl	1.831599	0.149496	0.500012
H71	H	1.672624	-0.465848	0.000010
H72	H	2.172624	0.034152	0.500010
H73	H	1.623611	0.034707	0.354171
H74	H	2.123611	0.534707	0.854171
Cl75	Cl	1.334308	-0.247788	-0.000007
Cl76	Cl	1.834308	0.252212	0.499993
