data_functionalizedCrystal
_audit_creation_method	'MofGen! by Chris Wilmer'
_symmetry_space_group_name_H-M	'P1'
_symmetry_Int_Tables_number	1
_symmetry_cell_setting	triclinic
loop_
_symmetry_equiv_pos_as_xyz
  x,y,z
_cell_length_a	19.077260
_cell_length_b	19.077236
_cell_length_c	19.077271
_cell_angle_alpha	90.102669
_cell_angle_beta	94.499739
_cell_angle_gamma	85.317177
loop_
_atom_site_label
_atom_site_type_symbol
_atom_site_fract_x
_atom_site_fract_y
_atom_site_fract_z
Zn1	Zn	0.256430	1.047611	0.450455
Zn2	Zn	0.589763	1.380944	0.783789
Zn3	Zn	0.923096	1.714277	1.117122
Zn4	Zn	0.369553	1.047597	0.337325
Zn5	Zn	0.702886	1.380930	0.670658
Zn6	Zn	1.036219	1.714263	1.003991
Zn7	Zn	0.256026	0.934866	0.328221
Zn8	Zn	0.589360	1.268199	0.661554
Zn9	Zn	0.922693	1.601532	0.994888
Zn10	Zn	0.379003	0.925005	0.450427
Zn11	Zn	0.712336	1.258338	0.783761
Zn12	Zn	1.045670	1.591671	1.117094
O13	O	0.315253	0.988769	0.391607
O14	O	0.648586	1.322103	0.724940
O15	O	0.981920	1.655436	1.058274
O16	O	0.267649	1.146098	0.439270
O17	O	0.600983	1.479432	0.772603
O18	O	0.934316	1.812765	1.105937
O19	O	0.350369	1.036764	0.237628
O20	O	0.683702	1.370097	0.570961
O21	O	1.017036	1.703431	0.904294
O22	O	0.157271	0.953954	0.340637
O23	O	0.490605	1.287287	0.673971
O24	O	0.823938	1.620621	1.007304
O25	O	0.350760	1.146088	0.356153
O26	O	0.684094	1.479421	0.689487
O27	O	1.017427	1.812755	1.022820
O28	O	0.157568	1.036787	0.430443
O29	O	0.490901	1.370121	0.763776
O30	O	0.824234	1.703454	1.097109
O31	O	0.266962	0.953941	0.230939
O32	O	0.600295	1.287274	0.564272
O33	O	0.933629	1.620607	0.897606
O34	O	0.276126	0.835068	0.340610
O35	O	0.609459	1.168401	0.673943
O36	O	0.942792	1.501735	1.007277
O37	O	0.366867	0.937147	0.548921
O38	O	0.700201	1.270481	0.882254
O39	O	1.033534	1.603814	1.215587
O40	O	0.366476	0.827823	0.430395
O41	O	0.699810	1.161157	0.763728
O42	O	1.033143	1.494490	1.097061
O43	O	0.276813	1.027226	0.548941
O44	O	0.610147	1.360559	0.882275
O45	O	0.943480	1.693892	1.215608
O46	O	0.469615	1.027202	0.356126
O47	O	0.802948	1.360535	0.689460
O48	O	1.136281	1.693869	1.022793
O49	O	0.476558	0.937134	0.439222
O50	O	0.809891	1.270467	0.772556
O51	O	1.143225	1.603801	1.105889
C52	C	0.322283	0.805908	0.384512
C53	C	0.655617	1.139242	0.717845
C54	C	0.988950	1.472575	1.051179
C55	C	0.325309	0.727678	0.381494
C56	C	0.658642	1.061011	0.714827
C57	C	0.991975	1.394345	1.048161
C58	C	0.131083	0.996472	0.384528
C59	C	0.464416	1.329806	0.717861
C60	C	0.797750	1.663139	1.051194
C61	C	0.052601	0.999755	0.381511
C62	C	0.385934	1.333088	0.714844
C63	C	0.719268	1.666422	1.048177
C64	C	0.283533	0.690926	0.423422
C65	C	0.616866	1.024259	0.756755
C66	C	0.950200	1.357592	1.090089
C67	C	0.286372	0.617420	0.420580
C68	C	0.619705	0.950754	0.753913
C69	C	0.953039	1.284087	1.087247
C70	C	0.330991	0.580669	0.375813
C71	C	0.664324	0.914002	0.709147
C72	C	0.997657	1.247336	1.042480
C73	C	0.372768	0.617427	0.333881
C74	C	0.706101	0.950760	0.667214
C75	C	1.039434	1.284093	1.000547
C76	C	0.369925	0.690931	0.336719
C77	C	0.703258	1.024264	0.670053
C78	C	1.036591	1.357598	1.003386
C79	C	0.344122	0.360835	0.362672
C80	C	0.677456	0.694169	0.696005
C81	C	1.010789	1.027502	1.029339
C82	C	0.346964	0.287326	0.359838
C83	C	0.680297	0.620659	0.693171
C84	C	1.013631	0.953993	1.026505
C85	C	0.260567	0.287325	0.446537
C86	C	0.593900	0.620658	0.779870
C87	C	0.927233	0.953991	1.113203
C88	C	0.257731	0.360830	0.449375
C89	C	0.591064	0.694163	0.782708
C90	C	0.924397	1.027497	1.116041
C91	C	0.299505	0.397582	0.407439
C92	C	0.632838	0.730915	0.740773
C93	C	0.966172	1.064248	1.074106
N94	N	0.333895	0.505535	0.372909
N95	N	0.667228	0.838868	0.706242
N96	N	1.000562	1.172201	1.039576
N97	N	0.296596	0.472715	0.410340
N98	N	0.629930	0.806048	0.743674
N99	N	0.963263	1.139381	1.077007
C100	C	0.019347	0.954402	0.423354
C101	C	0.352680	1.287736	0.756688
C102	C	0.686013	1.621069	1.090021
C103	C	-0.054396	0.957489	0.420521
C104	C	0.278938	1.290822	0.753854
C105	C	0.612271	1.624155	1.087187
C106	C	-0.094883	1.005924	0.375840
C107	C	0.238451	1.339258	0.709173
C108	C	0.571784	1.672591	1.042506
C109	C	-0.061623	1.051282	0.333994
C110	C	0.271710	1.384615	0.667328
C111	C	0.605043	1.717948	1.000661
C112	C	0.012118	1.048198	0.336832
C113	C	0.345451	1.381532	0.670165
C114	C	0.678784	1.714865	1.003499
C115	C	-0.315813	1.020178	0.362717
C116	C	0.017520	1.353511	0.696051
C117	C	0.350854	1.686844	1.029384
C118	C	-0.389559	1.023256	0.359881
C119	C	-0.056226	1.356589	0.693215
C120	C	0.277108	1.689923	1.026548
C121	C	-0.382326	0.929464	0.446409
C122	C	-0.048993	1.262797	0.779742
C123	C	0.284341	1.596130	1.113076
C124	C	-0.308584	0.926382	0.449240
C125	C	0.024749	1.259715	0.782573
C126	C	0.358083	1.593048	1.115906
C127	C	-0.275331	0.971741	0.407397
C128	C	0.058002	1.305075	0.740731
C129	C	0.391335	1.638408	1.074064
N130	N	-0.170259	1.009079	0.372941
N131	N	0.163074	1.342412	0.706274
N132	N	0.496407	1.675745	1.039607
N133	N	-0.199956	0.968590	0.410300
N134	N	0.133378	1.301923	0.743634
N135	N	0.466711	1.635257	1.076967
C136	C	0.498706	0.981115	0.398675
C137	C	0.832040	1.314448	0.732009
C138	C	1.165373	1.647782	1.065342
C139	C	0.577187	0.977904	0.401725
C140	C	0.910520	1.311237	0.735058
C141	C	1.243854	1.644570	1.068392
C142	C	0.322939	0.981088	0.575182
C143	C	0.656273	1.314421	0.908516
C144	C	0.989606	1.647755	1.241849
C145	C	0.326215	0.977815	0.653411
C146	C	0.659548	1.311148	0.986744
C147	C	0.992882	1.644481	1.320078
C148	C	0.308196	1.172344	0.398730
C149	C	0.641529	1.505678	0.732064
C150	C	0.974862	1.839011	1.065397
C151	C	0.305188	1.250573	0.401766
C152	C	0.638522	1.583907	0.735099
C153	C	0.971855	1.917240	1.068433
C154	C	0.280870	1.023173	0.690175
C155	C	0.614203	1.356507	1.023508
C156	C	0.947536	1.689840	1.356841
C157	C	0.283945	1.020089	0.763679
C158	C	0.617278	1.353423	1.097012
C159	C	0.950612	1.686756	1.430345
C160	C	0.332370	0.971650	0.800417
C161	C	0.665703	1.304983	1.133751
C162	C	0.999036	1.638316	1.467084
C163	C	0.377717	0.926286	0.763648
C164	C	0.711050	1.259619	1.096982
C165	C	1.044384	1.592953	1.430315
C166	C	0.374638	0.929367	0.690146
C167	C	0.707971	1.262701	1.023479
C168	C	1.041304	1.596034	1.356812
C169	C	0.346604	0.957402	1.020246
C170	C	0.679937	1.290736	1.353579
C171	C	1.013270	1.624069	1.686912
C172	C	0.349681	0.954326	1.093754
C173	C	0.683014	1.287659	1.427087
C174	C	1.016348	1.620993	1.760420
C175	C	0.255908	1.048129	1.093779
C176	C	0.589241	1.381462	1.427112
C177	C	0.922574	1.714795	1.760445
C178	C	0.252836	1.051209	1.020275
C179	C	0.586169	1.384542	1.353608
C180	C	0.919502	1.717875	1.686942
C181	C	0.298180	1.005843	0.983512
C182	C	0.631514	1.339176	1.316845
C183	C	0.964847	1.672509	1.650179
N184	N	0.335516	0.968497	0.875550
N185	N	0.668849	1.301831	1.208884
N186	N	1.002183	1.635164	1.542217
N187	N	0.295030	1.008992	0.908380
N188	N	0.628363	1.342325	1.241713
N189	N	0.961697	1.675658	1.575047
C190	C	0.307612	0.996414	1.208746
C191	C	0.640945	1.329747	1.542080
C192	C	0.974279	1.663081	1.875413
C193	C	0.304336	0.999685	1.130517
C194	C	0.637669	1.333018	1.463851
C195	C	0.971002	1.666351	1.797184
H196	H	0.247202	0.720843	0.459878
H197	H	0.580535	1.054177	0.793211
H198	H	0.913868	1.387510	1.126545
C199	C	0.396484	0.907508	0.979813
C200	C	0.729818	1.240841	1.313146
C201	C	1.063151	1.574175	1.646479
H202	H	0.387713	0.916272	0.930775
H203	H	0.721047	1.249605	1.264108
H204	H	1.054380	1.582939	1.597441
H205	H	0.444034	0.915320	0.994083
H206	H	0.777367	1.248653	1.327416
H207	H	1.110701	1.581986	1.660749
H208	H	0.388469	0.860145	0.989626
H209	H	0.721802	1.193478	1.322959
H210	H	1.055135	1.526812	1.656293
C211	C	0.430984	0.873002	0.804056
C212	C	0.764318	1.206335	1.137389
C213	C	1.097651	1.539669	1.470722
H214	H	0.457545	0.846425	0.771631
H215	H	0.790879	1.179758	1.104964
H216	H	1.124212	1.513092	1.438297
H217	H	0.461916	0.897436	0.834957
H218	H	0.795250	1.230769	1.168291
H219	H	1.128583	1.564102	1.501624
H220	H	0.406350	0.842262	0.830499
H221	H	0.739684	1.175595	1.163832
H222	H	1.073017	1.508928	1.497165
H223	H	0.389116	0.914878	1.123664
H224	H	0.722449	1.248211	1.456998
H225	H	1.055783	1.581545	1.790331
H226	H	0.221400	0.390748	0.485831
H227	H	0.554733	0.724081	0.819164
H228	H	0.888067	1.057415	1.152498
H229	H	0.378139	0.390750	0.328526
H230	H	0.711472	0.724083	0.661859
H231	H	1.044805	1.057416	0.995192
H232	H	0.403942	0.720854	0.302576
H233	H	0.737276	1.054187	0.635910
H234	H	1.070609	1.387521	0.969243
H235	H	0.383301	0.257405	0.323383
H236	H	0.716635	0.590738	0.656716
H237	H	1.049968	0.924071	0.990050
H238	H	0.241439	1.062621	0.660267
H239	H	0.574772	1.395954	0.993601
H240	H	0.908106	1.729287	1.326934
C241	C	0.234068	1.069987	0.804116
C242	C	0.567402	1.403321	1.137450
C243	C	0.900735	1.736654	1.470783
H244	H	0.204794	1.099284	0.771709
H245	H	0.538128	1.432617	1.105043
H246	H	0.871461	1.765950	1.438376
H247	H	0.205536	1.043153	0.830561
H248	H	0.538869	1.376487	1.163894
H249	H	0.872202	1.709820	1.497227
H250	H	0.261108	1.098322	0.835019
H251	H	0.594441	1.431655	1.168353
H252	H	0.927774	1.764988	1.501686
C253	C	-0.279241	1.070049	0.316671
C254	C	0.054093	1.403382	0.650004
C255	C	0.387426	1.736715	0.983338
H256	H	-0.229524	1.061279	0.324757
H257	H	0.103809	1.394612	0.658090
H258	H	0.437142	1.727946	0.991424
H259	H	-0.292917	1.062216	0.268523
H260	H	0.040417	1.395549	0.601857
H261	H	0.373750	1.728883	0.935190
H262	H	-0.292708	1.117420	0.328330
H263	H	0.040625	1.450753	0.661664
H264	H	0.373958	1.784086	0.994997
C265	C	0.214616	0.246900	0.492660
C266	C	0.547949	0.580233	0.825994
C267	C	0.881282	0.913567	1.159327
H268	H	0.187640	0.279316	0.519731
H269	H	0.520973	0.612649	0.853065
H270	H	0.854306	0.945982	1.186398
H271	H	0.183792	0.220625	0.463496
H272	H	0.517126	0.553959	0.796829
H273	H	0.850459	0.887292	1.130163
H274	H	0.244070	0.215827	0.523221
H275	H	0.577403	0.549160	0.856555
H276	H	0.910737	0.882494	1.189888
C277	C	0.199569	1.104493	0.979867
C278	C	0.532902	1.437826	1.313200
C279	C	0.866235	1.771159	1.646534
H280	H	0.172999	1.131063	1.012290
H281	H	0.506333	1.464396	1.345623
H282	H	0.839666	1.797730	1.678957
H283	H	0.224202	1.135229	0.953425
H284	H	0.557535	1.468562	1.286758
H285	H	0.890868	1.801895	1.620091
H286	H	0.168634	1.080056	0.948964
H287	H	0.501967	1.413390	1.282298
H288	H	0.835300	1.746723	1.615631
C289	C	0.424534	0.879489	0.649707
C290	C	0.757868	1.212823	0.983040
C291	C	1.091201	1.546156	1.316373
H292	H	0.453825	0.850208	0.682114
H293	H	0.787158	1.183541	1.015447
H294	H	1.120491	1.516874	1.348780
H295	H	0.397516	0.851150	0.618795
H296	H	0.730849	1.184484	0.952129
H297	H	1.064183	1.517817	1.285462
H298	H	0.453061	0.906346	0.623271
H299	H	0.786394	1.239679	0.956605
H300	H	1.119727	1.573012	1.289938
H301	H	-0.094592	1.090723	0.297617
H302	H	0.238741	1.424056	0.630950
H303	H	0.572074	1.757389	0.964283
C304	C	0.240420	0.576995	0.466703
C305	C	0.573754	0.910329	0.800036
C306	C	0.907087	1.243662	1.133369
H307	H	0.213447	0.609410	0.493777
H308	H	0.546780	0.942743	0.827110
H309	H	0.880113	1.276077	1.160443
H310	H	0.209595	0.550724	0.437537
H311	H	0.542928	0.884057	0.770871
H312	H	0.876261	1.217391	1.104204
H313	H	0.269874	0.545919	0.497261
H314	H	0.603207	0.879252	0.830594
H315	H	0.936541	1.212586	1.163928
H316	H	0.052306	0.914961	0.459739
H317	H	0.385640	1.248295	0.793073
H318	H	0.718973	1.581628	1.126406
C319	C	0.421848	0.577002	0.284639
C320	C	0.755181	0.910335	0.617972
C321	C	1.088515	1.243669	0.951306
H322	H	0.417565	0.527961	0.288958
H323	H	0.750898	0.861294	0.622292
H324	H	1.084231	1.194628	0.955625
H325	H	0.408998	0.591449	0.237431
H326	H	0.742331	0.924782	0.570764
H327	H	1.075664	1.258116	0.904097
H328	H	0.469270	0.586650	0.297162
H329	H	0.802603	0.919983	0.630495
H330	H	1.135936	1.253316	0.963828
C331	C	-0.090972	0.907593	0.466540
C332	C	0.242361	1.240926	0.799873
C333	C	0.575694	1.574259	1.133206
H334	H	-0.056299	0.878297	0.493548
H335	H	0.277035	1.211630	0.826881
H336	H	0.610368	1.544963	1.160214
H337	H	-0.119493	0.934426	0.497148
H338	H	0.213840	1.267759	0.830481
H339	H	0.547173	1.601093	1.163815
H340	H	-0.119683	0.879258	0.437308
H341	H	0.213650	1.212591	0.770642
H342	H	0.546984	1.545924	1.103975
H343	H	-0.275624	0.886932	0.485615
H344	H	0.057709	1.220266	0.818949
H345	H	0.391043	1.553599	1.152282
C346	C	0.048697	1.098083	0.290801
C347	C	0.382031	1.431416	0.624134
C348	C	0.715364	1.764750	0.957468
H349	H	0.014025	1.127367	0.263779
H350	H	0.347358	1.460700	0.597112
H351	H	0.680691	1.794034	0.930446
H352	H	0.077411	1.126419	0.320020
H353	H	0.410745	1.459753	0.653354
H354	H	0.744078	1.793086	0.986687
H355	H	0.077215	1.071236	0.260195
H356	H	0.410549	1.404569	0.593528
H357	H	0.743882	1.737902	0.926861
H358	H	-0.409407	0.892535	0.480476
H359	H	-0.076074	1.225868	0.813810
H360	H	0.257259	1.559201	1.147143
H361	H	0.218990	1.085062	1.123719
H362	H	0.552323	1.418396	1.457052
H363	H	0.885656	1.751729	1.790386
H364	H	-0.422521	1.062701	0.323494
H365	H	-0.089187	1.396034	0.656827
H366	H	0.244146	1.729367	0.990160
