data_functionalizedCrystal
_audit_creation_method	'MofGen! by Chris Wilmer'
_symmetry_space_group_name_H-M	'P1'
_symmetry_Int_Tables_number	1
_symmetry_cell_setting	triclinic
loop_
_symmetry_equiv_pos_as_xyz
  x,y,z
_cell_length_a	23.532407
_cell_length_b	23.532407
_cell_length_c	8.140239
_cell_angle_alpha	90.008156
_cell_angle_beta	89.997376
_cell_angle_gamma	82.848678
loop_
_atom_site_label
_atom_site_type_symbol
_atom_site_fract_x
_atom_site_fract_y
_atom_site_fract_z
O1	O	0.755258	0.069134	0.136425
O2	O	0.589395	0.079137	0.136476
O3	O	0.677328	-0.008796	0.136419
O4	O	0.667325	0.157067	0.136482
O5	O	0.677323	-0.008797	-0.136808
O6	O	0.589390	0.079136	-0.136752
O7	O	0.755253	0.069133	-0.136802
Zn8	Zn	0.672321	0.074134	-0.180158
Zn9	Zn	0.672327	0.074136	0.179831
O10	O	0.667320	0.157066	-0.136745
C11	C	0.568176	0.078882	-0.000132
C12	C	0.504959	0.078116	-0.000114
C13	C	0.677071	-0.030013	-0.000199
C14	C	0.676305	-0.093230	-0.000211
C15	C	0.105856	0.125350	-0.000170
C16	C	0.046456	0.124638	-0.000181
O17	O	0.009711	0.168424	-0.000224
N18	N	0.023830	0.072362	-0.000198
C19	C	0.060607	0.020794	-0.000221
O20	O	0.035908	-0.023737	-0.000239
C21	C	0.120006	0.021506	-0.000223
C22	C	0.142629	0.073785	-0.000189
C23	C	0.128479	0.177625	-0.000138
C24	C	0.187876	0.178336	-0.000125
C25	C	0.224649	0.126772	-0.000144
C26	C	0.202025	0.074496	-0.000176
C27	C	0.156783	-0.030062	-0.000258
C28	C	0.216185	-0.029345	-0.000261
C29	C	0.238808	0.022934	-0.000227
C30	C	0.298194	0.023643	-0.000181
N31	N	0.320820	0.075920	-0.000164
C32	C	0.284048	0.127484	-0.000145
C33	C	-0.064135	0.019302	-0.000221
C34	C	-0.123533	0.018589	-0.000208
C35	C	-0.137680	0.122434	-0.000170
C36	C	-0.078281	0.123146	-0.000172
C37	C	-0.041509	0.071578	-0.000204
C38	C	0.408784	0.128974	-0.000116
C39	C	0.468186	0.129680	-0.000095
C40	C	0.482329	0.025836	-0.000142
C41	C	0.422932	0.025129	-0.000153
C42	C	0.386160	0.076702	-0.000146
O43	O	0.334974	-0.020119	-0.000145
O44	O	0.308755	0.172007	-0.000150
C45	C	0.723539	-0.492333	-0.000136
C46	C	0.722827	-0.551733	-0.000123
O47	O	0.766613	-0.588478	-0.000076
N48	N	0.670551	-0.574359	-0.000108
C49	C	0.618983	-0.537582	-0.000090
O50	O	0.574452	-0.562281	-0.000074
C51	C	0.619695	-0.478182	-0.000091
C52	C	0.671974	-0.455560	-0.000122
C53	C	0.775814	-0.469710	-0.000165
C54	C	0.776525	-0.410313	-0.000181
C55	C	0.724961	-0.373540	-0.000167
C56	C	0.672685	-0.396164	-0.000138
C57	C	0.568127	-0.441406	-0.000060
C58	C	0.568844	-0.382004	-0.000060
C59	C	0.621123	-0.359381	-0.000091
C60	C	0.621832	-0.299995	-0.000140
N61	N	0.674109	-0.277368	-0.000154
C62	C	0.725673	-0.314141	-0.000168
C63	C	0.617491	-0.662324	-0.000085
C64	C	0.616778	-0.721722	-0.000096
C65	C	0.720623	-0.735869	-0.000126
C66	C	0.721335	-0.676470	-0.000127
C67	C	0.669767	-0.639698	-0.000100
C68	C	0.727163	-0.189405	-0.000203
C69	C	0.727869	-0.130003	-0.000225
C70	C	0.624025	-0.115860	-0.000186
C71	C	0.623318	-0.175257	-0.000172
C72	C	0.674891	-0.212029	-0.000175
O73	O	0.578070	-0.263215	-0.000180
O74	O	0.770196	-0.289433	-0.000162
C75	C	0.776472	0.069388	-0.000191
C76	C	0.839689	0.070154	-0.000198
C77	C	0.667577	0.178283	-0.000124
C78	C	0.668343	0.241500	-0.000101
N79	N	0.672321	0.074133	-0.425840
N80	N	0.672332	0.074132	0.425514
H81	H	0.486602	0.172255	-0.000067
H82	H	0.769159	-0.219337	-0.000199
O83	O	0.398530	-0.031258	-0.000179
H84	H	0.371812	-0.034063	-0.111553
O85	O	-0.147932	-0.037797	-0.000241
H86	H	-0.112376	-0.073530	-0.000268
O87	O	0.568412	-0.076190	-0.000166
H88	H	0.543374	-0.084197	-0.111521
H89	H	0.819097	-0.391900	-0.000200
H90	H	0.206289	0.220908	-0.000097
H91	H	0.762610	-0.765821	-0.000131
O92	O	0.255847	-0.084967	-0.000307
H93	H	0.283249	-0.087131	0.111050
H94	H	0.817806	-0.499645	-0.000171
H95	H	0.770443	-0.111587	-0.000255
H96	H	0.098544	0.219617	-0.000129
H97	H	0.575496	-0.632386	-0.000077
O98	O	0.777721	-0.652071	-0.000130
H99	H	0.813454	-0.687626	-0.000126
H100	H	0.580748	-0.193677	-0.000192
O101	O	-0.024473	-0.036321	-0.000232
H102	H	-0.050191	-0.072787	-0.000230
H103	H	0.138375	-0.072634	-0.000287
O104	O	0.560392	-0.746121	-0.000083
H105	H	0.524659	-0.710565	-0.000067
H106	H	0.525555	-0.459814	-0.000024
H107	H	0.526850	-0.352066	-0.000035
O108	O	0.521999	-0.029777	-0.000187
H109	H	0.549404	-0.031937	0.111163
O110	O	0.369128	0.184597	-0.000093
H111	H	0.394847	0.221063	-0.000053
H112	H	-0.059867	0.165717	-0.000154
O113	O	-0.177348	0.178054	-0.000178
H114	H	-0.222451	0.168771	-0.000206
