data_functionalizedCrystal
_audit_creation_method	'MofGen! by Chris Wilmer'
_symmetry_space_group_name_H-M	'P1'
_symmetry_Int_Tables_number	1
_symmetry_cell_setting	triclinic
loop_
_symmetry_equiv_pos_as_xyz
  x,y,z
_cell_length_a	12.784890
_cell_length_b	12.811415
_cell_length_c	8.140239
_cell_angle_alpha	84.565620
_cell_angle_beta	89.998296
_cell_angle_gamma	78.600226
loop_
_atom_site_label
_atom_site_type_symbol
_atom_site_fract_x
_atom_site_fract_y
_atom_site_fract_z
O1	O	1.410345	0.006562	-0.137541
O2	O	1.101088	0.051496	-0.144248
O3	O	1.263497	-0.124473	-0.118018
O4	O	1.247936	0.182532	-0.163770
O5	O	1.263488	-0.124474	0.155209
O6	O	1.101079	0.051495	0.128979
O7	O	1.410336	0.006561	0.135687
Zn8	Zn	1.255706	0.029028	0.175714
Zn9	Zn	1.255718	0.029029	-0.184275
O10	O	1.247927	0.182531	0.109457
C11	C	1.061497	0.054418	-0.008071
C12	C	0.943541	0.063114	-0.009372
C13	C	0.765047	0.172093	-0.025615
C14	C	0.875876	0.163930	-0.024399
C15	C	0.900371	-0.029545	0.004434
C16	C	0.789542	-0.021382	0.003218
C17	C	0.721884	0.079441	-0.011805
C18	C	0.611053	0.087603	-0.013010
C19	C	0.635550	-0.105871	0.015811
C20	C	0.746379	-0.114034	0.017028
C21	C	1.262620	-0.163498	0.024408
C22	C	1.260009	-0.279778	0.041726
C23	C	1.255093	-0.498266	-0.223638
C24	C	1.252639	-0.607521	-0.207374
C25	C	1.252641	-0.607544	0.090517
C26	C	1.255094	-0.498289	0.074253
C27	C	1.256322	-0.443654	-0.082830
C28	C	1.258783	-0.334398	-0.099092
C29	C	1.258777	-0.334422	0.198797
C30	C	1.256323	-0.443677	0.215061
C31	C	1.449927	0.003639	-0.000493
C32	C	1.567883	-0.005056	0.000796
C33	C	1.248804	0.221556	-0.032973
C34	C	1.251415	0.337836	-0.050302
N35	N	1.255706	0.029026	0.421397
N36	N	1.255727	0.029023	-0.429957
H37	H	0.955477	-0.111630	0.016652
C38	C	1.251277	-0.667646	0.263291
H39	H	1.252350	-0.619474	0.344829
H40	H	1.312195	-0.723927	0.277866
H41	H	1.188422	-0.696602	0.273776
C42	C	0.690616	0.282987	-0.042124
H43	H	0.618428	0.274578	-0.040858
H44	H	0.703745	0.321406	-0.143122
H45	H	0.703746	0.321386	0.047454
C46	C	1.254972	-0.503776	0.387840
H47	H	1.256049	-0.455598	0.469371
H48	H	1.315895	-0.560052	0.402408
H49	H	1.192121	-0.532737	0.398344
C50	C	1.251290	-0.667596	-0.362257
H51	H	1.249645	-0.740489	-0.330078
H52	H	1.313573	-0.663337	-0.424094
H53	H	1.189799	-0.636032	-0.428145
C54	C	0.536625	0.198499	-0.029537
H55	H	0.464437	0.190094	-0.028269
H56	H	0.549758	0.236907	-0.130543
H57	H	0.549757	0.236907	0.060030
C58	C	0.923352	0.265847	-0.039582
H59	H	0.867181	0.327058	-0.048692
H60	H	0.966081	0.266686	-0.134985
H61	H	0.966073	0.266682	0.055588
H62	H	0.801481	-0.196121	0.029253
H63	H	1.259786	-0.289917	-0.226997
C64	C	1.260120	-0.274345	0.353692
H65	H	1.261750	-0.201449	0.321512
H66	H	1.321598	-0.305907	0.419594
H67	H	1.197824	-0.278600	0.415514
H68	H	0.600396	-0.181315	0.026925
H69	H	1.256102	-0.453783	-0.351540
