data_functionalizedCrystal
_audit_creation_method	'MofGen! by Chris Wilmer'
_symmetry_space_group_name_H-M	'P1'
_symmetry_Int_Tables_number	1
_symmetry_cell_setting	triclinic
loop_
_symmetry_equiv_pos_as_xyz
  x,y,z
_cell_length_a	9.065218
_cell_length_b	10.268362
_cell_length_c	9.065215
_cell_angle_alpha	90.004315
_cell_angle_beta	85.015291
_cell_angle_gamma	90.004643
loop_
_atom_site_label
_atom_site_type_symbol
_atom_site_fract_x
_atom_site_fract_y
_atom_site_fract_z
O1	O	1.960399	0.108301	0.216358
O2	O	1.531114	0.108302	0.234105
O3	O	1.754632	0.108296	0.010589
O4	O	1.736881	0.108307	0.439874
O5	O	1.754613	-0.108305	0.010579
O6	O	1.531095	-0.108298	0.234095
O7	O	1.960380	-0.108300	0.216349
Cu8	Cu	1.745735	-0.128076	0.225221
Cu9	Cu	1.745759	0.128079	0.225232
O10	O	1.736862	-0.108294	0.439865
C11	C	1.476118	0.000002	0.232394
C12	C	1.312275	0.000003	0.227295
N13	N	1.745730	-0.308242	0.225212
C14	C	1.745751	-0.573913	0.225229
C15	C	1.745734	-0.426075	0.225224
C16	C	2.015376	0.000003	0.218059
C17	C	2.179219	0.000011	0.223159
C18	C	1.752917	-0.000003	-0.044403
C19	C	1.747819	0.000001	-0.208246
N20	N	1.745776	0.308245	0.225230
C21	C	1.738576	0.000008	0.494856
C22	C	1.743674	0.000013	0.658699
