data_functionalizedCrystal
_audit_creation_method	'MofGen! by Chris Wilmer'
_symmetry_space_group_name_H-M	'P1'
_symmetry_Int_Tables_number	1
_symmetry_cell_setting	triclinic
loop_
_symmetry_equiv_pos_as_xyz
  x,y,z
_cell_length_a	23.204063
_cell_length_b	23.204065
_cell_length_c	23.204116
_cell_angle_alpha	59.997987
_cell_angle_beta	89.998953
_cell_angle_gamma	60.000253
loop_
_atom_site_label
_atom_site_type_symbol
_atom_site_fract_x
_atom_site_fract_y
_atom_site_fract_z
O1	O	-0.491197	-0.412484	0.017135
O2	O	-0.407392	-0.294473	-0.017070
O3	O	-0.407389	-0.412483	0.100940
O4	O	-0.491200	-0.294474	-0.100875
O5	O	-0.311538	-0.508333	0.100940
O6	O	-0.311541	-0.390323	-0.017071
O7	O	-0.395346	-0.508335	0.017135
Cu8	Cu	-0.344692	-0.458081	0.000032
Cu9	Cu	-0.458046	-0.344727	0.000033
O10	O	-0.395349	-0.390324	-0.100876
C11	C	-0.310652	-0.181456	-0.024838
C12	C	-0.346214	-0.110333	-0.019942
C13	C	-0.241294	-0.215971	-0.025323
C14	C	-0.310655	-0.285810	-0.024846
C15	C	-0.346219	-0.326263	-0.019957
C16	C	-0.241297	-0.320167	-0.025331
C17	C	-0.206293	-0.285815	-0.024838
C18	C	-0.130274	-0.326273	-0.019941
C19	C	-0.345497	-0.215967	-0.025331
C20	C	-0.658540	-0.590043	0.035860
C21	C	-0.734559	-0.549588	0.030967
C22	C	-0.623539	-0.659889	0.036349
C23	C	-0.554183	-0.590040	0.035855
C24	C	-0.518621	-0.549582	0.030958
C25	C	-0.519339	-0.659886	0.036344
C26	C	-0.554182	-0.694402	0.035859
C27	C	-0.518619	-0.765527	0.030967
C28	C	-0.623539	-0.555686	0.036345
C29	C	-0.489889	-0.822989	0.027012
C30	C	-0.795974	-0.516903	0.027013
C31	C	-0.489891	-0.516895	0.027000
C32	C	-0.453845	-0.895077	0.022052
C33	C	-0.873022	-0.475899	0.022054
C34	C	-0.453848	-0.475888	0.022036
C35	C	-0.554187	-0.212776	-0.445775
C36	C	-0.518624	-0.253233	-0.481336
C37	C	-0.623545	-0.142931	-0.480619
C38	C	-0.554188	-0.212775	-0.341416
C39	C	-0.518626	-0.253231	-0.265397
C40	C	-0.623546	-0.142930	-0.376419
C41	C	-0.658547	-0.108416	-0.445777
C42	C	-0.734566	-0.037291	-0.481340
C43	C	-0.519344	-0.247131	-0.376417
C44	C	-0.795982	0.020169	-0.510072
C45	C	-0.489893	-0.285920	-0.510065
C46	C	-0.489896	-0.285917	-0.203980
C47	C	-0.873032	0.092257	-0.546117
C48	C	-0.453848	-0.326925	-0.546108
C49	C	-0.453852	-0.326922	-0.126930
O50	O	0.100922	-0.508345	0.017151
O51	O	-0.100892	-0.390333	-0.017055
O52	O	0.017109	-0.508348	0.100956
O53	O	-0.017080	-0.390330	-0.100860
O54	O	0.017112	-0.412502	0.100963
O55	O	-0.100890	-0.294486	-0.017048
O56	O	0.100924	-0.412499	0.017158
Cu57	Cu	0.000018	-0.344741	0.000056
Cu58	Cu	0.000014	-0.458090	0.000048
O59	O	-0.017077	-0.294483	-0.100853
O60	O	-0.395342	0.083766	0.017156
O61	O	-0.311534	-0.083842	-0.017048
O62	O	-0.311538	-0.083852	0.100962
O63	O	-0.395338	0.083777	-0.100854
O64	O	-0.407391	-0.083849	0.100954
O65	O	-0.407387	-0.083839	-0.017056
O66	O	-0.491195	0.083770	0.017149
Cu67	Cu	-0.458043	-0.000034	0.000046
Cu68	Cu	-0.344686	-0.000038	0.000055
O69	O	-0.491191	0.083780	-0.100861
O70	O	-1.100901	0.281028	-0.592582
O71	O	-0.899087	0.113413	-0.508770
O72	O	-1.017091	0.113409	-0.508767
O73	O	-0.982897	0.281032	-0.592584
O74	O	-1.017088	0.113407	-0.604617
O75	O	-0.899085	0.113411	-0.604619
O76	O	-1.100898	0.281026	-0.688432
Cu77	Cu	-0.999991	0.197218	-0.655277
Cu78	Cu	-0.999994	0.197221	-0.541924
O79	O	-0.982895	0.281030	-0.688434
O80	O	-0.407389	-0.412483	-0.688416
O81	O	-0.491197	-0.294477	-0.604610
O82	O	-0.491195	-0.412486	-0.604605
O83	O	-0.407390	-0.294474	-0.688421
O84	O	-0.395343	-0.508338	-0.508754
O85	O	-0.395345	-0.390329	-0.508759
O86	O	-0.311537	-0.508334	-0.592565
Cu87	Cu	-0.344689	-0.458084	-0.541910
Cu88	Cu	-0.458045	-0.344728	-0.655265
O89	O	-0.311539	-0.390326	-0.592570
C90	C	-0.206294	-0.621360	0.310702
C91	C	-0.130275	-0.692485	0.346265
C92	C	-0.241296	-0.586846	0.345545
C93	C	-0.310654	-0.517001	0.206342
C94	C	-0.346216	-0.476544	0.130323
C95	C	-0.345497	-0.482645	0.241343
C96	C	-0.310653	-0.517001	0.310701
C97	C	-0.346216	-0.476544	0.346263
C98	C	-0.241296	-0.586846	0.241345
C99	C	0.024887	-0.517030	0.310724
C100	C	0.019993	-0.476577	0.346290
C101	C	0.025371	-0.586874	0.345565
C102	C	0.024889	-0.517022	0.206362
C103	C	0.019998	-0.476562	0.130342
C104	C	0.025374	-0.586867	0.241361
C105	C	0.024884	-0.621384	0.310718
C106	C	0.019987	-0.692509	0.346278
C107	C	0.025377	-0.482671	0.241366
C108	C	-0.310656	-0.285855	0.310709
C109	C	-0.346220	-0.326314	0.346266
C110	C	-0.241298	-0.320218	0.345555
C111	C	-0.310655	-0.181484	0.206357
C112	C	-0.346217	-0.110348	0.130340
C113	C	-0.241296	-0.216005	0.241362
C114	C	-0.206295	-0.285860	0.310717
C115	C	-0.130275	-0.326323	0.346282
C116	C	-0.345499	-0.216001	0.241354
C117	C	-0.035774	-0.108410	-0.445754
C118	C	-0.030877	-0.037285	-0.481314
C119	C	-0.036262	-0.142920	-0.480600
C120	C	-0.035780	-0.212771	-0.341397
C121	C	-0.030889	-0.253231	-0.265377
C122	C	-0.036268	-0.247124	-0.376401
C123	C	-0.035777	-0.212765	-0.445759
C124	C	-0.030883	-0.253218	-0.481324
C125	C	-0.036265	-0.142927	-0.376396
C126	C	-0.026928	-0.285901	-0.510056
C127	C	-0.026920	0.020175	-0.510042
C128	C	-0.026936	-0.285920	-0.203961
C129	C	-0.021967	-0.326903	-0.546103
C130	C	-0.021955	0.092262	-0.546083
C131	C	-0.021978	-0.326928	-0.126911
O132	O	-0.017120	-0.390358	0.491266
O133	O	0.017098	-0.508368	0.407461
O134	O	-0.100916	-0.390357	0.407446
O135	O	0.100893	-0.508369	0.491281
O136	O	-0.100904	-0.294507	0.311599
O137	O	0.017110	-0.412518	0.311614
O138	O	-0.017109	-0.294509	0.395420
Cu139	Cu	0.000001	-0.344761	0.344766
Cu140	Cu	-0.000012	-0.458115	0.458115
O141	O	0.100905	-0.412519	0.395435
C142	C	-0.658539	0.410016	-0.445751
C143	C	-0.734559	0.450479	-0.481316
C144	C	-0.623536	0.444375	-0.480590
C145	C	-0.554179	0.305641	-0.341392
C146	C	-0.518616	0.234505	-0.265374
C147	C	-0.519335	0.340158	-0.376388
C148	C	-0.554178	0.410013	-0.445743
C149	C	-0.518614	0.450471	-0.481300
C150	C	-0.623537	0.340162	-0.376396
C151	C	-0.489883	0.483159	-0.510025
C152	C	-0.795975	0.483170	-0.510049
C153	C	-0.489886	0.177036	-0.203959
C154	C	-0.453838	0.524167	-0.546063
C155	C	-0.873025	0.524182	-0.546095
C156	C	-0.453842	0.104937	-0.126912
H157	H	-0.402486	-0.187075	-0.026121
C158	C	-0.203771	-0.177507	0.204028
C159	C	-0.184372	-0.154379	0.241603
C160	C	-0.149792	-0.118926	0.207242
H161	H	-0.234496	-0.130843	0.157621
H162	H	-0.162737	-0.215820	0.201649
H163	H	-0.225400	-0.116068	0.243974
H164	H	-0.153639	-0.201028	0.288008
H165	H	-0.108758	-0.157239	0.204863
H166	H	-0.180521	-0.072265	0.160836
H167	H	-0.136620	-0.103236	0.232735
H168	H	-0.651645	-0.114047	-0.348315
C169	C	-0.203925	-0.625358	0.203842
C170	C	-0.241458	-0.648525	0.184440
C171	C	-0.207049	-0.683997	0.149891
H172	H	-0.157521	-0.672007	0.234586
H173	H	-0.201541	-0.587046	0.162810
H174	H	-0.243834	-0.686835	0.225466
H175	H	-0.287861	-0.601891	0.153688
H176	H	-0.204665	-0.645685	0.108859
H177	H	-0.160646	-0.730643	0.180639
H178	H	-0.232513	-0.699714	0.136717
H179	H	-0.036993	-0.114078	-0.348277
C180	C	-0.660908	-0.698554	0.037549
C181	C	-0.623352	-0.778643	0.098276
C182	C	-0.657752	-0.814288	0.099413
H183	H	-0.663318	-0.698934	-0.003113
H184	H	-0.707311	-0.668031	0.037804
H185	H	-0.576961	-0.809159	0.098015
H186	H	-0.620941	-0.778287	0.138949
H187	H	-0.704155	-0.783765	0.099668
H188	H	-0.660160	-0.814662	0.058748
H189	H	-0.632279	-0.868629	0.140618
H190	H	-0.651638	-0.114039	-0.537611
H191	H	-0.462348	0.311266	-0.348281
C192	C	-0.203946	-0.395089	0.421575
C193	C	-0.241509	-0.376940	0.464120
C194	C	-0.207126	-0.445890	0.534149
H195	H	-0.157544	-0.410754	0.437500
H196	H	-0.201555	-0.438508	0.424295
H197	H	-0.243892	-0.333535	0.461403
H198	H	-0.287909	-0.361285	0.448218
H199	H	-0.204735	-0.489308	0.536869
H200	H	-0.160726	-0.461549	0.550066
H201	H	-0.232611	-0.433587	0.563023
C202	C	-0.421532	-0.177409	0.203957
C203	C	-0.464081	-0.154247	0.241504
C204	C	-0.534124	-0.118683	0.207068
H205	H	-0.424325	-0.215646	0.201521
H206	H	-0.437392	-0.130745	0.157563
H207	H	-0.448226	-0.200905	0.287886
H208	H	-0.461309	-0.116002	0.243941
H209	H	-0.549984	-0.072019	0.160673
H210	H	-0.536910	-0.156924	0.204634
H211	H	-0.563004	-0.102956	0.232534
C212	C	-0.660886	0.301486	-0.338885
C213	C	-0.623329	0.221389	-0.319499
C214	C	-0.657707	0.185734	-0.284936
H215	H	-0.707292	0.331972	-0.369617
H216	H	-0.663263	0.301133	-0.297845
H217	H	-0.620960	0.221747	-0.360533
H218	H	-0.576924	0.190882	-0.288759
H219	H	-0.660084	0.185381	-0.243897
H220	H	-0.704112	0.216227	-0.315672
H221	H	-0.632227	0.131383	-0.271773
C222	C	-0.660944	0.519404	-0.556535
C223	C	-0.664351	0.583210	-0.560273
C224	C	-0.698790	0.652335	-0.630218
H225	H	-0.707379	0.535150	-0.572455
H226	H	-0.635548	0.507268	-0.585526
H227	H	-0.689748	0.595346	-0.531291
H228	H	-0.617926	0.567491	-0.544366
H229	H	-0.673394	0.640199	-0.659210
H230	H	-0.745223	0.668073	-0.646133
H231	H	-0.701101	0.695633	-0.632765
C232	C	0.026303	-0.625414	0.421514
C233	C	-0.033758	-0.625755	0.425273
C234	C	-0.032920	-0.661262	0.495224
H235	H	0.026481	-0.594894	0.437427
H236	H	0.067435	-0.679799	0.450503
H237	H	-0.074880	-0.571379	0.396295
H238	H	-0.033949	-0.656278	0.409375
H239	H	0.008212	-0.715647	0.524213
H240	H	-0.032740	-0.630739	0.511131
H241	H	-0.073667	-0.661505	0.497785
H242	H	-0.462356	-0.303332	-0.348318
C243	C	-0.037377	-0.322021	-0.338838
C244	C	-0.037718	-0.344852	-0.270483
C245	C	-0.038761	-0.413826	-0.235869
H246	H	0.003315	-0.365511	-0.336356
H247	H	-0.078557	-0.309825	-0.364204
H248	H	0.003457	-0.357052	-0.245122
H249	H	-0.078408	-0.301382	-0.272944
H250	H	-0.079940	-0.401630	-0.261236
H251	H	0.001932	-0.457310	-0.233393
H252	H	-0.038999	-0.429322	-0.189489
H253	H	-0.037046	-0.114028	-0.537588
H254	H	-0.213196	-0.187082	-0.026109
C255	C	-0.203869	-0.395180	-0.026268
C256	C	-0.200426	-0.459021	0.033799
C257	C	-0.165960	-0.528130	0.032957
H258	H	-0.157442	-0.410892	-0.026453
H259	H	-0.229261	-0.383042	-0.067398
H260	H	-0.175033	-0.471159	0.074919
H261	H	-0.246843	-0.443336	0.033997
H262	H	-0.191352	-0.515992	-0.008173
H263	H	-0.119536	-0.543834	0.032769
H264	H	-0.163625	-0.571452	0.073708
H265	H	-0.651645	-0.499479	0.037123
H266	H	-0.462354	-0.688766	0.037124
H267	H	-0.213192	-0.615736	0.402533
C268	C	-0.421433	-0.407602	0.203873
C269	C	-0.425176	-0.343777	0.200432
C270	C	-0.495110	-0.274632	0.165919
H271	H	-0.450471	-0.419670	0.229219
H272	H	-0.437291	-0.391915	0.157441
H273	H	-0.409327	-0.359461	0.246856
H274	H	-0.396153	-0.331684	0.175081
H275	H	-0.510968	-0.258946	0.119487
H276	H	-0.524143	-0.286708	0.191269
H277	H	-0.497658	-0.231317	0.163574
C278	C	0.026519	-0.625538	0.204016
C279	C	0.087218	-0.705644	0.241576
C280	C	0.088287	-0.741296	0.207205
H281	H	0.026768	-0.595061	0.157607
H282	H	-0.014177	-0.625874	0.201643
H283	H	0.127904	-0.705304	0.243942
H284	H	0.086983	-0.736143	0.287984
H285	H	0.047591	-0.741632	0.204832
H286	H	0.088533	-0.710813	0.160797
H287	H	0.129467	-0.795654	0.232688
C288	C	0.026313	-0.407655	0.203940
C289	C	-0.033756	-0.343816	0.200494
C290	C	-0.032915	-0.274705	0.166028
H291	H	0.026502	-0.391942	0.157514
H292	H	0.067440	-0.419791	0.229335
H293	H	-0.074872	-0.331682	0.175098
H294	H	-0.033958	-0.359503	0.246910
H295	H	0.008212	-0.286841	0.191424
H296	H	-0.032724	-0.259000	0.119604
H297	H	-0.073667	-0.231385	0.163692
