data_functionalizedCrystal
_audit_creation_method	'MofGen! by Chris Wilmer'
_symmetry_space_group_name_H-M	'P1'
_symmetry_Int_Tables_number	1
_symmetry_cell_setting	triclinic
loop_
_symmetry_equiv_pos_as_xyz
  x,y,z
_cell_length_a	10.654550
_cell_length_b	15.944551
_cell_length_c	9.730223
_cell_angle_alpha	89.994648
_cell_angle_beta	89.999957
_cell_angle_gamma	83.991834
loop_
_atom_site_label
_atom_site_type_symbol
_atom_site_fract_x
_atom_site_fract_y
_atom_site_fract_z
O1	O	1.666313	0.117976	-0.114191
O2	O	1.300689	0.129216	-0.114216
O3	O	1.493485	0.001379	-0.114190
O4	O	1.473516	0.245813	-0.114216
O5	O	1.493473	0.001376	0.114390
O6	O	1.300676	0.129213	0.114364
O7	O	1.666300	0.117973	0.114389
Zn8	Zn	1.483486	0.123592	0.150669
Zn9	Zn	1.483503	0.123597	-0.150495
O10	O	1.473504	0.245810	0.114363
C11	C	1.253895	0.128389	0.000071
C12	C	1.114484	0.125920	0.000061
C13	C	1.034024	0.201189	0.000057
C14	C	0.903034	0.198863	0.000081
C15	C	0.932975	0.045995	0.000108
C16	C	1.063963	0.048321	0.000094
C17	C	1.492650	-0.029921	0.000100
C18	C	1.490165	-0.123182	0.000100
C19	C	1.364720	-0.338764	0.000073
C20	C	1.422966	-0.399446	0.112781
C21	C	1.485668	-0.293933	0.000090
C22	C	1.423007	-0.399426	-0.112581
C23	C	1.481317	-0.458871	0.000073
C24	C	1.543948	-0.353387	0.112890
C25	C	1.543972	-0.353360	-0.112573
C26	C	1.602306	-0.414024	0.000163
C27	C	1.488172	-0.198917	0.000100
C28	C	1.478822	-0.553887	0.000072
C29	C	1.713094	0.118800	0.000099
C30	C	1.852505	0.121269	0.000100
C31	C	1.474339	0.277110	0.000070
C32	C	1.476824	0.370371	0.000061
N33	N	1.483484	0.123589	0.356205
N34	N	1.483514	0.123594	-0.356032
C35	C	1.568883	0.067007	0.428142
C36	C	1.568896	0.067007	0.572025
C37	C	1.398106	0.180179	0.572021
C38	C	1.398089	0.180174	0.428140
H39	H	1.264327	-0.306038	0.000178
O40	O	1.604797	-0.329286	0.226838
C41	C	1.610320	-0.325854	0.474334
C42	C	1.541311	-0.353214	0.345406
H43	H	1.559005	-0.345173	0.570228
H44	H	1.711290	-0.357609	0.474844
H45	H	1.611709	-0.254460	0.473367
H46	H	1.539825	-0.424598	0.346287
H47	H	1.440377	-0.321398	0.344945
H48	H	1.638434	0.020932	0.630593
H49	H	1.702787	-0.446601	0.000233
O50	O	1.605139	-0.328957	-0.226096
C51	C	1.780256	-0.261289	-0.314506
C52	C	1.711139	-0.288902	-0.185813
H53	H	1.865955	-0.228883	-0.281983
H54	H	1.812342	-0.318969	-0.379725
H55	H	1.713573	-0.215517	-0.377094
H56	H	1.777749	-0.334654	-0.123118
H57	H	1.679032	-0.231181	-0.120697
H58	H	1.328581	0.226250	0.630605
O59	O	1.083161	0.276545	-0.000208
C60	C	1.213714	0.367873	-0.118619
C61	C	1.158135	0.282510	-0.118509
H62	H	1.274364	0.372716	-0.214240
H63	H	1.133749	0.421303	-0.118704
H64	H	1.274248	0.372773	-0.022924
H65	H	1.097616	0.277528	-0.214188
H66	H	1.238160	0.229121	-0.118352
O67	O	1.361798	-0.423628	-0.226217
C68	C	1.167346	-0.412520	-0.354567
C69	C	1.236532	-0.385034	-0.225844
H70	H	1.066049	-0.381343	-0.354293
H71	H	1.217835	-0.392636	-0.450655
H72	H	1.166919	-0.483988	-0.353999
H73	H	1.236980	-0.313570	-0.226278
H74	H	1.186021	-0.404980	-0.129813
O75	O	0.883957	-0.029402	0.000367
C76	C	0.869542	-0.160796	0.118756
C77	C	0.925108	-0.075427	0.118658
H78	H	0.902812	-0.198038	0.214369
H79	H	0.762095	-0.149582	0.118847
H80	H	0.902655	-0.197991	0.023053
H81	H	0.892092	-0.038188	0.214344
H82	H	1.032550	-0.086700	0.118495
H83	H	1.328541	0.226250	0.369565
H84	H	0.837528	0.260155	0.000081
H85	H	1.129477	-0.012976	0.000101
H86	H	1.638416	0.020930	0.369576
H87	H	1.371805	-0.419852	0.208059
