data_functionalizedCrystal
_audit_creation_method	'MofGen! by Chris Wilmer'
_symmetry_space_group_name_H-M	'P1'
_symmetry_Int_Tables_number	1
_symmetry_cell_setting	triclinic
loop_
_symmetry_equiv_pos_as_xyz
  x,y,z
_cell_length_a	16.625547
_cell_length_b	19.120786
_cell_length_c	16.625539
_cell_angle_alpha	87.528626
_cell_angle_beta	89.975178
_cell_angle_gamma	92.464876
loop_
_atom_site_label
_atom_site_type_symbol
_atom_site_fract_x
_atom_site_fract_y
_atom_site_fract_z
Zn1	Zn	1.218969	-0.279630	-0.442286
Zn2	Zn	1.468969	-0.029630	-0.192286
Zn3	Zn	1.718969	0.220370	0.057714
Zn4	Zn	1.968969	0.470370	0.307714
Zn5	Zn	1.213113	-0.397095	-0.301692
Zn6	Zn	1.463113	-0.147095	-0.051692
Zn7	Zn	1.713113	0.102905	0.198308
Zn8	Zn	1.963113	0.352905	0.448308
Zn9	Zn	1.084130	-0.279655	-0.307455
Zn10	Zn	1.334130	-0.029655	-0.057455
Zn11	Zn	1.584130	0.220345	0.192545
Zn12	Zn	1.834130	0.470345	0.442545
Zn13	Zn	1.078344	-0.397052	-0.436474
Zn14	Zn	1.328344	-0.147052	-0.186474
Zn15	Zn	1.578344	0.102948	0.063526
Zn16	Zn	1.828344	0.352948	0.313526
O17	O	1.148639	-0.338358	-0.371977
O18	O	1.398639	-0.088358	-0.121977
O19	O	1.648639	0.161642	0.128023
O20	O	1.898639	0.411642	0.378023
O21	O	1.331024	-0.295220	-0.423656
O22	O	1.581024	-0.045220	-0.173656
O23	O	1.831024	0.204780	0.076344
O24	O	2.081024	0.454780	0.326344
O25	O	1.195973	-0.381544	-0.189623
O26	O	1.445973	-0.131544	0.060377
O27	O	1.695973	0.118456	0.310377
O28	O	1.945973	0.368456	0.560377
O29	O	1.106889	-0.181361	-0.330185
O30	O	1.356889	0.068639	-0.080185
O31	O	1.606889	0.318639	0.169815
O32	O	1.856889	0.568639	0.419815
O33	O	1.326721	-0.381520	-0.320363
O34	O	1.576721	-0.131520	-0.070363
O35	O	1.826721	0.118480	0.179637
O36	O	2.076721	0.368480	0.429637
O37	O	1.205955	-0.181343	-0.429245
O38	O	1.455955	0.068657	-0.179245
O39	O	1.705955	0.318657	0.070755
O40	O	1.955955	0.568657	0.320755
O41	O	1.101210	-0.295262	-0.193857
O42	O	1.351210	-0.045262	0.056143
O43	O	1.601210	0.204738	0.306143
O44	O	1.851210	0.454738	0.556143
O45	O	0.970530	-0.295220	-0.324550
O46	O	1.220530	-0.045220	-0.074550
O47	O	1.470530	0.204780	0.175450
O48	O	1.720530	0.454780	0.425450
O49	O	1.097027	-0.381448	-0.550079
O50	O	1.347027	-0.131448	-0.300079
O51	O	1.597027	0.118552	-0.050079
O52	O	1.847027	0.368552	0.199921
O53	O	0.966279	-0.381471	-0.419339
O54	O	1.216279	-0.131471	-0.169339
O55	O	1.466279	0.118529	0.080661
O56	O	1.716279	0.368529	0.330661
O57	O	1.200344	-0.295179	-0.554349
O58	O	1.450344	-0.045179	-0.304349
O59	O	1.700344	0.204821	-0.054349
O60	O	1.950344	0.454821	0.195651
O61	O	1.190363	-0.495379	-0.314727
O62	O	1.440363	-0.245379	-0.064727
O63	O	1.690363	0.004621	0.185273
O64	O	1.940363	0.254621	0.435273
O65	O	1.091349	-0.495348	-0.413751
O66	O	1.341349	-0.245348	-0.163751
O67	O	1.591349	0.004652	0.086249
O68	O	1.841349	0.254652	0.336249
C69	C	0.939149	-0.338344	-0.371940
C70	C	1.189149	-0.088344	-0.121940
C71	C	1.439149	0.161656	0.128060
C72	C	1.689149	0.411656	0.378060
C73	C	0.849527	-0.338355	-0.371942
C74	C	1.099527	-0.088355	-0.121942
C75	C	1.349527	0.161645	0.128058
C76	C	1.599527	0.411645	0.378058
C77	C	0.776744	-0.338357	-0.371952
C78	C	1.026744	-0.088357	-0.121952
C79	C	1.276744	0.161643	0.128048
C80	C	1.526744	0.411643	0.378048
C81	C	0.685436	-0.338361	-0.371972
C82	C	0.935436	-0.088361	-0.121972
C83	C	1.185436	0.161639	0.128028
C84	C	1.435436	0.411639	0.378028
C85	C	0.612659	-0.338367	-0.371992
C86	C	0.862659	-0.088367	-0.121992
C87	C	1.112659	0.161633	0.128008
C88	C	1.362659	0.411633	0.378008
C89	C	0.521345	-0.338372	-0.372011
C90	C	0.771345	-0.088372	-0.122011
C91	C	1.021345	0.161628	0.127989
C92	C	1.271345	0.411628	0.377989
C93	C	1.139614	-0.520849	-0.363000
C94	C	1.389614	-0.270849	-0.113000
C95	C	1.639614	-0.020849	0.137000
C96	C	1.889614	0.229151	0.387000
C97	C	1.135827	-0.598920	-0.359187
C98	C	1.385827	-0.348920	-0.109187
C99	C	1.635827	-0.098920	0.140813
C100	C	1.885827	0.151080	0.390813
C101	C	1.185588	-0.635528	-0.409012
C102	C	1.435588	-0.385528	-0.159012
C103	C	1.685588	-0.135528	0.090988
C104	C	1.935588	0.114472	0.340988
C105	C	1.182026	-0.708884	-0.405431
C106	C	1.432026	-0.458884	-0.155431
C107	C	1.682026	-0.208884	0.094569
C108	C	1.932026	0.041116	0.344569
C109	C	1.128708	-0.745630	-0.352019
C110	C	1.378708	-0.495630	-0.102019
C111	C	1.628708	-0.245630	0.147981
C112	C	1.878708	0.004370	0.397981
C113	C	1.078941	-0.709017	-0.302192
C114	C	1.328941	-0.459017	-0.052192
C115	C	1.578941	-0.209017	0.197808
C116	C	1.828941	0.040983	0.447808
C117	C	1.082499	-0.635663	-0.305778
C118	C	1.332499	-0.385663	-0.055778
C119	C	1.582499	-0.135663	0.194222
C120	C	1.832499	0.114337	0.444222
C121	C	1.115383	-0.967116	-0.338613
C122	C	1.365383	-0.717116	-0.088613
C123	C	1.615383	-0.467116	0.161387
C124	C	1.865383	-0.217116	0.411387
C125	C	1.111830	-1.040475	-0.335029
C126	C	1.361830	-0.790475	-0.085029
C127	C	1.611830	-0.540475	0.164971
C128	C	1.861830	-0.290475	0.414971
C129	C	1.214914	-1.040337	-0.438269
C130	C	1.464914	-0.790337	-0.188269
C131	C	1.714914	-0.540337	0.061731
C132	C	1.964914	-0.290337	0.311731
C133	C	1.218471	-0.966981	-0.441847
C134	C	1.468471	-0.716981	-0.191847
C135	C	1.718471	-0.466981	0.058153
C136	C	1.968471	-0.216981	0.308153
C137	C	1.168702	-0.930375	-0.392023
C138	C	1.418702	-0.680375	-0.142023
C139	C	1.668702	-0.430375	0.107977
C140	C	1.918702	-0.180375	0.357977
C141	C	1.125068	-0.820611	-0.348355
C142	C	1.375068	-0.570611	-0.098355
C143	C	1.625068	-0.320611	0.151645
C144	C	1.875068	-0.070611	0.401645
C145	C	1.172338	-0.855395	-0.395691
C146	C	1.422338	-0.605395	-0.145691
C147	C	1.672338	-0.355395	0.104309
C148	C	1.922338	-0.105395	0.354309
C149	C	1.358947	-0.338372	-0.372015
C150	C	1.608947	-0.088372	-0.122015
C151	C	1.858947	0.161628	0.127985
C152	C	2.108947	0.411628	0.377985
C153	C	1.448568	-0.338378	-0.372031
C154	C	1.698568	-0.088378	-0.122031
C155	C	1.948568	0.161622	0.127969
C156	C	2.198568	0.411622	0.377969
C157	C	1.148694	-0.338306	-0.582288
C158	C	1.398694	-0.088306	-0.332288
C159	C	1.648694	0.161694	-0.082288
C160	C	1.898694	0.411694	0.167712
C161	C	1.148717	-0.338283	-0.671911
C162	C	1.398717	-0.088283	-0.421911
C163	C	1.648717	0.161717	-0.171911
C164	C	1.898717	0.411717	0.078089
C165	C	1.157721	-0.155154	-0.381006
C166	C	1.407721	0.094846	-0.131006
C167	C	1.657721	0.344846	0.118994
C168	C	1.907721	0.594846	0.368994
C169	C	1.161591	-0.077083	-0.384854
C170	C	1.411591	0.172917	-0.134854
C171	C	1.661591	0.422917	0.115146
C172	C	1.911591	0.672917	0.365146
C173	C	1.148758	-0.338205	-1.000090
C174	C	1.398758	-0.088205	-0.750090
C175	C	1.648758	0.161795	-0.500090
C176	C	1.898758	0.411795	-0.250090
C177	C	1.148744	-0.338229	-0.908781
C178	C	1.398744	-0.088229	-0.658781
C179	C	1.648744	0.161771	-0.408781
C180	C	1.898744	0.411771	-0.158781
C181	C	1.148738	-0.338245	-0.836003
C182	C	1.398738	-0.088245	-0.586003
C183	C	1.648738	0.161755	-0.336003
C184	C	1.898738	0.411755	-0.086003
C185	C	1.148724	-0.338268	-0.744688
C186	C	1.398724	-0.088268	-0.494688
C187	C	1.648724	0.161732	-0.244688
C188	C	1.898724	0.411732	0.005312
C189	C	1.148633	-0.338359	-0.162486
C190	C	1.398633	-0.088359	0.087514
C191	C	1.648633	0.161641	0.337514
C192	C	1.898633	0.411641	0.587514
C193	C	1.148775	-0.338184	-0.072874
C194	C	1.398775	-0.088184	0.177126
C195	C	1.648775	0.161816	0.427126
C196	C	1.898775	0.411816	0.677126
H197	H	1.229009	-0.605614	-0.452502
H198	H	1.479009	-0.355614	-0.202502
H199	H	1.729009	-0.105614	0.047498
H200	H	1.979009	0.144386	0.297498
H201	H	1.041978	-0.605857	-0.265206
H202	H	1.291978	-0.355857	-0.015206
H203	H	1.541978	-0.105857	0.234794
H204	H	1.791978	0.144143	0.484794
H205	H	1.068408	-1.070392	-0.291534
H206	H	1.318408	-0.820392	-0.041534
H207	H	1.568408	-0.570392	0.208466
H208	H	1.818408	-0.320392	0.458466
H209	H	1.255432	-1.070150	-0.478834
H210	H	1.505432	-0.820150	-0.228834
H211	H	1.755432	-0.570150	0.021166
H212	H	2.005432	-0.320150	0.271166
H213	H	1.215748	-0.825474	-0.439182
H214	H	1.465748	-0.575474	-0.189182
H215	H	1.715748	-0.325474	0.060818
H216	H	1.965748	-0.075474	0.310818
H217	H	1.074860	-0.937317	-0.298042
H218	H	1.324860	-0.687317	-0.048042
H219	H	1.574860	-0.437317	0.201958
H220	H	1.824860	-0.187317	0.451958
H221	H	1.261887	-0.937064	-0.485339
H222	H	1.511887	-0.687064	-0.235339
H223	H	1.761887	-0.437064	0.014661
H224	H	2.011887	-0.187064	0.264661
H225	H	1.081658	-0.850538	-0.304865
H226	H	1.331658	-0.600538	-0.054865
H227	H	1.581658	-0.350538	0.195135
H228	H	1.831658	-0.100538	0.445135
H229	H	1.222553	-0.738687	-0.445998
H230	H	1.472553	-0.488687	-0.195998
H231	H	1.722553	-0.238687	0.054002
H232	H	1.972553	0.011313	0.304002
H233	H	1.035525	-0.738942	-0.258706
H234	H	1.285525	-0.488942	-0.008706
H235	H	1.535525	-0.238942	0.241294
H236	H	1.785525	0.011058	0.491294
