data_functionalizedCrystal
_audit_creation_method	'MofGen! by Chris Wilmer'
_symmetry_space_group_name_H-M	'P1'
_symmetry_Int_Tables_number	1
_symmetry_cell_setting	triclinic
loop_
_symmetry_equiv_pos_as_xyz
  x,y,z
_cell_length_a	14.395555
_cell_length_b	21.606444
_cell_length_c	21.606444
_cell_angle_alpha	90.004067
_cell_angle_beta	60.004146
_cell_angle_gamma	60.000840
loop_
_atom_site_label
_atom_site_type_symbol
_atom_site_fract_x
_atom_site_fract_y
_atom_site_fract_z
Zr1	Zr	1.016806	-0.081206	0.596248
O2	O	1.210592	-0.180034	0.497428
O3	O	0.823013	-0.050908	0.626539
O4	O	1.016801	-0.180027	0.626543
O5	O	1.016812	0.050935	0.497424
O6	O	1.016804	-0.180023	0.728394
O7	O	1.016805	-0.050915	0.497424
O8	O	0.670154	0.050947	0.728386
O9	O	1.363462	-0.180036	0.497431
O10	O	0.902728	-0.037985	0.715471
O11	O	0.902731	0.038021	0.639461
O12	O	1.130890	-0.114000	0.639465
O13	O	1.130893	-0.037994	0.563455
Zr14	Zr	1.016822	0.081239	0.758688
Zr15	Zr	1.016812	-0.081199	0.758688
Zr16	Zr	1.016817	0.081233	0.596248
Zr17	Zr	1.260615	-0.081208	0.596253
Zr18	Zr	0.773013	0.081242	0.758683
O19	O	1.210615	0.050942	0.728397
O20	O	1.210600	-0.180025	0.728397
O21	O	1.210607	0.050933	0.497428
O22	O	0.823036	0.180068	0.857508
O23	O	0.823021	-0.050899	0.857508
O24	O	0.823028	0.180059	0.626538
O25	O	1.016817	-0.050901	0.857512
O26	O	1.016827	0.180061	0.728393
O27	O	1.016824	0.180057	0.626542
O28	O	1.016823	0.050949	0.857512
O29	O	1.363466	-0.180031	0.626550
O30	O	0.670162	0.180064	0.728386
O31	O	0.670166	0.180069	0.857505
O32	O	0.670158	0.050952	0.857505
O33	O	1.363470	-0.050919	0.497431
O34	O	1.363474	-0.050914	0.626550
O35	O	0.902738	0.114033	0.715471
O36	O	0.902736	0.038027	0.791481
O37	O	1.130898	-0.037987	0.715475
O38	O	1.130900	0.038019	0.639465
C39	C	0.711846	0.000020	0.677462
C40	C	0.608343	0.000021	0.677460
C41	C	1.016807	0.000009	0.474280
C42	C	1.016805	0.000006	0.405320
C43	C	1.016827	0.203203	0.677468
C44	C	1.016832	0.272162	0.677468
C45	C	0.547751	0.041465	0.636018
C46	C	0.562002	-0.030009	0.605982
C47	C	0.409696	0.071474	0.707477
C48	C	0.624020	-0.071496	0.647382
C49	C	0.471650	0.030039	0.748917
C50	C	0.485948	-0.041478	0.718899
C51	C	1.321782	0.000014	0.677474
C52	C	1.425286	0.000013	0.677476
C53	C	1.016801	-0.203169	0.677468
C54	C	1.016797	-0.272128	0.677468
C55	C	1.135929	0.264883	0.637795
C56	C	1.135925	0.329680	0.637791
C57	C	1.016823	0.401756	0.677466
C58	C	0.897716	0.409034	0.717140
C59	C	0.897721	0.344238	0.717138
C60	C	0.897694	0.670352	0.717146
C61	C	0.897698	0.735150	0.717146
C62	C	1.135898	0.655795	0.637799
C63	C	1.135903	0.590998	0.637798
C64	C	1.016797	0.598282	0.677468
C65	C	1.016802	0.528020	0.677470
C66	C	1.016816	0.472016	0.677469
C67	C	1.016829	0.056136	-0.017983
C68	C	1.016820	0.056136	0.046816
C69	C	1.016814	0.000023	0.079210
C70	C	1.016804	-0.056088	0.046806
C71	C	1.016804	-0.056084	-0.017989
C72	C	1.016804	-0.056105	0.308117
C73	C	1.016808	-0.056106	0.372915
C74	C	1.016820	0.056115	0.372921
C75	C	1.016820	0.056119	0.308126
C76	C	1.016803	0.000010	0.275731
C77	C	1.016810	0.000012	0.205469
C78	C	1.016817	0.000018	0.149467
C79	C	1.016821	0.000025	0.880656
C80	C	1.016823	0.000028	0.949616
C81	C	0.711853	0.000028	0.880650
C82	C	0.608351	0.000032	0.949608
C83	C	0.711859	0.203206	0.677462
C84	C	0.608360	0.272166	0.677459
C85	C	0.711866	0.203214	0.880650
C86	C	0.608369	0.272177	0.949608
C87	C	1.321763	-0.203180	0.474286
C88	C	1.425259	-0.272143	0.405328
C89	C	1.321776	0.000006	0.474286
C90	C	1.425277	0.000002	0.405328
C91	C	1.321769	-0.203172	0.677474
C92	C	1.425268	-0.272133	0.677476
C93	C	0.559742	-0.039651	0.942315
C94	C	0.462505	-0.039662	1.007102
C95	C	0.413873	0.000013	1.079182
C96	C	0.462492	0.039697	1.086473
C97	C	0.559733	0.039704	1.021687
C98	C	0.559760	0.344235	0.717135
C99	C	0.462525	0.409037	0.717130
C100	C	0.413886	0.401768	0.677454
C101	C	0.462496	0.329692	0.637773
C102	C	0.559735	0.264892	0.637774
C103	C	0.559765	0.264889	1.021674
C104	C	0.462532	0.329681	1.086474
C105	C	0.413899	0.401761	1.079205
C106	C	0.462513	0.409048	1.007131
C107	C	0.559750	0.344256	0.942333
C108	C	1.473875	-0.264855	0.333262
C109	C	1.571138	-0.329647	0.268462
C110	C	1.619776	-0.401727	0.275731
C111	C	1.571156	-0.409014	0.347805
C112	C	1.473902	-0.344223	0.412603
C113	C	1.473896	0.039678	0.412621
C114	C	1.571160	0.039671	0.347834
C115	C	1.619796	-0.000007	0.275754
C116	C	1.571172	-0.039688	0.268463
C117	C	1.473917	-0.039685	0.333249
C118	C	1.473876	-0.264839	0.717161
C119	C	1.571112	-0.329629	0.717177
C120	C	1.619744	-0.401711	0.677505
C121	C	1.571126	-0.409002	0.637820
C122	C	1.473886	-0.344214	0.637808
H123	H	0.574978	0.076461	0.600925
H124	H	0.318092	0.131904	0.732856
F125	F	1.622945	-0.081911	0.191744
H126	H	0.800741	0.467724	0.749439
F127	F	0.611450	0.081947	1.029460
F128	F	1.262697	0.188176	0.595572
F129	F	1.622931	-0.485733	0.355529
F130	F	1.016825	0.115853	0.081300
F131	F	1.622843	-0.321853	0.759414
F132	F	0.610600	-0.063205	0.527005
F133	F	1.262662	0.648047	0.595575
H134	H	0.422932	-0.071978	1.001150
H135	H	0.599338	-0.071969	0.883630
F136	F	1.262685	0.321927	0.595544
H137	H	0.800740	0.350170	0.749442
H138	H	1.434304	0.071994	0.471306
H139	H	0.459003	-0.076579	0.753944
H140	H	0.715581	-0.131954	0.621932
H141	H	0.800710	0.676293	0.749450
H142	H	1.016791	-0.101774	0.073188
H143	H	1.698923	-0.454460	0.677521
F144	F	0.423076	0.063256	0.827879
H145	H	1.434319	-0.350166	0.471281
H146	H	1.016794	-0.101792	0.281744
F147	F	0.611512	0.188182	1.029428
H148	H	0.422879	0.323785	0.605470
F149	F	1.016845	0.115857	-0.052457
F150	F	1.622863	-0.321875	0.191763
H151	H	0.422881	0.072000	1.145169
H152	H	0.422960	0.323734	1.145154
H153	H	1.232888	0.532313	0.605494
F154	F	0.770926	0.811863	0.759373
H155	H	1.016796	-0.101772	-0.044368
F156	F	1.016833	0.115838	0.273650
F157	F	0.611463	0.352025	0.865636
F158	F	0.310408	0.470712	1.148176
H159	H	0.422902	0.467744	1.001223
H160	H	1.434279	-0.206170	0.327329
H161	H	1.610732	0.071987	0.353785
F162	F	1.622905	-0.485724	0.595595
F163	F	1.723304	-0.000002	0.206809
H164	H	0.599293	0.206212	0.605468
F165	F	1.422173	-0.351987	0.595562
F166	F	1.422176	-0.081912	0.325476
H167	H	0.599351	0.350168	0.749444
F168	F	1.016832	0.115833	0.407406
H169	H	1.016802	-0.101801	0.399290
H170	H	0.334691	0.000003	1.131929
F171	F	1.422136	-0.188131	0.759388
F172	F	0.410805	0.485739	0.759367
H173	H	0.334707	0.454539	0.677459
H174	H	1.698967	-0.454478	0.222962
