data_functionalizedCrystal
_audit_creation_method	'MofGen! by Chris Wilmer'
_symmetry_space_group_name_H-M	'P1'
_symmetry_Int_Tables_number	1
_symmetry_cell_setting	triclinic
loop_
_symmetry_equiv_pos_as_xyz
  x,y,z
_cell_length_a	14.519709
_cell_length_b	14.519709
_cell_length_c	13.596369
_cell_angle_alpha	90.006934
_cell_angle_beta	89.999709
_cell_angle_gamma	83.680145
loop_
_atom_site_label
_atom_site_type_symbol
_atom_site_fract_x
_atom_site_fract_y
_atom_site_fract_z
O1	O	-1.223868	-0.120893	-0.081665
O2	O	-0.723868	0.379107	0.418335
O3	O	-0.955392	-0.135129	-0.081696
O4	O	-0.455392	0.364871	0.418304
O5	O	-1.096748	0.006227	-0.081671
O6	O	-0.596748	0.506227	0.418329
O7	O	-1.082512	-0.262249	-0.081690
O8	O	-0.582512	0.237751	0.418310
O9	O	-1.096734	0.006235	0.081912
O10	O	-0.596734	0.506235	0.581912
O11	O	-0.955377	-0.135122	0.081887
O12	O	-0.455377	0.364878	0.581887
O13	O	-1.223854	-0.120885	0.081917
O14	O	-0.723854	0.379115	0.581917
Zn15	Zn	-1.089614	-0.128002	0.107875
Zn16	Zn	-0.589614	0.371998	0.607875
Zn17	Zn	-1.089632	-0.128012	-0.107653
Zn18	Zn	-0.589632	0.371988	0.392347
O19	O	-1.082498	-0.262242	0.081893
O20	O	-0.582498	0.237758	0.581893
C21	C	-0.921025	-0.134462	0.000092
C22	C	-0.421025	0.365538	0.500092
C23	C	-0.818643	-0.132474	0.000081
C24	C	-0.318643	0.367526	0.500081
C25	C	-1.096078	0.040591	0.000121
C26	C	-0.596078	0.540591	0.500121
C27	C	-1.094090	0.142972	0.000121
C28	C	-0.594090	0.642972	0.500121
C29	C	-1.258221	-0.121553	0.000128
C30	C	-0.758221	0.378447	0.500128
C31	C	-1.360602	-0.123541	0.000132
C32	C	-0.860602	0.376459	0.500132
C33	C	-0.443748	-0.125154	0.000126
C34	C	0.056252	0.374846	0.500126
C35	C	-0.548056	-0.127187	0.000113
C36	C	-0.048056	0.372813	0.500113
C37	C	-0.631192	-0.128814	0.000102
C38	C	-0.131192	0.371186	0.500102
C39	C	-0.735507	-0.130847	0.000091
C40	C	-0.235507	0.369153	0.500091
C41	C	-1.083168	-0.296605	0.000099
C42	C	-0.583168	0.203395	0.500099
C43	C	-1.085156	-0.398987	0.000092
C44	C	-0.585156	0.101013	0.500092
N45	N	-1.089608	-0.127995	0.254966
N46	N	-0.589608	0.372005	0.754966
C47	C	-1.086770	0.517868	0.000095
C48	C	-0.586770	1.017868	0.500095
C49	C	-1.088803	0.413560	0.000102
C50	C	-0.588803	0.913560	0.500102
C51	C	-1.090430	0.330423	0.000109
C52	C	-0.590430	0.830423	0.500109
C53	C	-1.092463	0.226109	0.000114
C54	C	-0.592463	0.726109	0.500114
N55	N	-1.089645	-0.128012	-0.254745
N56	N	-0.589645	0.371988	0.245255
C57	C	-1.089631	-0.128013	0.656257
C58	C	-0.589631	0.371987	1.156257
C59	C	-1.089622	-0.128011	0.544606
C60	C	-0.589622	0.371989	1.044606
C61	C	-1.089620	-0.128005	0.455615
C62	C	-0.589620	0.371995	0.955615
C63	C	-1.089610	-0.128001	0.343957
C64	C	-0.589610	0.371999	0.843957
