data_functionalizedCrystal
_audit_creation_method	'MofGen! by Chris Wilmer'
_symmetry_space_group_name_H-M	'P1'
_symmetry_Int_Tables_number	1
_symmetry_cell_setting	triclinic
loop_
_symmetry_equiv_pos_as_xyz
  x,y,z
_cell_length_a	17.699083
_cell_length_b	19.288865
_cell_length_c	17.766277
_cell_angle_alpha	90.011603
_cell_angle_beta	90.003333
_cell_angle_gamma	83.209632
loop_
_atom_site_label
_atom_site_type_symbol
_atom_site_fract_x
_atom_site_fract_y
_atom_site_fract_z
O1	O	-1.003958	-0.087837	-0.062497
O2	O	-0.670624	0.245496	0.270836
O3	O	-0.337291	0.578830	0.604169
O4	O	-0.783563	-0.099265	-0.062523
O5	O	-0.450230	0.234068	0.270810
O6	O	-0.116896	0.567402	0.604143
O7	O	-0.900129	0.007572	-0.062495
O8	O	-0.566795	0.340905	0.270839
O9	O	-0.233462	0.674238	0.604172
O10	O	-0.887392	-0.194674	-0.062526
O11	O	-0.554059	0.138660	0.270807
O12	O	-0.220725	0.471993	0.604141
O13	O	-0.900108	0.007577	0.062694
O14	O	-0.566775	0.340910	0.396027
O15	O	-0.233442	0.674244	0.729361
O16	O	-0.783543	-0.099260	0.062665
O17	O	-0.450209	0.234074	0.395999
O18	O	-0.116876	0.567407	0.729332
O19	O	-1.003937	-0.087832	0.062691
O20	O	-0.670604	0.245502	0.396024
O21	O	-0.337270	0.578835	0.729358
Cu22	Cu	-0.893738	-0.093545	0.074109
Cu23	Cu	-0.560405	0.239788	0.407442
Cu24	Cu	-0.227071	0.573122	0.740776
Cu25	Cu	-0.893762	-0.093552	-0.073941
Cu26	Cu	-0.560429	0.239782	0.259392
Cu27	Cu	-0.227096	0.573115	0.592726
O28	O	-0.887372	-0.194668	0.062663
O29	O	-0.554038	0.138665	0.395996
O30	O	-0.220705	0.471998	0.729329
C31	C	-0.899709	0.033451	0.000102
C32	C	-0.566375	0.366785	0.333435
C33	C	-0.233042	0.700118	0.666768
C34	C	-0.898478	0.110556	0.000108
C35	C	-0.565145	0.443890	0.333442
C36	C	-0.231812	0.777223	0.666775
C37	C	-0.755356	-0.098853	0.000068
C38	C	-0.422023	0.234481	0.333401
C39	C	-0.088690	0.567814	0.666735
C40	C	-0.671340	-0.097624	0.000059
C41	C	-0.338007	0.235709	0.333392
C42	C	-0.004673	0.569042	0.666725
C43	C	-1.032144	-0.088244	0.000098
C44	C	-0.698810	0.245089	0.333432
C45	C	-0.365477	0.578423	0.666765
C46	C	-1.116160	-0.089472	0.000103
C47	C	-0.782827	0.243861	0.333436
C48	C	-0.449493	0.577194	0.666769
C49	C	-0.622631	-0.160335	0.000049
C50	C	-0.289298	0.172998	0.333383
C51	C	0.044036	0.506331	0.666716
C52	C	-0.543689	-0.159177	0.000059
C53	C	-0.210356	0.174157	0.333393
C54	C	0.122977	0.507490	0.666726
C55	C	-0.513458	-0.095307	0.000073
C56	C	-0.180125	0.238027	0.333407
C57	C	0.153208	0.571360	0.666740
C58	C	-0.562174	-0.032591	0.000085
C59	C	-0.228840	0.300742	0.333418
C60	C	0.104493	0.634076	0.666752
C61	C	-0.641114	-0.033750	0.000080
C62	C	-0.307780	0.299583	0.333414
C63	C	0.025553	0.632916	0.666747
C64	C	-0.243817	-0.027915	0.000104
C65	C	0.089516	0.305418	0.333438
C66	C	0.422850	0.638752	0.666771
C67	C	-0.164871	-0.026761	0.000107
C68	C	0.168463	0.306573	0.333440
C69	C	0.501796	0.639906	0.666773
C70	C	-0.146393	-0.153342	0.000083
C71	C	0.186941	0.179992	0.333416
C72	C	0.520274	0.513325	0.666750
C73	C	-0.225333	-0.154501	0.000079
C74	C	0.108000	0.178833	0.333412
C75	C	0.441334	0.512166	0.666745
C76	C	-0.274041	-0.091785	0.000094
C77	C	0.059292	0.241548	0.333428
C78	C	0.392625	0.574881	0.666761
C79	C	-0.359639	-0.093042	0.000085
C80	C	-0.026305	0.240291	0.333418
C81	C	0.307028	0.573624	0.666752
C82	C	-0.427862	-0.094049	0.000077
C83	C	-0.094529	0.239284	0.333411
C84	C	0.238804	0.572617	0.666744
C85	C	-0.887792	-0.220548	0.000064
C86	C	-0.554458	0.112785	0.333398
C87	C	-0.221125	0.446119	0.666731
C88	C	-0.889022	-0.297653	0.000053
C89	C	-0.555688	0.035680	0.333386
C90	C	-0.222355	0.369014	0.666720
N91	N	-0.893727	-0.093540	0.178239
N92	N	-0.560393	0.239793	0.511573
N93	N	-0.227060	0.573126	0.844906
C94	C	-0.966874	0.155172	0.000120
C95	C	-0.633540	0.488505	0.333453
C96	C	-0.300207	0.821838	0.666787
C97	C	-0.965718	0.227620	0.000108
C98	C	-0.632385	0.560954	0.333441
C99	C	-0.299051	0.894287	0.666775
C100	C	-0.896163	0.255450	0.000099
C101	C	-0.562830	0.588783	0.333433
C102	C	-0.229496	0.922117	0.666766
C103	C	-0.827759	0.210825	0.000083
C104	C	-0.494425	0.544158	0.333417
C105	C	-0.161092	0.877492	0.666750
C106	C	-0.828916	0.138378	0.000088
C107	C	-0.495583	0.471711	0.333421
C108	C	-0.162250	0.805045	0.666755
C109	C	-0.841477	0.363804	0.043944
C110	C	-0.508144	0.697137	0.377277
C111	C	-0.174811	1.030471	0.710610
C112	C	-0.840323	0.436250	0.043944
C113	C	-0.506989	0.769583	0.377277
C114	C	-0.173656	1.102917	0.710611
C115	C	-0.892589	0.478900	0.000082
C116	C	-0.559256	0.812233	0.333415
C117	C	-0.225923	1.145567	0.666749
C118	C	-0.946024	0.449097	-0.043770
C119	C	-0.612690	0.782430	0.289563
C120	C	-0.279357	1.115763	0.622896
C121	C	-0.947182	0.376650	-0.043766
C122	C	-0.613848	0.709983	0.289568
C123	C	-0.280515	1.043316	0.622901
C124	C	-0.894900	0.334006	0.000094
C125	C	-0.561567	0.667339	0.333427
C126	C	-0.228233	1.000672	0.666761
C127	C	-0.959736	0.602073	0.000080
C128	C	-0.626403	0.935406	0.333413
C129	C	-0.293070	1.268739	0.666746
C130	C	-0.958578	0.674522	0.000063
C131	C	-0.625244	1.007855	0.333396
C132	C	-0.291911	1.341189	0.666730
C133	C	-0.820616	0.657725	0.000046
C134	C	-0.487283	0.991059	0.333379
C135	C	-0.153949	1.324392	0.666713
C136	C	-0.821777	0.585277	0.000055
C137	C	-0.488443	0.918611	0.333388
C138	C	-0.155110	1.251944	0.666722
C139	C	-0.891339	0.557456	0.000075
C140	C	-0.558006	0.890789	0.333409
C141	C	-0.224672	1.224122	0.666742
N142	N	-0.893780	-0.093551	-0.178071
N143	N	-0.560446	0.239782	0.155262
N144	N	-0.227113	0.573116	0.488595
C145	C	-0.945358	-0.046256	0.217639
C146	C	-0.612025	0.287077	0.550972
C147	C	-0.278692	0.620411	0.884305
C148	C	-0.945363	-0.046253	0.296441
C149	C	-0.612029	0.287081	0.629774
C150	C	-0.278696	0.620414	0.963107
C151	C	-0.893743	-0.093546	0.335840
C152	C	-0.560409	0.239788	0.669173
C153	C	-0.227076	0.573121	1.002506
C154	C	-0.842101	-0.140833	0.296431
C155	C	-0.508768	0.192500	0.629764
C156	C	-0.175434	0.525833	0.963097
C157	C	-0.842093	-0.140831	0.217630
C158	C	-0.508760	0.192503	0.550964
C159	C	-0.175426	0.525836	0.884297
C160	C	-0.883610	-0.156821	0.460667
C161	C	-0.550277	0.176512	0.794001
C162	C	-0.216943	0.509845	1.127334
C163	C	-0.883623	-0.156825	0.539466
C164	C	-0.550290	0.176508	0.872799
C165	C	-0.216957	0.509842	1.206133
C166	C	-0.893763	-0.093554	0.578886
C167	C	-0.560429	0.239779	0.912219
C168	C	-0.227096	0.573113	1.245553
C169	C	-0.903905	-0.030277	0.539498
C170	C	-0.570572	0.303057	0.872831
C171	C	-0.237238	0.636390	1.206164
C172	C	-0.903897	-0.030274	0.460697
C173	C	-0.570564	0.303059	0.794031
C174	C	-0.237230	0.636393	1.127364
C175	C	-0.893745	-0.093554	0.421286
C176	C	-0.560412	0.239780	0.754619
C177	C	-0.227078	0.573113	1.087952
C178	C	-0.945402	-0.046263	0.703732
C179	C	-0.612069	0.287071	1.037065
C180	C	-0.278736	0.620404	1.370398
C181	C	-0.945401	-0.046258	0.782535
C182	C	-0.612068	0.287075	1.115868
C183	C	-0.278735	0.620408	1.449202
C184	C	-0.842143	-0.140845	0.782524
C185	C	-0.508810	0.192488	1.115857
C186	C	-0.175476	0.525822	1.449190
C187	C	-0.842140	-0.140843	0.703722
C188	C	-0.508807	0.192490	1.037055
C189	C	-0.175474	0.525823	1.370388
C190	C	-0.893774	-0.093553	0.664331
C191	C	-0.560441	0.239781	0.997664
C192	C	-0.227107	0.573114	1.330997
H193	H	-0.647238	-0.212346	0.000037
H194	H	-0.313905	0.120988	0.333371
H195	H	0.019428	0.454321	0.666704
F196	F	-1.033769	0.572460	0.000105
F197	F	-0.700436	0.905794	0.333438
F198	F	-0.367102	1.239127	0.666772
H199	H	-0.796810	0.460509	0.079647
H200	H	-0.463476	0.793843	0.412980
H201	H	-0.130143	1.127176	0.746313
H202	H	-1.014276	0.710848	0.000068
H203	H	-0.680942	1.044181	0.333402
H204	H	-0.347609	1.377515	0.666735
H205	H	-0.800110	-0.179349	0.814602
H206	H	-0.466777	0.153984	1.147935
H207	H	-0.133443	0.487318	1.481268
F208	F	-1.038517	0.275112	0.000119
F209	F	-0.705183	0.608445	0.333453
F210	F	-0.371850	0.941779	0.666786
F211	F	-1.000353	0.004074	0.824468
F212	F	-0.667020	0.337407	1.157802
F213	F	-0.333687	0.670740	1.491135
F214	F	-1.004045	0.344933	-0.090439
F215	F	-0.670712	0.678266	0.242895
F216	F	-0.337379	1.011600	0.576228
H217	H	-0.504033	-0.210242	0.000051
H218	H	-0.170700	0.123091	0.333384
H219	H	0.162634	0.456424	0.666717
H220	H	-0.283467	0.023152	0.000118
H221	H	0.049867	0.356485	0.333451
H222	H	0.383200	0.689819	0.666784
F223	F	-0.753733	0.240444	0.000069
F224	F	-0.420400	0.573778	0.333403
F225	F	-0.087066	0.907111	0.666736
F226	F	-0.914685	0.037068	0.418780
F227	F	-0.581351	0.370402	0.752113
F228	F	-0.248018	0.703735	1.085447
H229	H	-0.800100	-0.179349	0.671640
H230	H	-0.466767	0.153984	1.004974
H231	H	-0.133433	0.487318	1.338307
H232	H	-0.798914	0.329084	0.079665
H233	H	-0.465580	0.662417	0.412999
H234	H	-0.132247	0.995750	0.746332
H235	H	-0.106724	-0.204407	0.000074
H236	H	0.226609	0.128926	0.333408
H237	H	0.559942	0.462259	0.666741
F238	F	-0.756117	0.090893	0.000075
F239	F	-0.422784	0.424226	0.333408
F240	F	-0.089451	0.757560	0.666742
F241	F	-0.132699	0.041222	0.000122
F242	F	0.200634	0.374555	0.333455
F243	F	0.533967	0.707889	0.666788
F244	F	-1.001654	0.494482	-0.090456
F245	F	-0.668321	0.827816	0.242877
F246	F	-0.334987	1.161149	0.576211
F247	F	-0.257502	-0.222480	0.000059
F248	F	0.075831	0.110854	0.333392
F249	F	0.409164	0.444187	0.666726
H250	H	-0.912161	0.021245	0.571592
H251	H	-0.578828	0.354578	0.904925
H252	H	-0.245495	0.687911	1.238258
F253	F	-1.000308	0.004076	0.175717
F254	F	-0.666974	0.337410	0.509051
F255	F	-0.333641	0.670743	0.842384
H256	H	-0.537553	0.019413	0.000107
H257	H	-0.204220	0.352746	0.333441
H258	H	0.129113	0.686080	0.666774
F259	F	-1.000352	0.004071	0.661808
F260	F	-0.667019	0.337404	0.995141
F261	F	-0.333685	0.670738	1.328474
F262	F	-0.746590	0.687339	0.000033
F263	F	-0.413256	1.020672	0.333366
F264	F	-0.079923	1.354006	0.666700
F265	F	-0.692954	0.032995	0.000093
F266	F	-0.359620	0.366329	0.333427
F267	F	-0.026287	0.699662	0.666760
H268	H	-1.023517	0.132524	0.000134
H269	H	-0.690183	0.465858	0.333467
H270	H	-0.356850	0.799191	0.666801
H271	H	-0.766082	0.548950	0.000050
H272	H	-0.432748	0.882284	0.333383
H273	H	-0.099415	1.215617	0.666716
F274	F	-1.000320	0.004076	0.338379
F275	F	-0.666986	0.337409	0.671713
F276	F	-0.333653	0.670743	1.005046
H277	H	-0.875370	-0.208349	0.571530
H278	H	-0.542036	0.124984	0.904864
H279	H	-0.208703	0.458318	1.238197
H280	H	-0.875340	-0.208348	0.428578
H281	H	-0.542007	0.124986	0.761911
H282	H	-0.208673	0.458319	1.095245
H283	H	-0.800070	-0.179339	0.328514
H284	H	-0.466736	0.153994	0.661847
H285	H	-0.133403	0.487328	0.995180
F286	F	-0.787137	-0.191159	0.175697
F287	F	-0.453804	0.142174	0.509030
F288	F	-0.120471	0.475507	0.842363
