data_functionalizedCrystal
_audit_creation_method	'MofGen! by Chris Wilmer'
_symmetry_space_group_name_H-M	'P1'
_symmetry_Int_Tables_number	1
_symmetry_cell_setting	triclinic
loop_
_symmetry_equiv_pos_as_xyz
  x,y,z
_cell_length_a	10.540535
_cell_length_b	19.188930
_cell_length_c	9.616153
_cell_angle_alpha	89.992615
_cell_angle_beta	89.995499
_cell_angle_gamma	83.834212
loop_
_atom_site_label
_atom_site_type_symbol
_atom_site_fract_x
_atom_site_fract_y
_atom_site_fract_z
O1	O	1.683728	0.098374	-0.115587
O2	O	1.314110	0.107647	-0.115608
O3	O	1.509585	0.001426	-0.115570
O4	O	1.488252	0.204595	-0.115626
O5	O	1.509558	0.001428	0.115721
O6	O	1.314083	0.107649	0.115683
O7	O	1.683701	0.098376	0.115704
Zn8	Zn	1.498888	0.103013	0.152416
Zn9	Zn	1.498923	0.103010	-0.152320
O10	O	1.488226	0.204597	0.115666
C11	C	1.266809	0.106953	0.000035
C12	C	1.125906	0.104875	0.000028
C13	C	1.090944	0.027320	0.000055
C14	C	0.944392	0.025133	0.000594
C15	C	0.915775	0.140278	0.131857
C16	C	1.062504	0.141929	0.131953
C17	C	1.062393	0.143055	-0.131078
C18	C	0.916126	0.139468	-0.132796
C19	C	1.508881	-0.024589	0.000080
C20	C	1.506807	-0.102107	0.000092
C21	C	1.621506	-0.146267	0.000105
C22	C	1.619558	-0.219104	0.000082
C23	C	1.502904	-0.247777	0.000075
C24	C	1.388190	-0.203607	0.000054
C25	C	1.390142	-0.130772	0.000062
N26	N	1.413727	-0.356375	0.078782
N27	N	1.411881	-0.425566	0.078777
C28	C	1.497017	-0.467225	0.000046
N29	N	1.584088	-0.437081	-0.078662
N30	N	1.585938	-0.367884	-0.078651
C31	C	1.500775	-0.326754	0.000065
C32	C	1.609611	-0.590364	0.000033
C33	C	1.607658	-0.663202	0.000002
C34	C	1.376288	-0.647703	-0.000013
C35	C	1.378244	-0.574867	0.000004
C36	C	1.494909	-0.546202	0.000034
C37	C	1.731002	0.099069	0.000058
C38	C	1.871905	0.101148	0.000055
C39	C	1.488930	0.230612	0.000013
C40	C	1.491004	0.308130	-0.000008
N41	N	1.498873	0.103015	0.360391
N42	N	1.498948	0.103003	-0.360295
C43	C	1.393995	0.159645	0.580740
C44	C	1.394219	0.159857	0.419573
C45	C	1.631232	0.119586	0.418842
C46	C	1.630658	0.119987	0.580060
C47	C	1.472718	0.029626	0.580320
C48	C	1.469661	0.030102	0.419093
H49	H	1.133580	-0.002462	-0.094448
O50	O	1.254527	-0.527235	0.000006
H51	H	1.275481	-0.471771	0.000002
O52	O	1.116488	0.106930	0.262977
H53	H	1.037755	0.088985	0.325669
H54	H	0.865856	0.194946	-0.141180
O55	O	1.415810	0.231353	0.634346
H56	H	1.501079	0.226826	0.702799
O57	O	1.735437	-0.559441	0.000049
H58	H	1.741861	-0.526613	-0.094210
O59	O	1.661354	0.190897	0.629838
H60	H	1.661258	0.191886	0.745246
O61	O	1.743277	-0.266743	0.000116
H62	H	1.722317	-0.322206	0.000103
O63	O	1.091369	0.217234	0.139389
H64	H	1.000562	0.252312	0.142911
H65	H	0.915740	-0.005470	-0.093866
H66	H	1.135036	-0.001962	0.094449
O67	O	1.262373	-0.234533	0.000047
H68	H	1.182939	-0.191585	0.000030
O69	O	1.737189	0.067472	0.631743
H70	H	1.788895	0.041907	0.541583
H71	H	1.701063	-0.699157	0.000005
H72	H	0.867185	0.196247	0.136372
H73	H	1.295822	0.149887	0.380055
H74	H	1.083321	0.200115	-0.132368
H75	H	1.281306	-0.671048	-0.000026
O76	O	1.263237	0.146657	0.632161
H77	H	1.271649	0.099695	0.700301
O78	O	1.266421	-0.083140	0.000057
H79	H	1.287377	-0.027677	0.000061
O80	O	1.416346	0.231964	0.368430
H81	H	1.426942	0.266818	0.458850
O82	O	1.747331	-0.115348	0.000098
H83	H	1.826762	-0.158297	0.000083
H84	H	1.654963	0.172514	0.378439
H85	H	0.885453	0.113434	0.230337
H86	H	1.711171	0.079457	0.380505
H87	H	1.378329	0.013854	0.621057
O88	O	1.340687	0.013460	0.368519
H89	H	1.297563	0.056929	0.301840
H90	H	0.916599	-0.005318	0.095649
O91	O	1.564385	-0.028418	0.365780
H92	H	1.634078	-0.006350	0.296304
H93	H	1.549259	-0.012533	0.618452
O94	O	1.119333	0.110990	-0.263460
H95	H	1.163008	0.151528	-0.323937
O96	O	0.879074	0.101761	-0.261971
H97	H	0.830084	0.055664	-0.231681
