data_functionalizedCrystal
_audit_creation_method	'MofGen! by Chris Wilmer'
_symmetry_space_group_name_H-M	'P1'
_symmetry_Int_Tables_number	1
_symmetry_cell_setting	triclinic
loop_
_symmetry_equiv_pos_as_xyz
  x,y,z
_cell_length_a	6.817900
_cell_length_b	11.412360
_cell_length_c	11.452834
_cell_angle_alpha	87.996872
_cell_angle_beta	108.697278
_cell_angle_gamma	71.567349
loop_
_atom_site_label
_atom_site_type_symbol
_atom_site_fract_x
_atom_site_fract_y
_atom_site_fract_z
V1	V	-4.077171	0.089937	-0.399767
O2	O	-4.016561	-0.089340	-0.354412
O3	O	-4.073703	0.260098	-0.433334
O4	O	-4.030061	0.051249	-0.557557
O5	O	-4.060506	0.120954	-0.229329
V6	V	-4.554810	0.072902	-0.374971
O7	O	-4.351337	0.127307	-0.454158
O8	O	-4.730841	0.035532	-0.320580
O9	O	-4.335071	-0.097259	-0.341404
O10	O	-4.732816	0.252179	-0.420326
O11	O	-4.688872	0.041885	-0.545409
O12	O	-4.378713	0.111589	-0.217181
C13	C	-3.929593	0.302745	-0.436395
C14	C	-4.008054	0.441613	-0.464892
C15	C	-3.999013	0.509661	-0.372651
C16	C	-4.080105	0.653188	-0.402102
C17	C	-3.873922	0.036337	-0.594851
C18	C	-3.916985	0.005831	-0.724084
C19	C	-4.149498	0.860102	-0.338341
C20	C	-4.071058	0.721234	-0.309849
C21	C	-4.003419	0.097176	-0.820579
C22	C	-4.047928	0.065649	-0.954149
C23	C	-4.198196	0.126508	-0.179881
C24	C	-4.134369	0.157007	-0.050646
H25	H	-3.931250	0.461662	-0.271878
H26	H	-4.006886	-0.035901	-0.970415
H27	H	-4.175429	0.258558	-1.034383
H28	H	-4.147886	0.701183	-0.502883
H29	H	-4.003291	0.673242	-0.209068
H30	H	-4.044478	0.198720	-0.804307
H31	H	-4.075834	0.489612	-0.565665
H32	H	-3.875949	-0.095712	-0.740357
