data_functionalizedCrystal
_audit_creation_method	'MofGen! by Chris Wilmer'
_symmetry_space_group_name_H-M	'P1'
_symmetry_Int_Tables_number	1
_symmetry_cell_setting	triclinic
loop_
_symmetry_equiv_pos_as_xyz
  x,y,z
_cell_length_a	14.446369
_cell_length_b	14.446369
_cell_length_c	14.446369
_cell_angle_alpha	59.999833
_cell_angle_beta	90.002259
_cell_angle_gamma	59.999699
loop_
_atom_site_label
_atom_site_type_symbol
_atom_site_fract_x
_atom_site_fract_y
_atom_site_fract_z
Zr1	Zr	0.891778	1.013188	-0.121488
O2	O	0.743969	1.206310	-0.269305
O3	O	0.937089	0.820068	-0.076168
O4	O	0.937088	1.013180	-0.269289
O5	O	0.743971	1.013204	0.076146
O6	O	1.089425	1.013172	-0.269283
O7	O	0.743970	1.013198	-0.076184
O8	O	1.089426	0.667730	0.076174
O9	O	0.743971	1.358646	-0.269312
O10	O	1.070102	0.899494	-0.056843
O11	O	0.956416	0.899505	0.056835
O12	O	0.956415	1.126869	-0.170540
O13	O	0.842729	1.126880	-0.056862
Zr14	Zr	1.134741	1.013184	0.121470
Zr15	Zr	1.134739	1.013175	-0.121479
Zr16	Zr	0.891781	1.013197	0.121461
Zr17	Zr	0.891781	1.256146	-0.121499
Zr18	Zr	1.134739	0.770226	0.121481
O19	O	1.089431	1.206304	0.076150
O20	O	1.089427	1.206291	-0.269292
O21	O	0.743973	1.206323	0.076137
O22	O	1.282551	0.820062	0.269286
O23	O	1.282547	0.820049	-0.076155
O24	O	0.937093	0.820081	0.269274
O25	O	1.282549	1.013168	-0.076164
O26	O	1.089431	1.013192	0.269270
O27	O	0.937094	1.013201	0.269265
O28	O	1.282550	1.013174	0.076166
O29	O	0.937091	1.358635	-0.269305
O30	O	1.089428	0.667737	0.269286
O31	O	1.282549	0.667727	0.269293
O32	O	1.282547	0.667719	0.076182
O33	O	0.743973	1.358653	-0.076200
O34	O	0.937094	1.358642	-0.076193
O35	O	1.070104	0.899503	0.170521
O36	O	1.183791	0.899492	0.056843
O37	O	1.070104	1.126867	-0.056853
O38	O	0.956418	1.126878	0.056825
C39	C	1.013257	0.709283	0.000005
C40	C	1.013256	0.606141	0.000009
C41	C	0.941898	0.459138	0.072035
C42	C	0.941510	0.566758	0.071743
C43	C	0.960948	0.655135	-0.123528
C44	C	0.960412	0.547902	-0.123154
C45	C	1.136973	0.372678	0.050459
C46	C	1.136791	0.478829	0.052980
C47	C	0.709354	1.013203	-0.000020
C48	C	0.606211	1.013208	-0.000024
C49	C	0.387843	1.156599	-0.071371
C50	C	0.495074	1.156695	-0.071772
C51	C	0.602886	0.941975	-0.052320
C52	C	0.495117	0.942885	-0.052843
C53	C	0.496483	0.939939	0.123709
C54	C	0.602452	0.942641	0.123514
C55	C	1.317166	1.013169	0.000002
C56	C	1.420309	1.013164	0.000006
C57	C	1.013257	1.013175	-0.303901
C58	C	1.013255	1.013171	-0.407039
C59	C	1.013263	1.317089	-0.000023
C60	C	1.013264	1.420231	-0.000028
C61	C	1.084970	0.869751	-0.374610
C62	C	1.085358	0.869699	-0.481865
C63	C	1.065186	1.084837	-0.589833
C64	C	1.065723	1.083883	-0.482042
C65	C	0.889581	1.085998	-0.483007
C66	C	0.889773	1.083333	-0.588996
C67	C	1.013263	1.013198	0.303883
C68	C	1.013264	1.013202	0.407021
C69	C	1.317163	0.709266	0.000016
C70	C	1.420305	0.606118	0.000024
C71	C	1.013260	0.709294	0.303897
C72	C	1.013261	0.606156	0.407040
C73	C	1.317167	0.709278	0.303908
C74	C	1.420310	0.606134	0.407054
C75	C	0.709353	1.317095	-0.303926
C76	C	0.606210	1.420238	-0.407073
C77	C	0.709357	1.317106	-0.000034
C78	C	0.606215	1.420254	-0.000043
C79	C	1.013259	1.317078	-0.303915
C80	C	1.013259	1.420216	-0.407058
C81	C	1.638674	0.459796	0.071364
C82	C	1.531443	0.566725	0.071766
C83	C	1.423633	0.479262	0.052327
C84	C	1.531401	0.371879	0.052849
C85	C	1.530027	0.546851	-0.123711
C86	C	1.424059	0.655329	-0.123515
C87	C	0.941211	0.459845	0.482027
C88	C	0.941515	0.566767	0.374692
C89	C	1.136793	0.479295	0.481604
C90	C	1.136406	0.371919	0.588469
C91	C	0.962801	0.546901	0.590040
C92	C	0.960293	0.655373	0.481363
C93	C	1.495297	0.459796	0.625423
C94	C	1.387963	0.566742	0.518187
C95	C	1.494852	0.479281	0.410374
C96	C	1.601717	0.371881	0.518147
C97	C	1.603333	0.546825	0.516800
C98	C	1.494655	0.655320	0.410827
H99	H	1.180676	0.278933	0.140028
O100	O	1.596293	0.599258	-0.181557
H101	H	1.598108	0.600283	-0.258862
O102	O	1.211403	0.332220	0.692565
H103	H	1.281001	0.226300	0.741380
H104	H	1.175660	0.814023	-0.319780
O105	O	0.820638	0.684404	0.025354
H106	H	0.801434	0.704071	0.090500
H107	H	1.333702	0.656089	0.519806
H108	H	1.192815	0.501540	0.508836
O109	O	1.601339	0.251679	0.584829
H110	H	1.678679	0.167880	0.593022
O111	O	1.190710	0.428195	0.413267
H112	H	1.139667	0.404674	0.384011
H113	H	0.521771	0.837649	-0.004216
H114	H	1.155309	1.035687	-0.592132
H115	H	0.873210	0.586478	0.594152
H116	H	1.190395	0.346698	-0.001778
H117	H	1.175869	0.439229	0.143991
O118	O	1.706935	0.513987	0.480441
H119	H	1.756313	0.537772	0.511748
H120	H	1.156719	1.033567	-0.431853
H121	H	0.976597	0.530049	0.162712
H122	H	1.443231	0.440743	0.408228
O123	O	0.605689	1.007508	-0.171763
H124	H	0.684701	1.003002	-0.170527
O125	O	1.000989	1.223282	-0.517306
H126	H	0.969446	1.291076	-0.611203
H127	H	1.334162	0.529294	0.520631
H128	H	0.850982	1.031093	-0.588341
O129	O	0.813088	1.221983	-0.693808
H130	H	0.741726	1.233509	-0.738736
O131	O	1.598098	0.251662	0.173427
H132	H	1.675573	0.173925	0.174996
H133	H	0.850550	0.656121	0.320416
H134	H	0.851184	0.494904	0.037326
O135	O	1.189902	0.251698	0.588122
H136	H	1.278329	0.216221	0.589217
H137	H	1.050361	0.813143	-0.320511
H138	H	0.850014	0.497089	0.479687
O139	O	1.534681	0.517097	0.192640
H140	H	1.611669	0.494279	0.240690
O141	O	0.839744	0.775254	0.413251
H142	H	0.817636	0.799698	0.326821
H143	H	1.010431	0.683916	-0.179542
H144	H	1.680300	0.341914	0.491498
O145	O	1.206211	0.795630	-0.478829
H146	H	1.225688	0.711179	-0.479262
O147	O	0.841480	0.777288	-0.177143
H148	H	0.835581	0.859083	-0.254552
O149	O	1.492204	0.509108	0.696909
H150	H	1.488473	0.446174	0.780183
H151	H	1.015438	1.190364	-0.668090
O152	O	0.430226	1.000745	0.181572
H153	H	0.428427	0.926258	0.258875
O154	O	1.493888	0.341049	0.698225
H155	H	1.571879	0.253941	0.711390
O156	O	1.530919	0.508734	0.306702
H157	H	1.496010	0.614352	0.251577
H158	H	0.846167	1.039769	-0.432838
O159	O	0.315021	1.230820	-0.191527
H160	H	0.357993	1.263461	-0.250912
H161	H	0.976799	0.370271	0.163230
O162	O	0.839833	0.601797	-0.176682
H163	H	0.782452	0.704052	-0.202585
O164	O	1.024797	0.518800	-0.198151
H165	H	1.056171	0.581316	-0.234533
O166	O	1.213168	0.507284	-0.009311
H167	H	1.164051	0.613082	-0.079315
O168	O	1.022595	0.697910	0.515194
H169	H	1.092602	0.684569	0.479409
H170	H	0.493315	1.212869	-0.036967
H171	H	0.975896	0.370177	0.480997
H172	H	0.601935	0.994580	0.162582
H173	H	1.424580	0.745816	-0.162586
H174	H	0.976527	0.529297	0.320909
O175	O	0.707292	0.803966	0.199894
H176	H	0.763964	0.783078	0.150775
H177	H	0.333887	1.212894	-0.036471
O178	O	0.532838	0.799976	0.194497
H179	H	0.496861	0.782586	0.141902
O180	O	1.496111	0.332168	-0.011538
H181	H	1.402219	0.389670	-0.042903
H182	H	1.607464	0.586382	0.566826
H183	H	0.835904	1.191649	-0.510427
O184	O	1.031982	0.514098	0.693636
H185	H	1.029954	0.439975	0.771047
O186	O	0.706572	0.802235	0.013210
H187	H	0.709840	0.748752	0.102577
H188	H	1.533057	0.656074	0.036687
O189	O	1.426567	0.775190	0.411507
H190	H	1.340132	0.799650	0.409162
O191	O	1.318969	0.698458	-0.200022
H192	H	1.262209	0.685338	-0.150948
H193	H	1.692630	0.497033	0.036461
O194	O	0.491835	1.231192	-0.192645
H195	H	0.489787	1.183266	-0.232542
O196	O	0.428410	1.009949	-0.173418
H197	H	0.473274	1.041431	-0.230806
H198	H	1.345365	0.501510	0.002847
H199	H	1.421501	0.440706	0.142492
O200	O	1.528468	0.697879	0.305980
H201	H	1.578242	0.613953	0.299773
O202	O	1.039574	0.794900	-0.479218
H203	H	0.951585	0.842464	-0.477515
O204	O	1.711506	0.341030	0.191514
H205	H	1.668547	0.357240	0.250913
H206	H	1.502578	0.522061	-0.177137
