data_functionalizedCrystal
_audit_creation_method	'MofGen! by Chris Wilmer'
_symmetry_space_group_name_H-M	'P1'
_symmetry_Int_Tables_number	1
_symmetry_cell_setting	triclinic
loop_
_symmetry_equiv_pos_as_xyz
  x,y,z
_cell_length_a	14.044220
_cell_length_b	27.732048
_cell_length_c	13.101039
_cell_angle_alpha	93.329410
_cell_angle_beta	86.340132
_cell_angle_gamma	87.915767
loop_
_atom_site_label
_atom_site_type_symbol
_atom_site_fract_x
_atom_site_fract_y
_atom_site_fract_z
O1	O	1.261246	0.114020	-0.085126
O2	O	0.985339	0.109817	-0.085151
O3	O	1.131860	0.041925	-0.085119
O4	O	1.114725	0.181913	-0.085159
O5	O	1.121348	0.046805	0.085309
O6	O	0.974827	0.114697	0.085276
O7	O	1.250733	0.118900	0.085301
Zn8	Zn	1.111111	0.117574	0.112348
Zn9	Zn	1.124962	0.111144	-0.112198
O10	O	1.104212	0.186793	0.085268
C11	C	0.944796	0.110418	0.000059
C12	C	0.839651	0.104930	0.000051
C13	C	1.126244	0.026341	0.000098
C14	C	1.125160	-0.027364	0.000106
C15	C	0.647135	0.094899	0.000074
C16	C	0.588932	0.133816	0.000067
C17	C	0.481810	0.128235	0.000080
C18	C	0.754268	0.100480	0.000061
C19	C	1.204929	-0.362438	0.000061
C20	C	1.200910	-0.564286	0.000046
O21	O	1.273853	-0.592120	0.000008
N22	N	1.114029	-0.587487	0.000039
C23	C	1.028146	-0.560223	0.000029
O24	O	0.954156	-0.584589	0.000012
C25	C	1.032166	-0.358376	0.000037
C26	C	1.119052	-0.335177	0.000054
C27	C	1.291808	-0.339239	0.000077
C28	C	1.292812	-0.288779	0.000086
C29	C	1.206935	-0.261519	0.000079
C30	C	1.120056	-0.284718	0.000063
C31	C	0.946285	-0.331113	0.000019
C32	C	0.947297	-0.280648	0.000018
C33	C	1.034184	-0.257449	0.000036
C34	C	1.035183	-0.206998	0.000066
N35	N	1.122064	-0.183797	0.000072
C36	C	1.207941	-0.211057	0.000079
C37	C	1.026042	-0.666196	0.000027
C38	C	1.025036	-0.716658	0.000027
C39	C	1.197801	-0.720717	0.000043
C40	C	1.198805	-0.670255	0.000050
C41	C	1.112923	-0.642995	0.000034
C42	C	1.210041	-0.105089	0.000100
C43	C	1.211037	-0.054625	0.000113
C44	C	1.038273	-0.050570	0.000093
C45	C	1.037276	-0.101030	0.000085
C46	C	1.123168	-0.128288	0.000085
O47	O	0.962280	-0.179134	0.000092
O48	O	1.281921	-0.186683	0.000073
C49	C	1.203925	-0.412897	0.000052
C50	C	1.117046	-0.436096	0.000035
C51	C	1.031169	-0.408835	0.000029
C52	C	1.116040	-0.486557	0.000035
C53	C	1.201917	-0.513818	0.000042
C54	C	1.288798	-0.490617	0.000049
C55	C	1.289802	-0.440157	0.000059
C56	C	0.944288	-0.432037	0.000022
C57	C	0.943292	-0.482496	0.000013
C58	C	1.029168	-0.509756	0.000020
C59	C	1.291277	0.118300	0.000088
C60	C	1.396422	0.123787	0.000090
C61	C	1.109828	0.202376	0.000050
C62	C	1.110913	0.256082	0.000034
N63	N	1.101664	0.121962	0.265594
N64	N	1.134415	0.106752	-0.265444
C65	C	1.088813	0.127936	0.474634
C66	C	1.147264	0.100779	0.525523
C67	C	1.140113	0.104104	0.641839
C68	C	1.095962	0.124612	0.358306
H69	H	0.616514	0.057393	0.000090
H70	H	1.281793	-0.035739	0.000130
N71	N	1.216827	0.068500	0.470614
N72	N	1.271812	0.042981	0.518393
H73	H	1.320954	0.020192	0.479612
N74	N	0.856571	-0.404188	0.000010
N75	N	0.842276	-0.377626	-0.071823
H76	H	0.780320	-0.357959	-0.071827
H77	H	1.033404	0.153681	0.518418
H78	H	1.279983	-0.127277	0.000096
N79	N	0.627355	0.180869	0.000052
N80	N	0.715584	0.185396	0.000042
H81	H	0.742725	0.218626	0.000031
N82	N	1.381566	-0.265087	0.000112
N83	N	1.434861	-0.270036	0.071955
H84	H	1.497549	-0.253306	0.071971
N85	N	1.376529	-0.518461	0.000044
N86	N	1.454104	-0.497748	0.000049
H87	H	1.516062	-0.517414	0.000039
H88	H	1.361743	-0.361429	0.000079
H89	H	0.966524	-0.119918	0.000099
H90	H	1.269556	-0.651370	0.000063
N91	N	1.285514	-0.748575	0.000058
N92	N	1.284592	-0.793629	0.000058
H93	H	1.346536	-0.813306	0.000065
H94	H	0.872532	-0.501380	0.000008
H95	H	0.954283	-0.735541	0.000031
H96	H	0.956102	-0.644006	0.000015
H97	H	0.875533	-0.349993	-0.000001
N98	N	0.859560	-0.252812	-0.000010
N99	N	0.781998	-0.273536	-0.000031
H100	H	0.720032	-0.253878	-0.000051
N101	N	0.950568	-0.022710	0.000071
N102	N	0.936310	0.003850	-0.071774
H103	H	0.874369	0.023528	-0.071798
N104	N	1.378563	-0.416472	0.000080
N105	N	1.455225	-0.440825	0.000088
H106	H	1.517918	-0.424101	0.000103
