data_functionalizedCrystal
_audit_creation_method	'MofGen! by Chris Wilmer'
_symmetry_space_group_name_H-M	'P1'
_symmetry_Int_Tables_number	1
_symmetry_cell_setting	triclinic
loop_
_symmetry_equiv_pos_as_xyz
  x,y,z
_cell_length_a	19.805407
_cell_length_b	19.805405
_cell_length_c	19.805398
_cell_angle_alpha	89.972363
_cell_angle_beta	89.982644
_cell_angle_gamma	90.025395
loop_
_atom_site_label
_atom_site_type_symbol
_atom_site_fract_x
_atom_site_fract_y
_atom_site_fract_z
Zn1	Zn	-1.034711	0.269508	0.382738
Zn2	Zn	-1.034633	0.382693	0.269547
Zn3	Zn	-0.921533	0.269522	0.269560
Zn4	Zn	-0.921489	0.382659	0.382691
O5	O	-0.978091	0.326096	0.326134
O6	O	-1.129417	0.284531	0.367738
O7	O	-1.019616	0.367701	0.174832
O8	O	-0.936597	0.174803	0.284599
O9	O	-1.129360	0.367688	0.284576
O10	O	-1.019748	0.174793	0.367751
O11	O	-0.936522	0.284554	0.174842
O12	O	-0.826810	0.284521	0.284553
O13	O	-0.936522	0.367629	0.477414
O14	O	-0.826778	0.367642	0.367669
O15	O	-1.019706	0.284498	0.477449
O16	O	-1.019573	0.477405	0.284530
O17	O	-0.936447	0.477380	0.367656
C18	C	-0.802235	0.326079	0.326108
C19	C	-0.727003	0.326089	0.326112
C20	C	-0.691660	0.369435	0.369320
C21	C	-0.620972	0.369435	0.369328
C22	C	-0.585628	0.326092	0.326124
C23	C	-0.620976	0.282741	0.282914
C24	C	-0.691663	0.282738	0.282910
C25	C	-0.335903	0.282751	0.282929
C26	C	-0.265211	0.282759	0.282935
C27	C	-0.265211	0.369447	0.369346
C28	C	-0.335899	0.369445	0.369343
C29	C	-0.371241	0.326092	0.326136
C30	C	-0.447889	0.326091	0.326129
C31	C	-0.508981	0.326095	0.326127
C32	C	-0.978015	0.501952	0.326101
C33	C	-0.978045	0.577184	0.326110
C34	C	-0.978118	0.326058	0.502677
C35	C	-0.978129	0.326042	0.577909
C36	C	-0.154634	0.326108	0.326154
C37	C	-0.229866	0.326102	0.326146
C38	C	-0.978186	0.149553	0.326182
C39	C	-0.978227	0.074321	0.326202
C40	C	-1.021371	0.612518	0.282871
C41	C	-1.021399	0.683207	0.282886
C42	C	-0.978098	0.718559	0.326137
C43	C	-0.934770	0.683219	0.369380
C44	C	-0.934746	0.612532	0.369368
C45	C	-0.934870	0.968292	0.369430
C46	C	-0.934897	1.038985	0.369438
C47	C	-1.021524	1.038967	0.282949
C48	C	-1.021499	0.968280	0.282936
C49	C	-0.978174	0.932946	0.326182
C50	C	-0.978144	0.856298	0.326166
C51	C	-0.978124	0.795206	0.326150
C52	C	-0.978104	0.326084	0.150278
C53	C	-0.978224	0.325909	0.075046
C54	C	-1.021525	0.282636	1.039719
C55	C	-1.021514	0.282657	0.969031
C56	C	-0.978199	0.325948	0.933671
C57	C	-0.934896	0.369226	0.969003
C58	C	-0.934911	0.369208	1.039690
C59	C	-0.934837	0.369300	0.683929
C60	C	-0.934825	0.369313	0.613237
C61	C	-1.021441	0.282748	0.613270
C62	C	-1.021455	0.282730	0.683958
C63	C	-0.978155	0.326010	0.719283
C64	C	-0.978168	0.325988	0.795932
C65	C	-0.978182	0.325967	0.857024
H66	H	-0.720432	0.404732	0.404500
C67	C	-0.901810	0.483906	0.705629
C68	C	-0.887236	0.416874	0.722744
H69	H	-0.872417	0.513277	0.729589
H70	H	-0.947277	0.493809	0.717224
H71	H	-0.895608	0.490092	0.658466
H72	H	-0.893443	0.410686	0.769906
H73	H	-0.841759	0.406967	0.711153
C74	C	-0.896408	0.407687	0.860631
C75	C	-0.887281	0.416812	0.930136
H76	H	-0.867006	0.437062	0.836639
H77	H	-0.941871	0.417602	0.849051
H78	H	-0.886523	0.362209	0.849065
H79	H	-0.897170	0.462289	0.941703
H80	H	-0.841807	0.406902	0.941721
C81	C	-0.820146	0.705046	0.402251
C82	C	-0.887172	0.722074	0.416925
H83	H	-0.790761	0.729030	0.431608
H84	H	-0.810277	0.716673	0.356773
H85	H	-0.813942	0.657889	0.408433
H86	H	-0.893378	0.769231	0.410739
H87	H	-0.897044	0.710452	0.462415
H88	H	-1.056724	0.247475	0.712744
C89	C	-1.059889	0.244332	0.504926
C90	C	-1.069042	0.235176	0.574438
H91	H	-1.089277	0.214965	0.480956
H92	H	-1.014420	0.234428	0.493342
H93	H	-1.069774	0.289814	0.493338
H94	H	-1.059152	0.189695	0.586027
H95	H	-1.114522	0.245076	0.586027
H96	H	-0.899548	0.404565	0.584449
C97	C	-0.901697	0.590723	0.483944
C98	C	-0.887122	0.573688	0.416898
H99	H	-0.872294	0.566745	0.513289
H100	H	-0.947159	0.579095	0.493883
H101	H	-0.895510	0.637881	0.490132
H102	H	-0.893313	0.526530	0.410709
H103	H	-0.841649	0.585311	0.406956
C104	C	-0.628073	0.455144	0.454724
C105	C	-0.582123	0.417093	0.416812
H106	H	-0.604087	0.484572	0.484034
H107	H	-0.655660	0.425693	0.480674
H108	H	-0.655626	0.480982	0.425172
H109	H	-0.554572	0.391250	0.446364
H110	H	-0.554524	0.446548	0.390860
H111	H	-0.364670	0.247456	0.247742
H112	H	-0.364672	0.404741	0.404522
H113	H	-0.236436	0.247459	0.247753
C114	C	-0.849286	0.454774	1.032561
C115	C	-0.887311	0.416774	1.078524
H116	H	-0.819898	0.484138	1.056537
H117	H	-0.878756	0.480672	1.004989
H118	H	-0.823406	0.425281	1.004995
H119	H	-0.913195	0.446266	1.106088
H120	H	-0.857837	0.390874	1.106108
C121	C	-0.512619	0.244251	0.244550
C122	C	-0.582127	0.235094	0.235425
H123	H	-0.488638	0.214838	0.215228
H124	H	-0.501059	0.234408	0.290041
H125	H	-0.501019	0.289717	0.234558
H126	H	-0.593728	0.189630	0.245423
H127	H	-0.593692	0.244932	0.189924
C128	C	-1.030806	0.533081	0.191816
C129	C	-1.068968	0.573663	0.235327
H130	H	-1.060193	0.509098	0.162462
H131	H	-1.005006	0.501921	0.217565
H132	H	-1.001345	0.560705	0.165905
H133	H	-1.098425	0.546038	0.261241
H134	H	-1.094780	0.604826	0.209575
C135	C	-0.185753	0.378978	0.460389
C136	C	-0.226361	0.417095	0.416850
H137	H	-0.161773	0.408394	0.489716
H138	H	-0.154591	0.353171	0.434661
H139	H	-0.213360	0.349525	0.486328
H140	H	-0.198754	0.446545	0.390907
H141	H	-0.257527	0.442913	0.442581
C142	C	-0.684567	0.197058	0.197483
C143	C	-0.730515	0.235097	0.235409
H144	H	-0.708554	0.167648	0.168155
H145	H	-0.657020	0.171207	0.227021
H146	H	-0.656973	0.226523	0.171545
H147	H	-0.758106	0.205632	0.261351
H148	H	-0.758073	0.260950	0.205868
C149	C	-1.107016	0.676090	0.197383
C150	C	-1.069021	0.722047	0.235353
H151	H	-1.136414	0.700069	0.168034
H152	H	-1.132878	0.648480	0.226890
H153	H	-1.077523	0.648559	0.171464
H154	H	-1.098514	0.749575	0.261276
H155	H	-1.043157	0.749668	0.205842
H156	H	-1.056793	0.247379	1.068505
H157	H	-1.056804	1.067745	0.247739
C158	C	-1.107138	0.975365	0.197450
C159	C	-1.069099	0.929422	0.235397
H160	H	-1.136529	0.951375	0.168105
H161	H	-1.077677	1.002973	0.171534
H162	H	-1.133015	1.002899	0.226977
H163	H	-1.043218	0.901892	0.205869
H164	H	-1.098565	0.901802	0.261315
C165	C	-0.849273	1.031905	0.454948
C166	C	-0.887303	1.077845	0.416988
H167	H	-0.819895	1.055898	0.484304
H168	H	-0.823388	1.004375	0.425434
H169	H	-0.878746	1.004293	0.480858
H170	H	-0.857830	1.105454	0.391074
H171	H	-0.913190	1.105387	0.446506
C172	C	-1.107124	0.197078	0.976164
C173	C	-1.069108	0.235085	0.930200
H174	H	-1.136505	0.167706	0.952190
H175	H	-1.133005	0.226561	1.003729
H176	H	-1.077643	0.171182	1.003738
H177	H	-1.098589	0.260985	0.902629
H178	H	-1.043225	0.205599	0.902623
H179	H	-0.899592	0.939529	0.404641
