data_functionalizedCrystal
_audit_creation_method	'MofGen! by Chris Wilmer'
_symmetry_space_group_name_H-M	'P1'
_symmetry_Int_Tables_number	1
_symmetry_cell_setting	triclinic
loop_
_symmetry_equiv_pos_as_xyz
  x,y,z
_cell_length_a	11.792241
_cell_length_b	19.188925
_cell_length_c	10.868271
_cell_angle_alpha	90.004780
_cell_angle_beta	90.000107
_cell_angle_gamma	83.667982
loop_
_atom_site_label
_atom_site_type_symbol
_atom_site_fract_x
_atom_site_fract_y
_atom_site_fract_z
O1	O	-1.505473	-0.095695	-0.102202
O2	O	-1.005473	0.404305	0.397798
O3	O	-1.174984	-0.105558	-0.102230
O4	O	-0.674984	0.394442	0.397770
O5	O	-1.349769	0.000975	-0.102208
O6	O	-0.849769	0.500975	0.397792
O7	O	-1.330688	-0.202228	-0.102224
O8	O	-0.830688	0.297772	0.397776
O9	O	-1.349755	0.000980	0.102436
O10	O	-0.849755	0.500980	0.602436
O11	O	-1.174970	-0.105554	0.102414
O12	O	-0.674970	0.394446	0.602414
O13	O	-1.505459	-0.095691	0.102443
O14	O	-1.005459	0.404309	0.602443
Zn15	Zn	-1.340212	-0.100622	0.134920
Zn16	Zn	-0.840212	0.399378	0.634920
Zn17	Zn	-1.340231	-0.100627	-0.134708
Zn18	Zn	-0.840231	0.399373	0.365292
O19	O	-1.330674	-0.202224	0.102421
O20	O	-0.830674	0.297776	0.602421
C21	C	-1.132695	-0.104936	0.000088
C22	C	-0.632695	0.395064	0.500088
C23	C	-1.006709	-0.103082	0.000078
C24	C	-0.506709	0.396918	0.500078
C25	C	-1.349145	0.026992	0.000113
C26	C	-0.849145	0.526992	0.500113
C27	C	-1.347293	0.104507	0.000110
C28	C	-0.847293	0.604507	0.500110
C29	C	-1.547747	-0.096313	0.000121
C30	C	-1.047747	0.403687	0.500121
C31	C	-1.673733	-0.098167	0.000124
C32	C	-1.173733	0.401833	0.500124
C33	C	-1.331298	-0.228241	0.000097
C34	C	-0.831298	0.271759	0.500097
C35	C	-1.333150	-0.305756	0.000091
C36	C	-0.833150	0.194244	0.500091
C37	C	-0.776048	-0.099672	0.000113
C38	C	-0.276048	0.400328	0.500113
C39	C	-0.904405	-0.101567	0.000094
C40	C	-0.404405	0.398433	0.500094
C41	C	-1.437452	0.665767	0.000087
C42	C	-0.937452	1.165767	0.500087
C43	C	-1.439201	0.592934	0.000098
C44	C	-0.939201	1.092934	0.500098
C45	C	-1.336643	0.548580	0.000089
C46	C	-0.836643	1.048580	0.500089
C47	C	-1.232327	0.577065	0.000100
C48	C	-0.732327	1.077065	0.500100
C49	C	-1.230581	0.649897	0.000101
C50	C	-0.730581	1.149897	0.500101
N51	N	-1.262400	0.428319	-0.069573
N52	N	-0.762400	0.928319	0.430427
N53	N	-1.264067	0.359132	-0.069576
N54	N	-0.764067	0.859132	0.430424
C55	C	-1.341900	0.329141	0.000089
C56	C	-0.841900	0.829141	0.500089
N57	N	-1.418022	0.370952	0.069742
N58	N	-0.918022	0.870952	0.569742
N59	N	-1.416358	0.440145	0.069740
N60	N	-0.916358	0.940145	0.569740
C61	C	-1.338526	0.469605	0.000089
C62	C	-0.838526	0.969605	0.500089
C63	C	-1.448107	0.221691	0.000099
C64	C	-0.948107	0.721691	0.500099
C65	C	-1.449852	0.148856	0.000118
C66	C	-0.949852	0.648856	0.500118
C67	C	-1.242975	0.132988	0.000107
C68	C	-0.742975	0.632988	0.500107
C69	C	-1.241233	0.205822	0.000101
C70	C	-0.741233	0.705822	0.500101
C71	C	-1.343802	0.250169	0.000090
C72	C	-0.843802	0.750169	0.500090
N73	N	-1.340207	-0.100617	0.318934
N74	N	-0.840207	0.399383	0.818934
N75	N	-1.340244	-0.100626	-0.318722
N76	N	-0.840244	0.399374	0.181278
C77	C	-1.340225	-0.100626	0.569940
C78	C	-0.840225	0.399374	1.069940
C79	C	-1.340211	-0.100623	0.430263
C80	C	-0.840211	0.399377	0.930263
H81	H	-1.520971	0.701870	0.000086
H82	H	-1.020971	1.201870	0.500086
H83	H	-1.148824	0.540948	0.000096
H84	H	-0.648824	1.040948	0.500096
C85	C	-1.126491	0.237148	0.000090
C86	C	-0.626491	0.737148	0.500090
N87	N	-1.040062	0.260741	0.000083
N88	N	-0.540062	0.760741	0.500083
C89	C	-1.115835	0.681222	0.000097
C90	C	-0.615835	1.181222	0.500097
N91	N	-1.029407	0.704817	0.000089
N92	N	-0.529407	1.204817	0.500089
H93	H	-1.531625	0.257800	0.000091
H94	H	-1.031625	0.757800	0.500091
C95	C	-1.564599	0.117532	0.000118
C96	C	-1.064599	0.617532	0.500118
N97	N	-1.651029	0.093939	0.000118
N98	N	-1.151029	0.593939	0.500118
H99	H	-1.159471	0.096876	0.000110
H100	H	-0.659471	0.596876	0.500110
H101	H	-1.524139	0.569743	0.000095
H102	H	-1.024139	1.069743	0.500095
