data_functionalizedCrystal
_audit_creation_method	'MofGen! by Chris Wilmer'
_symmetry_space_group_name_H-M	'P1'
_symmetry_Int_Tables_number	1
_symmetry_cell_setting	triclinic
loop_
_symmetry_equiv_pos_as_xyz
  x,y,z
_cell_length_a	17.019383
_cell_length_b	17.019294
_cell_length_c	15.186229
_cell_angle_alpha	86.117288
_cell_angle_beta	86.120670
_cell_angle_gamma	83.133350
loop_
_atom_site_label
_atom_site_type_symbol
_atom_site_fract_x
_atom_site_fract_y
_atom_site_fract_z
O1	O	1.046551	0.100555	-0.160135
O2	O	1.546551	0.600555	0.339865
O3	O	0.816874	0.113357	-0.143708
O4	O	1.316874	0.613357	0.356292
O5	O	0.938120	-0.007884	-0.143695
O6	O	1.438120	0.492116	0.356305
O7	O	0.925305	0.221796	-0.160148
O8	O	1.425305	0.721796	0.339852
O9	O	0.938112	-0.007885	0.002763
O10	O	1.438112	0.492115	0.502763
O11	O	0.816866	0.113356	0.002750
O12	O	1.316866	0.613356	0.502750
O13	O	1.046542	0.100553	-0.013677
O14	O	1.546542	0.600553	0.486323
Zn15	Zn	0.931703	0.106954	0.017790
Zn16	Zn	1.431703	0.606954	0.517790
Zn17	Zn	0.931714	0.106956	-0.175175
Zn18	Zn	1.431714	0.606956	0.324825
O19	O	0.925297	0.221794	-0.013690
O20	O	1.425297	0.721794	0.486310
C21	C	0.787482	0.112869	-0.068216
C22	C	1.287482	0.612869	0.431784
C23	C	0.699915	0.111407	-0.061472
C24	C	1.199915	0.611407	0.438528
C25	C	0.937630	-0.037273	-0.068201
C26	C	1.437630	0.462727	0.431799
C27	C	0.936172	-0.124842	-0.061453
C28	C	1.436172	0.375158	0.438547
C29	C	0.658772	0.110723	-0.138131
C30	C	1.158772	0.610723	0.361869
C31	C	0.576492	0.109362	-0.131782
C32	C	1.076492	0.609362	0.368218
C33	C	0.535356	0.108679	-0.048773
C34	C	1.035356	0.608679	0.451227
C35	C	0.576504	0.109365	0.027892
C36	C	1.076504	0.609365	0.527892
C37	C	0.658782	0.110732	0.021542
C38	C	1.158782	0.610732	0.521542
C39	C	0.286928	0.104557	-0.025606
C40	C	0.786928	0.604557	0.474394
C41	C	0.204644	0.103188	-0.019262
C42	C	0.704644	0.603188	0.480738
C43	C	0.204638	0.103185	-0.178937
C44	C	0.704638	0.603185	0.321063
C45	C	0.286919	0.104547	-0.185279
C46	C	0.786919	0.604547	0.314721
C47	C	0.328059	0.105238	-0.108615
C48	C	0.828059	0.605238	0.391385
C49	C	0.451252	0.107285	-0.042281
C50	C	0.951252	0.607285	0.457719
C51	C	0.412160	0.106638	-0.115108
C52	C	0.912160	0.606638	0.384892
C53	C	0.935494	-0.165976	-0.138116
C54	C	1.435494	0.334024	0.361884
C55	C	0.934119	-0.248256	-0.131772
C56	C	1.434119	0.251744	0.368228
C57	C	0.933429	-0.289400	-0.048765
C58	C	1.433429	0.210600	0.451235
C59	C	0.934105	-0.248259	0.027905
C60	C	1.434105	0.251741	0.527905
C61	C	0.935474	-0.165981	0.021560
C62	C	1.435474	0.334019	0.521560
C63	C	0.929290	-0.537828	-0.025615
C64	C	1.429290	-0.037828	0.474385
C65	C	0.927923	-0.620113	-0.019276
C66	C	1.427923	-0.120113	0.480724
C67	C	0.927936	-0.620104	-0.178954
C68	C	1.427936	-0.120104	0.321046
C69	C	0.929310	-0.537824	-0.185292
C70	C	1.429310	-0.037824	0.314708
C71	C	0.929982	-0.496690	-0.108622
C72	C	1.429982	0.003310	0.391378
C73	C	0.932026	-0.373503	-0.042279
C74	C	1.432026	0.126497	0.457721
C75	C	0.931378	-0.412588	-0.115109
C76	C	1.431378	0.087412	0.384891
C77	C	1.075935	0.101041	-0.089171
C78	C	1.575935	0.601041	0.410829
C79	C	1.163502	0.102503	-0.095921
C80	C	1.663502	0.602503	0.404079
C81	C	0.925787	0.251183	-0.089186
C82	C	1.425787	0.751183	0.410814
C83	C	0.927245	0.338752	-0.095940
C84	C	1.427245	0.838752	0.404060
N85	N	0.931702	0.106952	0.149483
N86	N	1.431702	0.606952	0.649483
N87	N	0.931721	0.106952	-0.306868
N88	N	1.431721	0.606952	0.193132
C89	C	0.985407	0.053285	0.375209
C90	C	1.485407	0.553285	0.875209
C91	C	0.985410	0.053283	0.467398
C92	C	1.485410	0.553283	0.967398
C93	C	0.878010	0.160622	0.467400
C94	C	1.378010	0.660622	0.967400
C95	C	0.878004	0.160620	0.375213
C96	C	1.378004	0.660620	0.875213
C97	C	0.931707	0.106952	0.329119
C98	C	1.431707	0.606952	0.829119
C99	C	0.931716	0.106952	0.513496
C100	C	1.431716	0.606952	1.013496
C101	C	0.931718	0.106951	0.613452
C102	C	1.431718	0.606951	1.113452
C103	C	0.931704	0.106952	0.229157
C104	C	1.431704	0.606952	0.729157
H105	H	0.692260	0.111276	-0.205726
H106	H	1.192260	0.611276	0.294274
Cl107	Cl	0.933227	-0.299982	0.132259
Cl108	Cl	1.433227	0.200018	0.632259
Cl109	Cl	0.338627	0.105401	-0.289638
Cl110	Cl	0.838627	0.605401	0.210362
Cl111	Cl	0.933267	-0.299965	-0.228155
Cl112	Cl	1.433267	0.200035	0.271845
H113	H	0.927357	-0.653610	0.048322
H114	H	1.427357	-0.153610	0.548322
Cl115	Cl	0.524773	0.108502	-0.228159
Cl116	Cl	1.024773	0.608502	0.271841
H117	H	0.417750	0.106727	0.025306
H118	H	0.917750	0.606727	0.525306
H119	H	0.834287	0.204318	0.504938
H120	H	1.334287	0.704318	1.004938
Cl121	Cl	1.052917	-0.014187	0.317267
Cl122	Cl	1.552917	0.485813	0.817267
H123	H	0.171133	0.102625	-0.241353
H124	H	0.671133	0.602625	0.258647
H125	H	0.171151	0.102654	0.048337
H126	H	0.671151	0.602654	0.548337
Cl127	Cl	0.338636	0.105424	0.070774
Cl128	Cl	0.838636	0.605424	0.570774
H129	H	0.692278	0.111293	0.083966
H130	H	1.192278	0.611293	0.583966
H131	H	0.936015	-0.132488	0.083989
H132	H	1.436015	0.367512	0.583989
H133	H	0.445656	0.107198	-0.182694
H134	H	0.945656	0.607198	0.317306
Cl135	Cl	0.524789	0.108513	0.132248
Cl136	Cl	1.024789	0.608513	0.632248
H137	H	0.834272	0.204322	0.337684
H138	H	1.334272	0.704322	0.837684
H139	H	0.929873	-0.504330	-0.252885
H140	H	1.429873	-0.004330	0.247115
Cl141	Cl	1.052919	-0.014189	0.525338
Cl142	Cl	1.552919	0.485811	1.025338
H143	H	0.931466	-0.407012	0.025307
H144	H	1.431466	0.092988	0.525307
Cl145	Cl	0.936367	-0.114261	-0.242475
Cl146	Cl	1.436367	0.385739	0.257525
Cl147	Cl	0.932251	-0.360863	-0.219458
Cl148	Cl	1.432251	0.139137	0.280542
Cl149	Cl	0.927089	-0.671820	-0.275332
Cl150	Cl	1.427089	-0.171820	0.224668
H151	H	0.929853	-0.504349	0.036814
H152	H	1.429853	-0.004349	0.536814
