data_functionalizedCrystal
_audit_creation_method	'MofGen! by Chris Wilmer'
_symmetry_space_group_name_H-M	'P1'
_symmetry_Int_Tables_number	1
_symmetry_cell_setting	triclinic
loop_
_symmetry_equiv_pos_as_xyz
  x,y,z
_cell_length_a	14.908308
_cell_length_b	12.827893
_cell_length_c	12.827892
_cell_angle_alpha	89.984638
_cell_angle_beta	93.269807
_cell_angle_gamma	86.720010
loop_
_atom_site_label
_atom_site_type_symbol
_atom_site_fract_x
_atom_site_fract_y
_atom_site_fract_z
Zn1	Zn	-0.510065	-1.563545	-0.450111
Zn2	Zn	-0.359216	-1.573531	-0.614795
Zn3	Zn	-0.359228	-1.398878	-0.440069
Zn4	Zn	-0.510030	-1.388774	-0.624808
O5	O	-0.434635	-1.481182	-0.532446
O6	O	-0.490064	-1.711105	-0.471968
O7	O	-0.232976	-1.558771	-0.583225
O8	O	-0.379256	-1.420771	-0.295167
O9	O	-0.379236	-1.718442	-0.592961
O10	O	-0.490075	-1.541751	-0.302544
O11	O	-0.232984	-1.430454	-0.454854
O12	O	-0.379223	-1.251302	-0.464564
O13	O	-0.636277	-1.403550	-0.610027
O14	O	-0.490017	-1.243879	-0.600290
O15	O	-0.636302	-1.531954	-0.481678
O16	O	-0.379203	-1.548974	-0.762358
O17	O	-0.490005	-1.413233	-0.769715
C18	C	-0.434618	-1.209673	-0.532425
C19	C	-0.434632	-1.093519	-0.532442
C20	C	-0.669938	-1.465511	-0.548089
C21	C	-0.770210	-1.458833	-0.554756
C22	C	-0.434619	-1.481118	-0.803955
C23	C	-0.434642	-1.481184	-0.920109
C24	C	-0.958660	-1.579988	-0.433608
C25	C	-1.052874	-1.573716	-0.439868
C26	C	-1.052855	-1.440014	-0.573530
C27	C	-0.958641	-1.446286	-0.567270
C28	C	-0.911546	-1.516276	-0.497307
C29	C	-0.817330	-1.522552	-0.491053
C30	C	-0.817313	-1.388845	-0.624709
C31	C	-0.911527	-1.382574	-0.630969
C32	C	-0.200247	-1.496852	-0.516788
C33	C	-0.099976	-1.503733	-0.509827
C34	C	-0.434653	-1.753751	-0.532468
C35	C	-0.434660	-1.869904	-0.532478
C36	C	-0.489372	-1.038095	-0.599698
C37	C	-0.489387	-0.918043	-0.599717
C38	C	-0.379875	-1.548424	-0.968223
C39	C	-0.379897	-1.548494	-1.088275
C40	C	-0.434671	-1.481274	-0.259878
C41	C	-0.434686	-1.481313	-0.143726
H42	H	-0.920315	-1.636982	-0.376647
C43	C	-0.766211	-1.319784	-0.694049
C44	C	-0.789106	-1.340998	-0.798966
C45	C	-0.742043	-1.277411	-0.862870
H46	H	-0.781614	-1.248513	-0.679910
H47	H	-0.703346	-1.333546	-0.680377
H48	H	-0.851958	-1.327227	-0.812633
H49	H	-0.773701	-1.412257	-0.813137
H50	H	-0.679177	-1.291174	-0.849198
H51	H	-0.757449	-1.206144	-0.848723
H52	H	-0.757564	-1.291803	-0.934064
C53	C	-1.103865	-1.643017	-0.370659
C54	C	-1.042452	-1.705668	-0.308072
C55	C	-1.089390	-1.769532	-0.244310
H56	H	-1.140625	-1.600726	-0.327476
H57	H	-1.140595	-1.686151	-0.413053
H58	H	-1.005737	-1.662539	-0.265682
H59	H	-1.005689	-1.747981	-0.351227
H60	H	-1.126121	-1.812665	-0.286704
H61	H	-1.126149	-1.727232	-0.201134
H62	H	-1.047729	-1.812055	-0.201844
H63	H	-0.536228	-1.079521	-0.657259
C64	C	-1.103942	-1.363850	-0.649346
C65	C	-1.081031	-1.261990	-0.625043
C66	C	-1.128079	-1.191795	-0.694854
H67	H	-1.088538	-1.380007	-0.718576
H68	H	-1.166810	-1.369162	-0.643941
H69	H	-1.018177	-1.256681	-0.630458
H70	H	-1.096437	-1.245800	-0.555825
H71	H	-1.190947	-1.197107	-0.689449
H72	H	-1.112672	-1.207962	-0.764080
H73	H	-1.112547	-1.122675	-0.678368
C74	C	-0.962614	-1.306419	-0.706795
C75	C	-0.939710	-1.204553	-0.682506
C76	C	-0.986759	-1.134372	-0.752330
H77	H	-0.947206	-1.322585	-0.776022
H78	H	-1.025482	-1.311734	-0.701394
H79	H	-0.876856	-1.199241	-0.687917
H80	H	-0.955120	-1.188354	-0.613292
H81	H	-1.049627	-1.139687	-0.746928
H82	H	-0.971347	-1.150548	-0.821552
H83	H	-0.971231	-1.065248	-0.735853
C84	C	-0.317237	-1.625139	-1.143412
C85	C	-0.227926	-1.608427	-1.111101
C86	C	-0.170183	-1.679006	-1.161891
H87	H	-0.330362	-1.694510	-1.126434
H88	H	-0.325516	-1.614966	-1.216768
H89	H	-0.219651	-1.618609	-1.037760
H90	H	-0.214772	-1.539071	-1.128079
H91	H	-0.178462	-1.668833	-1.235248
H92	H	-0.183316	-1.748373	-1.144910
H93	H	-0.109578	-1.667671	-1.139983
H94	H	-0.536249	-0.870394	-0.657300
C95	C	-0.497325	-1.404714	-1.088503
C96	C	-0.555145	-1.460002	-1.029629
C97	C	-0.612869	-1.389475	-0.978746
H98	H	-0.462845	-1.361502	-1.043601
H99	H	-0.531756	-1.362590	-1.138836
H100	H	-0.520719	-1.502108	-0.979302
H101	H	-0.589645	-1.503209	-1.074507
H102	H	-0.647299	-1.347351	-1.029079
H103	H	-0.578381	-1.346267	-0.933849
H104	H	-0.652112	-1.426977	-0.938802
C105	C	-0.766359	-1.598564	-0.414992
C106	C	-0.827789	-1.652995	-0.360525
C107	C	-0.780871	-1.723015	-0.290434
H108	H	-0.729600	-1.646628	-0.452405
H109	H	-0.729628	-1.561068	-0.366963
H110	H	-0.864504	-1.690490	-0.408547
H111	H	-0.864550	-1.604959	-0.323091
H112	H	-0.744140	-1.685519	-0.242406
H113	H	-0.744113	-1.771072	-0.327856
H114	H	-0.822544	-1.759948	-0.253464
C115	C	-0.372112	-0.933562	-0.455860
C116	C	-0.314259	-1.000073	-0.511128
C117	C	-0.256635	-1.058749	-0.440584
H118	H	-0.337692	-0.887913	-0.413647
H119	H	-0.406691	-0.973914	-0.412738
H120	H	-0.279683	-0.959724	-0.554232
H121	H	-0.348653	-1.045743	-0.553337
H122	H	-0.291215	-1.099101	-0.397463
H123	H	-0.222222	-1.013092	-0.398375
H124	H	-0.217381	-1.103890	-0.478073
C125	C	-0.317215	-1.624950	-0.904586
C126	C	-0.259372	-1.569589	-0.838174
C127	C	-0.201629	-1.640051	-0.779548
H128	H	-0.351680	-1.668111	-0.864159
H129	H	-0.282803	-1.667131	-0.950301
H130	H	-0.293781	-1.527426	-0.792464
H131	H	-0.224888	-1.526432	-0.878573
H132	H	-0.167217	-1.682232	-0.825263
H133	H	-0.236101	-1.683209	-0.739127
H134	H	-0.162371	-1.602499	-0.734487
H135	H	-0.387782	-1.052093	-0.474873
H136	H	-0.481551	-1.423673	-0.967795
