data_functionalizedCrystal
_audit_creation_method	'MofGen! by Chris Wilmer'
_symmetry_space_group_name_H-M	'P1'
_symmetry_Int_Tables_number	1
_symmetry_cell_setting	triclinic
loop_
_symmetry_equiv_pos_as_xyz
  x,y,z
_cell_length_a	35.277628
_cell_length_b	35.288095
_cell_length_c	35.277682
_cell_angle_alpha	59.997929
_cell_angle_beta	89.998958
_cell_angle_gamma	60.000166
loop_
_atom_site_label
_atom_site_type_symbol
_atom_site_fract_x
_atom_site_fract_y
_atom_site_fract_z
O1	O	-0.323087	-0.271234	0.011271
O2	O	-0.267964	-0.193634	-0.011228
O3	O	-0.267962	-0.271233	0.066395
O4	O	-0.323089	-0.193635	-0.066351
O5	O	-0.204915	-0.334261	0.066394
O6	O	-0.204918	-0.256661	-0.011228
O7	O	-0.260040	-0.334261	0.011271
Zn8	Zn	-0.222469	-0.305468	0.000022
Zn9	Zn	-0.305535	-0.222427	0.000022
O10	O	-0.260043	-0.256662	-0.066351
C11	C	-0.163481	-0.071298	-0.023519
C12	C	-0.186872	-0.024531	-0.020298
C13	C	-0.117860	-0.093995	-0.023838
C14	C	-0.163483	-0.139918	-0.023524
C15	C	-0.186875	-0.166518	-0.020308
C16	C	-0.117862	-0.162510	-0.023843
C17	C	-0.094838	-0.139921	-0.023519
C18	C	-0.044836	-0.166525	-0.020298
C19	C	-0.186401	-0.093991	-0.023843
C20	C	-0.004439	-0.188019	-0.017694
C21	C	-0.205769	0.013252	-0.017695
C22	C	-0.205774	-0.188010	-0.017709
C23	C	0.046241	-0.214983	-0.014429
C24	C	-0.229477	0.060653	-0.014430
C25	C	-0.229483	-0.214971	-0.014450
C26	C	-0.500364	-0.466062	0.034181
C27	C	-0.477341	-0.511990	0.034503
C28	C	-0.431722	-0.466060	0.034178
C29	C	-0.408804	-0.511988	0.034500
C30	C	-0.431721	-0.534685	0.034181
C31	C	-0.477342	-0.443470	0.034500
C32	C	-0.665895	-0.342485	0.021756
C33	C	-0.712772	-0.317221	0.018243
C34	C	-0.736287	-0.338907	0.016481
C35	C	-0.787116	-0.311512	0.012664
C36	C	-0.712921	-0.385861	0.018236
C37	C	-0.666047	-0.411125	0.021755
C38	C	-0.642533	-0.389434	0.023515
C39	C	-0.389805	-0.687746	0.021758
C40	C	-0.368199	-0.731097	0.018245
C41	C	-0.322995	-0.752841	0.016478
C42	C	-0.299567	-0.799839	0.012662
C43	C	-0.299393	-0.731235	0.018230
C44	C	-0.320995	-0.687892	0.021751
C45	C	-0.366205	-0.666148	0.023512
C46	C	-0.389808	-0.342477	0.021744
C47	C	-0.368205	-0.317208	0.018222
C48	C	-0.322998	-0.338892	0.016457
C49	C	-0.299573	-0.311495	0.012637
C50	C	-0.299398	-0.385842	0.018210
C51	C	-0.321003	-0.411107	0.021730
C52	C	-0.366208	-0.389423	0.023501
C53	C	-0.591706	-0.416830	0.027326
C54	C	-0.551191	-0.438667	0.030366
C55	C	-0.408299	-0.438663	0.030360
C56	C	-0.389629	-0.416824	0.027317
C57	C	-0.408298	-0.581682	0.030365
C58	C	-0.389627	-0.619146	0.027325
C59	C	-0.432024	-0.061845	-0.438511
C60	C	-0.477645	-0.015917	-0.461431
C61	C	-0.432025	-0.061844	-0.369869
C62	C	-0.477645	-0.015916	-0.392892
C63	C	-0.500668	0.006779	-0.438513
C64	C	-0.409106	-0.084435	-0.392891
C65	C	-0.320834	-0.185425	-0.480424
C66	C	-0.299076	-0.210690	-0.502029
C67	C	-0.322531	-0.189005	-0.547237
C68	C	-0.298945	-0.216401	-0.570661
C69	C	-0.367745	-0.142051	-0.570839
C70	C	-0.389497	-0.116787	-0.549237
C71	C	-0.366040	-0.138476	-0.504027
C72	C	-0.666200	0.159838	-0.549704
C73	C	-0.713077	0.203188	-0.571462
C74	C	-0.736595	0.224934	-0.548009
C75	C	-0.787423	0.271931	-0.571594
C76	C	-0.713230	0.203329	-0.502796
C77	C	-0.666353	0.159987	-0.481041
C78	C	-0.642841	0.138241	-0.504500
C79	C	-0.320836	-0.185423	-0.204335
C80	C	-0.299080	-0.210691	-0.157455
C81	C	-0.322536	-0.189006	-0.133940
C82	C	-0.298950	-0.216402	-0.083110
C83	C	-0.367748	-0.142056	-0.157305
C84	C	-0.389502	-0.116792	-0.204182
C85	C	-0.366040	-0.138478	-0.227695
C86	C	-0.389632	-0.111079	-0.480604
C87	C	-0.408436	-0.089241	-0.461934
C88	C	-0.408437	-0.089240	-0.319041
C89	C	-0.389634	-0.111078	-0.278525
C90	C	-0.551496	0.053776	-0.462102
C91	C	-0.592011	0.091239	-0.480906
O92	O	0.196122	-0.334274	0.011291
O93	O	0.063378	-0.256674	-0.011208
O94	O	0.140994	-0.334276	0.066414
O95	O	0.118506	-0.256671	-0.066331
O96	O	0.140996	-0.271251	0.066419
O97	O	0.063380	-0.193649	-0.011203
O98	O	0.196124	-0.271249	0.011296
Zn99	Zn	0.129752	-0.222442	0.000047
Zn100	Zn	0.129750	-0.305480	0.000041
O101	O	0.118508	-0.193647	-0.066327
O102	O	-0.260036	0.184774	0.011294
O103	O	-0.204910	0.074561	-0.011204
O104	O	-0.204913	0.074554	0.066418
O105	O	-0.260033	0.184781	-0.066328
O106	O	-0.267961	0.074557	0.066413
O107	O	-0.267958	0.074564	-0.011209
O108	O	-0.323083	0.184777	0.011289
Zn109	Zn	-0.305531	0.129671	0.000039
Zn110	Zn	-0.222463	0.129667	0.000046
O111	O	-0.323081	0.184784	-0.066333
O112	O	-0.936929	0.397535	-0.602582
O113	O	-0.804185	0.287317	-0.547454
O114	O	-0.881802	0.287315	-0.547452
O115	O	-0.859312	0.397537	-0.602584
O116	O	-0.881801	0.287314	-0.610498
O117	O	-0.804183	0.287316	-0.610500
O118	O	-0.936927	0.397533	-0.665628
Zn119	Zn	-0.870555	0.342425	-0.648073
Zn120	Zn	-0.870557	0.342426	-0.565008
O121	O	-0.859310	0.397536	-0.665629
O122	O	-0.267961	-0.271234	-0.665316
O123	O	-0.323086	-0.193638	-0.610192
O124	O	-0.323085	-0.271236	-0.610189
O125	O	-0.267962	-0.193636	-0.665319
O126	O	-0.260038	-0.334264	-0.547142
O127	O	-0.260039	-0.256666	-0.547145
O128	O	-0.204914	-0.334262	-0.602269
Zn129	Zn	-0.222466	-0.305471	-0.564697
Zn130	Zn	-0.305534	-0.222429	-0.647764
O131	O	-0.204915	-0.256664	-0.602272
C132	C	-0.094840	-0.456607	0.293255
C133	C	-0.044837	-0.503376	0.316647
C134	C	-0.117862	-0.433912	0.316174
C135	C	-0.163483	-0.387984	0.224612
C136	C	-0.186875	-0.361381	0.174609
C137	C	-0.186401	-0.365393	0.247634
C138	C	-0.163483	-0.387984	0.293255
C139	C	-0.186874	-0.361382	0.316646
C140	C	-0.117862	-0.433912	0.247635
C141	C	-0.205772	-0.339889	0.335543
C142	C	-0.004440	-0.541160	0.335545
C143	C	-0.205773	-0.339888	0.134212
C144	C	-0.229480	-0.312925	0.359250
C145	C	0.046239	-0.588562	0.359254
C146	C	-0.229481	-0.312924	0.083532
C147	C	0.153295	-0.388013	0.293279
C148	C	0.150076	-0.361413	0.316673
C149	C	0.153614	-0.433940	0.316196
C150	C	0.153297	-0.388008	0.224634
C151	C	0.150079	-0.361403	0.174632
C152	C	0.153616	-0.433935	0.247655
C153	C	0.153293	-0.456633	0.293275
C154	C	0.150072	-0.503401	0.316665
C155	C	0.153617	-0.365420	0.247659
C156	C	0.147469	-0.541185	0.335561
C157	C	0.147474	-0.339922	0.335572
C158	C	0.147479	-0.339908	0.134234
C159	C	0.144204	-0.588587	0.359267
C160	C	0.144211	-0.312962	0.359282
C161	C	0.144218	-0.312942	0.083555
C162	C	-0.163482	-0.139963	0.293267
C163	C	-0.186875	-0.166567	0.316654
C164	C	-0.117861	-0.162559	0.316187
C165	C	-0.163482	-0.071333	0.224628
C166	C	-0.186873	-0.024557	0.174627
C167	C	-0.117860	-0.094033	0.247653
C168	C	-0.094838	-0.139967	0.293272
C169	C	-0.044835	-0.166574	0.316665
C170	C	-0.186401	-0.094030	0.247648
C171	C	-0.004438	-0.188070	0.335563
C172	C	-0.205773	-0.188061	0.335549
C173	C	-0.205771	0.013233	0.134231
C174	C	0.046242	-0.215038	0.359273
C175	C	-0.229482	-0.215026	0.359253
C176	C	-0.229479	0.060643	0.083553
C177	C	0.095627	0.006487	-0.438489
C178	C	0.095306	-0.016206	-0.461409
C179	C	0.095623	-0.062137	-0.369847
C180	C	0.095303	-0.084726	-0.392871
C181	C	0.095625	-0.062133	-0.438492
C182	C	0.095305	-0.016210	-0.392868
C183	C	0.108059	0.159543	-0.480399
C184	C	0.111575	0.202893	-0.502003
C185	C	0.113340	0.224640	-0.547210
C186	C	0.117161	0.271637	-0.570634
C187	C	0.111587	0.203038	-0.570814
C188	C	0.108065	0.159695	-0.549212
C189	C	0.106302	0.137948	-0.504002
C190	C	0.108054	-0.116452	-0.549685
C191	C	0.111568	-0.141562	-0.571444
C192	C	0.113332	-0.188519	-0.547992
C193	C	0.117148	-0.215753	-0.571578
C194	C	0.111577	-0.210363	-0.502779
C195	C	0.108055	-0.185249	-0.481023
C196	C	0.106297	-0.138292	-0.504481
C197	C	0.108046	-0.116473	-0.204312
C198	C	0.111564	-0.141591	-0.157432
C199	C	0.113326	-0.188548	-0.133918
C200	C	0.117142	-0.215786	-0.083088
C201	C	0.111574	-0.210388	-0.157283
C202	C	0.108058	-0.185270	-0.204161
C203	C	0.106290	-0.138308	-0.227673
C204	C	0.102487	0.090947	-0.480580
C205	C	0.099445	0.053484	-0.461911
C206	C	0.099438	-0.089371	-0.319019
C207	C	0.102477	-0.111078	-0.278503
C208	C	0.099442	-0.089362	-0.462081
C209	C	0.102482	-0.111066	-0.480886
O210	O	0.118477	-0.256700	0.452885
O211	O	0.140984	-0.334299	0.397762
O212	O	0.063360	-0.256699	0.397752
O213	O	0.196101	-0.334300	0.452895
O214	O	0.063367	-0.193672	0.334708
O215	O	0.140992	-0.271271	0.334718
O216	O	0.118484	-0.193673	0.389842
Zn217	Zn	0.129739	-0.222465	0.352270
Zn218	Zn	0.129729	-0.305506	0.435333
O219	O	0.196108	-0.271272	0.389852
C220	C	-0.500364	0.533998	-0.438484
C221	C	-0.477341	0.556591	-0.461399
C222	C	-0.431721	0.465364	-0.369840
C223	C	-0.408802	0.488061	-0.392859
C224	C	-0.431720	0.533995	-0.438478
C225	C	-0.477342	0.488064	-0.392865
C226	C	-0.665898	0.588334	-0.480407
C227	C	-0.712776	0.613450	-0.502014
C228	C	-0.736291	0.660414	-0.547220
C229	C	-0.787122	0.687654	-0.570647
C230	C	-0.712926	0.682257	-0.570819
C231	C	-0.666050	0.657138	-0.549214
C232	C	-0.642536	0.610174	-0.504006
C233	C	-0.389802	0.657585	-0.549654
C234	C	-0.368196	0.682850	-0.571408
C235	C	-0.322990	0.661164	-0.547952
C236	C	-0.299561	0.688558	-0.571532
C237	C	-0.299388	0.614205	-0.502740
C238	C	-0.320990	0.588935	-0.480990
C239	C	-0.366202	0.610633	-0.504452
C240	C	-0.389804	0.312282	-0.204314
C241	C	-0.368201	0.268929	-0.157436
C242	C	-0.322993	0.247179	-0.133918
C243	C	-0.299567	0.200174	-0.083089
C244	C	-0.299392	0.268786	-0.157278
C245	C	-0.320998	0.312139	-0.204154
C246	C	-0.366204	0.333881	-0.227670
C247	C	-0.591708	0.582942	-0.480581
C248	C	-0.551193	0.561234	-0.461909
C249	C	-0.408297	0.418359	-0.319013
C250	C	-0.389626	0.380890	-0.278499
C251	C	-0.408296	0.561393	-0.462062
C252	C	-0.389624	0.583232	-0.480862
H253	H	-0.099380	-0.199466	-0.024359
H254	H	-0.099372	-0.452898	0.229148
H255	H	-0.426614	0.329984	-0.223458
H256	H	0.154122	-0.452930	0.353678
C257	C	0.094596	0.009057	-0.511396
C258	C	0.094369	-0.020658	-0.526630
C259	C	0.093709	0.002601	-0.572676
H260	H	0.121371	0.009247	-0.513223
H261	H	0.067519	0.044802	-0.530474
H262	H	0.121444	-0.056393	-0.507558
H263	H	0.067596	-0.020850	-0.524815
H264	H	0.066632	0.038345	-0.591754
H265	H	0.120484	0.002789	-0.574498
H266	H	0.093551	-0.017554	-0.583020
H267	H	0.106608	-0.078237	-0.223453
H268	H	-0.387416	0.721084	-0.608218
H269	H	0.113022	0.220750	-0.607622
H270	H	-0.495827	-0.530983	0.035020
C271	C	-0.093141	-0.211828	0.366172
C272	C	-0.048182	-0.226834	0.381406
C273	C	-0.025399	-0.272212	0.427450
H274	H	-0.091507	-0.240418	0.367994
H275	H	-0.109817	-0.203836	0.385253
H276	H	-0.031511	-0.234828	0.362331
H277	H	-0.049804	-0.198257	0.379596
H278	H	-0.042074	-0.264220	0.446530
H279	H	-0.023768	-0.300798	0.429267
H280	H	0.005106	-0.282396	0.437793
C281	C	-0.236349	-0.316047	0.222988
C282	C	-0.238811	-0.274079	0.220724
C283	C	-0.284811	-0.228612	0.198023
H284	H	-0.255449	-0.323983	0.239659
H285	H	-0.246780	-0.305733	0.192447
H286	H	-0.228386	-0.284392	0.251260
H287	H	-0.219721	-0.266127	0.204050
H288	H	-0.295242	-0.218297	0.167482
H289	H	-0.303907	-0.236553	0.214697
H290	H	-0.286487	-0.200129	0.196480
H291	H	0.112999	-0.123775	-0.608256
C292	C	-0.093132	-0.459300	0.366146
C293	C	-0.048161	-0.504450	0.381375
C294	C	-0.025365	-0.527845	0.427403
H295	H	-0.109774	-0.469718	0.385256
H296	H	-0.091524	-0.434123	0.367926
H297	H	-0.049770	-0.529622	0.379599
H298	H	-0.031507	-0.494047	0.362277
H299	H	-0.023758	-0.502668	0.429182
H300	H	-0.042011	-0.538259	0.446509
H301	H	0.005151	-0.558479	0.437740
C302	C	-0.501992	-0.394128	0.035091
C303	C	-0.504262	-0.352150	-0.004427
C304	C	-0.526969	-0.306688	-0.003901
H305	H	-0.485322	-0.402064	0.062130
H306	H	-0.532531	-0.383821	0.035207
H307	H	-0.473728	-0.362455	-0.004538
H308	H	-0.520935	-0.344197	-0.031472
H309	H	-0.557508	-0.296381	-0.003786
H310	H	-0.510297	-0.314629	0.023139
H311	H	-0.528516	-0.278199	-0.030715
C312	C	0.154327	-0.316156	0.223098
C313	C	0.154540	-0.301142	0.253042
C314	C	0.155198	-0.255769	0.230435
H315	H	0.127555	-0.287567	0.196128
H316	H	0.181408	-0.324156	0.214427
H317	H	0.127462	-0.293140	0.261707
H318	H	0.181310	-0.329718	0.280012
H319	H	0.182279	-0.263768	0.221764
H320	H	0.128426	-0.227184	0.203466
H321	H	0.155347	-0.245579	0.250750
H322	H	-0.223884	-0.075035	0.229163
H323	H	-0.099379	-0.074998	-0.024355
C324	C	-0.738364	-0.409503	0.016353
C325	C	-0.707867	-0.456035	0.018655
C326	C	-0.731285	-0.477834	0.016928
H327	H	-0.763768	-0.384151	-0.011869
H328	H	-0.749526	-0.418087	0.041849
H329	H	-0.696712	-0.447449	-0.006839
H330	H	-0.682462	-0.481398	0.046875
H331	H	-0.742447	-0.486418	0.042424
H332	H	-0.756689	-0.452479	-0.011295
H333	H	-0.710596	-0.509411	0.018494
H334	H	0.154138	-0.452930	0.229170
C335	C	0.094517	0.009198	-0.368273
C336	C	0.054581	0.061865	-0.392971
C337	C	0.053835	0.085283	-0.370324
H338	H	0.121267	0.009439	-0.366673
H339	H	0.094342	-0.010880	-0.337756
H340	H	0.054760	0.081938	-0.423480
H341	H	0.027824	0.061640	-0.394572
H342	H	0.053660	0.065205	-0.339807
H343	H	0.080587	0.085520	-0.368726
H344	H	0.026737	0.121018	-0.387076
C345	C	-0.236390	-0.068567	-0.024563
C346	C	-0.251626	-0.023402	-0.024780
C347	C	-0.297675	0.000036	-0.025452
H348	H	-0.238224	-0.093700	0.002205
H349	H	-0.255462	-0.058163	-0.051648
H350	H	-0.232560	-0.033807	0.002303
H351	H	-0.249804	0.001743	-0.051546
H352	H	-0.316746	0.010440	-0.052537
H353	H	-0.299504	-0.025101	0.001316
H354	H	-0.308020	0.030686	-0.025603
C355	C	-0.640597	0.680755	-0.574764
C356	C	-0.594509	0.648698	-0.546170
C357	C	-0.571046	0.670435	-0.569692
H358	H	-0.655368	0.715978	-0.582571
H359	H	-0.641166	0.682013	-0.602309
H360	H	-0.593942	0.647446	-0.518633
H361	H	-0.579724	0.613475	-0.538361
H362	H	-0.571615	0.671693	-0.597238
H363	H	-0.585822	0.705658	-0.577498
H364	H	-0.539772	0.648685	-0.550296
C365	C	0.113517	-0.261360	-0.477382
C366	C	0.116986	-0.278687	-0.506105
C367	C	0.118783	-0.325669	-0.482723
H368	H	0.086097	-0.254458	-0.469578
H369	H	0.139810	-0.288384	-0.449843
H370	H	0.090695	-0.251669	-0.533636
H371	H	0.144405	-0.285600	-0.513911
H372	H	0.145077	-0.352693	-0.455184
H373	H	0.091362	-0.318763	-0.474919
H374	H	0.121141	-0.337435	-0.502206
H375	H	-0.099376	-0.075038	0.229168
C376	C	-0.640632	-0.462160	0.023757
C377	C	-0.603233	-0.503724	0.065402
C378	C	-0.579814	-0.550747	0.067264
H379	H	-0.629420	-0.456536	-0.001695
H380	H	-0.661328	-0.471493	0.022230
H381	H	-0.582541	-0.494393	0.066925
H382	H	-0.614432	-0.509365	0.090861
H383	H	-0.600511	-0.560080	0.065737
H384	H	-0.568606	-0.545117	0.041811
H385	H	-0.554440	-0.578955	0.095522
H386	H	0.094785	-0.121682	-0.374387
C387	C	0.113434	-0.117781	-0.132154
C388	C	0.111121	-0.071273	-0.162783
C389	C	0.112833	-0.049318	-0.139515
H390	H	0.141654	-0.143070	-0.106754
H391	H	0.087937	-0.109138	-0.120999
H392	H	0.136616	-0.079918	-0.173930
H393	H	0.082903	-0.045971	-0.188183
H394	H	0.087336	-0.040674	-0.128361
H395	H	0.141054	-0.074611	-0.114116
H396	H	0.111260	-0.017757	-0.160294
C397	C	-0.250316	0.590751	-0.477340
C398	C	-0.236450	0.622935	-0.506058
C399	C	-0.191252	0.601352	-0.482672
H400	H	-0.229801	0.555538	-0.469538
H401	H	-0.249580	0.589502	-0.449799
H402	H	-0.237183	0.624179	-0.533591
H403	H	-0.256953	0.658149	-0.513861
H404	H	-0.190516	0.600103	-0.455131
H405	H	-0.170741	0.566139	-0.474871
H406	H	-0.181840	0.623188	-0.502152
H407	H	-0.496128	0.003076	-0.374407
H408	H	0.106623	0.141841	-0.443588
C409	C	0.113501	0.226249	-0.476290
C410	C	0.111216	0.197917	-0.432071
C411	C	0.112997	0.219412	-0.408369
H412	H	0.088027	0.262889	-0.493101
H413	H	0.141741	0.223399	-0.473389
H414	H	0.082980	0.200772	-0.434975
H415	H	0.136689	0.161278	-0.415248
H416	H	0.141237	0.216562	-0.405467
H417	H	0.087522	0.256051	-0.425184
H418	H	0.111451	0.200189	-0.378362
H419	H	0.106637	0.142110	-0.568432
H420	H	0.106619	-0.078217	-0.568789
C421	C	-0.358813	-0.537260	0.035221
C422	C	-0.343577	-0.507544	0.035440
C423	C	-0.297527	-0.530815	0.036116
H424	H	-0.356978	-0.537465	0.008454
H425	H	-0.339744	-0.573000	0.062307
H426	H	-0.362641	-0.471813	0.008358
H427	H	-0.345400	-0.507337	0.062206
H428	H	-0.278457	-0.566555	0.063202
H429	H	-0.295696	-0.531019	0.009348
H430	H	-0.287181	-0.510659	0.036269
C431	C	0.106179	-0.209060	-0.431928
C432	C	0.108487	-0.255565	-0.416038
C433	C	0.106768	-0.277519	-0.370810
H434	H	0.077959	-0.183769	-0.431828
H435	H	0.131676	-0.217708	-0.412123
H436	H	0.082992	-0.246915	-0.435837
H437	H	0.136705	-0.280868	-0.416127
H438	H	0.132265	-0.286167	-0.351006
H439	H	0.078547	-0.252224	-0.370715
H440	H	0.108338	-0.309077	-0.360022
C441	C	0.106142	-0.209051	-0.229452
C442	C	0.108427	-0.255542	-0.198830
C443	C	0.106661	-0.277462	-0.222112
H444	H	0.131621	-0.217712	-0.240620
H445	H	0.077906	-0.183722	-0.254846
H446	H	0.136660	-0.280866	-0.173444
H447	H	0.082950	-0.246895	-0.187660
H448	H	0.078425	-0.252134	-0.247507
H449	H	0.132141	-0.286120	-0.233280
H450	H	0.108207	-0.309006	-0.201340
H451	H	-0.387425	-0.278978	0.016792
H452	H	0.113009	-0.248624	-0.138135
C453	C	-0.358815	0.462640	-0.368142
C454	C	-0.343580	0.417471	-0.323180
C455	C	-0.297536	0.394038	-0.300400
H456	H	-0.356990	0.487775	-0.366510
H457	H	-0.339738	0.452242	-0.384818
H458	H	-0.362652	0.427870	-0.306508
H459	H	-0.345394	0.392325	-0.324799
H460	H	-0.278458	0.383640	-0.317077
H461	H	-0.295715	0.419176	-0.298772
H462	H	-0.287191	0.363386	-0.269893
H463	H	-0.426617	-0.324814	0.023182
H464	H	-0.646754	-0.324820	0.023190
C465	C	-0.738064	-0.266233	0.016315
C466	C	-0.707443	-0.252638	0.018595
C467	C	-0.730727	-0.205665	0.016812
H468	H	-0.749237	-0.271867	0.041791
H469	H	-0.763454	-0.237951	-0.011925
H470	H	-0.682061	-0.280913	0.046832
H471	H	-0.696268	-0.246992	-0.006879
H472	H	-0.756118	-0.177384	-0.011428
H473	H	-0.741900	-0.211305	0.042289
H474	H	-0.709956	-0.196432	0.018355
H475	H	-0.495826	0.593550	-0.498882
C476	C	-0.502059	0.462800	-0.368306
C477	C	-0.547023	0.492526	-0.398249
C478	C	-0.569802	0.469267	-0.375643
H479	H	-0.503684	0.462598	-0.341334
H480	H	-0.485386	0.427060	-0.359637
H481	H	-0.563691	0.528257	-0.406911
H482	H	-0.545411	0.492730	-0.425221
H483	H	-0.553130	0.433526	-0.366974
H484	H	-0.571424	0.469066	-0.348672
H485	H	-0.600311	0.489429	-0.395957
H486	H	-0.387422	0.251343	-0.138417
C487	C	-0.640444	0.537333	-0.431334
C488	C	-0.670934	0.523571	-0.415299
C489	C	-0.647499	0.476589	-0.370098
H490	H	-0.629265	0.543019	-0.411548
H491	H	-0.615047	0.509106	-0.431339
H492	H	-0.696322	0.551790	-0.415291
H493	H	-0.682115	0.517873	-0.435073
H494	H	-0.622102	0.448362	-0.370103
H495	H	-0.636320	0.482280	-0.350316
H496	H	-0.668181	0.467242	-0.359214
C497	C	-0.738218	0.589808	-0.476477
C498	C	-0.784301	0.621851	-0.505078
C499	C	-0.807751	0.600086	-0.481570
H500	H	-0.737670	0.588533	-0.448928
H501	H	-0.723417	0.554583	-0.468685
H502	H	-0.799099	0.657068	-0.512863
H503	H	-0.784864	0.623130	-0.532627
H504	H	-0.792950	0.564860	-0.473779
H505	H	-0.807199	0.598811	-0.454022
H506	H	-0.839019	0.621821	-0.500974
C507	C	-0.393908	-0.754460	0.016325
C508	C	-0.438126	-0.726131	0.018610
C509	C	-0.461824	-0.747634	0.016837
H510	H	-0.377095	-0.791099	0.041802
H511	H	-0.396809	-0.751613	-0.011914
H512	H	-0.435222	-0.728983	0.046845
H513	H	-0.454951	-0.689493	-0.006866
H514	H	-0.464725	-0.744787	-0.011401
H515	H	-0.445007	-0.784272	0.042316
H516	H	-0.491830	-0.728414	0.018384
C517	C	-0.738544	0.733265	-0.619883
C518	C	-0.784602	0.750599	-0.633750
C519	C	-0.808217	0.797594	-0.678943
H520	H	-0.723839	0.726375	-0.640406
H521	H	-0.738033	0.760281	-0.620609
H522	H	-0.785111	0.723590	-0.633028
H523	H	-0.799320	0.757501	-0.613239
H524	H	-0.807705	0.824609	-0.679668
H525	H	-0.793508	0.790699	-0.699461
H526	H	-0.839470	0.809364	-0.688355
H527	H	-0.301727	-0.203079	-0.223479
C528	C	-0.250302	0.245083	-0.131672
C529	C	-0.236425	0.202483	-0.085624
C530	C	-0.191206	0.180633	-0.062025
H531	H	-0.249522	0.271836	-0.132152
H532	H	-0.229819	0.232395	-0.146418
H533	H	-0.256903	0.215172	-0.070882
H534	H	-0.237194	0.175719	-0.085130
H535	H	-0.170723	0.167945	-0.076771
H536	H	-0.190431	0.207390	-0.062509
H537	H	-0.181783	0.151724	-0.030780
C538	C	-0.438921	-0.664051	0.023581
C539	C	-0.467900	-0.610049	-0.014030
C540	C	-0.513149	-0.588203	-0.012371
H541	H	-0.438975	-0.666816	0.051780
H542	H	-0.449907	-0.683096	0.022012
H543	H	-0.456917	-0.591009	-0.012457
H544	H	-0.467860	-0.607269	-0.042235
H545	H	-0.524135	-0.607249	-0.013941
H546	H	-0.513199	-0.590972	0.015830
H547	H	-0.532818	-0.551562	-0.037892
H548	H	-0.426614	0.675254	-0.568760
C549	C	-0.295381	0.538018	-0.431871
C550	C	-0.283941	0.548507	-0.401880
C551	C	-0.260356	0.501618	-0.356626
H552	H	-0.267809	0.511042	-0.431135
H553	H	-0.314719	0.526076	-0.422251
H554	H	-0.264603	0.560441	-0.411498
H555	H	-0.311504	0.575475	-0.402602
H556	H	-0.279694	0.489676	-0.347005
H557	H	-0.232786	0.474645	-0.355895
H558	H	-0.252595	0.508730	-0.336271
C559	C	-0.250323	-0.754900	0.016287
C560	C	-0.236457	-0.797475	0.012819
C561	C	-0.191260	-0.819282	0.011019
H562	H	-0.229806	-0.767607	0.043706
H563	H	-0.249588	-0.728104	-0.010009
H564	H	-0.237189	-0.824266	0.039112
H565	H	-0.256962	-0.784782	-0.014600
H566	H	-0.190525	-0.792487	-0.015277
H567	H	-0.170747	-0.831986	0.038439
H568	H	-0.181848	-0.848169	0.008662
C569	C	-0.295305	-0.664493	0.023623
C570	C	-0.251096	-0.692802	0.021312
C571	C	-0.227420	-0.671256	0.023027
H572	H	-0.292382	-0.667314	0.051843
H573	H	-0.312154	-0.627852	-0.001875
H574	H	-0.234250	-0.729434	0.046808
H575	H	-0.254005	-0.689984	-0.006906
H576	H	-0.244269	-0.634615	-0.002471
H577	H	-0.224501	-0.674078	0.051248
H578	H	-0.197423	-0.690457	0.021456
C579	C	-0.295288	0.335503	-0.229442
C580	C	-0.251069	0.307168	-0.198819
C581	C	-0.227369	0.328670	-0.222098
H582	H	-0.312099	0.372140	-0.240610
H583	H	-0.292389	0.332662	-0.254837
H584	H	-0.253970	0.310013	-0.173433
H585	H	-0.234246	0.270531	-0.187649
H586	H	-0.224470	0.325830	-0.247493
H587	H	-0.244184	0.365307	-0.233266
H588	H	-0.197363	0.309445	-0.201325
H589	H	-0.301784	-0.449335	0.023157
C590	C	-0.250306	-0.409325	0.016319
C591	C	-0.236428	-0.377163	0.012877
C592	C	-0.191207	-0.398784	0.011142
H593	H	-0.249521	-0.410593	-0.009958
H594	H	-0.229826	-0.444542	0.043761
H595	H	-0.256903	-0.341956	-0.014563
H596	H	-0.237202	-0.375893	0.039151
H597	H	-0.170727	-0.434001	0.038585
H598	H	-0.190426	-0.400050	-0.015135
H599	H	-0.181783	-0.376968	0.008811
H600	H	-0.496124	0.003081	-0.498917
H601	H	-0.371622	-0.121391	-0.374409
C602	C	-0.249984	-0.261645	-0.132177
C603	C	-0.234092	-0.275219	-0.162806
C604	C	-0.188864	-0.322148	-0.139539
H605	H	-0.249882	-0.289960	-0.106778
H606	H	-0.230183	-0.255951	-0.121022
H607	H	-0.253888	-0.280915	-0.173954
H608	H	-0.234183	-0.246916	-0.188206
H609	H	-0.169062	-0.316454	-0.128384
H610	H	-0.188765	-0.350459	-0.114140
H611	H	-0.178074	-0.331361	-0.160318
H612	H	-0.262264	-0.248919	-0.482808
C613	C	-0.295278	-0.209039	-0.431349
C614	C	-0.251024	-0.255553	-0.415310
C615	C	-0.227469	-0.277315	-0.370107
H616	H	-0.312151	-0.217641	-0.411566
H617	H	-0.292439	-0.183646	-0.431352
H618	H	-0.253864	-0.280941	-0.415304
H619	H	-0.234139	-0.246965	-0.435080
H620	H	-0.224630	-0.251922	-0.370110
H621	H	-0.244345	-0.285913	-0.350328
H622	H	-0.197439	-0.308874	-0.359220
H623	H	-0.426308	-0.078556	-0.568458
C624	C	-0.393141	-0.118608	-0.619908
C625	C	-0.364419	-0.150790	-0.633772
C626	C	-0.387804	-0.129213	-0.678969
H627	H	-0.400949	-0.083392	-0.640426
H628	H	-0.420678	-0.117366	-0.620641
H629	H	-0.336891	-0.152025	-0.633042
H630	H	-0.356611	-0.186006	-0.613265
H631	H	-0.415341	-0.127971	-0.679702
H632	H	-0.395610	-0.093997	-0.699484
H633	H	-0.368321	-0.151048	-0.688380
H634	H	-0.647059	0.142138	-0.568809
H635	H	-0.732097	0.220775	-0.608274
H636	H	-0.732378	0.221040	-0.483702
H637	H	-0.426314	-0.078564	-0.223203
C638	C	-0.641073	0.136592	-0.431947
C639	C	-0.671700	0.164903	-0.416057
C640	C	-0.648431	0.143363	-0.370832
H641	H	-0.615676	0.139416	-0.431851
H642	H	-0.629916	0.099950	-0.412141
H643	H	-0.682851	0.201536	-0.435859
H644	H	-0.697098	0.162082	-0.416142
H645	H	-0.637274	0.106721	-0.351025
H646	H	-0.623034	0.146188	-0.370740
H647	H	-0.669209	0.162566	-0.360043
H648	H	-0.386847	-0.124399	-0.138156
