data_functionalizedCrystal
_audit_creation_method	'MofGen! by Chris Wilmer'
_symmetry_space_group_name_H-M	'P1'
_symmetry_Int_Tables_number	1
_symmetry_cell_setting	triclinic
loop_
_symmetry_equiv_pos_as_xyz
  x,y,z
_cell_length_a	12.827893
_cell_length_b	12.827892
_cell_length_c	12.827885
_cell_angle_alpha	89.970024
_cell_angle_beta	90.021189
_cell_angle_gamma	89.986399
loop_
_atom_site_label
_atom_site_type_symbol
_atom_site_fract_x
_atom_site_fract_y
_atom_site_fract_z
Zn1	Zn	-1.597670	-0.416032	-0.590901
Zn2	Zn	-1.597564	-0.590810	-0.416160
Zn3	Zn	-1.422911	-0.416078	-0.416169
Zn4	Zn	-1.422896	-0.590727	-0.590855
O5	O	-1.510260	-0.503412	-0.503521
O6	O	-1.743892	-0.439233	-0.567737
O7	O	-1.574358	-0.567685	-0.269925
O8	O	-1.446144	-0.269836	-0.439370
O9	O	-1.743814	-0.567641	-0.439356
O10	O	-1.574538	-0.269802	-0.567745
O11	O	-1.446041	-0.439310	-0.269931
O12	O	-1.276673	-0.439230	-0.439325
O13	O	-1.446118	-0.567499	-0.737097
O14	O	-1.276662	-0.567543	-0.567666
O15	O	-1.574524	-0.439152	-0.737131
O16	O	-1.574343	-0.737035	-0.439311
O17	O	-1.446016	-0.736974	-0.567658
C18	C	-1.238750	-0.503383	-0.503492
C19	C	-1.122597	-0.503396	-0.503504
C20	C	-1.070851	-0.439967	-0.567129
C21	C	-0.950800	-0.439979	-0.567143
C22	C	-1.510195	-0.774922	-0.503502
C23	C	-1.510262	-0.891075	-0.503528
C24	C	-0.782830	-0.503432	-0.503542
C25	C	-0.898983	-0.503419	-0.503530
C26	C	-1.573768	-0.942759	-0.567109
C27	C	-1.573839	-1.062810	-0.567139
C28	C	-1.510331	-0.503311	-0.776091
C29	C	-1.510362	-0.503269	-0.892245
C30	C	-1.510354	-0.230841	-0.503563
C31	C	-1.510394	-0.114688	-0.503581
C32	C	-1.573907	-0.439746	-0.944046
C33	C	-1.573940	-0.439700	-1.064097
C34	C	-1.510249	-0.503436	-0.232011
C35	C	-1.510422	-0.503185	-0.115859
H36	H	-1.078022	-0.557707	-0.449042
F37	F	-1.439259	-0.949400	-0.432410
F38	F	-1.439329	-1.056602	-0.432421
H39	H	-1.628212	-1.107258	-0.621569
F40	F	-1.645058	-0.368619	-1.122320
F41	F	-1.644756	-0.884434	-0.638243
F42	F	-1.644967	-0.368682	-0.885851
H43	H	-1.456019	-0.557575	-1.071317
H44	H	-0.906300	-0.385678	-0.621617
F45	F	-1.439275	-0.574306	-0.950440
H46	H	-0.943477	-0.557732	-0.449062
H47	H	-1.115425	-0.385650	-0.621585
