data_functionalizedCrystal
_audit_creation_method	'MofGen! by Chris Wilmer'
_symmetry_space_group_name_H-M	'P1'
_symmetry_Int_Tables_number	1
_symmetry_cell_setting	triclinic
loop_
_symmetry_equiv_pos_as_xyz
  x,y,z
_cell_length_a	16.959453
_cell_length_b	25.639242
_cell_length_c	16.959447
_cell_angle_alpha	90.025646
_cell_angle_beta	89.968904
_cell_angle_gamma	89.980153
loop_
_atom_site_label
_atom_site_type_symbol
_atom_site_fract_x
_atom_site_fract_y
_atom_site_fract_z
Zn1	Zn	-0.314771	-0.799286	-0.447143
Zn2	Zn	-0.446963	-0.799228	-0.314963
Zn3	Zn	-0.314791	-0.711859	-0.314955
Zn4	Zn	-0.446900	-0.711829	-0.447075
O5	O	-0.380856	-0.755550	-0.381034
O6	O	-0.332324	-0.872443	-0.429641
O7	O	-0.429465	-0.787626	-0.204351
O8	O	-0.204178	-0.723494	-0.332515
O9	O	-0.429446	-0.872401	-0.332529
O10	O	-0.204163	-0.787726	-0.429633
O11	O	-0.332359	-0.723437	-0.204345
O12	O	-0.332298	-0.638690	-0.332449
O13	O	-0.429337	-0.723442	-0.557695
O14	O	-0.429357	-0.638667	-0.429517
O15	O	-0.332263	-0.787696	-0.557745
O16	O	-0.557566	-0.787597	-0.332463
O17	O	-0.557519	-0.723385	-0.429525
C18	C	-0.380823	-0.619708	-0.380975
C19	C	-0.380828	-0.561594	-0.380969
C20	C	-0.586223	-0.755495	-0.381005
C21	C	-0.674079	-0.755520	-0.381019
C22	C	-0.715358	-0.722071	-0.431519
C23	C	-0.715354	-0.788994	-0.330536
C24	C	-0.797900	-0.789020	-0.330551
C25	C	-0.839178	-0.755572	-0.381051
C26	C	-0.797911	-0.722097	-0.431537
C27	C	-0.839173	-0.822498	-0.280071
C28	C	-0.921724	-0.822525	-0.280084
C29	C	-0.963004	-0.789074	-0.330581
C30	C	-0.921732	-0.755598	-0.381068
C31	C	-0.963011	-0.722149	-0.431569
C32	C	-0.921740	-0.688670	-0.482052
C33	C	-0.839192	-0.688646	-0.482034
C34	C	-1.045553	-0.789098	-0.330600
C35	C	-1.045564	-0.722175	-0.431586
C36	C	-0.431472	-0.201228	-0.431509
C37	C	-0.431476	-0.146624	-0.431519
O38	O	-0.474501	-0.118384	-0.474455
N39	N	-0.380870	-0.119311	-0.381062
C40	C	-0.330250	-0.146606	-0.330596
O41	O	-0.287204	-0.118361	-0.287679
C42	C	-0.330242	-0.201209	-0.330590
C43	C	-0.380858	-0.228519	-0.381045
C44	C	-0.482083	-0.228537	-0.481961
C45	C	-0.482080	-0.283138	-0.481949
C46	C	-0.431466	-0.310429	-0.431485
C47	C	-0.380855	-0.283119	-0.381034
C48	C	-0.279619	-0.228503	-0.280129
C49	C	-0.279615	-0.283110	-0.280128
C50	C	-0.330231	-0.310420	-0.330583
C51	C	-0.330237	-0.365011	-0.330559
N52	N	-0.380844	-0.392323	-0.381016
C53	C	-0.431458	-0.365032	-0.431480
C54	C	-0.330268	-0.031936	-0.330613
C55	C	-0.330279	0.022667	-0.330614
C56	C	-0.431505	0.022646	-0.431539
C57	C	-0.431498	-0.031958	-0.431533
C58	C	-0.380875	-0.059248	-0.381071
C59	C	-0.431448	-0.479697	-0.431451
C60	C	-0.431443	-0.534303	-0.431432
C61	C	-0.330214	-0.534277	-0.330511
C62	C	-0.330222	-0.479676	-0.330526
C63	C	-0.380842	-0.452388	-0.381003
O64	O	-0.287232	-0.393285	-0.287647
O65	O	-0.474489	-0.393284	-0.474396
C66	C	-0.174688	-0.755620	-0.381081
C67	C	-0.086831	-0.755650	-0.381100
C68	C	-0.380791	-0.755572	-0.587202
C69	C	-0.380763	-0.755581	-0.675059
C70	C	-0.380887	0.108077	-0.381084
C71	C	-0.380891	0.049963	-0.381081
C72	C	-0.431222	-0.722189	-1.046511
C73	C	-0.330137	-0.789098	-1.046558
C74	C	-0.330154	-0.789084	-0.964012
C75	C	-0.380706	-0.755623	-0.922712
C76	C	-0.431242	-0.722176	-0.963958
C77	C	-0.279625	-0.822535	-0.922761
C78	C	-0.279641	-0.822523	-0.840210
C79	C	-0.330189	-0.789058	-0.798908
C80	C	-0.380726	-0.755609	-0.840158
C81	C	-0.431278	-0.722148	-0.798858
C82	C	-0.481812	-0.688696	-0.840107
C83	C	-0.481791	-0.688711	-0.922656
C84	C	-0.330211	-0.789043	-0.716359
C85	C	-0.431298	-0.722134	-0.716305
C86	C	-0.380864	-0.755559	-0.175668
C87	C	-0.380670	-0.755651	-0.087812
H88	H	-0.955360	-0.661439	-0.523173
H89	H	-0.522935	-0.661478	-0.956248
O90	O	-0.225110	-0.858625	-0.967308
H91	H	-0.189982	-0.881888	-0.924759
H92	H	-0.472663	-0.556536	-0.472520
O93	O	-0.275718	-0.825124	-0.671873
H94	H	-0.284227	-0.819496	-0.607533
O95	O	-0.966227	-0.858633	-0.225631
H96	H	-1.003772	-0.885232	-0.261062
H97	H	-0.805561	-0.849733	-0.238959
H98	H	-0.681742	-0.816230	-0.289424
H99	H	-0.289071	0.044898	-0.289521
H100	H	-0.472363	-0.694952	-1.080100
H101	H	-0.805584	-0.661389	-0.523136
O102	O	-0.536325	-0.652597	-0.795561
H103	H	-0.598364	-0.661539	-0.811380
H104	H	-0.238404	-0.206277	-0.239041
H105	H	-0.523300	-0.206323	-0.523058
O106	O	-0.275623	-0.563715	-0.276083
H107	H	-0.235450	-0.588609	-0.311535
O108	O	-0.225139	-0.858602	-0.795725
H109	H	-0.184928	-0.835209	-0.758118
H110	H	-0.681753	-0.694811	-0.472620
O111	O	-0.486081	-0.061412	-0.485959
H112	H	-0.521271	-0.033256	-0.521051
O113	O	-1.090069	-0.825201	-0.276156
H114	H	-1.047497	-0.848454	-0.241036
O115	O	-0.275685	-0.061370	-0.276163
H116	H	-0.240509	-0.033200	-0.241073
H117	H	-0.472666	-0.457486	-0.472555
H118	H	-0.523295	-0.305368	-0.523036
H119	H	-0.472716	0.044876	-0.472631
O120	O	-0.225012	-0.312542	-0.225696
H121	H	-0.233503	-0.355100	-0.234166
H122	H	-0.472458	-0.694881	-0.682684
O123	O	-0.275634	-0.450216	-0.276107
H124	H	-0.240436	-0.478369	-0.241018
H125	H	-0.288984	-0.816344	-1.080190
H126	H	-1.079168	-0.694937	-0.472710
