data_functionalizedCrystal
_audit_creation_method	'MofGen! by Chris Wilmer'
_symmetry_space_group_name_H-M	'P1'
_symmetry_Int_Tables_number	1
_symmetry_cell_setting	triclinic
loop_
_symmetry_equiv_pos_as_xyz
  x,y,z
_cell_length_a	16.109301
_cell_length_b	10.723024
_cell_length_c	15.186229
_cell_angle_alpha	89.997422
_cell_angle_beta	89.999362
_cell_angle_gamma	83.964675
loop_
_atom_site_label
_atom_site_type_symbol
_atom_site_fract_x
_atom_site_fract_y
_atom_site_fract_z
O1	O	1.104074	0.160391	-0.073171
O2	O	0.862130	0.180351	-0.073184
O3	O	0.988683	-0.011279	-0.073174
O4	O	0.977521	0.352021	-0.073181
O5	O	0.988674	-0.011282	0.073283
O6	O	0.862121	0.180348	0.073273
O7	O	1.104066	0.160388	0.073287
Zn8	Zn	0.983092	0.170368	0.096533
Zn9	Zn	0.983103	0.170371	-0.096431
O10	O	0.977513	0.352018	0.073276
C11	C	0.831146	0.179541	0.000043
C12	C	0.738836	0.177117	0.000037
C13	C	0.517200	0.285190	0.000045
C14	C	0.430466	0.282903	0.000051
C15	C	0.449003	0.055540	0.000052
C16	C	0.535735	0.057829	0.000052
C17	C	0.569831	0.172657	0.000045
C18	C	0.396365	0.168081	0.000050
C19	C	0.302324	0.165600	0.000056
C20	C	0.663877	0.175139	0.000040
C21	C	0.987866	-0.057770	0.000054
C22	C	0.985436	-0.196292	0.000050
C23	C	1.056249	-0.272213	0.000053
C24	C	1.053739	-0.415383	0.000050
C25	C	1.135050	0.161198	0.000058
C26	C	1.227359	0.163622	0.000057
C27	C	0.978329	0.398508	0.000047
C28	C	0.980760	0.537031	0.000044
N29	N	0.983091	0.170364	0.228226
N30	N	0.983112	0.170365	-0.228123
C31	C	1.039148	0.085539	0.453953
C32	C	1.039150	0.085536	0.546143
C33	C	0.927049	0.255194	0.546143
C34	C	0.927043	0.255190	0.453955
C35	C	0.983097	0.170364	0.407862
C36	C	0.983105	0.170365	0.592240
C37	C	0.983108	0.170362	0.692196
C38	C	0.983094	0.170365	0.307900
H39	H	0.421231	-0.037950	0.000063
O40	O	1.126041	-0.493250	-0.000104
C41	C	1.129177	-0.569439	-0.075946
H42	H	1.086969	-0.521680	-0.128963
H43	H	1.107038	-0.664023	-0.058799
C44	C	1.271366	-0.648070	-0.045221
C45	C	1.219531	-0.589406	-0.110340
H46	H	1.327100	-0.660392	-0.066435
H47	H	1.269253	-0.596744	0.005877
H48	H	1.252906	-0.726883	-0.030937
H49	H	1.237984	-0.510588	-0.124614
H50	H	1.221649	-0.640719	-0.161441
O51	O	1.093507	0.002939	0.409238
C52	C	1.079279	-0.120570	0.431819
H53	H	1.012708	-0.121169	0.457153
H54	H	1.125138	-0.157185	0.485348
C55	C	1.173480	-0.204480	0.318838
C56	C	1.091714	-0.205217	0.349947
H57	H	1.181154	-0.256697	0.268338
H58	H	1.183069	-0.121271	0.303627
H59	H	1.211686	-0.234990	0.363453
H60	H	1.053510	-0.174693	0.305337
H61	H	1.082120	-0.288423	0.365150
H62	H	0.387617	0.374539	0.000053
H63	H	0.578589	-0.033815	0.000054
H64	H	0.920135	-0.397741	0.000048
H65	H	0.881411	0.324259	0.583680
H66	H	1.084791	0.016463	0.583668
O67	O	0.910869	-0.245124	-0.000112
C68	C	0.865368	-0.204301	-0.075954
H69	H	0.910236	-0.177143	-0.128966
H70	H	0.819452	-0.119540	-0.058805
C71	C	0.761975	-0.344249	-0.045245
C72	C	0.817084	-0.310903	-0.110358
H73	H	0.732188	-0.410002	-0.066466
H74	H	0.792628	-0.371749	0.005853
H75	H	0.723719	-0.273605	-0.030960
H76	H	0.855345	-0.381541	-0.124634
H77	H	0.786436	-0.283416	-0.161460
O78	O	1.130847	-0.223471	0.000172
C79	C	1.176333	-0.264238	0.076036
H80	H	1.153242	-0.354557	0.101326
H81	H	1.167068	-0.188929	0.129148
C82	C	1.298089	-0.177564	0.021934
C83	C	1.269733	-0.288501	0.052991
H84	H	1.355703	-0.192525	0.007721
H85	H	1.267444	-0.150094	-0.029176
H86	H	1.290361	-0.114817	0.066200
H87	H	1.277452	-0.351241	0.008721
H88	H	1.300382	-0.315983	0.104092
H89	H	0.881395	0.324265	0.416425
H90	H	0.544958	0.378691	0.000046
