data_functionalizedCrystal
_audit_creation_method	'MofGen! by Chris Wilmer'
_symmetry_space_group_name_H-M	'P1'
_symmetry_Int_Tables_number	1
_symmetry_cell_setting	triclinic
loop_
_symmetry_equiv_pos_as_xyz
  x,y,z
_cell_length_a	13.033291
_cell_length_b	13.032721
_cell_length_c	13.032268
_cell_angle_alpha	103.289627
_cell_angle_beta	89.079236
_cell_angle_gamma	105.184202
loop_
_atom_site_label
_atom_site_type_symbol
_atom_site_fract_x
_atom_site_fract_y
_atom_site_fract_z
Zn1	Zn	1.451144	-0.335773	-0.818085
Zn2	Zn	1.951144	0.164227	-0.318085
Zn3	Zn	1.451030	-0.490870	-0.663020
Zn4	Zn	1.951030	0.009130	-0.163020
Zn5	Zn	1.301807	-0.330074	-0.623640
Zn6	Zn	1.801807	0.169926	-0.123640
Zn7	Zn	1.250940	-0.535862	-0.817965
Zn8	Zn	1.750940	-0.035862	-0.317965
O9	O	1.363731	-0.423145	-0.730678
O10	O	1.863731	0.076855	-0.230678
O11	O	1.597365	-0.339903	-0.814047
O12	O	2.097365	0.160097	-0.314047
O13	O	1.452476	-0.448326	-0.511575
O14	O	1.952476	0.051674	-0.011575
O15	O	1.342953	-0.179798	-0.633003
O16	O	1.842953	0.320202	-0.133003
O17	O	1.597281	-0.453852	-0.700121
O18	O	2.097281	0.046148	-0.200121
O19	O	1.452670	-0.183985	-0.775861
O20	O	1.952670	0.316015	-0.275861
O21	O	1.342843	-0.330190	-0.482642
O22	O	1.842843	0.169810	0.017358
O23	O	1.148824	-0.373816	-0.632886
O24	O	1.648824	0.126184	-0.132886
O25	O	1.256257	-0.530534	-0.964202
O26	O	1.756257	-0.030534	-0.464202
O27	O	1.111452	-0.525007	-0.775656
O28	O	1.611452	-0.025007	-0.275656
O29	O	1.403346	-0.383529	-0.964290
O30	O	1.903346	0.116471	-0.464290
O31	O	1.403152	-0.647870	-0.700004
O32	O	1.903152	-0.147870	-0.200004
O33	O	1.256147	-0.680925	-0.813842
O34	O	1.756147	-0.180925	-0.313842
C35	C	1.092220	-0.453676	-0.699986
C36	C	1.592220	0.046324	-0.199986
C37	C	0.976060	-0.466768	-0.686883
C38	C	1.476060	0.033232	-0.186883
C39	C	1.324142	-0.703558	-0.761209
C40	C	1.824142	-0.203558	-0.261209
C41	C	1.307297	-0.823515	-0.774317
C42	C	1.807297	-0.323515	-0.274317
C43	C	0.804229	-0.429861	-0.723984
C44	C	1.304229	0.070139	-0.223984
C45	C	0.924287	-0.416333	-0.737526
C46	C	1.424287	0.083667	-0.237526
C47	C	1.372571	-0.860606	-0.723890
C48	C	1.872571	-0.360606	-0.223890
C49	C	1.355162	-0.984587	-0.737436
C50	C	1.855162	-0.484587	-0.237436
C51	C	1.636301	-0.392495	-0.761490
C52	C	2.136301	0.107505	-0.261490
C53	C	1.752454	-0.379433	-0.774620
C54	C	2.252454	0.120567	-0.274620
C55	C	1.324141	-0.462686	-1.003220
C56	C	1.824141	0.037314	-0.503220
C57	C	1.307270	-0.479536	-1.119361
C58	C	1.807270	0.020464	-0.619361
C59	C	1.403498	-0.141636	-0.700052
C60	C	1.903498	0.358364	-0.200052
C61	C	1.420445	-0.021674	-0.687002
C62	C	1.920445	0.478326	-0.187002
C63	C	1.372525	-0.414313	-1.171184
C64	C	1.872525	0.085687	-0.671184
C65	C	1.355089	-0.431727	-1.291222
C66	C	1.855089	0.068273	-0.791222
C67	C	1.403238	-0.383673	-0.459194
C68	C	1.903238	0.116327	0.040806
C69	C	1.420354	-0.366496	-0.343043
C70	C	1.920354	0.133504	0.156957
H71	H	0.759675	-0.483044	-0.670603
H72	H	1.259675	0.016956	-0.170603
H73	H	1.286304	-0.500457	-1.335717
H74	H	1.786304	-0.000457	-0.835717
H75	H	0.797011	-0.326240	-0.827991
H76	H	1.297011	0.173760	-0.327991
H77	H	1.441297	-0.345579	-1.126683
H78	H	1.941297	0.154421	-0.626683
O79	O	1.502281	-0.284423	-1.289840
O80	O	2.002281	0.215577	-0.789840
C81	C	1.461719	-0.212299	-1.212433
C82	C	1.961719	0.287701	-0.712433
H83	H	1.379497	-0.256942	-1.191371
H84	H	1.879497	0.243058	-0.691371
H85	H	1.455456	-0.139675	-1.244448
H86	H	1.955456	0.360325	-0.744448
C87	C	1.637924	-0.116480	-1.138948
C88	C	2.137924	0.383520	-0.638948
C89	C	1.536942	-0.171314	-1.113073
C90	C	2.036942	0.328686	-0.613073
H91	H	1.684326	-0.091195	-1.077660
H92	H	2.184326	0.408805	-0.577660
H93	H	1.665252	-0.165069	-1.191101
H94	H	2.165252	0.334931	-0.691101
H95	H	1.632690	-0.055967	-1.165629
H96	H	2.132690	0.444033	-0.665629
H97	H	1.542174	-0.231833	-1.086406
H98	H	2.042174	0.268167	-0.586406
H99	H	1.509616	-0.122735	-1.060913
H100	H	2.009616	0.377265	-0.560913
H101	H	1.238489	-0.548261	-1.163860
H102	H	1.738489	-0.048261	-0.663860
H103	H	1.286389	-1.044616	-0.790645
H104	H	1.786389	-0.544616	-0.290645
H105	H	0.968840	-0.363136	-0.790901
H106	H	1.468840	0.136864	-0.290901
H107	H	1.441347	-0.800577	-0.670693
H108	H	1.941347	-0.300577	-0.170693
H109	H	1.238528	-0.883546	-0.827522
H110	H	1.738528	-0.383546	-0.327522
H111	H	0.931509	-0.519960	-0.633503
H112	H	1.431509	-0.019960	-0.133503
H113	H	1.489226	-0.961647	-0.633801
H114	H	1.989226	-0.461647	-0.133801
