data_functionalizedCrystal
_audit_creation_method	'MofGen! by Chris Wilmer'
_symmetry_space_group_name_H-M	'P1'
_symmetry_Int_Tables_number	1
_symmetry_cell_setting	triclinic
loop_
_symmetry_equiv_pos_as_xyz
  x,y,z
_cell_length_a	12.645330
_cell_length_b	16.120490
_cell_length_c	16.120297
_cell_angle_alpha	90.129683
_cell_angle_beta	92.876762
_cell_angle_gamma	87.110278
loop_
_atom_site_label
_atom_site_type_symbol
_atom_site_fract_x
_atom_site_fract_y
_atom_site_fract_z
Zn1	Zn	-0.537167	1.247488	-0.534565
Zn2	Zn	-0.705929	1.254452	-0.395517
Zn3	Zn	-0.519244	1.115476	-0.388485
Zn4	Zn	-0.704943	1.108408	-0.527490
O5	O	-0.616821	1.181456	-0.461514
O6	O	-0.567467	1.364779	-0.522024
O7	O	-0.674077	1.241889	-0.278218
O8	O	-0.373278	1.133032	-0.407881
O9	O	-0.691456	1.369896	-0.419866
O10	O	-0.386446	1.230021	-0.515206
O11	O	-0.536920	1.139785	-0.273052
O12	O	-0.535964	0.998171	-0.401021
O13	O	-0.689775	1.120984	-0.644794
O14	O	-0.672396	0.992978	-0.503147
O15	O	-0.566511	1.223166	-0.649993
O16	O	-0.854142	1.235035	-0.413005
O17	O	-0.853417	1.127737	-0.509965
C18	C	-0.602129	0.965402	-0.450553
C19	C	-0.595870	0.872972	-0.445884
C20	C	-0.892246	1.181396	-0.461500
C21	C	-1.010080	1.181445	-0.461525
C22	C	-0.649277	0.660014	-0.485737
C23	C	-0.584453	0.703746	-0.437358
C24	C	-0.590807	0.797912	-0.442103
C25	C	-0.642924	0.565839	-0.480992
C26	C	-1.177263	1.114198	-0.522734
C27	C	-1.054668	1.113882	-0.522510
C28	C	-1.047694	1.162167	-0.372689
C29	C	-1.170290	1.161757	-0.373060
C30	C	-1.184529	1.268397	-0.488461
C31	C	-1.062002	1.267760	-0.490350
C32	C	-0.340323	1.181538	-0.461548
C33	C	-0.222496	1.181573	-0.461563
C34	C	-0.630032	1.170510	-0.678409
C35	C	-0.635662	1.165845	-0.770837
C36	C	-0.631571	1.398354	-0.472518
C37	C	-0.637857	1.490783	-0.477208
C38	C	-0.645915	1.157298	-0.940063
C39	C	-0.587420	1.205778	-0.983826
C40	C	-0.593125	1.201022	-1.077989
C41	C	-0.640212	1.162053	-0.845891
C42	C	-0.603587	1.192408	-0.245465
C43	C	-0.597670	1.197233	-0.153046
H44	H	-0.524183	0.670466	-0.392375
H45	H	-0.709543	0.693292	-0.530715
H46	H	-1.029504	1.125428	-0.588242
Br47	Br	-1.219713	1.240390	-0.294101
H48	H	-1.032101	1.320244	-0.449395
H49	H	-1.220691	1.286851	-0.552374
Br50	Br	-0.496833	1.280928	-0.928410
H51	H	-1.211668	1.125598	-0.588672
H52	H	-1.020095	1.049425	-0.504339
Br53	Br	-1.219961	1.007430	-0.492821
Br54	Br	-1.208898	1.056193	-0.335942
H55	H	-0.700276	1.112226	-0.973312
H56	H	-1.018584	1.209880	-0.325671
Br57	Br	-0.987503	1.057747	-0.335052
H58	H	-1.213885	1.318538	-0.443962
Br59	Br	-1.022033	1.292129	-0.599357
