data_functionalizedCrystal
_audit_creation_method	'MofGen! by Chris Wilmer'
_symmetry_space_group_name_H-M	'P1'
_symmetry_Int_Tables_number	1
_symmetry_cell_setting	triclinic
loop_
_symmetry_equiv_pos_as_xyz
  x,y,z
_cell_length_a	14.519731
_cell_length_b	14.519709
_cell_length_c	9.130313
_cell_angle_alpha	90.006165
_cell_angle_beta	90.000589
_cell_angle_gamma	83.684499
loop_
_atom_site_label
_atom_site_type_symbol
_atom_site_fract_x
_atom_site_fract_y
_atom_site_fract_z
O1	O	1.223850	0.120986	0.121806
O2	O	1.723850	0.620986	0.621806
O3	O	0.955376	0.135202	0.121808
O4	O	1.455376	0.635202	0.621808
O5	O	1.096731	-0.006144	0.121794
O6	O	1.596731	0.493856	0.621794
O7	O	1.082495	0.262332	0.121820
O8	O	1.582495	0.762332	0.621820
O9	O	1.096730	-0.006151	-0.121805
O10	O	1.596730	0.493849	0.378195
O11	O	0.955374	0.135195	-0.121791
O12	O	1.455374	0.635195	0.378209
O13	O	1.223849	0.120979	-0.121793
O14	O	1.723849	0.620979	0.378207
Cu15	Cu	1.089611	0.128087	-0.144034
Cu16	Cu	1.589611	0.628087	0.355966
Cu17	Cu	1.089613	0.128095	0.144050
Cu18	Cu	1.589613	0.628095	0.644050
O19	O	1.082493	0.262325	-0.121779
O20	O	1.582493	0.762325	0.378221
C21	C	0.921016	0.134532	0.000009
C22	C	1.421016	0.634532	0.500009
C23	C	0.818635	0.132536	0.000010
C24	C	1.318635	0.632536	0.500010
C25	C	0.735491	0.130915	0.000015
C26	C	1.235491	0.630915	0.500015
C27	C	0.631182	0.128888	0.000016
C28	C	1.131182	0.628888	0.500016
C29	C	0.548043	0.127280	0.000016
C30	C	1.048043	0.627280	0.500016
C31	C	0.443728	0.125253	0.000019
C32	C	0.943728	0.625253	0.500019
C33	C	1.096067	-0.040507	-0.000006
C34	C	1.596067	0.459493	0.499994
C35	C	1.094079	-0.142889	-0.000007
C36	C	1.594079	0.357111	0.499993
C37	C	1.086759	-0.517785	0.000031
C38	C	1.586759	-0.017785	0.500031
C39	C	1.088792	-0.413477	0.000020
C40	C	1.588792	0.086523	0.500020
C41	C	1.090419	-0.330340	0.000011
C42	C	1.590419	0.169660	0.500011
C43	C	1.092452	-0.226025	0.000003
C44	C	1.592452	0.273975	0.500003
C45	C	1.258209	0.121649	0.000009
C46	C	1.758209	0.621649	0.500009
C47	C	1.360589	0.123645	0.000018
C48	C	1.860589	0.623645	0.500018
C49	C	1.083157	0.296688	0.000024
C50	C	1.583157	0.796688	0.500024
C51	C	1.085146	0.399070	0.000035
C52	C	1.585146	0.899070	0.500035
N53	N	1.089615	0.128094	0.346672
N54	N	1.589615	0.628094	0.846672
N55	N	1.089617	0.128080	-0.346657
N56	N	1.589617	0.628080	0.153343
C57	C	1.152324	0.065628	0.423318
C58	C	1.652324	0.565628	0.923318
C59	C	1.152327	0.065623	0.576654
C60	C	1.652327	0.565623	1.076654
C61	C	1.026905	0.190552	0.576687
C62	C	1.526905	0.690552	1.076687
C63	C	1.026906	0.190561	0.423353
C64	C	1.526906	0.690561	0.923353
H65	H	1.203386	0.014765	0.360888
H66	H	1.703386	0.514765	0.860888
H67	H	1.203392	0.014759	0.639055
H68	H	1.703392	0.514759	1.139055
C69	C	0.972723	0.350013	0.623960
C70	C	1.472723	0.850013	1.123960
C71	C	0.957974	0.259208	0.660983
C72	C	1.457974	0.759208	1.160983
H73	H	0.930169	0.392396	0.676008
H74	H	1.430169	0.892396	1.176008
H75	H	0.963746	0.358954	0.521683
H76	H	1.463746	0.858954	1.021683
H77	H	1.034255	0.360274	0.649104
H78	H	1.534255	0.860274	1.149104
H79	H	0.896444	0.248945	0.635828
H80	H	1.396444	0.748945	1.135828
H81	H	0.966944	0.250263	0.763283
H82	H	1.466944	0.750263	1.263283
C83	C	0.867277	0.244064	0.376131
C84	C	1.367277	0.744064	0.876131
C85	C	0.957969	0.259225	0.339089
C86	C	1.457969	0.759225	0.839089
H87	H	0.824724	0.286451	0.324101
H88	H	1.324724	0.786451	0.824101
H89	H	0.858304	0.253004	0.478411
H90	H	1.358304	0.753004	0.978411
H91	H	0.857294	0.182457	0.350976
H92	H	1.357294	0.682457	0.850976
H93	H	0.967954	0.320831	0.364254
H94	H	1.467954	0.820831	0.864254
H95	H	0.966946	0.250293	0.236786
H96	H	1.466946	0.750293	0.736786
