data_functionalizedCrystal
_audit_creation_method	'MofGen! by Chris Wilmer'
_symmetry_space_group_name_H-M	'P1'
_symmetry_Int_Tables_number	1
_symmetry_cell_setting	triclinic
loop_
_symmetry_equiv_pos_as_xyz
  x,y,z
_cell_length_a	21.395364
_cell_length_b	29.839131
_cell_length_c	21.395355
_cell_angle_alpha	89.979828
_cell_angle_beta	89.975448
_cell_angle_gamma	90.056371
loop_
_atom_site_label
_atom_site_type_symbol
_atom_site_fract_x
_atom_site_fract_y
_atom_site_fract_z
Zn1	Zn	0.957813	-0.178726	-0.354254
Zn2	Zn	1.291146	0.154607	-0.020921
Zn3	Zn	1.624479	0.487941	0.312412
Zn4	Zn	0.957696	-0.253841	-0.249474
Zn5	Zn	1.291029	0.079492	0.083860
Zn6	Zn	1.624362	0.412825	0.417193
Zn7	Zn	0.853028	-0.178746	-0.249491
Zn8	Zn	1.186361	0.154587	0.083842
Zn9	Zn	1.519694	0.487921	0.417176
Zn10	Zn	0.852977	-0.253849	-0.354214
Zn11	Zn	1.186311	0.079484	-0.020881
Zn12	Zn	1.519644	0.412817	0.312453
O13	O	0.905378	-0.216291	-0.301858
O14	O	1.238712	0.117043	0.031475
O15	O	1.572045	0.450376	0.364808
O16	O	1.045475	-0.188679	-0.340365
O17	O	1.378808	0.144655	-0.007031
O18	O	1.712142	0.477988	0.326302
O19	O	0.943783	-0.243885	-0.161798
O20	O	1.277117	0.089449	0.171535
O21	O	1.610450	0.422782	0.504869
O22	O	0.866998	-0.115876	-0.263412
O23	O	1.200331	0.217457	0.069921
O24	O	1.533664	0.550791	0.403255
O25	O	1.045389	-0.243866	-0.263383
O26	O	1.378722	0.089468	0.069951
O27	O	1.712056	0.422801	0.403284
O28	O	0.943983	-0.115862	-0.340381
O29	O	1.277316	0.217472	-0.007048
O30	O	1.610649	0.550805	0.326285
O31	O	0.866884	-0.188712	-0.161811
O32	O	1.200217	0.144621	0.171523
O33	O	1.533551	0.477954	0.504856
O34	O	0.765343	-0.188720	-0.263373
O35	O	1.098676	0.144613	0.069960
O36	O	1.432010	0.477947	0.403294
O37	O	0.866912	-0.243879	-0.441897
O38	O	1.200245	0.089454	-0.108564
O39	O	1.533578	0.422787	0.224769
O40	O	0.765306	-0.243898	-0.340313
O41	O	1.098639	0.089435	-0.006979
O42	O	1.431973	0.422768	0.326354
O43	O	0.943934	-0.188687	-0.441927
O44	O	1.277267	0.144647	-0.108593
O45	O	1.610601	0.477980	0.224740
O46	O	0.943734	-0.316710	-0.263344
O47	O	1.277068	0.016624	0.069990
O48	O	1.610401	0.349957	0.403323
O49	O	0.866798	-0.316716	-0.340296
O50	O	1.200132	0.016618	-0.006962
O51	O	1.533465	0.349951	0.326371
C52	C	0.742591	-0.216313	-0.301841
C53	C	1.075924	0.117021	0.031493
C54	C	1.409257	0.450354	0.364826
C55	C	0.672949	-0.216333	-0.301848
C56	C	1.006283	0.117001	0.031485
C57	C	1.339616	0.450334	0.364819
C58	C	0.640303	-0.187644	-0.341994
C59	C	0.973637	0.145689	-0.008661
C60	C	1.306970	0.479023	0.324672
C61	C	0.574868	-0.187632	-0.341997
C62	C	0.908201	0.145701	-0.008663
C63	C	1.241535	0.479035	0.324670
C64	C	0.542081	-0.216317	-0.301859
C65	C	0.875414	0.117016	0.031474
C66	C	1.208748	0.450350	0.364807
C67	C	0.574735	-0.245008	-0.261705
C68	C	0.908068	0.088326	0.071628
C69	C	1.241402	0.421659	0.404961
C70	C	0.640169	-0.245016	-0.261699
C71	C	0.973502	0.088318	0.071634
C72	C	1.306836	0.421651	0.404967
C73	C	0.438346	-0.256775	-0.296820
C74	C	0.771679	0.076559	0.036513
C75	C	1.105013	0.409892	0.369847
C76	C	0.372913	-0.256768	-0.296830
C77	C	0.706246	0.076566	0.036503
C78	C	1.039580	0.409899	0.369836
C79	C	0.340260	-0.216292	-0.301873
C80	C	0.673594	0.117041	0.031460
C81	C	1.006927	0.450375	0.364793
C82	C	0.373048	-0.175823	-0.306919
C83	C	0.706382	0.157511	0.026414
C84	C	1.039715	0.490844	0.359747
C85	C	0.438483	-0.175831	-0.306914
C86	C	0.771816	0.157503	0.026420
C87	C	1.105149	0.490836	0.359753
C88	C	0.471129	-0.216311	-0.301861
C89	C	0.804462	0.117022	0.031473
C90	C	1.137795	0.450355	0.364806
C91	C	0.236662	-0.187588	-0.342024
C92	C	0.569995	0.145745	-0.008691
C93	C	0.903328	0.479079	0.324642
C94	C	0.171225	-0.187575	-0.342022
C95	C	0.504559	0.145758	-0.008689
C96	C	0.837892	0.479091	0.324644
C97	C	0.171093	-0.244955	-0.261734
C98	C	0.504427	0.088378	0.071599
C99	C	0.837760	0.421712	0.404932
C100	C	0.236529	-0.244964	-0.261733
C101	C	0.569862	0.088370	0.071600
C102	C	0.903195	0.421703	0.404934
C103	C	0.269309	-0.216281	-0.301881
C104	C	0.602642	0.117053	0.031452
C105	C	0.935976	0.450386	0.364785
C106	C	0.905265	-0.333013	-0.301827
C107	C	1.238598	0.000320	0.031506
C108	C	1.571932	0.333653	0.364840
C109	C	0.905274	-0.382948	-0.301835
C110	C	1.238607	-0.049614	0.031499
C111	C	1.571941	0.283719	0.364832
C112	C	0.945512	-0.692575	-0.261848
C113	C	1.278845	-0.359242	0.071486
C114	C	1.612178	-0.025909	0.404819
C115	C	0.945589	-0.880248	-0.261872
C116	C	1.278922	-0.546915	0.071461
C117	C	1.612256	-0.213582	0.404795
O118	O	0.979711	-0.904500	-0.227850
O119	O	1.313044	-0.571167	0.105484
O120	O	1.646378	-0.237833	0.438817
N121	N	0.905508	-0.903733	-0.301905
N122	N	1.238841	-0.570399	0.031428
N123	N	1.572175	-0.237066	0.364761
C124	C	0.865408	-0.880296	-0.341939
C125	C	1.198741	-0.546963	-0.008605
C126	C	1.532075	-0.213629	0.324728
O127	O	0.831323	-0.904577	-0.375994
O128	O	1.164656	-0.571244	-0.042661
O129	O	1.497990	-0.237910	0.290672
C130	C	0.865334	-0.692624	-0.341917
C131	C	1.198668	-0.359290	-0.008584
C132	C	1.532001	-0.025957	0.324750
C133	C	0.905413	-0.669142	-0.301876
C134	C	1.238747	-0.335809	0.031457
C135	C	1.572080	-0.002475	0.364790
C136	C	0.985588	-0.669093	-0.221811
C137	C	1.318921	-0.335760	0.111522
C138	C	1.652255	-0.002427	0.444856
C139	C	0.985566	-0.622178	-0.221803
C140	C	1.318899	-0.288845	0.111530
C141	C	1.652233	0.044489	0.444864
C142	C	0.945467	-0.598744	-0.261832
C143	C	1.278801	-0.265411	0.071502
C144	C	1.612134	0.067922	0.404835
C145	C	0.905391	-0.622226	-0.301868
C146	C	1.238724	-0.288893	0.031465
C147	C	1.572058	0.044440	0.364798
C148	C	0.825238	-0.669188	-0.381953
C149	C	1.158571	-0.335855	-0.048619
C150	C	1.491904	-0.002521	0.284714
C151	C	0.825224	-0.622267	-0.381945
C152	C	1.158557	-0.288934	-0.048611
C153	C	1.491891	0.044400	0.284722
C154	C	0.865303	-0.598785	-0.341904
C155	C	1.198636	-0.265452	-0.008571
C156	C	1.531970	0.067882	0.324762
C157	C	0.865271	-0.551878	-0.341889
C158	C	1.198604	-0.218544	-0.008556
C159	C	1.531937	0.114789	0.324778
N160	N	0.905351	-0.528393	-0.301856
N161	N	1.238685	-0.195060	0.031478
N162	N	1.572018	0.138273	0.364811
C163	C	0.945450	-0.551827	-0.261827
C164	C	1.278783	-0.218493	0.071506
C165	C	1.612117	0.114840	0.404840
C166	C	0.865449	-0.978827	-0.341946
C167	C	1.198782	-0.645493	-0.008613
C168	C	1.532115	-0.312160	0.324721
C169	C	0.865466	-1.025744	-0.341951
C170	C	1.198799	-0.692411	-0.008618
C171	C	1.532133	-0.359078	0.324716
C172	C	0.945648	-1.025694	-0.261885
C173	C	1.278982	-0.692360	0.071448
C174	C	1.612315	-0.359027	0.404782
C175	C	0.945627	-0.978775	-0.261878
C176	C	1.278960	-0.645442	0.071456
C177	C	1.612294	-0.312108	0.404789
C178	C	0.905530	-0.955342	-0.301913
C179	C	1.238863	-0.622009	0.031421
C180	C	1.572196	-0.288676	0.364754
C181	C	0.945400	-0.453301	-0.261813
C182	C	1.278733	-0.119968	0.071521
C183	C	1.612067	0.213366	0.404854
C184	C	0.945372	-0.406381	-0.261806
C185	C	1.278706	-0.073048	0.071527
C186	C	1.612039	0.260285	0.404860
C187	C	0.865193	-0.406436	-0.341874
C188	C	1.198526	-0.073103	-0.008541
C189	C	1.531860	0.260231	0.324793
C190	C	0.865218	-0.453352	-0.341878
C191	C	1.198551	-0.120018	-0.008545
C192	C	1.531885	0.213315	0.324788
C193	C	0.905326	-0.476783	-0.301845
C194	C	1.238660	-0.143450	0.031488
C195	C	1.571993	0.189884	0.364821
O196	O	0.831172	-0.527597	-0.375898
O197	O	1.164505	-0.194264	-0.042565
O198	O	1.497838	0.139070	0.290768
O199	O	0.979540	-0.527537	-0.227786
O200	O	1.312873	-0.194204	0.105547
O201	O	1.646206	0.139129	0.438881
C202	C	0.945534	-0.739491	-0.261856
C203	C	1.278867	-0.406157	0.071477
C204	C	1.612201	-0.072824	0.404811
C205	C	0.905458	-0.762973	-0.301893
C206	C	1.238791	-0.429639	0.031441
C207	C	1.572124	-0.096306	0.364774
C208	C	0.865359	-0.739539	-0.341921
C209	C	1.198692	-0.406206	-0.008588
C210	C	1.532026	-0.072873	0.324745
C211	C	0.905475	-0.809891	-0.301897
C212	C	1.238808	-0.476557	0.031436
C213	C	1.572142	-0.143224	0.364769
C214	C	0.945574	-0.833324	-0.261869
C215	C	1.278907	-0.499991	0.071465
C216	C	1.612240	-0.166657	0.404798
C217	C	0.985654	-0.809840	-0.221835
C218	C	1.318988	-0.476506	0.111498
C219	C	1.652321	-0.143173	0.444831
C220	C	0.985632	-0.762924	-0.221827
C221	C	1.318966	-0.429591	0.111506
C222	C	1.652299	-0.096258	0.444839
C223	C	0.825278	-0.763024	-0.381955
C224	C	1.158612	-0.429690	-0.048621
C225	C	1.491945	-0.096357	0.284712
C226	C	0.825303	-0.809939	-0.381959
C227	C	1.158637	-0.476606	-0.048626
C228	C	1.491970	-0.143272	0.284708
C229	C	0.865402	-0.833373	-0.341930
C230	C	1.198735	-0.500039	-0.008597
C231	C	1.532068	-0.166706	0.324736
C232	C	1.068802	-0.216269	-0.301876
C233	C	1.402135	0.117064	0.031457
C234	C	1.735468	0.450398	0.364790
C235	C	1.138443	-0.216260	-0.301884
C236	C	1.471776	0.117073	0.031449
C237	C	1.805109	0.450407	0.364783
C238	C	0.905430	-0.216282	-0.465282
C239	C	1.238764	0.117052	-0.131948
C240	C	1.572097	0.450385	0.201385
C241	C	0.905452	-0.216278	-0.534923
C242	C	1.238786	0.117056	-0.201590
C243	C	1.572119	0.450389	0.131744
C244	C	0.905509	-0.099112	-0.301903
C245	C	1.238842	0.234221	0.031430
C246	C	1.572176	0.567554	0.364764
C247	C	0.905565	-0.049178	-0.301922
C248	C	1.238898	0.284155	0.031411
C249	C	1.572231	0.617489	0.364744
C250	C	0.945556	-0.187538	-0.567652
C251	C	1.278889	0.145796	-0.234319
C252	C	1.612223	0.479129	0.099014
C253	C	0.945555	-0.187518	-0.633088
C254	C	1.278889	0.145815	-0.299755
C255	C	1.612222	0.479148	0.033579
C256	C	0.905457	-0.216247	-0.665791
C257	C	1.238791	0.117086	-0.332458
C258	C	1.572124	0.450420	0.000875
C259	C	0.865346	-0.244989	-0.633054
C260	C	1.198679	0.088344	-0.299720
C261	C	1.532012	0.421677	0.033613
C262	C	0.865343	-0.245005	-0.567620
C263	C	1.198677	0.088329	-0.234286
C264	C	1.532010	0.421662	0.099047
C265	C	0.900471	-0.256699	-0.769455
C266	C	1.233804	0.076634	-0.436122
C267	C	1.567137	0.409967	-0.102788
C268	C	0.900478	-0.256685	-0.834888
C269	C	1.233811	0.076649	-0.501555
C270	C	1.567144	0.409982	-0.168221
C271	C	0.905461	-0.216200	-0.867612
C272	C	1.238795	0.117134	-0.534279
C273	C	1.572128	0.450467	-0.200945
C274	C	0.910451	-0.175728	-0.834895
C275	C	1.243784	0.157605	-0.501562
C276	C	1.577118	0.490939	-0.168228
C277	C	0.910449	-0.175743	-0.769461
C278	C	1.243782	0.157590	-0.436127
C279	C	1.577115	0.490923	-0.102794
C280	C	0.905455	-0.216234	-0.736744
C281	C	1.238789	0.117100	-0.403410
C282	C	1.572122	0.450433	-0.070077
C283	C	0.945566	-0.187436	-0.971294
C284	C	1.278899	0.145897	-0.637961
C285	C	1.612233	0.479230	-0.304628
C286	C	0.945561	-0.187416	-1.036731
C287	C	1.278894	0.145917	-0.703398
C288	C	1.612228	0.479251	-0.370064
C289	C	0.865355	-0.244891	-1.036696
C290	C	1.198688	0.088442	-0.703362
C291	C	1.532021	0.421776	-0.370029
C292	C	0.865357	-0.244907	-0.971260
C293	C	1.198690	0.088426	-0.637927
C294	C	1.532023	0.421760	-0.304594
C295	C	0.905466	-0.216180	-0.938563
C296	C	1.238799	0.117153	-0.605230
C297	C	1.572132	0.450486	-0.271897
C298	C	0.905362	-0.216267	-0.139071
C299	C	1.238696	0.117066	0.194263
C300	C	1.572029	0.450399	0.527596
C301	C	0.905462	-0.216145	-0.069430
C302	C	1.238795	0.117189	0.263904
C303	C	1.572128	0.450522	0.597237
H304	H	0.978009	-0.387264	-0.229198
H305	H	1.311343	-0.053930	0.104135
H306	H	1.644676	0.279403	0.437468
H307	H	0.792572	-0.603190	-0.414548
H308	H	1.125906	-0.269857	-0.081215
H309	H	1.459239	0.063476	0.252118
H310	H	0.896245	-0.289659	-0.742817
H311	H	1.229578	0.043675	-0.409484
H312	H	1.562912	0.377008	-0.076150
H313	H	0.896418	-0.289639	-0.861521
H314	H	1.229752	0.043694	-0.528188
H315	H	1.563085	0.377028	-0.194855
N316	N	0.539648	-0.156692	-0.385306
N317	N	0.872982	0.176641	-0.051973
N318	N	1.206315	0.509974	0.281360
H319	H	0.493222	-0.161041	-0.379218
H320	H	0.826555	0.172292	-0.045885
H321	H	1.159889	0.505626	0.287449
H322	H	0.551129	-0.124596	-0.375642
H323	H	0.884462	0.208737	-0.042309
H324	H	1.217796	0.542070	0.291024
N325	N	0.822087	-0.275969	-0.668322
N326	N	1.155420	0.057365	-0.334989
N327	N	1.488753	0.390698	-0.001655
H328	H	0.828172	-0.271597	-0.714741
H329	H	1.161505	0.061736	-0.381408
H330	H	1.494839	0.395069	-0.048075
H331	H	0.831792	-0.308057	-0.656890
H332	H	1.165126	0.025276	-0.323557
H333	H	1.498459	0.358609	0.009777
H334	H	0.978211	-0.164112	-0.659741
H335	H	1.311545	0.169221	-0.326408
H336	H	1.644878	0.502554	0.006925
N337	N	0.337554	-0.300414	-0.291384
N338	N	0.670887	0.032919	0.041950
N339	N	1.004220	0.366252	0.375283
H340	H	0.291147	-0.294269	-0.292156
H341	H	0.624480	0.039065	0.041177
H342	H	0.957814	0.372398	0.374511
H343	H	0.348979	-0.320542	-0.327561
H344	H	0.682312	0.012791	0.005773
H345	H	1.015646	0.346125	0.339106
N346	N	0.135742	-0.275895	-0.218442
N347	N	0.469075	0.057438	0.114892
N348	N	0.802408	0.390771	0.448225
H349	H	0.147119	-0.268871	-0.173693
H350	H	0.480453	0.064462	0.159641
H351	H	0.813786	0.397796	0.492974
H352	H	0.089346	-0.271523	-0.224588
H353	H	0.422680	0.061810	0.108745
H354	H	0.756013	0.395143	0.442079
H355	H	0.792598	-0.688299	-0.414555
H356	H	1.125931	-0.354965	-0.081222
H357	H	1.459265	-0.021632	0.252112
N358	N	0.821985	-0.478682	-0.385056
N359	N	1.155318	-0.145349	-0.051723
N360	N	1.488651	0.187985	0.281610
H361	H	0.796578	-0.456716	-0.410411
H362	H	1.129911	-0.123382	-0.077077
H363	H	1.463244	0.209951	0.256256
H364	H	0.847485	-0.498112	-0.414081
H365	H	1.180818	-0.164779	-0.080747
H366	H	1.514151	0.168555	0.252586
N367	N	0.272028	-0.156656	-0.385324
N368	N	0.605361	0.176678	-0.051990
N369	N	0.938694	0.510011	0.281343
H370	H	0.260697	-0.124543	-0.375679
H371	H	0.594030	0.208791	-0.042346
H372	H	0.927363	0.542124	0.290987
H373	H	0.318421	-0.161059	-0.379208
H374	H	0.651755	0.172274	-0.045875
H375	H	0.985088	0.505607	0.287459
H376	H	0.464927	-0.289737	-0.292713
H377	H	0.798260	0.043596	0.040620
H378	H	1.131593	0.376930	0.373954
N379	N	0.821941	-0.381157	-0.385042
N380	N	1.155275	-0.047824	-0.051709
N381	N	1.488608	0.285510	0.281625
H382	H	0.828014	-0.347872	-0.378959
H383	H	1.161347	-0.014539	-0.045626
H384	H	1.494681	0.318794	0.287708
H385	H	0.831675	-0.389332	-0.429801
H386	H	1.165009	-0.055998	-0.096467
H387	H	1.498342	0.277335	0.236866
N388	N	1.028841	-0.694364	-0.178634
N389	N	1.362175	-0.361030	0.154699
N390	N	1.695508	-0.027697	0.488032
H391	H	1.054223	-0.672362	-0.153275
H392	H	1.387556	-0.339029	0.180058
H393	H	1.720889	-0.005695	0.513392
H394	H	1.003359	-0.713860	-0.149615
H395	H	1.336693	-0.380527	0.183719
H396	H	1.670026	-0.047194	0.517052
H397	H	0.144646	-0.164211	-0.374713
H398	H	0.477979	0.169123	-0.041380
H399	H	0.811313	0.502456	0.291953
H400	H	0.832795	-0.959751	-0.374548
H401	H	1.166128	-0.626417	-0.041215
H402	H	1.499461	-0.293084	0.292118
H403	H	0.792660	-0.829054	-0.414564
H404	H	1.125994	-0.495721	-0.081231
H405	H	1.459327	-0.162387	0.252103
H406	H	1.018302	-0.828928	-0.189241
H407	H	1.351636	-0.495594	0.144093
H408	H	1.684969	-0.162261	0.477426
H409	H	1.018268	-0.743809	-0.189223
H410	H	1.351602	-0.410475	0.144111
H411	H	1.684935	-0.077142	0.477444
H412	H	0.465176	-0.142879	-0.311020
H413	H	0.798509	0.190454	0.022313
H414	H	1.131843	0.523788	0.355646
N415	N	0.988834	-0.156461	-0.936025
N416	N	1.322168	0.176873	-0.602692
N417	N	1.655501	0.510206	-0.269358
H418	H	0.982757	-0.160838	-0.889606
H419	H	1.316090	0.172495	-0.556272
H420	H	1.649424	0.505829	-0.222939
H421	H	1.033567	-0.163457	-0.947493
H422	H	1.366901	0.169877	-0.614159
H423	H	1.700234	0.503210	-0.280826
N424	N	0.782025	-0.737753	-0.425129
N425	N	1.115359	-0.404419	-0.091795
N426	N	1.448692	-0.071086	0.241538
H427	H	0.756640	-0.759753	-0.450487
H428	H	1.089974	-0.426420	-0.117154
H429	H	1.423307	-0.093086	0.216180
H430	H	0.753033	-0.718324	-0.399592
H431	H	1.086366	-0.384991	-0.066259
H432	H	1.419699	-0.051657	0.267074
N433	N	0.915832	-0.132096	-0.734172
N434	N	1.249165	0.201237	-0.400839
N435	N	1.582499	0.534570	-0.067505
H436	H	0.918991	-0.106445	-0.764827
H437	H	1.252325	0.226888	-0.431493
H438	H	1.585658	0.560222	-0.098160
H439	H	0.877661	-0.127936	-0.707007
H440	H	1.210994	0.205397	-0.373674
H441	H	1.544328	0.538730	-0.040340
H442	H	0.263109	-0.268327	-0.229044
H443	H	0.596443	0.065006	0.104289
H444	H	0.929776	0.398340	0.437623
N445	N	0.539374	-0.275949	-0.218419
N446	N	0.872708	0.057384	0.114914
N447	N	1.206041	0.390717	0.448248
H448	H	0.569987	-0.294126	-0.192984
H449	H	0.903321	0.039208	0.140349
H450	H	1.236654	0.372541	0.473682
H451	H	0.512238	-0.257629	-0.189474
H452	H	0.845571	0.075705	0.143860
H453	H	1.178904	0.409038	0.477193
N454	N	0.988813	-0.156554	-0.532387
N455	N	1.322147	0.176779	-0.199053
N456	N	1.655480	0.510112	0.134280
H457	H	1.014219	-0.138344	-0.563054
H458	H	1.347552	0.194989	-0.229721
H459	H	1.680885	0.528322	0.103613
H460	H	0.963333	-0.135772	-0.505229
H461	H	1.296666	0.197561	-0.171896
H462	H	1.629999	0.530894	0.161438
H463	H	0.666749	-0.268378	-0.229007
H464	H	1.000082	0.064955	0.104327
H465	H	1.333416	0.398288	0.437660
N466	N	0.988653	-0.478573	-0.218635
N467	N	1.321987	-0.145239	0.114699
N468	N	1.655320	0.188094	0.448032
H469	H	1.033412	-0.470361	-0.228402
H470	H	1.366745	-0.137028	0.104931
H471	H	1.700079	0.196306	0.438265
H472	H	0.978882	-0.470419	-0.173877
H473	H	1.312216	-0.137086	0.159457
H474	H	1.645549	0.196247	0.492790
H475	H	0.914510	-0.142761	-0.861537
H476	H	1.247843	0.190572	-0.528204
H477	H	1.581177	0.523905	-0.194871
N478	N	0.988813	-0.156408	-1.072027
N479	N	1.322146	0.176925	-0.738694
N480	N	1.655479	0.510259	-0.405360
H481	H	1.033572	-0.163382	-1.060660
H482	H	1.366905	0.169951	-0.727327
H483	H	1.700239	0.503284	-0.393993
H484	H	0.982676	-0.160764	-1.118431
H485	H	1.316009	0.172569	-0.785098
H486	H	1.649343	0.505902	-0.451764
N487	N	0.822100	-0.275874	-1.071959
N488	N	1.155433	0.057459	-0.738625
N489	N	1.488766	0.390792	-0.405292
H490	H	0.828184	-0.271503	-1.118378
H491	H	1.161518	0.061830	-0.785045
H492	H	1.494851	0.395164	-0.451711
H493	H	0.831814	-0.307961	-1.060526
H494	H	1.165147	0.025372	-0.727192
H495	H	1.498480	0.358705	-0.393859
H496	H	0.832704	-0.268313	-0.944611
H497	H	1.166037	0.065020	-0.611278
H498	H	1.499370	0.398354	-0.277945
N499	N	0.822078	-0.276003	-0.532323
N500	N	1.155411	0.057331	-0.198990
N501	N	1.488744	0.390664	0.134344
H502	H	0.831767	-0.308098	-0.543714
H503	H	1.165100	0.025235	-0.210380
H504	H	1.498433	0.358568	0.122953
H505	H	0.828175	-0.271618	-0.485919
H506	H	1.161509	0.061716	-0.152586
H507	H	1.494842	0.395049	0.180748
N508	N	0.675659	-0.156708	-0.385294
N509	N	1.008992	0.176625	-0.051961
N510	N	1.342326	0.509959	0.281373
H511	H	0.645045	-0.138532	-0.410727
H512	H	0.978378	0.194802	-0.077394
H513	H	1.311711	0.528135	0.255940
H514	H	0.702828	-0.135893	-0.359842
H515	H	1.036161	0.197441	-0.026509
H516	H	1.369495	0.530774	0.306825
H517	H	1.018203	-0.603062	-0.189201
H518	H	1.351537	-0.269728	0.144133
H519	H	1.684870	0.063605	0.477466
N520	N	0.988856	-0.953450	-0.218694
N521	N	1.322190	-0.620116	0.114639
N522	N	1.655523	-0.286783	0.447972
H523	H	1.014259	-0.975418	-0.193339
H524	H	1.347592	-0.642085	0.139995
H525	H	1.680925	-0.308752	0.473328
H526	H	1.017835	-0.933951	-0.244223
H527	H	1.351168	-0.600618	0.089110
H528	H	1.684501	-0.267284	0.422444
N529	N	0.988896	-1.050972	-0.218709
N530	N	1.322230	-0.717639	0.114625
N531	N	1.655563	-0.384306	0.447958
H532	H	0.982822	-1.084257	-0.224791
H533	H	1.316155	-0.750924	0.108542
H534	H	1.649489	-0.417590	0.441876
H535	H	1.033636	-1.042730	-0.228504
H536	H	1.366970	-0.709397	0.104829
H537	H	1.700303	-0.376064	0.438162
H538	H	0.832824	-1.044859	-0.374550
H539	H	1.166157	-0.711526	-0.041217
H540	H	1.499491	-0.378193	0.292117
H541	H	0.346464	-0.142864	-0.311026
H542	H	0.679797	0.190470	0.022307
H543	H	1.013131	0.523803	0.355641
