data_functionalizedCrystal
_audit_creation_method	'MofGen! by Chris Wilmer'
_symmetry_space_group_name_H-M	'P1'
_symmetry_Int_Tables_number	1
_symmetry_cell_setting	triclinic
loop_
_symmetry_equiv_pos_as_xyz
  x,y,z
_cell_length_a	10.654550
_cell_length_b	19.188930
_cell_length_c	9.730223
_cell_angle_alpha	89.993564
_cell_angle_beta	89.996251
_cell_angle_gamma	83.814841
loop_
_atom_site_label
_atom_site_type_symbol
_atom_site_fract_x
_atom_site_fract_y
_atom_site_fract_z
O1	O	1.665759	0.098059	-0.114420
O2	O	1.300083	0.107401	-0.114400
O3	O	1.493474	0.001144	-0.114384
O4	O	1.472368	0.204317	-0.114436
O5	O	1.493471	0.001146	0.114196
O6	O	1.300081	0.107404	0.114180
O7	O	1.665757	0.098061	0.114160
Zn8	Zn	1.482918	0.102733	0.150462
Zn9	Zn	1.482921	0.102730	-0.150702
O10	O	1.472366	0.204319	0.114144
C11	C	1.253298	0.106717	-0.000107
C12	C	1.113898	0.104664	-0.000098
C13	C	1.033089	0.167227	-0.000134
C14	C	0.902109	0.165295	-0.000157
C15	C	0.932761	0.038231	-0.000114
C16	C	1.063738	0.040164	-0.000081
C17	C	1.083249	0.231728	-0.000151
C18	C	1.002438	0.294296	-0.000189
C19	C	0.871458	0.292363	-0.000212
C20	C	0.821289	0.227863	-0.000198
C21	C	1.492789	-0.024871	-0.000090
C22	C	1.490737	-0.102389	-0.000078
C23	C	1.604213	-0.146570	-0.000078
C24	C	1.602285	-0.219407	-0.000099
C25	C	1.486876	-0.248058	-0.000094
C26	C	1.373386	-0.203867	-0.000102
C27	C	1.375316	-0.131032	-0.000094
N28	N	1.398658	-0.356639	0.077701
N29	N	1.396832	-0.425830	0.077696
C30	C	1.481052	-0.467505	-0.000121
N31	N	1.567186	-0.437377	-0.077917
N32	N	1.569016	-0.368180	-0.077906
C33	C	1.484770	-0.327034	-0.000104
C34	C	1.592445	-0.590665	-0.000147
C35	C	1.590513	-0.663502	-0.000177
C36	C	1.361610	-0.647960	-0.000166
C37	C	1.363545	-0.575125	-0.000149
C38	C	1.478966	-0.546481	-0.000133
C39	C	1.712541	0.098746	-0.000136
C40	C	1.851941	0.100798	-0.000154
C41	C	1.473051	0.230334	-0.000153
C42	C	1.475102	0.307852	-0.000174
N43	N	1.482925	0.102735	0.355998
N44	N	1.482924	0.102722	-0.356238
C45	C	1.568581	0.055700	0.427932
C46	C	1.568577	0.055692	0.571815
C47	C	1.397260	0.149759	0.571818
C48	C	1.397258	0.149764	0.427938
C49	C	1.654248	0.008672	0.355992
C50	C	1.739911	-0.038367	0.427925
C51	C	1.739908	-0.038375	0.571808
C52	C	1.654242	0.008655	0.643758
H53	H	0.714635	0.226294	-0.000195
O54	O	1.822990	-0.084042	0.641899
C55	C	1.804646	-0.073954	0.784319
H56	H	1.704662	-0.048381	0.803977
H57	H	1.818919	-0.126759	0.839000
H58	H	1.875520	-0.038568	0.825145
O59	O	0.883821	-0.024361	-0.000173
C60	C	0.750888	-0.012651	-0.000179
H61	H	0.719844	0.041685	-0.043471
H62	H	0.710915	-0.053959	-0.066547
H63	H	0.714413	-0.016211	0.109473
H64	H	1.043295	0.346810	-0.000189
O65	O	1.253346	-0.532174	-0.000378
C66	C	1.247629	-0.489556	-0.118739
H67	H	1.311994	-0.515907	-0.201488
H68	H	1.146429	-0.481856	-0.158472
H69	H	1.279837	-0.436445	-0.091969
O70	O	1.712636	-0.262235	-0.000034
C71	C	1.814921	-0.221335	-0.000059
H72	H	1.782748	-0.167140	0.043217
H73	H	1.894397	-0.247821	0.066308
H74	H	1.850329	-0.215972	-0.109717
O75	O	1.142066	-0.020674	-0.000118
C76	C	1.069711	-0.078018	-0.000092
H77	H	0.971862	-0.060775	-0.043392
H78	H	1.118294	-0.121891	-0.066438
H79	H	1.060469	-0.097759	0.109570
H80	H	1.698197	-0.123254	-0.000069
O81	O	1.261356	-0.231778	-0.000278
C82	C	1.253382	-0.273422	-0.118680
H83	H	1.352462	-0.291075	-0.158150
H84	H	1.203587	-0.321353	-0.092056
H85	H	1.197650	-0.241512	-0.201575
O86	O	1.265114	-0.088081	-0.000330
C87	C	1.259401	-0.045460	-0.118687
H88	H	1.323767	-0.071810	-0.201437
H89	H	1.158202	-0.037756	-0.158421
H90	H	1.291613	0.007649	-0.091910
H91	H	1.327509	0.188064	0.369370
H92	H	1.686428	-0.567342	-0.000140
H93	H	1.654261	0.008676	0.238835
H94	H	1.682922	-0.699475	-0.000185
O95	O	1.314178	0.195419	0.641919
C96	C	1.332529	0.185318	0.784337
H97	H	1.432510	0.159738	0.803978
H98	H	1.318265	0.238118	0.839016
H99	H	1.261651	0.149931	0.825179
H100	H	1.654238	0.008639	0.760917
O101	O	0.793136	0.353203	-0.000303
C102	C	0.865502	0.410543	-0.000274
H103	H	0.963370	0.393293	-0.043522
H104	H	0.816958	0.454416	-0.066662
H105	H	0.874693	0.430288	0.109383
O106	O	1.822925	-0.084104	0.357915
C107	C	1.755882	-0.127532	0.274755
H108	H	1.657487	-0.100211	0.253176
H109	H	1.808359	-0.138338	0.173587
H110	H	1.747589	-0.179162	0.330252
H111	H	1.267641	-0.671287	-0.000168
H112	H	1.189898	0.233309	-0.000138
