data_functionalizedCrystal
_audit_creation_method	'MofGen! by Chris Wilmer'
_symmetry_space_group_name_H-M	'P1'
_symmetry_Int_Tables_number	1
_symmetry_cell_setting	triclinic
loop_
_symmetry_equiv_pos_as_xyz
  x,y,z
_cell_length_a	14.044220
_cell_length_b	10.489741
_cell_length_c	12.503572
_cell_angle_alpha	93.559494
_cell_angle_beta	86.164750
_cell_angle_gamma	88.864026
loop_
_atom_site_label
_atom_site_type_symbol
_atom_site_fract_x
_atom_site_fract_y
_atom_site_fract_z
O1	O	1.265220	0.300990	-0.089205
O2	O	1.515220	0.550990	0.160795
O3	O	1.765220	0.800990	0.410795
O4	O	2.015220	1.050990	0.660795
O5	O	0.989177	0.289883	-0.089232
O6	O	1.239177	0.539883	0.160768
O7	O	1.489177	0.789883	0.410768
O8	O	1.739177	1.039883	0.660768
O9	O	1.133479	0.110477	-0.089211
O10	O	1.383479	0.360477	0.160789
O11	O	1.633479	0.610477	0.410789
O12	O	1.883479	0.860477	0.660789
O13	O	1.120918	0.480397	-0.089225
O14	O	1.370918	0.730397	0.160775
O15	O	1.620918	0.980397	0.410775
O16	O	1.870918	1.230397	0.660775
O17	O	1.122627	0.123993	0.089429
O18	O	1.372627	0.373993	0.339429
O19	O	1.622627	0.623993	0.589429
O20	O	1.872627	0.873993	0.839429
O21	O	0.978325	0.303400	0.089408
O22	O	1.228325	0.553400	0.339408
O23	O	1.478325	0.803400	0.589408
O24	O	1.728325	1.053400	0.839408
O25	O	1.254368	0.314507	0.089436
O26	O	1.504368	0.564507	0.339436
O27	O	1.754368	0.814507	0.589436
O28	O	2.004368	1.064507	0.839436
Cu29	Cu	1.115355	0.310188	0.105733
Cu30	Cu	1.365355	0.560188	0.355733
Cu31	Cu	1.615355	0.810188	0.605733
Cu32	Cu	1.865355	1.060188	0.855733
Cu33	Cu	1.128189	0.294203	-0.105530
Cu34	Cu	1.378189	0.544203	0.144470
Cu35	Cu	1.628189	0.794203	0.394470
Cu36	Cu	1.878189	1.044203	0.644470
O37	O	1.110065	0.493914	0.089415
O38	O	1.360065	0.743914	0.339415
O39	O	1.610065	0.993914	0.589415
O40	O	1.860065	1.243914	0.839415
C41	C	0.948403	0.291780	0.000085
C42	C	1.198403	0.541780	0.250085
C43	C	1.448403	0.791780	0.500085
C44	C	1.698403	1.041780	0.750085
C45	C	0.843079	0.277280	0.000074
C46	C	1.093079	0.527280	0.250074
C47	C	1.343079	0.777280	0.500074
C48	C	1.593079	1.027280	0.750074
C49	C	0.650235	0.250773	0.000097
C50	C	0.900235	0.500773	0.250097
C51	C	1.150235	0.750773	0.500097
C52	C	1.400235	1.000773	0.750097
C53	C	0.593304	0.353611	0.000097
C54	C	0.843304	0.603611	0.250097
C55	C	1.093304	0.853611	0.500097
C56	C	1.343304	1.103611	0.750097
C57	C	0.485999	0.338862	0.000110
C58	C	0.735999	0.588862	0.250110
C59	C	0.985999	0.838862	0.500110
C60	C	1.235999	1.088862	0.750110
C61	C	0.757550	0.265520	0.000084
C62	C	1.007550	0.515520	0.250084
C63	C	1.257550	0.765520	0.500084
C64	C	1.507550	1.015520	0.750084
C65	C	1.127104	0.069607	0.000108
C66	C	1.377104	0.319607	0.250108
C67	C	1.627104	0.569607	0.500108
C68	C	1.877104	0.819607	0.750108
C69	C	1.124266	-0.072311	0.000106
C70	C	1.374266	0.177689	0.250106
C71	C	1.624266	0.427689	0.500106
C72	C	1.874266	0.677689	0.750106
C73	C	1.032451	-0.149764	0.000089
C74	C	1.282451	0.100236	0.250089
C75	C	1.532451	0.350236	0.500089
C76	C	1.782451	0.600236	0.750089
C77	C	1.070473	-0.230823	0.088172
C78	C	1.320473	0.019177	0.338172
C79	C	1.570473	0.269177	0.588172
C80	C	1.820473	0.519177	0.838172
C81	C	1.081194	-0.244122	-0.087953
C82	C	1.331194	0.005878	0.162047
C83	C	1.581194	0.255878	0.412047
C84	C	1.831194	0.505878	0.662047
C85	C	1.162321	-0.151494	0.088262
C86	C	1.412321	0.098506	0.338262
C87	C	1.662321	0.348506	0.588262
C88	C	1.912321	0.598506	0.838262
C89	C	1.173035	-0.164791	-0.087943
C90	C	1.423035	0.085209	0.162057
C91	C	1.673035	0.335209	0.412057
C92	C	1.923035	0.585209	0.662057
C93	C	1.211122	-0.245814	0.000162
C94	C	1.461122	0.004186	0.250162
C95	C	1.711122	0.254186	0.500162
C96	C	1.961122	0.504186	0.750162
C97	C	1.295142	0.312610	0.000116
C98	C	1.545142	0.562610	0.250116
C99	C	1.795142	0.812610	0.500116
C100	C	2.045142	1.062610	0.750116
C101	C	1.400466	0.327110	0.000120
C102	C	1.650466	0.577110	0.250120
C103	C	1.900466	0.827110	0.500120
C104	C	2.150466	1.077110	0.750120
C105	C	1.116440	0.534783	0.000093
C106	C	1.366440	0.784783	0.250093
C107	C	1.616440	1.034783	0.500093
C108	C	1.866440	1.284783	0.750093
C109	C	1.119279	0.676700	0.000088
C110	C	1.369279	0.926700	0.250088
C111	C	1.619279	1.176700	0.500088
C112	C	1.869279	1.426700	0.750088
N113	N	1.106335	0.321431	0.254324
N114	N	1.356335	0.571431	0.504324
N115	N	1.606335	0.821431	0.754324
N116	N	1.856335	1.071431	1.004324
N117	N	1.137217	0.282950	-0.254121
N118	N	1.387217	0.532950	-0.004121
N119	N	1.637217	0.782950	0.245879
N120	N	1.887217	1.032950	0.495879
C121	C	1.093067	0.337981	0.473438
C122	C	1.343067	0.587981	0.723438
C123	C	1.593067	0.837981	0.973438
C124	C	1.843067	1.087981	1.223438
C125	C	1.150482	0.266404	0.526773
C126	C	1.400482	0.516404	0.776773
C127	C	1.650482	0.766404	1.026773
C128	C	1.900482	1.016404	1.276773
C129	C	1.143099	0.275613	0.648695
C130	C	1.393099	0.525613	0.898695
C131	C	1.643099	0.775613	1.148695
C132	C	1.893099	1.025613	1.398695
C133	C	1.100449	0.328774	0.351504
C134	C	1.350449	0.578774	0.601504
C135	C	1.600449	0.828774	0.851504
C136	C	1.850449	1.078774	1.101504
H137	H	0.618389	0.151662	0.000106
H138	H	0.868389	0.401662	0.250106
H139	H	1.118389	0.651662	0.500106
H140	H	1.368389	0.901662	0.750106
Br141	Br	1.001903	0.451640	0.549942
Br142	Br	1.251903	0.701640	0.799942
Br143	Br	1.501903	0.951640	1.049942
Br144	Br	1.751903	1.201640	1.299942
H145	H	1.196608	-0.111084	0.162813
H146	H	1.446608	0.138916	0.412813
H147	H	1.696608	0.388916	0.662813
H148	H	1.946608	0.638916	0.912813
H149	H	0.956955	-0.107764	0.000170
H150	H	1.206955	0.142236	0.250170
H151	H	1.456955	0.392236	0.500170
H152	H	1.706955	0.642236	0.750170
H153	H	1.046857	-0.284662	-0.162428
H154	H	1.296857	-0.034662	0.087572
H155	H	1.546857	0.215338	0.337572
H156	H	1.796857	0.465338	0.587572
H157	H	0.625152	0.452730	0.000088
H158	H	0.875152	0.702730	0.250088
H159	H	1.125152	0.952730	0.500088
H160	H	1.375152	1.202730	0.750088
Br161	Br	0.998186	-0.279686	0.212281
Br162	Br	1.248186	-0.029686	0.462281
Br163	Br	1.498186	0.220314	0.712281
Br164	Br	1.748186	0.470314	0.962281
Br165	Br	1.337051	-0.315416	0.000248
Br166	Br	1.587051	-0.065416	0.250248
Br167	Br	1.837051	0.184584	0.500248
Br168	Br	2.087051	0.434584	0.750248
Br169	Br	1.245275	-0.115873	-0.212056
Br170	Br	1.495275	0.134127	0.037944
Br171	Br	1.745275	0.384127	0.287944
Br172	Br	1.995275	0.634127	0.537944
H173	H	1.205182	0.198210	0.480868
H174	H	1.455182	0.448210	0.730868
H175	H	1.705182	0.698210	0.980868
H176	H	1.955182	0.948210	1.230868
