data_functionalizedCrystal
_audit_creation_method	'MofGen! by Chris Wilmer'
_symmetry_space_group_name_H-M	'P1'
_symmetry_Int_Tables_number	1
_symmetry_cell_setting	triclinic
loop_
_symmetry_equiv_pos_as_xyz
  x,y,z
_cell_length_a	22.610064
_cell_length_b	11.792241
_cell_length_c	11.792241
_cell_angle_alpha	84.193416
_cell_angle_beta	90.003956
_cell_angle_gamma	89.995919
loop_
_atom_site_label
_atom_site_type_symbol
_atom_site_fract_x
_atom_site_fract_y
_atom_site_fract_z
O1	O	0.049127	-1.506917	-0.155552
O2	O	0.049141	-1.176575	-0.171585
O3	O	0.049130	-1.349762	0.001602
O4	O	0.049139	-1.333730	-0.328739
O5	O	-0.049239	-1.349732	0.001576
O6	O	-0.049228	-1.176545	-0.171611
O7	O	-0.049242	-1.506886	-0.155578
Zn8	Zn	-0.064853	-1.341710	-0.163598
Zn9	Zn	0.064752	-1.341751	-0.163565
O10	O	-0.049230	-1.333699	-0.328765
C11	C	-0.000042	-1.134269	-0.170591
C12	C	-0.000037	-1.008255	-0.167576
C13	C	-0.000055	-1.348740	0.043880
C14	C	-0.000054	-1.345726	0.169894
N15	N	-0.153306	-1.341691	-0.163620
C16	C	-0.561952	-1.418442	-0.086890
C17	C	-0.623872	-1.418447	-0.086881
O18	O	-0.655895	-1.483655	-0.021659
N19	N	-0.654843	-1.341750	-0.163541
C20	C	-0.623890	-1.265034	-0.240207
O21	O	-0.655919	-1.199796	-0.305411
C22	C	-0.561972	-1.265023	-0.240209
C23	C	-0.531004	-1.341734	-0.163551
C24	C	-0.530984	-1.495145	-0.010238
C25	C	-0.469069	-1.495140	-0.010248
C26	C	-0.438121	-1.418432	-0.086909
C27	C	-0.469088	-1.341729	-0.163561
C28	C	-0.531020	-1.188303	-0.316868
C29	C	-0.469097	-1.188299	-0.316862
C30	C	-0.438130	-1.265009	-0.240205
C31	C	-0.376225	-1.265017	-0.240233
N32	N	-0.345254	-1.341714	-0.163573
C33	C	-0.376202	-1.418422	-0.086911
C34	C	-0.753924	-1.265060	-0.240196
C35	C	-0.815842	-1.265075	-0.240200
C36	C	-0.815819	-1.418487	-0.086873
C37	C	-0.753900	-1.418477	-0.086875
C38	C	-0.722953	-1.341757	-0.163536
C39	C	-0.246175	-1.418407	-0.086939
C40	C	-0.184254	-1.418399	-0.086958
C41	C	-0.184282	-1.264983	-0.240281
C42	C	-0.246197	-1.264995	-0.240266
C43	C	-0.277142	-1.341711	-0.163585
O44	O	-0.344162	-1.199839	-0.305419
O45	O	-0.344166	-1.483639	-0.021708
N46	N	0.153205	-1.341779	-0.163534
C47	C	-0.000058	-1.549192	-0.156572
C48	C	-0.000059	-1.675206	-0.159587
C49	C	-0.000054	-0.777543	-0.162034
C50	C	-0.000044	-0.905928	-0.165113
C51	C	-0.000045	-1.334721	-0.371043
C52	C	-0.000042	-1.337736	-0.497057
C53	C	-0.000044	-1.340183	0.400606
C54	C	-0.000049	-1.343262	0.272221
H55	H	-0.159042	-1.480870	-0.024535
O56	O	-0.845980	-1.492888	-0.012436
C57	C	-0.907270	-1.476455	-0.028897
H58	H	-0.915728	-1.386481	-0.070718
H59	H	-0.924842	-1.541045	-0.086254
C60	C	-0.928669	-1.603299	0.138461
C61	C	-0.939058	-1.492789	0.087104
H62	H	-0.948278	-1.613379	0.210014
H63	H	-0.887376	-1.614374	0.149549
H64	H	-0.943312	-1.657111	0.090652
H65	H	-0.924408	-1.438979	0.134906
H66	H	-0.980348	-1.481704	0.076027
O67	O	-0.561156	-1.113729	-0.391173
C68	C	-0.596959	-1.043321	-0.329908
H69	H	-0.606238	-1.087994	-0.241404
H70	H	-0.573092	-0.959403	-0.321612
C71	C	-0.644377	-0.964555	-0.502451
C72	C	-0.655778	-1.019428	-0.393751
H73	H	-0.680658	-0.949812	-0.541833
H74	H	-0.620254	-1.011987	-0.543727
H75	H	-0.624486	-0.894630	-0.495522
H76	H	-0.675661	-1.089357	-0.400682
H77	H	-0.679905	-0.972007	-0.352477
O78	O	-0.439083	-1.569690	0.064336
C79	C	-0.479686	-1.637402	0.131976
H80	H	-0.523826	-1.590859	0.133557
H81	H	-0.486268	-1.721943	0.094559
C82	C	-0.401311	-1.717205	0.252328
C83	C	-0.455522	-1.660035	0.254277
H84	H	-0.386405	-1.731171	0.327768
H85	H	-0.373955	-1.671590	0.206756
H86	H	-0.406804	-1.787649	0.221142
H87	H	-0.450028	-1.589587	0.285449
H88	H	-0.482877	-1.705639	0.299858
O89	O	-0.845828	-1.190457	-0.314715
C90	C	-0.805227	-1.122779	-0.382395
H91	H	-0.761088	-1.121218	-0.335850
H92	H	-0.798645	-1.160146	-0.466961
C93	C	-0.883607	-1.002399	-0.462133
C94	C	-0.829396	-1.000474	-0.404960
H95	H	-0.898516	-0.926957	-0.476057
H96	H	-0.910961	-1.047997	-0.416539
H97	H	-0.878114	-1.033543	-0.532598
H98	H	-0.834891	-0.969344	-0.334491
H99	H	-0.802043	-0.954868	-0.450543
O100	O	-0.561107	-1.569716	0.064080
C101	C	-0.596906	-1.640138	0.002824
H102	H	-0.606198	-1.595473	-0.085682
H103	H	-0.573028	-1.724051	-0.005467
C104	C	-0.644298	-1.718900	0.175375
C105	C	-0.655716	-1.664038	0.066674
H106	H	-0.680574	-1.733649	0.214762
H107	H	-0.620178	-1.671459	0.216646
H108	H	-0.624399	-1.788822	0.168450
H109	H	-0.675608	-1.594112	0.073600
H110	H	-0.679840	-1.711468	0.025406
O111	O	-0.154238	-1.190585	-0.314901
C112	C	-0.169378	-1.209686	-0.427391
H113	H	-0.186398	-1.300554	-0.428572
H114	H	-0.205320	-1.146975	-0.460304
C115	C	-0.093470	-1.080908	-0.502760
C116	C	-0.114369	-1.192518	-0.504213
H117	H	-0.059539	-1.070313	-0.550150
H118	H	-0.083271	-1.068035	-0.426975
H119	H	-0.123427	-1.028662	-0.530185
H120	H	-0.084415	-1.244761	-0.476775
H121	H	-0.124561	-1.205399	-0.579996
H122	H	-0.443903	-1.125821	-0.379288
H123	H	-0.271363	-1.480875	-0.024497
O124	O	-0.276259	-1.190327	-0.314614
C125	C	-0.261116	-1.077868	-0.295418
H126	H	-0.244081	-1.076770	-0.204546
H127	H	-0.225184	-1.044912	-0.358117
C128	C	-0.337045	-1.002375	-0.424118
C129	C	-0.316128	-1.001024	-0.312504
H130	H	-0.370978	-0.954972	-0.434662
H131	H	-0.347246	-1.078140	-0.437055
H132	H	-0.307097	-0.974914	-0.476354
H133	H	-0.346073	-1.028498	-0.260271
H134	H	-0.305933	-0.925262	-0.299559
H135	H	-0.728730	-1.202588	-0.302631
H136	H	-0.728690	-1.480940	-0.024454
