data_functionalizedCrystal
_audit_creation_method	'MofGen! by Chris Wilmer'
_symmetry_space_group_name_H-M	'P1'
_symmetry_Int_Tables_number	1
_symmetry_cell_setting	triclinic
loop_
_symmetry_equiv_pos_as_xyz
  x,y,z
_cell_length_a	11.169417
_cell_length_b	13.897447
_cell_length_c	11.169409
_cell_angle_alpha	89.965755
_cell_angle_beta	89.979436
_cell_angle_gamma	90.020409
loop_
_atom_site_label
_atom_site_type_symbol
_atom_site_fract_x
_atom_site_fract_y
_atom_site_fract_z
Zn1	Zn	1.834894	-0.383915	-0.678526
Zn2	Zn	1.834749	-0.545250	-0.477836
Zn3	Zn	1.634178	-0.383973	-0.477861
Zn4	Zn	1.634156	-0.545172	-0.678481
O5	O	1.734494	-0.464578	-0.578176
O6	O	2.002825	-0.405324	-0.651913
O7	O	1.808091	-0.523914	-0.309890
O8	O	1.660873	-0.248984	-0.504509
O9	O	2.002718	-0.523857	-0.504467
O10	O	1.808339	-0.248941	-0.651937
O11	O	1.660732	-0.405424	-0.309908
O12	O	1.466225	-0.405348	-0.504465
O13	O	1.660836	-0.523723	-0.846437
O14	O	1.466209	-0.523780	-0.651860
O15	O	1.808318	-0.405249	-0.846470
O16	O	1.808070	-0.680222	-0.504423
O17	O	1.660695	-0.680164	-0.651836
C18	C	1.422670	-0.464563	-0.578161
C19	C	1.289270	-0.464580	-0.578183
C20	C	1.734397	-0.715192	-0.578148
C21	C	1.734465	-0.822406	-0.578177
C22	C	1.734523	-0.909476	-0.578204
C23	C	1.734607	-1.018708	-0.578235
C24	C	2.047537	-0.464593	-0.578192
C25	C	2.180936	-0.464600	-0.578199
C26	C	1.734590	-0.464471	-0.891219
C27	C	1.734631	-0.464425	-1.024619
C28	C	1.734625	-0.212985	-0.578230
C29	C	1.734681	-0.105771	-0.578253
C30	C	1.734467	-0.464614	-0.266351
C31	C	1.734659	-0.464388	-0.132952
