data_functionalizedCrystal
_audit_creation_method	'MofGen! by Chris Wilmer'
_symmetry_space_group_name_H-M	'P1'
_symmetry_Int_Tables_number	1
_symmetry_cell_setting	triclinic
loop_
_symmetry_equiv_pos_as_xyz
  x,y,z
_cell_length_a	10.654550
_cell_length_b	14.519709
_cell_length_c	9.730223
_cell_angle_alpha	89.997715
_cell_angle_beta	89.996251
_cell_angle_gamma	84.082524
loop_
_atom_site_label
_atom_site_type_symbol
_atom_site_fract_x
_atom_site_fract_y
_atom_site_fract_z
O1	O	1.666589	0.129528	-0.114406
O2	O	2.166589	0.629528	0.385594
O3	O	1.300991	0.141869	-0.114384
O4	O	1.800991	0.641869	0.385616
O5	O	1.493483	0.001510	-0.114384
O6	O	1.993483	0.501510	0.385616
O7	O	1.474097	0.269887	-0.114407
O8	O	1.974097	0.769887	0.385593
O9	O	1.493481	0.001514	0.114196
O10	O	1.993481	0.501514	0.614196
O11	O	1.300989	0.141873	0.114195
O12	O	1.800989	0.641873	0.614195
O13	O	1.666586	0.129532	0.114174
O14	O	2.166586	0.629532	0.614174
Zn15	Zn	1.483787	0.135703	0.150477
Zn16	Zn	1.983787	0.635703	0.650477
Zn17	Zn	1.483790	0.135698	-0.150687
Zn18	Zn	1.983790	0.635698	0.349313
O19	O	1.474094	0.269890	0.114173
O20	O	1.974094	0.769890	0.614173
C21	C	1.254201	0.140965	-0.000092
C22	C	1.754201	0.640965	0.499908
C23	C	1.114784	0.138254	-0.000083
C24	C	1.614784	0.638254	0.499917
C25	C	1.034504	0.220895	-0.000110
C26	C	1.534504	0.720895	0.499890
C27	C	0.903507	0.218342	-0.000134
C28	C	1.403507	0.718342	0.499866
C29	C	0.933085	0.050500	-0.000108
C30	C	1.433085	0.550500	0.499892
C31	C	1.064078	0.053054	-0.000075
C32	C	1.564078	0.553054	0.499925
C33	C	1.085209	0.306095	-0.000118
C34	C	1.585209	0.806095	0.499882
C35	C	1.004928	0.388743	-0.000147
C36	C	1.504928	0.888743	0.499853
C37	C	0.873931	0.386190	-0.000170
C38	C	1.373931	0.886190	0.499830
C39	C	0.823217	0.300989	-0.000165
C40	C	1.323217	0.800989	0.499835
C41	C	1.492579	-0.032852	-0.000093
C42	C	1.992579	0.467148	0.499907
C43	C	1.489871	-0.135247	-0.000092
C44	C	1.989871	0.364753	0.499908
C45	C	1.479904	-0.510195	-0.000127
C46	C	1.979904	-0.010195	0.499873
C47	C	1.482672	-0.405873	-0.000117
C48	C	1.982672	0.094127	0.499883
C49	C	1.484887	-0.322725	-0.000109
C50	C	1.984887	0.177275	0.499891
C51	C	1.487656	-0.218396	-0.000101
C52	C	1.987656	0.281604	0.499899
C53	C	1.713377	0.130436	-0.000122
C54	C	2.213377	0.630436	0.499878
C55	C	1.852794	0.133147	-0.000140
C56	C	2.352794	0.633147	0.499860
C57	C	1.474999	0.304253	-0.000120
C58	C	1.974999	0.804253	0.499880
C59	C	1.477707	0.406648	-0.000130
C60	C	1.977707	0.906648	0.499870
N61	N	1.483795	0.135705	0.356013
N62	N	1.983795	0.635705	0.856013
N63	N	1.483793	0.135688	-0.356224
N64	N	1.983793	0.635688	0.143776
C65	C	1.569052	0.073576	0.427939
C66	C	2.069052	0.573576	0.927939
C67	C	1.569048	0.073565	0.571822
C68	C	2.069048	0.573565	1.071822
C69	C	1.398527	0.197821	0.571840
C70	C	1.898527	0.697821	1.071840
C71	C	1.398525	0.197827	0.427959
C72	C	1.898525	0.697827	0.927959
C73	C	1.654321	0.011455	0.355993
C74	C	2.154321	0.511455	0.855993
C75	C	1.739586	-0.050679	0.427920
C76	C	2.239586	0.449321	0.927920
C77	C	1.739583	-0.050691	0.571803
C78	C	2.239583	0.449309	1.071803
C79	C	1.654315	0.011432	0.643759
C80	C	2.154315	0.511432	1.143759
H81	H	0.891782	-0.018867	-0.000127
H82	H	1.391782	0.481133	0.499873
Br83	Br	0.645434	0.297527	-0.000171
Br84	Br	1.145434	0.797527	0.499829
H85	H	1.191871	0.308183	-0.000105
H86	H	1.691871	0.808183	0.499895
H87	H	1.046228	0.458110	-0.000140
H88	H	1.546228	0.958110	0.499860
Br89	Br	0.764980	0.498351	-0.000191
Br90	Br	1.264980	0.998351	0.499809
Br91	Br	1.173039	-0.059103	-0.000030
Br92	Br	1.673039	0.440897	0.499970
H93	H	1.654334	0.011460	0.238836
H94	H	2.154334	0.511460	0.738836
Br95	Br	1.855282	-0.135022	0.669417
Br96	Br	2.355282	0.364978	1.169417
Br97	Br	1.855287	-0.134996	0.330271
Br98	Br	2.355287	0.365004	0.830271
Br99	Br	1.654302	0.011403	0.839031
Br100	Br	2.154302	0.511403	1.339031
H101	H	1.329106	0.248399	0.630436
H102	H	1.829106	0.748399	1.130436
H103	H	1.329100	0.248418	0.369396
H104	H	1.829100	0.748418	0.869396
