data_functionalizedCrystal
_audit_creation_method	'MofGen! by Chris Wilmer'
_symmetry_space_group_name_H-M	'P1'
_symmetry_Int_Tables_number	1
_symmetry_cell_setting	triclinic
loop_
_symmetry_equiv_pos_as_xyz
  x,y,z
_cell_length_a	17.077404
_cell_length_b	19.805405
_cell_length_c	19.805399
_cell_angle_alpha	89.970699
_cell_angle_beta	89.981468
_cell_angle_gamma	90.026635
loop_
_atom_site_label
_atom_site_type_symbol
_atom_site_fract_x
_atom_site_fract_y
_atom_site_fract_z
Zn1	Zn	1.200028	-0.269475	-0.382693
Zn2	Zn	1.199929	-0.382663	-0.269501
Zn3	Zn	1.068762	-0.269494	-0.269519
Zn4	Zn	1.068720	-0.382628	-0.382650
O5	O	1.134360	-0.326065	-0.326091
O6	O	1.309862	-0.284496	-0.367688
O7	O	1.182506	-0.367674	-0.174787
O8	O	1.086234	-0.174775	-0.284558
O9	O	1.309789	-0.367655	-0.284526
O10	O	1.182674	-0.174761	-0.367706
O11	O	1.086138	-0.284529	-0.174800
O12	O	0.958909	-0.284494	-0.284516
O13	O	1.086162	-0.367595	-0.477372
O14	O	0.958878	-0.367613	-0.367633
O15	O	1.182633	-0.284462	-0.477404
O16	O	1.182465	-0.477375	-0.284485
O17	O	1.086066	-0.477349	-0.367615
C18	C	0.930412	-0.326053	-0.326072
C19	C	0.843162	-0.326064	-0.326080
C20	C	0.802176	-0.369409	-0.369289
C21	C	0.720196	-0.369410	-0.369300
C22	C	0.679203	-0.326070	-0.326098
C23	C	0.720194	-0.282719	-0.282887
C24	C	0.802173	-0.282715	-0.282880
C25	C	0.549324	-0.282733	-0.282903
C26	C	0.467339	-0.282738	-0.282909
C27	C	0.467347	-0.369428	-0.369324
C28	C	0.549326	-0.369424	-0.369317
C29	C	0.590312	-0.326074	-0.326104
C30	C	1.134271	-0.501921	-0.326058
C31	C	1.134305	-0.577153	-0.326067
C32	C	1.184549	-0.612488	-0.282826
C33	C	1.184582	-0.683177	-0.282841
C34	C	1.134367	-0.718528	-0.326094
C35	C	1.084122	-0.683188	-0.369339
C36	C	1.084093	-0.612501	-0.369327
C37	C	1.084237	-0.968261	-0.369389
C38	C	1.084268	-1.038954	-0.369396
C39	C	1.184727	-1.038937	-0.282903
C40	C	1.184698	-0.968250	-0.282891
C41	C	1.134456	-0.932916	-0.326139
C42	C	1.134421	-0.856267	-0.326123
C43	C	1.134397	-0.795176	-0.326107
C44	C	1.339104	-0.326078	-0.326110
C45	C	1.426354	-0.326083	-0.326118
C46	C	1.134404	-0.326022	-0.502634
C47	C	1.134422	-0.326004	-0.577866
C48	C	1.134470	-0.149522	-0.326138
C49	C	1.134517	-0.074290	-0.326159
C50	C	1.184656	-0.282715	-0.613227
C51	C	1.184664	-0.282695	-0.683916
C52	C	1.134442	-0.325969	-0.719241
C53	C	1.084202	-0.369260	-0.683875
C54	C	1.084191	-0.369276	-0.613187
C55	C	1.084247	-0.369197	-0.968948
C56	C	1.084264	-0.369179	-1.039640
C57	C	1.184720	-0.282616	-1.039676
C58	C	1.184709	-0.282632	-0.968989
C59	C	1.134467	-0.325920	-0.933629
C60	C	1.134458	-0.325940	-0.856980
C61	C	1.134454	-0.325953	-0.795888
C62	C	1.134361	-0.326059	-0.150235
C63	C	1.134494	-0.325886	-0.075003
H64	H	0.582692	-0.247427	-0.247721
O65	O	1.233410	-0.240494	-0.934710
C66	C	1.271602	-0.125364	-0.913166
C67	C	1.216389	-0.173013	-0.952012
H68	H	1.257871	-0.070797	-0.927151
H69	H	1.262967	-0.132747	-0.856560
H70	H	1.334888	-0.137282	-0.927064
H71	H	1.153082	-0.161125	-0.938171
H72	H	1.225092	-0.165622	-1.008609
H73	H	1.225627	-0.247366	-1.068475
O74	O	1.035379	-0.411400	-0.578940
C75	C	0.935723	-0.497248	-0.586359
C76	C	0.990974	-0.449585	-0.625228
H77	H	0.899795	-0.528123	-0.623766
H78	H	0.971706	-0.532691	-0.553284
H79	H	0.894722	-0.466174	-0.553245
H80	H	1.031986	-0.480604	-0.658379
H81	H	0.954942	-0.414140	-0.658261
H82	H	1.043363	-0.404419	-1.068400
H83	H	1.225585	-0.939469	-0.247669
H84	H	0.835547	-0.404705	-0.404468
H85	H	1.043348	-0.404455	-0.940166
H86	H	1.225640	-1.067714	-0.247692
O87	O	1.233289	-0.578224	-0.240715
C88	C	1.271432	-0.556618	-0.125606
C89	C	1.216195	-0.595474	-0.173220
H90	H	1.257620	-0.570539	-0.071026
H91	H	1.334738	-0.570477	-0.137489
H92	H	1.262794	-0.500030	-0.133057
H93	H	1.224763	-0.652071	-0.165795
H94	H	1.152909	-0.581559	-0.161325
H95	H	1.225556	-0.247478	-0.584470
H96	H	0.835543	-0.247415	-0.247698
O97	O	1.035466	-1.073191	-0.411482
C98	C	0.935794	-1.065752	-0.497254
C99	C	0.991032	-1.026894	-0.449642
H100	H	0.899843	-1.028338	-0.528108
H101	H	0.971791	-1.098780	-0.532719
H102	H	0.894816	-1.098914	-0.466142
H103	H	1.032022	-0.993696	-0.480699
H104	H	0.954986	-0.993910	-0.414175
O105	O	1.035488	-0.411274	-0.718292
C106	C	0.990949	-0.449587	-0.827171
C107	C	1.046170	-0.401982	-0.788280
H108	H	0.999554	-0.442081	-0.883763
H109	H	1.004696	-0.504183	-0.813309
H110	H	0.927667	-0.437705	-0.813226
H111	H	1.109470	-0.413802	-0.802204
H112	H	1.032356	-0.347399	-0.802145
H113	H	0.686811	-0.247428	-0.247713
O114	O	0.589027	-0.411547	-0.411345
C115	C	0.580388	-0.497562	-0.497029
C116	C	0.535329	-0.449881	-0.449476
H117	H	0.536993	-0.528577	-0.527860
H118	H	0.618779	-0.466563	-0.532518
H119	H	0.618758	-0.532878	-0.465872
H120	H	0.496916	-0.414555	-0.480578
H121	H	0.496987	-0.480923	-0.413985
O122	O	0.427416	-0.411472	-0.411282
C123	C	0.301126	-0.449927	-0.449568
C124	C	0.346253	-0.402267	-0.402032
H125	H	0.235498	-0.442511	-0.442095
H126	H	0.317222	-0.438113	-0.504180
H127	H	0.317258	-0.504480	-0.437585
H128	H	0.330145	-0.347698	-0.413954
H129	H	0.330153	-0.414138	-0.347434
O130	O	1.035427	-0.717498	-0.411452
C131	C	0.997223	-0.739047	-0.526557
C132	C	1.052432	-0.700163	-0.478942
H133	H	1.010941	-0.725035	-0.581132
H134	H	1.005876	-0.795646	-0.519196
H135	H	0.933935	-0.725208	-0.514585
H136	H	1.115742	-0.713945	-0.490885
H137	H	1.043712	-0.643573	-0.486312
H138	H	0.686829	-0.404707	-0.404485
H139	H	1.043180	-0.583732	-0.404538
O140	O	0.427639	-0.240570	-0.240925
C141	C	0.436277	-0.154605	-0.155192
C142	C	0.481336	-0.202314	-0.202715
H143	H	0.479672	-0.123672	-0.124277
H144	H	0.397948	-0.119217	-0.186308
H145	H	0.397845	-0.185645	-0.119774
H146	H	0.519811	-0.171328	-0.238143
H147	H	0.519616	-0.237704	-0.171557
O148	O	1.233426	-0.240548	-0.718186
C149	C	1.271582	-0.125409	-0.739865
C150	C	1.216320	-0.173068	-0.701004
H151	H	1.257760	-0.070841	-0.725998
H152	H	1.334879	-0.137250	-0.725958
H153	H	1.262981	-0.132855	-0.796453
H154	H	1.224851	-0.165648	-0.644407
H155	H	1.153043	-0.161215	-0.714967
O156	O	1.233547	-0.717376	-0.240872
C157	C	1.367160	-0.738795	-0.208206
C158	C	1.311759	-0.700045	-0.255767
H159	H	1.430406	-0.724808	-0.220241
H160	H	1.353488	-0.724908	-0.153606
H161	H	1.358594	-0.795400	-0.215589
H162	H	1.320294	-0.643431	-0.248444
H163	H	1.325444	-0.713987	-0.310349
H164	H	1.043327	-0.939498	-0.404601
