data_functionalizedCrystal
_audit_creation_method	'MofGen! by Chris Wilmer'
_symmetry_space_group_name_H-M	'P1'
_symmetry_Int_Tables_number	1
_symmetry_cell_setting	triclinic
loop_
_symmetry_equiv_pos_as_xyz
  x,y,z
_cell_length_a	19.077105
_cell_length_b	16.120484
_cell_length_c	19.077174
_cell_angle_alpha	95.281307
_cell_angle_beta	85.483752
_cell_angle_gamma	90.738523
loop_
_atom_site_label
_atom_site_type_symbol
_atom_site_fract_x
_atom_site_fract_y
_atom_site_fract_z
Zn1	Zn	1.077028	-0.405078	-0.458497
Zn2	Zn	1.410361	-0.071745	-0.125163
Zn3	Zn	1.743695	0.261589	0.208170
Zn4	Zn	1.066713	-0.538658	-0.346101
Zn5	Zn	1.400046	-0.205325	-0.012767
Zn6	Zn	1.733380	0.128009	0.320566
Zn7	Zn	0.954893	-0.393424	-0.335415
Zn8	Zn	1.288226	-0.060091	-0.002082
Zn9	Zn	1.621559	0.273243	0.331252
Zn10	Zn	0.953609	-0.538603	-0.459216
Zn11	Zn	1.286943	-0.205270	-0.125883
Zn12	Zn	1.620276	0.128063	0.207450
O13	O	1.013061	-0.468941	-0.399807
O14	O	1.346394	-0.135607	-0.066474
O15	O	1.679727	0.197726	0.266860
O16	O	1.174108	-0.427698	-0.447758
O17	O	1.507441	-0.094364	-0.114425
O18	O	1.840775	0.238969	0.218909
O19	O	1.048100	-0.514538	-0.245834
O20	O	1.381434	-0.181205	0.087500
O21	O	1.714767	0.152129	0.420833
O22	O	0.975948	-0.278308	-0.346969
O23	O	1.309282	0.055025	-0.013636
O24	O	1.642615	0.388359	0.319698
O25	O	1.166530	-0.525838	-0.365181
O26	O	1.499863	-0.192505	-0.031848
O27	O	1.833196	0.140828	0.301486
O28	O	1.065680	-0.286870	-0.437397
O29	O	1.399014	0.046463	-0.104063
O30	O	1.732347	0.379796	0.229270
O31	O	0.965946	-0.407835	-0.237983
O32	O	1.299280	-0.074502	0.095350
O33	O	1.632613	0.258832	0.428683
O34	O	0.856274	-0.407782	-0.347667
O35	O	1.189607	-0.074449	-0.014333
O36	O	1.522941	0.258884	0.319000
O37	O	0.973761	-0.525745	-0.557970
O38	O	1.307094	-0.192412	-0.224637
O39	O	1.640427	0.140921	0.108697
O40	O	0.855331	-0.514445	-0.438623
O41	O	1.188664	-0.181112	-0.105290
O42	O	1.521998	0.152222	0.228044
O43	O	1.064436	-0.427645	-0.557441
O44	O	1.397769	-0.094312	-0.224108
O45	O	1.731102	0.239022	0.109225
O46	O	1.046856	-0.655312	-0.365879
O47	O	1.380189	-0.321979	-0.032545
O48	O	1.713522	0.011354	0.300788
O49	O	0.963759	-0.655272	-0.448984
O50	O	1.297092	-0.321939	-0.115651
O51	O	1.630425	0.011394	0.217682
C52	C	0.830276	-0.459844	-0.392064
C53	C	1.163609	-0.126510	-0.058731
C54	C	1.496943	0.206823	0.274603
C55	C	0.752080	-0.455973	-0.388769
C56	C	1.085413	-0.122639	-0.055435
C57	C	1.418746	0.210694	0.277898
C58	C	1.004068	-0.685543	-0.408685
C59	C	1.337402	-0.352210	-0.075352
C60	C	1.670735	-0.018876	0.257981
C61	C	1.000287	-0.778211	-0.412510
C62	C	1.333620	-0.444878	-0.079176
C63	C	1.666953	-0.111544	0.254157
C64	C	0.714864	-0.509765	-0.434509
C65	C	1.048198	-0.176431	-0.101176
C66	C	1.381531	0.156902	0.232158
C67	C	0.641391	-0.506117	-0.431416
C68	C	0.974725	-0.172783	-0.098083
C69	C	1.308058	0.160550	0.235251
C70	C	0.605135	-0.448680	-0.382579
C71	C	0.938468	-0.115347	-0.049245
C72	C	1.271801	0.217986	0.284088
C73	C	0.642355	-0.394883	-0.336836
C74	C	0.975689	-0.061549	-0.003503
C75	C	1.309022	0.271784	0.329830
C76	C	0.715827	-0.398527	-0.339933
C77	C	1.049161	-0.065194	-0.006600
C78	C	1.382494	0.268140	0.326733
C79	C	0.385448	-0.431813	-0.368249
C80	C	0.718781	-0.098480	-0.034915
C81	C	1.052115	0.234854	0.298418
C82	C	0.311971	-0.428174	-0.365154
C83	C	0.645304	-0.094841	-0.031820
C84	C	0.978637	0.238492	0.301513
C85	C	0.311012	-0.539408	-0.459734
C86	C	0.644345	-0.206074	-0.126401
C87	C	0.977679	0.127259	0.206932
C88	C	0.384485	-0.543051	-0.462824
C89	C	0.717819	-0.209717	-0.129491
C90	C	1.051152	0.123616	0.203842
C91	C	0.421700	-0.489250	-0.417085
C92	C	0.755033	-0.155917	-0.083751
C93	C	1.088366	0.177417	0.249582
N94	N	0.530033	-0.444952	-0.379414
N95	N	0.863366	-0.111619	-0.046081
N96	N	1.196700	0.221715	0.287252
N97	N	0.496800	-0.492975	-0.420253
N98	N	0.830133	-0.159642	-0.086919
N99	N	1.163467	0.173692	0.246414
C100	C	0.993387	-0.947877	-0.419507
C101	C	1.326720	-0.614544	-0.086173
C102	C	1.660053	-0.281210	0.247160
C103	C	1.032861	-0.989171	-0.380125
C104	C	1.366195	-0.655838	-0.046791
C105	C	1.699528	-0.322504	0.286542
C106	C	1.029022	-1.083579	-0.384018
C107	C	1.362355	-0.750246	-0.050684
C108	C	1.695689	-0.416912	0.282649
C109	C	0.997225	-0.853460	-0.415614
C110	C	1.330558	-0.520127	-0.082281
C111	C	1.663892	-0.186794	0.251052
C112	C	1.196559	-0.478074	-0.407581
C113	C	1.529893	-0.144741	-0.074248
C114	C	1.863226	0.188593	0.259086
C115	C	1.274755	-0.481966	-0.410894
C116	C	1.608089	-0.148633	-0.077561
C117	C	1.941422	0.184700	0.255773
C118	C	1.020106	-0.477989	-0.584053
C119	C	1.353439	-0.144656	-0.250720
C120	C	1.686772	0.188678	0.082614
C121	C	1.023108	-0.481845	-0.662568
C122	C	1.356441	-0.148511	-0.329234
C123	C	1.689774	0.184822	0.004099
C124	C	1.022108	-0.251494	-0.390911
C125	C	1.355441	0.081839	-0.057577
C126	C	1.688775	0.415172	0.275756
C127	C	1.025963	-0.158832	-0.387120
C128	C	1.359297	0.174502	-0.053786
C129	C	1.692630	0.507835	0.279547
C130	C	0.981747	-0.428103	-0.695366
C131	C	1.315080	-0.094770	-0.362033
C132	C	1.648414	0.238564	-0.028699
C133	C	0.984565	-0.431733	-0.769139
C134	C	1.317898	-0.098399	-0.435806
C135	C	1.651231	0.234934	-0.102472
C136	C	1.028748	-0.489101	-0.810112
C137	C	1.362081	-0.155767	-0.476779
C138	C	1.695414	0.177566	-0.143445
C139	C	1.070110	-0.542848	-0.777309
C140	C	1.403443	-0.209515	-0.443975
C141	C	1.736777	0.123818	-0.110642
C142	C	1.067288	-0.539222	-0.703537
C143	C	1.400621	-0.205889	-0.370204
C144	C	1.733955	0.127445	-0.036870
C145	C	1.041771	-0.505907	-1.031184
C146	C	1.375104	-0.172574	-0.697851
C147	C	1.708437	0.160760	-0.364518
C148	C	1.044591	-0.509528	-1.104961
C149	C	1.377924	-0.176194	-0.771627
C150	C	1.711258	0.157139	-0.438294
C151	C	0.959044	-0.398413	-1.096786
C152	C	1.292378	-0.065079	-0.763453
C153	C	1.625711	0.268254	-0.430119
C154	C	0.956230	-0.394788	-1.023013
C155	C	1.289563	-0.061455	-0.689680
C156	C	1.622896	0.271879	-0.356347
C157	C	0.997589	-0.448538	-0.990216
C158	C	1.330922	-0.115205	-0.656883
C159	C	1.664256	0.218128	-0.323550
N160	N	1.031631	-0.492811	-0.885520
N161	N	1.364964	-0.159477	-0.552187
N162	N	1.698297	0.173856	-0.218853
N163	N	0.994702	-0.444832	-0.914810
N164	N	1.328035	-0.111499	-0.581476
N165	N	1.661369	0.221835	-0.248143
C166	C	1.006086	-0.459870	-0.216277
C167	C	1.339420	-0.126536	0.117056
C168	C	1.672753	0.206797	0.450389
C169	C	1.003230	-0.455786	-0.137759
C170	C	1.336564	-0.122452	0.195574
C171	C	1.669897	0.210881	0.528907
H172	H	0.744379	-0.556538	-0.474275
H173	H	1.077712	-0.223205	-0.140942
H174	H	1.411046	0.110128	0.192391
H175	H	1.069539	-0.953621	-0.343484
H176	H	1.402872	-0.620288	-0.010151
H177	H	1.736206	-0.286954	0.323183
F178	F	0.945448	-0.994340	-0.467394
F179	F	1.278781	-0.661006	-0.134061
F180	F	1.612114	-0.327673	0.199273
H181	H	0.611094	-0.549920	-0.468662
H182	H	0.944427	-0.216587	-0.135329
H183	H	1.277760	0.116746	0.198005
H184	H	1.080573	-0.556245	-1.138320
H185	H	1.413906	-0.222911	-0.804986
H186	H	1.747240	0.110422	-0.471653
F187	F	0.423067	-0.604184	-0.514802
F188	F	0.756400	-0.270851	-0.181469
F189	F	1.089734	0.062483	0.151864
H190	H	1.075440	-0.549683	-1.004490
H191	H	1.408774	-0.216350	-0.671157
H192	H	1.742107	0.116983	-0.337824
H193	H	0.925371	-0.354653	-1.123497
H194	H	1.258704	-0.021319	-0.790164
H195	H	1.592038	0.312014	-0.456831
F196	F	0.271400	-0.596663	-0.508409
F197	F	0.604734	-0.263330	-0.175076
F198	F	0.938067	0.070003	0.158257
F199	F	0.940515	-0.374562	-0.804042
F200	F	1.273849	-0.041229	-0.470709
F201	F	1.607182	0.292104	-0.137376
H202	H	0.612829	-0.348113	-0.297075
H203	H	0.946163	-0.014780	0.036258
H204	H	1.279496	0.318553	0.369592
F205	F	1.111307	-0.596424	-0.668631
F206	F	1.444641	-0.263091	-0.335298
F207	F	1.777974	0.070242	-0.001964
H208	H	0.282453	-0.381393	-0.325388
H209	H	0.615786	-0.048060	0.007945
H210	H	0.949120	0.285273	0.341278
F211	F	0.425045	-0.374551	-0.319570
F212	F	0.758379	-0.041218	0.013764
F213	F	1.091712	0.292115	0.347097
F214	F	0.934725	-0.367039	-0.651766
F215	F	1.268058	-0.033706	-0.318432
F216	F	1.601391	0.299627	0.014901
H217	H	0.746127	-0.354720	-0.302690
H218	H	1.079461	-0.021387	0.030643
H219	H	1.412794	0.311947	0.363976
H220	H	0.920249	-0.348075	-0.989657
H221	H	1.253582	-0.014742	-0.656324
H222	H	1.586916	0.318592	-0.322991
F223	F	1.117128	-0.603909	-0.820917
F224	F	1.450462	-0.270576	-0.487584
F225	F	1.783795	0.062758	-0.154251
