data_functionalizedCrystal
_audit_creation_method	'MofGen! by Chris Wilmer'
_symmetry_space_group_name_H-M	'P1'
_symmetry_Int_Tables_number	1
_symmetry_cell_setting	triclinic
loop_
_symmetry_equiv_pos_as_xyz
  x,y,z
_cell_length_a	13.897449
_cell_length_b	21.295417
_cell_length_c	21.295420
_cell_angle_alpha	90.015173
_cell_angle_beta	90.006517
_cell_angle_gamma	90.031786
loop_
_atom_site_label
_atom_site_type_symbol
_atom_site_fract_x
_atom_site_fract_y
_atom_site_fract_z
Zn1	Zn	1.474481	-0.250700	0.355891
Zn2	Zn	1.474379	-0.355940	0.250617
Zn3	Zn	1.313210	-0.250691	0.250639
Zn4	Zn	1.313116	-0.355937	0.355851
O5	O	1.393797	-0.303317	0.303249
O6	O	1.609449	-0.264665	0.341935
O7	O	1.452997	-0.341975	0.162530
O8	O	1.334686	-0.162602	0.264627
O9	O	1.609374	-0.341984	0.264590
O10	O	1.453171	-0.162609	0.341956
O11	O	1.334587	-0.264649	0.162546
O12	O	1.178216	-0.264647	0.264587
O13	O	1.334525	-0.341980	0.443946
O14	O	1.178147	-0.341971	0.341886
O15	O	1.453079	-0.264663	0.443975
O16	O	1.452905	-0.444029	0.264550
O17	O	1.334426	-0.444027	0.341865
C18	C	1.143182	-0.303308	0.303235
C19	C	1.035969	-0.303320	0.303244
C20	C	0.839673	-0.303322	0.303260
C21	C	0.948906	-0.303319	0.303249
C22	C	1.393670	-0.466868	0.303215
C23	C	1.393704	-0.536837	0.303221
C24	C	1.455451	-0.569683	0.263004
C25	C	1.455497	-0.635426	0.263018
C26	C	1.393778	-0.668319	0.303242
C27	C	1.332026	-0.635464	0.343467
C28	C	1.331990	-0.569723	0.343456
N29	N	1.309395	-0.771587	0.308037
N30	N	1.309432	-0.834039	0.308043
C31	C	1.393886	-0.866394	0.303279
N32	N	1.478302	-0.833938	0.298495
N33	N	1.478263	-0.771481	0.298485
C34	C	1.393811	-0.739604	0.303259
C35	C	1.455687	-0.970526	0.263075
C36	C	1.455734	-1.036270	0.263094
C37	C	1.332255	-1.036307	0.343539
C38	C	1.332217	-0.970565	0.343524
C39	C	1.393931	-0.937678	0.303288
C40	C	1.645390	-0.303326	0.303264
C41	C	1.752604	-0.303329	0.303271
C42	C	1.393803	-0.303322	0.467440
C43	C	1.393805	-0.303324	0.537408
C44	C	1.393950	-0.139127	0.303298
C45	C	1.394015	-0.069158	0.303319
C46	C	1.455452	-0.343576	1.036858
C47	C	1.455450	-0.343580	0.971115
C48	C	1.393803	-0.303321	0.938247
C49	C	1.332135	-0.263066	0.971127
C50	C	1.332132	-0.263067	1.036868
N51	N	1.386459	-0.248217	0.835042
N52	N	1.386467	-0.248218	0.772591
C53	C	1.393807	-0.303317	0.740173
N54	N	1.401156	-0.358415	0.772565
N55	N	1.401152	-0.358414	0.835022
C56	C	1.393799	-0.303316	0.866962
C57	C	1.455463	-0.343577	0.636015
C58	C	1.455454	-0.343583	0.570271
C59	C	1.332145	-0.263063	0.570284
C60	C	1.332148	-0.263063	0.636027
C61	C	1.393813	-0.303319	0.668888
C62	C	1.393787	-0.303326	1.139698
C63	C	1.393796	-0.303323	1.069730
H64	H	1.505706	-0.542909	0.230244
C65	C	1.264072	-0.533591	0.387707
N66	N	1.212919	-0.506375	0.421041
H67	H	1.505782	-0.662175	0.230269
H68	H	1.281924	-0.230287	1.063632
H69	H	1.506022	-1.063012	0.230346
C70	C	1.523588	-0.934348	0.218825
N71	N	1.574735	-0.907101	0.185498
C72	C	1.523285	-0.387866	0.672165
N73	N	1.574368	-0.421226	0.699391
H74	H	1.505661	-0.376357	1.063610
C75	C	1.264132	-0.671648	0.387711
N76	N	1.212992	-0.698902	0.421038
C77	C	1.523277	-0.387864	0.934949
N78	N	1.574365	-0.421219	0.907711
C79	C	1.264329	-0.218776	0.934971
N80	N	1.213256	-0.185416	0.907738
C81	C	1.264328	-0.218779	0.534133
N82	N	1.213246	-0.185425	0.506901
H83	H	1.282006	-1.063088	0.376293
C84	C	1.264309	-0.934432	0.387779
N85	N	1.213168	-0.907217	0.421121
H86	H	1.505657	-0.376367	0.543508
C87	C	1.264334	-0.218773	0.672187
N88	N	1.213254	-0.185411	0.699423
