data_functionalizedCrystal
_audit_creation_method	'MofGen! by Chris Wilmer'
_symmetry_space_group_name_H-M	'P1'
_symmetry_Int_Tables_number	1
_symmetry_cell_setting	triclinic
loop_
_symmetry_equiv_pos_as_xyz
  x,y,z
_cell_length_a	14.853567
_cell_length_b	15.538191
_cell_length_c	13.930277
_cell_angle_alpha	89.997597
_cell_angle_beta	89.995755
_cell_angle_gamma	65.453512
loop_
_atom_site_label
_atom_site_type_symbol
_atom_site_fract_x
_atom_site_fract_y
_atom_site_fract_z
O1	O	1.155993	0.122934	-0.079757
O2	O	0.888724	0.137579	-0.079773
O3	O	1.074384	-0.006805	-0.079767
O4	O	0.970332	0.267318	-0.079764
O5	O	1.074366	-0.006808	0.079895
O6	O	0.888705	0.137575	0.079889
O7	O	1.155975	0.122931	0.079905
Zn8	Zn	1.022337	0.130253	0.105247
Zn9	Zn	1.022361	0.130257	-0.105115
O10	O	0.970314	0.267315	0.079898
C11	C	0.855344	0.136913	0.000056
C12	C	0.755913	0.134925	0.000050
C13	C	0.374309	0.040753	0.000070
C14	C	0.296691	0.212284	0.000071
C15	C	0.390111	0.214153	0.000068
C16	C	0.475634	0.129321	0.000065
C17	C	0.467738	0.042620	0.000064
C18	C	0.398015	0.300853	0.000059
C19	C	0.491439	0.302726	0.000055
C20	C	0.576964	0.217893	0.000058
C21	C	0.569064	0.131188	0.000059
C22	C	0.654587	0.046356	0.000055
C23	C	0.646689	-0.040350	0.000063
C24	C	0.553264	-0.042213	0.000068
C25	C	0.670390	0.219757	0.000053
C26	C	0.748017	0.048223	0.000049
C27	C	1.085262	-0.041888	0.000062
C28	C	1.117689	-0.146419	0.000054
C29	C	0.795529	-0.434631	0.000056
C30	C	0.826023	-0.532857	0.000060
C31	C	0.997541	-0.555076	0.000069
C32	C	0.967062	-0.456850	0.000061
C33	C	0.866055	-0.396635	0.000055
C34	C	1.037588	-0.418853	0.000060
C35	C	1.007111	-0.320636	0.000056
C36	C	0.906108	-0.260415	0.000054
C37	C	0.835578	-0.298417	0.000052
C38	C	1.138594	-0.479070	0.000073
C39	C	1.209120	-0.441073	0.000072
C40	C	1.178644	-0.342854	0.000061
C41	C	1.077641	-0.282633	0.000059
C42	C	1.249174	-0.304852	0.000063
C43	C	1.218697	-0.206634	0.000060
C44	C	1.047164	-0.184416	0.000055
C45	C	1.189354	0.123596	0.000074
C46	C	1.288785	0.125584	0.000074
C47	C	0.959436	0.302397	0.000068
C48	C	0.927009	0.406929	0.000069
N49	N	1.022327	0.130249	0.248813
N50	N	1.022380	0.130253	-0.248681
C51	C	0.940156	0.194165	0.701079
C52	C	1.104593	0.066342	0.701054
C53	C	1.104583	0.066339	0.600558
C54	C	1.022359	0.130251	0.550318
C55	C	0.940145	0.194166	0.600574
C56	C	1.186800	0.002431	0.550295
C57	C	1.186794	0.002426	0.449793
C58	C	1.104566	0.066335	0.399551
C59	C	1.022348	0.130251	0.449813
C60	C	0.940124	0.194163	0.399573
C61	C	0.857903	0.258077	0.449833
C62	C	0.857917	0.258074	0.550332
C63	C	1.104551	0.066337	0.299053
C64	C	0.940113	0.194164	0.299068
H65	H	0.817649	-0.020858	0.000050
H66	H	0.873211	0.246200	0.742003
H67	H	0.328377	0.369919	0.000052
H68	H	0.716334	-0.109420	0.000054
H69	H	1.253747	-0.049600	0.591204
H70	H	0.497859	0.373328	0.000048
H71	H	0.546823	-0.112805	0.000097
C72	C	0.936058	-0.118169	0.000042
H73	H	0.928013	-0.054234	0.000034
H74	H	0.905800	-0.129696	0.055715
H75	H	0.905824	-0.129700	-0.055647
C76	C	0.202625	0.305593	0.000065
H77	H	0.220710	0.357496	0.000056
H78	H	0.164558	0.308432	0.055739
H79	H	0.164577	0.308425	-0.055623
C80	C	0.679080	0.315121	0.000041
H81	H	0.614765	0.365375	0.000045
H82	H	0.713916	0.319410	-0.055637
H83	H	0.713905	0.319418	0.055725
H84	H	1.291360	-0.490113	0.000080
C85	C	1.277240	-0.067856	0.394511
H86	H	1.265465	-0.058695	0.327462
H87	H	1.288050	-0.130726	0.410978
H88	H	1.334008	-0.057486	0.410979
C89	C	0.767490	0.328378	0.605619
H90	H	0.779280	0.319231	0.672668
H91	H	0.710703	0.318043	0.589168
H92	H	0.756713	0.391242	0.589142
H93	H	1.171540	0.014311	0.741963
H94	H	0.367873	-0.029842	0.000080
C95	C	0.724471	-0.232175	0.000036
H96	H	0.686829	-0.268869	0.000039
H97	H	0.709031	-0.193400	-0.055642
H98	H	0.709010	-0.193398	0.055720
H99	H	1.171498	0.014304	0.258135
C100	C	1.360273	-0.371094	0.000074
H101	H	1.368323	-0.435030	0.000074
H102	H	1.390512	-0.359557	0.055750
H103	H	1.390524	-0.359569	-0.055612
C104	C	0.684423	-0.368389	0.000041
H105	H	0.646780	-0.405083	0.000043
H106	H	0.668982	-0.329614	-0.055638
H107	H	0.668961	-0.329612	0.055724
H108	H	0.881296	-0.180440	0.000056
C109	C	0.748437	-0.574650	0.000047
H110	H	0.683919	-0.524718	0.000034
H111	H	0.756750	-0.612505	0.055722
H112	H	0.756771	-0.612499	-0.055641
H113	H	1.163405	-0.559044	0.000067
C114	C	1.108641	-0.621316	0.000071
H115	H	1.116693	-0.685253	0.000067
H116	H	1.138886	-0.609783	0.055745
H117	H	1.138885	-0.609785	-0.055617
C118	C	1.296271	-0.164834	0.000058
H119	H	1.360792	-0.214762	0.000053
H120	H	1.287940	-0.126980	0.055734
H121	H	1.287951	-0.126983	-0.055628
C122	C	0.849666	0.264471	0.243812
H123	H	0.800708	0.302536	0.288140
H124	H	0.823246	0.230530	0.204610
H125	H	0.869247	0.303737	0.204606
H126	H	0.790958	0.310118	0.408916
