data_functionalizedCrystal
_audit_creation_method	'MofGen! by Chris Wilmer'
_symmetry_space_group_name_H-M	'P1'
_symmetry_Int_Tables_number	1
_symmetry_cell_setting	triclinic
loop_
_symmetry_equiv_pos_as_xyz
  x,y,z
_cell_length_a	14.519709
_cell_length_b	27.732048
_cell_length_c	13.596369
_cell_angle_alpha	89.989067
_cell_angle_beta	90.000291
_cell_angle_gamma	83.161400
loop_
_atom_site_label
_atom_site_type_symbol
_atom_site_fract_x
_atom_site_fract_y
_atom_site_fract_z
O1	O	1.222766	0.063362	-0.081675
O2	O	0.954159	0.070824	-0.081706
O3	O	1.096805	-0.003264	-0.081671
O4	O	1.080120	0.137450	-0.081710
O5	O	1.096791	-0.003268	0.081912
O6	O	0.954145	0.070820	0.081877
O7	O	1.222752	0.063358	0.081908
Zn8	Zn	1.088446	0.067088	0.107865
Zn9	Zn	1.088465	0.067094	-0.107663
O10	O	1.080106	0.137446	0.081873
C11	C	0.919799	0.070474	0.000082
C12	C	0.817435	0.069432	0.000071
C13	C	0.442606	0.065596	0.000116
C14	C	0.546896	0.066661	0.000103
C15	C	0.630018	0.067514	0.000093
C16	C	0.734314	0.068579	0.000081
C17	C	1.096448	-0.021274	0.000124
C18	C	1.095393	-0.074934	0.000132
C19	C	1.173048	-0.413378	0.000090
C20	C	1.169135	-0.615057	0.000076
O21	O	1.240145	-0.645973	0.000041
N22	N	1.084552	-0.634585	0.000067
C23	C	1.000941	-0.603690	0.000055
O24	O	0.928909	-0.624927	0.000037
C25	C	1.004855	-0.402012	0.000062
C26	C	1.089444	-0.382487	0.000081
C27	C	1.257630	-0.393853	0.000108
C28	C	1.258607	-0.343436	0.000117
C29	C	1.175003	-0.312545	0.000108
C30	C	1.090421	-0.332071	0.000090
C31	C	0.921246	-0.371118	0.000043
C32	C	0.922232	-0.320696	0.000043
C33	C	1.006820	-0.301171	0.000062
C34	C	1.007794	-0.250763	0.000090
N35	N	1.092377	-0.231235	0.000099
C36	C	1.175981	-0.262126	0.000108
C37	C	0.998893	-0.709574	0.000053
C38	C	0.997914	-0.759993	0.000053
C39	C	1.166108	-0.771356	0.000072
C40	C	1.167086	-0.720936	0.000079
C41	C	1.083476	-0.690045	0.000062
C42	C	1.178028	-0.156247	0.000128
C43	C	1.178998	-0.105825	0.000141
C44	C	1.010804	-0.094466	0.000116
C45	C	1.009833	-0.144883	0.000109
C46	C	1.093453	-0.175773	0.000111
O47	O	0.936822	-0.219818	0.000114
O48	O	1.248004	-0.240879	0.000104
C49	C	1.172071	-0.463795	0.000081
C50	C	1.087489	-0.483320	0.000063
C51	C	1.003885	-0.452429	0.000054
C52	C	1.086510	-0.533740	0.000063
C53	C	1.170115	-0.564631	0.000072
C54	C	1.254698	-0.545103	0.000081
C55	C	1.255675	-0.494686	0.000090
C56	C	0.919302	-0.471957	0.000046
C57	C	0.918331	-0.522375	0.000038
C58	C	1.001936	-0.553266	0.000047
C59	C	1.257113	0.063708	0.000119
C60	C	1.359476	0.064750	0.000123
C61	C	1.080464	0.155456	0.000077
C62	C	1.081518	0.209116	0.000062
N63	N	1.088441	0.067085	0.254957
N64	N	1.088478	0.067094	-0.254754
C65	C	1.088464	0.067094	0.656248
C66	C	1.088454	0.067093	0.544596
C67	C	1.088453	0.067090	0.455606
C68	C	1.088442	0.067088	0.343947
H69	H	1.246119	-0.181392	0.000126
H70	H	1.327488	-0.327544	0.000128
N71	N	1.343046	-0.425396	0.000110
N72	N	1.418551	-0.407946	0.000123
H73	H	1.478883	-0.430220	0.000130
H74	H	0.942736	-0.069306	0.000113
H75	H	0.854144	-0.295547	0.000027
N76	N	0.923442	-0.164842	0.000109
N77	N	0.904132	-0.191721	0.069052
H78	H	0.843118	-0.205815	0.069046
H79	H	1.247882	-0.089931	0.000158
H80	H	0.849444	-0.538266	0.000031
H81	H	1.322771	-0.570263	0.000093
N82	N	1.253491	-0.700995	0.000071
N83	N	1.272813	-0.674127	-0.068887
H84	H	1.333840	-0.660045	-0.068897
H85	H	0.851220	-0.446810	0.000036
N86	N	1.251501	-0.802923	0.000089
N87	N	1.250604	-0.847938	0.000090
H88	H	1.310908	-0.870234	0.000098
N89	N	0.911501	-0.779926	0.000057
N90	N	0.836865	-0.752333	0.000050
H91	H	0.775831	-0.766408	0.000049
N92	N	1.342081	-0.474746	0.000124
N93	N	1.398270	-0.484194	0.069087
H94	H	1.459299	-0.470114	0.069111
N95	N	0.913472	-0.678030	0.000036
N96	N	0.837965	-0.695478	0.000030
H97	H	0.777635	-0.673203	0.000022
N98	N	0.834840	-0.391055	-0.000005
N99	N	0.815539	-0.417909	-0.068974
H100	H	0.754510	-0.431989	-0.069012
