data_functionalizedCrystal
_audit_creation_method	'MofGen! by Chris Wilmer'
_symmetry_space_group_name_H-M	'P1'
_symmetry_Int_Tables_number	1
_symmetry_cell_setting	triclinic
loop_
_symmetry_equiv_pos_as_xyz
  x,y,z
_cell_length_a	18.215407
_cell_length_b	18.215405
_cell_length_c	12.759393
_cell_angle_alpha	89.962431
_cell_angle_beta	89.980188
_cell_angle_gamma	90.019398
loop_
_atom_site_label
_atom_site_type_symbol
_atom_site_fract_x
_atom_site_fract_y
_atom_site_fract_z
Zn1	Zn	1.125086	-0.293049	-0.593974
Zn2	Zn	1.625086	0.206951	-0.093974
Zn3	Zn	1.124991	-0.416135	-0.418276
Zn4	Zn	1.624991	0.083865	0.081724
Zn5	Zn	1.002015	-0.293075	-0.418310
Zn6	Zn	1.502015	0.206925	0.081690
Zn7	Zn	1.001985	-0.416066	-0.593913
Zn8	Zn	1.501985	0.083934	-0.093913
O9	O	1.063519	-0.354581	-0.506118
O10	O	1.563519	0.145419	-0.006118
O11	O	1.228058	-0.309394	-0.570679
O12	O	1.728058	0.190606	-0.070679
O13	O	1.108650	-0.399851	-0.271259
O14	O	1.608650	0.100149	0.228741
O15	O	1.018393	-0.190087	-0.441652
O16	O	1.518393	0.309913	0.058348
O17	O	1.227988	-0.399825	-0.441594
O18	O	1.727988	0.100175	0.058406
O19	O	1.108813	-0.190068	-0.570712
O20	O	1.608813	0.309932	-0.070712
O21	O	1.018300	-0.309439	-0.271284
O22	O	1.518300	0.190561	0.228716
O23	O	0.899027	-0.309372	-0.441593
O24	O	1.399027	0.190628	0.058407
O25	O	1.018342	-0.399708	-0.740943
O26	O	1.518342	0.100292	-0.240943
O27	O	0.899005	-0.399733	-0.570608
O28	O	1.399005	0.100267	-0.070608
O29	O	1.108784	-0.309327	-0.740987
O30	O	1.608784	0.190673	-0.240987
O31	O	1.108621	-0.519110	-0.441535
O32	O	1.608621	-0.019110	0.058465
O33	O	1.018249	-0.519060	-0.570575
O34	O	1.518249	-0.019060	-0.070575
C35	C	0.872313	-0.354549	-0.506098
C36	C	1.372313	0.145451	-0.006098
C37	C	0.790514	-0.354553	-0.506114
C38	C	1.290514	0.145447	-0.006114
C39	C	0.525487	-0.307584	-0.573440
C40	C	1.025487	0.192416	-0.073440
C41	C	0.602346	-0.307573	-0.573437
C42	C	1.102346	0.192427	-0.073437
C43	C	0.602292	-0.401602	-0.438820
C44	C	1.102292	0.098398	0.061180
C45	C	0.525435	-0.401617	-0.438829
C46	C	1.025435	0.098383	0.061171
C47	C	0.487034	-0.354604	-0.506138
C48	C	0.987034	0.145396	-0.006138
C49	C	0.640750	-0.354577	-0.506125
C50	C	1.140750	0.145423	-0.006125
C51	C	0.724084	-0.354564	-0.506121
C52	C	1.224084	0.145436	-0.006121
C53	C	0.403695	-0.354617	-0.506143
C54	C	0.903695	0.145383	-0.006143
C55	C	1.063441	-0.545788	-0.506068
C56	C	1.563441	-0.045788	-0.006068
C57	C	1.063476	-0.627586	-0.506081
C58	C	1.563476	-0.127586	-0.006081
C59	C	1.110643	-0.815782	-0.439014
C60	C	1.610643	-0.315782	0.060986
C61	C	1.110675	-0.892641	-0.439039
C62	C	1.610675	-0.392641	0.060961
C63	C	1.016490	-0.892628	-0.573298
C64	C	1.516490	-0.392628	-0.073298
C65	C	1.016461	-0.815771	-0.573277
C66	C	1.516461	-0.315771	-0.073277
C67	C	1.063536	-0.777350	-0.506129
C68	C	1.563536	-0.277350	-0.006129
C69	C	1.063598	-0.931066	-0.506176
C70	C	1.563598	-0.431066	-0.006176
C71	C	1.063633	-1.014400	-0.506204
C72	C	1.563633	-0.514400	-0.006204
C73	C	1.063502	-0.694011	-0.506102
C74	C	1.563502	-0.194011	-0.006102
C75	C	1.255472	-0.354614	-0.506140
C76	C	1.755472	0.145386	-0.006140
C77	C	1.337271	-0.354628	-0.506149
C78	C	1.837271	0.145372	-0.006149
C79	C	1.063571	-0.354507	-0.780152
C80	C	1.563571	0.145493	-0.280152
C81	C	1.063593	-0.354475	-0.896929
C82	C	1.563593	0.145525	-0.396929
C83	C	1.063617	-0.162628	-0.506192
C84	C	1.563617	0.337372	-0.006192
C85	C	1.063659	-0.080829	-0.506223
C86	C	1.563659	0.419171	-0.006223
C87	C	1.110692	-0.307410	-0.951816
C88	C	1.610692	0.192590	-0.451816
C89	C	1.110710	-0.307383	-1.061540
C90	C	1.610710	0.192617	-0.561540
C91	C	1.016526	-0.401494	-1.061480
C92	C	1.516526	0.098506	-0.561480
C93	C	1.016505	-0.401516	-0.951758
C94	C	1.516505	0.098484	-0.451758
C95	C	1.165071	-0.253078	-0.951851
C96	C	1.665071	0.246922	-0.451851
C97	C	1.165089	-0.253051	-1.061575
C98	C	1.665089	0.246949	-0.561575
C99	C	1.063510	-0.354602	-0.233151
C100	C	1.563510	0.145398	0.266849
C101	C	1.063631	-0.354426	-0.116375
C102	C	1.563631	0.145574	0.383625
H103	H	0.494224	-0.269303	-0.628247
H104	H	0.994224	0.230697	-0.128247
Cl105	Cl	0.957280	-0.460675	-0.882760
Cl106	Cl	1.457280	0.039325	-0.382760
H107	H	0.978162	-0.923920	-0.627967
H108	H	1.478162	-0.423920	-0.127967
Cl109	Cl	0.957334	-0.460628	-1.130416
Cl110	Cl	1.457334	0.039372	-0.630416
H111	H	0.633567	-0.439877	-0.384018
H112	H	1.133567	0.060123	0.115982
H113	H	0.633651	-0.269285	-0.628242
H114	H	1.133651	0.230715	-0.128242
Cl115	Cl	0.477090	-0.460732	-0.354213
Cl116	Cl	0.977090	0.039268	0.145787
H117	H	1.222084	-0.268322	-1.091353
H118	H	1.722084	0.231678	-0.591353
Cl119	Cl	1.169825	-0.767484	-0.354602
Cl120	Cl	1.669825	-0.267484	0.145398
Cl121	Cl	0.957241	-0.767452	-0.657664
Cl122	Cl	1.457241	-0.267452	-0.157664
Cl123	Cl	1.169899	-0.940953	-0.354664
Cl124	Cl	1.669899	-0.440953	0.145336
Cl125	Cl	1.141544	-0.165085	-0.905914
Cl126	Cl	1.641544	0.334915	-0.405914
H127	H	1.144705	-0.198896	-1.095630
H128	H	1.644705	0.301104	-0.595630
Cl129	Cl	1.248632	-0.284627	-0.899291
Cl130	Cl	1.748632	0.215373	-0.399291
