data_functionalizedCrystal
_audit_creation_method	'MofGen! by Chris Wilmer'
_symmetry_space_group_name_H-M	'P1'
_symmetry_Int_Tables_number	1
_symmetry_cell_setting	triclinic
loop_
_symmetry_equiv_pos_as_xyz
  x,y,z
_cell_length_a	15.944551
_cell_length_b	15.944551
_cell_length_c	15.021413
_cell_angle_alpha	89.996935
_cell_angle_beta	89.997174
_cell_angle_gamma	96.501262
loop_
_atom_site_label
_atom_site_type_symbol
_atom_site_fract_x
_atom_site_fract_y
_atom_site_fract_z
O1	O	1.114529	-0.108321	-0.073941
O2	O	0.869979	-0.121677	-0.073964
O3	O	0.998932	0.007276	-0.073944
O4	O	0.985576	-0.237274	-0.073961
O5	O	0.998912	0.007257	0.074121
O6	O	0.869959	-0.121695	0.074101
O7	O	1.114508	-0.108339	0.074123
Zn8	Zn	0.992230	-0.115020	0.097620
Zn9	Zn	0.992257	-0.114996	-0.097461
O10	O	0.985555	-0.237292	0.074103
C11	C	0.838675	-0.121132	0.000066
C12	C	0.745429	-0.119470	0.000057
C13	C	0.998367	0.038561	0.000089
C14	C	0.996705	0.131807	0.000089
C15	C	0.530572	-0.035565	0.000081
C16	C	0.469562	-0.074518	-0.072926
C17	C	0.574703	-0.116462	0.000068
C18	C	0.469564	-0.074556	0.073054
C19	C	0.409790	-0.113551	0.000083
C20	C	0.514921	-0.155438	-0.072998
C21	C	0.514930	-0.155464	0.073047
C22	C	0.453937	-0.194476	0.000023
C23	C	0.669705	-0.118137	0.000059
C24	C	0.314789	-0.111883	0.000085
C25	C	1.145813	-0.108885	0.000092
C26	C	1.239059	-0.110547	0.000094
C27	C	0.986120	-0.268577	0.000069
C28	C	0.987782	-0.361823	0.000063
N29	N	0.992218	-0.115036	0.230758
C30	C	0.912801	0.346663	0.000069
C31	C	0.951753	0.407672	0.073077
C32	C	0.993698	0.302533	0.000082
C33	C	0.951792	0.407673	-0.072903
C34	C	0.990787	0.467445	0.000071
C35	C	1.032672	0.362313	0.073150
C36	C	1.032700	0.362308	-0.072895
C37	C	1.071711	0.423298	0.000131
C38	C	0.995372	0.207530	0.000089
C39	C	0.989119	0.562446	0.000070
N40	N	0.992276	-0.114973	-0.230598
C41	C	0.932581	-0.174636	0.470432
C42	C	1.008481	-0.190943	0.529772
C43	C	0.992239	-0.115015	0.412365
C44	C	0.916360	-0.098727	0.529766
C45	C	0.992253	-0.114997	0.587789
C46	C	1.068178	-0.131360	0.470398
C47	C	0.976006	-0.039111	0.470387
C48	C	1.051962	-0.055386	0.529701
C49	C	0.992230	-0.115028	0.311307
C50	C	0.992271	-0.114984	0.688844
H51	H	0.563905	0.031573	-0.000005
C52	C	0.541473	-0.200916	-0.155501
C53	C	0.517938	-0.158689	-0.231667
C54	C	0.542376	-0.200562	-0.307684
H55	H	0.600954	-0.201689	-0.155141
H56	H	0.514517	-0.257195	-0.155765
H57	H	0.544897	-0.102426	-0.231403
H58	H	0.458461	-0.157915	-0.232056
H59	H	0.515420	-0.256840	-0.307948
H60	H	0.601856	-0.201332	-0.307315
H61	H	0.526404	-0.171921	-0.359371
H62	H	0.882181	-0.225096	0.444409
C63	C	0.906302	0.434601	-0.155234
C64	C	0.961634	0.490122	-0.205729
C65	C	0.919748	0.514950	-0.281567
H66	H	0.887557	0.386294	-0.189938
H67	H	0.859104	0.462106	-0.137717
H68	H	1.008816	0.462617	-0.223247
H69	H	0.980381	0.538442	-0.171051
H70	H	0.872551	0.542455	-0.264050
H71	H	0.901005	0.466638	-0.316263
H72	H	0.957282	0.552629	-0.315833
H73	H	0.852184	-0.084959	0.555847
C74	C	1.026641	-0.276590	0.564512
C75	C	0.963979	-0.338779	0.534508
C76	C	0.980667	-0.417686	0.566498
H77	H	1.080105	-0.288681	0.543332
H78	H	1.026987	-0.275842	0.627753
H79	H	0.963642	-0.339529	0.471280
H80	H	0.910508	-0.326716	0.555685
H81	H	0.981013	-0.416938	0.629740
H82	H	1.034133	-0.429769	0.545316
H83	H	0.938151	-0.459890	0.546152
C84	C	1.078403	0.335724	0.155469
C85	C	1.161319	0.375510	0.155556
C86	C	1.203470	0.351027	0.231367
H87	H	1.049956	0.351607	0.207311
H88	H	1.079211	0.276237	0.154985
H89	H	1.160507	0.434984	0.156048
H90	H	1.189789	0.359632	0.103732
H91	H	1.204278	0.291540	0.230883
H92	H	1.175016	0.366911	0.283203
H93	H	1.259735	0.378012	0.231432
H94	H	1.132368	-0.145206	0.444430
C95	C	1.119437	0.011753	0.564144
C96	C	1.198701	-0.005691	0.533917
C97	C	1.260882	0.056128	0.565640
H98	H	1.108473	0.065568	0.542931
H99	H	1.118821	0.011695	0.627387
H100	H	1.199315	-0.005623	0.470687
H101	H	1.209692	-0.059494	0.555127
H102	H	1.260266	0.056069	0.628884
H103	H	1.249910	0.109939	0.544425
H104	H	1.314670	0.044297	0.545143
C105	C	0.957479	0.046402	0.435619
C106	C	0.877910	0.063116	0.465628
C107	C	0.860799	0.141877	0.433605
H108	H	0.999235	0.088953	0.456773
H109	H	0.958077	0.045933	0.372378
H110	H	0.877319	0.063592	0.528856
H111	H	0.836137	0.020586	0.444476
H112	H	0.861397	0.141408	0.370364
H113	H	0.902559	0.184421	0.454762
H114	H	0.806807	0.153224	0.453955
H115	H	0.449461	-0.040295	-0.134642
C116	C	0.409760	-0.284103	-0.000217
C117	C	0.432754	-0.326046	-0.076792
C118	C	0.392064	-0.408606	-0.077053
H119	H	0.425947	-0.313161	0.051089
H120	H	0.350365	-0.282595	0.000228
H121	H	0.492135	-0.327559	-0.077229
H122	H	0.416565	-0.297014	-0.128110
H123	H	0.332670	-0.407098	-0.076608
H124	H	0.408255	-0.437656	-0.025745
H125	H	0.407653	-0.437072	-0.129012
C126	C	0.541747	-0.200915	0.155448
C127	C	0.519049	-0.158282	0.231687
C128	C	0.543753	-0.200112	0.307618
H129	H	0.514470	-0.257053	0.156094
H130	H	0.601186	-0.202058	0.154598
H131	H	0.459621	-0.157148	0.232536
H132	H	0.546323	-0.102146	0.231070
H133	H	0.603192	-0.201255	0.306768
H134	H	0.516475	-0.256249	0.308255
H135	H	0.528363	-0.171187	0.359355
C136	C	0.823206	0.302402	0.000200
C137	C	0.765933	0.362792	0.001059
C138	C	0.683394	0.322051	0.001198
H139	H	0.814395	0.268478	-0.051671
H140	H	0.814872	0.267733	0.051598
H141	H	0.774263	0.397447	-0.050333
H142	H	0.774716	0.396720	0.052927
H143	H	0.675060	0.287382	0.052595
H144	H	0.674592	0.288127	-0.050674
H145	H	0.644524	0.363019	0.001789
C146	C	0.442900	-0.028795	0.155321
C147	C	0.482091	0.054349	0.154980
C148	C	0.457559	0.096531	0.230749
H149	H	0.383369	-0.028425	0.155090
H150	H	0.459223	-0.056946	0.207186
H151	H	0.465763	0.082492	0.103129
H152	H	0.541621	0.054004	0.155224
H153	H	0.473882	0.068381	0.282614
H154	H	0.398028	0.096895	0.230511
H155	H	0.484152	0.152946	0.230532
C156	C	1.078164	0.335331	-0.155217
C157	C	1.023259	0.278611	-0.204821
C158	C	1.065106	0.253730	-0.280664
H159	H	1.096000	0.383499	-0.190513
H160	H	1.125955	0.308746	-0.137717
H161	H	0.975483	0.305197	-0.222323
H162	H	1.005421	0.230430	-0.169553
H163	H	1.112898	0.227145	-0.263163
H164	H	1.082940	0.301903	-0.315951
H165	H	1.027863	0.215237	-0.314325
H166	H	1.138919	0.456457	0.000178
C167	C	0.906186	0.434655	0.155334
C168	C	0.905927	0.522435	0.154647
C169	C	0.863962	0.547319	0.230409
H170	H	0.849713	0.408241	0.155330
H171	H	0.934382	0.418415	0.207203
H172	H	0.877729	0.538666	0.102792
H173	H	0.962388	0.548869	0.154665
H174	H	0.892158	0.531079	0.282278
H175	H	0.807492	0.520900	0.230398
H176	H	0.863787	0.606880	0.229957
