data_functionalizedCrystal
_audit_creation_method	'MofGen! by Chris Wilmer'
_symmetry_space_group_name_H-M	'P1'
_symmetry_Int_Tables_number	1
_symmetry_cell_setting	triclinic
loop_
_symmetry_equiv_pos_as_xyz
  x,y,z
_cell_length_a	21.395362
_cell_length_b	19.120786
_cell_length_c	21.395355
_cell_angle_alpha	92.459295
_cell_angle_beta	90.043940
_cell_angle_gamma	92.480156
loop_
_atom_site_label
_atom_site_type_symbol
_atom_site_fract_x
_atom_site_fract_y
_atom_site_fract_z
Zn1	Zn	0.947248	-0.279415	0.343943
Zn2	Zn	1.280582	0.053918	0.677276
Zn3	Zn	1.613915	0.387252	1.010610
Zn4	Zn	0.942691	-0.396855	0.234692
Zn5	Zn	1.276024	-0.063522	0.568026
Zn6	Zn	1.609357	0.269811	0.901359
Zn7	Zn	0.842462	-0.279448	0.239143
Zn8	Zn	1.175795	0.053886	0.572476
Zn9	Zn	1.509129	0.387219	0.905810
Zn10	Zn	0.837972	-0.396870	0.339397
Zn11	Zn	1.171305	-0.063536	0.672730
Zn12	Zn	1.504638	0.269797	1.006063
O13	O	0.892593	-0.338147	0.289294
O14	O	1.225926	-0.004814	0.622627
O15	O	1.559260	0.328520	0.955960
O16	O	1.034322	-0.294974	0.329491
O17	O	1.367656	0.038359	0.662824
O18	O	1.700989	0.371693	0.996157
O19	O	0.929367	-0.381289	0.147605
O20	O	1.262700	-0.047955	0.480938
O21	O	1.596034	0.285378	0.814271
O22	O	0.860149	-0.181153	0.256810
O23	O	1.193482	0.152181	0.590144
O24	O	1.526815	0.485514	0.923477
O25	O	1.030974	-0.381257	0.249225
O26	O	1.364307	-0.047924	0.582558
O27	O	1.697641	0.285410	0.915891
O28	O	0.937135	-0.181129	0.333806
O29	O	1.270468	0.152205	0.667140
O30	O	1.603801	0.485538	1.000473
O31	O	0.855729	-0.295030	0.150874
O32	O	1.189063	0.038304	0.484208
O33	O	1.522396	0.371637	0.817541
O34	O	0.754188	-0.295044	0.252402
O35	O	1.087521	0.038290	0.585735
O36	O	1.420854	0.371623	0.919068
O37	O	0.852496	-0.381281	0.427678
O38	O	1.185829	-0.047948	0.761011
O39	O	1.519162	0.285385	1.094345
O40	O	0.750889	-0.381313	0.326058
O41	O	1.084222	-0.047980	0.659391
O42	O	1.417555	0.285353	0.992724
O43	O	0.932781	-0.294988	0.431018
O44	O	1.266114	0.038345	0.764351
O45	O	1.599447	0.371679	1.097685
O46	O	0.925013	-0.495148	0.244816
O47	O	1.258346	-0.161815	0.578150
O48	O	1.591680	0.171519	0.911483
O49	O	0.848076	-0.495159	0.321742
O50	O	1.181410	-0.161825	0.655075
O51	O	1.514743	0.171508	0.988409
C52	C	0.729804	-0.338184	0.289220
C53	C	1.063137	-0.004851	0.622553
C54	C	1.396471	0.328483	0.955886
C55	C	0.660162	-0.338217	0.289202
C56	C	0.993495	-0.004884	0.622536
C57	C	1.326828	0.328450	0.955869
C58	C	0.625745	-0.383197	0.327493
C59	C	0.959078	-0.049864	0.660826
C60	C	1.292411	0.283470	0.994159
C61	C	0.560310	-0.383180	0.327521
C62	C	0.893643	-0.049846	0.660854
C63	C	1.226977	0.283487	0.994188
C64	C	0.529294	-0.338190	0.289248
C65	C	0.862628	-0.004856	0.622581
C66	C	1.195961	0.328477	0.955915
C67	C	0.563719	-0.293201	0.250955
C68	C	0.897053	0.040132	0.584288
C69	C	1.230386	0.373466	0.917622
C70	C	0.629153	-0.293215	0.250932
C71	C	0.962486	0.040119	0.584266
C72	C	1.295820	0.373452	0.917599
C73	C	0.425784	-0.332531	0.233058
C74	C	0.759118	0.000802	0.566391
C75	C	1.092451	0.334135	0.899725
C76	C	0.360352	-0.332523	0.233080
C77	C	0.693685	0.000811	0.566413
C78	C	1.027018	0.334144	0.899746
C79	C	0.327475	-0.338144	0.289319
C80	C	0.660809	-0.004811	0.622652
C81	C	0.994142	0.328523	0.955985
C82	C	0.360039	-0.343789	0.345537
C83	C	0.693372	-0.010455	0.678871
C84	C	1.026706	0.322878	1.012204
C85	C	0.425473	-0.343802	0.345515
C86	C	0.758806	-0.010469	0.678848
C87	C	1.092139	0.322865	1.012181
C88	C	0.458343	-0.338170	0.289269
C89	C	0.791676	-0.004836	0.622602
C90	C	1.125009	0.328497	0.955935
C91	C	0.222107	-0.383108	0.327643
C92	C	0.555440	-0.049774	0.660977
C93	C	0.888773	0.283559	0.994310
C94	C	0.156671	-0.383086	0.327673
C95	C	0.490004	-0.049752	0.661007
C96	C	0.823338	0.283581	0.994340
C97	C	0.160081	-0.293111	0.251101
C98	C	0.493415	0.040223	0.584435
C99	C	0.826748	0.373556	0.917768
C100	C	0.225516	-0.293129	0.251077
C101	C	0.558849	0.040204	0.584411
C102	C	0.892183	0.373538	0.917744
C103	C	0.256525	-0.338131	0.289347
C104	C	0.589858	-0.004798	0.622681
C105	C	0.923191	0.328535	0.956014
C106	C	0.885580	-0.520639	0.282317
C107	C	1.218913	-0.187306	0.615650
C108	C	1.552247	0.146028	0.948983
C109	C	0.882637	-0.598710	0.279353
C110	C	1.215970	-0.265376	0.612686
C111	C	1.549304	0.067957	0.946019
C112	C	0.921307	-0.635315	0.318080
C113	C	1.254640	-0.301981	0.651414
C114	C	1.587974	0.031352	0.984747
C115	C	0.918539	-0.708671	0.315297
C116	C	1.251873	-0.375337	0.648630
C117	C	1.585206	-0.042004	0.981963
C118	C	0.877104	-0.745420	0.273781
C119	C	1.210438	-0.412087	0.607115
C120	C	1.543771	-0.078753	0.940448
C121	C	0.838430	-0.708810	0.235052
C122	C	1.171763	-0.375477	0.568385
C123	C	1.505097	-0.042143	0.901719
C124	C	0.841195	-0.635456	0.237839
C125	C	1.174528	-0.302122	0.571173
C126	C	1.507862	0.031211	0.904506
C127	C	0.866749	-0.966907	0.263361
C128	C	1.200082	-0.633574	0.596694
C129	C	1.533416	-0.300240	0.930027
C130	C	0.863988	-1.040267	0.260575
C131	C	1.197322	-0.706933	0.593908
C132	C	1.530655	-0.373600	0.927242
C133	C	0.944097	-1.040122	0.340821
C134	C	1.277430	-0.706789	0.674154
C135	C	1.610764	-0.373455	1.007487
C136	C	0.946861	-0.966766	0.343602
C137	C	1.280194	-0.633433	0.676935
C138	C	1.613528	-0.300099	1.010269
C139	C	0.908185	-0.930162	0.304875
C140	C	1.241518	-0.596829	0.638208
C141	C	1.574851	-0.263496	0.971541
C142	C	0.874276	-0.820402	0.270933
C143	C	1.207609	-0.487068	0.604267
C144	C	1.540942	-0.153735	0.937600
C145	C	0.911011	-0.855182	0.307726
C146	C	1.244344	-0.521849	0.641060
C147	C	1.577677	-0.188516	0.974393
C148	C	1.056018	-0.338110	0.289369
C149	C	1.389351	-0.004777	0.622702
C150	C	1.722685	0.328557	0.956035
C151	C	1.125660	-0.338094	0.289400
C152	C	1.458993	-0.004761	0.622734
C153	C	1.792326	0.328572	0.956067
C154	C	0.892646	-0.338133	0.452718
C155	C	1.225979	-0.004799	0.786051
C156	C	1.559312	0.328534	1.119384
C157	C	0.892668	-0.338127	0.522359
C158	C	1.226001	-0.004793	0.855693
C159	C	1.559335	0.328540	1.189026
C160	C	0.899651	-0.154942	0.296312
C161	C	1.232984	0.178391	0.629645
C162	C	1.566317	0.511724	0.962979
C163	C	0.902658	-0.076871	0.299303
C164	C	1.235992	0.256462	0.632636
C165	C	1.569325	0.589795	0.965969
C166	C	0.892579	-0.338110	0.126508
C167	C	1.225912	-0.004777	0.459841
C168	C	1.559245	0.328556	0.793174
C169	C	0.892685	-0.337919	0.056874
C170	C	1.226019	-0.004585	0.390207
C171	C	1.559352	0.328748	0.723541
C172	C	0.934471	-0.293192	0.556813
C173	C	1.267804	0.040142	0.890146
C174	C	1.601137	0.373475	1.223479
C175	C	0.934471	-0.293162	0.622249
C176	C	1.267804	0.040172	0.955583
C177	C	1.601138	0.373505	1.288916
C178	C	0.892675	-0.338079	0.653229
C179	C	1.226008	-0.004745	0.986563
C180	C	1.559341	0.328588	1.319896
C181	C	0.850864	-0.383017	0.618768
C182	C	1.184197	-0.049684	0.952101
C183	C	1.517531	0.283650	1.285435
C184	C	0.850861	-0.383041	0.553333
C185	C	1.184194	-0.049707	0.886666
C186	C	1.517527	0.283626	1.219999
C187	C	0.885297	-0.401324	0.754484
C188	C	1.218630	-0.067991	1.087818
C189	C	1.551964	0.265342	1.421151
C190	C	0.885305	-0.401302	0.819918
C191	C	1.218638	-0.067968	1.153252
C192	C	1.551971	0.265365	1.486585
C193	C	0.892681	-0.338005	0.855053
C194	C	1.226015	-0.004671	1.188386
C195	C	1.559348	0.328662	1.521720
C196	C	0.900064	-0.274728	0.824746
C197	C	1.233397	0.058605	1.158080
C198	C	1.566730	0.391938	1.491413
C199	C	0.900060	-0.274752	0.759311
C200	C	1.233394	0.058581	1.092644
C201	C	1.566727	0.391914	1.425978
C202	C	0.892673	-0.338058	0.724183
C203	C	1.226007	-0.004724	1.057516
C204	C	1.559340	0.328609	1.390849
C205	C	0.934487	-0.293033	0.960461
C206	C	1.267820	0.040300	1.293794
C207	C	1.601153	0.373634	1.627127
C208	C	0.934483	-0.293002	1.025898
C209	C	1.267816	0.040332	1.359232
C210	C	1.601149	0.373665	1.692565
C211	C	0.850879	-0.382863	1.022416
C212	C	1.184212	-0.049530	1.355749
C213	C	1.517546	0.283803	1.689082
C214	C	0.850880	-0.382888	0.956979
C215	C	1.184213	-0.049555	1.290313
C216	C	1.517547	0.283778	1.623646
C217	C	0.892687	-0.337974	0.926006
C218	C	1.226020	-0.004641	1.259339
C219	C	1.559354	0.328692	1.592672
H220	H	0.538462	-0.256569	0.219794
H221	H	0.871795	0.076765	0.553127
H222	H	1.205129	0.410098	0.886461
Cl223	Cl	0.798329	-0.439325	1.061356
Cl224	Cl	1.131662	-0.105992	1.394689
Cl225	Cl	1.464995	0.227342	1.728023
H226	H	0.816817	-0.419631	0.525281
H227	H	1.150151	-0.086298	0.858614
H228	H	1.483484	0.247035	1.191948
H229	H	0.247355	-0.419748	0.358808
H230	H	0.580689	-0.086414	0.692142
H231	H	0.914022	0.246919	1.025475
Cl232	Cl	0.963095	-0.808982	0.359918
Cl233	Cl	1.296428	-0.475648	0.693252
Cl234	Cl	1.629762	-0.142315	1.026585
Cl235	Cl	0.998952	-0.920572	0.395796
Cl236	Cl	1.332286	-0.587239	0.729129
Cl237	Cl	1.665619	-0.253905	1.062462
H238	H	0.906072	-0.223186	0.853352
H239	H	1.239405	0.110147	1.186685
H240	H	1.572738	0.443481	1.520018
H241	H	0.955051	-0.605398	0.351884
H242	H	1.288384	-0.272065	0.685217
H243	H	1.621717	0.061269	1.018550
H244	H	0.532283	-0.419808	0.358704
H245	H	0.865616	-0.086474	0.692037
H246	H	1.198949	0.246859	1.025371
H247	H	0.650988	-0.419840	0.358656
H248	H	0.984321	-0.086507	0.691989
H249	H	1.317655	0.246826	1.025323
Cl250	Cl	0.798327	-0.439384	0.913664
Cl251	Cl	1.131661	-0.106051	1.246997
Cl252	Cl	1.464994	0.227282	1.580330
H253	H	0.840541	-0.850331	0.237130
H254	H	1.173874	-0.516998	0.570463
H255	H	1.507207	-0.183665	0.903796
H256	H	0.333843	-0.327931	0.187303
H257	H	0.667177	0.005402	0.520636
H258	H	1.000510	0.338736	0.853970
Cl259	Cl	0.672422	-0.236664	0.202792
Cl260	Cl	1.005755	0.096670	0.536125
Cl261	Cl	1.339089	0.430003	0.869458
Cl262	Cl	0.967147	-0.754685	0.363994
Cl263	Cl	1.300481	-0.421352	0.697327
Cl264	Cl	1.633814	-0.088018	1.030660
Cl265	Cl	0.992713	-1.086142	0.389506
Cl266	Cl	1.326046	-0.752809	0.722839
Cl267	Cl	1.659380	-0.419475	1.056172
H268	H	0.830244	-1.070186	0.226768
H269	H	1.163577	-0.736853	0.560101
H270	H	1.496911	-0.403519	0.893434
H271	H	0.968513	-0.256618	0.531598
H272	H	1.301846	0.076715	0.864932
H273	H	1.635180	0.410048	1.198265
H274	H	0.879123	-0.452855	0.725883
H275	H	1.212456	-0.119522	1.059217
H276	H	1.545789	0.213811	1.392550
Cl277	Cl	0.113403	-0.439633	0.375818
Cl278	Cl	0.446737	-0.106300	0.709151
Cl279	Cl	0.780070	0.227033	1.042485
Cl280	Cl	0.121096	-0.236547	0.202990
Cl281	Cl	0.454430	0.096787	0.536323
Cl282	Cl	0.787763	0.430120	0.869657
Cl283	Cl	0.467108	-0.325467	0.162350
Cl284	Cl	0.800441	0.007866	0.495683
Cl285	Cl	1.133775	0.341200	0.829017
Cl286	Cl	0.268785	-0.236581	0.202936
Cl287	Cl	0.602118	0.096752	0.536269
Cl288	Cl	0.935452	0.430085	0.869603
H289	H	0.835258	-0.937110	0.231826
H290	H	1.168592	-0.603777	0.565160
H291	H	1.501925	-0.270443	0.898493
Cl292	Cl	0.318716	-0.350851	0.416244
Cl293	Cl	0.652050	-0.017518	0.749577
Cl294	Cl	0.985383	0.315815	1.082910
H295	H	0.879297	-0.452825	0.844589
H296	H	1.212631	-0.119492	1.177922
H297	H	1.545964	0.213842	1.511256
Cl298	Cl	0.786334	-0.755010	0.182867
Cl299	Cl	1.119667	-0.421676	0.516200
Cl300	Cl	1.453000	-0.088343	0.849534
Cl301	Cl	0.798318	-0.439482	0.657713
Cl302	Cl	1.131651	-0.106148	0.991047
Cl303	Cl	1.464985	0.227185	1.324380
H304	H	0.809705	-0.605652	0.206304
H305	H	1.143038	-0.272319	0.539637
H306	H	1.476372	0.061014	0.872971
H307	H	0.968511	-0.256566	0.650307
H308	H	1.301844	0.076767	0.983640
H309	H	1.635177	0.410100	1.316974
Cl310	Cl	0.909336	-0.195209	0.721213
Cl311	Cl	1.242669	0.138124	1.054546
Cl312	Cl	1.576003	0.471458	1.387880
H313	H	0.968525	-0.256457	0.935241
H314	H	1.301859	0.076876	1.268574
H315	H	1.635192	0.410209	1.601907
H316	H	0.968523	-0.256406	1.053950
H317	H	1.301856	0.076927	1.387283
H318	H	1.635189	0.410260	1.720616
H319	H	0.451983	-0.348396	0.391290
H320	H	0.785317	-0.015063	0.724623
H321	H	1.118650	0.318271	1.057956
