data_functionalizedCrystal
_audit_creation_method	'MofGen! by Chris Wilmer'
_symmetry_space_group_name_H-M	'P1'
_symmetry_Int_Tables_number	1
_symmetry_cell_setting	triclinic
loop_
_symmetry_equiv_pos_as_xyz
  x,y,z
_cell_length_a	19.077212
_cell_length_b	10.685194
_cell_length_c	19.076929
_cell_angle_alpha	87.721472
_cell_angle_beta	89.887364
_cell_angle_gamma	96.482056
loop_
_atom_site_label
_atom_site_type_symbol
_atom_site_fract_x
_atom_site_fract_y
_atom_site_fract_z
Zn1	Zn	1.039588	-0.457966	-0.420251
Zn2	Zn	1.035982	-0.660163	-0.293768
Zn3	Zn	0.926835	-0.457312	-0.298056
Zn4	Zn	0.913110	-0.676982	-0.405754
O5	O	0.978878	-0.563105	-0.354457
O6	O	1.137719	-0.478022	-0.407745
O7	O	1.025737	-0.625942	-0.196331
O8	O	0.949045	-0.280846	-0.322127
O9	O	1.135070	-0.626576	-0.314818
O10	O	1.031884	-0.281326	-0.411903
O11	O	0.945548	-0.476908	-0.199481
O12	O	0.826404	-0.493217	-0.308070
O13	O	0.925653	-0.655241	-0.505683
O14	O	0.816321	-0.654607	-0.387195
O15	O	1.018576	-0.494331	-0.516333
O16	O	1.012429	-0.838946	-0.300761
O17	O	0.922156	-0.851303	-0.383037
C18	C	0.795794	-0.575667	-0.346525
C19	C	0.717468	-0.581073	-0.343147
C20	C	0.276425	-0.619791	-0.318953
C21	C	0.350022	-0.614705	-0.322122
C22	C	0.388193	-0.534955	-0.372156
C23	C	0.352765	-0.460278	-0.419019
C24	C	0.279170	-0.465359	-0.415846
C25	C	0.608445	-0.511476	-0.386837
C26	C	0.682044	-0.506404	-0.390008
C27	C	0.679297	-0.660830	-0.293110
C28	C	0.605700	-0.665908	-0.289944
C29	C	0.570279	-0.591226	-0.336805
N30	N	0.463420	-0.529758	-0.375398
N31	N	0.495053	-0.596418	-0.333559
C32	C	0.965431	-0.890903	-0.339877
C33	C	0.959741	-1.031133	-0.333666
C34	C	1.162678	-0.550496	-0.362420
C35	C	1.241002	-0.545122	-0.365814
C36	C	0.970986	-0.576735	-0.537130
C37	C	0.967622	-0.582543	-0.614975
C38	C	0.992397	-0.234028	-0.369110
C39	C	0.998158	-0.093795	-0.375354
C40	C	0.943499	-0.624300	-1.052559
C41	C	0.946658	-0.618824	-0.979416
C42	C	0.996620	-0.532316	-0.948394
C43	C	1.043422	-0.451270	-0.990518
C44	C	1.040260	-0.456740	-1.063659
C45	C	1.011262	-0.506967	-0.730240
C46	C	1.014422	-0.501505	-0.657093
C47	C	0.917657	-0.669059	-0.645997
C48	C	0.914502	-0.674527	-0.719140
C49	C	0.961301	-0.593476	-0.761258
N50	N	0.999851	-0.526720	-0.873631
N51	N	0.958066	-0.599067	-0.836020
C52	C	0.986785	-0.549435	-0.172500
C53	C	0.990299	-0.543262	-0.094678
H54	H	0.250329	-0.404551	-0.454003
Cl55	Cl	0.394553	-0.708547	-0.263193
Cl56	Cl	1.055663	-1.010994	-0.437803
H57	H	0.922488	-1.084773	-0.293222
Cl58	Cl	0.228445	-0.720063	-0.256055
Cl59	Cl	0.557722	-0.766132	-0.227024
H60	H	0.902817	-0.694749	-1.077812
Cl61	Cl	0.723831	-0.754704	-0.234201
Cl62	Cl	0.563924	-0.417600	-0.445753
Cl63	Cl	0.851697	-0.783298	-0.758134
Cl64	Cl	0.400751	-0.360018	-0.481917
Cl65	Cl	0.730031	-0.406137	-0.452910
H66	H	1.055108	-0.431053	-0.631838
H67	H	0.908555	-0.684827	-0.945126
H68	H	1.078367	-0.390746	-1.097952
H69	H	0.879554	-0.735044	-0.611697
Cl70	Cl	1.070131	-0.405138	-0.783178
H71	H	1.084100	-0.380828	-0.965254
