data_functionalizedCrystal
_audit_creation_method	'MofGen! by Chris Wilmer'
_symmetry_space_group_name_H-M	'P1'
_symmetry_Int_Tables_number	1
_symmetry_cell_setting	triclinic
loop_
_symmetry_equiv_pos_as_xyz
  x,y,z
_cell_length_a	14.044209
_cell_length_b	14.519709
_cell_length_c	13.596369
_cell_angle_alpha	89.999684
_cell_angle_beta	89.997124
_cell_angle_gamma	88.434049
loop_
_atom_site_label
_atom_site_type_symbol
_atom_site_fract_x
_atom_site_fract_y
_atom_site_fract_z
O1	O	-0.124265	-1.233892	0.081669
O2	O	-0.138899	-0.966596	0.081700
O3	O	0.006409	-1.096233	0.081671
O4	O	-0.269574	-1.104255	0.081698
O5	O	0.006401	-1.096216	-0.081912
O6	O	-0.138907	-0.966579	-0.081883
O7	O	-0.124273	-1.233876	-0.081914
Zn8	Zn	-0.131591	-1.100225	-0.107871
Zn9	Zn	-0.131581	-1.100247	0.107657
O10	O	-0.269582	-1.104238	-0.081885
C11	C	0.041726	-1.092712	-0.000122
C12	C	0.146969	-1.082236	-0.000125
C13	C	-0.138221	-0.932173	-0.000088
C14	C	-0.136178	-0.829626	-0.000077
C15	C	-0.124951	-1.268299	-0.000124
C16	C	-0.126995	-1.370845	-0.000129
C17	C	0.339664	-1.063083	-0.000115
C18	C	0.397171	-1.137392	-0.000122
C19	C	0.504392	-1.126735	-0.000116
C20	C	0.232432	-1.073739	-0.000120
C21	C	0.695102	-1.107761	-0.000098
C22	C	0.589859	-1.118243	-0.000112
C23	C	-0.128654	-0.454124	-0.000122
C24	C	-0.130743	-0.558600	-0.000109
C25	C	-0.132415	-0.641872	-0.000099
C26	C	-0.134505	-0.746355	-0.000087
N27	N	-0.131598	-1.100216	-0.254963
C28	C	-0.131600	-1.100221	-0.343961
C29	C	-0.131594	-1.100229	-0.455612
C30	C	-0.131583	-1.100241	-0.544603
C31	C	-0.131577	-1.100251	-0.656261
N32	N	-0.131567	-1.100262	0.254748
H33	H	0.365878	-1.209013	-0.000063
C34	C	0.381937	-0.966332	-0.000118
N35	N	0.413788	-0.893460	-0.000128
