data_functionalizedCrystal
_audit_creation_method	'MofGen! by Chris Wilmer'
_symmetry_space_group_name_H-M	'P1'
_symmetry_Int_Tables_number	1
_symmetry_cell_setting	triclinic
loop_
_symmetry_equiv_pos_as_xyz
  x,y,z
_cell_length_a	13.635800
_cell_length_b	11.353959
_cell_length_c	11.102300
_cell_angle_alpha	76.860692
_cell_angle_beta	108.605850
_cell_angle_gamma	72.473377
loop_
_atom_site_label
_atom_site_type_symbol
_atom_site_fract_x
_atom_site_fract_y
_atom_site_fract_z
V1	V	2.065849	-0.180904	0.436288
O2	O	2.034797	0.008693	0.386790
O3	O	2.064147	-0.358703	0.472923
O4	O	2.054084	-0.178121	0.608494
O5	O	2.044930	-0.173138	0.250280
V6	V	2.303136	-0.158226	0.409227
O7	O	2.206292	-0.230650	0.495649
O8	O	2.387791	-0.108480	0.349867
O9	O	2.193234	0.019573	0.372593
O10	O	2.392886	-0.347823	0.458726
O11	O	2.382753	-0.165992	0.595235
O12	O	2.203297	-0.161009	0.237022
V13	V	2.565849	-0.180904	0.436288
O14	O	2.534797	0.008693	0.386790
O15	O	2.564147	-0.358703	0.472923
O16	O	2.554084	-0.178121	0.608494
O17	O	2.544930	-0.173138	0.250280
V18	V	2.803136	-0.158226	0.409227
O19	O	2.706292	-0.230650	0.495649
O20	O	2.887791	-0.108480	0.349867
O21	O	2.693234	0.019573	0.372593
O22	O	2.892886	-0.347823	0.458726
O23	O	2.882753	-0.165992	0.595235
O24	O	2.703297	-0.161009	0.237022
C25	C	1.991719	-0.402046	0.476263
C26	C	2.031054	-0.547399	0.507364
C27	C	2.019011	-0.594457	0.406697
C28	C	2.059666	-0.744686	0.438839
C29	C	1.978881	-0.171695	0.649195
C30	C	2.010053	-0.170596	0.790234
C31	C	2.097334	0.062909	0.369251
C32	C	2.047618	0.208260	0.338158
C33	C	2.110171	-0.167439	0.196315
C34	C	2.068618	-0.168532	0.055273
C35	C	2.491719	-0.402046	0.476263
C36	C	2.531054	-0.547399	0.507364
C37	C	2.478881	-0.171695	0.649195
C38	C	2.510053	-0.170596	0.790234
C39	C	2.117067	-0.176610	0.864414
C40	C	2.146349	-0.175573	0.996933
C41	C	1.961593	-0.162513	0.981082
C42	C	1.932310	-0.163541	0.848562
C43	C	2.597334	0.062909	0.369251
C44	C	2.547618	0.208260	0.338158
C45	C	2.610171	-0.167439	0.196315
C46	C	2.568618	-0.168532	0.055273
C47	C	2.641916	-0.622325	0.529795
C48	C	2.678895	-0.758903	0.559038
C49	C	2.605008	-0.820551	0.565840
C50	C	2.494138	-0.745616	0.543411
C51	C	2.457163	-0.609041	0.514178
C52	C	2.609251	0.283186	0.315731
C53	C	2.562544	0.419763	0.286495
C54	C	2.454208	0.481411	0.279695
C55	C	2.392570	0.406476	0.302121
C56	C	2.439274	0.269903	0.331347
C57	C	2.617067	-0.176610	0.864414
C58	C	2.646349	-0.175573	0.996933
C59	C	2.461593	-0.162513	0.981082
C60	C	2.432310	-0.163541	0.848562
H61	H	1.978609	-0.523527	0.296718
H62	H	2.100078	-0.815613	0.548827
C63	C	1.805421	-0.159427	0.638417
C64	C	1.814695	-0.157009	0.767041
H65	H	1.732816	-0.155407	0.588097
H66	H	1.862123	-0.238853	0.648545
H67	H	1.815015	-0.085645	0.591371
H68	H	1.805108	-0.230797	0.814092
H69	H	1.757976	-0.077574	0.756917
H70	H	2.071466	-0.618329	0.617344
H71	H	2.398303	-0.156772	1.028591
H72	H	2.180371	-0.182353	0.816927
C73	C	1.852690	-0.040869	1.078832
C74	C	1.876151	-0.154773	1.045212
H75	H	1.799946	-0.036100	1.118431
H76	H	1.821588	0.035048	0.998909
H77	H	1.920625	-0.044320	1.141978
H78	H	1.808217	-0.151317	0.982059
H79	H	1.907250	-0.230709	1.125147
H80	H	2.680371	-0.182353	0.816927
C81	C	2.270239	0.234155	0.240036
C82	C	2.371520	0.187554	0.356016
H83	H	2.228403	0.183324	0.255271
H84	H	2.286677	0.226421	0.164532
H85	H	2.226940	0.324320	0.221664
H86	H	2.414822	0.097390	0.374383
H87	H	2.355083	0.195275	0.431543
C88	C	2.654557	0.490708	0.150558
C89	C	2.630315	0.502108	0.261862
H90	H	2.696403	0.541536	0.135360
H91	H	2.585858	0.522316	0.071882
H92	H	2.697868	0.400539	0.168959
H93	H	2.586997	0.592277	0.243457
H94	H	2.699026	0.470507	0.340555
H95	H	2.345160	-0.158633	0.788159
H96	H	2.733487	-0.180469	1.057324
C97	C	2.347499	-0.299322	1.093355
C98	C	2.263984	-0.182193	1.078478
H99	H	2.420124	-0.303409	1.143705
H100	H	2.341182	-0.300936	1.006091
H101	H	2.337841	-0.373058	1.140382
H102	H	2.273638	-0.108457	1.031442
H103	H	2.270305	-0.180568	1.165758
H104	H	2.007214	-0.720815	0.228171
H105	H	2.769172	-0.819897	0.577293
C106	C	2.828260	-0.649212	0.548199
C107	C	2.723148	-0.554582	0.522324
H108	H	2.878416	-0.607396	0.543599
H109	H	2.818925	-0.690262	0.482181
H110	H	2.858733	-0.714145	0.636379
H111	H	2.692671	-0.489654	0.434140
H112	H	2.732481	-0.513511	0.588346
H113	H	2.635130	-0.931760	0.589645
H114	H	2.416192	0.592619	0.255895
C115	C	2.278258	-0.609651	0.501638
C116	C	2.335292	-0.526687	0.489500
H117	H	2.203016	-0.558810	0.486394
H118	H	2.316428	-0.675125	0.590461
H119	H	2.276637	-0.651267	0.436269
H120	H	2.336921	-0.485079	0.554876
H121	H	2.297112	-0.461189	0.400664
C122	C	2.721848	0.154926	0.225864
C123	C	2.728335	0.215439	0.323192
H124	H	2.795366	0.113104	0.230471
H125	H	2.673957	0.219871	0.137705
H126	H	2.691837	0.090745	0.243426
H127	H	2.758337	0.279627	0.305624
H128	H	2.776243	0.150487	0.411371
C129	C	2.245537	0.609943	0.264289
C130	C	2.273493	0.474250	0.294664
H131	H	2.172028	0.651780	0.259702
H132	H	2.246654	0.646989	0.179191
H133	H	2.298961	0.623082	0.333393
H134	H	2.220073	0.461111	0.225555
H135	H	2.272367	0.437193	0.379774
H136	H	2.433989	-0.795830	0.548954
