data_functionalizedCrystal
_audit_creation_method	'MofGen! by Chris Wilmer'
_symmetry_space_group_name_H-M	'P1'
_symmetry_Int_Tables_number	1
_symmetry_cell_setting	triclinic
loop_
_symmetry_equiv_pos_as_xyz
  x,y,z
_cell_length_a	16.625548
_cell_length_b	25.639239
_cell_length_c	16.625548
_cell_angle_alpha	90.014267
_cell_angle_beta	90.008236
_cell_angle_gamma	90.039754
loop_
_atom_site_label
_atom_site_type_symbol
_atom_site_fract_x
_atom_site_fract_y
_atom_site_fract_z
Zn1	Zn	1.232491	-0.208223	0.455892
Zn2	Zn	1.232385	-0.295635	0.321053
Zn3	Zn	1.097682	-0.208217	0.321073
Zn4	Zn	1.097585	-0.295631	0.455843
O5	O	1.165036	-0.251926	0.388465
O6	O	1.345310	-0.219822	0.438018
O7	O	1.214513	-0.284038	0.208223
O8	O	1.115650	-0.135052	0.338987
O9	O	1.345232	-0.284043	0.338952
O10	O	1.214693	-0.135057	0.438038
O11	O	1.115547	-0.219812	0.208238
O12	O	0.984837	-0.219808	0.338938
O13	O	1.115485	-0.284036	0.568682
O14	O	0.984766	-0.284031	0.437953
O15	O	1.214600	-0.219818	0.568718
O16	O	1.214419	-0.368799	0.338904
O17	O	1.115382	-0.368796	0.437933
C18	C	0.955545	-0.251919	0.388443
C19	C	0.865924	-0.251928	0.388452
C20	C	1.164901	-0.387769	0.388428
C21	C	1.164916	-0.445883	0.388440
C22	C	0.537749	-0.251931	0.388487
C23	C	0.629057	-0.251929	0.388474
C24	C	0.701833	-0.251930	0.388469
C25	C	0.793148	-0.251927	0.388458
C26	C	1.216739	-0.806235	0.336988
C27	C	1.216770	-0.860839	0.336999
O28	O	1.260692	-0.889066	0.293213
N29	N	1.165178	-0.888165	0.388519
C30	C	1.113556	-0.860884	0.440036
O31	O	1.069676	-0.889141	0.483859
C32	C	1.113530	-0.806281	0.440029
C33	C	1.165120	-0.778958	0.388501
C34	C	1.268326	-0.778911	0.285465
C35	C	1.268293	-0.724311	0.285453
C36	C	1.216674	-0.697034	0.336965
C37	C	1.165088	-0.724357	0.388489
C38	C	1.061913	-0.779001	0.491550
C39	C	1.061891	-0.724394	0.491539
C40	C	1.113482	-0.697070	0.440011
C41	C	1.113436	-0.642479	0.439989
N42	N	1.165028	-0.615153	0.388470
C43	C	1.216648	-0.642430	0.336958
C44	C	1.113617	-0.975555	0.440049
C45	C	1.113639	-1.030157	0.440053
C46	C	1.216854	-1.030108	0.337016
C47	C	1.216828	-0.975505	0.337009
C48	C	1.165210	-0.948229	0.388529
C49	C	1.216575	-0.527765	0.336937
C50	C	1.216535	-0.473160	0.336927
C51	C	1.113323	-0.473214	0.439966
C52	C	1.113360	-0.527814	0.439973
C53	C	1.164992	-0.555089	0.388456
O54	O	1.069539	-0.614217	0.483755
O55	O	1.260528	-0.614167	0.293150
C56	C	1.375345	-0.251934	0.388488
C57	C	1.464966	-0.251937	0.388498
C58	C	1.165043	-0.251928	0.598774
C59	C	1.165046	-0.251928	0.688395
C60	C	1.165194	-0.115553	0.388520
C61	C	1.165262	-0.057439	0.388543
C62	C	1.165013	-0.251933	1.016571
C63	C	1.165020	-0.251933	0.925262
C64	C	1.165030	-0.251931	0.852486
C65	C	1.165036	-0.251931	0.761172
C66	C	1.165021	-0.251935	1.178974
C67	C	1.165013	-0.251931	1.089353
H68	H	1.258546	-0.450915	0.294964
H69	H	1.071622	-1.052399	0.482005
H70	H	1.258621	-0.549966	0.294988
O71	O	1.266906	-0.949022	0.286846
C72	C	1.249336	-0.962386	0.206470
H73	H	1.218355	-1.002050	0.204779
H74	H	1.307556	-0.964229	0.170369
H75	H	1.207892	-0.931686	0.179269
H76	H	1.071577	-0.953349	0.482001
O77	O	1.267032	-1.056692	0.287110
C78	C	1.256004	-1.110744	0.298189
H79	H	1.229474	-1.118187	0.360363
H80	H	1.316436	-1.131441	0.292881
H81	H	1.213186	-1.126311	0.250284
H82	H	1.310365	-0.801115	0.243517
O83	O	1.318453	-0.697714	0.235517
C84	C	1.370494	-0.666096	0.281467
H85	H	1.342002	-0.657915	0.342541
H86	H	1.381315	-0.627701	0.248624
H87	H	1.430247	-0.687102	0.290391
O88	O	1.011775	-0.805453	0.541685
C89	C	0.966206	-0.769658	0.587131
H90	H	0.999217	-0.730714	0.589932
H91	H	0.957569	-0.785417	0.650660
H92	H	0.904986	-0.763897	0.557553
H93	H	1.019858	-0.702188	0.533496
H94	H	1.071353	-0.550062	0.481934
O95	O	1.063303	-0.446685	0.490091
C96	C	1.109167	-0.415049	0.542179
H97	H	1.172672	-0.431467	0.547215
H98	H	1.079965	-0.414426	0.604208
H99	H	1.111949	-0.373672	0.517236
