data_functionalizedCrystal
_audit_creation_method	'MofGen! by Chris Wilmer'
_symmetry_space_group_name_H-M	'P1'
_symmetry_Int_Tables_number	1
_symmetry_cell_setting	triclinic
loop_
_symmetry_equiv_pos_as_xyz
  x,y,z
_cell_length_a	12.759395
_cell_length_b	21.295417
_cell_length_c	12.759387
_cell_angle_alpha	90.038536
_cell_angle_beta	90.019431
_cell_angle_gamma	90.030352
loop_
_atom_site_label
_atom_site_type_symbol
_atom_site_fract_x
_atom_site_fract_y
_atom_site_fract_z
Zn1	Zn	1.606153	-0.250579	0.593918
Zn2	Zn	1.605995	-0.355862	0.418215
Zn3	Zn	1.430451	-0.250610	0.418259
Zn4	Zn	1.430395	-0.355814	0.593857
O5	O	1.518249	-0.303216	0.506062
O6	O	1.753153	-0.264552	0.570618
O7	O	1.582667	-0.341933	0.271200
O8	O	1.453848	-0.162516	0.441604
O9	O	1.753037	-0.341902	0.441530
O10	O	1.582936	-0.162493	0.570660
O11	O	1.453695	-0.264605	0.271232
O12	O	1.283423	-0.264558	0.441545
O13	O	1.453753	-0.341821	0.740887
O14	O	1.283382	-0.341851	0.570557
O15	O	1.582881	-0.264505	0.740931
O16	O	1.582612	-0.443945	0.441471
O17	O	1.453600	-0.443909	0.570514
C18	C	1.245281	-0.303203	0.506049
C19	C	1.128505	-0.303213	0.506069
C20	C	1.128606	-0.222798	0.640706
C21	C	1.073796	-0.182598	0.708033
C22	C	0.964074	-0.182609	0.708046
C23	C	0.909160	-0.222823	0.640722
C24	C	0.963970	-0.263023	0.573396
C25	C	1.073695	-0.263009	0.573392
C26	C	0.963869	-0.343434	0.438755
C27	C	1.073591	-0.343427	0.438745
C28	C	0.908955	-0.383649	0.371432
C29	C	0.963765	-0.423853	0.304108
C30	C	1.073493	-0.423840	0.304099
C31	C	1.128401	-0.383627	0.371419
C32	C	1.518111	-0.466768	0.506004
C33	C	1.518148	-0.536736	0.506014
C34	C	1.585385	-0.569600	0.438890
C35	C	1.585434	-0.635342	0.438914
C36	C	1.518228	-0.668218	0.506051
C37	C	1.450987	-0.635346	0.573188
C38	C	1.450947	-0.569605	0.573170
N39	N	1.426321	-0.771483	0.514056
N40	N	1.426362	-0.833935	0.514067
C41	C	1.518346	-0.866293	0.506111
N42	N	1.610289	-0.833840	0.498123
N43	N	1.610247	-0.771383	0.498106
C44	C	1.518264	-0.739503	0.506078
C45	C	1.585641	-0.970442	0.439009
C46	C	1.585692	-1.036186	0.439040
C47	C	1.451236	-1.036189	0.573308
C48	C	1.451194	-0.970446	0.573283
C49	C	1.518395	-0.937577	0.506127
C50	C	1.792282	-0.303229	0.506076
C51	C	1.909059	-0.303234	0.506082
C52	C	1.518328	-0.303154	0.780096
C53	C	1.518362	-0.303128	0.896873
C54	C	1.518416	-0.139026	0.506144
C55	C	1.518487	-0.069057	0.506178
C56	C	1.518230	-0.303232	0.233095
C57	C	1.518400	-0.303081	0.116319
C58	C	1.652833	-0.222624	0.896939
C59	C	1.720083	-0.182363	0.951833
C60	C	1.720108	-0.182340	1.061555
C61	C	1.652874	-0.222581	1.116385
C62	C	1.585624	-0.262843	1.061491
C63	C	1.585608	-0.262863	0.951767
C64	C	1.451150	-0.343342	1.061425
C65	C	1.451128	-0.343369	0.951703
C66	C	1.383916	-0.383583	1.116255
C67	C	1.316670	-0.423849	1.061361
C68	C	1.316648	-0.423870	0.951633
C69	C	1.383878	-0.383630	0.896809
H70	H	0.819819	-0.222824	0.640731
H71	H	1.774821	-0.149599	0.907178
H72	H	1.396520	-1.062956	0.627977
H73	H	1.640364	-0.943679	0.384330
O74	O	0.910261	-0.462892	0.238816
C75	C	0.801666	-0.454265	0.253238
H76	H	0.786728	-0.433710	0.334384
H77	H	0.759927	-0.501413	0.245963
H78	H	0.770530	-0.420697	0.191029
H79	H	1.774863	-0.149552	1.106249
H80	H	1.396439	-0.943687	0.627937
H81	H	1.118113	-0.456574	0.249269
O82	O	1.653057	-0.222496	1.222968
C83	C	1.726803	-0.178316	1.259661
H84	H	1.788188	-0.169520	1.196448
H85	H	1.766659	-0.197296	1.333066
H86	H	1.685198	-0.132407	1.279142
H87	H	1.652829	-0.222645	0.807598
H88	H	1.396269	-0.662118	0.627853
O89	O	1.383944	-0.383678	1.222838
C90	C	1.410885	-0.444002	1.259459
H91	H	1.392875	-0.480269	1.196203
H92	H	1.363499	-0.455172	1.332852
H93	H	1.498062	-0.445344	1.278935
O94	O	1.251417	-0.463022	1.114505
C95	C	1.274320	-0.525771	1.087693
H96	H	1.314692	-0.527101	1.008034
H97	H	1.198463	-0.553992	1.083916
H98	H	1.328322	-0.546962	1.149447
H99	H	1.640107	-0.542839	0.384211
H100	H	1.217742	-0.383610	0.371412
H101	H	1.640190	-0.662105	0.384254
O102	O	1.651045	-1.068015	0.373733
C103	C	1.710362	-1.024903	0.314479
H104	H	1.667299	-0.978066	0.310792
H105	H	1.721618	-1.043935	0.231717
H106	H	1.790134	-1.017846	0.353012
H107	H	1.396194	-0.542846	0.627832
O108	O	0.802372	-0.383716	0.371612
C109	C	0.765752	-0.399950	0.472262
H110	H	0.828987	-0.427419	0.515598
H111	H	0.692327	-0.430138	0.464648
H112	H	0.746327	-0.355421	0.517927
O113	O	1.251469	-0.463012	0.898192
C114	C	1.311228	-0.503700	0.834734
H115	H	1.390872	-0.481511	0.818324
H116	H	1.268413	-0.512148	0.757564
H117	H	1.322723	-0.550342	0.876998
O118	O	1.383668	-0.383657	0.790226
C119	C	1.282998	-0.367473	0.753553
H120	H	1.222477	-0.378202	0.816767
H121	H	1.264278	-0.395884	0.680134
H122	H	1.280834	-0.315246	0.734102
O123	O	1.235189	-0.222787	0.640508
C124	C	1.271821	-0.206523	0.539876
H125	H	1.208562	-0.217235	0.479325
H126	H	1.345201	-0.234895	0.521105
H127	H	1.291322	-0.154288	0.537823
O128	O	1.127302	-0.143596	0.773395
C129	C	1.235899	-0.152192	0.758934
H130	H	1.250843	-0.200744	0.724365
H131	H	1.277634	-0.147979	0.837641
H132	H	1.267034	-0.114807	0.703106
H133	H	0.919448	-0.149871	0.762863
