data_functionalizedCrystal
_audit_creation_method	'MofGen! by Chris Wilmer'
_symmetry_space_group_name_H-M	'P1'
_symmetry_Int_Tables_number	1
_symmetry_cell_setting	triclinic
loop_
_symmetry_equiv_pos_as_xyz
  x,y,z
_cell_length_a	16.625547
_cell_length_b	14.909028
_cell_length_c	14.908694
_cell_angle_alpha	89.784294
_cell_angle_beta	86.678964
_cell_angle_gamma	86.719020
loop_
_atom_site_label
_atom_site_type_symbol
_atom_site_fract_x
_atom_site_fract_y
_atom_site_fract_z
Zn1	Zn	1.277830	-0.387289	-0.487879
Zn2	Zn	1.276856	-0.528987	-0.328854
Zn3	Zn	1.134796	-0.378649	-0.337522
Zn4	Zn	1.150276	-0.537601	-0.479157
O5	O	1.209940	-0.458131	-0.408353
O6	O	1.390535	-0.406097	-0.466807
O7	O	1.251125	-0.501824	-0.204177
O8	O	1.147699	-0.253973	-0.364745
O9	O	1.389819	-0.510202	-0.349972
O10	O	1.252785	-0.260320	-0.475212
O11	O	1.146754	-0.391371	-0.210545
O12	O	1.024015	-0.399723	-0.356288
O13	O	1.174083	-0.524882	-0.606142
O14	O	1.035389	-0.516504	-0.460346
O15	O	1.267796	-0.414449	-0.612550
O16	O	1.266136	-0.655952	-0.341514
O17	O	1.173138	-0.662281	-0.451941
C18	C	1.000446	-0.458112	-0.408312
C19	C	0.910825	-0.458126	-0.408314
C20	C	1.221234	-0.691742	-0.394860
C21	C	1.226141	-0.791683	-0.389118
C22	C	1.281512	-0.929224	-0.323585
C23	C	1.276906	-0.835320	-0.328977
C24	C	1.179978	-0.841957	-0.443870
C25	C	1.184585	-0.935861	-0.438478
C26	C	1.235355	-0.979491	-0.378334
C27	C	1.239965	-1.073397	-0.372948
C28	C	1.143034	-1.080032	-0.487835
C29	C	1.138427	-0.986128	-0.493227
C30	C	0.838044	-0.458128	-0.408325
C31	C	0.746737	-0.458134	-0.408347
C32	C	0.673962	-0.458144	-0.408370
C33	C	0.582649	-0.458151	-0.408391
C34	C	1.420252	-0.458152	-0.408395
C35	C	1.509874	-0.458161	-0.408413
C36	C	1.222775	-0.471590	-0.642883
C37	C	1.228245	-0.477325	-0.742826
C38	C	1.198624	-0.223610	-0.421919
C39	C	1.193802	-0.123671	-0.427699
C40	C	1.129823	-0.373091	-0.937262
C41	C	1.134959	-0.378477	-1.031167
C42	C	1.243649	-0.493487	-1.024544
C43	C	1.238513	-0.488101	-0.930638
C44	C	1.181599	-0.427900	-0.887001
C45	C	1.176467	-0.422510	-0.793094
C46	C	1.285152	-0.537525	-0.786472
C47	C	1.290289	-0.542910	-0.880377
C48	C	1.197197	-0.444660	-0.174739
C49	C	1.191871	-0.438672	-0.074812
H50	H	1.281307	-1.108919	-0.323979
C51	C	1.078789	-0.319078	-1.085894
C52	C	1.095451	-0.336694	-1.177472
C53	C	1.043711	-0.282002	-1.227913
H54	H	1.086778	-0.257751	-1.074112
H55	H	1.024393	-0.331368	-1.069780
H56	H	1.149833	-0.324396	-1.193581
H57	H	1.087456	-0.398010	-1.189282
H58	H	0.989315	-0.294292	-1.211798
H59	H	1.051704	-0.220678	-1.216123
H60	H	1.055004	-0.293952	-1.290053
C61	C	1.336652	-0.976433	-0.258205
C62	C	1.376080	-0.912310	-0.211399
C63	C	1.426873	-0.955763	-0.151156
H64	H	1.375501	-1.014993	-0.290444
H65	H	1.305506	-1.010836	-0.216837
H66	H	1.407223	-0.877922	-0.252761
H67	H	1.337251	-0.873747	-0.179142
H68	H	1.395728	-0.990167	-0.109788
H69	H	1.465717	-0.994322	-0.183401
H70	H	1.453626	-0.912263	-0.119384
H71	H	1.097089	-0.950593	-0.542193
H72	H	1.105452	-1.120970	-0.532420
C73	C	1.341272	-0.596995	-0.731741
C74	C	1.324583	-0.579410	-0.640161
C75	C	1.376257	-0.634180	-0.589716
H76	H	1.395683	-0.584771	-0.747796
H77	H	1.333221	-0.658307	-0.743580
H78	H	1.332641	-0.518112	-0.628327
H79	H	1.270181	-0.591638	-0.624080
H80	H	1.368206	-0.695492	-0.601555
H81	H	1.430665	-0.621952	-0.605778
H82	H	1.364936	-0.622262	-0.527574
H83	H	1.336624	-0.591927	-0.915920
C84	C	1.124934	-0.794413	-0.509134
C85	C	1.130794	-0.701418	-0.502144
C86	C	1.080106	-0.657592	-0.562259
H87	H	1.070768	-0.808994	-0.495089
H88	H	1.140754	-0.813176	-0.568706
H89	H	1.114969	-0.682662	-0.442585
H90	H	1.184948	-0.686810	-0.516197
H91	H	1.095926	-0.676355	-0.621831
H92	H	1.025943	-0.672181	-0.548209
H93	H	1.084080	-0.594492	-0.557530
C94	C	1.326879	-0.780689	-0.269427
C95	C	1.275468	-0.723550	-0.214820
C96	C	1.321474	-0.673220	-0.159939
H97	H	1.362078	-0.745908	-0.305867
H98	H	1.357755	-0.820095	-0.232786
H99	H	1.244606	-0.684150	-0.251457
H100	H	1.240269	-0.758308	-0.178361
H101	H	1.352350	-0.712625	-0.123298
H102	H	1.356672	-0.638444	-0.196387
H103	H	1.286599	-0.634452	-0.122876
C104	C	1.114592	-0.357131	-0.745877
C105	C	1.070333	-0.310305	-0.809997
C106	C	1.013316	-0.250081	-0.766537
H107	H	1.141441	-0.315771	-0.711517
H108	H	1.079076	-0.389409	-0.707270
H109	H	1.105843	-0.278028	-0.848589
H110	H	1.043466	-0.351641	-0.844361
H111	H	0.977800	-0.282359	-0.727929
H112	H	1.040172	-0.208727	-0.732178
H113	H	0.983274	-0.218308	-0.810035
H114	H	1.083488	-0.324065	-0.901733
H115	H	1.289976	-0.542512	-1.060089
