data_functionalizedCrystal
_audit_creation_method	'MofGen! by Chris Wilmer'
_symmetry_space_group_name_H-M	'P1'
_symmetry_Int_Tables_number	1
_symmetry_cell_setting	triclinic
loop_
_symmetry_equiv_pos_as_xyz
  x,y,z
_cell_length_a	6.817900
_cell_length_b	16.418055
_cell_length_c	17.078481
_cell_angle_alpha	96.276081
_cell_angle_beta	99.306161
_cell_angle_gamma	103.389726
loop_
_atom_site_label
_atom_site_type_symbol
_atom_site_fract_x
_atom_site_fract_y
_atom_site_fract_z
V1	V	-3.979123	-0.115690	-0.247637
O2	O	-3.968071	0.005761	-0.242639
O3	O	-3.930458	-0.229587	-0.246215
O4	O	-3.910177	-0.113822	-0.355515
O5	O	-3.988493	-0.110806	-0.132583
V6	V	-4.465448	-0.101173	-0.233842
O7	O	-4.234236	-0.147533	-0.277896
O8	O	-4.660532	-0.069330	-0.203583
O9	O	-4.290906	0.012724	-0.235263
O10	O	-4.593897	-0.222623	-0.238839
O11	O	-4.573475	-0.106057	-0.348896
O12	O	-4.311187	-0.103041	-0.125964
C13	C	-3.776060	-0.257355	-0.242379
C14	C	-3.817420	-0.350467	-0.241936
C15	C	-4.132744	-0.656451	-0.244513
C16	C	-4.093894	-0.568961	-0.244916
C17	C	-3.731188	-0.560423	-0.236966
C18	C	-3.770036	-0.647910	-0.236557
C19	C	-3.970821	-0.695923	-0.240335
C20	C	-3.893123	-0.520945	-0.241147
C21	C	-3.851000	-0.426085	-0.241584
C22	C	-4.012947	-0.790789	-0.239896
C23	C	-3.750188	-0.109684	-0.381801
C24	C	-3.775099	-0.108911	-0.469994
C25	C	-3.968124	-0.112729	-0.515479
C26	C	-3.991519	-0.112001	-0.598345
C27	C	-3.821888	-0.107462	-0.635726
C28	C	-3.628846	-0.103642	-0.590234
C29	C	-3.605451	-0.104363	-0.507369
C30	C	-3.872410	-0.104851	-0.883123
C31	C	-3.895821	-0.104133	-0.965995
C32	C	-4.258493	-0.112491	-0.974100
C33	C	-4.235083	-0.113217	-0.891233
C34	C	-4.042042	-0.109392	-0.845748
N35	N	-3.845798	-0.106721	-0.720429
N36	N	-4.018132	-0.110127	-0.761045
C37	C	-4.108647	0.040488	-0.239097
C38	C	-4.046523	0.133599	-0.239545
C39	C	-4.134519	-0.107181	-0.099674
C40	C	-4.088847	-0.107950	-0.011480
H41	H	-4.106263	-0.116430	-0.485050
O42	O	-3.730897	-0.099564	-1.002251
C43	C	-3.579040	-0.024334	-0.968594
H44	H	-3.653680	0.023948	-0.940539
H45	H	-3.460466	-0.038614	-0.920443
C46	C	-3.380832	-0.047390	-1.069229
C47	C	-3.472509	0.011914	-1.034777
H48	H	-3.315110	-0.025031	-1.110052
H49	H	-3.483136	-0.098075	-1.091902
H50	H	-3.282034	-0.059285	-1.029095
H51	H	-3.571322	0.023800	-1.074908
H52	H	-3.370218	0.062603	-1.012111
H53	H	-4.296232	-0.695540	-0.247587
O54	O	-3.464162	-0.099121	-0.626618
C55	C	-3.430996	-0.025576	-0.663359
H56	H	-3.579998	-0.004802	-0.675647
H57	H	-3.307410	0.027234	-0.621768
C58	C	-3.177428	-0.070156	-0.727986
C59	C	-3.360440	-0.044644	-0.743084
H60	H	-3.133897	-0.081915	-0.777162
H61	H	-3.199766	-0.119703	-0.703230
H62	H	-3.074462	-0.026143	-0.693324
H63	H	-3.463409	-0.088661	-0.777737
H64	H	-3.338118	0.004895	-0.767847
H65	H	-3.715242	-0.101766	-0.846103
O66	O	-4.251437	-0.530758	-0.249016
C67	C	-4.436966	-0.591895	-0.252240
H68	H	-4.420635	-0.657138	-0.276029
H69	H	-4.473686	-0.592046	-0.189452
C70	C	-4.632144	-0.490209	-0.279227
C71	C	-4.612092	-0.570341	-0.308451
H72	H	-4.740173	-0.476913	-0.313898
H73	H	-4.507150	-0.449019	-0.277052
H74	H	-4.662735	-0.490345	-0.226904
H75	H	-4.581476	-0.570201	-0.360769
H76	H	-4.737085	-0.611531	-0.310637
H77	H	-3.638168	-0.680049	-0.233153
O78	O	-4.179181	-0.115741	-0.642414
C79	C	-4.323871	-0.119878	-0.591648
H80	H	-4.267145	-0.145820	-0.535394
H81	H	-4.343924	-0.053737	-0.573940
C82	C	-4.601134	-0.146839	-0.705196
C83	C	-4.531470	-0.178708	-0.636107
H84	H	-4.729195	-0.183125	-0.732621
H85	H	-4.503654	-0.144049	-0.739398
H86	H	-4.617829	-0.091722	-0.690429
H87	H	-4.514753	-0.233820	-0.650875
H88	H	-4.628953	-0.181510	-0.601908
O89	O	-3.536206	-0.513676	-0.233201
C90	C	-3.477835	-0.451522	-0.164135
H91	H	-3.621125	-0.438353	-0.144623
H92	H	-3.385785	-0.475215	-0.113661
C93	C	-3.168868	-0.385586	-0.207199
C94	C	-3.344859	-0.369406	-0.183237
H95	H	-3.086834	-0.334934	-0.218980
H96	H	-3.208188	-0.427461	-0.253729
H97	H	-3.092184	-0.405332	-0.165133
H98	H	-3.421552	-0.349671	-0.225307
H99	H	-3.305549	-0.327525	-0.136715
H100	H	-3.448261	-0.101234	-0.470333
H101	H	-4.373218	-0.116912	-0.860803
O102	O	-4.446113	-0.116357	-1.018276
C103	C	-4.586533	-0.191935	-1.011410
H104	H	-4.499029	-0.240615	-0.993895
H105	H	-4.677930	-0.178485	-0.963369
C106	C	-4.842135	-0.167113	-1.113978
C107	C	-4.734662	-0.226905	-1.092473
H108	H	-4.933516	-0.188683	-1.163979
H109	H	-4.747535	-0.116193	-1.118602
H110	H	-4.918282	-0.155910	-1.073938
H111	H	-4.658498	-0.238100	-1.132508
H112	H	-4.829254	-0.277828	-1.087857
