data_functionalizedCrystal
_audit_creation_method	'MofGen! by Chris Wilmer'
_symmetry_space_group_name_H-M	'P1'
_symmetry_Int_Tables_number	1
_symmetry_cell_setting	triclinic
loop_
_symmetry_equiv_pos_as_xyz
  x,y,z
_cell_length_a	18.101395
_cell_length_b	16.625548
_cell_length_c	16.625539
_cell_angle_alpha	89.979432
_cell_angle_beta	90.027648
_cell_angle_gamma	89.967828
loop_
_atom_site_label
_atom_site_type_symbol
_atom_site_fract_x
_atom_site_fract_y
_atom_site_fract_z
Zn1	Zn	-0.294807	-1.232632	0.455913
Zn2	Zn	0.205193	-0.732632	0.955913
Zn3	Zn	-0.418656	-1.232515	0.321082
Zn4	Zn	0.081344	-0.732515	0.821082
Zn5	Zn	-0.294835	-1.097794	0.321094
Zn6	Zn	0.205165	-0.597794	0.821094
Zn7	Zn	-0.418614	-1.097744	0.455872
Zn8	Zn	0.081386	-0.597744	0.955872
O9	O	-0.356728	-1.165171	0.388490
O10	O	0.143272	-0.665171	0.888490
O11	O	-0.311242	-1.345449	0.438040
O12	O	0.188758	-0.845449	0.938040
O13	O	-0.402261	-1.214616	0.208251
O14	O	0.097739	-0.714616	0.708251
O15	O	-0.191199	-1.115750	0.339000
O16	O	0.308801	-0.615750	0.839000
O17	O	-0.402233	-1.345363	0.338980
O18	O	0.097767	-0.845363	0.838980
O19	O	-0.191178	-1.214815	0.438051
O20	O	0.308822	-0.714815	0.938051
O21	O	-0.311290	-1.115637	0.208260
O22	O	0.188710	-0.615637	0.708260
O23	O	-0.311249	-0.984955	0.338960
O24	O	0.188751	-0.484955	0.838960
O25	O	-0.402161	-1.115665	0.568710
O26	O	0.097839	-0.615665	1.068710
O27	O	-0.402188	-0.984918	0.437981
O28	O	0.097812	-0.484918	0.937981
O29	O	-0.311201	-1.214767	0.568740
O30	O	0.188799	-0.714767	1.068740
O31	O	-0.522284	-1.214567	0.338940
O32	O	-0.022284	-0.714567	0.838940
O33	O	-0.522252	-1.115552	0.437969
O34	O	-0.022252	-0.615552	0.937969
C35	C	-0.356718	-0.955680	0.388467
C36	C	0.143282	-0.455680	0.888467
C37	C	-0.356731	-0.866059	0.388477
C38	C	0.143269	-0.366059	0.888477
C39	C	-0.549139	-1.165063	0.388466
C40	C	-0.049139	-0.665063	0.888466
C41	C	-0.631453	-1.165091	0.388483
C42	C	-0.131453	-0.665091	0.888483
C43	C	-0.356673	-1.165224	0.598799
C44	C	0.143327	-0.665224	1.098799
C45	C	-0.356649	-1.165246	0.688420
C46	C	0.143351	-0.665246	1.188420
C47	C	-0.930544	-1.165268	0.388527
C48	C	-0.430544	-0.665268	0.888527
C49	C	-0.899230	-1.103114	0.450988
C50	C	-0.399230	-0.603114	0.950988
C51	C	-0.813612	-1.102819	0.450793
C52	C	-0.313612	-0.602819	0.950793
C53	C	-0.782161	-1.165180	0.388506
C54	C	-0.282161	-0.665180	0.888506
C55	C	-0.813313	-1.142173	0.303528
C56	C	-0.313313	-0.642173	0.803528
C57	C	-0.898959	-1.141772	0.303901
C58	C	-0.398959	-0.641772	0.803901
C59	C	-0.898886	-1.250565	0.410295
C60	C	-0.398886	-0.750565	0.910295
C61	C	-0.813235	-1.250063	0.412159
C62	C	-0.313235	-0.750063	0.912159
C63	C	-0.698302	-1.165132	0.388489
C64	C	-0.198302	-0.665132	0.888489
C65	C	-1.014403	-1.165314	0.388538
C66	C	-0.514403	-0.665314	0.888538
C67	C	-0.163566	-1.165302	0.388531
C68	C	0.336434	-0.665302	0.888531
C69	C	-0.081252	-1.165357	0.388549
C70	C	0.418748	-0.665357	0.888549
C71	C	-0.356739	-1.375480	0.388513
C72	C	0.143261	-0.875480	0.888513
C73	C	-0.356744	-1.465101	0.388523
C74	C	0.143256	-0.965101	0.888523
C75	C	-0.356736	-0.537884	0.388511
C76	C	0.143264	-0.037884	0.888511
C77	C	-0.356732	-0.629192	0.388499
C78	C	0.143268	-0.129192	0.888499
C79	C	-0.356734	-0.701969	0.388494
C80	C	0.143266	-0.201969	0.888494
C81	C	-0.356729	-0.793283	0.388483
C82	C	0.143271	-0.293283	0.888483
C83	C	-0.356730	-1.165165	0.178999
C84	C	0.143270	-0.665165	0.678999
C85	C	-0.356545	-1.165299	0.089378
C86	C	0.143455	-0.665299	0.589378
C87	C	-0.356567	-1.165283	1.016596
C88	C	0.143433	-0.665283	1.516596
C89	C	-0.356592	-1.165271	0.925287
C90	C	0.143408	-0.665271	1.425287
C91	C	-0.356609	-1.165265	0.852511
C92	C	0.143391	-0.665265	1.352511
C93	C	-0.356633	-1.165252	0.761197
C94	C	0.143367	-0.665252	1.261197
H95	H	-0.792547	-1.117214	0.513803
H96	H	-0.292547	-0.617214	1.013803
H97	H	-0.919135	-1.296871	0.364802
H98	H	-0.419135	-0.796871	0.864802
Cl99	Cl	-0.781796	-1.276854	0.508715
Cl100	Cl	-0.281796	-0.776854	1.008715
Cl101	Cl	-0.930955	-1.125112	0.548589
Cl102	Cl	-0.430955	-0.625112	1.048589
Cl103	Cl	-0.780170	-1.325346	0.347045
Cl104	Cl	-0.280170	-0.825346	0.847045
H105	H	-0.793190	-1.039595	0.436373
H106	H	-0.293190	-0.539595	0.936373
Cl107	Cl	-0.932575	-1.006097	0.429024
Cl108	Cl	-0.432575	-0.506097	0.929024
Cl109	Cl	-0.929909	-1.045507	0.275433
Cl110	Cl	-0.429909	-0.545507	0.775433
Cl111	Cl	-0.930948	-1.208623	0.229594
Cl112	Cl	-0.430948	-0.708623	0.729594
Cl113	Cl	-0.780305	-1.046924	0.274546
Cl114	Cl	-0.280305	-0.546924	0.774546
Cl115	Cl	-0.781865	-1.209864	0.229713
Cl116	Cl	-0.281865	-0.709864	0.729713
H117	H	-0.920433	-1.271540	0.471205
H118	H	-0.420433	-0.771540	0.971205
