data_functionalizedCrystal
_audit_creation_method	'MofGen! by Chris Wilmer'
_symmetry_space_group_name_H-M	'P1'
_symmetry_Int_Tables_number	1
_symmetry_cell_setting	triclinic
loop_
_symmetry_equiv_pos_as_xyz
  x,y,z
_cell_length_a	21.295420
_cell_length_b	21.295417
_cell_length_c	13.897441
_cell_angle_alpha	90.036423
_cell_angle_beta	90.021942
_cell_angle_gamma	90.026289
loop_
_atom_site_label
_atom_site_type_symbol
_atom_site_fract_x
_atom_site_fract_y
_atom_site_fract_z
Zn1	Zn	0.962339	-0.250660	0.545373
Zn2	Zn	0.962246	-0.355939	0.384058
Zn3	Zn	0.857067	-0.250680	0.384088
Zn4	Zn	0.857031	-0.355888	0.545307
O5	O	0.909671	-0.303292	0.464707
O6	O	1.050416	-0.264639	0.523989
O7	O	0.948270	-0.342006	0.249080
O8	O	0.871085	-0.162588	0.405523
O9	O	1.050348	-0.341987	0.405472
O10	O	0.948428	-0.162573	0.524018
O11	O	0.870995	-0.264673	0.249102
O12	O	0.768973	-0.264623	0.405459
O13	O	0.871025	-0.341899	0.680298
O14	O	0.768947	-0.341918	0.523906
O15	O	0.948394	-0.264589	0.680346
O16	O	0.948236	-0.444022	0.405408
O17	O	0.870935	-0.443984	0.523877
C18	C	0.746119	-0.303267	0.464679
C19	C	0.676151	-0.303272	0.464691
C20	C	0.909588	-0.466843	0.464653
C21	C	0.909611	-0.536811	0.464663
C22	C	0.176728	-0.263111	0.526533
C23	C	0.242471	-0.263107	0.526533
C24	C	0.275312	-0.303311	0.464729
C25	C	0.242405	-0.343534	0.402938
C26	C	0.176664	-0.343542	0.402947
N27	N	0.378504	-0.308061	0.380268
N28	N	0.440956	-0.308049	0.380262
C29	C	0.473386	-0.303290	0.464701
N30	N	0.441007	-0.298530	0.549147
N31	N	0.378549	-0.298538	0.549151
C32	C	0.346597	-0.303307	0.464713
C33	C	0.577571	-0.263067	0.526493
C34	C	0.643315	-0.263067	0.526494
C35	C	0.643248	-0.343491	0.402890
C36	C	0.577505	-0.343495	0.402897
C37	C	0.544671	-0.303279	0.464697
C38	C	0.949897	-0.569677	0.403039
C39	C	0.949926	-0.635419	0.403061
C40	C	0.909658	-0.668294	0.464696
C41	C	0.869369	-0.635420	0.526332
C42	C	0.869345	-0.569679	0.526315
N43	N	0.854591	-0.771555	0.472040
N44	N	0.854616	-0.834007	0.472050
C45	C	0.909729	-0.866368	0.464751
N46	N	0.964818	-0.833920	0.457423
N47	N	0.964793	-0.771463	0.457407
C48	C	0.909680	-0.739579	0.464721
C49	C	0.950051	-0.970519	0.403148
C50	C	0.950081	-1.036263	0.403176
C51	C	0.869518	-1.036263	0.526442
C52	C	0.869493	-0.970521	0.526419
C53	C	0.909759	-0.937653	0.464766
C54	C	1.073861	-0.303316	0.464735
C55	C	1.143829	-0.303327	0.464747
C56	C	0.909716	-0.303236	0.716300
C57	C	0.909735	-0.303212	0.823514
C58	C	0.909771	-0.139101	0.464781
C59	C	0.909813	-0.069133	0.464813
C60	C	0.909663	-0.303302	0.214092
C61	C	0.909766	-0.303148	0.106879
C62	C	0.909752	-0.303170	1.019809
C63	C	0.909740	-0.303195	0.910577
H64	H	0.149998	-0.230368	0.576860
Br65	Br	0.687965	-0.208491	0.610367
Br66	Br	0.687811	-0.398062	0.319022
Br67	Br	0.532853	-0.398067	0.319025
H68	H	0.982685	-0.542918	0.352841
H69	H	0.269262	-0.230356	0.576847
Br70	Br	0.814668	-0.525073	0.609955
Br71	Br	0.286973	-0.398102	0.319067
Br72	Br	1.004767	-1.080868	0.319546
Br73	Br	0.814724	-0.680034	0.609988
H74	H	0.982839	-0.943757	0.352950
Br75	Br	0.132012	-0.398122	0.319083
H76	H	0.982735	-0.662183	0.352880
Br77	Br	0.814874	-1.080871	0.610102
H78	H	0.550836	-0.230322	0.576814
Br79	Br	0.814815	-0.925914	0.610053
