data_functionalizedCrystal
_audit_creation_method	'MofGen! by Chris Wilmer'
_symmetry_space_group_name_H-M	'P1'
_symmetry_Int_Tables_number	1
_symmetry_cell_setting	triclinic
loop_
_symmetry_equiv_pos_as_xyz
  x,y,z
_cell_length_a	14.395555
_cell_length_b	14.395555
_cell_length_c	17.052862
_cell_angle_alpha	70.265057
_cell_angle_beta	89.999061
_cell_angle_gamma	59.998346
loop_
_atom_site_label
_atom_site_type_symbol
_atom_site_fract_x
_atom_site_fract_y
_atom_site_fract_z
Zr1	Zr	0.911118	0.984261	-0.091262
O2	O	0.782620	1.138388	-0.202283
O3	O	0.950518	0.802621	-0.057228
O4	O	0.976426	0.944592	-0.202287
O5	O	0.736266	1.037303	0.057201
O6	O	1.129293	0.944598	-0.202290
O7	O	0.756712	0.996416	-0.057224
O8	O	1.082949	0.690638	0.057195
O9	O	0.782611	1.291263	-0.202283
O10	O	1.081395	0.887527	-0.042715
O11	O	0.952052	0.918035	0.042682
O12	O	0.982556	1.085188	-0.128107
O13	O	0.853214	1.115696	-0.042710
Zr14	Zr	1.122315	1.049479	0.091229
Zr15	Zr	1.154924	0.984270	-0.091266
Zr16	Zr	0.878509	1.049470	0.091234
Zr17	Zr	0.911103	1.228079	-0.091261
Zr18	Zr	1.122330	0.805661	0.091229
O19	O	1.082915	1.231119	0.057195
O20	O	1.129281	1.138401	-0.202289
O21	O	0.736254	1.231106	0.057202
O22	O	1.250813	0.895352	0.202251
O23	O	1.297179	0.802634	-0.057234
O24	O	0.904152	0.895339	0.202257
O25	O	1.297167	0.996437	-0.057234
O26	O	1.057007	1.089148	0.202254
O27	O	0.904140	1.089142	0.202257
O28	O	1.276721	1.037324	0.057192
O29	O	0.976404	1.291270	-0.202286
O30	O	1.057029	0.742470	0.202254
O31	O	1.250822	0.742477	0.202250
O32	O	1.276742	0.690645	0.057191
O33	O	0.756691	1.343095	-0.057224
O34	O	0.950484	1.343102	-0.057227
O35	O	1.050877	0.948552	0.128074
O36	O	1.180219	0.918044	0.042678
O37	O	1.081380	1.115705	-0.042714
O38	O	0.952038	1.146213	0.042682
C39	C	1.016735	0.711890	-0.000017
C40	C	1.016742	0.608383	-0.000017
C41	C	1.087240	0.469263	-0.046581
C42	C	0.986014	0.595325	-0.080332
C43	C	1.117955	0.483717	0.033695
C44	C	0.915409	0.550103	-0.033813
C45	C	1.047421	0.438437	0.080258
C46	C	0.946127	0.564497	0.046527
C47	C	0.711752	1.016858	-0.000011
C48	C	0.608250	1.016854	-0.000009
C49	C	0.601552	0.909080	0.046549
C50	C	0.502503	0.983332	0.080297
C51	C	0.522867	0.942616	-0.033732
C52	C	0.510555	1.091123	0.033785
C53	C	0.530941	1.050374	-0.080288
C54	C	0.431877	1.124709	-0.046560
C55	C	1.321681	1.016882	-0.000022
C56	C	1.425183	1.016886	-0.000023
C57	C	1.057506	0.935304	-0.228290
C58	C	1.071349	0.907621	-0.305764
C59	C	1.016697	1.321850	-0.000016
C60	C	1.016691	1.425357	-0.000016
C61	C	0.903983	1.242306	-0.702450
C62	C	0.890970	1.268319	-0.629660
C63	C	0.936063	1.178147	-0.548683
C64	C	0.994172	1.061957	-0.540501
C65	C	1.007180	1.035942	-0.613297
C66	C	1.039260	0.971783	-0.459531
C67	C	1.097369	0.855593	-0.451349
C68	C	1.110375	0.829582	-0.524139
C69	C	1.065281	0.919754	-0.605116
C70	C	1.026253	0.997798	-0.386735
C71	C	1.129450	0.791434	-0.297583
C72	C	1.142463	0.765421	-0.370372
C73	C	0.975927	1.098436	0.228257
C74	C	0.962084	1.126119	0.305731
C75	C	1.321700	0.711902	-0.000022
C76	C	1.425209	0.608399	-0.000024
C77	C	0.975946	0.793456	0.228257
C78	C	0.962109	0.717632	0.305731
C79	C	1.280911	0.793468	0.228252
C80	C	1.370576	0.717648	0.305724
C81	C	0.752522	1.240272	-0.228284
C82	C	0.662857	1.316092	-0.305756
C83	C	0.711733	1.321838	-0.000010
C84	C	0.608224	1.425341	-0.000008
C85	C	1.057487	1.240284	-0.228289
C86	C	1.071324	1.316108	-0.305763
C87	C	1.007195	0.697956	0.386695
C88	C	0.994188	0.626727	0.459497
C89	C	0.936102	0.575168	0.451333
C90	C	0.891010	0.594850	0.370360
C91	C	0.904010	0.666085	0.297560
C92	C	1.480209	0.666116	0.297529
C93	C	1.564470	0.594886	0.370315
C94	C	1.539095	0.575182	0.451295
C95	C	1.429450	0.626722	0.459488
C96	C	1.345192	0.697957	0.386702
C97	C	0.553224	1.367635	-0.297562
C98	C	0.468963	1.438896	-0.370348
C99	C	0.494338	1.458606	-0.451328
C100	C	0.603983	1.407059	-0.459520
C101	C	0.688241	1.335807	-0.386735
C102	C	1.129417	1.367646	-0.297572
C103	C	1.142439	1.438881	-0.370360
C104	C	1.097361	1.458583	-0.451338
C105	C	1.039265	1.407036	-0.459528
C106	C	1.026250	1.335796	-0.386741
C107	C	1.539687	0.564473	0.046509
C108	C	1.564529	0.438411	0.080231
C109	C	1.584801	0.550077	-0.033797
C110	C	1.448679	0.483653	0.033745
C111	C	1.468962	0.595377	-0.080328
C112	C	1.493735	0.469317	-0.046626
H113	H	1.073426	0.371054	0.148131
H114	H	1.607714	0.517174	0.510555
C115	C	0.631878	1.428739	-0.548606
N116	N	0.652885	1.445062	-0.615708
H117	H	0.527055	0.879823	-0.062248
C118	C	1.079581	0.891146	-0.685193
N119	N	1.090346	0.869602	-0.745509
C120	C	1.224595	0.754633	0.395731
N121	N	1.133761	0.797321	0.402537
H122	H	0.379693	1.480855	-0.363661
H123	H	1.002566	1.423089	-0.525470
H124	H	1.390235	0.456452	0.062348
H125	H	0.425719	1.516626	-0.510587
H126	H	0.532542	1.351592	-0.231630
H127	H	0.978941	1.293840	-0.393422
C128	C	1.401555	0.605025	0.548574
N129	N	1.380548	0.588673	0.615676
H130	H	1.203572	0.456692	0.062207
C131	C	0.808838	1.279099	-0.395763
N132	N	0.899672	1.236387	-0.402570
H133	H	1.605944	0.371023	0.148105
H134	H	0.925524	0.517167	0.510618
H135	H	1.475118	0.428226	-0.086007
C136	C	1.179021	1.345983	-0.208502
N137	N	1.216394	1.329665	-0.141416
C138	C	0.854421	0.687703	0.208501
N139	N	0.817068	0.703980	0.141422
H140	H	1.157681	0.734972	-0.517472
H141	H	1.427548	0.662793	-0.148187
C142	C	1.179075	0.692238	-0.208509
N143	N	1.216455	0.617530	-0.141416
C144	C	0.548642	1.088579	-0.171977
N145	N	0.561983	1.117343	-0.241039
H146	H	0.359278	1.215928	-0.085930
C147	C	1.043811	0.605079	0.548558
N148	N	1.081191	0.588773	0.615638
C149	C	1.685071	0.538191	0.361284
N150	N	1.775905	0.495487	0.354480
C151	C	1.508148	0.687782	0.208458
N152	N	1.529201	0.704103	0.141371
C153	C	1.206372	0.637615	-0.361384
N154	N	1.254506	0.541352	-0.354615
H155	H	1.189743	1.480847	-0.363675
H156	H	1.107966	1.516594	-0.510599
C157	C	0.484862	0.945066	0.172005
N158	N	0.471581	0.916236	0.241080
C159	C	0.504765	1.175901	0.072421
N160	N	0.500409	1.239751	0.101524
H161	H	0.886416	0.605623	0.085895
H162	H	1.558078	0.605638	0.085946
C163	C	1.663930	0.586612	-0.072338
N164	N	1.723530	0.614132	-0.101360
H165	H	0.978938	1.092402	-0.393406
H166	H	0.925464	1.199334	-0.489418
H167	H	0.960037	0.662680	-0.148219
C168	C	0.854383	1.341481	-0.791523
N169	N	0.817021	1.416186	-0.858618
H170	H	1.146799	0.428065	-0.086005
H171	H	0.674270	0.817967	0.085974
H172	H	0.829765	0.577289	-0.062406
H173	H	0.843715	0.552861	0.363725
H174	H	1.054494	0.739931	0.393359
H175	H	0.843658	1.362922	-0.636328
