data_functionalizedCrystal
_audit_creation_method	'MofGen! by Chris Wilmer'
_symmetry_space_group_name_H-M	'P1'
_symmetry_Int_Tables_number	1
_symmetry_cell_setting	triclinic
loop_
_symmetry_equiv_pos_as_xyz
  x,y,z
_cell_length_a	14.446369
_cell_length_b	14.628931
_cell_length_c	14.628931
_cell_angle_alpha	59.999972
_cell_angle_beta	90.000654
_cell_angle_gamma	59.998591
loop_
_atom_site_label
_atom_site_type_symbol
_atom_site_fract_x
_atom_site_fract_y
_atom_site_fract_z
Zr1	Zr	0.891772	1.000530	-0.119930
O2	O	0.743963	1.191244	-0.265896
O3	O	0.937083	0.809822	-0.075183
O4	O	0.937083	1.000528	-0.265889
O5	O	0.743963	1.000538	0.075242
O6	O	1.089420	1.000519	-0.265883
O7	O	0.743963	1.000538	-0.075190
O8	O	1.089420	0.659382	0.075255
O9	O	0.743963	1.341676	-0.265896
O10	O	1.070096	0.888255	-0.056095
O11	O	0.956408	0.888261	0.056166
O12	O	0.956408	1.112792	-0.168365
O13	O	0.842721	1.112798	-0.056104
Zr14	Zr	1.134733	1.000517	0.120001
Zr15	Zr	1.134732	1.000517	-0.119921
Zr16	Zr	0.891772	1.000530	0.119992
Zr17	Zr	0.891772	1.240452	-0.119930
Zr18	Zr	1.134732	0.760595	0.120001
O19	O	1.089421	1.191225	0.075254
O20	O	1.089421	1.191225	-0.265884
O21	O	0.743963	1.191244	0.075241
O22	O	1.282542	0.809803	0.265967
O23	O	1.282541	0.809803	-0.075171
O24	O	0.937084	0.809822	0.265954
O25	O	1.282542	1.000509	-0.075171
O26	O	1.089421	1.000519	0.265960
O27	O	0.937084	1.000528	0.265954
O28	O	1.282542	1.000509	0.075261
O29	O	0.937084	1.341665	-0.265889
O30	O	1.089421	0.659382	0.265960
O31	O	1.282542	0.659371	0.265967
O32	O	1.282541	0.659371	0.075262
O33	O	0.743963	1.341676	-0.075191
O34	O	0.937084	1.341665	-0.075184
O35	O	1.070096	0.888255	0.168436
O36	O	1.183783	0.888249	0.056175
O37	O	1.070096	1.112786	-0.056096
O38	O	0.956409	1.112792	0.056166
C39	C	1.013252	0.700418	0.000036
C40	C	1.013252	0.598565	0.000036
C41	C	1.069648	0.553153	-0.055653
C42	C	1.069649	0.447883	-0.055654
C43	C	0.709346	1.000540	0.000024
C44	C	0.606203	1.000546	0.000021
C45	C	0.387834	1.142146	-0.070431
C46	C	0.495066	1.142242	-0.070827
C47	C	0.602879	0.930204	-0.051626
C48	C	0.495111	0.931103	-0.052143
C49	C	0.496475	0.928187	0.122209
C50	C	0.602444	0.930856	0.122017
C51	C	1.317158	1.000507	0.000046
C52	C	1.420301	1.000502	0.000050
C53	C	1.013252	1.000524	-0.300070
C54	C	1.013251	1.000524	-0.401923
C55	C	1.013253	1.300629	0.000035
C56	C	1.013253	1.402482	0.000035
C57	C	1.093008	1.000519	-0.447329
C58	C	1.093010	1.000519	-0.552600
C59	C	1.013253	1.000524	0.300141
C60	C	1.013253	1.000524	0.401994
C61	C	1.317158	0.700402	0.000047
C62	C	1.420301	0.598543	0.000051
C63	C	1.013252	0.700418	0.300141
C64	C	1.013253	0.598565	0.401994
C65	C	1.317159	0.700402	0.300152
C66	C	1.420302	0.598543	0.402009
C67	C	0.709346	1.300645	-0.300081
C68	C	0.606203	1.402504	-0.401938
C69	C	0.709347	1.300645	0.000024
C70	C	0.606204	1.402504	0.000020
C71	C	1.013252	1.300629	-0.300070
C72	C	1.013252	1.402482	-0.401923
C73	C	1.409888	0.553135	-0.055641
C74	C	1.516490	0.447859	-0.055638
C75	C	1.069649	0.553153	0.503097
C76	C	1.069651	0.447883	0.608369
C77	C	1.522682	0.553129	0.391731
C78	C	1.629287	0.447852	0.497004
H79	H	1.117928	0.408835	-0.103337
H80	H	0.944963	1.000534	-0.558968
H81	H	1.161295	1.000509	-0.408267
H82	H	0.964965	0.559515	0.393372
O83	O	1.183468	1.000511	-0.604310
H84	H	1.169279	1.000503	-0.678873
O85	O	1.133620	0.396147	0.723253
H86	H	1.174941	0.445414	0.714771
O87	O	0.922783	1.000549	-0.453653
H88	H	0.963180	0.912921	-0.453453
O89	O	1.293548	0.604873	-0.118815
H90	H	1.228076	0.679440	-0.108902
O91	O	1.536645	0.546824	0.063196
H92	H	1.528057	0.596113	0.103979
O93	O	1.133613	0.604876	0.514525
H94	H	1.099332	0.648539	0.560951
O95	O	1.504897	0.396152	-0.118810
H96	H	1.590445	0.321589	-0.108904
H97	H	1.627612	0.441485	0.047747
O98	O	0.949302	0.454113	0.483231
H99	H	0.883713	0.559687	0.436808
H100	H	1.717116	0.408793	0.488377
H101	H	0.492620	1.197769	-0.160940
O102	O	1.502536	0.454160	0.609540
H103	H	1.511128	0.404871	0.699613
O104	O	1.534261	0.604863	0.276845
H105	H	1.581291	0.524578	0.267043
O106	O	1.408730	0.546806	0.516898
H107	H	1.361715	0.627087	0.526707
O108	O	1.133600	0.604882	-0.118822
H109	H	1.123552	0.679459	-0.108919
H110	H	0.964962	0.441535	0.047710
H111	H	0.964972	0.559507	0.047715
H112	H	0.446451	0.973508	0.165354
H113	H	0.493307	1.197712	-0.036454
O114	O	0.316342	1.215808	-0.024800
H115	H	0.303176	1.152258	0.048598
O116	O	0.315040	1.215405	-0.189087
H117	H	0.236472	1.218996	-0.188460
O118	O	0.428404	0.997333	-0.171213
H119	H	0.473268	1.028424	-0.227884
O120	O	0.530399	0.793454	0.011445
H121	H	0.624292	0.726542	0.042420
H122	H	0.681602	0.827479	0.178949
H123	H	0.681148	0.826019	-0.002763
H124	H	0.605014	0.979062	-0.140666
O125	O	0.601795	0.998755	0.173151
H126	H	0.604143	1.081791	0.111945
H127	H	0.523913	0.823844	0.174972
