data_functionalizedCrystal
_audit_creation_method	'MofGen! by Chris Wilmer'
_symmetry_space_group_name_H-M	'P1'
_symmetry_Int_Tables_number	1
_symmetry_cell_setting	triclinic
loop_
_symmetry_equiv_pos_as_xyz
  x,y,z
_cell_length_a	18.215407
_cell_length_b	12.827892
_cell_length_c	18.215399
_cell_angle_alpha	90.023838
_cell_angle_beta	90.017368
_cell_angle_gamma	90.012835
loop_
_atom_site_label
_atom_site_type_symbol
_atom_site_fract_x
_atom_site_fract_y
_atom_site_fract_z
Zn1	Zn	1.125120	-0.416115	0.416088
Zn2	Zn	1.625120	0.083885	0.916088
Zn3	Zn	1.125049	-0.590874	0.293031
Zn4	Zn	1.625049	-0.090874	0.793031
Zn5	Zn	1.002053	-0.416140	0.293041
Zn6	Zn	1.502053	0.083860	0.793041
Zn7	Zn	1.002039	-0.590807	0.416061
Zn8	Zn	1.502039	-0.090807	0.916061
O9	O	1.063566	-0.503484	0.354555
O10	O	1.563566	-0.003484	0.854555
O11	O	1.228095	-0.439315	0.399772
O12	O	1.728095	0.060685	0.899772
O13	O	1.108710	-0.567734	0.190048
O14	O	1.608710	-0.067734	0.690048
O15	O	1.018414	-0.269901	0.309379
O16	O	1.518414	0.230099	0.809379
O17	O	1.228043	-0.567710	0.309362
O18	O	1.728043	-0.067710	0.809362
O19	O	1.108831	-0.269882	0.399782
O20	O	1.608831	0.230118	0.899782
O21	O	1.018345	-0.439358	0.190056
O22	O	1.518345	0.060642	0.690056
O23	O	0.899067	-0.439292	0.309353
O24	O	1.399067	0.060708	0.809353
O25	O	1.018390	-0.567595	0.519049
O26	O	1.518390	-0.067595	1.019049
O27	O	0.899057	-0.567619	0.399735
O28	O	1.399057	-0.067619	0.899735
O29	O	1.108818	-0.439250	0.519069
O30	O	1.608818	0.060750	1.019069
O31	O	1.108696	-0.737101	0.309336
O32	O	1.608696	-0.237101	0.809336
O33	O	1.018321	-0.737052	0.399725
O34	O	1.518321	-0.237052	0.899725
C35	C	0.872359	-0.503452	0.354543
C36	C	1.372359	-0.003452	0.854543
C37	C	0.790560	-0.503463	0.354555
C38	C	1.290560	-0.003463	0.854555
C39	C	0.602393	-0.436746	0.401705
C40	C	1.102393	0.063254	0.901705
C41	C	0.525534	-0.436755	0.401708
C42	C	1.025534	0.063245	0.901708
C43	C	0.525490	-0.570252	0.307419
C44	C	1.025490	-0.070252	0.807419
C45	C	0.602348	-0.570237	0.307413
C46	C	1.102348	-0.070237	0.807413
C47	C	0.640797	-0.503485	0.354560
C48	C	1.140797	-0.003485	0.854560
C49	C	0.487081	-0.503509	0.354569
C50	C	0.987081	-0.003509	0.854569
C51	C	0.403747	-0.503519	0.354571
C52	C	0.903747	-0.003519	0.854571
C53	C	0.724136	-0.503473	0.354557
C54	C	1.224136	-0.003473	0.854557
C55	C	1.063519	-0.774994	0.354542
C56	C	1.563519	-0.274994	0.854542
C57	C	1.063567	-0.891147	0.354562
C58	C	1.563567	-0.391147	0.854562
C59	C	1.108341	-0.942922	0.309883
C60	C	1.608341	-0.442922	0.809883
C61	C	1.108391	-1.062972	0.309902
C62	C	1.608391	-0.562972	0.809902
C63	C	1.255518	-0.503517	0.354569
C64	C	1.755518	-0.003517	0.854569
C65	C	1.337317	-0.503531	0.354575
C66	C	1.837317	-0.003531	0.854575
C67	C	1.063610	-0.503412	0.546508
C68	C	1.563610	-0.003412	1.046508
C69	C	1.063629	-0.503381	0.628307
C70	C	1.563629	-0.003381	1.128307
C71	C	1.063632	-0.230914	0.354585
C72	C	1.563632	0.269086	0.854585
C73	C	1.063660	-0.114761	0.354597
C74	C	1.563660	0.385239	0.854597
C75	C	1.063563	-0.503480	0.163349
C76	C	1.563563	-0.003480	0.663349
C77	C	1.063687	-0.503217	0.081551
C78	C	1.563687	-0.003217	0.581551
C79	C	1.110732	-0.436489	0.816513
C80	C	1.610732	0.063511	1.316513
C81	C	1.110741	-0.436459	0.893372
C82	C	1.610741	0.063541	1.393372
C83	C	1.016579	-0.570112	0.893340
C84	C	1.516579	-0.070112	1.393340
C85	C	1.016567	-0.570136	0.816482
C86	C	1.516567	-0.070136	1.316482
C87	C	1.063648	-0.503327	0.778071
C88	C	1.563648	-0.003327	1.278071
C89	C	1.063668	-0.503272	0.931787
C90	C	1.563668	-0.003272	1.431787
C91	C	1.063678	-0.503239	1.015121
C92	C	1.563678	-0.003239	1.515121
C93	C	1.063638	-0.503357	0.694732
C94	C	1.563638	-0.003357	1.194732
H95	H	1.146639	-0.898374	0.271621
H96	H	1.646639	-0.398374	0.771621
O97	O	0.639545	-0.635171	0.261591
O98	O	1.139545	-0.135171	0.761591
C99	C	0.589130	-0.694079	0.219970
C100	C	1.089130	-0.194079	0.719970
H101	H	0.534353	-0.697767	0.250111
H102	H	1.034353	-0.197767	0.750111
H103	H	0.611332	-0.776394	0.212021
H104	H	1.111332	-0.276394	0.712021
H105	H	0.580937	-0.655712	0.164123
H106	H	1.080937	-0.155712	0.664123
H107	H	1.146721	-1.107497	0.271650
H108	H	1.646721	-0.607497	0.771650
H109	H	1.149066	-0.382086	0.785241
H110	H	1.649066	0.117914	1.285241
O111	O	1.156444	-0.371389	0.930631
O112	O	1.656444	0.128611	1.430631
C113	C	1.140370	-0.267240	0.911870
C114	C	1.640370	0.232760	1.411870
H115	H	1.112070	-0.265095	0.856062
H116	H	1.612070	0.234905	1.356062
H117	H	1.193493	-0.220391	0.909250
H118	H	1.693493	0.279609	1.409250
H119	H	1.102549	-0.232018	0.955123
H120	H	1.602549	0.267982	1.455123
H121	H	0.978249	-0.624508	0.924624
H122	H	1.478249	-0.124508	1.424624
O123	O	1.017821	-1.061707	0.400158
O124	O	1.517821	-0.561707	0.900158
C125	C	0.944477	-1.088422	0.384047
C126	C	1.444477	-0.588422	0.884047
H127	H	0.940786	-1.118550	0.325275
H128	H	1.440786	-0.618550	0.825275
H129	H	0.908131	-1.016632	0.390300
H130	H	1.408131	-0.516632	0.890300
H131	H	0.925206	-1.151683	0.423536
H132	H	1.425206	-0.651683	0.923536
O133	O	0.488026	-0.635063	0.261696
O134	O	0.988026	-0.135063	0.761696
C135	C	0.411954	-0.620751	0.271797
C136	C	0.911954	-0.120751	0.771797
H137	H	0.401480	-0.586628	0.328632
H138	H	0.901480	-0.086628	0.828632
H139	H	0.382738	-0.699024	0.266717
H140	H	0.882738	-0.199024	0.766717
H141	H	0.390129	-0.565029	0.228212
H142	H	0.890129	-0.065029	0.728212
H143	H	0.978220	-0.624562	0.785182
H144	H	1.478220	-0.124562	1.285182
O145	O	0.639629	-0.371804	0.447523
O146	O	1.139629	0.128196	0.947523
C147	C	0.589247	-0.312919	0.489147
C148	C	1.089247	0.187081	0.989147
H149	H	0.534451	-0.309258	0.459010
H150	H	1.034451	0.190742	0.959010
H151	H	0.611462	-0.230593	0.497094
H152	H	1.111462	0.269407	0.997094
H153	H	0.581090	-0.351288	0.544995
H154	H	1.081090	0.148712	1.044995
O155	O	0.488148	-0.372073	0.447543
O156	O	0.988148	0.127927	0.947543
C157	C	0.443717	-0.431664	0.495019
C158	C	0.943717	0.068336	0.995019
H159	H	0.432185	-0.510812	0.468968
H160	H	0.932185	-0.010812	0.968968
H161	H	0.389679	-0.389123	0.504938
H162	H	0.889679	0.110877	1.004938
H163	H	0.473357	-0.443244	0.549540
H164	H	0.973357	0.056756	1.049540
O165	O	1.017982	-0.944400	0.400250
O166	O	1.517982	-0.444400	0.900250
C167	C	1.059922	-1.007422	0.447802
C168	C	1.559922	-0.507422	0.947802
H169	H	1.115726	-1.023624	0.421888
H170	H	1.615726	-0.523624	0.921888
H171	H	1.030022	-1.084245	0.457602
H172	H	1.530022	-0.584245	0.957602
H173	H	1.067931	-0.965361	0.502367
H174	H	1.567931	-0.465361	1.002367
