data_functionalizedCrystal
_audit_creation_method	'MofGen! by Chris Wilmer'
_symmetry_space_group_name_H-M	'P1'
_symmetry_Int_Tables_number	1
_symmetry_cell_setting	triclinic
loop_
_symmetry_equiv_pos_as_xyz
  x,y,z
_cell_length_a	12.759400
_cell_length_b	12.759401
_cell_length_c	12.759393
_cell_angle_alpha	90.018983
_cell_angle_beta	89.969461
_cell_angle_gamma	89.990368
loop_
_atom_site_label
_atom_site_type_symbol
_atom_site_fract_x
_atom_site_fract_y
_atom_site_fract_z
Zn1	Zn	-0.418325	-1.606249	-0.594035
Zn2	Zn	-0.594045	-1.606149	-0.418359
Zn3	Zn	-0.418367	-1.430554	-0.418370
Zn4	Zn	-0.593949	-1.430541	-0.593996
O5	O	-0.506172	-1.518373	-0.506190
O6	O	-0.441658	-1.753256	-0.570744
O7	O	-0.570798	-1.582819	-0.271339
O8	O	-0.271341	-1.453908	-0.441693
O9	O	-0.570758	-1.753183	-0.441675
O10	O	-0.271310	-1.582990	-0.570754
O11	O	-0.441729	-1.453810	-0.271347
O12	O	-0.441636	-1.283531	-0.441655
O13	O	-0.570595	-1.453886	-0.741022
O14	O	-0.570636	-1.283522	-0.570686
O15	O	-0.441565	-1.582977	-0.741051
O16	O	-0.741053	-1.582807	-0.441637
O17	O	-0.740983	-1.453789	-0.570676
C18	C	-0.506131	-1.245406	-0.506168
C19	C	-0.506138	-1.128629	-0.506184
C20	C	-0.439052	-0.964069	-0.573497
C21	C	-0.439038	-1.073793	-0.573492
C22	C	-0.573265	-1.073736	-0.438882
C23	C	-0.573283	-0.964013	-0.438893
C24	C	-0.401620	-1.223796	-0.697447
C25	C	-0.334484	-1.278686	-0.764736
C26	C	-0.231995	-1.243082	-0.781045
C27	C	-0.196620	-1.152590	-0.730050
C28	C	-0.263750	-1.097706	-0.662753
C29	C	-0.366254	-1.133308	-0.646464
C30	C	-0.610690	-0.814008	-0.314936
C31	C	-0.677816	-0.759122	-0.247634
C32	C	-0.780307	-0.794724	-0.231314
C33	C	-0.815678	-0.885219	-0.282291
C34	C	-0.748552	-0.940105	-0.349594
C35	C	-0.646062	-0.904496	-0.365915
C36	C	-0.779139	-1.518314	-0.506174
C37	C	-0.895916	-1.518385	-0.506202
C38	C	-1.060409	-1.585620	-0.573484
C39	C	-0.950685	-1.585566	-0.573460
C40	C	-0.950876	-1.451260	-0.438956
C41	C	-1.060599	-1.451320	-0.438976
C42	C	-0.800619	-1.709369	-0.611081
C43	C	-0.745662	-1.776481	-0.678336
C44	C	-0.781189	-1.792575	-0.780871
C45	C	-0.871670	-1.741540	-0.816172
C46	C	-0.926621	-1.674420	-0.748922
C47	C	-0.891097	-1.658347	-0.646373
C48	C	-1.210666	-1.327516	-0.401366
C49	C	-1.265619	-1.260390	-0.334121
C50	C	-1.230095	-1.244286	-0.231584
C51	C	-1.139610	-1.295302	-0.196287
C52	C	-1.084657	-1.362428	-0.263532
C53	C	-1.120189	-1.378534	-0.366067
C54	C	-0.232138	-1.518461	-0.506229
C55	C	-0.115362	-1.518499	-0.506246
C56	C	-0.506065	-1.518441	-0.780223
C57	C	-0.506019	-1.518470	-0.897000
C58	C	-0.506198	-0.792406	-0.506207
C59	C	-0.506171	-0.909183	-0.506199
C60	C	-0.438800	-1.451324	-0.951872
C61	C	-0.438769	-1.451356	-1.061596
C62	C	-0.573179	-1.585689	-1.061567
C63	C	-0.573214	-1.585651	-0.951844
C64	C	-0.361196	-1.373771	-0.951890
C65	C	-0.361165	-1.373803	-1.061614
C66	C	-0.506203	-1.518366	-0.233223
C67	C	-0.505952	-1.518540	-0.116446
H68	H	-0.384404	-0.919429	-0.628301
C69	C	-0.647134	-1.659544	-0.891489
N70	N	-0.702801	-1.715215	-0.846029
H71	H	-0.382979	-1.292382	-0.922111
C72	C	-0.256798	-1.413159	-0.905930
N73	N	-0.178163	-1.442826	-0.871312
C74	C	-1.026147	-1.618285	-0.787747
N75	N	-1.101114	-1.576010	-0.816991
C76	C	-0.910742	-1.759246	-0.928971
N77	N	-0.940177	-1.772589	-1.013931
C78	C	-0.400494	-1.269377	-1.107585
N79	N	-0.430115	-1.190725	-1.142212
H80	H	-0.627886	-1.640386	-1.106234
H81	H	-0.235004	-1.023934	-0.621366
H82	H	-1.339286	-1.218834	-0.362875
C83	C	-0.158147	-1.303467	-0.855062
N84	N	-0.102530	-1.348953	-0.910814
H85	H	-0.485078	-1.252788	-0.684184
C86	C	-0.251236	-1.403309	-1.101873
N87	N	-0.168441	-1.425536	-1.132194
C88	C	-0.928424	-0.924384	-0.264341
N89	N	-1.013347	-0.953881	-0.250817
C90	C	-0.083870	-1.113436	-0.747988
N91	N	0.001055	-1.083941	-0.761504
C92	C	-0.373402	-1.378221	-0.820834
N93	N	-0.402711	-1.453191	-0.863086
H94	H	-0.777359	-1.013793	-0.391101
C95	C	-0.854143	-0.734345	-0.157273
N96	N	-0.909757	-0.688870	-0.101510
C97	C	-0.647072	-1.134059	-0.364838
N98	N	-0.702661	-1.179494	-0.309061
H99	H	-0.649156	-0.685177	-0.206487
H100	H	-0.527234	-0.785010	-0.328222
C101	C	-1.120644	-1.659528	-0.647473
N102	N	-1.166011	-1.715202	-0.703200
C103	C	-0.720735	-1.866404	-0.854847
N104	N	-0.675200	-1.922018	-0.910560
H105	H	-1.239603	-1.340629	-0.484858
H106	H	-0.671991	-1.818033	-0.649585
C107	C	-0.761535	-1.691678	-0.498284
N108	N	-0.732090	-1.678350	-0.413325
H109	H	-0.906277	-1.396563	-0.384188
C110	C	-0.985124	-1.418554	-0.224698
N111	N	-0.910159	-1.460829	-0.195448
C112	C	-1.100530	-1.277589	-0.083490
N113	N	-1.071098	-1.264244	0.001470
H114	H	-1.274839	-1.189611	-0.176840
