data_functionalizedCrystal
_audit_creation_method	'MofGen! by Chris Wilmer'
_symmetry_space_group_name_H-M	'P1'
_symmetry_Int_Tables_number	1
_symmetry_cell_setting	triclinic
loop_
_symmetry_equiv_pos_as_xyz
  x,y,z
_cell_length_a	17.699083
_cell_length_b	10.540539
_cell_length_c	16.176319
_cell_angle_alpha	89.995366
_cell_angle_beta	89.998611
_cell_angle_gamma	83.904253
loop_
_atom_site_label
_atom_site_type_symbol
_atom_site_fract_x
_atom_site_fract_y
_atom_site_fract_z
O1	O	1.005122	0.160521	-0.068627
O2	O	1.505122	0.660521	0.431373
O3	O	0.784880	0.181405	-0.068653
O4	O	1.284880	0.681405	0.431347
O5	O	0.900026	-0.013836	-0.068638
O6	O	1.400026	0.486164	0.431362
O7	O	0.889976	0.355761	-0.068642
O8	O	1.389976	0.855761	0.431358
O9	O	0.900010	-0.013848	0.068855
O10	O	1.400010	0.486152	0.568855
O11	O	0.784864	0.181392	0.068840
O12	O	1.284864	0.681392	0.568840
O13	O	1.005106	0.160508	0.068866
O14	O	1.505106	0.660508	0.568866
Cu15	Cu	0.894984	0.170949	0.081407
Cu16	Cu	1.394984	0.670949	0.581407
Cu17	Cu	0.895003	0.170964	-0.081194
Cu18	Cu	1.395003	0.670964	0.418806
O19	O	0.889960	0.355749	0.068852
O20	O	1.389960	0.855749	0.568852
C21	C	0.756670	0.180650	0.000090
C22	C	1.256670	0.680650	0.500090
C23	C	0.672637	0.178405	0.000080
C24	C	1.172637	0.678405	0.500080
C25	C	0.624761	0.293007	0.000079
C26	C	1.124761	0.793007	0.500079
C27	C	0.545804	0.290890	0.000090
C28	C	1.045804	0.790890	0.500090
C29	C	0.514725	0.174170	0.000095
C30	C	1.014725	0.674170	0.500095
C31	C	0.562607	0.059559	0.000098
C32	C	1.062607	0.559559	0.500098
C33	C	0.641562	0.061677	0.000094
C34	C	1.141562	0.561677	0.500094
C35	C	0.244188	0.051014	0.000119
C36	C	0.744188	0.551014	0.500119
C37	C	0.165226	0.048904	0.000121
C38	C	0.665226	0.548904	0.500121
C39	C	0.148430	0.280227	0.000115
C40	C	0.648430	0.780227	0.500115
C41	C	0.227386	0.282345	0.000110
C42	C	0.727386	0.782345	0.500110
C43	C	0.275261	0.167735	0.000118
C44	C	0.775261	0.667735	0.500118
C45	C	0.360875	0.170032	0.000108
C46	C	0.860875	0.670032	0.500108
C47	C	0.429112	0.171872	0.000099
C48	C	0.929112	0.671872	0.500099
C49	C	0.899264	-0.061131	0.000107
C50	C	1.399264	0.438869	0.500107
C51	C	0.897009	-0.202038	0.000102
C52	C	1.397009	0.297962	0.500102
C53	C	0.810610	-0.383885	-0.000217
C54	C	1.310610	0.116115	0.499783
C55	C	0.812896	-0.237308	0.000093
C56	C	1.312896	0.262692	0.500093
C57	C	0.937479	-0.264443	0.078622
C58	C	1.437479	0.235557	0.578622
C59	C	0.934609	-0.410935	0.078688
C60	C	1.434609	0.089065	0.578688
C61	C	0.936338	-0.411471	-0.077667
C62	C	1.436338	0.088529	0.422333
C63	C	0.937113	-0.264503	-0.078705
C64	C	1.437113	0.235497	0.421295
C65	C	1.033316	0.161263	0.000122
C66	C	1.533316	0.661263	0.500122
C67	C	1.117349	0.163508	0.000126
C68	C	1.617349	0.663508	0.500126
C69	C	0.890722	0.403044	0.000105
C70	C	1.390722	0.903044	0.500105
C71	C	0.892977	0.543951	0.000104
C72	C	1.392977	1.043951	0.500104
N73	N	0.894976	0.170938	0.195773
N74	N	1.394976	0.670938	0.695773
N75	N	0.895016	0.170965	-0.195559
N76	N	1.395016	0.670965	0.304441
C77	C	0.945978	0.084521	0.239043
C78	C	1.445978	0.584521	0.739043
C79	C	0.945982	0.084519	0.325591
C80	C	1.445982	0.584519	0.825591
C81	C	0.894987	0.170942	0.368865
C82	C	1.394987	0.670942	0.868865
C83	C	0.843979	0.257364	0.325588
C84	C	1.343979	0.757364	0.825588
C85	C	0.843972	0.257358	0.239043
C86	C	1.343972	0.757358	0.739043
C87	C	0.844005	0.257387	0.674617
C88	C	1.344005	0.757387	1.174617
C89	C	0.844017	0.257389	0.761168
C90	C	1.344017	0.757389	1.261168
C91	C	0.946015	0.084549	0.761164
C92	C	1.446015	0.584549	1.261164
C93	C	0.946008	0.084543	0.674619
C94	C	1.446008	0.584543	1.174619
C95	C	0.894998	0.170959	0.631349
C96	C	1.394998	0.670959	1.131349
C97	C	0.894993	0.170958	0.537505
C98	C	1.394993	0.670958	1.037505
C99	C	0.894994	0.170951	0.462708
C100	C	1.394994	0.670951	0.962708
H101	H	0.781052	-0.194117	-0.056194
H102	H	1.281052	0.305883	0.443806
H103	H	0.909121	-0.442520	-0.137180
H104	H	1.409121	0.057480	0.362820
H105	H	0.777512	-0.413492	0.055768
H106	H	1.277512	0.086508	0.555768
O107	O	1.001005	-0.008664	0.372265
O108	O	1.501005	0.491336	0.872265
H109	H	1.036475	-0.068741	0.327633
H110	H	1.536475	0.431259	0.827633
H111	H	0.506826	0.384211	0.000088
H112	H	1.006826	0.884211	0.500088
O113	O	0.770419	-0.181212	0.074773
O114	O	1.270419	0.318788	0.574773
H115	H	0.748169	-0.258794	0.110812
H116	H	1.248169	0.241206	0.610812
H117	H	0.987548	0.014180	0.796403
H118	H	1.487548	0.514180	1.296403
O119	O	0.295817	-0.072598	0.000129
O120	O	0.795817	0.427402	0.500129
H121	H	0.284695	-0.128461	-0.055912
H122	H	0.784695	0.371539	0.444088
H123	H	0.802488	0.327767	0.796401
H124	H	1.302488	0.827767	1.296401
O125	O	1.000975	-0.008719	0.192382
O126	O	1.500975	0.491281	0.692382
H127	H	0.968772	-0.070338	0.152966
H128	H	1.468772	0.429662	0.652966
O129	O	0.766590	-0.420972	-0.074790
O130	O	1.266590	0.079028	0.425210
H131	H	0.802942	-0.491241	-0.112423
H132	H	1.302942	0.008759	0.387577
O133	O	0.529087	-0.066334	0.000113
O134	O	1.029087	0.433666	0.500113
H135	H	0.548273	-0.121396	-0.055922
H136	H	1.048273	0.378604	0.444078
H137	H	0.650060	0.388054	0.000074
H138	H	1.150060	0.888054	0.500074
H139	H	0.252686	0.377390	0.000102
H140	H	0.752686	0.877390	0.500102
O141	O	0.788966	0.350570	0.192365
O142	O	1.288966	0.850570	0.692365
H143	H	0.753512	0.410676	0.236995
H144	H	1.253512	0.910676	0.736995
H145	H	0.907501	-0.223097	-0.136792
H146	H	1.407501	0.276903	0.363208
O147	O	0.894970	-0.447590	0.156421
O148	O	1.394970	0.052410	0.656421
H149	H	0.836403	-0.398135	0.157786
H150	H	1.336403	0.101865	0.657786
H151	H	0.998438	-0.241403	-0.083439
H152	H	1.498438	0.258597	0.416561
H153	H	0.987536	0.014174	0.639387
H154	H	1.487536	0.514174	1.139387
H155	H	0.109440	0.373548	0.000113
H156	H	0.609440	0.873548	0.500113
H157	H	0.139925	-0.046149	0.000127
H158	H	0.639925	0.453851	0.500127
O159	O	0.693206	-0.061927	0.000092
O160	O	1.193206	0.438073	0.500092
H161	H	0.658331	-0.143448	0.000089
H162	H	1.158331	0.356552	0.500089
H163	H	0.802453	0.327727	0.360828
H164	H	1.302453	0.827727	0.860828
O165	O	1.014732	-0.475957	0.083436
O166	O	1.514732	0.024043	0.583436
H167	H	1.055356	-0.402726	0.085682
H168	H	1.555356	0.097274	0.585682
O169	O	1.016816	-0.475489	-0.078371
O170	O	1.516816	0.024511	0.421629
H171	H	1.015860	-0.580546	-0.080736
H172	H	1.515860	-0.080546	0.419264
O173	O	0.788997	0.350600	0.627951
O174	O	1.288997	0.850600	1.127951
H175	H	0.753546	0.410704	0.672586
H176	H	1.253546	0.910704	1.172586
H177	H	0.999250	-0.243219	0.081549
H178	H	1.499250	0.256781	0.581549
H179	H	0.909354	-0.221335	0.137047
H180	H	1.409354	0.278665	0.637047
