data_functionalizedCrystal
_audit_creation_method	'MofGen! by Chris Wilmer'
_symmetry_space_group_name_H-M	'P1'
_symmetry_Int_Tables_number	1
_symmetry_cell_setting	triclinic
loop_
_symmetry_equiv_pos_as_xyz
  x,y,z
_cell_length_a	16.956984
_cell_length_b	10.723022
_cell_length_c	16.053802
_cell_angle_alpha	92.591234
_cell_angle_beta	87.610701
_cell_angle_gamma	80.260322
loop_
_atom_site_label
_atom_site_type_symbol
_atom_site_fract_x
_atom_site_fract_y
_atom_site_fract_z
O1	O	1.061655	0.046074	-0.069432
O2	O	0.829737	0.089859	-0.069433
O3	O	0.951046	-0.114233	-0.069430
O4	O	0.940346	0.250166	-0.069436
O5	O	0.944369	-0.103043	0.069429
O6	O	0.823060	0.101049	0.069426
O7	O	1.054978	0.057264	0.069426
Zn8	Zn	0.937959	0.080933	0.091473
Zn9	Zn	0.946756	0.066190	-0.091479
O10	O	0.933669	0.261356	0.069423
C11	C	0.796703	0.097696	-0.000003
C12	C	0.708218	0.104362	-0.000004
C13	C	0.675525	-0.007091	-0.000000
C14	C	0.592384	-0.000821	-0.000006
C15	C	0.541938	0.116904	-0.000010
C16	C	0.574637	0.228365	-0.000016
C17	C	0.657777	0.222093	-0.000016
C18	C	0.292336	0.147949	-0.000016
C19	C	0.209191	0.154213	-0.000014
C20	C	0.226944	-0.074974	-0.000006
C21	C	0.310084	-0.081235	-0.000001
C22	C	0.342776	0.030226	-0.000011
N23	N	0.456955	0.123317	-0.000013
N24	N	0.427758	0.023812	-0.000013
C25	C	0.946929	-0.155047	-0.000001
C26	C	0.944600	-0.293330	-0.000004
C27	C	0.874645	-0.333738	-0.000006
C28	C	0.872237	-0.476660	-0.000009
C29	C	1.088013	0.049427	-0.000005
C30	C	1.176497	0.042760	-0.000010
C31	C	0.937786	0.302170	-0.000007
C32	C	0.940115	0.440453	-0.000010
N33	N	0.931960	0.090994	0.216333
N34	N	0.952761	0.056118	-0.216340
C35	C	0.983597	0.004180	0.260028
C36	C	0.979408	0.011229	0.347435
C37	C	0.923586	0.105098	0.391145
C38	C	0.871945	0.191917	0.347443
C39	C	0.876130	0.184862	0.260038
C40	C	0.905305	0.135882	0.652554
C41	C	0.901125	0.142933	0.739965
C42	C	1.008588	-0.037758	0.739951
C43	C	1.012771	-0.044801	0.652544
C44	C	0.961127	0.042014	0.608850
N45	N	0.919306	0.112308	0.480488
N46	N	0.965404	0.034798	0.519508
H47	H	0.565769	-0.091577	-0.000004
H48	H	1.029056	-0.072254	0.224446
N49	N	0.792891	-0.522773	-0.000002
H50	H	0.764021	-0.494588	-0.051475
H51	H	0.802478	-0.618329	0.000029
N52	N	0.797676	-0.239401	0.000014
H53	H	0.797867	-0.188637	-0.051455
H54	H	0.750697	-0.286077	0.000049
H55	H	1.000014	-0.524728	-0.000039
N56	N	0.364490	-0.208213	-0.000013
H57	H	0.422119	-0.195274	-0.000014
H58	H	0.351360	-0.253016	0.051462
N59	N	0.811742	0.293170	0.394586
H60	H	0.779665	0.347095	0.353639
H61	H	0.774515	0.251958	0.430867
N62	N	0.191683	-0.195186	0.000009
H63	H	0.131361	-0.173355	0.000009
H64	H	0.212566	-0.250474	-0.051466
H65	H	1.002708	-0.364545	-0.000001
H66	H	0.168118	0.250084	-0.000013
N67	N	1.035129	-0.082367	0.394565
H68	H	1.071139	-0.142884	0.353612
H69	H	1.068868	-0.035244	0.430800
H70	H	0.684394	0.312851	-0.000014
N71	N	0.520235	0.355346	-0.000013
H72	H	0.533298	0.400204	-0.051490
H73	H	0.462625	0.342312	0.000023
N74	N	1.072980	-0.146044	0.605401
H75	H	1.105056	-0.199974	0.646346
H76	H	1.043907	-0.200986	0.569148
H77	H	1.050634	-0.108440	0.775534
N78	N	0.840922	0.244194	0.787112
H79	H	0.808841	0.298122	0.746171
H80	H	0.803698	0.202984	0.823398
H81	H	0.318943	0.238708	-0.000030
H82	H	0.863255	0.206572	0.616985
H83	H	0.834081	0.255554	0.224462
H84	H	0.716593	-0.102955	0.000006
