data_functionalizedCrystal
_audit_creation_method	'MofGen! by Chris Wilmer'
_symmetry_space_group_name_H-M	'P1'
_symmetry_Int_Tables_number	1
_symmetry_cell_setting	triclinic
loop_
_symmetry_equiv_pos_as_xyz
  x,y,z
_cell_length_a	15.297475
_cell_length_b	18.101395
_cell_length_c	15.298259
_cell_angle_alpha	80.286247
_cell_angle_beta	88.370891
_cell_angle_gamma	80.333681
loop_
_atom_site_label
_atom_site_type_symbol
_atom_site_fract_x
_atom_site_fract_y
_atom_site_fract_z
Zn1	Zn	1.253438	-0.369889	-0.726658
Zn2	Zn	1.753438	0.130111	-0.226658
Zn3	Zn	1.278653	-0.518147	-0.580154
Zn4	Zn	1.778653	-0.018147	-0.080154
Zn5	Zn	1.132290	-0.377092	-0.554882
Zn6	Zn	1.632290	0.122908	-0.054882
Zn7	Zn	1.106904	-0.476449	-0.701296
Zn8	Zn	1.606904	0.023551	-0.201296
O9	O	1.192821	-0.435394	-0.640748
O10	O	1.692821	0.064606	-0.140748
O11	O	1.379361	-0.403992	-0.728415
O12	O	1.879361	0.096008	-0.228415
O13	O	1.280414	-0.519901	-0.454214
O14	O	1.780414	-0.019901	0.045786
O15	O	1.148432	-0.272508	-0.577705
O16	O	1.648432	0.227492	-0.077705
O17	O	1.397886	-0.512917	-0.620779
O18	O	1.897886	-0.012917	-0.120779
O19	O	1.237439	-0.267216	-0.703909
O20	O	1.737439	0.232784	-0.203909
O21	O	1.172882	-0.416268	-0.435647
O22	O	1.672882	0.083732	0.064353
O23	O	1.006344	-0.375835	-0.553113
O24	O	1.506344	0.124165	-0.053113
O25	O	1.105166	-0.441848	-0.827248
O26	O	1.605166	0.058152	-0.327248
O27	O	0.987693	-0.448833	-0.660683
O28	O	1.487693	0.051167	-0.160683
O29	O	1.212824	-0.363559	-0.845881
O30	O	1.712824	0.136441	-0.345881
O31	O	1.255798	-0.616244	-0.596187
O32	O	1.755798	-0.116244	-0.096187
O33	O	1.129615	-0.585608	-0.685189
O34	O	1.629615	-0.085608	-0.185189
C35	C	0.965235	-0.408591	-0.601404
C36	C	1.465235	0.091409	-0.101404
C37	C	0.867869	-0.397139	-0.584594
C38	C	1.367869	0.102861	-0.084594
C39	C	1.192709	-0.627795	-0.640701
C40	C	1.692709	-0.127795	-0.140701
C41	C	1.192735	-0.710110	-0.640725
C42	C	1.692735	-0.210110	-0.140725
C43	C	0.554727	-0.517249	-0.760897
C44	C	1.054727	-0.017249	-0.260897
C45	C	0.646207	-0.528014	-0.776689
C46	C	1.146207	-0.028014	-0.276689
C47	C	0.701627	-0.495296	-0.728667
C48	C	1.201627	0.004704	-0.228667
C49	C	0.665558	-0.451811	-0.664849
C50	C	1.165558	0.048189	-0.164849
C51	C	0.574069	-0.441049	-0.649051
C52	C	1.074069	0.058951	-0.149051
C53	C	0.720970	-0.419097	-0.616821
C54	C	1.220970	0.080903	-0.116821
C55	C	0.684900	-0.375612	-0.553003
C56	C	1.184900	0.124388	-0.053003
C57	C	0.593420	-0.364852	-0.537209
C58	C	1.093420	0.135148	-0.037209
C59	C	0.538001	-0.397570	-0.585231
C60	C	1.038001	0.102430	-0.085231
C61	C	0.812458	-0.429859	-0.632619
C62	C	1.312458	0.070141	-0.132619
C63	C	0.831801	-0.353659	-0.520773
C64	C	1.331801	0.146341	-0.020773
C65	C	0.740320	-0.342894	-0.504981
C66	C	1.240320	0.157106	-0.004981
C67	C	1.192919	-1.009215	-0.640805
C68	C	1.692919	-0.509215	-0.140805
C69	C	1.113656	-0.958637	-0.696998
C70	C	1.613656	-0.458637	-0.196998
C71	C	1.113372	-0.873016	-0.696731
C72	C	1.613372	-0.373016	-0.196731
C73	C	1.192828	-0.860826	-0.640766
C74	C	1.692828	-0.360826	-0.140766
C75	C	1.183805	-0.904428	-0.544127
C76	C	1.683805	-0.404428	-0.044127
C77	C	1.183299	-0.989955	-0.544458
C78	C	1.683299	-0.489955	-0.044458
C79	C	1.281494	-0.984525	-0.680464
C80	C	1.781494	-0.484525	-0.180464
C81	C	1.280599	-0.898472	-0.682395
C82	C	1.780599	-0.398472	-0.182395
C83	C	1.192779	-0.776963	-0.640739
C84	C	1.692779	-0.276963	-0.140739
C85	C	1.192968	-1.093079	-0.640826
C86	C	1.692968	-0.593079	-0.140826
C87	C	1.421296	-0.462302	-0.680245
C88	C	1.921296	0.037698	-0.180245
C89	C	1.518658	-0.473769	-0.697077
C90	C	2.018658	0.026231	-0.197077
C91	C	1.153350	-0.397249	-0.869239
C92	C	1.653350	0.102751	-0.369239
C93	C	1.136530	-0.380994	-0.966608
C94	C	1.636530	0.119006	-0.466608
C95	C	1.192955	-0.242241	-0.640817
C96	C	1.692955	0.257759	-0.140817
C97	C	1.193012	-0.159931	-0.640847
C98	C	1.693012	0.340069	-0.140847
C99	C	1.313066	-0.551005	-1.279738
C100	C	1.813066	-0.051005	-0.779738
C101	C	1.328865	-0.566282	-1.188254
C102	C	1.828865	-0.066282	-0.688254
C103	C	1.280783	-0.519961	-1.132838
C104	C	1.780783	-0.019961	-0.632838
C105	C	1.216899	-0.458361	-1.168915
C106	C	1.716899	0.041639	-0.668915
C107	C	1.201094	-0.443087	-1.260407
C108	C	1.701094	0.056913	-0.760407
C109	C	1.168810	-0.412043	-1.113507
C110	C	1.668810	0.087957	-0.613507
C111	C	1.104926	-0.350443	-1.149584
C112	C	1.604926	0.149557	-0.649584
C113	C	1.089124	-0.335170	-1.241068
C114	C	1.589124	0.164830	-0.741068
C115	C	1.137206	-0.381491	-1.296484
C116	C	1.637206	0.118509	-0.796484
C117	C	1.184616	-0.427317	-1.022015
C118	C	1.684616	0.072683	-0.522015
C119	C	1.072643	-0.319398	-1.002684
C120	C	1.572643	0.180602	-0.502684
C121	C	1.056844	-0.304122	-1.094168
C122	C	1.556844	0.195878	-0.594168
C123	C	1.232189	-0.473343	-0.413154
C124	C	1.732189	0.026657	0.086846
C125	C	1.249179	-0.489410	-0.315814
C126	C	1.749179	0.010590	0.184186
H127	H	0.776114	-0.504064	-0.741529
H128	H	1.276114	-0.004064	-0.241529
H129	H	1.292834	-0.997722	-0.750574
H130	H	1.792834	-0.497722	-0.250574
O131	O	1.117931	-0.836348	-0.781562
O132	O	1.617931	-0.336348	-0.281562
C133	C	1.117645	-0.758446	-0.781358
C134	C	1.617645	-0.258446	-0.281358
H135	H	1.141908	-0.750520	-0.714312
H136	H	1.641908	-0.250520	-0.214312
H137	H	1.163412	-0.735954	-0.835883
H138	H	1.663412	-0.235954	-0.335883
H139	H	1.047386	-0.725870	-0.793715
H140	H	1.547386	-0.225870	-0.293715
O141	O	0.449107	-0.387102	-0.570044
O142	O	0.949107	0.112898	-0.070044
C143	C	0.404047	-0.350569	-0.648758
C144	C	0.904047	0.149431	-0.148758
H145	H	0.448062	-0.361053	-0.708298
H146	H	0.948062	0.138947	-0.208298
H147	H	0.340167	-0.374226	-0.653690
H148	H	0.840167	0.125774	-0.153690
H149	H	0.387476	-0.286889	-0.647938
H150	H	0.887476	0.213111	-0.147938
H151	H	1.380871	-0.616443	-1.158885
H152	H	1.880871	-0.116443	-0.658885
O153	O	1.035389	-0.977938	-0.664605
O154	O	1.535389	-0.477938	-0.164605
C155	C	0.991122	-1.002578	-0.731157
C156	C	1.491122	-0.502578	-0.231157
H157	H	1.041338	-1.022937	-0.782038
H158	H	1.541338	-0.522937	-0.282038
H159	H	0.955817	-1.051275	-0.699973
H160	H	1.455817	-0.551275	-0.199973
H161	H	0.940416	-0.953448	-0.765273
H162	H	1.440416	-0.453448	-0.265273
H163	H	1.047396	-0.847119	-0.669199
H164	H	1.547396	-0.347119	-0.169199
H165	H	0.710939	-0.307488	-0.453020
H166	H	1.210939	0.192512	0.046980
H167	H	1.117258	-0.969556	-0.768350
H168	H	1.617258	-0.469556	-0.268350
H169	H	1.352201	-0.588718	-1.324864
H170	H	1.852201	-0.088718	-0.824864
H171	H	0.841817	-0.465264	-0.684580
H172	H	1.341817	0.034736	-0.184580
H173	H	0.876924	-0.327019	-0.481668
H174	H	1.376924	0.172981	0.018332
O175	O	1.108109	-0.873641	-0.505837
O176	O	1.608109	-0.373641	-0.005837
C177	C	1.101006	-0.913475	-0.419093
C178	C	1.601006	-0.413475	0.080907
H179	H	1.169644	-0.942764	-0.393864
H180	H	1.669644	-0.442764	0.106136
H181	H	1.071214	-0.871939	-0.373650
H182	H	1.571214	-0.371939	0.126350
H183	H	1.056419	-0.957931	-0.419622
H184	H	1.556419	-0.457931	0.080378
O185	O	1.025800	-0.274454	-0.948881
O186	O	1.525800	0.225546	-0.448881
C187	C	0.934621	-0.276608	-0.956153
C188	C	1.434621	0.223392	-0.456153
H189	H	0.925812	-0.331048	-0.980517
H190	H	1.425812	0.168952	-0.480517
H191	H	0.901746	-0.275178	-0.888507
H192	H	1.401746	0.224822	-0.388507
H193	H	0.902578	-0.225343	-1.005311
H194	H	1.402578	0.274657	-0.505311
O195	O	1.351811	-1.025490	-0.631950
O196	O	1.851811	-0.525490	-0.131950
C197	C	1.430877	-1.002897	-0.668111
C198	C	1.930877	-0.502897	-0.168111
H199	H	1.415379	-0.942972	-0.707685
H200	H	1.915379	-0.442972	-0.207685
H201	H	1.478914	-1.003670	-0.612216
H202	H	1.978914	-0.503670	-0.112216
H203	H	1.462272	-1.043778	-0.713669
H204	H	1.962272	-0.543778	-0.213669
O205	O	1.246552	-0.487219	-0.986914
O206	O	1.746552	0.012781	-0.486914
C207	C	1.205794	-0.538000	-0.925339
C208	C	1.705794	-0.038000	-0.425339
H209	H	1.132037	-0.529844	-0.940979
H210	H	1.632037	-0.029844	-0.440979
H211	H	1.237612	-0.598894	-0.929760
H212	H	1.737612	-0.098894	-0.429760
H213	H	1.214774	-0.526326	-0.855489
H214	H	1.714774	-0.026326	-0.355489
H215	H	0.675569	-0.563422	-0.828647
H216	H	1.175569	-0.063422	-0.328647
O217	O	0.500764	-0.548948	-0.807486
O218	O	1.000764	-0.048948	-0.307486
C219	C	0.412289	-0.530143	-0.779836
C220	C	0.912289	-0.030143	-0.279836
H221	H	0.404756	-0.476254	-0.749115
H222	H	0.904756	0.023746	-0.249115
H223	H	0.366192	-0.520215	-0.839436
H224	H	0.866192	-0.020215	-0.339436
H225	H	0.394376	-0.578752	-0.728601
H226	H	0.894376	-0.078752	-0.228601
H227	H	0.564058	-0.329452	-0.485235
H228	H	1.064058	0.170548	0.014765
H229	H	1.124349	-0.369055	-1.370979
H230	H	1.624349	0.130945	-0.870979
O231	O	1.289167	-0.863442	-0.767374
O232	O	1.789167	-0.363442	-0.267374
C233	C	1.368178	-0.897702	-0.804076
C234	C	1.868178	-0.397702	-0.304076
H235	H	1.388583	-0.957927	-0.766601
H236	H	1.888583	-0.457927	-0.266601
H237	H	1.356927	-0.899789	-0.876903
H238	H	1.856927	-0.399789	-0.376903
H239	H	1.422914	-0.863093	-0.798405
H240	H	1.922914	-0.363093	-0.298405
O241	O	1.296269	-0.534883	-1.043995
O242	O	1.796269	-0.034883	-0.543995
C243	C	1.362950	-0.599194	-1.024033
C244	C	1.862950	-0.099194	-0.524033
H245	H	1.405010	-0.606795	-1.085599
H246	H	1.905010	-0.106795	-0.585599
H247	H	1.406782	-0.590983	-0.968584
H248	H	1.906782	-0.090983	-0.468584
H249	H	1.330979	-0.651808	-1.001772
H250	H	1.830979	-0.151808	-0.501772
H251	H	1.004829	-0.253967	-1.123556
H252	H	1.504829	0.246033	-0.623556
H253	H	1.239392	-1.024928	-0.500302
H254	H	1.739392	-0.524928	-0.000302
O255	O	1.106539	-1.008274	-0.506738
O256	O	1.606539	-0.508274	-0.006738
C257	C	1.033789	-0.963993	-0.555732
C258	C	1.533789	-0.463993	-0.055732
H259	H	1.055972	-0.943823	-0.626232
H260	H	1.555972	-0.443823	-0.126232
H261	H	0.979377	-0.999685	-0.557674
H262	H	1.479377	-0.499685	-0.057674
H263	H	1.007192	-0.912667	-0.522911
H264	H	1.507192	-0.412667	-0.022911
O265	O	1.251383	-0.897046	-0.492088
O266	O	1.751383	-0.397046	0.007912
C267	C	1.308008	-0.852262	-0.542437
C268	C	1.808008	-0.352262	-0.042437
H269	H	1.269984	-0.815044	-0.601422
H270	H	1.769984	-0.315044	-0.101422
H271	H	1.333083	-0.814687	-0.499263
H272	H	1.833083	-0.314687	0.000737
H273	H	1.366743	-0.890840	-0.567340
H274	H	1.866743	-0.390840	-0.067340
H275	H	1.037098	-0.285018	-1.270437
H276	H	1.537098	0.214982	-0.770437
H277	H	1.341496	-0.890936	-0.645724
H278	H	1.841496	-0.390936	-0.145724
