data_functionalizedCrystal
_audit_creation_method	'MofGen! by Chris Wilmer'
_symmetry_space_group_name_H-M	'P1'
_symmetry_Int_Tables_number	1
_symmetry_cell_setting	triclinic
loop_
_symmetry_equiv_pos_as_xyz
  x,y,z
_cell_length_a	6.817900
_cell_length_b	13.167930
_cell_length_c	17.110486
_cell_angle_alpha	100.970137
_cell_angle_beta	99.060439
_cell_angle_gamma	105.754568
loop_
_atom_site_label
_atom_site_type_symbol
_atom_site_fract_x
_atom_site_fract_y
_atom_site_fract_z
V1	V	-3.994020	-0.148560	-0.257628
O2	O	-3.964513	0.007469	-0.241475
O3	O	-3.962729	-0.294886	-0.266685
O4	O	-3.923597	-0.146130	-0.365053
O5	O	-4.003916	-0.142317	-0.142426
V6	V	-4.478284	-0.129914	-0.242535
O7	O	-4.253651	-0.189460	-0.290737
O8	O	-4.668849	-0.089013	-0.209426
O9	O	-4.286368	0.016412	-0.233478
O10	O	-4.625188	-0.285942	-0.258688
O11	O	-4.585785	-0.136156	-0.357737
O12	O	-4.325500	-0.132344	-0.135110
C13	C	-3.812605	-0.330561	-0.265412
C14	C	-3.868162	-0.450184	-0.273534
C15	C	-3.917864	-0.644423	-0.141606
C16	C	-3.970063	-0.756818	-0.149232
C17	C	-4.024774	-0.787372	-0.296413
C18	C	-3.972575	-0.674977	-0.288786
C19	C	-3.919118	-0.603506	-0.211380
C20	C	-3.866903	-0.491108	-0.203754
C21	C	-3.921629	-0.521664	-0.350934
C22	C	-3.973828	-0.634059	-0.358560
C23	C	-3.762687	-0.140807	-0.390890
C24	C	-3.786506	-0.139789	-0.478781
C25	C	-3.979611	-0.144680	-0.524498
C26	C	-4.001979	-0.143723	-0.607081
C27	C	-3.831244	-0.137881	-0.643947
C28	C	-3.638122	-0.132985	-0.598223
C29	C	-3.615752	-0.133935	-0.515640
C30	C	-3.889681	-0.134737	-0.893071
C31	C	-3.912067	-0.133791	-0.975660
C32	C	-4.275923	-0.144526	-0.984512
C33	C	-4.253540	-0.145482	-0.901929
C34	C	-4.060418	-0.140581	-0.856211
C35	C	-3.854105	-0.136905	-0.728360
C36	C	-4.037555	-0.141549	-0.771798
C37	C	-4.099835	0.052082	-0.234749
C38	C	-4.023516	0.171704	-0.226633
C39	C	-4.149753	-0.137670	-0.109270
C40	C	-4.105172	-0.138683	-0.021377
H41	H	-4.068336	-0.845583	-0.359434
H42	H	-4.159219	-0.147700	-0.644299
H43	H	-3.874309	-0.586229	-0.078578
O44	O	-3.669966	-0.130666	-0.768123
H45	H	-3.541549	-0.054619	-0.736308
H46	H	-4.176564	-0.146302	-0.741777
O47	O	-3.968690	-0.800946	-0.073973
H48	H	-4.013978	-0.891110	-0.092277
O49	O	-3.727829	-0.127454	-1.015382
H50	H	-3.766044	-0.200431	-1.066647
H51	H	-3.823365	-0.432916	-0.140726
O52	O	-4.031493	-0.711154	-0.442043
H53	H	-4.023606	-0.663816	-0.489280
H54	H	-3.922640	-0.488338	-0.407749
H55	H	-4.392574	-0.150238	-0.871918
H56	H	-4.433156	-0.148515	-1.021744
O57	O	-4.163757	-0.150971	-0.484734
H58	H	-4.301785	-0.154197	-0.530399
H59	H	-3.732452	-0.130784	-0.855864
H60	H	-3.499104	-0.128222	-0.628244
O61	O	-3.407482	-0.128654	-0.466316
H62	H	-3.361361	-0.199572	-0.493885
