data_functionalizedCrystal
_audit_creation_method	'MofGen! by Chris Wilmer'
_symmetry_space_group_name_H-M	'P1'
_symmetry_Int_Tables_number	1
_symmetry_cell_setting	triclinic
loop_
_symmetry_equiv_pos_as_xyz
  x,y,z
_cell_length_a	19.077105
_cell_length_b	18.101395
_cell_length_c	19.076919
_cell_angle_alpha	92.272317
_cell_angle_beta	90.076224
_cell_angle_gamma	87.727498
loop_
_atom_site_label
_atom_site_type_symbol
_atom_site_fract_x
_atom_site_fract_y
_atom_site_fract_z
Zn1	Zn	1.058231	-0.358271	-0.440421
Zn2	Zn	1.391564	-0.024938	-0.107088
Zn3	Zn	1.724897	0.308395	0.226246
Zn4	Zn	1.062857	-0.477344	-0.322915
Zn5	Zn	1.396191	-0.144010	0.010418
Zn6	Zn	1.729524	0.189323	0.343751
Zn7	Zn	0.945450	-0.348351	-0.318214
Zn8	Zn	1.278783	-0.015017	0.015119
Zn9	Zn	1.612116	0.318316	0.348452
Zn10	Zn	0.940679	-0.476897	-0.435668
Zn11	Zn	1.274013	-0.143564	-0.102335
Zn12	Zn	1.607346	0.189769	0.230999
O13	O	1.001804	-0.415216	-0.379305
O14	O	1.335138	-0.081882	-0.045971
O15	O	1.668471	0.251451	0.287362
O16	O	1.157176	-0.378405	-0.428790
O17	O	1.490509	-0.045072	-0.095457
O18	O	1.823842	0.288261	0.237876
O19	O	1.051216	-0.456268	-0.223960
O20	O	1.384549	-0.122934	0.109373
O21	O	1.717882	0.210399	0.442706
O22	O	0.960470	-0.246037	-0.334447
O23	O	1.293804	0.087296	-0.001114
O24	O	1.627137	0.420629	0.332220
O25	O	1.160575	-0.465887	-0.342459
O26	O	1.493908	-0.132554	-0.009126
O27	O	1.827242	0.200779	0.324207
O28	O	1.043330	-0.253326	-0.424232
O29	O	1.376663	0.080007	-0.090898
O30	O	1.709997	0.413341	0.242435
O31	O	0.964957	-0.361497	-0.220507
O32	O	1.298290	-0.028164	0.112827
O33	O	1.631623	0.305170	0.446160
O34	O	0.846486	-0.361064	-0.329838
O35	O	1.179819	-0.027731	0.003495
O36	O	1.513152	0.305603	0.336829
O37	O	0.952340	-0.465126	-0.534630
O38	O	1.285673	-0.131793	-0.201296
O39	O	1.619007	0.201541	0.132037
O40	O	0.842981	-0.455506	-0.416131
O41	O	1.176314	-0.122173	-0.082797
O42	O	1.509647	0.211160	0.250536
O43	O	1.038704	-0.377972	-0.538122
O44	O	1.372038	-0.044639	-0.204788
O45	O	1.705371	0.288694	0.128545
O46	O	1.046590	-0.580914	-0.337850
O47	O	1.379923	-0.247581	-0.004517
O48	O	1.713257	0.085753	0.328816
O49	O	0.956826	-0.580586	-0.420689
O50	O	1.290160	-0.247253	-0.087356
O51	O	1.623493	0.086081	0.245978
C52	C	0.819237	-0.407161	-0.371959
C53	C	1.152570	-0.073827	-0.038626
C54	C	1.485904	0.259506	0.294708
C55	C	0.741133	-0.403733	-0.368833
C56	C	1.074466	-0.070400	-0.035500
C57	C	1.407800	0.262933	0.297834
C58	C	0.702636	-0.451363	-0.412222
C59	C	1.035970	-0.118029	-0.078889
C60	C	1.369303	0.215304	0.254445
C61	C	0.629249	-0.448133	-0.409288
C62	C	0.962583	-0.114799	-0.075955
C63	C	1.295916	0.218534	0.257378
C64	C	0.594361	-0.397276	-0.362962
C65	C	0.927694	-0.063943	-0.029628
C66	C	1.261027	0.269390	0.303705
C67	C	0.632863	-0.349642	-0.319571
C68	C	0.966196	-0.016308	0.013762
C69	C	1.299529	0.317025	0.347095
C70	C	0.706248	-0.352869	-0.322509
C71	C	1.039582	-0.019535	0.010824
C72	C	1.372915	0.313798	0.344158
C73	C	0.375075	-0.382341	-0.349369
C74	C	0.708408	-0.049008	-0.016036
C75	C	1.041742	0.284325	0.317298
C76	C	0.301684	-0.379119	-0.346433
C77	C	0.635018	-0.045786	-0.013100
C78	C	0.968351	0.287547	0.320234
C79	C	0.298076	-0.477610	-0.436152
C80	C	0.631409	-0.144277	-0.102818
C81	C	0.964743	0.189057	0.230515
C82	C	0.371463	-0.480836	-0.439082
C83	C	0.704796	-0.147502	-0.105749
C84	C	1.038130	0.185831	0.227585
C85	C	0.409959	-0.433198	-0.395694
C86	C	0.743292	-0.099865	-0.062361
C87	C	1.076625	0.233468	0.270972
N88	N	0.519348	-0.393975	-0.359960
N89	N	0.852681	-0.060642	-0.026627
N90	N	1.186014	0.272692	0.306706
N91	N	0.484970	-0.436497	-0.398700
N92	N	0.818304	-0.103163	-0.065366
N93	N	1.151637	0.230170	0.267967
C94	C	1.001711	-0.607621	-0.379280
C95	C	1.335044	-0.274288	-0.045947
C96	C	1.668378	0.059045	0.287387
C97	C	1.001735	-0.689937	-0.379296
C98	C	1.335068	-0.356604	-0.045962
C99	C	1.668401	-0.023270	0.287371
C100	C	1.001887	-0.989036	-0.379340
C101	C	1.335221	-0.655703	-0.046006
C102	C	1.668554	-0.322370	0.287327
C103	C	0.945531	-0.957547	-0.431600
C104	C	1.278864	-0.624213	-0.098266
C105	C	1.612197	-0.290880	0.235067
C106	C	0.945280	-0.871910	-0.431419
C107	C	1.278613	-0.538577	-0.098086
C108	C	1.611947	-0.205244	0.235248
C109	C	1.001811	-0.840650	-0.379319
C110	C	1.335145	-0.507316	-0.045985
C111	C	1.668478	-0.173983	0.287348
C112	C	0.984741	-0.867911	-0.304458
C113	C	1.318075	-0.534578	0.028875
C114	C	1.651408	-0.201244	0.362209
C115	C	0.984379	-0.953554	-0.304770
C116	C	1.317712	-0.620221	0.028564
C117	C	1.651046	-0.286887	0.361897
C118	C	1.075459	-0.961424	-0.401293
C119	C	1.408792	-0.628091	-0.067960
C120	C	1.742125	-0.294757	0.265373
C121	C	1.074956	-0.875820	-0.402900
C122	C	1.408289	-0.542486	-0.069567
C123	C	1.741623	-0.209153	0.263767
C124	C	1.001770	-0.756788	-0.379302
C125	C	1.335103	-0.423454	-0.045969
C126	C	1.668437	-0.090121	0.287365
C127	C	1.001927	-1.072898	-0.379351
C128	C	1.335260	-0.739565	-0.046018
C129	C	1.668594	-0.406231	0.287315
C130	C	1.185084	-0.423303	-0.386679
C131	C	1.518418	-0.089969	-0.053346
C132	C	1.851751	0.243364	0.279987
C133	C	1.263188	-0.426749	-0.389822
C134	C	1.596521	-0.093416	-0.056489
C135	C	1.929854	0.239918	0.276845
C136	C	0.994474	-0.422606	-0.562585
C137	C	1.327807	-0.089273	-0.229251
C138	C	1.661141	0.244061	0.104082
C139	C	0.991350	-0.425755	-0.640688
C140	C	1.324684	-0.092422	-0.307355
C141	C	1.658017	0.240911	0.025979
C142	C	1.001916	-0.222060	-0.379345
C143	C	1.335250	0.111273	-0.046012
C144	C	1.668583	0.444606	0.287321
C145	C	1.001964	-0.139749	-0.379363
C146	C	1.335297	0.193584	-0.046029
C147	C	1.668631	0.526918	0.287304
C148	C	1.034846	-0.381860	-0.679200
C149	C	1.368179	-0.048527	-0.345867
C150	C	1.701512	0.284806	-0.012533
C151	C	1.031902	-0.384816	-0.752586
C152	C	1.365236	-0.051483	-0.419253
C153	C	1.698569	0.281850	-0.085919
C154	C	0.985466	-0.431671	-0.787458
C155	C	1.318799	-0.098338	-0.454125
C156	C	1.652133	0.234995	-0.120792
C157	C	0.941966	-0.475568	-0.748941
C158	C	1.275299	-0.142235	-0.415608
C159	C	1.608632	0.191099	-0.082274
C160	C	0.944906	-0.472608	-0.675556
C161	C	1.278240	-0.139274	-0.342223
C162	C	1.611573	0.194059	-0.008890
C163	C	0.971847	-0.445387	-1.006740
C164	C	1.305180	-0.112054	-0.673406
C165	C	1.638513	0.221280	-0.340073
C166	C	0.968911	-0.448346	-1.080130
C167	C	1.302244	-0.115012	-0.746796
C168	C	1.635577	0.218321	-0.413463
C169	C	1.058847	-0.357593	-1.083770
C170	C	1.392180	-0.024259	-0.750436
C171	C	1.725513	0.309074	-0.417103
C172	C	1.061786	-0.354640	-1.010384
C173	C	1.395119	-0.021306	-0.677050
C174	C	1.728453	0.312027	-0.343717
C175	C	1.018283	-0.398533	-0.971872
C176	C	1.351617	-0.065200	-0.638539
C177	C	1.684950	0.268133	-0.305206
N178	N	0.982458	-0.434696	-0.862471
N179	N	1.315791	-0.101362	-0.529137
N180	N	1.649124	0.231971	-0.195804
N181	N	1.021289	-0.395505	-0.896861
N182	N	1.354622	-0.062171	-0.563528
N183	N	1.687955	0.271162	-0.230195
C184	C	1.009146	-0.407803	-0.196739
C185	C	1.342480	-0.074469	0.136594
C186	C	1.675813	0.258864	0.469928
C187	C	1.012406	-0.404451	-0.118642
C188	C	1.345740	-0.071117	0.214692
C189	C	1.679073	0.262216	0.548025
H190	H	0.266725	-0.516393	-0.471476
H191	H	0.600058	-0.183059	-0.138143
H192	H	0.933392	0.150274	0.195190
C193	C	0.871533	-0.840344	-0.411456
C194	C	1.204867	-0.507011	-0.078123
C195	C	1.538200	-0.173677	0.255211
H196	H	0.871126	-0.787838	-0.411284
H197	H	1.204459	-0.454504	-0.077951
H198	H	1.537792	-0.121171	0.255382
H199	H	0.859592	-0.855714	-0.366107
H200	H	1.192925	-0.522380	-0.032774
H201	H	1.526258	-0.189047	0.300559
H202	H	0.838383	-0.857998	-0.444672
H203	H	1.171716	-0.524665	-0.111339
H204	H	1.505049	-0.191332	0.221994
H205	H	0.891266	-0.976217	-0.416994
H206	H	1.224600	-0.642884	-0.083661
H207	H	1.557933	-0.309551	0.249673
H208	H	1.067323	-0.349074	-0.783940
H209	H	1.400656	-0.015741	-0.450606
H210	H	1.733989	0.317592	-0.117273
H211	H	0.904154	-0.513715	-0.777340
H212	H	1.237487	-0.180382	-0.444006
H213	H	1.570821	0.152951	-0.110673
H214	H	0.406410	-0.343557	-0.314034
H215	H	0.739743	-0.010224	0.019299
H216	H	1.073076	0.323110	0.352633
C217	C	0.897079	-0.520911	-0.633193
C218	C	1.230412	-0.187577	-0.299860
C219	C	1.563745	0.145756	0.033473
H220	H	0.869011	-0.549250	-0.664472
H221	H	1.202344	-0.215917	-0.331138
H222	H	1.535677	0.117416	0.002195
H223	H	0.867621	-0.490092	-0.603330
H224	H	1.200955	-0.156758	-0.269997
H225	H	1.534288	0.176575	0.063337
H226	H	0.925105	-0.553207	-0.605652
H227	H	1.258438	-0.219874	-0.272319
H228	H	1.591772	0.113459	0.061015
H229	H	1.099601	-0.316487	-0.981996
H230	H	1.432935	0.016846	-0.648662
H231	H	1.766268	0.350179	-0.315329
C232	C	0.959246	-0.989152	-0.506677
C233	C	1.292579	-0.655819	-0.173343
C234	C	1.625912	-0.322485	0.159990
H235	H	0.999469	-1.021829	-0.506828
H236	H	1.332802	-0.688496	-0.173494
H237	H	1.666135	-0.355162	0.159839
H238	H	0.966991	-0.949806	-0.536888
H239	H	1.300324	-0.616473	-0.203554
H240	H	1.633658	-0.283139	0.129779
H241	H	0.919721	-1.015362	-0.522623
H242	H	1.253054	-0.682029	-0.189289
H243	H	1.586388	-0.348696	0.144044
H244	H	1.118927	-0.854786	-0.367848
H245	H	1.452260	-0.521452	-0.034515
H246	H	1.785593	-0.188119	0.298818
H247	H	1.072661	-0.343708	-0.650813
H248	H	1.405995	-0.010375	-0.317479
H249	H	1.739328	0.322958	0.015854
C250	C	1.037636	-0.981494	-0.250158
C251	C	1.370969	-0.648160	0.083175
C252	C	1.704303	-0.314827	0.416508
H253	H	1.037779	-1.033976	-0.249983
H254	H	1.371113	-0.700643	0.083351
H255	H	1.704446	-0.367309	0.416684
H256	H	1.024865	-0.961447	-0.204987
H257	H	1.358198	-0.628114	0.128346
H258	H	1.691532	-0.294780	0.461680
H259	H	1.083125	-0.966302	-0.261824
H260	H	1.416458	-0.632968	0.071509
H261	H	1.749792	-0.299635	0.404843
C262	C	1.106690	-0.309309	-1.126133
C263	C	1.440023	0.024025	-0.792799
C264	C	1.773357	0.357358	-0.459466
H265	H	1.098286	-0.317776	-1.174832
H266	H	1.431619	0.015558	-0.841499
H267	H	1.764953	0.348891	-0.508166
H268	H	1.154378	-0.321742	-1.116006
H269	H	1.487712	0.011592	-0.782673
H270	H	1.821045	0.344925	-0.449340
H271	H	1.096910	-0.258611	-1.113701
H272	H	1.430243	0.074722	-0.780368
H273	H	1.763577	0.408056	-0.447034
C274	C	1.132135	-0.989004	-0.349930
C275	C	1.465468	-0.655671	-0.016596
C276	C	1.798801	-0.322338	0.316737
H277	H	1.176472	-0.972139	-0.363462
H278	H	1.509805	-0.638806	-0.030129
H279	H	1.843138	-0.305473	0.303205
H280	H	1.133765	-1.041551	-0.350788
H281	H	1.467098	-0.708218	-0.017454
H282	H	1.800432	-0.374884	0.315879
H283	H	1.121133	-0.970326	-0.303847
H284	H	1.454466	-0.636993	0.029486
H285	H	1.787799	-0.303660	0.362820
H286	H	0.930687	-0.970551	-0.286519
H287	H	1.264021	-0.637218	0.046814
H288	H	1.597354	-0.303885	0.380147
H289	H	0.273280	-0.337698	-0.308713
H290	H	0.606614	-0.004364	0.024621
H291	H	0.939947	0.328969	0.357954
H292	H	0.731037	-0.492778	-0.449944
H293	H	1.064370	-0.159445	-0.116610
H294	H	1.397704	0.173889	0.216723
C295	C	1.092423	-0.852211	-0.477347
C296	C	1.425757	-0.518877	-0.144014
C297	C	1.759090	-0.185544	0.189320
H298	H	1.136726	-0.873668	-0.491318
H299	H	1.470059	-0.540335	-0.157985
H300	H	1.803393	-0.207002	0.175349
H301	H	1.093970	-0.799832	-0.477576
H302	H	1.427303	-0.466499	-0.144242
H303	H	1.760636	-0.133166	0.189091
H304	H	1.057348	-0.868582	-0.509083
H305	H	1.390682	-0.535248	-0.175750
H306	H	1.724015	-0.201915	0.157584
C307	C	1.038618	-0.840378	-0.250242
C308	C	1.371952	-0.507044	0.083091
C309	C	1.705285	-0.173711	0.416425
H310	H	1.072080	-0.811941	-0.272834
H311	H	1.405413	-0.478608	0.060500
H312	H	1.738746	-0.145274	0.393833
H313	H	1.061820	-0.881603	-0.229732
H314	H	1.395153	-0.548269	0.103602
H315	H	1.728487	-0.214936	0.436935
H316	H	1.015191	-0.810588	-0.214718
H317	H	1.348525	-0.477254	0.118615
H318	H	1.681858	-0.143921	0.451949
H319	H	0.936434	-0.481139	-0.975393
H320	H	1.269767	-0.147806	-0.642060
H321	H	1.603100	0.185527	-0.308726
C322	C	0.917825	-0.499881	-1.118491
C323	C	1.251158	-0.166548	-0.785158
C324	C	1.584492	0.166785	-0.451825
H325	H	0.922311	-0.495361	-1.167712
H326	H	1.255644	-0.162028	-0.834379
H327	H	1.588978	0.171305	-0.501045
H328	H	0.871101	-0.486471	-1.104567
H329	H	1.204434	-0.153137	-0.771234
H330	H	1.537767	0.180196	-0.437901
H331	H	0.928559	-0.549611	-1.106869
H332	H	1.261893	-0.216278	-0.773536
H333	H	1.595226	0.117055	-0.440202
C334	C	0.748595	-0.300475	-0.274783
C335	C	1.081928	0.032858	0.058551
C336	C	1.415261	0.366192	0.391884
H337	H	0.717307	-0.269728	-0.246768
H338	H	1.050641	0.063606	0.086566
H339	H	1.383974	0.396939	0.419899
H340	H	0.776164	-0.270599	-0.302866
H341	H	1.109497	0.062734	0.030468
H342	H	1.442831	0.396067	0.363801
H343	H	0.778431	-0.328776	-0.245260
H344	H	1.111764	0.004557	0.088073
H345	H	1.445097	0.337890	0.421406
C346	C	0.586907	-0.500569	-0.456973
C347	C	0.920241	-0.167235	-0.123640
C348	C	1.253574	0.166098	0.209694
H349	H	0.618197	-0.531338	-0.484965
H350	H	0.951530	-0.198005	-0.151632
H351	H	1.284864	0.135329	0.181702
H352	H	0.557051	-0.472312	-0.486507
H353	H	0.890385	-0.138979	-0.153174
H354	H	1.223718	0.194355	0.180159
H355	H	0.559360	-0.530432	-0.428850
H356	H	0.892693	-0.197098	-0.095516
H357	H	1.226026	0.136235	0.237817
C358	C	0.594491	-0.293698	-0.268614
C359	C	0.927824	0.039636	0.064720
C360	C	1.261157	0.372969	0.398053
H361	H	0.627930	-0.265789	-0.243198
H362	H	0.961264	0.067545	0.090135
H363	H	1.294597	0.400878	0.423468
H364	H	0.567070	-0.319478	-0.236802
H365	H	0.900403	0.013855	0.096531
H366	H	1.233736	0.347188	0.429864
H367	H	0.564807	-0.261301	-0.294407
H368	H	0.898140	0.072033	0.038926
H369	H	1.231473	0.405366	0.372260
C370	C	0.409840	-0.536803	-0.490014
C371	C	0.743173	-0.203470	-0.156681
C372	C	1.076507	0.129864	0.176653
H373	H	0.459060	-0.531916	-0.485536
H374	H	0.792393	-0.198583	-0.152202
H375	H	1.125726	0.134751	0.181131
H376	H	0.395955	-0.527450	-0.536774
H377	H	0.729288	-0.194117	-0.203441
H378	H	1.062621	0.139217	0.129892
H379	H	0.398189	-0.585587	-0.479132
H380	H	0.731523	-0.252253	-0.145799
H381	H	1.064856	0.081080	0.187535
C382	C	0.959216	-0.847208	-0.506282
C383	C	1.292549	-0.513875	-0.172949
C384	C	1.625883	-0.180541	0.160384
H385	H	0.965081	-0.889541	-0.537080
H386	H	1.298414	-0.556207	-0.203747
H387	H	1.631748	-0.222874	0.129586
H388	H	1.000570	-0.819664	-0.506511
H389	H	1.333904	-0.486331	-0.173178
H390	H	1.667237	-0.152998	0.160155
H391	H	0.920575	-0.817190	-0.521450
H392	H	1.253909	-0.483856	-0.188117
H393	H	1.587242	-0.150523	0.145217
H394	H	0.931637	-0.843494	-0.285943
H395	H	1.264970	-0.510161	0.047391
H396	H	1.598303	-0.176828	0.380724
C397	C	1.097267	-0.994526	-0.473993
C398	C	1.430601	-0.661193	-0.140660
C399	C	1.763934	-0.327859	0.192673
H400	H	1.061702	-1.025499	-0.491639
H401	H	1.395035	-0.692165	-0.158305
H402	H	1.728369	-0.358832	0.175028
H403	H	1.140007	-1.022802	-0.470012
H404	H	1.473341	-0.689468	-0.136679
H405	H	1.806674	-0.356135	0.196655
H406	H	1.103528	-0.955694	-0.505187
H407	H	1.436862	-0.622361	-0.171854
H408	H	1.770195	-0.289027	0.161479
