data_functionalizedCrystal
_audit_creation_method	'MofGen! by Chris Wilmer'
_symmetry_space_group_name_H-M	'P1'
_symmetry_Int_Tables_number	1
_symmetry_cell_setting	triclinic
loop_
_symmetry_equiv_pos_as_xyz
  x,y,z
_cell_length_a	18.050591
_cell_length_b	18.050589
_cell_length_c	14.908308
_cell_angle_alpha	93.269302
_cell_angle_beta	93.273372
_cell_angle_gamma	90.024669
loop_
_atom_site_label
_atom_site_type_symbol
_atom_site_fract_x
_atom_site_fract_y
_atom_site_fract_z
Zn1	Zn	1.111075	-0.319953	-0.510227
Zn2	Zn	1.118145	-0.436989	-0.359380
Zn3	Zn	0.994054	-0.312809	-0.359373
Zn4	Zn	0.986845	-0.444096	-0.510175
O5	O	1.052530	-0.378462	-0.434789
O6	O	1.215936	-0.335494	-0.490242
O7	O	1.107661	-0.414552	-0.233138
O8	O	1.009636	-0.209833	-0.379403
O9	O	1.221131	-0.421479	-0.379415
O10	O	1.095610	-0.215082	-0.490235
O11	O	1.016492	-0.323318	-0.233133
O12	O	0.889175	-0.330209	-0.379353
O13	O	0.997348	-0.433592	-0.636423
O14	O	0.883878	-0.426665	-0.490147
O15	O	1.088619	-0.342385	-0.636461
O16	O	1.100670	-0.541855	-0.379365
O17	O	1.004204	-0.547077	-0.490153
C18	C	0.859580	-0.378434	-0.434744
C19	C	0.777034	-0.378440	-0.434746
C20	C	0.531061	-0.325943	-0.374639
C21	C	0.576585	-0.311763	-0.456967
C22	C	0.479910	-0.378482	-0.434820
C23	C	0.581469	-0.392607	-0.352460
C24	C	0.625897	-0.378459	-0.434779
C25	C	0.524345	-0.364269	-0.517192
C26	C	0.529227	-0.445141	-0.412629
C27	C	0.574727	-0.430990	-0.495014
C28	C	0.395811	-0.378493	-0.434842
C29	C	0.709994	-0.378449	-0.434766
C30	C	1.052441	-0.571413	-0.434774
C31	C	1.052469	-0.653960	-0.434798
C32	C	1.000061	-0.856276	-0.495024
C33	C	0.985870	-0.901808	-0.412702
C34	C	1.052542	-0.805091	-0.434810
C35	C	1.066768	-0.906641	-0.517140
C36	C	1.052610	-0.951077	-0.434828
C37	C	1.038318	-0.849534	-0.352445
C38	C	1.119245	-0.854365	-0.456938
C39	C	1.105083	-0.899872	-0.374560
C40	C	1.052501	-0.720992	-0.434800
C41	C	1.052652	-1.035174	-0.434828
C42	C	1.246233	-0.378491	-0.434835
C43	C	1.328778	-0.378503	-0.434854
C44	C	1.041391	-0.389578	-0.670091
C45	C	1.036644	-0.394315	-0.770362
C46	C	1.052638	-0.184758	-0.434824
C47	C	1.052685	-0.102213	-0.434839
C48	C	1.122763	-0.308226	-0.958824
C49	C	1.118305	-0.312674	-1.053038
C50	C	1.023267	-0.407656	-1.053006
C51	C	1.027725	-0.403208	-0.958792
C52	C	1.077475	-0.353492	-0.911704
C53	C	1.081936	-0.349048	-0.817488
C54	C	0.986895	-0.444026	-0.817458
C55	C	0.982437	-0.448474	-0.911672
C56	C	1.063669	-0.367335	-0.200403
C57	C	1.068559	-0.362389	-0.100132
H58	H	0.606434	-0.404563	-0.282826
H59	H	0.929494	-0.922699	-0.394003
H60	H	0.950020	-0.480887	-0.779083
N61	N	0.602740	-0.241043	-0.480510
N62	N	0.639139	-0.236258	-0.548814
H63	H	0.657610	-0.186311	-0.565437
N64	N	0.944308	-0.832145	-0.558810
N65	N	0.877654	-0.847660	-0.550438
H66	H	0.838277	-0.830617	-0.595484
H67	H	1.163275	-0.267749	-0.920485
H68	H	1.149496	-0.918969	-0.323588
N69	N	1.023164	-0.818334	-0.265091
N70	N	1.020657	-0.749475	-0.250996
H71	H	1.009948	-0.727438	-0.189306
H72	H	1.155181	-0.275812	-1.091399
H73	H	1.175606	-0.833478	-0.475678
H74	H	0.499471	-0.352246	-0.586846
H75	H	0.982763	-0.448133	-1.091361
H76	H	0.941931	-0.488950	-0.950023
H77	H	0.593853	-0.475413	-0.545949
N78	N	0.503064	-0.515843	-0.389051
N79	N	0.465720	-0.520445	-0.321502
H80	H	0.447240	-0.570377	-0.304840
H81	H	0.511793	-0.281494	-0.323826
N82	N	1.132751	-0.298274	-0.769373
N83	N	1.182550	-0.321922	-0.716806
H84	H	1.218438	-0.286060	-0.682825
H85	H	1.078775	-0.931597	-0.586759
