data_functionalizedCrystal
_audit_creation_method	'MofGen! by Chris Wilmer'
_symmetry_space_group_name_H-M	'P1'
_symmetry_Int_Tables_number	1
_symmetry_cell_setting	triclinic
loop_
_symmetry_equiv_pos_as_xyz
  x,y,z
_cell_length_a	25.639239
_cell_length_b	12.645331
_cell_length_c	12.645323
_cell_angle_alpha	90.018047
_cell_angle_beta	89.968126
_cell_angle_gamma	89.960284
loop_
_atom_site_label
_atom_site_type_symbol
_atom_site_fract_x
_atom_site_fract_y
_atom_site_fract_z
Zn1	Zn	-0.208132	-1.620577	-0.599264
Zn2	Zn	-0.295571	-1.620393	-0.421982
Zn3	Zn	-0.208153	-1.443291	-0.422022
Zn4	Zn	-0.295540	-1.443208	-0.599212
O5	O	-0.251849	-1.531867	-0.510620
O6	O	-0.219736	-1.768899	-0.575752
O7	O	-0.283997	-1.596858	-0.273640
O8	O	-0.134985	-1.466920	-0.445572
O9	O	-0.283976	-1.768765	-0.445504
O10	O	-0.134970	-1.597171	-0.575791
O11	O	-0.219771	-1.466742	-0.273670
O12	O	-0.219741	-1.294933	-0.445522
O13	O	-0.283924	-1.466778	-0.747566
O14	O	-0.283944	-1.294872	-0.575702
O15	O	-0.219705	-1.597090	-0.747604
O16	O	-0.368732	-1.596778	-0.445453
O17	O	-0.368709	-1.466600	-0.575663
C18	C	-0.251842	-1.256438	-0.510612
C19	C	-0.251851	-1.138607	-0.510633
C20	C	-0.387692	-1.531689	-0.510572
C21	C	-0.445806	-1.531710	-0.510586
C22	C	-0.292310	-1.093723	-0.592410
C23	C	-0.292477	-0.971162	-0.592167
C24	C	-0.266568	-0.970643	-0.398773
C25	C	-0.266853	-1.093241	-0.399246
C26	C	-0.196590	-1.093502	-0.539739
C27	C	-0.196896	-0.970897	-0.542202
C28	C	-0.806168	-1.599827	-0.442935
C29	C	-0.860772	-1.599868	-0.442949
O30	O	-0.889009	-1.657600	-0.385377
N31	N	-0.888088	-1.532054	-0.510690
C32	C	-0.860797	-1.464201	-0.578429
O33	O	-0.889045	-1.406523	-0.636050
C34	C	-0.806194	-1.464166	-0.578419
C35	C	-0.778881	-1.531978	-0.510666
C36	C	-0.778855	-1.667635	-0.375189
C37	C	-0.724255	-1.667592	-0.375173
C38	C	-0.696967	-1.599742	-0.442905
C39	C	-0.724280	-1.531935	-0.510651
C40	C	-0.778903	-1.396319	-0.646163
C41	C	-0.724296	-1.396290	-0.646148
C42	C	-0.696983	-1.464102	-0.578395
C43	C	-0.642392	-1.464042	-0.578367
N44	N	-0.615076	-1.531857	-0.510626
C45	C	-0.642364	-1.599707	-0.442895
C46	C	-0.975467	-1.464281	-0.578445
C47	C	-1.030070	-1.464309	-0.578450
C48	C	-1.030042	-1.599979	-0.442972
C49	C	-0.975438	-1.599944	-0.442962
C50	C	-0.948152	-1.532096	-0.510704
C51	C	-0.527699	-1.599611	-0.442867
C52	C	-0.473093	-1.599560	-0.442855
C53	C	-0.473126	-1.463894	-0.578337
C54	C	-0.527727	-1.463942	-0.578346
C55	C	-0.555012	-1.531809	-0.510607
O56	O	-0.614121	-1.406343	-0.635913
O57	O	-0.614109	-1.657385	-0.385294
C58	C	-0.115476	-1.532075	-0.510692
C59	C	-0.057362	-1.532164	-0.510723
C60	C	-0.251809	-1.531945	-0.787125
C61	C	-0.251792	-1.531979	-0.904956
C62	C	-0.251859	-0.808372	-0.510629
C63	C	-0.251866	-0.926202	-0.510632
C64	C	-0.292001	-1.449747	-1.072496
C65	C	-0.292200	-1.449962	-0.949936
C66	C	-0.266744	-1.643667	-0.949463
C67	C	-0.266996	-1.643216	-1.072061
C68	C	-0.196405	-1.503578	-1.072169
C69	C	-0.196737	-1.501086	-0.949563
C70	C	-0.251852	-1.531850	-0.235190
C71	C	-0.251722	-1.532023	-0.117361
H72	H	-0.283306	-0.941116	-0.675095
H73	H	-0.166396	-1.563505	-1.101186
H74	H	-0.549908	-1.654878	-0.387711
Cl75	Cl	-0.179329	-1.374180	-0.904665
Cl76	Cl	-0.355708	-0.925781	-0.562381
H77	H	-0.183156	-1.124468	-0.619933
H78	H	-0.165140	-1.556637	-0.918945
H79	H	-0.333208	-1.468736	-0.920610
H80	H	-0.953253	-1.409021	-0.633606
Cl81	Cl	-0.354912	-1.478385	-1.120136
H82	H	-0.282734	-1.366679	-1.101978
H83	H	-0.182776	-1.423555	-1.103083
H84	H	-0.307433	-1.667331	-1.100660
Cl85	Cl	-0.278327	-1.139340	-0.720842
Cl86	Cl	-0.355173	-1.141195	-0.562964
H87	H	-0.450900	-1.408648	-0.633480
H88	H	-0.238932	-1.706594	-1.101741
H89	H	-0.238334	-1.706611	-0.920329
Cl90	Cl	-0.328522	-1.681542	-0.902068
Cl91	Cl	-1.064356	-1.685275	-0.357822
H92	H	-0.549966	-1.408727	-0.633519
H93	H	-1.052303	-1.409080	-0.633612
Cl94	Cl	-0.147897	-0.923643	-0.457031
H95	H	-0.282843	-1.367140	-0.919843
Cl96	Cl	-0.328245	-0.923150	-0.360139
H97	H	-0.307241	-1.121775	-0.374647
Cl98	Cl	-0.222470	-0.925684	-0.302112
H99	H	-0.238644	-1.122933	-0.336226
H100	H	-0.702082	-1.341041	-0.701315
Cl101	Cl	-0.179769	-0.926062	-0.669302
H102	H	-0.166449	-1.122533	-0.480184
Cl103	Cl	-0.689926	-1.752862	-0.290010
Cl104	Cl	-0.438760	-1.684815	-0.357674
Cl105	Cl	-0.941108	-1.685197	-0.357786
H106	H	-0.801067	-1.722892	-0.320033
H107	H	-0.801132	-1.341094	-0.701329
