data_functionalizedCrystal
_audit_creation_method	'MofGen! by Chris Wilmer'
_symmetry_space_group_name_H-M	'P1'
_symmetry_Int_Tables_number	1
_symmetry_cell_setting	triclinic
loop_
_symmetry_equiv_pos_as_xyz
  x,y,z
_cell_length_a	28.938199
_cell_length_b	28.937346
_cell_length_c	28.934044
_cell_angle_alpha	60.005004
_cell_angle_beta	60.009897
_cell_angle_gamma	59.994060
loop_
_atom_site_label
_atom_site_type_symbol
_atom_site_fract_x
_atom_site_fract_y
_atom_site_fract_z
O1	O	0.064043	-0.675186	0.564597
O2	O	0.024124	-0.525682	0.454913
O3	O	0.118795	-0.620275	0.454833
O4	O	-0.030629	-0.580593	0.564678
O5	O	0.150204	-0.588870	0.486157
O6	O	0.055533	-0.494276	0.486238
O7	O	0.095452	-0.643780	0.595921
Cu8	Cu	0.078360	-0.566161	0.543940
Cu9	Cu	0.041215	-0.603301	0.506895
O10	O	0.000780	-0.549187	0.596002
N11	N	0.104487	-0.540042	0.569998
N12	N	0.015094	-0.629425	0.480837
C13	C	0.165467	-0.323909	0.630915
C14	C	0.165587	-0.479117	0.786068
C15	C	0.165481	-0.479095	0.630906
C16	C	0.320696	-0.479083	0.630835
C17	C	0.182557	-0.375118	0.647971
C18	C	0.182626	-0.462038	0.734858
C19	C	0.269485	-0.462018	0.647928
C20	C	0.182566	-0.462025	0.647966
C21	C	0.143714	-0.258726	0.609206
C22	C	0.143738	-0.500820	0.609192
C23	C	0.204309	-0.440300	0.669680
C24	C	0.415481	-0.462740	0.580919
C25	C	0.474732	-0.482485	0.561145
C26	C	0.474757	-0.578356	0.597704
C27	C	0.415508	-0.558609	0.617479
C28	C	0.157989	-0.229089	0.550957
C29	C	0.138212	-0.169834	0.531225
C30	C	0.089890	-0.169857	0.627992
C31	C	0.109667	-0.229112	0.647725
C32	C	0.085482	-0.486515	0.623535
C33	C	0.065722	-0.506265	0.603789
C34	C	0.162467	-0.554625	0.555370
C35	C	0.182230	-0.534875	0.575110
C36	C	0.085661	-0.486557	0.880902
C37	C	0.065952	-0.506323	0.940155
C38	C	0.162734	-0.554693	0.940102
C39	C	0.182441	-0.534928	0.880847
C40	C	0.143904	-0.500859	0.851249
C41	C	0.385871	-0.500801	0.609083
C42	C	-0.110907	-0.668480	0.441278
C43	C	-0.024049	-0.668588	0.441475
C44	C	-0.045729	-0.690282	0.419668
C45	C	-0.062146	-0.785032	0.469507
C46	C	-0.042446	-0.844287	0.489286
C47	C	0.053426	-0.844399	0.452899
C48	C	0.033725	-0.785144	0.433120
C49	C	-0.140617	-0.682751	0.499509
C50	C	-0.199867	-0.662928	0.519152
C51	C	-0.199694	-0.614571	0.422330
C52	C	-0.140443	-0.634393	0.402687
C53	C	-0.038320	-0.610337	0.427144
C54	C	-0.018610	-0.590621	0.446974
C55	C	0.029642	-0.687402	0.495454
C56	C	0.009933	-0.707121	0.475630
C57	C	-0.038148	-0.610347	0.324832
C58	C	-0.018301	-0.590634	0.265579
C59	C	0.030035	-0.687421	0.265643
C60	C	0.010190	-0.707133	0.324897
C61	C	-0.023903	-0.668595	0.354491
C62	C	-0.024062	-0.755463	0.441426
N63	N	0.503527	-0.540005	0.569810
O64	O	0.684453	-0.545211	0.434650
O65	O	0.684643	-0.655237	0.584005
O66	O	0.684567	-0.654986	0.489282
O67	O	0.684529	-0.545462	0.529373
O68	O	0.590438	-0.623674	0.520735
O69	O	0.590513	-0.623924	0.615457
O70	O	0.590323	-0.513899	0.466102
Cu71	Cu	0.581823	-0.566053	0.543652
Cu72	Cu	0.693143	-0.603083	0.506456
O73	O	0.590399	-0.514149	0.560825
N74	N	0.771439	-0.629131	0.480292
N75	N	0.104456	-0.141061	0.570015
O76	O	-0.030629	0.039964	0.564688
O77	O	0.118732	0.039984	0.454661
O78	O	0.023980	0.039958	0.454946
O79	O	0.064123	0.039990	0.564403
O80	O	0.055392	-0.054179	0.486321
O81	O	0.150144	-0.054153	0.486036
O82	O	0.000784	-0.054173	0.596063
Cu83	Cu	0.078332	-0.062759	0.543914
Cu84	Cu	0.041183	0.048570	0.506810
O85	O	0.095535	-0.054147	0.595778
N86	N	0.015053	0.126872	0.480710
N87	N	0.104760	-0.540096	0.968910
O88	O	0.099447	-0.675167	1.149923
O89	O	-0.010552	-0.525757	1.149951
O90	O	-0.010297	-0.620493	1.149918
O91	O	0.099192	-0.580431	1.149956
O92	O	0.021064	-0.589100	1.055785
O93	O	0.020809	-0.494365	1.055818
O94	O	0.130808	-0.643774	1.055790
Cu95	Cu	0.078672	-0.566203	1.047209
Cu96	Cu	0.041584	-0.603328	1.158532
O97	O	0.130553	-0.549038	1.055823
N98	N	0.015495	-0.629442	1.236831
C99	C	0.036087	-0.491140	0.455465
C100	C	0.153325	-0.608283	0.455364
C101	C	0.083488	-0.678322	0.595370
C102	C	-0.033750	-0.561180	0.595470
C103	C	0.637601	-0.654732	0.618548
C104	C	0.637509	-0.654422	0.501245
C105	C	0.637362	-0.514403	0.431560
C106	C	0.637458	-0.514713	0.548862
C107	C	0.153215	-0.006966	0.455158
C108	C	0.035916	-0.007114	0.455550
C109	C	-0.033739	-0.007106	0.595527
C110	C	0.083600	-0.007076	0.595174
C111	C	-0.010020	-0.491238	1.102888
C112	C	-0.009698	-0.608550	1.102828
C113	C	0.130276	-0.678293	1.102853
C114	C	0.129961	-0.560974	1.102892
H115	H	0.018524	-0.494668	0.964293
H116	H	-0.109200	-0.760870	0.476275
O117	O	-0.084926	-0.551197	0.636677
C118	C	-0.084965	-0.599871	0.685450
H119	H	-0.051472	-0.638716	0.672972
H120	H	-0.075084	-0.595324	0.716200
C121	C	-0.184737	-0.558997	0.729367
C122	C	-0.143603	-0.606708	0.714041
H123	H	-0.220908	-0.563214	0.747006
H124	H	-0.184711	-0.526204	0.696509
H125	H	-0.176496	-0.555213	0.754989
H126	H	-0.151841	-0.610487	0.688414
H127	H	-0.143632	-0.639502	0.746896
H128	H	0.018285	-0.494604	0.615454
H129	H	0.057315	-0.718782	0.523258
H130	H	0.637525	-0.688829	0.492664
O131	O	0.171530	-0.729440	1.102743
C132	C	0.219219	-0.721978	1.054002
H133	H	0.205573	-0.680528	1.019932
H134	H	0.251165	-0.720678	1.065035
C135	C	0.263354	-0.822481	1.073723
C136	C	0.246592	-0.771574	1.031876
H137	H	0.280242	-0.853075	1.060076
H138	H	0.231227	-0.827509	1.106562
H139	H	0.289973	-0.821390	1.082913
H140	H	0.219969	-0.772663	1.022692
H141	H	0.278717	-0.766547	0.999035
O142	O	0.637314	-0.473260	0.380352
C143	C	0.637281	-0.493634	0.345137
H144	H	0.655150	-0.541846	0.360440
H145	H	0.592110	-0.479279	0.346708
C146	C	0.652180	-0.410937	0.265081
C147	C	0.674131	-0.470153	0.283874
H148	H	0.674909	-0.396452	0.227290
H149	H	0.652200	-0.397210	0.288806
H150	H	0.614538	-0.398983	0.266395
H151	H	0.711770	-0.482107	0.282567
H152	H	0.674118	-0.483882	0.260147
H153	H	0.637649	-0.689271	0.661445
H154	H	0.637450	-0.480310	0.557440
H155	H	-0.223743	-0.586821	0.390905
H156	H	0.164358	-0.552401	1.102897
O157	O	0.093564	-0.729559	0.636489
C158	C	0.054740	-0.754706	0.651723
H159	H	0.015541	-0.720427	0.640386
H160	H	0.075242	-0.785527	0.627890
C161	C	0.085733	-0.828949	0.729801
C162	C	0.037585	-0.786846	0.715881
H163	H	0.075152	-0.848777	0.769376
H164	H	0.111891	-0.812009	0.719536
H165	H	0.102813	-0.854627	0.709935
H166	H	0.020510	-0.761165	0.735741
H167	H	0.011424	-0.803783	0.726151
H168	H	0.054276	-0.458811	0.856808
H169	H	0.391352	-0.415667	0.574082
H170	H	-0.044554	-0.448327	1.102896
O171	O	0.204303	-0.006619	0.413897
C172	C	0.239511	-0.006513	0.434223
H173	H	0.212289	0.011124	0.470688
H174	H	0.268310	-0.051613	0.449737
C175	C	0.309275	0.009042	0.341425
C176	C	0.275840	0.030708	0.386208
H177	H	0.331687	0.032000	0.311807
H178	H	0.285556	0.008968	0.327731
H179	H	0.333269	-0.028541	0.354361
H180	H	0.251842	0.068288	0.373274
H181	H	0.299556	0.030789	0.399899
O182	O	0.025586	-0.007165	0.414600
C183	C	-0.030051	-0.007170	0.435229
H184	H	-0.044926	-0.024974	0.483440
H185	H	-0.059348	0.037984	0.420906
C186	C	-0.012886	-0.022254	0.352771
C187	C	-0.031154	-0.044126	0.411985
H188	H	-0.013568	-0.045048	0.338431
H189	H	0.024597	-0.022249	0.338872
H190	H	-0.037303	0.015374	0.340842
H191	H	-0.006733	-0.081750	0.423912
H192	H	-0.068634	-0.044138	0.425886
O193	O	-0.050647	-0.618839	1.102741
C194	C	-0.030030	-0.674478	1.102725
H195	H	0.018180	-0.689385	1.084935
H196	H	-0.044362	-0.703765	1.147872
C197	C	-0.112484	-0.657246	1.087601
C198	C	-0.053272	-0.675553	1.065747
H199	H	-0.126823	-0.657910	1.064793
H200	H	-0.126376	-0.619761	1.087614
H201	H	-0.124421	-0.681654	1.125223
H202	H	-0.041337	-0.651140	1.028128
H203	H	-0.039379	-0.713034	1.065726
H204	H	0.194117	-0.582425	0.964198
O205	O	0.025816	-0.439885	0.414418
C206	C	-0.029802	-0.404773	0.434960
H207	H	-0.056622	-0.432086	0.471310
H208	H	-0.028948	-0.376202	0.450699
C209	C	-0.022542	-0.334571	0.342387
C210	C	-0.055483	-0.368118	0.387030
H211	H	-0.038383	-0.311959	0.312822
H212	H	0.014930	-0.358225	0.328548
H213	H	-0.021833	-0.310767	0.355511
H214	H	-0.056186	-0.391926	0.373908
H215	H	-0.092956	-0.344467	0.400866
H216	H	0.498884	-0.625426	0.604536
O217	O	0.239040	-0.548854	0.852130
C218	C	0.268825	-0.583170	0.890963
H219	H	0.240586	-0.575617	0.933209
H220	H	0.281613	-0.629582	0.897253
C221	C	0.356913	-0.577435	0.815929
C222	C	0.322231	-0.568156	0.867815
H223	H	0.389858	-0.568177	0.801651
H224	H	0.336847	-0.554318	0.789767
H225	H	0.367564	-0.616113	0.821179
H226	H	0.311575	-0.529478	0.862564
H227	H	0.342297	-0.591267	0.893977
H228	H	-0.076633	-0.007113	0.630069
H229	H	0.092195	-0.007066	0.629560
O230	O	0.023961	-0.763724	0.353682
C231	C	0.003738	-0.788299	0.339121
H232	H	-0.032753	-0.754529	0.322750
H233	H	0.039321	-0.807043	0.304768
C234	C	0.027696	-0.876916	0.411842
C235	C	-0.017127	-0.835441	0.391739
H236	H	0.014828	-0.905998	0.444298
H237	H	0.041323	-0.860361	0.421651
H238	H	0.057345	-0.892530	0.383210
H239	H	-0.046770	-0.819823	0.420369
H240	H	-0.030758	-0.851995	0.381937
H241	H	0.196241	-0.616742	0.420869
H242	H	0.054136	-0.458786	0.651283
H243	H	0.193817	-0.582360	0.527624
H244	H	0.229667	-0.546519	0.563426
H245	H	-0.116569	-0.710512	0.530934
H246	H	0.391402	-0.589605	0.640414
H247	H	0.185713	-0.253197	0.519589
O248	O	0.503411	-0.445433	0.533772
C249	C	0.464550	-0.390176	0.530614
H250	H	0.422305	-0.387869	0.534518
H251	H	0.458275	-0.379115	0.566508
C252	C	0.539528	-0.350706	0.468610
C253	C	0.487643	-0.347872	0.473400
H254	H	0.553773	-0.324611	0.433319
H255	H	0.565710	-0.387934	0.470739
H256	H	0.534291	-0.341490	0.498525
H257	H	0.492882	-0.357095	0.443490
H258	H	0.461462	-0.310645	0.471264
H259	H	0.062174	-0.145744	0.659359
O260	O	0.152148	-0.141128	0.474621
C261	C	0.186429	-0.179973	0.444856
H262	H	0.208000	-0.222213	0.473098
H263	H	0.159081	-0.186280	0.432099
C264	C	0.205184	-0.104949	0.356737
C265	C	0.231682	-0.156827	0.391423
H266	H	0.233097	-0.090671	0.323776
H267	H	0.182087	-0.078778	0.376790
H268	H	0.182395	-0.110212	0.346112
H269	H	0.254464	-0.151562	0.402053
H270	H	0.254784	-0.182997	0.371371
H271	H	0.098041	-0.253238	0.695156
H272	H	-0.065911	-0.578960	0.348925
O273	O	-0.032222	-0.534030	0.236862
C274	C	-0.066558	-0.504246	0.275692
H275	H	-0.088157	-0.532472	0.317905
H276	H	-0.039250	-0.491502	0.282066
C277	C	-0.085249	-0.416133	0.200625
C278	C	-0.111781	-0.450799	0.252471
H279	H	-0.113143	-0.383163	0.186302
H280	H	-0.062114	-0.436198	0.174465
H281	H	-0.062493	-0.405519	0.205944
H282	H	-0.134530	-0.461418	0.247151
H283	H	-0.134920	-0.430735	0.278631
H284	H	-0.065985	-0.578958	0.399332
O285	O	0.023868	-0.763725	0.489578
C286	C	0.058076	-0.793508	0.523987
H287	H	0.079621	-0.765286	0.516487
H288	H	0.030675	-0.806246	0.570372
C289	C	0.076894	-0.881623	0.518258
C290	C	0.103359	-0.846961	0.509042
H291	H	0.104824	-0.914597	0.509042
H292	H	0.053845	-0.861558	0.495078
H293	H	0.054060	-0.892232	0.556912
H294	H	0.126186	-0.836348	0.470387
H295	H	0.126412	-0.867026	0.532215
O296	O	0.070795	-0.756508	0.405875
C297	C	0.126025	-0.795414	0.402777
H298	H	0.123711	-0.837633	0.437777
H299	H	0.148697	-0.801744	0.359844
C300	C	0.161694	-0.720480	0.367124
C301	C	0.158852	-0.772332	0.410114
H302	H	0.181945	-0.706241	0.371647
H303	H	0.124486	-0.694267	0.369209
H304	H	0.180587	-0.725762	0.331350
H305	H	0.139954	-0.767048	0.445887
H306	H	0.196058	-0.798544	0.408036
O307	O	-0.079530	-0.872924	0.516641
C308	C	-0.134762	-0.834019	0.519755
H309	H	-0.137025	-0.791775	0.515810
H310	H	-0.145823	-0.827754	0.483865
C311	C	-0.174317	-0.908935	0.581812
C312	C	-0.177098	-0.857052	0.576971
H313	H	-0.200432	-0.923143	0.617104
H314	H	-0.137106	-0.935147	0.579712
H315	H	-0.183533	-0.903708	0.551900
H316	H	-0.167875	-0.862281	0.606878
H317	H	-0.214308	-0.830842	0.579077
O318	O	-0.228643	-0.676866	0.575740
C319	C	-0.189868	-0.711194	0.605589
H320	H	-0.147607	-0.732775	0.577384
H321	H	-0.183592	-0.683879	0.618414
C322	C	-0.264984	-0.729932	0.693613
C323	C	-0.213080	-0.756442	0.658972
H324	H	-0.279302	-0.757842	0.726543
H325	H	-0.291108	-0.706803	0.673504
H326	H	-0.259746	-0.707171	0.704294
H327	H	-0.218319	-0.779197	0.648286
H328	H	-0.186957	-0.779576	0.679081
O329	O	-0.111667	-0.620503	0.346099
C330	C	-0.150442	-0.586154	0.316250
H331	H	-0.192708	-0.593656	0.344437
H332	H	-0.156706	-0.539753	0.303470
C333	C	-0.075331	-0.591967	0.228211
C334	C	-0.127241	-0.601185	0.262829
H335	H	-0.061019	-0.601236	0.195257
H336	H	-0.049207	-0.615107	0.248320
H337	H	-0.080558	-0.553299	0.217567
H338	H	-0.122012	-0.639854	0.273478
H339	H	-0.153364	-0.578052	0.242720
H340	H	0.057785	-0.718806	0.241554
H341	H	0.100481	-0.868567	0.446139
H342	H	-0.030233	-0.543188	0.435308
