data_functionalizedCrystal
_audit_creation_method	'MofGen! by Chris Wilmer'
_symmetry_space_group_name_H-M	'P1'
_symmetry_Int_Tables_number	1
_symmetry_cell_setting	triclinic
loop_
_symmetry_equiv_pos_as_xyz
  x,y,z
_cell_length_a	10.654550
_cell_length_b	19.288865
_cell_length_c	9.130313
_cell_angle_alpha	89.990258
_cell_angle_beta	89.999724
_cell_angle_gamma	83.810589
loop_
_atom_site_label
_atom_site_type_symbol
_atom_site_fract_x
_atom_site_fract_y
_atom_site_fract_z
O1	O	1.665751	0.097555	-0.121709
O2	O	1.300074	0.106849	-0.121738
O3	O	1.493479	0.001141	-0.121693
O4	O	1.472346	0.203263	-0.121753
O5	O	1.493466	0.001138	0.121905
O6	O	1.300061	0.106846	0.121861
O7	O	1.665738	0.097552	0.121890
Cu8	Cu	1.482898	0.102198	0.144118
Cu9	Cu	1.482914	0.102202	-0.143966
O10	O	1.472333	0.203260	0.121846
C11	C	1.253284	0.106165	0.000059
C12	C	1.113884	0.104123	0.000049
C13	C	1.033066	0.166363	0.000035
C14	C	0.902087	0.164440	0.000061
C15	C	0.932756	0.038033	0.000109
C16	C	1.063733	0.039956	0.000094
C17	C	1.492792	-0.024742	0.000110
C18	C	1.490751	-0.101859	0.000123
C19	C	1.604232	-0.145812	0.000139
C20	C	1.602315	-0.218272	0.000116
C21	C	1.486909	-0.246775	0.000106
C22	C	1.373413	-0.202812	0.000081
C23	C	1.375334	-0.130354	0.000090
C24	C	1.396183	-0.355657	0.085426
C25	C	1.394266	-0.428114	0.085426
C26	C	1.480980	-0.470259	0.000073
C27	C	1.569631	-0.439940	-0.085263
C28	C	1.571552	-0.367482	-0.085254
C29	C	1.484814	-0.325343	0.000095
C30	C	1.592390	-0.592782	0.000061
C31	C	1.590467	-0.665243	0.000029
C32	C	1.361562	-0.649781	0.000009
C33	C	1.363488	-0.577322	0.000027
C34	C	1.478905	-0.548827	0.000060
C35	C	1.712528	0.098236	0.000090
C36	C	1.851928	0.100277	0.000091
C37	C	1.473020	0.229142	0.000039
C38	C	1.475061	0.306259	0.000016
N39	N	1.482896	0.102195	0.346741
N40	N	1.482925	0.102200	-0.346588
C41	C	1.568565	0.055408	0.423412
C42	C	1.568577	0.055408	0.576749
C43	C	1.397248	0.148990	0.576729
C44	C	1.397231	0.148986	0.423395
H45	H	1.129539	-0.010730	0.000109
C46	C	1.227883	0.241483	0.561308
C47	C	1.303088	0.200420	0.660992
H48	H	1.169747	0.273231	0.613329
H49	H	1.279998	0.266737	0.501487
H50	H	1.182884	0.212326	0.501519
H51	H	1.348094	0.229577	0.720774
H52	H	1.250966	0.175164	0.720838
C53	C	1.244709	-0.039889	-0.125141
C54	C	1.250585	-0.082036	0.000078
H55	H	1.167689	-0.010063	-0.125148
H56	H	1.313708	-0.012548	-0.125113
H57	H	1.248725	-0.068474	-0.210084
H58	H	1.246578	-0.053451	0.085022
H59	H	1.181567	-0.109379	0.000064
C60	C	1.165881	-0.658895	-0.125240
C61	C	1.234704	-0.681103	-0.000008
H62	H	1.087566	-0.678238	-0.125257
H63	H	1.150788	-0.609457	-0.125220
H64	H	1.212611	-0.673941	-0.210174
H65	H	1.187978	-0.666053	0.084927
H66	H	1.249793	-0.730552	-0.000015
C67	C	1.162590	0.241856	0.125205
C68	C	1.088201	0.236892	-0.000004
H69	H	1.196630	0.285397	0.125174
H70	H	1.112139	0.238482	0.210146
H71	H	1.229465	0.205060	0.125193
H72	H	1.021320	0.273685	0.000013
H73	H	1.138655	0.240272	-0.084967
C74	C	1.721123	-0.755672	-0.125203
C75	C	1.715219	-0.713557	0.000035
H76	H	1.798145	-0.785495	-0.125202
H77	H	1.652127	-0.783015	-0.125212
H78	H	1.717119	-0.727064	-0.210133
H79	H	1.719213	-0.742166	0.084966
H80	H	1.784233	-0.686212	0.000058
H81	H	1.638317	0.017307	0.361003
H82	H	1.271079	-0.541534	0.000022
H83	H	1.640241	-0.474253	-0.154767
C84	C	0.745594	-0.021043	0.000139
C85	C	0.877624	-0.032497	0.000139
H86	H	0.711563	-0.064587	0.000145
H87	H	0.717841	0.004604	0.085076
H88	H	0.717837	0.004612	-0.084821
H89	H	0.905381	-0.058148	0.085105
H90	H	0.905388	-0.058155	-0.084807
H91	H	1.698214	-0.122616	0.000161
C92	C	1.828770	-0.226284	0.000174
C93	C	1.727062	-0.266597	0.000144
H94	H	1.905781	-0.256118	0.000202
H95	H	1.824777	-0.197697	-0.084769
H96	H	1.824739	-0.197705	0.085128
H97	H	1.731088	-0.295172	-0.084816
H98	H	1.731057	-0.295196	0.085096
H99	H	0.836289	0.215122	0.000052
H100	H	1.325567	-0.321348	0.154939
H101	H	1.643732	-0.342798	-0.154740
H102	H	1.327464	0.187086	0.360965
H103	H	1.322076	-0.452794	0.154903
C104	C	1.737935	-0.037086	0.561356
C105	C	1.662751	0.003980	0.661026
H106	H	1.796080	-0.068834	0.613388
H107	H	1.685806	-0.062341	0.501573
H108	H	1.782923	-0.007932	0.501528
H109	H	1.617756	-0.025174	0.720847
H110	H	1.714886	0.029237	0.720835
C111	C	1.177737	-0.211939	-0.125169
C112	C	1.246558	-0.234141	0.000067
H113	H	1.099423	-0.231284	-0.125185
H114	H	1.162639	-0.162501	-0.125157
H115	H	1.224470	-0.226986	-0.210100
H116	H	1.199829	-0.219089	0.084999
H117	H	1.261652	-0.283590	0.000068
C118	C	1.818457	-0.615340	0.000044
C119	C	1.719252	-0.561454	0.000062
H120	H	1.896775	-0.595999	0.000030
H121	H	1.812954	-0.643287	0.084984
H122	H	1.812932	-0.643271	-0.084913
H123	H	1.724772	-0.533526	0.085025
H124	H	1.724758	-0.533495	-0.084887
