data_functionalizedCrystal
_audit_creation_method	'MofGen! by Chris Wilmer'
_symmetry_space_group_name_H-M	'P1'
_symmetry_Int_Tables_number	1
_symmetry_cell_setting	triclinic
loop_
_symmetry_equiv_pos_as_xyz
  x,y,z
_cell_length_a	12.827893
_cell_length_b	16.120444
_cell_length_c	12.827885
_cell_angle_alpha	87.135329
_cell_angle_beta	90.019272
_cell_angle_gamma	92.926466
loop_
_atom_site_label
_atom_site_type_symbol
_atom_site_fract_x
_atom_site_fract_y
_atom_site_fract_z
Zn1	Zn	1.576496	-0.331868	0.611901
Zn2	Zn	1.567494	-0.471303	0.446006
Zn3	Zn	1.401735	-0.331908	0.437177
Zn4	Zn	1.392831	-0.471241	0.620702
O5	O	1.484639	-0.401580	0.528946
O6	O	1.721537	-0.350373	0.589906
O7	O	1.545465	-0.452855	0.298601
O8	O	1.432411	-0.215237	0.452976
O9	O	1.714924	-0.452816	0.468024
O10	O	1.560808	-0.215207	0.581345
O11	O	1.423682	-0.350442	0.292115
O12	O	1.254318	-0.350382	0.461510
O13	O	1.417235	-0.452710	0.765768
O14	O	1.247776	-0.452750	0.596346
O15	O	1.552173	-0.350313	0.759302
O16	O	1.536831	-0.587961	0.476558
O17	O	1.408506	-0.587915	0.604907
C18	C	1.213130	-0.401564	0.528926
C19	C	1.096976	-0.401577	0.528943
C20	C	1.041977	-0.452311	0.595570
C21	C	0.921925	-0.452326	0.595590
C22	C	1.470754	-0.618188	0.542669
C23	C	1.464909	-0.710854	0.548574
C24	C	1.515214	-0.921799	0.498537
C25	C	1.454258	-0.880510	0.559367
C26	C	1.460186	-0.786105	0.553360
C27	C	1.509287	-1.016213	0.504543
C28	C	1.757208	-0.401597	0.528968
C29	C	1.873361	-0.401604	0.528977
C30	C	1.484715	-0.401500	0.801512
C31	C	1.484748	-0.401466	0.917663
C32	C	1.498607	-0.184126	0.515194
C33	C	1.504559	-0.091460	0.509333
C34	C	1.484627	-0.401600	0.257438
C35	C	1.484812	-0.401399	0.141272
C36	C	1.551527	-0.350787	0.966247
C37	C	1.551562	-0.350750	1.086295
H38	H	0.874640	-0.495763	0.652629
H39	H	1.397620	-0.916063	0.615955
H40	H	1.083767	-0.495732	0.652602
Cl41	Cl	1.639736	-0.283815	0.893257
H42	H	1.571847	-0.886250	0.441951
H43	H	1.608737	-0.307365	1.128089
Cl44	Cl	0.946354	-0.334542	0.440895
Cl45	Cl	1.396540	-0.468398	1.076760
H46	H	1.427595	-0.444822	0.964943
H47	H	1.055186	-0.358150	0.471918
