data_functionalizedCrystal
_audit_creation_method	'MofGen! by Chris Wilmer'
_symmetry_space_group_name_H-M	'P1'
_symmetry_Int_Tables_number	1
_symmetry_cell_setting	triclinic
loop_
_symmetry_equiv_pos_as_xyz
  x,y,z
_cell_length_a	29.839134
_cell_length_b	29.839131
_cell_length_c	12.759387
_cell_angle_alpha	89.962744
_cell_angle_beta	89.965041
_cell_angle_gamma	90.034165
loop_
_atom_site_label
_atom_site_type_symbol
_atom_site_fract_x
_atom_site_fract_y
_atom_site_fract_z
Zn1	Zn	0.686767	-0.178917	-0.594363
Zn2	Zn	0.686685	-0.254054	-0.418663
Zn3	Zn	0.611636	-0.178929	-0.418655
Zn4	Zn	0.611597	-0.254011	-0.594258
O5	O	0.649171	-0.216478	-0.506485
O6	O	0.749623	-0.188896	-0.571103
O7	O	0.676711	-0.244112	-0.271641
O8	O	0.621652	-0.116061	-0.442004
O9	O	0.749563	-0.244100	-0.442017
O10	O	0.676851	-0.116051	-0.571095
O11	O	0.621573	-0.188919	-0.271635
O12	O	0.548763	-0.188876	-0.441902
O13	O	0.621587	-0.244026	-0.741293
O14	O	0.548735	-0.244038	-0.570917
O15	O	0.676814	-0.188854	-0.741370
O16	O	0.676674	-0.316916	-0.441916
O17	O	0.621508	-0.316884	-0.570925
C18	C	0.532449	-0.216454	-0.506398
C19	C	0.482514	-0.216455	-0.506386
C20	C	0.125929	-0.187712	-0.439444
C21	C	0.313602	-0.187700	-0.439380
O22	O	0.337869	-0.163224	-0.382367
N23	N	0.337069	-0.216462	-0.506439
C24	C	0.313615	-0.245228	-0.573522
O25	O	0.337881	-0.269689	-0.630566
C26	C	0.125943	-0.245238	-0.573591
C27	C	0.102478	-0.216477	-0.506521
C28	C	0.102465	-0.158953	-0.372380
C29	C	0.055549	-0.158958	-0.372393
C30	C	0.032098	-0.187723	-0.439469
C31	C	0.055563	-0.216482	-0.506533
C32	C	0.102489	-0.274002	-0.640679
C33	C	0.055568	-0.274001	-0.640692
C34	C	0.032104	-0.245239	-0.573622
C35	C	-0.014804	-0.245252	-0.573622
N36	N	-0.038271	-0.216489	-0.506564
C37	C	-0.014819	-0.187725	-0.439488
C38	C	0.412145	-0.245222	-0.573480
C39	C	0.459063	-0.245220	-0.573462
C40	C	0.459048	-0.187691	-0.439321
C41	C	0.412129	-0.187695	-0.439335
C42	C	0.388679	-0.216459	-0.506422
C43	C	-0.113345	-0.187738	-0.439518
C44	C	-0.160265	-0.187747	-0.439534
C45	C	-0.160245	-0.245274	-0.573678
C46	C	-0.113330	-0.245267	-0.573659
C47	C	-0.089881	-0.216495	-0.506576
O48	O	-0.039099	-0.269712	-0.630615
O49	O	-0.039094	-0.163260	-0.382469
C50	C	0.172845	-0.187707	-0.439432
C51	C	0.196309	-0.216467	-0.506495
C52	C	0.172858	-0.245231	-0.573572
C53	C	0.243227	-0.216465	-0.506477
C54	C	0.266678	-0.187700	-0.439401
C55	C	0.243211	-0.158938	-0.372343
C56	C	0.196296	-0.158943	-0.372355
C57	C	0.196325	-0.273994	-0.640630
C58	C	0.243240	-0.273987	-0.640611
C59	C	0.266691	-0.245222	-0.573535
C60	C	0.649090	-0.333200	-0.506433
C61	C	0.649097	-0.383135	-0.506446
C62	C	0.677949	-0.692782	-0.439408
C63	C	0.678004	-0.880455	-0.439449
O64	O	0.702471	-0.904723	-0.382411
N65	N	0.649264	-0.903920	-0.506564
C66	C	0.620511	-0.880463	-0.573679
O67	O	0.596070	-0.904728	-0.630773
C68	C	0.620458	-0.692791	-0.573643
C69	C	0.649196	-0.669329	-0.506515
C70	C	0.706685	-0.669320	-0.372288
C71	C	0.706669	-0.622404	-0.372274
C72	C	0.677917	-0.598951	-0.439381
C73	C	0.649181	-0.622413	-0.506502
C74	C	0.591707	-0.669335	-0.640762
C75	C	0.591697	-0.622414	-0.640748
C76	C	0.620436	-0.598952	-0.573621
C77	C	0.620412	-0.552045	-0.573596
N78	N	0.649152	-0.528580	-0.506480
C79	C	0.677904	-0.552033	-0.439373
C80	C	0.620540	-0.978994	-0.573692
C81	C	0.620553	-1.025912	-0.573700
C82	C	0.678047	-1.025900	-0.439471
C83	C	0.678031	-0.978982	-0.439459
C84	C	0.649280	-0.955529	-0.506577
C85	C	0.677869	-0.453508	-0.439349
C86	C	0.677849	-0.406588	-0.439338
C87	C	0.620357	-0.406603	-0.573570
C88	C	0.620375	-0.453519	-0.573578
C89	C	0.649134	-0.476970	-0.506464
O90	O	0.595962	-0.527748	-0.630612
O91	O	0.702348	-0.527761	-0.382304
C92	C	0.677965	-0.739698	-0.439422
C93	C	0.649228	-0.763160	-0.506543
C94	C	0.620476	-0.739707	-0.573650
C95	C	0.649241	-0.810078	-0.506551
C96	C	0.677993	-0.833531	-0.439443
C97	C	0.706733	-0.810066	-0.372328
C98	C	0.706717	-0.763151	-0.372315
C99	C	0.591736	-0.763171	-0.640765
C100	C	0.591754	-0.810087	-0.640772
C101	C	0.620506	-0.833540	-0.573665
C102	C	0.766350	-0.216502	-0.506573
C103	C	0.816284	-0.216512	-0.506610
C104	C	0.649205	-0.216434	-0.780519
C105	C	0.649220	-0.216415	-0.897295
C106	C	0.649265	-0.099299	-0.506560
C107	C	0.649305	-0.049365	-0.506592
C108	C	0.706731	-0.158969	-0.897395
C109	C	0.735493	-0.130239	-0.952306
C110	C	0.735504	-0.130223	-1.062028
C111	C	0.706749	-0.158938	-1.116841
C112	C	0.677987	-0.187668	-1.061930
C113	C	0.677980	-0.187682	-0.952206
C114	C	0.620474	-0.245111	-1.061831
C115	C	0.620465	-0.245131	-0.952109
C116	C	0.591719	-0.273827	-1.116644
C117	C	0.562958	-0.302560	-1.061733
C118	C	0.562949	-0.302575	-0.952005
C119	C	0.591703	-0.273860	-0.897198
C120	C	0.649163	-0.216489	-0.233517
C121	C	0.649236	-0.216381	-0.116741
H122	H	-0.094259	-0.164307	-0.384898
H123	H	-0.094224	-0.268690	-0.628265
H124	H	0.701288	-0.472596	-0.384701
H125	H	0.758922	-0.106825	-1.106736
H126	H	0.393027	-0.164273	-0.384724
C127	C	0.128290	-0.305636	-0.714467
H128	H	0.107597	-0.322760	-0.754421
H129	H	0.146571	-0.325194	-0.674208
H130	H	0.146613	-0.288466	-0.760315
C131	C	0.738333	-0.737348	-0.298482
H132	H	0.755459	-0.758041	-0.258530
H133	H	0.721157	-0.719074	-0.252650
H134	H	0.757896	-0.719017	-0.338725
H135	H	0.596975	-0.472623	-0.628241
H136	H	0.036449	-0.135538	-0.317778
H137	H	0.730072	-0.603304	-0.317617
C138	C	0.029773	-0.305642	-0.714487
H139	H	-0.001530	-0.301525	-0.704901
H140	H	0.037444	-0.335818	-0.698988
H141	H	0.037489	-0.299095	-0.785104
H142	H	0.478164	-0.268645	-0.628066
C143	C	0.588938	-1.051717	-0.647530
H144	H	0.593059	-1.083020	-0.637927
H145	H	0.595496	-1.043998	-0.718134
H146	H	0.558753	-1.044058	-0.632067
C147	C	0.531333	-0.334143	-1.122028
H148	H	0.535459	-0.330019	-1.195237
H149	H	0.501152	-0.327565	-1.104020
H150	H	0.537885	-0.364334	-1.104036
C151	C	0.706759	-0.158917	-1.237532
H152	H	0.728007	-0.137695	-1.262384
H153	H	0.677777	-0.151138	-1.262330
H154	H	0.714508	-0.187908	-1.262340
H155	H	0.568303	-0.688430	-0.695419
C156	C	0.269046	-0.305626	-0.714395
H157	H	0.248356	-0.322753	-0.754349
H158	H	0.287329	-0.325181	-0.674133
H159	H	0.287368	-0.288455	-0.760244
C160	C	0.738359	-0.835871	-0.298511
H161	H	0.734251	-0.867173	-0.308145
H162	H	0.731800	-0.828213	-0.227899
H163	H	0.768541	-0.828152	-0.313972
H164	H	-0.179368	-0.164325	-0.384914
H165	H	-0.179347	-0.268695	-0.628286
H166	H	0.596945	-0.387501	-0.628205
H167	H	0.177195	-0.135522	-0.317741
H168	H	0.262313	-0.135518	-0.317723
C169	C	0.591731	-0.273810	-1.237335
H170	H	0.612982	-0.252591	-1.262189
H171	H	0.562750	-0.266029	-1.262139
H172	H	0.599478	-0.302803	-1.262135
H173	H	0.758904	-0.106859	-0.907665
C174	C	0.706722	-0.158987	-0.776705
H175	H	0.727964	-0.137770	-0.751924
H176	H	0.714461	-0.187985	-0.751869
H177	H	0.677735	-0.151209	-0.751861
C178	C	0.560140	-0.835890	-0.714619
H179	H	0.543019	-0.815198	-0.754588
H180	H	0.540578	-0.854227	-0.674397
H181	H	0.577327	-0.854158	-0.760452
C182	C	0.709672	-1.051704	-0.365652
H183	H	0.705563	-1.083007	-0.375280
H184	H	0.703114	-1.044045	-0.295040
H185	H	0.739854	-1.043988	-0.381115
H186	H	0.177236	-0.297418	-0.695254
H187	H	0.701251	-0.387486	-0.384672
H188	H	0.539523	-0.325966	-0.907303
C189	C	0.709647	-0.953177	-0.365628
H190	H	0.726773	-0.973869	-0.325671
H191	H	0.692470	-0.934902	-0.319800
H192	H	0.729211	-0.934848	-0.405873
C193	C	0.560070	-0.596619	-0.714581
H194	H	0.542956	-0.617315	-0.754551
H195	H	0.577239	-0.578286	-0.760397
H196	H	0.540494	-0.578348	-0.674335
C197	C	0.591691	-0.273877	-0.776508
H198	H	0.570445	-0.295101	-0.751652
H199	H	0.583948	-0.244886	-0.751704
H200	H	0.620674	-0.281661	-0.751708
H201	H	0.597126	-0.959902	-0.628349
H202	H	0.568323	-0.744079	-0.695413
H203	H	0.121554	-0.135527	-0.317759
H204	H	0.730101	-0.688410	-0.317640
H205	H	0.393056	-0.268646	-0.628113
C206	C	0.484849	-0.156047	-0.365547
H207	H	0.516152	-0.160165	-0.375155
H208	H	0.477138	-0.162580	-0.294926
H209	H	0.477183	-0.125869	-0.381071
