data_functionalizedCrystal
_audit_creation_method	'MofGen! by Chris Wilmer'
_symmetry_space_group_name_H-M	'P1'
_symmetry_Int_Tables_number	1
_symmetry_cell_setting	triclinic
loop_
_symmetry_equiv_pos_as_xyz
  x,y,z
_cell_length_a	12.827893
_cell_length_b	18.101395
_cell_length_c	12.827885
_cell_angle_alpha	89.967625
_cell_angle_beta	89.980728
_cell_angle_gamma	90.031075
loop_
_atom_site_label
_atom_site_type_symbol
_atom_site_fract_x
_atom_site_fract_y
_atom_site_fract_z
Zn1	Zn	1.597556	-0.294794	-0.590830
Zn2	Zn	1.930889	0.038539	-0.257496
Zn3	Zn	2.264222	0.371872	0.075837
Zn4	Zn	1.597402	-0.418654	-0.416082
Zn5	Zn	1.930735	-0.085320	-0.082749
Zn6	Zn	2.264068	0.248013	0.250584
Zn7	Zn	1.422797	-0.294830	-0.416103
Zn8	Zn	1.756130	0.038503	-0.082770
Zn9	Zn	2.089464	0.371836	0.250563
Zn10	Zn	1.422734	-0.418598	-0.590782
Zn11	Zn	1.756068	-0.085265	-0.257449
Zn12	Zn	2.089401	0.248068	0.075884
O13	O	1.510122	-0.356719	-0.503449
O14	O	1.843455	-0.023386	-0.170116
O15	O	2.176789	0.309947	0.163217
O16	O	1.743771	-0.311233	-0.567660
O17	O	2.077104	0.022101	-0.234327
O18	O	2.410438	0.355434	0.099006
O19	O	1.574202	-0.402266	-0.269849
O20	O	1.907535	-0.068933	0.063484
O21	O	2.240868	0.264400	0.396818
O22	O	1.446070	-0.191193	-0.439310
O23	O	1.779403	0.142141	-0.105977
O24	O	2.112736	0.475474	0.227357
O25	O	1.743658	-0.402231	-0.439274
O26	O	2.076991	-0.068898	-0.105941
O27	O	2.410325	0.264435	0.227393
O28	O	1.574464	-0.191166	-0.567681
O29	O	1.907797	0.142167	-0.234347
O30	O	2.241131	0.475500	0.098986
O31	O	1.445920	-0.311294	-0.269865
O32	O	1.779254	0.022039	0.063469
O33	O	2.112587	0.355373	0.396802
O34	O	1.276553	-0.311241	-0.439264
O35	O	1.609886	0.022093	-0.105931
O36	O	1.943219	0.355426	0.227403
O37	O	1.445963	-0.402137	-0.737025
O38	O	1.779296	-0.068804	-0.403691
O39	O	2.112630	0.264529	-0.070358
O40	O	1.276507	-0.402172	-0.567600
O41	O	1.609840	-0.068839	-0.234266
O42	O	1.943173	0.264494	0.099067
O43	O	1.574403	-0.311179	-0.737060
O44	O	1.907737	0.022154	-0.403726
O45	O	2.241070	0.355488	-0.070393
O46	O	1.574141	-0.522279	-0.439228
O47	O	1.907474	-0.188946	-0.105894
O48	O	2.240808	0.144387	0.227439
O49	O	1.445814	-0.522239	-0.567579
O50	O	1.779147	-0.188905	-0.234246
O51	O	2.112480	0.144428	0.099088
C52	C	1.238612	-0.356705	-0.503430
C53	C	1.571946	-0.023372	-0.170096
C54	C	1.905279	0.309962	0.163237
C55	C	1.122459	-0.356717	-0.503446
C56	C	1.455792	-0.023383	-0.170112
C57	C	1.789126	0.309950	0.163221
C58	C	1.070679	-0.401783	-0.566852
C59	C	1.404012	-0.068450	-0.233519
C60	C	1.737346	0.264884	0.099814
C61	C	0.950629	-0.401796	-0.566871
C62	C	1.283962	-0.068463	-0.233537
C63	C	1.617295	0.264871	0.099796
C64	C	1.509982	-0.549130	-0.503419
C65	C	1.843316	-0.215796	-0.170085
C66	C	2.176649	0.117537	0.163248
C67	C	1.510018	-0.631444	-0.503440
C68	C	1.843351	-0.298111	-0.170107
C69	C	2.176685	0.035223	0.163226
C70	C	1.510247	-0.930535	-0.503497
C71	C	1.843581	-0.597201	-0.170163
C72	C	2.176914	-0.263868	0.163170
C73	C	1.429695	-0.899215	-0.584452
C74	C	1.763028	-0.565882	-0.251119
C75	C	2.096361	-0.232548	0.082214
C76	C	1.429312	-0.813597	-0.584199
C77	C	1.762645	-0.480264	-0.250866
C78	C	2.095978	-0.146930	0.082467
C79	C	1.510134	-0.782152	-0.503470
C80	C	1.843467	-0.448819	-0.170136
C81	C	2.176800	-0.115486	0.163197
C82	C	1.480314	-0.813311	-0.393335
C83	C	1.813647	-0.479977	-0.060002
C84	C	2.146981	-0.146644	0.273331
C85	C	1.479795	-0.898956	-0.393820
C86	C	1.813128	-0.565622	-0.060486
C87	C	2.146461	-0.232289	0.272847
C88	C	1.620796	-0.898877	-0.531706
C89	C	1.954130	-0.565543	-0.198373
C90	C	2.287463	-0.232210	0.134961
C91	C	1.620146	-0.813226	-0.534121
C92	C	1.953480	-0.479892	-0.200788
C93	C	2.286813	-0.146559	0.132545
C94	C	1.510071	-0.698293	-0.503448
C95	C	1.843404	-0.364959	-0.170114
C96	C	2.176738	-0.031626	0.163219
C97	C	1.510307	-1.014394	-0.503511
C98	C	1.843641	-0.681061	-0.170178
C99	C	2.176974	-0.347728	0.163155
C100	C	1.782692	-0.356734	-0.503470
C101	C	2.116026	-0.023401	-0.170137
C102	C	2.449359	0.309933	0.163197
C103	C	1.898845	-0.356740	-0.503479
C104	C	2.232179	-0.023407	-0.170145
C105	C	2.565512	0.309926	0.163188
C106	C	1.510193	-0.356648	-0.776020
C107	C	1.843527	-0.023315	-0.442686
C108	C	2.176860	0.310019	-0.109353
C109	C	1.510224	-0.356618	-0.892173
C110	C	1.843557	-0.023284	-0.558840
C111	C	2.176890	0.310049	-0.225506
C112	C	1.510291	-0.163557	-0.503503
C113	C	1.843624	0.169776	-0.170170
C114	C	2.176958	0.503109	0.163164
C115	C	1.510363	-0.081243	-0.503526
C116	C	1.843696	0.252090	-0.170193
C117	C	2.177030	0.585424	0.163141
C118	C	1.573787	-0.311600	-0.943975
C119	C	1.907120	0.021733	-0.610642
C120	C	2.240454	0.355067	-0.277308
C121	C	1.573820	-0.311568	-1.064025
C122	C	1.907153	0.021766	-0.730692
C123	C	2.240486	0.355099	-0.397359
C124	C	1.510111	-0.356737	-0.231940
C125	C	1.843445	-0.023403	0.101394
C126	C	2.176778	0.309930	0.434727
C127	C	1.510284	-0.356558	-0.115787
C128	C	1.843617	-0.023225	0.217546
C129	C	2.176950	0.310108	0.550880
H130	H	1.448166	-0.919757	-0.666380
H131	H	1.781500	-0.586424	-0.333047
H132	H	2.114833	-0.253091	0.000286
O133	O	1.438167	-0.407640	-0.951146
O134	O	1.771500	-0.074307	-0.617813
O135	O	2.104833	0.259027	-0.284480
H136	H	1.356137	-0.394947	-0.930259
H137	H	1.689471	-0.061614	-0.596926
H138	H	2.022804	0.271720	-0.263593
O139	O	1.129670	-0.452864	-0.638773
O140	O	1.463003	-0.119531	-0.305440
O141	O	1.796336	0.213803	0.027893
H142	H	1.214705	-0.444832	-0.627481
H143	H	1.548038	-0.111498	-0.294148
H144	H	1.881372	0.221835	0.039185
O145	O	1.438174	-0.407612	-1.056806
O146	O	1.771508	-0.074278	-0.723473
O147	O	2.104841	0.259055	-0.390140
H148	H	1.484928	-0.445277	-1.007061
H149	H	1.818262	-0.111944	-0.673728
H150	H	2.151595	0.221389	-0.340394
O151	O	1.649957	-0.786237	-0.641475
O152	O	1.983290	-0.452903	-0.308141
O153	O	2.316623	-0.119570	0.025192
H154	H	1.586694	-0.750836	-0.672877
H155	H	1.920027	-0.417502	-0.339544
H156	H	2.253360	-0.084169	-0.006210
O157	O	0.891699	-0.452968	-0.638734
O158	O	1.225033	-0.119634	-0.305400
O159	O	1.558366	0.213699	0.027933
H160	H	0.912631	-0.440394	-0.720813
H161	H	1.245964	-0.107061	-0.387480
H162	H	1.579297	0.226273	-0.054146
O163	O	1.554137	-0.926400	-0.311194
O164	O	1.887470	-0.593066	0.022139
O165	O	2.220804	-0.259733	0.355472
H166	H	1.615859	-0.960393	-0.348242
H167	H	1.949192	-0.627059	-0.014909
H168	H	2.282526	-0.293726	0.318425
H169	H	1.077913	-0.318141	-0.449179
H170	H	1.411246	0.015193	-0.115846
H171	H	1.744580	0.348526	0.217488
H172	H	0.943368	-0.318158	-0.449188
H173	H	1.276701	0.015175	-0.115854
H174	H	1.610035	0.348509	0.217479
O175	O	1.453943	-0.785679	-0.692386
O176	O	1.787277	-0.452345	-0.359053
O177	O	2.120610	-0.119012	-0.025720
H178	H	1.466241	-0.833350	-0.745358
H179	H	1.799574	-0.500016	-0.412024
H180	H	2.132908	-0.166683	-0.078691
H181	H	1.683338	-0.791817	-0.479455
H182	H	2.016671	-0.458483	-0.146122
H183	H	2.350004	-0.125150	0.187212
O184	O	1.321805	-0.927794	-0.560014
O185	O	1.655138	-0.594461	-0.226681
O186	O	1.988472	-0.261127	0.106653
H187	H	1.325304	-0.964207	-0.490458
H188	H	1.658637	-0.630874	-0.157125
H189	H	1.991971	-0.297540	0.176209
H190	H	1.347370	-0.793175	-0.565514
H191	H	1.680704	-0.459842	-0.232180
H192	H	2.014037	-0.126508	0.101153
H193	H	1.398984	-0.919000	-0.369923
H194	H	1.732317	-0.585667	-0.036590
H195	H	2.065651	-0.252333	0.296743
H196	H	1.537139	-0.792944	-0.331373
H197	H	1.870472	-0.459611	0.001961
H198	H	2.203806	-0.126277	0.335294
O199	O	1.656804	-0.927401	-0.636280
O200	O	1.990137	-0.594068	-0.302947
O201	O	2.323470	-0.260735	0.030387
H202	H	1.730669	-0.958518	-0.626324
H203	H	2.064002	-0.625185	-0.292991
H204	H	2.397336	-0.291851	0.040342
H205	H	1.400359	-0.791927	-0.369010
H206	H	1.733692	-0.458594	-0.035677
H207	H	2.067026	-0.125261	0.297656
O208	O	1.700248	-0.925876	-0.453677
O209	O	2.033581	-0.592543	-0.120344
O210	O	2.366915	-0.259210	0.212990
H211	H	1.677947	-0.906960	-0.374461
H212	H	2.011281	-0.573627	-0.041128
H213	H	2.344614	-0.240294	0.292205
O214	O	1.645853	-0.260579	-0.885009
O215	O	1.979186	0.072754	-0.551676
O216	O	2.312519	0.406087	-0.218343
H217	H	1.634526	-0.268617	-0.799970
H218	H	1.967859	0.064716	-0.466637
H219	H	2.301193	0.398049	-0.133304
H220	H	1.628242	-0.273028	-1.108574
H221	H	1.961575	0.060305	-0.775241
H222	H	2.294909	0.393638	-0.441907
