data_functionalizedCrystal
_audit_creation_method	'MofGen! by Chris Wilmer'
_symmetry_space_group_name_H-M	'P1'
_symmetry_Int_Tables_number	1
_symmetry_cell_setting	triclinic
loop_
_symmetry_equiv_pos_as_xyz
  x,y,z
_cell_length_a	19.188930
_cell_length_b	17.666332
_cell_length_c	19.188930
_cell_angle_alpha	89.988397
_cell_angle_beta	96.855221
_cell_angle_gamma	90.023234
loop_
_atom_site_label
_atom_site_type_symbol
_atom_site_fract_x
_atom_site_fract_y
_atom_site_fract_z
O1	O	0.926150	0.063200	-0.087169
O2	O	1.426150	0.563200	0.412831
O3	O	0.722838	0.063149	-0.098903
O4	O	1.222838	0.563149	0.401097
O5	O	0.830361	0.063161	0.008620
O6	O	1.330361	0.563161	0.508620
O7	O	0.818627	0.063188	-0.194692
O8	O	1.318627	0.563188	0.305308
O9	O	0.830342	-0.062735	0.008625
O10	O	1.330342	0.437265	0.508625
O11	O	0.722820	-0.062747	-0.098897
O12	O	1.222820	0.437253	0.401103
O13	O	0.926131	-0.062697	-0.087163
O14	O	1.426131	0.437303	0.412837
Cu15	Cu	0.824473	-0.074217	-0.093030
Cu16	Cu	1.324473	0.425783	0.406970
Cu17	Cu	0.824496	0.074670	-0.093036
Cu18	Cu	1.324496	0.574670	0.406964
O19	O	0.818608	-0.062709	-0.194686
O20	O	1.318608	0.437291	0.305314
C21	C	0.696818	0.000194	-0.098520
C22	C	1.196818	0.500194	0.401480
C23	C	0.619313	0.000174	-0.097380
C24	C	1.119313	0.500174	0.402620
N25	N	0.824463	-0.178937	-0.093025
N26	N	1.324463	0.321063	0.406975
C27	C	0.574389	0.000194	-0.160470
C28	C	1.074389	0.500194	0.339530
C29	C	0.501566	0.000203	-0.159399
C30	C	1.001566	0.500203	0.340601
C31	C	0.473669	0.000206	-0.095233
C32	C	0.973669	0.500206	0.404767
C33	C	0.518603	0.000181	-0.032133
C34	C	1.018603	0.500181	0.467867
C35	C	0.591425	0.000166	-0.033207
C36	C	1.091425	0.500166	0.466793
N37	N	0.365695	0.043078	-0.046188
N38	N	0.865695	0.543078	0.453812
N39	N	0.296517	0.043095	-0.045172
N40	N	0.796517	0.543095	0.454828
C41	C	0.254260	0.000252	-0.091994
C42	C	0.754260	0.500252	0.408006
N43	N	0.283795	-0.042599	-0.139881
N44	N	0.783795	0.457401	0.360119
N45	N	0.352979	-0.042612	-0.140899
N46	N	0.852979	0.457388	0.359101
C47	C	0.394707	0.000222	-0.094062
C48	C	0.894707	0.500222	0.405938
C49	C	0.130372	0.000280	-0.153928
C50	C	0.630372	0.500280	0.346072
C51	C	0.057547	0.000283	-0.152853
C52	C	0.557547	0.500283	0.347147
C53	C	0.074586	0.000270	-0.025586
C54	C	0.574586	0.500270	0.474414
C55	C	0.147409	0.000258	-0.026662
C56	C	0.647409	0.500258	0.473338
C57	C	0.175298	0.000267	-0.090835
C58	C	0.675298	0.500267	0.409165
C59	C	0.872089	-0.218541	-0.045437
C60	C	1.372089	0.281459	0.454563
C61	C	0.872093	-0.297789	-0.045433
C62	C	1.372093	0.202211	0.454567
C63	C	0.824478	-0.337429	-0.093030
C64	C	1.324478	0.162571	0.406970
C65	C	0.776842	-0.297815	-0.140621
C66	C	1.276842	0.202185	0.359379
C67	C	0.776835	-0.218569	-0.140619
C68	C	1.276835	0.281431	0.359381
N69	N	0.815401	-0.461841	-0.154837
N70	N	1.315401	0.038159	0.345163
N71	N	0.815413	-0.537121	-0.154837
N72	N	1.315413	-0.037121	0.345163
C73	C	0.824496	-0.576193	-0.093040
C74	C	1.324496	-0.076193	0.406960
N75	N	0.833582	-0.537140	-0.031239
N76	N	1.333582	-0.037140	0.468761
N77	N	0.833574	-0.461853	-0.031240
N78	N	1.333574	0.038147	0.468760
C79	C	0.824480	-0.423358	-0.093038
C80	C	1.324480	0.076642	0.406962
C81	C	0.872130	-0.701727	-0.045444
C82	C	1.372130	-0.201727	0.454556
C83	C	0.872129	-0.780976	-0.045440
C84	C	1.372129	-0.280976	0.454560
C85	C	0.776881	-0.781000	-0.140634
C86	C	1.276881	-0.281000	0.359366
C87	C	0.776878	-0.701753	-0.140632
C88	C	1.276878	-0.201753	0.359368
C89	C	0.824506	-0.662121	-0.093038
C90	C	1.324506	-0.162121	0.406962
C91	C	0.952151	0.000260	-0.087546
C92	C	1.452151	0.500260	0.412454
C93	C	1.029656	0.000285	-0.088687
C94	C	1.529656	0.500285	0.411313
C95	C	0.829972	0.000211	0.034634
C96	C	1.329972	0.500211	0.534634
C97	C	0.828831	0.000204	0.112138
C98	C	1.328831	0.500204	0.612138
N99	N	0.824512	0.179390	-0.093036
N100	N	1.324512	0.679390	0.406964
C101	C	0.818997	0.000244	-0.220700
C102	C	1.318997	0.500244	0.279300
C103	C	0.820138	0.000255	-0.298204
C104	C	1.320138	0.500255	0.201796
C105	C	0.891922	0.000216	0.157062
C106	C	1.391922	0.500216	0.657062
C107	C	0.890850	0.000228	0.229886
C108	C	1.390850	0.500228	0.729886
C109	C	0.826684	0.000212	0.257782
C110	C	1.326684	0.500212	0.757782
C111	C	0.763585	0.000205	0.212849
C112	C	1.263585	0.500205	0.712849
C113	C	0.764658	0.000200	0.140026
C114	C	1.264658	0.500200	0.640026
N115	N	0.777630	-0.042645	0.365789
N116	N	1.277630	0.457355	0.865789
N117	N	0.776615	-0.042642	0.434968
N118	N	1.276615	0.457358	0.934968
C119	C	0.823446	0.000227	0.477191
C120	C	1.323446	0.500227	0.977191
N121	N	0.871341	0.043084	0.447624
N122	N	1.371341	0.543084	0.947624
N123	N	0.872359	0.043079	0.378439
N124	N	1.372359	0.543079	0.878439
C125	C	0.825513	0.000218	0.336745
C126	C	1.325513	0.500218	0.836745
C127	C	0.885379	0.000253	0.601079
C128	C	1.385379	0.500253	1.101079
C129	C	0.884305	0.000270	0.673904
C130	C	1.384305	0.500270	1.173904
C131	C	0.757038	0.000239	0.656865
C132	C	1.257038	0.500239	1.156865
C133	C	0.758114	0.000230	0.584042
C134	C	1.258114	0.500230	1.084042
C135	C	0.822287	0.000233	0.556154
C136	C	1.322287	0.500233	1.056154
H137	H	0.597091	0.000203	-0.212725
H138	H	1.097091	0.500203	0.287275
F139	F	0.922818	-0.823127	0.005216
F140	F	1.422818	-0.323127	0.505216
F141	F	0.697505	0.000188	0.092213
F142	F	1.197505	0.500188	0.592213
F143	F	0.695295	0.000193	0.242539
F144	F	1.195295	0.500193	0.742539
F145	F	0.922787	-0.339946	0.005219
F146	F	1.422787	0.160054	0.505219
H147	H	0.738072	-0.330094	-0.179374
H148	H	1.238072	0.169906	0.320626
H149	H	0.738109	-0.813275	-0.179385
H150	H	1.238109	-0.313275	0.320615
H151	H	0.910869	-0.186275	-0.006681
H152	H	1.410869	0.313725	0.493319
F153	F	0.726143	-0.176417	-0.191271
F154	F	1.226143	0.323583	0.308729
H155	H	0.937632	0.000259	0.578372
H156	H	1.437632	0.500259	1.078372
H157	H	0.020970	0.000295	-0.204232
H158	H	0.520970	0.500295	0.295768
F159	F	0.922816	-0.659546	0.005212
F160	F	1.422816	-0.159546	0.505212
F161	F	0.726191	-0.659600	-0.191285
F162	F	1.226191	-0.159600	0.308715
F163	F	0.639238	0.000144	0.033946
F164	F	1.139238	0.500144	0.533946
F165	F	0.951459	0.000287	0.721716
F166	F	1.451459	0.500287	1.221716
F167	F	0.960220	0.000236	0.127385
F168	F	1.460220	0.500236	0.627385
F169	F	0.688747	0.000226	0.686550
F170	F	1.188747	0.500226	1.186550
F171	F	0.488912	0.000181	0.036157
F172	F	0.988912	0.500181	0.536157
F173	F	0.958003	0.000242	0.277706
F174	F	1.458003	0.500242	0.777706
H175	H	0.464982	0.000217	-0.210776
H176	H	0.964982	0.500217	0.289224
F177	F	0.160055	0.000283	-0.222225
F178	F	0.660055	0.500283	0.277775
H179	H	0.706738	0.000216	0.547464
H180	H	1.206738	0.500216	1.047464
H181	H	0.183988	0.000246	0.024713
H182	H	0.683988	0.500246	0.524713
F183	F	0.044901	0.000266	0.042705
F184	F	0.544901	0.500266	0.542705
