data_functionalizedCrystal
_audit_creation_method	'MofGen! by Chris Wilmer'
_symmetry_space_group_name_H-M	'P1'
_symmetry_Int_Tables_number	1
_symmetry_cell_setting	triclinic
loop_
_symmetry_equiv_pos_as_xyz
  x,y,z
_cell_length_a	13.635800
_cell_length_b	7.076093
_cell_length_c	12.850268
_cell_angle_alpha	83.362674
_cell_angle_beta	91.777450
_cell_angle_gamma	117.701465
loop_
_atom_site_label
_atom_site_type_symbol
_atom_site_fract_x
_atom_site_fract_y
_atom_site_fract_z
V1	V	-1.753148	0.655565	-0.141790
O2	O	-1.778745	0.652908	0.008515
O3	O	-1.704828	0.641635	-0.282781
O4	O	-1.627249	0.945790	-0.138862
O5	O	-1.856862	0.346648	-0.136401
V6	V	-2.011266	0.619764	-0.123900
O7	O	-1.847900	0.734099	-0.181033
O8	O	-2.141613	0.541231	-0.084657
O9	O	-1.947982	0.633694	0.017092
O10	O	-2.044367	0.622421	-0.274204
O11	O	-1.966251	0.928681	-0.129289
O12	O	-2.025562	0.329539	-0.126827
V13	V	-1.253148	0.655565	-0.141790
O14	O	-1.278745	0.652908	0.008515
O15	O	-1.204828	0.641635	-0.282781
O16	O	-1.127249	0.945790	-0.138862
O17	O	-1.356862	0.346648	-0.136401
V18	V	-1.511266	0.619764	-0.123900
O19	O	-1.347900	0.734099	-0.181033
O20	O	-1.641613	0.541231	-0.084657
O21	O	-1.447982	0.633694	0.017092
O22	O	-1.544367	0.622421	-0.274204
O23	O	-1.466251	0.928681	-0.129289
O24	O	-1.525562	0.329539	-0.126827
C25	C	-1.624756	0.628866	-0.317177
C26	C	-1.625222	0.619238	-0.434601
V27	V	-1.753222	0.623033	-0.625558
O28	O	-1.770767	0.630803	-0.778482
O29	O	-1.705618	0.625562	-0.478741
O30	O	-1.782875	0.321340	-0.622627
O31	O	-1.692975	0.937130	-0.633600
V32	V	-1.976321	0.716152	-0.672685
O33	O	-1.883344	0.571292	-0.599974
O34	O	-2.057182	0.819838	-0.724762
O35	O	-1.919319	0.687869	-0.806367
O36	O	-2.013794	0.721928	-0.526669
O37	O	-2.091585	0.415601	-0.671551
O38	O	-1.842063	0.992091	-0.662481
C39	C	-1.525799	1.016833	-0.133587
C40	C	-1.462171	1.258489	-0.132097
C41	C	-1.958686	0.258485	-0.132100
C42	C	-2.011740	0.016828	-0.133587
C43	C	-1.859738	0.646470	0.051481
C44	C	-1.848683	0.656147	0.168902
C45	C	-1.124756	0.628866	-0.317177
C46	C	-1.125222	0.619238	-0.434601
C47	C	-1.359738	0.646470	0.051481
C48	C	-1.348683	0.656147	0.168902
C49	C	-1.743383	1.043428	-0.647162
C50	C	-1.670125	1.282689	-0.644485
V51	V	-1.253222	0.623033	-0.625558
O52	O	-1.270767	0.630803	-0.778482
O53	O	-1.205618	0.625562	-0.478741
O54	O	-1.282875	0.321340	-0.622627
O55	O	-1.192975	0.937130	-0.633600
V56	V	-1.476321	0.716152	-0.672685
O57	O	-1.383344	0.571292	-0.599974
O58	O	-1.557182	0.819838	-0.724762
O59	O	-1.419319	0.687869	-0.806367
O60	O	-1.513794	0.721928	-0.526669
O61	O	-1.591585	0.415601	-0.671551
O62	O	-1.342063	0.992091	-0.662481
C63	C	-1.243383	1.043428	-0.647162
C64	C	-1.170125	1.282689	-0.644485
