data_functionalizedCrystal
_audit_creation_method	'MofGen! by Chris Wilmer'
_symmetry_space_group_name_H-M	'P1'
_symmetry_Int_Tables_number	1
_symmetry_cell_setting	triclinic
loop_
_symmetry_equiv_pos_as_xyz
  x,y,z
_cell_length_a	16.120530
_cell_length_b	18.101397
_cell_length_c	16.120297
_cell_angle_alpha	87.130973
_cell_angle_beta	89.871860
_cell_angle_gamma	87.115827
loop_
_atom_site_label
_atom_site_type_symbol
_atom_site_fract_x
_atom_site_fract_y
_atom_site_fract_z
Zn1	Zn	1.247464	-0.375192	0.534538
Zn2	Zn	1.497464	-0.125192	0.784538
Zn3	Zn	1.747464	0.124808	1.034538
Zn4	Zn	1.997464	0.374808	1.284538
Zn5	Zn	1.254422	-0.493085	0.395472
Zn6	Zn	1.504422	-0.243085	0.645472
Zn7	Zn	1.754422	0.006915	0.895472
Zn8	Zn	2.004422	0.256915	1.145472
Zn9	Zn	1.115454	-0.362678	0.388457
Zn10	Zn	1.365454	-0.112678	0.638457
Zn11	Zn	1.615454	0.137322	0.888457
Zn12	Zn	1.865454	0.387322	1.138457
Zn13	Zn	1.108379	-0.492403	0.527442
Zn14	Zn	1.358379	-0.242403	0.777442
Zn15	Zn	1.608379	0.007597	1.027442
Zn16	Zn	1.858379	0.257597	1.277442
O17	O	1.181430	-0.430840	0.461477
O18	O	1.431430	-0.180840	0.711477
O19	O	1.681430	0.069160	0.961477
O20	O	1.931430	0.319160	1.211477
O21	O	1.364754	-0.396354	0.521997
O22	O	1.614754	-0.146354	0.771997
O23	O	1.864754	0.103646	1.021997
O24	O	2.114754	0.353646	1.271997
O25	O	1.241861	-0.470835	0.278177
O26	O	1.491861	-0.220835	0.528177
O27	O	1.741861	0.029165	0.778177
O28	O	1.991861	0.279165	1.028177
O29	O	1.133014	-0.260709	0.407869
O30	O	1.383014	-0.010709	0.657869
O31	O	1.633014	0.239291	0.907869
O32	O	1.883014	0.489291	1.157869
O33	O	1.369866	-0.482969	0.419826
O34	O	1.619866	-0.232969	0.669826
O35	O	1.869866	0.017031	0.919826
O36	O	2.119866	0.267031	1.169826
O37	O	1.230001	-0.269903	0.515194
O38	O	1.480001	-0.019903	0.765194
O39	O	1.730001	0.230097	1.015194
O40	O	1.980001	0.480097	1.265194
O41	O	1.139761	-0.375025	0.273023
O42	O	1.389761	-0.125025	0.523023
O43	O	1.639761	0.124975	0.773023
O44	O	1.889761	0.374975	1.023023
O45	O	0.998148	-0.374364	0.400988
O46	O	1.248148	-0.124364	0.650988
O47	O	1.498148	0.125636	0.900988
O48	O	1.748148	0.375636	1.150988
O49	O	1.120956	-0.481807	0.644748
O50	O	1.370956	-0.231807	0.894748
O51	O	1.620956	0.018193	1.144748
O52	O	1.870956	0.268193	1.394748
O53	O	0.992950	-0.469672	0.503099
O54	O	1.242950	-0.219672	0.753099
O55	O	1.492950	0.030328	1.003099
O56	O	1.742950	0.280328	1.253099
O57	O	1.223141	-0.395692	0.649962
O58	O	1.473141	-0.145692	0.899962
O59	O	1.723141	0.104308	1.149962
O60	O	1.973141	0.354308	1.399962
O61	O	1.235000	-0.596624	0.412944
O62	O	1.485000	-0.346624	0.662944
O63	O	1.735000	-0.096624	0.912944
O64	O	1.985000	0.153376	1.162944
O65	O	1.127703	-0.596123	0.509902
O66	O	1.377703	-0.346123	0.759902
O67	O	1.627703	-0.096123	1.009902
O68	O	1.877703	0.153877	1.259902
C69	C	0.965377	-0.420587	0.450513
C70	C	1.215377	-0.170587	0.700513
C71	C	1.465377	0.079413	0.950513
C72	C	1.715377	0.329413	1.200513
C73	C	0.872948	-0.416219	0.445842
C74	C	1.122948	-0.166219	0.695842
C75	C	1.372948	0.083781	0.945842
C76	C	1.622948	0.333781	1.195842
C77	C	1.181360	-0.623245	0.461434
C78	C	1.431360	-0.373245	0.711434
C79	C	1.681360	-0.123245	0.961434
C80	C	1.931360	0.126755	1.211434
C81	C	1.181406	-0.705562	0.461446
C82	C	1.431406	-0.455562	0.711446
C83	C	1.681406	-0.205562	0.961446
C84	C	1.931406	0.044438	1.211446
C85	C	0.703717	-0.408228	0.437321
C86	C	0.953717	-0.158228	0.687321
C87	C	1.203717	0.091772	0.937321
C88	C	1.453717	0.341772	1.187321
C89	C	0.659979	-0.453509	0.485695
C90	C	0.909979	-0.203509	0.735695
C91	C	1.159979	0.046491	0.985695
C92	C	1.409979	0.296491	1.235695
C93	C	0.565814	-0.449063	0.480954
C94	C	0.815814	-0.199063	0.730954
C95	C	1.065814	0.050937	0.980954
C96	C	1.315814	0.300937	1.230954
C97	C	0.797891	-0.412673	0.442061
C98	C	1.047891	-0.162673	0.692061
C99	C	1.297891	0.087327	0.942061
C100	C	1.547891	0.337327	1.192061
C101	C	1.181508	-1.004661	0.461528
C102	C	1.431508	-0.754661	0.711528
C103	C	1.681508	-0.504661	0.961528
C104	C	1.931508	-0.254661	1.211528
C105	C	1.248846	-0.973605	0.400344
C106	C	1.498846	-0.723605	0.650344
C107	C	1.748846	-0.473605	0.900344
C108	C	1.998846	-0.223605	1.150344
C109	C	1.249060	-0.888004	0.400522
C110	C	1.499060	-0.638004	0.650522
C111	C	1.749060	-0.388004	0.900522
C112	C	1.999060	-0.138004	1.150522
C113	C	1.181457	-0.856275	0.461487
C114	C	1.431457	-0.606275	0.711487
C115	C	1.681457	-0.356275	0.961487
C116	C	1.931457	-0.106275	1.211487
C117	C	1.200770	-0.892157	0.550340
C118	C	1.450770	-0.642157	0.800340
C119	C	1.700770	-0.392157	1.050340
C120	C	1.950770	-0.142157	1.300340
C121	C	1.201283	-0.977810	0.550014
C122	C	1.451283	-0.727810	0.800014
C123	C	1.701283	-0.477810	1.050014
C124	C	1.951283	-0.227810	1.300014
C125	C	1.094648	-0.968039	0.434609
C126	C	1.344648	-0.718039	0.684609
C127	C	1.594648	-0.468039	0.934609
C128	C	1.844648	-0.218039	1.184609
C129	C	1.095182	-0.882327	0.432674
C130	C	1.345182	-0.632327	0.682674
C131	C	1.595182	-0.382327	0.932674
C132	C	1.845182	-0.132327	1.182674
C133	C	1.181427	-0.772413	0.461469
C134	C	1.431427	-0.522413	0.711469
C135	C	1.681427	-0.272413	0.961469
C136	C	1.931427	-0.022413	1.211469
C137	C	1.181540	-1.088523	0.461552
C138	C	1.431540	-0.838523	0.711552
C139	C	1.681540	-0.588523	0.961552
C140	C	1.931540	-0.338523	1.211552
C141	C	1.398326	-0.441134	0.472485
C142	C	1.648326	-0.191134	0.722485
C143	C	1.898326	0.058866	0.972485
C144	C	2.148326	0.308866	1.222485
C145	C	1.490754	-0.445520	0.477176
C146	C	1.740754	-0.195520	0.727176
C147	C	1.990754	0.054480	0.977176
C148	C	2.240754	0.304480	1.227176
C149	C	1.170483	-0.440070	0.678371
C150	C	1.420483	-0.190070	0.928371
C151	C	1.670483	0.059930	1.178371
C152	C	1.920483	0.309930	1.428371
C153	C	1.165818	-0.444003	0.770798
C154	C	1.415818	-0.194003	1.020798
C155	C	1.665818	0.055997	1.270798
C156	C	1.915818	0.305997	1.520798
C157	C	1.181521	-0.237685	0.461541
C158	C	1.431521	0.012315	0.711541
C159	C	1.681521	0.262315	0.961541
C160	C	1.931521	0.512315	1.211541
C161	C	1.181560	-0.155374	0.461568
C162	C	1.431560	0.094626	0.711568
C163	C	1.681560	0.344626	0.961568
C164	C	1.931560	0.594626	1.211568
C165	C	1.192381	-0.421595	0.245430
C166	C	1.442381	-0.171595	0.495430
C167	C	1.692381	0.078405	0.745430
C168	C	1.942381	0.328405	0.995430
C169	C	1.197207	-0.417461	0.153012
C170	C	1.447207	-0.167461	0.403012
C171	C	1.697207	0.082539	0.653012
C172	C	1.947207	0.332539	0.903012
C173	C	1.157271	-0.451166	0.940022
C174	C	1.407271	-0.201166	1.190022
C175	C	1.657271	0.048834	1.440022
C176	C	1.907271	0.298834	1.690022
C177	C	1.205752	-0.410300	0.983793
C178	C	1.455752	-0.160300	1.233793
C179	C	1.705752	0.089700	1.483793
C180	C	1.955752	0.339700	1.733793
C181	C	1.200996	-0.414285	1.077955
C182	C	1.450996	-0.164285	1.327955
C183	C	1.700996	0.085715	1.577955
C184	C	1.950996	0.335715	1.827955
C185	C	1.162026	-0.447181	0.845851
C186	C	1.412026	-0.197181	1.095851
C187	C	1.662026	0.052819	1.345851
C188	C	1.912026	0.302819	1.595851
H189	H	0.693254	-0.495614	0.530670
H190	H	0.943254	-0.245614	0.780670
H191	H	1.193254	0.004386	1.030670
H192	H	1.443254	0.254386	1.280670
H193	H	1.044530	-0.988050	0.479117
H194	H	1.294530	-0.738050	0.729117
H195	H	1.544530	-0.488050	0.979117
H196	H	1.794530	-0.238050	1.229117
O197	O	1.097566	-0.501473	0.984055
O198	O	1.347566	-0.251473	1.234055
O199	O	1.597566	-0.001473	1.484055
O200	O	1.847566	0.248527	1.734055
H201	H	1.062778	-0.530796	0.937467
H202	H	1.312778	-0.280796	1.187467
H203	H	1.562778	-0.030796	1.437467
H204	H	1.812778	0.219204	1.687467
O205	O	1.333734	-1.006938	0.424152
O206	O	1.583734	-0.756938	0.674152
O207	O	1.833734	-0.506938	0.924152
O208	O	2.083734	-0.256938	1.174152
H209	H	1.380799	-0.984650	0.380572
H210	H	1.630799	-0.734650	0.630572
H211	H	1.880799	-0.484650	0.880572
H212	H	2.130799	-0.234650	1.130572
O213	O	0.659653	-0.352477	0.377722
O214	O	0.909653	-0.102477	0.627722
O215	O	1.159653	0.147523	0.877722
O216	O	1.409653	0.397523	1.127722
H217	H	0.591536	-0.357708	0.383291
H218	H	0.841536	-0.107708	0.633291
H219	H	1.091536	0.142292	0.883291
H220	H	1.341536	0.392292	1.133291
O221	O	1.233755	-0.855613	0.313437
O222	O	1.483755	-0.605613	0.563437
O223	O	1.733755	-0.355613	0.813437
O224	O	1.983755	-0.105613	1.063437
H225	H	1.226136	-0.901090	0.270815
H226	H	1.476136	-0.651090	0.520815
H227	H	1.726136	-0.401090	0.770815
H228	H	1.976136	-0.151090	1.020815
O229	O	1.234272	-0.996950	0.313163
O230	O	1.484272	-0.746950	0.563163
O231	O	1.734272	-0.496950	0.813163
O232	O	1.984272	-0.246950	1.063163
H233	H	1.178814	-1.030856	0.312485
H234	H	1.428814	-0.780856	0.562485
H235	H	1.678814	-0.530856	0.812485
H236	H	1.928814	-0.280856	1.062485
H237	H	1.313491	-0.871185	0.418685
H238	H	1.563491	-0.621185	0.668685
H239	H	1.813491	-0.371185	0.918685
H240	H	2.063491	-0.121185	1.168685
H241	H	1.264642	-1.001591	0.572299
H242	H	1.514642	-0.751591	0.822299
H243	H	1.764642	-0.501591	1.072299
H244	H	2.014642	-0.251591	1.322299
H245	H	1.250829	-0.372319	0.950548
H246	H	1.500829	-0.122319	1.200548
H247	H	1.750829	0.127681	1.450548
H248	H	2.000829	0.377681	1.700548
H249	H	1.042670	-0.860418	0.473617
H250	H	1.292670	-0.610418	0.723617
H251	H	1.542670	-0.360418	0.973617
H252	H	1.792670	-0.110418	1.223617
O253	O	1.138825	-1.005294	0.612774
O254	O	1.388825	-0.755294	0.862774
O255	O	1.638825	-0.505294	1.112774
O256	O	1.888825	-0.255294	1.362774
H257	H	1.155874	-0.988202	0.675414
H258	H	1.405874	-0.738202	0.925414
H259	H	1.655874	-0.488202	1.175414
H260	H	1.905874	-0.238202	1.425414
O261	O	1.137546	-0.865142	0.612614
O262	O	1.387546	-0.615142	0.862614
O263	O	1.637546	-0.365142	1.112614
O264	O	1.887546	-0.115142	1.362614
H265	H	1.091580	-0.825757	0.580819
H266	H	1.341580	-0.575757	0.830819
H267	H	1.591580	-0.325757	1.080819
H268	H	1.841580	-0.075757	1.330819
H269	H	1.263392	-0.874491	0.572910
H270	H	1.513392	-0.624491	0.822910
H271	H	1.763392	-0.374491	1.072910
H272	H	2.013392	-0.124491	1.322910
O273	O	1.070240	-0.991799	0.349958
O274	O	1.320240	-0.741799	0.599958
O275	O	1.570240	-0.491799	0.849958
O276	O	1.820240	-0.241799	1.099958
H277	H	1.066565	-1.052925	0.351780
H278	H	1.316565	-0.802925	0.601780
H279	H	1.566565	-0.552925	0.851780
H280	H	1.816565	-0.302925	1.101780
H281	H	1.080539	-0.858460	0.367264
H282	H	1.330539	-0.608460	0.617264
H283	H	1.580539	-0.358460	0.867264
H284	H	1.830539	-0.108460	1.117264
