data_functionalizedCrystal
_audit_creation_method	'MofGen! by Chris Wilmer'
_symmetry_space_group_name_H-M	'P1'
_symmetry_Int_Tables_number	1
_symmetry_cell_setting	triclinic
loop_
_symmetry_equiv_pos_as_xyz
  x,y,z
_cell_length_a	16.625547
_cell_length_b	19.120786
_cell_length_c	16.625539
_cell_angle_alpha	87.530339
_cell_angle_beta	89.978691
_cell_angle_gamma	92.464876
loop_
_atom_site_label
_atom_site_type_symbol
_atom_site_fract_x
_atom_site_fract_y
_atom_site_fract_z
Zn1	Zn	1.218941	-0.279643	-0.442285
Zn2	Zn	1.468941	-0.029643	-0.192285
Zn3	Zn	1.718941	0.220357	0.057715
Zn4	Zn	1.968941	0.470357	0.307715
Zn5	Zn	1.213094	-0.397103	-0.301692
Zn6	Zn	1.463094	-0.147103	-0.051692
Zn7	Zn	1.713094	0.102897	0.198308
Zn8	Zn	1.963094	0.352897	0.448308
Zn9	Zn	1.084110	-0.279664	-0.307455
Zn10	Zn	1.334110	-0.029664	-0.057455
Zn11	Zn	1.584110	0.220336	0.192545
Zn12	Zn	1.834110	0.470336	0.442545
Zn13	Zn	1.078316	-0.397064	-0.436473
Zn14	Zn	1.328316	-0.147064	-0.186473
Zn15	Zn	1.578316	0.102936	0.063527
Zn16	Zn	1.828316	0.352936	0.313527
O17	O	1.148615	-0.338369	-0.371976
O18	O	1.398615	-0.088369	-0.121976
O19	O	1.648615	0.161631	0.128024
O20	O	1.898615	0.411631	0.378024
O21	O	1.330998	-0.295232	-0.423656
O22	O	1.580998	-0.045232	-0.173656
O23	O	1.830998	0.204768	0.076344
O24	O	2.080998	0.454768	0.326344
O25	O	1.195961	-0.381550	-0.189623
O26	O	1.445961	-0.131550	0.060377
O27	O	1.695961	0.118450	0.310377
O28	O	1.945961	0.368450	0.560377
O29	O	1.106868	-0.181371	-0.330185
O30	O	1.356868	0.068629	-0.080185
O31	O	1.606868	0.318629	0.169815
O32	O	1.856868	0.568629	0.419815
O33	O	1.326701	-0.381530	-0.320362
O34	O	1.576701	-0.131530	-0.070362
O35	O	1.826701	0.118470	0.179638
O36	O	2.076701	0.368470	0.429638
O37	O	1.205928	-0.181355	-0.429244
O38	O	1.455928	0.068645	-0.179244
O39	O	1.705928	0.318645	0.070756
O40	O	1.955928	0.568645	0.320756
O41	O	1.101198	-0.295267	-0.193857
O42	O	1.351198	-0.045267	0.056143
O43	O	1.601198	0.204733	0.306143
O44	O	1.851198	0.454733	0.556143
O45	O	0.970510	-0.295229	-0.324549
O46	O	1.220510	-0.045229	-0.074549
O47	O	1.470510	0.204771	0.175451
O48	O	1.720510	0.454771	0.425451
O49	O	1.096993	-0.381463	-0.550078
O50	O	1.346993	-0.131463	-0.300078
O51	O	1.596993	0.118537	-0.050078
O52	O	1.846993	0.368537	0.199922
O53	O	0.966253	-0.381483	-0.419338
O54	O	1.216253	-0.131483	-0.169338
O55	O	1.466253	0.118517	0.080662
O56	O	1.716253	0.368517	0.330662
O57	O	1.200310	-0.295194	-0.554348
O58	O	1.450310	-0.045194	-0.304348
O59	O	1.700310	0.204806	-0.054348
O60	O	1.950310	0.454806	0.195652
O61	O	1.190343	-0.495388	-0.314727
O62	O	1.440343	-0.245388	-0.064727
O63	O	1.690343	0.004612	0.185273
O64	O	1.940343	0.254612	0.435273
O65	O	1.091323	-0.495360	-0.413750
O66	O	1.341323	-0.245360	-0.163750
O67	O	1.591323	0.004640	0.086250
O68	O	1.841323	0.254640	0.336250
C69	C	0.939125	-0.338355	-0.371939
C70	C	1.189125	-0.088355	-0.121939
C71	C	1.439125	0.161645	0.128061
C72	C	1.689125	0.411645	0.378061
C73	C	0.849504	-0.338366	-0.371941
C74	C	1.099504	-0.088366	-0.121941
C75	C	1.349504	0.161634	0.128059
C76	C	1.599504	0.411634	0.378059
C77	C	0.776721	-0.338367	-0.371951
C78	C	1.026721	-0.088367	-0.121951
C79	C	1.276721	0.161633	0.128049
C80	C	1.526721	0.411633	0.378049
C81	C	0.685412	-0.338371	-0.371971
C82	C	0.935412	-0.088371	-0.121971
C83	C	1.185412	0.161629	0.128029
C84	C	1.435412	0.411629	0.378029
C85	C	0.612636	-0.338378	-0.371991
C86	C	0.862636	-0.088378	-0.121991
C87	C	1.112636	0.161622	0.128009
C88	C	1.362636	0.411622	0.378009
C89	C	0.521321	-0.338382	-0.372010
C90	C	0.771321	-0.088382	-0.122010
C91	C	1.021321	0.161618	0.127990
C92	C	1.271321	0.411618	0.377990
C93	C	1.139591	-0.520860	-0.363000
C94	C	1.389591	-0.270860	-0.113000
C95	C	1.639591	-0.020860	0.137000
C96	C	1.889591	0.229140	0.387000
C97	C	1.135805	-0.598930	-0.359187
C98	C	1.385805	-0.348930	-0.109187
C99	C	1.635805	-0.098930	0.140813
C100	C	1.885805	0.151070	0.390813
C101	C	1.185562	-0.635540	-0.409012
C102	C	1.435562	-0.385540	-0.159012
C103	C	1.685562	-0.135540	0.090988
C104	C	1.935562	0.114460	0.340988
C105	C	1.182001	-0.708895	-0.405430
C106	C	1.432001	-0.458895	-0.155430
C107	C	1.682001	-0.208895	0.094570
C108	C	1.932001	0.041105	0.344570
C109	C	1.128686	-0.745640	-0.352019
C110	C	1.378686	-0.495640	-0.102019
C111	C	1.628686	-0.245640	0.147981
C112	C	1.878686	0.004360	0.397981
C113	C	1.078922	-0.709025	-0.302191
C114	C	1.328922	-0.459025	-0.052191
C115	C	1.578922	-0.209025	0.197809
C116	C	1.828922	0.040975	0.447809
C117	C	1.082480	-0.635671	-0.305778
C118	C	1.332480	-0.385671	-0.055778
C119	C	1.582480	-0.135671	0.194222
C120	C	1.832480	0.114329	0.444222
C121	C	1.115361	-0.967126	-0.338612
C122	C	1.365361	-0.717126	-0.088612
C123	C	1.615361	-0.467126	0.161388
C124	C	1.865361	-0.217126	0.411388
C125	C	1.111809	-1.040485	-0.335028
C126	C	1.361809	-0.790485	-0.085028
C127	C	1.611809	-0.540485	0.164972
C128	C	1.861809	-0.290485	0.414972
C129	C	1.214887	-1.040350	-0.438268
C130	C	1.464887	-0.790350	-0.188268
C131	C	1.714887	-0.540350	0.061732
C132	C	1.964887	-0.290350	0.311732
C133	C	1.218443	-0.966994	-0.441846
C134	C	1.468443	-0.716994	-0.191846
C135	C	1.718443	-0.466994	0.058154
C136	C	1.968443	-0.216994	0.308154
C137	C	1.168677	-0.930386	-0.392022
C138	C	1.418677	-0.680386	-0.142022
C139	C	1.668677	-0.430386	0.107978
C140	C	1.918677	-0.180386	0.357978
C141	C	1.125046	-0.820621	-0.348355
C142	C	1.375046	-0.570621	-0.098355
C143	C	1.625046	-0.320621	0.151645
C144	C	1.875046	-0.070621	0.401645
C145	C	1.172314	-0.855406	-0.395691
C146	C	1.422314	-0.605406	-0.145691
C147	C	1.672314	-0.355406	0.104309
C148	C	1.922314	-0.105406	0.354309
C149	C	1.358924	-0.338383	-0.372014
C150	C	1.608924	-0.088383	-0.122014
C151	C	1.858924	0.161617	0.127986
C152	C	2.108924	0.411617	0.377986
C153	C	1.448544	-0.338389	-0.372031
C154	C	1.698544	-0.088389	-0.122031
C155	C	1.948544	0.161611	0.127969
C156	C	2.198544	0.411611	0.377969
C157	C	1.148657	-0.338322	-0.582288
C158	C	1.398657	-0.088322	-0.332288
C159	C	1.648657	0.161678	-0.082288
C160	C	1.898657	0.411678	0.167712
C161	C	1.148675	-0.338302	-0.671910
C162	C	1.398675	-0.088302	-0.421910
C163	C	1.648675	0.161698	-0.171910
C164	C	1.898675	0.411698	0.078090
C165	C	1.157697	-0.155165	-0.381006
C166	C	1.407697	0.094835	-0.131006
C167	C	1.657697	0.344835	0.118994
C168	C	1.907697	0.594835	0.368994
C169	C	1.161567	-0.077094	-0.384853
C170	C	1.411567	0.172906	-0.134853
C171	C	1.661567	0.422906	0.115147
C172	C	1.911567	0.672906	0.365147
C173	C	1.148689	-0.338287	-0.744693
C174	C	1.398689	-0.088287	-0.494693
C175	C	1.648689	0.161713	-0.244693
C176	C	1.898689	0.411713	0.005307
C177	C	1.148709	-0.338261	-0.836003
C178	C	1.398709	-0.088261	-0.586003
C179	C	1.648709	0.161739	-0.336003
C180	C	1.898709	0.411739	-0.086003
C181	C	1.148729	-0.338236	-0.908781
C182	C	1.398729	-0.088236	-0.658781
C183	C	1.648729	0.161764	-0.408781
C184	C	1.898729	0.411764	-0.158781
C185	C	1.148751	-0.338211	-1.000096
C186	C	1.398751	-0.088211	-0.750096
C187	C	1.648751	0.161789	-0.500096
C188	C	1.898751	0.411789	-0.250096
C189	C	1.148623	-0.338364	-0.162486
C190	C	1.398623	-0.088364	0.087514
C191	C	1.648623	0.161636	0.337514
C192	C	1.898623	0.411636	0.587514
C193	C	1.148771	-0.338186	-0.072874
C194	C	1.398771	-0.088186	0.177126
C195	C	1.648771	0.161814	0.427126
C196	C	1.898771	0.411814	0.677126
H197	H	1.228981	-0.605627	-0.452502
H198	H	1.478981	-0.355627	-0.202502
H199	H	1.728981	-0.105627	0.047498
H200	H	1.978981	0.144373	0.297498
F201	F	1.062389	-0.928174	-0.285590
F202	F	1.312389	-0.678174	-0.035590
F203	F	1.562389	-0.428174	0.214410
F204	F	1.812389	-0.178174	0.464410
F205	F	1.234951	-0.747854	-0.458470
F206	F	1.484951	-0.497854	-0.208470
F207	F	1.734951	-0.247854	0.041530
F208	F	1.984951	0.002146	0.291530
F209	F	1.229050	-0.816298	-0.452538
F210	F	1.479050	-0.566298	-0.202538
F211	F	1.729050	-0.316298	0.047462
F212	F	1.979050	-0.066298	0.297462
F213	F	1.055063	-1.079590	-0.278175
F214	F	1.305063	-0.829590	-0.028175
F215	F	1.555063	-0.579590	0.221825
F216	F	1.805063	-0.329590	0.471825
F217	F	1.022173	-0.748134	-0.245354
F218	F	1.272173	-0.498134	0.004646
F219	F	1.522173	-0.248134	0.254646
F220	F	1.772173	0.001866	0.504646
H221	H	1.081639	-0.850547	-0.304865
H222	H	1.331639	-0.600547	-0.054865
H223	H	1.581639	-0.350547	0.195135
H224	H	1.831639	-0.100547	0.445135
F225	F	1.267845	-1.079316	-0.491293
F226	F	1.517845	-0.829316	-0.241293
F227	F	1.767845	-0.579316	0.008707
F228	F	2.017845	-0.329316	0.258707
F229	F	1.275188	-0.927893	-0.498695
F230	F	1.525188	-0.677893	-0.248695
F231	F	1.775188	-0.427893	0.001305
F232	F	2.025188	-0.177893	0.251305
H233	H	1.041961	-0.605865	-0.265206
H234	H	1.291961	-0.355865	-0.015206
H235	H	1.541961	-0.105865	0.234794
H236	H	1.791961	0.144135	0.484794
