data_functionalizedCrystal
_audit_creation_method	'MofGen! by Chris Wilmer'
_symmetry_space_group_name_H-M	'P1'
_symmetry_Int_Tables_number	1
_symmetry_cell_setting	triclinic
loop_
_symmetry_equiv_pos_as_xyz
  x,y,z
_cell_length_a	19.288864
_cell_length_b	14.044220
_cell_length_c	18.366186
_cell_angle_alpha	89.993222
_cell_angle_beta	89.977106
_cell_angle_gamma	88.162561
loop_
_atom_site_label
_atom_site_type_symbol
_atom_site_fract_x
_atom_site_fract_y
_atom_site_fract_z
O1	O	0.928948	0.118214	-0.060787
O2	O	0.727712	0.134161	-0.060738
O3	O	0.825310	-0.011784	-0.060755
O4	O	0.831351	0.264160	-0.060770
O5	O	0.825291	-0.011791	0.060345
O6	O	0.727694	0.134154	0.060362
O7	O	0.928930	0.118207	0.060312
Zn8	Zn	0.828309	0.126180	0.079564
Zn9	Zn	0.828333	0.126189	-0.079990
O10	O	0.831332	0.264152	0.060329
C11	C	0.701794	0.133645	-0.000182
C12	C	0.624591	0.132104	-0.000163
C13	C	0.585397	0.217738	-0.000179
C14	C	0.512857	0.216291	-0.000187
C15	C	0.479514	0.129205	-0.000193
C16	C	0.518717	0.043560	-0.000173
C17	C	0.591256	0.045010	-0.000157
C18	C	0.366860	0.060749	-0.042640
C19	C	0.294322	0.059303	-0.042660
C20	C	0.255781	0.124731	-0.000237
C21	C	0.289785	0.191621	0.042196
C22	C	0.362323	0.193071	0.042212
C23	C	0.400858	0.127624	-0.000209
C24	C	0.137930	0.208802	-0.000261
C25	C	0.065389	0.207351	-0.000264
C26	C	0.071251	0.034617	-0.000257
C27	C	0.143790	0.036071	-0.000247
C28	C	0.177126	0.123165	-0.000252
C29	C	0.822656	-0.047091	-0.000204
C30	C	0.814768	-0.152283	-0.000201
C31	C	0.800348	-0.344882	-0.000208
C32	C	0.856291	-0.402755	-0.000224
C33	C	0.848267	-0.509924	-0.000228
C34	C	0.808370	-0.237703	-0.000204
C35	C	0.954848	0.118724	-0.000245
C36	C	1.032051	0.120264	-0.000269
C37	C	0.833986	0.299459	-0.000223
C38	C	0.841874	0.404651	-0.000231
N39	N	0.828297	0.126173	0.188455
N40	N	0.828350	0.126188	-0.188881
C41	C	0.871531	0.061580	0.226548
C42	C	0.871535	0.061575	0.302776
C43	C	0.828313	0.126180	0.340908
C44	C	0.785071	0.190778	0.302806
C45	C	0.785063	0.190774	0.226579
C46	C	0.824562	0.212524	0.461665
C47	C	0.824575	0.212529	0.537890
C48	C	0.828333	0.126192	0.576015
C49	C	0.832093	0.039847	0.537907
C50	C	0.832085	0.039843	0.461681
C51	C	0.828316	0.126191	0.423563
C52	C	0.871574	0.061589	0.696763
C53	C	0.871573	0.061584	0.772993
C54	C	0.785113	0.190795	0.773021
C55	C	0.785110	0.190792	0.696793
C56	C	0.828344	0.126190	0.658669
H57	H	0.175703	-0.033662	-0.000237
O58	O	0.735987	-0.381672	-0.000094
C59	C	0.626807	-0.392450	0.062702
C60	C	0.699667	-0.350690	0.062652
H61	H	0.597427	-0.367434	0.113433
H62	H	0.597343	-0.367340	0.012067
H63	H	0.631732	-0.473558	0.062662
H64	H	0.694806	-0.269581	0.062717
H65	H	0.729104	-0.375875	0.113282
H66	H	0.491565	-0.027346	-0.000188
O67	O	0.629228	-0.038267	-0.000179
C68	C	0.627387	-0.209745	-0.000128
C69	C	0.584298	-0.115505	-0.000118
H70	H	0.591080	-0.272217	-0.000064
H71	H	0.661503	-0.213446	-0.050815
H72	H	0.661486	-0.213333	0.050545
H73	H	0.550160	-0.111854	-0.050757
H74	H	0.550227	-0.111844	0.050602
H75	H	0.910212	-0.371814	-0.000286
H76	H	0.165073	0.279719	-0.000254
H77	H	0.835145	-0.030463	0.430656
H78	H	0.906733	0.008975	0.195510
O79	O	0.261371	-0.005636	-0.083982
C80	C	0.241267	-0.066392	-0.204578
C81	C	0.278634	0.007190	-0.157865
H82	H	0.255199	-0.056035	-0.264323
H83	H	0.258086	-0.141369	-0.186723
H84	H	0.182805	-0.056202	-0.197269
H85	H	0.337102	-0.002912	-0.165150
H86	H	0.261758	0.082140	-0.175731
H87	H	0.044104	-0.036290	-0.000308
H88	H	0.906742	0.008974	0.333797
O89	O	0.835621	-0.044012	0.574960
C90	C	0.780351	-0.146494	0.661083
C91	C	0.776256	-0.051507	0.619153
H92	H	0.732368	-0.152575	0.696834
H93	H	0.782993	-0.208237	0.620780
H94	H	0.828757	-0.148962	0.696714
H95	H	0.727854	-0.048946	0.583521
H96	H	0.773651	0.010192	0.659495
O97	O	0.252370	0.255146	0.083457
C98	C	0.227828	0.315088	0.203979
C99	C	0.270302	0.243116	0.157380
H100	H	0.242300	0.305373	0.263756
H101	H	0.239529	0.390639	0.186111
H102	H	0.170166	0.302490	0.196567
H103	H	0.327976	0.255626	0.164770
H104	H	0.258542	0.167590	0.175259
H105	H	0.612534	0.288658	-0.000185
H106	H	0.398235	0.007467	-0.077190
H107	H	0.906776	0.008984	0.665721
H108	H	0.906777	0.008980	0.804009
H109	H	0.749918	0.243394	0.804067
H110	H	0.821490	0.282834	0.430629
H111	H	0.480939	0.286027	-0.000198
H112	H	0.749908	0.243394	0.665776
H113	H	0.821518	0.282836	0.568912
O114	O	0.743049	0.253406	0.339925
C115	C	0.649448	0.273908	0.426004
C116	C	0.697007	0.202880	0.384027
H117	H	0.612201	0.233085	0.461659
H118	H	0.682325	0.321135	0.461716
H119	H	0.618576	0.320095	0.385668
H120	H	0.727887	0.156629	0.424310
H121	H	0.664091	0.155718	0.348304
H122	H	0.749856	0.243374	0.195563
H123	H	0.390007	0.247532	0.076765
H124	H	0.033478	0.277088	-0.000273
