data_functionalizedCrystal
_audit_creation_method	'MofGen! by Chris Wilmer'
_symmetry_space_group_name_H-M	'P1'
_symmetry_Int_Tables_number	1
_symmetry_cell_setting	triclinic
loop_
_symmetry_equiv_pos_as_xyz
  x,y,z
_cell_length_a	17.077404
_cell_length_b	13.033915
_cell_length_c	13.032268
_cell_angle_alpha	90.870492
_cell_angle_beta	97.162375
_cell_angle_gamma	82.826268
loop_
_atom_site_label
_atom_site_type_symbol
_atom_site_fract_x
_atom_site_fract_y
_atom_site_fract_z
Zn1	Zn	1.195699	-0.483230	-0.529562
Zn2	Zn	1.695699	0.016770	-0.029562
Zn3	Zn	1.228454	-0.633389	-0.335775
Zn4	Zn	1.728454	-0.133389	0.164225
Zn5	Zn	1.078761	-0.461440	-0.357601
Zn6	Zn	1.578761	0.038560	0.142399
Zn7	Zn	1.082918	-0.655150	-0.507702
Zn8	Zn	1.582918	-0.155150	-0.007702
O9	O	1.146458	-0.558302	-0.432660
O10	O	1.646458	-0.058302	0.067340
O11	O	1.309891	-0.503161	-0.503870
O12	O	1.809891	-0.003161	-0.003870
O13	O	1.220566	-0.592353	-0.194752
O14	O	1.720566	-0.092353	0.305248
O15	O	1.078825	-0.320420	-0.398696
O16	O	1.578825	0.179580	0.101304
O17	O	1.333956	-0.613482	-0.361496
O18	O	1.833956	-0.113482	0.138504
O19	O	1.164740	-0.336429	-0.525034
O20	O	1.664740	0.163571	-0.025034
O21	O	1.110586	-0.466023	-0.210788
O22	O	1.610586	0.033977	0.289212
O23	O	0.969466	-0.487123	-0.377498
O24	O	1.469466	0.012877	0.122502
O25	O	1.085910	-0.650570	-0.654520
O26	O	1.585910	-0.150570	-0.154520
O27	O	0.972520	-0.629441	-0.487776
O28	O	1.472520	-0.129441	0.012224
O29	O	1.168770	-0.524261	-0.670581
O30	O	1.668770	-0.024261	-0.170581
O31	O	1.224597	-0.780186	-0.340298
O32	O	1.724597	-0.280186	0.159702
O33	O	1.117672	-0.796173	-0.466612
O34	O	1.617672	-0.296173	0.033388
C35	C	0.942511	-0.558280	-0.432634
C36	C	1.442511	-0.058280	0.067366
C37	C	0.855262	-0.558298	-0.432644
C38	C	1.355262	-0.058298	0.067356
C39	C	0.815902	-0.632489	-0.489948
C40	C	1.315902	-0.132489	0.010052
C41	C	0.733920	-0.632493	-0.489964
C42	C	1.233920	-0.132493	0.010036
C43	C	0.691301	-0.558310	-0.432670
C44	C	1.191301	-0.058310	0.067330
C45	C	0.730666	-0.484112	-0.375364
C46	C	1.230666	0.015888	0.124636
C47	C	0.812645	-0.484104	-0.375355
C48	C	1.312645	0.015896	0.124645
C49	C	0.559796	-0.484135	-0.375387
C50	C	1.059796	0.015865	0.124613
C51	C	0.477812	-0.484144	-0.375394
C52	C	0.977812	0.015856	0.124606
C53	C	0.481071	-0.632524	-0.489996
C54	C	0.981071	-0.132524	0.010004
C55	C	0.563050	-0.632517	-0.489986
C56	C	1.063050	-0.132517	0.010014
C57	C	0.602410	-0.558319	-0.432679
C58	C	1.102410	-0.058319	0.067321
C59	C	1.175159	-0.825497	-0.398737
C60	C	1.675159	-0.325497	0.101263
C61	C	1.187506	-0.939808	-0.384259
C62	C	1.687506	-0.439808	0.115741
C63	C	1.152826	-1.116857	-0.425277
C64	C	1.652826	-0.616857	0.074723
C65	C	1.140068	-0.998711	-0.440250
C66	C	1.640068	-0.498711	0.059750
C67	C	1.351202	-0.558325	-0.432687
C68	C	1.851202	-0.058325	0.067313
C69	C	1.438452	-0.558335	-0.432698
C70	C	1.938452	-0.058335	0.067302
C71	C	1.124150	-0.592274	-0.700910
C72	C	1.624150	-0.092274	-0.200910
C73	C	1.114644	-0.606750	-0.815222
C74	C	1.614644	-0.106750	-0.315222
C75	C	1.117665	-0.290066	-0.466738
C76	C	1.617665	0.209934	0.033262
C77	C	1.105395	-0.175760	-0.481260
C78	C	1.605395	0.324240	0.018740
C79	C	1.151403	-0.550709	-0.874132
C80	C	1.651403	-0.050709	-0.374132
C81	C	1.141579	-0.565671	-0.992280
C82	C	1.641579	-0.065671	-0.492280
C83	C	1.168716	-0.524388	-0.165463
C84	C	1.668716	-0.024388	0.334537
C85	C	1.178344	-0.509622	-0.051189
C86	C	1.678344	-0.009622	0.448811
H87	H	0.591838	-0.423708	-0.328731
H88	H	1.091838	0.076292	0.171269
Br89	Br	1.236253	-1.178575	-0.326911
Br90	Br	1.736253	-0.678575	0.173089
H91	H	1.075894	-0.665798	-0.852255
H92	H	1.575894	-0.165798	-0.352255
Br93	Br	1.021961	-1.114040	-0.579615
Br94	Br	1.521961	-0.614040	-0.079615
Br95	Br	1.076990	-0.664099	-1.053988
Br96	Br	1.576990	-0.164099	-0.553988
Br97	Br	0.672825	-0.383425	-0.297618
Br98	Br	1.172825	0.116575	0.202382
H99	H	1.217086	-0.450557	-1.014163
H100	H	1.717086	0.049443	-0.514163
Br101	Br	0.866062	-0.383408	-0.297589
Br102	Br	1.366062	0.116592	0.202411
Br103	Br	1.056631	-0.936995	-0.538609
Br104	Br	1.556631	-0.436995	-0.038609
Br105	Br	0.680506	-0.733183	-0.567740
Br106	Br	1.180506	-0.233183	-0.067740
Br107	Br	0.873736	-0.733178	-0.567700
Br108	Br	1.373736	-0.233178	-0.067700
H109	H	0.449020	-0.692936	-0.536661
H110	H	0.949020	-0.192936	-0.036661
Br111	Br	0.620893	-0.733203	-0.567732
Br112	Br	1.120893	-0.233203	-0.067732
Br113	Br	0.419972	-0.383473	-0.297629
Br114	Br	0.919972	0.116527	0.202371
Br115	Br	1.215956	-0.452246	-0.812424
Br116	Br	1.715956	0.047754	-0.312424
H117	H	1.237562	-0.976839	-0.325240
H118	H	1.737562	-0.476839	0.174760
