data_functionalizedCrystal
_audit_creation_method	'MofGen! by Chris Wilmer'
_symmetry_space_group_name_H-M	'P1'
_symmetry_Int_Tables_number	1
_symmetry_cell_setting	triclinic
loop_
_symmetry_equiv_pos_as_xyz
  x,y,z
_cell_length_a	14.971482
_cell_length_b	17.038272
_cell_length_c	14.048226
_cell_angle_alpha	89.993466
_cell_angle_beta	89.994098
_cell_angle_gamma	87.362082
loop_
_atom_site_label
_atom_site_type_symbol
_atom_site_fract_x
_atom_site_fract_y
_atom_site_fract_z
O1	O	1.194577	0.101883	-0.079149
O2	O	1.527911	0.435217	0.254184
O3	O	1.861244	0.768550	0.587517
O4	O	0.935090	0.114089	-0.079154
O5	O	1.268424	0.447422	0.254179
O6	O	1.601757	0.780756	0.587513
O7	O	1.063292	-0.005831	-0.079144
O8	O	1.396625	0.327502	0.254189
O9	O	1.729958	0.660836	0.587523
O10	O	1.066376	0.221803	-0.079159
O11	O	1.399709	0.555137	0.254174
O12	O	1.733043	0.888470	0.587508
O13	O	1.063275	-0.005838	0.079177
O14	O	1.396608	0.327495	0.412511
O15	O	1.729941	0.660829	0.745844
O16	O	0.935073	0.114082	0.079167
O17	O	1.268407	0.447415	0.412501
O18	O	1.601740	0.780748	0.745834
O19	O	1.194560	0.101876	0.079172
O20	O	1.527893	0.435210	0.412505
O21	O	1.861227	0.768543	0.745839
Zn22	Zn	1.064814	0.107978	0.104307
Zn23	Zn	1.398147	0.441311	0.437640
Zn24	Zn	1.731481	0.774645	0.770973
Zn25	Zn	1.064837	0.107987	-0.104289
Zn26	Zn	1.398170	0.441321	0.229045
Zn27	Zn	1.731503	0.774654	0.562378
O28	O	1.066359	0.221796	0.079162
O29	O	1.399692	0.555130	0.412495
O30	O	1.733026	0.888463	0.745829
C31	C	0.901716	0.113540	0.000006
C32	C	1.235050	0.446873	0.333339
C33	C	1.568383	0.780207	0.666673
C34	C	0.802297	0.111906	0.000004
C35	C	1.135630	0.445239	0.333338
C36	C	1.468963	0.778573	0.666671
C37	C	0.755585	0.111132	0.086307
C38	C	1.088918	0.444466	0.419640
C39	C	1.422252	0.777799	0.752973
C40	C	0.662171	0.109584	0.086308
C41	C	0.995504	0.442918	0.419641
C42	C	1.328837	0.776251	0.752974
C43	C	0.615469	0.108816	0.000006
C44	C	0.948803	0.442149	0.333339
C45	C	1.282136	0.775482	0.666672
C46	C	0.662188	0.109587	-0.086303
C47	C	0.995521	0.442920	0.247030
C48	C	1.328854	0.776253	0.580364
C49	C	0.755601	0.111129	-0.086303
C50	C	1.088934	0.444462	0.247030
C51	C	1.422267	0.777796	0.580364
C52	C	0.467485	0.106374	-0.086297
C53	C	0.800818	0.439707	0.247037
C54	C	1.134152	0.773041	0.580370
C55	C	0.374065	0.104833	-0.086297
C56	C	0.707399	0.438166	0.247036
C57	C	1.040732	0.771500	0.580370
C58	C	0.374055	0.104829	0.086314
C59	C	0.707389	0.438162	0.419647
C60	C	1.040722	0.771496	0.752981
C61	C	0.467468	0.106371	0.086314
C62	C	0.800802	0.439705	0.419647
C63	C	1.134135	0.773038	0.752981
C64	C	0.514180	0.107144	0.000005
C65	C	0.847513	0.440477	0.333338
C66	C	1.180847	0.773811	0.666672
C67	C	1.060478	-0.034966	0.000016
C68	C	1.393811	0.298367	0.333350
C69	C	1.727144	0.631701	0.666683
C70	C	1.052108	-0.121769	0.000016
C71	C	1.385441	0.211565	0.333349
C72	C	1.718775	0.544898	0.666683
C73	C	1.128952	-0.171794	0.000018
C74	C	1.462285	0.161539	0.333352
C75	C	1.795619	0.494873	0.666685
C76	C	1.121082	-0.253354	0.000009
C77	C	1.454416	0.079980	0.333342
C78	C	1.787749	0.413313	0.666676
C79	C	1.036368	-0.284886	0.000004
C80	C	1.369701	0.048447	0.333338
C81	C	1.703035	0.381781	0.666671
C82	C	0.959518	-0.234854	-0.000001
C83	C	1.292852	0.098479	0.333332
C84	C	1.626185	0.431813	0.666666
C85	C	0.967389	-0.153296	0.000002
C86	C	1.300722	0.180037	0.333335
C87	C	1.634056	0.513371	0.666668
C88	C	1.008563	-0.530676	-0.000009
C89	C	1.341897	-0.197343	0.333324
C90	C	1.675230	0.135991	0.666658
C91	C	1.000699	-0.612241	-0.000009
C92	C	1.334032	-0.278907	0.333325
C93	C	1.667365	0.054426	0.666658
C94	C	1.162263	-0.630735	-0.000000
C95	C	1.495597	-0.297401	0.333333
C96	C	1.828930	0.035932	0.666666
C97	C	1.170126	-0.549174	0.000008
C98	C	1.503460	-0.215841	0.333341
C99	C	1.836793	0.117493	0.666674
C100	C	1.093277	-0.499149	-0.000003
C101	C	1.426610	-0.165816	0.333331
C102	C	1.759943	0.167517	0.666664
C103	C	1.028322	-0.368253	-0.000002
C104	C	1.361655	-0.034920	0.333331
C105	C	1.694989	0.298414	0.666665
C106	C	1.101324	-0.415784	-0.000003
C107	C	1.434657	-0.082451	0.333330
C108	C	1.767990	0.250883	0.666664
C109	C	1.227934	0.102425	0.000010
C110	C	1.561268	0.435759	0.333343
C111	C	1.894601	0.769092	0.666676
C112	C	1.327354	0.104059	0.000005
C113	C	1.660687	0.437393	0.333339
C114	C	1.994021	0.770726	0.666672
C115	C	1.069173	0.250931	-0.000000
C116	C	1.402506	0.584265	0.333333
C117	C	1.735839	0.917598	0.666666
C118	C	1.077543	0.337734	-0.000006
C119	C	1.410876	0.671067	0.333327
C120	C	1.744209	1.004400	0.666660
N121	N	1.064805	0.107971	0.246667
N122	N	1.398139	0.441304	0.580001
N123	N	1.731472	0.774638	0.913334
N124	N	1.064852	0.107988	-0.246649
N125	N	1.398185	0.441321	0.086684
N126	N	1.731519	0.774655	0.420017
C127	C	1.121593	0.054893	0.296490
C128	C	1.454927	0.388226	0.629823
C129	C	1.788260	0.721559	0.963156
C130	C	1.121599	0.054892	0.396147
C131	C	1.454933	0.388225	0.729481
C132	C	1.788266	0.721559	1.062814
C133	C	1.064821	0.107975	0.445981
C134	C	1.398154	0.441308	0.779314
C135	C	1.731488	0.774641	1.112647
C136	C	1.008027	0.161056	0.396151
C137	C	1.341360	0.494389	0.729485
C138	C	1.674693	0.827722	1.062818
C139	C	1.008017	0.161052	0.296496
C140	C	1.341350	0.494385	0.629829
C141	C	1.674683	0.827718	0.963162
C142	C	1.008053	0.161061	0.603866
C143	C	1.341386	0.494395	0.937199
C144	C	1.674720	0.827728	1.270532
C145	C	1.008064	0.161067	0.703528
C146	C	1.341397	0.494400	1.036862
C147	C	1.674730	0.827733	1.370195
C148	C	1.121636	0.054902	0.703517
C149	C	1.454969	0.388235	1.036851
C150	C	1.788302	0.721568	1.370184
C151	C	1.121626	0.054898	0.603862
C152	C	1.454959	0.388231	0.937195
C153	C	1.788292	0.721564	1.270528
C154	C	1.064832	0.107980	0.554039
C155	C	1.398165	0.441313	0.887372
C156	C	1.731499	0.774647	1.220706
H157	H	0.793602	0.111765	0.156584
H158	H	1.126936	0.445098	0.489917
H159	H	1.460269	0.778431	0.823250
H160	H	0.890542	-0.260534	-0.000011
H161	H	1.223875	0.072799	0.333323
H162	H	1.557209	0.406133	0.666656
H163	H	1.167833	0.011670	0.255922
H164	H	1.501166	0.345003	0.589255
H165	H	1.834499	0.678337	0.922589
Br166	Br	0.598779	0.108547	0.203437
Br167	Br	0.932112	0.441881	0.536770
Br168	Br	1.265445	0.775214	0.870104
H169	H	0.624156	0.108955	-0.156571
H170	H	0.957489	0.442289	0.176762
H171	H	1.290823	0.775622	0.510095
H172	H	0.904814	-0.112565	-0.000001
H173	H	1.238147	0.220768	0.333333
H174	H	1.571481	0.554101	0.666666
H175	H	0.793632	0.111760	-0.156579
H176	H	1.126965	0.445094	0.176754
H177	H	1.460299	0.778427	0.510088
H178	H	0.961792	0.204274	0.436731
H179	H	1.295125	0.537607	0.770065
H180	H	1.628459	0.870941	1.103398
Br181	Br	1.243927	-0.129009	0.000039
Br182	Br	1.577260	0.204325	0.333372
Br183	Br	1.910593	0.537658	0.666705
H184	H	0.505490	0.107002	0.156589
H185	H	0.838823	0.440336	0.489922
H186	H	1.172156	0.773669	0.823255
Br187	Br	0.310662	0.103784	0.203448
Br188	Br	0.643996	0.437117	0.536782
Br189	Br	0.977329	0.770451	0.870115
Br190	Br	0.310685	0.103790	-0.203422
Br191	Br	0.644018	0.437123	0.129911
Br192	Br	0.977351	0.770457	0.463245
Br193	Br	0.530879	0.107418	-0.203431
Br194	Br	0.864213	0.440752	0.129902
Br195	Br	1.197546	0.774085	0.463235
Br196	Br	1.198690	-0.017135	0.536227
Br197	Br	1.532023	0.316198	0.869560
Br198	Br	1.865356	0.649531	1.202894
H199	H	1.239110	-0.523507	0.000012
H200	H	1.572443	-0.190174	0.333345
H201	H	1.905776	0.143160	0.666678
H202	H	1.183657	-0.294082	0.000013
H203	H	1.516990	0.039251	0.333347
H204	H	1.850324	0.372585	0.666680
Br205	Br	1.266553	-0.698629	0.000014
Br206	Br	1.599887	-0.365295	0.333347
Br207	Br	1.933220	-0.031962	0.666680
Br208	Br	1.198715	-0.017134	0.771136
Br209	Br	1.532049	0.316200	1.104470
Br210	Br	1.865382	0.649533	1.437803
Br211	Br	1.198667	-0.017147	0.463767
Br212	Br	1.532000	0.316187	0.797100
Br213	Br	1.865333	0.649520	1.130433
Br214	Br	0.885722	-0.655034	-0.000005
Br215	Br	1.219055	-0.321700	0.333328
Br216	Br	1.552388	0.011633	0.666661
Br217	Br	0.904266	-0.462795	-0.000029
Br218	Br	1.237600	-0.129462	0.333304
Br219	Br	1.570933	0.203871	0.666638
H220	H	0.961828	0.204291	0.744098
H221	H	1.295161	0.537624	1.077431
H222	H	1.628495	0.870958	1.410764
Br223	Br	1.216289	-0.372989	-0.000005
Br224	Br	1.549623	-0.039655	0.333328
Br225	Br	1.882956	0.293678	0.666662
Br226	Br	0.930937	0.233085	0.228879
Br227	Br	1.264271	0.566418	0.562213
Br228	Br	1.597604	0.899752	0.895546
H229	H	0.961802	0.204284	0.563303
H230	H	1.295136	0.537618	0.896637
H231	H	1.628469	0.870951	1.229970
H232	H	0.959347	-0.393936	-0.000004
H233	H	1.292681	-0.060602	0.333330
H234	H	1.626014	0.272731	0.666663
