data_functionalizedCrystal
_audit_creation_method	'MofGen! by Chris Wilmer'
_symmetry_space_group_name_H-M	'P1'
_symmetry_Int_Tables_number	1
_symmetry_cell_setting	triclinic
loop_
_symmetry_equiv_pos_as_xyz
  x,y,z
_cell_length_a	19.188933
_cell_length_b	19.288865
_cell_length_c	17.766277
_cell_angle_alpha	89.989546
_cell_angle_beta	90.007983
_cell_angle_gamma	96.859092
loop_
_atom_site_label
_atom_site_type_symbol
_atom_site_fract_x
_atom_site_fract_y
_atom_site_fract_z
O1	O	0.926142	-0.086723	0.062578
O2	O	1.176142	0.163277	0.312578
O3	O	1.426142	0.413277	0.562578
O4	O	1.676142	0.663277	0.812578
O5	O	0.722830	-0.098395	0.062586
O6	O	0.972830	0.151605	0.312586
O7	O	1.222830	0.401605	0.562586
O8	O	1.472830	0.651605	0.812586
O9	O	0.830361	0.008571	0.062567
O10	O	1.080361	0.258571	0.312567
O11	O	1.330361	0.508571	0.562567
O12	O	1.580361	0.758571	0.812567
O13	O	0.818612	-0.193689	0.062597
O14	O	1.068612	0.056311	0.312597
O15	O	1.318612	0.306311	0.562597
O16	O	1.568612	0.556311	0.812597
O17	O	0.830342	0.008574	-0.062622
O18	O	1.080342	0.258574	0.187378
O19	O	1.330342	0.508574	0.437378
O20	O	1.580342	0.758574	0.687378
O21	O	0.722811	-0.098392	-0.062603
O22	O	0.972811	0.151608	0.187397
O23	O	1.222811	0.401608	0.437397
O24	O	1.472811	0.651608	0.687397
O25	O	0.926123	-0.086720	-0.062611
O26	O	1.176123	0.163280	0.187389
O27	O	1.426123	0.413280	0.437389
O28	O	1.676123	0.663280	0.687389
Cu29	Cu	0.824465	-0.092556	-0.074037
Cu30	Cu	1.074465	0.157444	0.175963
Cu31	Cu	1.324465	0.407444	0.425963
Cu32	Cu	1.574465	0.657444	0.675963
Cu33	Cu	0.824488	-0.092559	0.074013
Cu34	Cu	1.074488	0.157441	0.324013
Cu35	Cu	1.324488	0.407441	0.574013
Cu36	Cu	1.574488	0.657441	0.824013
O37	O	0.818592	-0.193686	-0.062592
O38	O	1.068592	0.056314	0.187408
O39	O	1.318592	0.306314	0.437408
O40	O	1.568592	0.556314	0.687408
C41	C	0.696810	-0.098015	-0.000008
C42	C	0.946810	0.151985	0.249992
C43	C	1.196810	0.401985	0.499992
C44	C	1.446810	0.651985	0.749992
C45	C	0.619305	-0.096880	-0.000005
C46	C	0.869305	0.153120	0.249995
C47	C	1.119305	0.403120	0.499995
C48	C	1.369305	0.653120	0.749995
C49	C	0.066061	-0.088779	0.068226
C50	C	0.316061	0.161221	0.318226
C51	C	0.566061	0.411221	0.568226
C52	C	0.816061	0.661221	0.818226
C53	C	0.138885	-0.089841	0.068229
C54	C	0.388885	0.160159	0.318229
C55	C	0.638885	0.410159	0.568229
C56	C	0.888885	0.660159	0.818229
C57	C	0.175292	-0.090374	-0.000011
C58	C	0.425292	0.159626	0.249989
C59	C	0.675292	0.409626	0.499989
C60	C	0.925292	0.659626	0.749989
C61	C	0.138870	-0.089827	-0.068259
C62	C	0.388870	0.160173	0.181741
C63	C	0.638870	0.410173	0.431741
C64	C	0.888870	0.660173	0.681741
C65	C	0.066049	-0.088757	-0.068260
C66	C	0.316049	0.161243	0.181740
C67	C	0.566049	0.411243	0.431740
C68	C	0.816049	0.661243	0.681740
N69	N	0.284301	-0.131577	-0.050799
N70	N	0.534301	0.118423	0.199201
N71	N	0.784301	0.368423	0.449201
N72	N	1.034301	0.618423	0.699201
N73	N	0.353478	-0.132595	-0.050793
N74	N	0.603478	0.117405	0.199207
N75	N	0.853478	0.367405	0.449207
N76	N	1.103478	0.617405	0.699207
C77	C	0.394700	-0.093595	-0.000012
C78	C	0.644700	0.156405	0.249988
C79	C	0.894700	0.406405	0.499988
C80	C	1.144700	0.656405	0.749988
N81	N	0.364130	-0.053549	0.050775
N82	N	0.614130	0.196451	0.300775
N83	N	0.864130	0.446451	0.550775
N84	N	1.114130	0.696451	0.800775
N85	N	0.294946	-0.052534	0.050772
N86	N	0.544946	0.197466	0.300772
N87	N	0.794946	0.447466	0.550772
N88	N	1.044946	0.697466	0.800772
C89	C	0.254255	-0.091534	-0.000017
C90	C	0.504255	0.158466	0.249983
C91	C	0.754255	0.408466	0.499983
C92	C	1.004255	0.658466	0.749983
C93	C	0.510078	-0.095290	0.068235
C94	C	0.760078	0.154710	0.318235
C95	C	1.010078	0.404710	0.568235
C96	C	1.260078	0.654710	0.818235
C97	C	0.582904	-0.096348	0.068236
C98	C	0.832904	0.153652	0.318236
C99	C	1.082904	0.403652	0.568236
C100	C	1.332904	0.653652	0.818236
C101	C	0.582887	-0.096341	-0.068254
C102	C	0.832887	0.153659	0.181746
C103	C	1.082887	0.403659	0.431746
C104	C	1.332887	0.653659	0.681746
C105	C	0.510063	-0.095275	-0.068253
C106	C	0.760063	0.154725	0.181747
C107	C	1.010063	0.404725	0.431747
C108	C	1.260063	0.654725	0.681747
C109	C	0.473662	-0.094754	-0.000006
C110	C	0.723662	0.155246	0.249994
C111	C	0.973662	0.405246	0.499994
C112	C	1.223662	0.655246	0.749994
C113	C	0.829973	0.034449	-0.000030
C114	C	1.079973	0.284449	0.249970
C115	C	1.329973	0.534449	0.499970
C116	C	1.579973	0.784449	0.749970
C117	C	0.828839	0.111552	-0.000036
C118	C	1.078839	0.361552	0.249964
C119	C	1.328839	0.611552	0.499964
C120	C	1.578839	0.861552	0.749964
C121	C	0.952144	-0.087100	-0.000016
C122	C	1.202144	0.162900	0.249984
C123	C	1.452144	0.412900	0.499984
C124	C	1.702144	0.662900	0.749984
C125	C	1.029648	-0.088235	-0.000013
C126	C	1.279648	0.161765	0.249987
C127	C	1.529648	0.411765	0.499987
C128	C	1.779648	0.661765	0.749987
C129	C	0.818980	-0.219564	0.000007
C130	C	1.068980	0.030436	0.250007
C131	C	1.318980	0.280436	0.500007
C132	C	1.568980	0.530436	0.750007
C133	C	0.820115	-0.296668	0.000018
C134	C	1.070115	-0.046668	0.250018
C135	C	1.320115	0.203332	0.500018
C136	C	1.570115	0.453332	0.750018
N137	N	0.824455	-0.092553	-0.178168
N138	N	1.074455	0.157447	0.071832
N139	N	1.324455	0.407447	0.321832
N140	N	1.574455	0.657447	0.571832
C141	C	0.891933	0.156244	-0.000043
C142	C	1.141933	0.406244	0.249957
C143	C	1.391933	0.656244	0.499957
C144	C	1.641933	0.906244	0.749957
C145	C	0.890867	0.228691	-0.000031
C146	C	1.140867	0.478691	0.249969
C147	C	1.390867	0.728691	0.499969
C148	C	1.640867	0.978691	0.749969
C149	C	0.826703	0.256443	-0.000028
C150	C	1.076703	0.506443	0.249972
C151	C	1.326703	0.756443	0.499972
C152	C	1.576703	1.006443	0.749972
C153	C	0.763600	0.211742	-0.000017
C154	C	1.013600	0.461742	0.249983
C155	C	1.263600	0.711742	0.499983
C156	C	1.513600	0.961742	0.749983
C157	C	0.764668	0.139297	-0.000022
C158	C	1.014668	0.389297	0.249978
C159	C	1.264668	0.639297	0.499978
C160	C	1.514668	0.889297	0.749978
C161	C	0.776255	0.364736	-0.043876
C162	C	1.026255	0.614736	0.206124
C163	C	1.276255	0.864736	0.456124
C164	C	1.526255	1.114736	0.706124
C165	C	0.775190	0.437181	-0.043877
C166	C	1.025190	0.687181	0.206123
C167	C	1.275190	0.937181	0.456123
C168	C	1.525190	1.187181	0.706123
C169	C	0.823406	0.479889	-0.000011
C170	C	1.073406	0.729889	0.249989
C171	C	1.323406	0.979889	0.499989
C172	C	1.573406	1.229889	0.749989
C173	C	0.872699	0.450146	0.043846
C174	C	1.122699	0.700146	0.293846
C175	C	1.372699	0.950146	0.543846
C176	C	1.622699	1.200146	0.793846
C177	C	0.873767	0.377701	0.043842
C178	C	1.123767	0.627701	0.293842
C179	C	1.373767	0.877701	0.543842
C180	C	1.623767	1.127701	0.793842
C181	C	0.825537	0.334998	-0.000022
C182	C	1.075537	0.584998	0.249978
C183	C	1.325537	0.834998	0.499978
C184	C	1.575537	1.084998	0.749978
C185	C	0.885348	0.603137	-0.000003
C186	C	1.135348	0.853137	0.249997
C187	C	1.385348	1.103137	0.499997
C188	C	1.635348	1.353137	0.749997
C189	C	0.884279	0.675585	0.000014
C190	C	1.134279	0.925585	0.250014
C191	C	1.384279	1.175585	0.500014
C192	C	1.634279	1.425585	0.750014
C193	C	0.757011	0.658635	0.000020
C194	C	1.007011	0.908635	0.250020
C195	C	1.257011	1.158635	0.500020
C196	C	1.507011	1.408635	0.750020
C197	C	0.758082	0.586188	0.000011
C198	C	1.008082	0.836188	0.250011
C199	C	1.258082	1.086188	0.500011
C200	C	1.508082	1.336188	0.750011
C201	C	0.822252	0.558444	-0.000004
C202	C	1.072252	0.808444	0.249996
C203	C	1.322252	1.058444	0.499996
C204	C	1.572252	1.308444	0.749996
C205	C	0.866660	-0.134580	-0.217543
C206	C	1.116660	0.115420	0.032457
C207	C	1.366660	0.365420	0.282457
C208	C	1.616660	0.615420	0.532457
C209	C	0.866671	-0.134578	-0.296345
C210	C	1.116671	0.115422	-0.046345
C211	C	1.366671	0.365422	0.203655
C212	C	1.616671	0.615422	0.453655
C213	C	0.824464	-0.092557	-0.335768
C214	C	1.074464	0.157443	-0.085768
C215	C	1.324464	0.407443	0.164232
C216	C	1.574464	0.657443	0.414232
C217	C	0.782255	-0.050521	-0.296383
C218	C	1.032255	0.199479	-0.046383
C219	C	1.282255	0.449479	0.203617
C220	C	1.532255	0.699479	0.453617
C221	C	0.782251	-0.050519	-0.217583
C222	C	1.032251	0.199481	0.032417
C223	C	1.282251	0.449481	0.282417
C224	C	1.532251	0.699481	0.532417
C225	C	0.761526	-0.090795	-0.460626
C226	C	1.011526	0.159205	-0.210626
C227	C	1.261526	0.409205	0.039374
C228	C	1.511526	0.659205	0.289374
C229	C	0.761529	-0.090802	-0.539425
C230	C	1.011529	0.159198	-0.289425
C231	C	1.261529	0.409198	-0.039425
C232	C	1.511529	0.659198	0.210575
C233	C	0.824478	-0.092559	-0.578815
C234	C	1.074478	0.157441	-0.328815
C235	C	1.324478	0.407441	-0.078815
C236	C	1.574478	0.657441	0.171185
C237	C	0.887425	-0.094324	-0.539396
C238	C	1.137425	0.155676	-0.289396
C239	C	1.387425	0.405676	-0.039396
C240	C	1.637425	0.655676	0.210604
C241	C	0.887421	-0.094322	-0.460596
C242	C	1.137421	0.155678	-0.210596
C243	C	1.387421	0.405678	0.039404
C244	C	1.637421	0.655678	0.289404
C245	C	0.824464	-0.092554	-0.421214
C246	C	1.074464	0.157446	-0.171214
C247	C	1.324464	0.407446	0.078786
C248	C	1.574464	0.657446	0.328786
C249	C	0.866699	-0.134586	-0.703636
C250	C	1.116699	0.115414	-0.453636
C251	C	1.366699	0.365414	-0.203636
C252	C	1.616699	0.615414	0.046364
C253	C	0.866712	-0.134579	-0.782440
C254	C	1.116712	0.115421	-0.532440
C255	C	1.366712	0.365421	-0.282440
C256	C	1.616712	0.615421	-0.032440
C257	C	0.782289	-0.050526	-0.782476
C258	C	1.032289	0.199474	-0.532476
C259	C	1.282289	0.449474	-0.282476
C260	C	1.532289	0.699474	-0.032476
C261	C	0.782283	-0.050529	-0.703674
C262	C	1.032283	0.199471	-0.453674
C263	C	1.282283	0.449471	-0.203674
C264	C	1.532283	0.699471	0.046326
C265	C	0.824487	-0.092563	-0.664259
C266	C	1.074487	0.157437	-0.414259
C267	C	1.324487	0.407437	-0.164259
C268	C	1.574487	0.657437	0.085741
N269	N	0.824505	-0.092557	0.178143
N270	N	1.074505	0.157443	0.428143
N271	N	1.324505	0.407443	0.678143
N272	N	1.574505	0.657443	0.928143
H273	H	0.612551	-0.096786	0.123806
H274	H	0.862551	0.153214	0.373806
H275	H	1.112551	0.403214	0.623806
H276	H	1.362551	0.653214	0.873806
F277	F	0.924017	0.495594	0.090536
F278	F	1.174017	0.745594	0.340536
F279	F	1.424017	0.995594	0.590536
F280	F	1.674017	1.245594	0.840536
H281	H	0.747912	-0.016309	-0.671614
H282	H	0.997912	0.233691	-0.421614
H283	H	1.247912	0.483691	-0.171614
H284	H	1.497912	0.733691	0.078386
F285	F	0.911639	-0.179310	-0.824346
F286	F	1.161639	0.070690	-0.574346
F287	F	1.411639	0.320690	-0.324346
F288	F	1.661639	0.570690	-0.074346
F289	F	0.027326	-0.088219	0.140861
F290	F	0.277326	0.161781	0.390861
F291	F	0.527326	0.411781	0.640861
F292	F	0.777326	0.661781	0.890861
F293	F	0.953643	0.573606	-0.000022
F294	F	1.203643	0.823606	0.249978
F295	F	1.453643	1.073606	0.499978
F296	F	1.703643	1.323606	0.749978
F297	F	0.951437	0.723149	0.000012
F298	F	1.201437	0.973149	0.250012
F299	F	1.451437	1.223149	0.500012
F300	F	1.701437	1.473149	0.750012
H301	H	0.710260	-0.089369	-0.428561
H302	H	0.960260	0.160631	-0.178561
H303	H	1.210260	0.410631	0.071439
H304	H	1.460260	0.660631	0.321439
H305	H	0.168517	-0.090259	-0.123821
H306	H	0.418517	0.159741	0.126179
H307	H	0.668517	0.409741	0.376179
H308	H	0.918517	0.659741	0.626179
F309	F	0.737337	-0.005797	-0.338341
F310	F	0.987337	0.244203	-0.088341
F311	F	1.237337	0.494203	0.161659
F312	F	1.487337	0.744203	0.411659
F313	F	0.688723	0.688166	0.000027
F314	F	0.938723	0.938166	0.250027
F315	F	1.188723	1.188166	0.500027
F316	F	1.438723	1.438166	0.750027
H317	H	0.735050	0.461391	-0.079583
H318	H	0.985050	0.711391	0.170417
H319	H	1.235050	0.961391	0.420417
H320	H	1.485050	1.211391	0.670417
F321	F	0.690928	0.538623	0.000014
F322	F	0.940928	0.788623	0.250014
F323	F	1.190928	1.038623	0.500014
F324	F	1.440928	1.288623	0.750014
H325	H	0.901029	-0.168804	-0.185457
H326	H	1.151029	0.081196	0.064543
H327	H	1.401029	0.331196	0.314543
H328	H	1.651029	0.581196	0.564543
H329	H	0.036401	-0.088317	-0.123830
H330	H	0.286401	0.161683	0.126170
H331	H	0.536401	0.411683	0.376170
H332	H	0.786401	0.661683	0.626170
F333	F	0.471336	-0.094731	0.140869
F334	F	0.721336	0.155269	0.390869
F335	F	0.971336	0.405269	0.640869
F336	F	1.221336	0.655269	0.890869
H337	H	0.612528	-0.096772	-0.123817
H338	H	0.862528	0.153228	0.126183
H339	H	1.112528	0.403228	0.376183
H340	H	1.362528	0.653228	0.626183
F341	F	0.737375	-0.005797	-0.824427
F342	F	0.987375	0.244203	-0.574427
F343	F	1.237375	0.494203	-0.324427
F344	F	1.487375	0.744203	-0.074427
H345	H	0.736991	0.329968	-0.079601
H346	H	0.986991	0.579968	0.170399
H347	H	1.236991	0.829968	0.420399
H348	H	1.486991	1.079968	0.670399
H349	H	0.480415	-0.094835	-0.123820
H350	H	0.730415	0.155165	0.126180
H351	H	0.980415	0.405165	0.376180
H352	H	1.230415	0.655165	0.626180
F353	F	0.958023	0.276263	-0.000036
F354	F	1.208023	0.526263	0.249964
F355	F	1.458023	0.776263	0.499964
F356	F	1.708023	1.026263	0.749964
F357	F	0.695312	0.241280	-0.000009
F358	F	0.945312	0.491280	0.249991
F359	F	1.195312	0.741280	0.499991
F360	F	1.445312	0.991280	0.749991
F361	F	0.697512	0.091731	-0.000015
F362	F	0.947512	0.341731	0.249985
F363	F	1.197512	0.591731	0.499985
F364	F	1.447512	0.841731	0.749985
F365	F	0.911595	-0.179310	-0.338260
F366	F	1.161595	0.070690	-0.088260
F367	F	1.411595	0.320690	0.161740
F368	F	1.661595	0.570690	0.411740
F369	F	0.960229	0.126720	-0.000042
F370	F	1.210229	0.376720	0.249958
F371	F	1.460229	0.626720	0.499958
F372	F	1.710229	0.876720	0.749958
F373	F	0.926223	0.346048	0.090519
F374	F	1.176223	0.596048	0.340519
F375	F	1.426223	0.846048	0.590519
F376	F	1.676223	1.096048	0.840519
H377	H	0.938675	-0.095757	-0.428504
H378	H	1.188675	0.154243	-0.178504
H379	H	1.438675	0.404243	0.071496
H380	H	1.688675	0.654243	0.321496
F381	F	0.177647	-0.090421	0.140861
F382	F	0.427647	0.159579	0.390861
F383	F	0.677647	0.409579	0.640861
F384	F	0.927647	0.659579	0.890861
H385	H	0.747880	-0.016295	-0.185523
H386	H	0.997880	0.233705	0.064477
H387	H	1.247880	0.483705	0.314477
H388	H	1.497880	0.733705	0.564477
F389	F	0.954426	-0.096194	-0.581311
F390	F	1.204426	0.153806	-0.331311
F391	F	1.454426	0.403806	-0.081311
F392	F	1.704426	0.653806	0.168689
F393	F	0.911628	-0.179309	-0.661685
F394	F	1.161628	0.070691	-0.411685
F395	F	1.411628	0.320691	-0.161685
F396	F	1.661628	0.570691	0.088315
H397	H	0.710273	-0.089369	-0.571513
H398	H	0.960273	0.160631	-0.321513
H399	H	1.210273	0.410631	-0.071513
H400	H	1.460273	0.660631	0.178487
