data_functionalizedCrystal
_audit_creation_method	'MofGen! by Chris Wilmer'
_symmetry_space_group_name_H-M	'P1'
_symmetry_Int_Tables_number	1
_symmetry_cell_setting	triclinic
loop_
_symmetry_equiv_pos_as_xyz
  x,y,z
_cell_length_a	13.032831
_cell_length_b	12.759393
_cell_length_c	12.759400
_cell_angle_alpha	89.969615
_cell_angle_beta	82.819144
_cell_angle_gamma	82.806365
loop_
_atom_site_label
_atom_site_type_symbol
_atom_site_fract_x
_atom_site_fract_y
_atom_site_fract_z
Zn1	Zn	1.597755	-0.797728	-0.622491
Zn2	Zn	2.097755	-0.297728	-0.122491
Zn3	Zn	1.597653	-0.622039	-0.798197
Zn4	Zn	2.097653	-0.122039	-0.298197
Zn5	Zn	1.422988	-0.599782	-0.600200
Zn6	Zn	1.922988	-0.099782	-0.100200
Zn7	Zn	1.422978	-0.775407	-0.775782
Zn8	Zn	1.922978	-0.275407	-0.275782
O9	O	1.510344	-0.698739	-0.699168
O10	O	2.010344	-0.198739	-0.199168
O11	O	1.743984	-0.793079	-0.664509
O12	O	2.243984	-0.293079	-0.164509
O13	O	1.574444	-0.472060	-0.771984
O14	O	2.074444	0.027940	-0.271984
O15	O	1.446218	-0.626067	-0.456142
O16	O	1.946218	-0.126067	0.043858
O17	O	1.743909	-0.664001	-0.793599
O18	O	2.243909	-0.164001	-0.293599
O19	O	1.574619	-0.771497	-0.472519
O20	O	2.074619	-0.271497	0.027481
O21	O	1.446118	-0.455708	-0.626517
O22	O	1.946118	0.044292	-0.126517
O23	O	1.276744	-0.604423	-0.604782
O24	O	1.776744	-0.104423	-0.104782
O25	O	1.446202	-0.925394	-0.755396
O26	O	1.946202	-0.425394	-0.255396
O27	O	1.276737	-0.733454	-0.733781
O28	O	1.776737	-0.233454	-0.233781
O29	O	1.574610	-0.941793	-0.642774
O30	O	2.074610	-0.441793	-0.142774
O31	O	1.574435	-0.642356	-0.942239
O32	O	2.074435	-0.142356	-0.442239
O33	O	1.446102	-0.755035	-0.925770
O34	O	1.946102	-0.255035	-0.425770
C35	C	1.238821	-0.664102	-0.664431
C36	C	1.738821	-0.164102	-0.164431
C37	C	1.122663	-0.649308	-0.649596
C38	C	1.622663	-0.149308	-0.149596
C39	C	1.510417	-0.972782	-0.699071
C40	C	2.010417	-0.472782	-0.199071
C41	C	1.510448	-1.089562	-0.699029
C42	C	2.010448	-0.589562	-0.199029
C43	C	1.510285	-0.698715	-0.972128
C44	C	2.010285	-0.198715	-0.472128
C45	C	1.510355	-0.698753	-1.088913
C46	C	2.010355	-0.198753	-0.588913
C47	C	1.070900	-0.706459	-0.706910
C48	C	1.570900	-0.206459	-0.206910
C49	C	0.950844	-0.691172	-0.691579
C50	C	1.450844	-0.191172	-0.191579
C51	C	1.782926	-0.733512	-0.734041
C52	C	2.282926	-0.233512	-0.234041
C53	C	1.899084	-0.748331	-0.748902
C54	C	2.399084	-0.248331	-0.248902
C55	C	1.443653	-1.135912	-0.623275
C56	C	1.943653	-0.635912	-0.123275
C57	C	1.443677	-1.245640	-0.623246
C58	C	1.943677	-0.745640	-0.123246
C59	C	1.577300	-1.262658	-0.774729
C60	C	2.077300	-0.762658	-0.274729
C61	C	1.577270	-1.152932	-0.774762
C62	C	2.077270	-0.652932	-0.274762
C63	C	1.510331	-0.425770	-0.699196
C64	C	2.010331	0.074230	-0.199196
C65	C	1.510502	-0.309016	-0.698967
C66	C	2.010502	0.190984	-0.198967
C67	C	1.577236	-0.774561	-1.261952
C68	C	2.077236	-0.274561	-0.761952
C69	C	1.577182	-0.774530	-1.152222
C70	C	2.077182	-0.274530	-0.652222
C71	C	1.443585	-0.622994	-1.135342
C72	C	1.943585	-0.122994	-0.635342
C73	C	1.443644	-0.623021	-1.245071
C74	C	1.943644	-0.123021	-0.745071
C75	C	1.510431	-0.698789	-0.425146
C76	C	2.010431	-0.198789	0.074854
C77	C	1.510469	-0.698811	-0.308374
C78	C	2.010469	-0.198811	0.191626
H79	H	1.115465	-0.766710	-0.767326
H80	H	1.615465	-0.266710	-0.267326
Br81	Br	0.876582	-0.590756	-0.590858
Br82	Br	1.376582	-0.090756	-0.090858
H83	H	0.943644	-0.808588	-0.809319
H84	H	1.443644	-0.308588	-0.309319
Br85	Br	1.048397	-0.548897	-0.548879
Br86	Br	1.548397	-0.048897	-0.048879
Br87	Br	1.352964	-1.049913	-0.520498
Br88	Br	1.852964	-0.549913	-0.020498
H89	H	1.389285	-1.283372	-0.561560
H90	H	1.889285	-0.783372	-0.061560
H91	H	1.631552	-0.836212	-1.114429
H92	H	2.131552	-0.336212	-0.614429
Br93	Br	1.352896	-0.520145	-1.049425
Br94	Br	1.852896	-0.020145	-0.549425
H95	H	1.389273	-0.561331	-1.282868
H96	H	1.889273	-0.061331	-0.782868
Br97	Br	1.667984	-1.348666	-0.877504
Br98	Br	2.167984	-0.848666	-0.377504
Br99	Br	1.667920	-1.090021	-0.877586
Br100	Br	2.167920	-0.590021	-0.377586
Br101	Br	1.667929	-0.877414	-1.347860
Br102	Br	2.167929	-0.377414	-0.847860
