data_functionalizedCrystal
_audit_creation_method	'MofGen! by Chris Wilmer'
_symmetry_space_group_name_H-M	'P1'
_symmetry_Int_Tables_number	1
_symmetry_cell_setting	triclinic
loop_
_symmetry_equiv_pos_as_xyz
  x,y,z
_cell_length_a	17.052862
_cell_length_b	14.395555
_cell_length_c	17.052862
_cell_angle_alpha	70.263256
_cell_angle_beta	92.606806
_cell_angle_gamma	50.261230
loop_
_atom_site_label
_atom_site_type_symbol
_atom_site_fract_x
_atom_site_fract_y
_atom_site_fract_z
Zr1	Zr	0.908884	0.702858	0.030285
O2	O	0.780729	0.896651	-0.097879
O3	O	0.948166	0.509065	0.069575
O4	O	0.974022	0.643027	-0.072028
O5	O	0.734484	0.809887	0.155422
O6	O	1.126499	0.595830	-0.051637
O7	O	0.754874	0.762690	0.043724
O8	O	1.080249	0.356198	0.201664
O9	O	0.780734	1.049519	-0.097880
O10	O	1.078717	0.553553	0.101548
O11	O	0.949708	0.623998	0.169689
O12	O	0.980149	0.781720	0.002970
O13	O	0.851140	0.852164	0.071112
Zr14	Zr	1.119548	0.702859	0.240951
Zr15	Zr	1.152068	0.627586	0.062806
Zr16	Zr	0.876364	0.778131	0.208430
Zr17	Zr	0.908892	0.946664	0.030283
Zr18	Zr	1.119541	0.459053	0.240952
O19	O	1.080266	0.896652	0.201661
O20	O	1.126505	0.789624	-0.051639
O21	O	0.734490	1.003680	0.155421
O22	O	1.247704	0.509066	0.369114
O23	O	1.293943	0.402038	0.115815
O24	O	0.901927	0.616094	0.322874
O25	O	1.293949	0.595831	0.115814
O26	O	1.054411	0.762691	0.343263
O27	O	0.901934	0.809887	0.322873
O28	O	1.273559	0.643027	0.227511
O29	O	0.974033	0.989687	-0.072030
O30	O	1.054400	0.416030	0.343266
O31	O	1.247699	0.356199	0.369115
O32	O	1.273548	0.296367	0.227514
O33	O	0.754885	1.109351	0.043722
O34	O	0.948184	1.049519	0.069571
O35	O	1.048283	0.623998	0.268265
O36	O	1.177292	0.553554	0.200124
O37	O	1.078724	0.781720	0.101546
O38	O	0.949715	0.852164	0.169688
C39	C	0.710030	0.797013	0.094940
C40	C	0.606792	0.828968	0.081134
C41	C	1.014207	0.397895	0.135620
C42	C	1.014203	0.294393	0.135621
C43	C	0.521593	0.442629	0.248045
C44	C	0.618593	0.412600	0.261013
C45	C	0.615648	0.516689	0.216044
C46	C	0.515693	0.650814	0.158105
C47	C	0.418685	0.680844	0.145131
C48	C	0.512740	0.754904	0.113130
C49	C	0.412784	0.889028	0.055191
C50	C	0.315786	0.919053	0.042220
C51	C	0.318731	0.814964	0.087188
C52	C	0.609748	0.724873	0.126105
C53	C	0.506839	0.963088	0.023191
C54	C	0.409839	0.993118	0.010223
C55	C	0.943865	0.272210	0.172778
C56	C	0.913208	0.267264	0.088380
C57	C	1.044837	0.114941	0.219991
C58	C	0.983493	0.290873	0.051169
C59	C	1.115170	0.138493	0.182844
C60	C	1.084549	0.133566	0.098403
C61	C	1.318402	0.608704	0.176296
C62	C	1.421640	0.576749	0.190102
C63	C	1.054894	0.608704	-0.087214
C64	C	1.068699	0.576748	-0.162842
C65	C	1.014226	1.007823	0.135616
C66	C	1.014229	1.111325	0.135615
C67	C	0.901792	0.963089	-0.581855
C68	C	0.888814	0.993118	-0.510802
C69	C	0.933784	0.889028	-0.423809
C70	C	0.991734	0.754904	-0.407875
C71	C	1.004706	0.724874	-0.478936
C72	C	1.036698	0.650814	-0.320890
C73	C	1.094648	0.516689	-0.304956
C74	C	1.107618	0.486665	-0.376011
C75	C	1.062647	0.590754	-0.463004
C76	C	1.023727	0.680844	-0.249829
C77	C	1.126641	0.442629	-0.146910
C78	C	1.139618	0.412600	-0.217963
C79	C	0.973539	0.797014	0.358450
C80	C	0.959733	0.828969	0.434077
C81	C	1.318392	0.303741	0.176298
C82	C	1.421627	0.168283	0.190105
C83	C	0.973529	0.492050	0.358452
C84	C	0.959720	0.420503	0.434080
C85	C	1.277715	0.397895	0.399130
C86	C	1.367144	0.294394	0.488564
C87	C	0.750717	1.007822	-0.127895
C88	C	0.661288	1.111324	-0.217329
C89	C	0.710040	1.101977	0.094937
C90	C	0.606806	1.237434	0.081131
C91	C	1.054903	0.913668	-0.087217
C92	C	1.068712	0.985214	-0.162844
C93	C	1.418653	0.104668	0.145125
C94	C	1.515647	-0.022599	0.158080
C95	C	1.615612	-0.086253	0.216020
C96	C	1.618584	-0.022627	0.261000
C97	C	1.521592	0.104643	0.248040
C98	C	1.004689	0.386907	0.521059
C99	C	0.991709	0.319700	0.592126
C100	C	0.933766	0.286080	0.576212
C101	C	0.888791	0.319684	0.489224
C102	C	0.901765	0.386899	0.418159
C103	C	1.476493	0.209014	0.494995
C104	C	1.560531	0.111771	0.579022
C105	C	1.535219	0.099903	0.656617
C106	C	1.425860	0.185295	0.650183
C107	C	1.341823	0.282543	0.566157
C108	C	0.551940	1.196715	-0.223760
C109	C	0.467901	1.293989	-0.307787
C110	C	0.493213	1.305861	-0.385381
C111	C	0.602573	1.220463	-0.378947
C112	C	0.686609	1.123199	-0.294921
C113	C	0.609781	1.301056	0.126103
C114	C	0.512791	1.428342	0.113128
C115	C	0.412826	1.491998	0.055186
C116	C	0.409854	1.428369	0.010209
C117	C	0.506844	1.301090	0.023179
C118	C	1.126662	1.018811	-0.146903
C119	C	1.139658	1.086019	-0.217954
C120	C	1.094696	1.119639	-0.304946
C121	C	1.036744	1.086034	-0.320886
C122	C	1.023756	1.018818	-0.249835
H123	H	0.691123	0.615670	0.173286
H124	H	0.923209	0.231349	0.634087
H125	H	0.841632	1.102322	-0.523781
H126	H	0.504438	1.047845	-0.013428
F127	F	0.524976	1.184100	-0.141188
F128	F	1.076457	0.558801	-0.538631
H129	H	1.105280	1.174372	-0.362792
H130	H	0.623170	1.230143	-0.442135
H131	H	0.699973	0.303391	0.308177
F132	F	1.512461	-0.090294	0.110204
F133	F	1.078689	0.016431	0.313254
H134	H	0.515231	1.480129	0.149760
F135	F	1.624670	-0.003605	0.746040
H136	H	1.524028	0.156425	0.284674
H137	H	0.841613	0.292301	0.476280
F138	F	0.802986	1.032316	-0.288090
F139	F	0.351521	1.384859	-0.314616
F140	F	1.398937	0.172649	0.732774
F141	F	0.866048	0.350207	0.213782
F142	F	0.988890	1.121835	-0.413477
F143	F	0.524717	0.331864	0.295890
F144	F	0.853904	0.422640	0.325591
F145	F	1.226732	0.068715	0.235077
H146	H	1.163277	0.991449	-0.076076
F147	F	1.162308	0.055857	0.057259
H148	H	0.976563	0.991474	-0.262828
H149	H	0.976542	0.790050	-0.262811
F150	F	1.718832	-0.221707	0.229805
F151	F	1.225447	0.373399	0.559325
H152	H	0.424775	1.385066	-0.453795
F153	F	1.724984	-0.090392	0.322664
F154	F	1.066366	0.422671	0.538015
F155	F	0.716161	1.233334	0.187772
F156	F	0.801618	0.337082	0.036166
H157	H	1.154795	0.377454	-0.363032
F158	F	1.039586	0.283943	0.684698
H159	H	0.923214	0.913487	-0.365957
H160	H	0.333858	1.595637	0.044634
F161	F	0.853924	1.073856	-0.674438
H162	H	1.497123	0.218657	0.431823
F163	F	0.949514	0.389348	-0.042155
F164	F	0.303453	1.496132	-0.051453
F165	F	1.201288	0.269859	-0.201016
H166	H	0.504406	1.249295	-0.013442
F167	F	1.676912	0.020900	0.585851
F168	F	1.201332	1.121779	-0.200972
F169	F	1.174501	0.331843	-0.054327
F170	F	0.215493	0.846921	0.073396
H171	H	0.234402	1.028264	-0.004966
H172	H	0.694633	0.492231	0.226607
H173	H	0.328443	1.102323	-0.036952
H174	H	1.337267	0.156487	0.097936
