data_functionalizedCrystal
_audit_creation_method	'MofGen! by Chris Wilmer'
_symmetry_space_group_name_H-M	'P1'
_symmetry_Int_Tables_number	1
_symmetry_cell_setting	triclinic
loop_
_symmetry_equiv_pos_as_xyz
  x,y,z
_cell_length_a	25.639239
_cell_length_b	18.101398
_cell_length_c	18.101398
_cell_angle_alpha	90.006000
_cell_angle_beta	90.006971
_cell_angle_gamma	89.966508
loop_
_atom_site_label
_atom_site_type_symbol
_atom_site_fract_x
_atom_site_fract_y
_atom_site_fract_z
Zn1	Zn	-0.208348	-1.131975	0.418517
Zn2	Zn	0.124986	-0.798642	0.751850
Zn3	Zn	0.458319	-0.465309	1.085184
Zn4	Zn	-0.295748	-1.131886	0.294671
Zn5	Zn	0.037585	-0.798553	0.628005
Zn6	Zn	0.370918	-0.465220	0.961338
Zn7	Zn	-0.208321	-1.008166	0.294712
Zn8	Zn	0.125012	-0.674832	0.628046
Zn9	Zn	0.458346	-0.341499	0.961379
Zn10	Zn	-0.295746	-1.008068	0.418494
Zn11	Zn	0.037587	-0.674735	0.751827
Zn12	Zn	0.370921	-0.341402	1.085160
O13	O	-0.252041	-1.070024	0.356599
O14	O	0.081293	-0.736691	0.689932
O15	O	0.414626	-0.403357	1.023265
O16	O	-0.219954	-1.235596	0.402081
O17	O	0.113380	-0.902263	0.735415
O18	O	0.446713	-0.568930	1.068748
O19	O	-0.284141	-1.115478	0.191044
O20	O	0.049192	-0.782145	0.524377
O21	O	0.382526	-0.448811	0.857711
O22	O	-0.135159	-1.024667	0.311162
O23	O	0.198174	-0.691334	0.644496
O24	O	0.531507	-0.358001	0.977829
O25	O	-0.284167	-1.235531	0.311092
O26	O	0.049167	-0.902198	0.644426
O27	O	0.382500	-0.568864	0.977759
O28	O	-0.135179	-1.115629	0.402121
O29	O	0.198154	-0.782296	0.735454
O30	O	0.531488	-0.448963	1.068788
O31	O	-0.219908	-1.024581	0.191074
O32	O	0.113425	-0.691248	0.524407
O33	O	0.446758	-0.357914	0.857741
O34	O	-0.219906	-0.904520	0.311140
O35	O	0.113427	-0.571187	0.644473
O36	O	0.446761	-0.237853	0.977806
O37	O	-0.284163	-1.024502	0.522130
O38	O	0.049171	-0.691168	0.855463
O39	O	0.382504	-0.357835	1.188796
O40	O	-0.284137	-0.904449	0.402081
O41	O	0.049197	-0.571115	0.735415
O42	O	0.382530	-0.237782	1.068748
O43	O	-0.219951	-1.115535	0.522147
O44	O	0.113382	-0.782202	0.855480
O45	O	0.446715	-0.448869	1.188814
O46	O	-0.368913	-1.115384	0.311070
O47	O	-0.035580	-0.782050	0.644403
O48	O	0.297753	-0.448717	0.977736
O49	O	-0.368912	-1.024415	0.402042
O50	O	-0.035578	-0.691082	0.735375
O51	O	0.297755	-0.357749	1.068708
C52	C	-0.252018	-0.877613	0.356613
C53	C	0.081315	-0.544280	0.689946
C54	C	0.414648	-0.210947	1.023280
C55	C	-0.252021	-0.795299	0.356636
C56	C	0.081312	-0.461966	0.689970
C57	C	0.414645	-0.128633	1.023303
C58	C	-0.252049	-0.496208	0.356612
C59	C	0.081284	-0.162875	0.689945
C60	C	0.414617	0.170458	1.023278
C61	C	-0.292657	-0.527513	0.413547
C62	C	0.040676	-0.194180	0.746880
C63	C	0.374009	0.139153	1.080213
C64	C	-0.292531	-0.613132	0.413779
C65	C	0.040802	-0.279798	0.747112
C66	C	0.374136	0.053535	1.080445
C67	C	-0.252036	-0.644591	0.356624
C68	C	0.081297	-0.311258	0.689957
C69	C	0.414631	0.022076	1.023291
C70	C	-0.196972	-0.613541	0.377955
C71	C	0.136361	-0.280208	0.711288
C72	C	0.469695	0.053125	1.044622
C73	C	-0.197215	-0.527896	0.378362
C74	C	0.136118	-0.194563	0.711695
C75	C	0.469452	0.138771	1.045028
C76	C	-0.266020	-0.527773	0.278208
C77	C	0.067313	-0.194440	0.611541
C78	C	0.400646	0.138894	0.944874
C79	C	-0.267230	-0.613423	0.278625
C80	C	0.066104	-0.280089	0.611958
C81	C	0.399437	0.053244	0.945291
C82	C	-0.252025	-0.728450	0.356630
C83	C	0.081308	-0.395117	0.689963
C84	C	0.414642	-0.061784	1.023296
C85	C	-0.252057	-0.412349	0.356608
C86	C	0.081277	-0.079015	0.689941
C87	C	0.414610	0.254318	1.023274
C88	C	-0.387883	-1.069899	0.356565
C89	C	-0.054550	-0.736566	0.689898
C90	C	0.278783	-0.403233	1.023231
C91	C	-0.445997	-1.069914	0.356575
C92	C	-0.112664	-0.736580	0.689908
C93	C	0.220669	-0.403247	1.023242
C94	C	-0.806349	-1.117515	0.309310
C95	C	-0.473015	-0.784181	0.642644
C96	C	-0.139682	-0.450848	0.975977
C97	C	-0.860953	-1.117543	0.309320
C98	C	-0.527620	-0.784210	0.642654
C99	C	-0.194286	-0.450877	0.975987
O100	O	-0.889180	-1.157886	0.269097
O101	O	-0.555847	-0.824553	0.602430
O102	O	-0.222513	-0.491219	0.935764
N103	N	-0.888280	-1.070154	0.356648
N104	N	-0.554946	-0.736821	0.689981
N105	N	-0.221613	-0.403487	1.023314
C106	C	-0.860999	-1.022738	0.403974
C107	C	-0.527666	-0.689405	0.737307
C108	C	-0.194333	-0.356072	1.070640
O109	O	-0.889257	-0.982433	0.444231
O110	O	-0.555923	-0.649100	0.777564
O111	O	-0.222590	-0.315766	1.110898
C112	C	-0.806396	-1.022714	0.403967
C113	C	-0.473063	-0.689380	0.737300
C114	C	-0.139729	-0.356047	1.070634
C115	C	-0.779072	-1.070101	0.356631
C116	C	-0.445739	-0.736768	0.689964
C117	C	-0.112406	-0.403434	1.023298
C118	C	-0.779025	-1.164899	0.261979
C119	C	-0.445692	-0.831565	0.595312
C120	C	-0.112358	-0.498232	0.928645
C121	C	-0.724424	-1.164869	0.261968
C122	C	-0.391091	-0.831535	0.595301
C123	C	-0.057758	-0.498202	0.928635
C124	C	-0.697148	-1.117455	0.309289
C125	C	-0.363814	-0.784122	0.642622
C126	C	-0.030481	-0.450788	0.975956
C127	C	-0.724472	-1.070071	0.356620
C128	C	-0.391138	-0.736738	0.689954
C129	C	-0.057805	-0.403404	1.023287
C130	C	-0.779117	-0.975302	0.451296
C131	C	-0.445783	-0.641969	0.784630
C132	C	-0.112450	-0.308636	1.117963
C133	C	-0.724510	-0.975282	0.451286
C134	C	-0.391176	-0.641949	0.784619
C135	C	-0.057843	-0.308616	1.117952
C136	C	-0.697186	-1.022669	0.403950
C137	C	-0.363852	-0.689336	0.737283
C138	C	-0.030519	-0.356003	1.070617
C139	C	-0.642594	-1.022628	0.403930
C140	C	-0.309261	-0.689294	0.737264
C141	C	0.024072	-0.355961	1.070597
N142	N	-0.615268	-1.070017	0.356603
N143	N	-0.281934	-0.736683	0.689936
N144	N	0.051399	-0.403350	1.023270
C145	C	-0.642544	-1.117431	0.309282
C146	C	-0.309211	-0.784097	0.642616
C147	C	0.024122	-0.450764	0.975949
C148	C	-0.975670	-1.022794	0.403985
C149	C	-0.642337	-0.689461	0.737318
C150	C	-0.309003	-0.356127	1.070652
C151	C	-1.030272	-1.022814	0.403989
C152	C	-0.696939	-0.689481	0.737322
C153	C	-0.363606	-0.356147	1.070655
C154	C	-1.030222	-1.117620	0.309336
C155	C	-0.696889	-0.784287	0.642669
C156	C	-0.363556	-0.450954	0.976003
C157	C	-0.975619	-1.117596	0.309329
C158	C	-0.642286	-0.784263	0.642663
C159	C	-0.308952	-0.450929	0.975996
C160	C	-0.948343	-1.070183	0.356658
C161	C	-0.615010	-0.736850	0.689991
C162	C	-0.281677	-0.403517	1.023324
C163	C	-0.527879	-1.117364	0.309263
C164	C	-0.194546	-0.784030	0.642596
C165	C	0.138787	-0.450697	0.975930
C166	C	-0.473274	-1.117328	0.309254
C167	C	-0.139941	-0.783994	0.642588
C168	C	0.193393	-0.450661	0.975921
C169	C	-0.473329	-1.022524	0.403909
C170	C	-0.139995	-0.689191	0.737243
C171	C	0.193338	-0.355858	1.070576
C172	C	-0.527929	-1.022557	0.403916
C173	C	-0.194596	-0.689224	0.737249
C174	C	0.138737	-0.355891	1.070582
C175	C	-0.555203	-1.069983	0.356590
C176	C	-0.221870	-0.736650	0.689923
C177	C	0.111463	-0.403317	1.023257
O178	O	-0.614333	-0.982307	0.444135
O179	O	-0.281000	-0.648974	0.777469
O180	O	0.052334	-0.315641	1.110802
O181	O	-0.614280	-1.157736	0.269039
O182	O	-0.280947	-0.824402	0.602372
O183	O	0.052386	-0.491069	0.935705
C184	C	-0.115668	-1.070169	0.356649
C185	C	0.217666	-0.736836	0.689982
C186	C	0.550999	-0.403502	1.023316
C187	C	-0.057554	-1.070231	0.356670
C188	C	0.275780	-0.736898	0.690004
C189	C	0.609113	-0.403564	1.023337
C190	C	-0.252060	-1.070017	0.549761
C191	C	0.081274	-0.736684	0.883094
C192	C	0.414607	-0.403351	1.216427
C193	C	-0.252068	-1.070015	0.632075
C194	C	0.081266	-0.736681	0.965408
C195	C	0.414599	-0.403348	1.298741
C196	C	-0.252061	-0.263186	0.356590
C197	C	0.081272	0.070148	0.689923
C198	C	0.414605	0.403481	1.023257
C199	C	-0.252064	-0.345500	0.356599
C200	C	0.081269	-0.012167	0.689932
C201	C	0.414603	0.321167	1.023266
C202	C	-0.252059	-1.070009	0.782783
C203	C	0.081274	-0.736676	1.116116
C204	C	0.414607	-0.403343	1.449450
C205	C	-0.292458	-1.012736	0.814126
C206	C	0.040875	-0.679402	1.147459
C207	C	0.374209	-0.346069	1.480793
C208	C	-0.292334	-1.012508	0.899744
C209	C	0.040999	-0.679175	1.233078
C210	C	0.374332	-0.345842	1.566411
C211	C	-0.252052	-1.070004	0.931166
C212	C	0.081281	-0.736671	1.264499
C213	C	0.414615	-0.403337	1.597832
C214	C	-0.196909	-1.049134	0.900090
C215	C	0.136425	-0.715801	1.233423
C216	C	0.469758	-0.382468	1.566757
C217	C	-0.197147	-1.048722	0.814445
C218	C	0.136186	-0.715388	1.147778
C219	C	0.469520	-0.382055	1.481112
C220	C	-0.266321	-1.148296	0.814336
C221	C	0.067013	-0.814963	1.147669
C222	C	0.400346	-0.481629	1.481002
C223	C	-0.267532	-1.147873	0.899986
C224	C	0.065801	-0.814539	1.233320
C225	C	0.399135	-0.481206	1.566653
C226	C	-0.252045	-1.070002	1.015025
C227	C	0.081289	-0.736669	1.348358
C228	C	0.414622	-0.403335	1.681692
C229	C	-0.252063	-1.070009	0.698924
C230	C	0.081270	-0.736676	1.032257
C231	C	0.414603	-0.403343	1.365590
C232	C	-0.252038	-1.070017	1.164188
C233	C	0.081295	-0.736684	1.497521
C234	C	0.414628	-0.403351	1.830855
C235	C	-0.252044	-1.069998	1.081874
C236	C	0.081290	-0.736665	1.415207
C237	C	0.414623	-0.403332	1.748541
H238	H	-0.305485	-0.506157	0.258824
H239	H	0.027849	-0.172824	0.592157
H240	H	0.361182	0.160510	0.925491
C241	C	-0.809163	-0.923186	0.503374
C242	C	-0.475830	-0.589853	0.836708
C243	C	-0.142497	-0.256519	1.170041
H244	H	-0.845591	-0.929982	0.496609
H245	H	-0.512258	-0.596649	0.829942
H246	H	-0.178925	-0.263315	1.163275
H247	H	-0.800192	-0.933989	0.553133
H248	H	-0.466859	-0.600656	0.886467
H249	H	-0.133526	-0.267323	1.219800
H250	H	-0.800248	-0.873428	0.492502
H251	H	-0.466915	-0.540095	0.825835
H252	H	-0.133582	-0.206761	1.159169
C253	C	-0.180676	-0.642498	0.454552
C254	C	0.152657	-0.309164	0.787885
C255	C	0.485990	0.024169	1.121219
H256	H	-0.207351	-0.673502	0.473633
H257	H	0.125982	-0.340168	0.806967
H258	H	0.459316	-0.006835	1.140300
H259	H	-0.149204	-0.669874	0.450229
H260	H	0.184129	-0.336541	0.783562
H261	H	0.517463	-0.003208	1.116895
H262	H	-0.175433	-0.601969	0.487058
H263	H	0.157900	-0.268636	0.820392
H264	H	0.491233	0.064697	1.153725
H265	H	-0.550079	-1.155984	0.270727
H266	H	-0.216746	-0.822651	0.604061
H267	H	0.116587	-0.489317	0.937394
C268	C	-0.155086	-1.102642	0.786427
C269	C	0.178247	-0.769308	1.119760
C270	C	0.511581	-0.435975	1.453093
H271	H	-0.154949	-1.102758	0.733943
H272	H	0.178385	-0.769425	1.067277
H273	H	0.511718	-0.436091	1.400610
H274	H	-0.121883	-1.087464	0.804071
H275	H	0.211450	-0.754131	1.137404
H276	H	0.544783	-0.420798	1.470738
H277	H	-0.162484	-1.150972	0.803975
H278	H	0.170849	-0.817639	1.137308
H279	H	0.504183	-0.484306	1.470641
H280	H	-0.165897	-0.633922	0.337779
H281	H	0.167436	-0.300588	0.671113
H282	H	0.500769	0.032745	1.004446
C283	C	-0.443218	-1.169446	0.257176
C284	C	-0.109885	-0.836112	0.590509
C285	C	0.223448	-0.502779	0.923843
H286	H	-0.406791	-1.162633	0.263936
H287	H	-0.073458	-0.829300	0.597269
H288	H	0.259875	-0.495967	0.930603
H289	H	-0.452128	-1.219202	0.268043
H290	H	-0.118795	-0.885869	0.601376
H291	H	0.214538	-0.552536	0.934710
H292	H	-0.452189	-1.158640	0.207413
H293	H	-0.118855	-0.825306	0.540746
H294	H	0.214478	-0.491973	0.874079
C295	C	-0.347864	-1.030116	0.786291
C296	C	-0.014531	-0.696783	1.119625
C297	C	0.318802	-0.363450	1.452958
H298	H	-0.346858	-1.072454	0.755302
H299	H	-0.013525	-0.739121	1.088635
H300	H	0.319809	-0.405788	1.421968
H301	H	-0.370047	-1.039457	0.827264
H302	H	-0.036714	-0.706124	1.160598
H303	H	0.296620	-0.372790	1.493931
H304	H	-0.360868	-0.989159	0.759117
H305	H	-0.027535	-0.655826	1.092450
H306	H	0.305799	-0.322493	1.425784
H307	H	-0.702304	-0.936674	0.489829
H308	H	-0.368971	-0.603341	0.823162
H309	H	-0.035638	-0.270007	1.156495
H310	H	-0.307749	-0.633723	0.262537
H311	H	0.025585	-0.300390	0.595870
H312	H	0.358918	0.032943	0.929203
H313	H	-0.550178	-0.983973	0.442463
H314	H	-0.216844	-0.650640	0.775796
H315	H	0.116489	-0.317307	1.109129
C316	C	-0.279837	-0.934809	0.785088
C317	C	0.053496	-0.601476	1.118422
C318	C	0.386829	-0.268142	1.451755
H319	H	-0.304428	-0.900545	0.804291
H320	H	0.028905	-0.567212	1.137624
H321	H	0.362238	-0.233879	1.470957
H322	H	-0.245746	-0.921117	0.800396
H323	H	0.087587	-0.587783	1.133729
H324	H	0.420920	-0.254450	1.467062
H325	H	-0.281558	-0.934688	0.732663
H326	H	0.051775	-0.601355	1.065996
H327	H	0.385109	-0.268021	1.399329
C328	C	-0.181209	-0.500905	0.455790
C329	C	0.152125	-0.167572	0.789123
C330	C	0.485458	0.165761	1.122456
H331	H	-0.181213	-0.448430	0.456720
H332	H	0.152120	-0.115096	0.790053
H333	H	0.485453	0.218237	1.123386
H334	H	-0.205283	-0.519015	0.491316
H335	H	0.128051	-0.185681	0.824649
H336	H	0.461384	0.147652	1.157982
H337	H	-0.147247	-0.518615	0.467097
H338	H	0.186086	-0.185282	0.800430
H339	H	0.519420	0.148052	1.133763
H340	H	-0.451112	-0.983918	0.442435
H341	H	-0.117778	-0.650585	0.775769
H342	H	0.215555	-0.317252	1.109102
C343	C	-0.180323	-0.972686	0.929072
C344	C	0.153010	-0.639353	1.262405
C345	C	0.486344	-0.306020	1.595738
H346	H	-0.146901	-0.960549	0.909960
H347	H	0.186432	-0.627216	1.243293
H348	H	0.519766	-0.293882	1.576627
H349	H	-0.204956	-0.936633	0.913636
H350	H	0.128378	-0.603300	1.246969
H351	H	0.461711	-0.269966	1.580302
H352	H	-0.178873	-0.973719	0.981504
H353	H	0.154460	-0.640386	1.314837
H354	H	0.487794	-0.307053	1.648170
H355	H	-0.333218	-1.025534	0.920755
H356	H	0.000115	-0.692201	1.254088
H357	H	0.333449	-0.358867	1.587422
C358	C	-0.694375	-1.217004	0.209907
C359	C	-0.361042	-0.883671	0.543241
C360	C	-0.027708	-0.550337	0.876574
H361	H	-0.718447	-1.245248	0.181736
H362	H	-0.385113	-0.911915	0.515070
H363	H	-0.051780	-0.578581	0.848403
H364	H	-0.673096	-1.188703	0.177610
H365	H	-0.339762	-0.855369	0.510943
H366	H	-0.006429	-0.522036	0.844277
H367	H	-0.673052	-1.249242	0.238264
H368	H	-0.339719	-0.915908	0.571597
H369	H	-0.006385	-0.582575	0.904931
C370	C	-0.180857	-0.971426	0.787469
C371	C	0.152476	-0.638092	1.120802
C372	C	0.485810	-0.304759	1.454135
H373	H	-0.174159	-0.940571	0.828852
H374	H	0.159174	-0.607238	1.162185
H375	H	0.492508	-0.273904	1.495519
H376	H	-0.150212	-0.975353	0.758240
H377	H	0.183121	-0.642019	1.091573
H378	H	0.516455	-0.308686	1.424906
H379	H	-0.208160	-0.950658	0.758683
H380	H	0.125173	-0.617325	1.092017
H381	H	0.458507	-0.283992	1.425350
H382	H	-0.165876	-0.507190	0.338795
H383	H	0.167457	-0.173857	0.672128
H384	H	0.500790	0.159476	1.005461
H385	H	-0.305851	-1.167352	0.792728
H386	H	0.027482	-0.834018	1.126062
H387	H	0.360815	-0.500685	1.459395
H388	H	-0.801228	-1.203513	0.223444
H389	H	-0.467894	-0.870179	0.556778
H390	H	-0.134561	-0.536846	0.890111
C391	C	-0.226073	-0.500413	0.220894
C392	C	0.107260	-0.167079	0.554228
C393	C	0.440593	0.166254	0.887561
H394	H	-0.201000	-0.469902	0.244591
H395	H	0.132333	-0.136569	0.577924
H396	H	0.465666	0.196765	0.911258
H397	H	-0.209049	-0.541598	0.199043
H398	H	0.124285	-0.208265	0.532376
H399	H	0.457618	0.125069	0.865709
H400	H	-0.243529	-0.472838	0.183698
H401	H	0.089805	-0.139505	0.517031
H402	H	0.423138	0.193828	0.850365
C403	C	-0.230172	-0.642345	0.218237
C404	C	0.103162	-0.309012	0.551570
C405	C	0.436495	0.024321	0.884903
H406	H	-0.204833	-0.673944	0.239901
H407	H	0.128500	-0.340611	0.573234
H408	H	0.461834	-0.007278	0.906567
H409	H	-0.249608	-0.669085	0.182450
H410	H	0.083726	-0.335752	0.515784
H411	H	0.417059	-0.002418	0.849117
H412	H	-0.213201	-0.601844	0.195113
H413	H	0.120133	-0.268511	0.528446
H414	H	0.453466	0.064823	0.861779
C415	C	-0.945568	-1.169727	0.257266
C416	C	-0.612234	-0.836394	0.590600
C417	C	-0.278901	-0.503060	0.923933
H418	H	-0.969638	-1.197969	0.229090
H419	H	-0.636304	-0.864635	0.562424
H420	H	-0.302971	-0.531302	0.895757
H421	H	-0.924287	-1.141421	0.224974
H422	H	-0.590954	-0.808088	0.558307
H423	H	-0.257621	-0.474755	0.891640
H424	H	-0.924245	-1.201967	0.285621
H425	H	-0.590912	-0.868634	0.618954
H426	H	-0.257579	-0.535300	0.952288
H427	H	-0.282879	-0.954497	0.920243
H428	H	0.050454	-0.621163	1.253577
H429	H	0.383788	-0.287830	1.586910
C430	C	-0.280048	-0.640820	0.492252
C431	C	0.053286	-0.307487	0.825585
C432	C	0.386619	0.025846	1.158919
H433	H	-0.279934	-0.693303	0.492665
H434	H	0.053399	-0.359969	0.825998
H435	H	0.386733	-0.026636	1.159331
H436	H	-0.246742	-0.623090	0.506861
H437	H	0.086591	-0.289757	0.840195
H438	H	0.419924	0.043576	1.173528
H439	H	-0.305774	-0.623158	0.525645
H440	H	0.027559	-0.289825	0.858979
H441	H	0.360892	0.043509	1.192312
H442	H	-1.052441	-1.156230	0.270807
H443	H	-0.719107	-0.822897	0.604141
H444	H	-0.385774	-0.489563	0.937474
C445	C	-1.060323	-0.970684	0.456053
C446	C	-0.726989	-0.637351	0.789387
C447	C	-0.393656	-0.304017	1.122720
H448	H	-1.036253	-0.942448	0.484236
H449	H	-0.702919	-0.609115	0.817569
H450	H	-0.369586	-0.275782	1.150902
H451	H	-1.081652	-0.938449	0.427710
H452	H	-0.748318	-0.605116	0.761043
H453	H	-0.414985	-0.271783	1.094376
H454	H	-1.081596	-0.999001	0.488352
H455	H	-0.748263	-0.665667	0.821685
H456	H	-0.414930	-0.332334	1.155018
H457	H	-0.953465	-0.984179	0.442523
H458	H	-0.620131	-0.650845	0.775857
H459	H	-0.286798	-0.317512	1.109190
H460	H	-0.165984	-1.089571	0.920442
H461	H	0.167350	-0.756238	1.253775
H462	H	0.500683	-0.422905	1.587109
H463	H	-0.308115	-1.163614	0.920294
H464	H	0.025219	-0.830281	1.253627
H465	H	0.358552	-0.496948	1.586960
H466	H	-0.240268	-1.192804	0.921377
H467	H	0.093065	-0.859471	1.254710
H468	H	0.426398	-0.526137	1.588044
C469	C	-0.226578	-1.205940	0.786951
C470	C	0.106756	-0.872607	1.120284
C471	C	0.440089	-0.539273	1.453618
H472	H	-0.201414	-1.182452	0.756436
H473	H	0.131919	-0.849118	1.089769
H474	H	0.465252	-0.515785	1.423103
H475	H	-0.209639	-1.227927	0.828129
H476	H	0.123694	-0.894593	1.161462
H477	H	0.457027	-0.561260	1.494796
H478	H	-0.244161	-1.242995	0.759377
H479	H	0.089172	-0.909662	1.092710
H480	H	0.422506	-0.576328	1.426044
C481	C	-0.347694	-0.641496	0.395734
C482	C	-0.014361	-0.308163	0.729068
C483	C	0.318973	0.025170	1.062401
H484	H	-0.347691	-0.693980	0.395853
H485	H	-0.014357	-0.360647	0.729187
H486	H	0.318976	-0.027314	1.062520
H487	H	-0.371537	-0.623898	0.431849
H488	H	-0.038203	-0.290565	0.765183
H489	H	0.295130	0.042769	1.098516
H490	H	-0.357885	-0.624116	0.348361
H491	H	-0.024551	-0.290782	0.681694
H492	H	0.308782	0.042551	1.015028
H493	H	-0.333624	-0.506894	0.400327
H494	H	-0.000291	-0.173560	0.733661
H495	H	0.333043	0.159773	1.066994
H496	H	-0.283533	-0.505990	0.471303
H497	H	0.049801	-0.172657	0.804636
H498	H	0.383134	0.160677	1.137970
