data_functionalizedCrystal
_audit_creation_method	'MofGen! by Chris Wilmer'
_symmetry_space_group_name_H-M	'P1'
_symmetry_Int_Tables_number	1
_symmetry_cell_setting	triclinic
loop_
_symmetry_equiv_pos_as_xyz
  x,y,z
_cell_length_a	19.188905
_cell_length_b	19.188930
_cell_length_c	12.503572
_cell_angle_alpha	93.506241
_cell_angle_beta	86.486933
_cell_angle_gamma	83.139668
loop_
_atom_site_label
_atom_site_type_symbol
_atom_site_fract_x
_atom_site_fract_y
_atom_site_fract_z
O1	O	0.930203	0.083024	-0.089510
O2	O	1.430203	0.583024	0.410490
O3	O	0.726888	0.094778	-0.089475
O4	O	1.226888	0.594778	0.410525
O5	O	0.834412	-0.012754	-0.089472
O6	O	1.334412	0.487246	0.410528
O7	O	0.822679	0.190556	-0.089512
O8	O	1.322679	0.690556	0.410488
O9	O	0.826325	-0.004654	0.089169
O10	O	1.326325	0.495346	0.589169
O11	O	0.718801	0.102878	0.089167
O12	O	1.218801	0.602878	0.589167
O13	O	0.922117	0.091124	0.089132
O14	O	1.422117	0.591124	0.589132
Cu15	Cu	0.819721	0.097741	0.105461
Cu16	Cu	1.319721	0.597741	0.605461
Cu17	Cu	0.829284	0.088161	-0.105804
Cu18	Cu	1.329284	0.588161	0.394196
O19	O	0.814593	0.198657	0.089130
O20	O	1.314593	0.698657	0.589130
C21	C	0.696833	0.098451	-0.000149
C22	C	1.196833	0.598451	0.499851
C23	C	0.619327	0.097318	-0.000135
C24	C	1.119327	0.597318	0.499865
C25	C	0.587343	0.092358	-0.097515
C26	C	1.087343	0.592358	0.402485
C27	C	0.514520	0.091284	-0.097528
C28	C	1.014520	0.591284	0.402472
C29	C	0.473685	0.095157	-0.000155
C30	C	0.973685	0.595157	0.499845
C31	C	0.505677	0.100122	0.097238
C32	C	1.005677	0.600122	0.597238
C33	C	0.578497	0.101202	0.097248
C34	C	1.078497	0.601202	0.597248
N35	N	0.361384	0.057014	0.072318
N36	N	0.861384	0.557014	0.572318
N37	N	0.292208	0.055986	0.072301
N38	N	0.792208	0.555986	0.572301
C39	C	0.254280	0.091903	-0.000181
C40	C	0.754280	0.591903	0.499819
N41	N	0.288143	0.128877	-0.072662
N42	N	0.788143	0.628877	0.427338
N43	N	0.357326	0.129902	-0.072649
N44	N	0.857326	0.629902	0.427351
C45	C	0.394723	0.093986	-0.000156
C46	C	0.894723	0.593986	0.499844
C47	C	0.143333	0.085779	-0.097582
C48	C	0.643333	0.585779	0.402418
C49	C	0.070508	0.084710	-0.097591
C50	C	0.570508	0.584710	0.402409
C51	C	0.061667	0.093541	0.097178
C52	C	0.561667	0.593541	0.597178
C53	C	0.134490	0.094617	0.097184
C54	C	0.634490	0.594617	0.597184
C55	C	0.175319	0.090733	-0.000199
C56	C	0.675319	0.590733	0.499801
C57	C	0.829988	-0.034715	-0.000148
C58	C	1.329988	0.465285	0.499852
C59	C	0.828847	-0.112219	-0.000139
C60	C	1.328847	0.387781	0.499861
C61	C	0.891939	-0.157149	-0.000145
C62	C	1.391939	0.342851	0.499855
C63	C	0.890868	-0.229973	-0.000162
C64	C	1.390868	0.270027	0.499838
C65	C	0.826701	-0.257864	-0.000151
C66	C	1.326701	0.242136	0.499849
C67	C	0.763601	-0.212924	-0.000152
C68	C	1.263601	0.287076	0.499848
C69	C	0.764674	-0.140102	-0.000145
C70	C	1.264674	0.359898	0.499855
N71	N	0.774901	-0.363107	0.060652
N72	N	1.274901	0.136893	0.560652
N73	N	0.773885	-0.432286	0.060649
N74	N	1.273885	0.067714	0.560649
C75	C	0.823464	-0.477273	-0.000172
C76	C	1.323464	0.022727	0.499828
N77	N	0.874106	-0.450469	-0.060976
N78	N	1.374106	0.049531	0.439024
N79	N	0.875123	-0.381284	-0.060968
N80	N	1.375123	0.118716	0.439032
C81	C	0.825530	-0.336826	-0.000159
C82	C	1.325530	0.163174	0.499841
C83	C	0.885399	-0.601168	-0.000198
C84	C	1.385399	-0.101168	0.499802
C85	C	0.884325	-0.673994	-0.000222
C86	C	1.384325	-0.173994	0.499778
C87	C	0.757056	-0.656943	-0.000201
C88	C	1.257056	-0.156943	0.499799
C89	C	0.758131	-0.584119	-0.000188
C90	C	1.258131	-0.084119	0.499812
C91	C	0.822305	-0.556236	-0.000182
C92	C	1.322305	-0.056236	0.499818
C93	C	0.952171	0.087452	-0.000196
C94	C	1.452171	0.587452	0.499804
C95	C	1.029678	0.088584	-0.000217
C96	C	1.529678	0.588584	0.499783
C97	C	0.819016	0.220617	-0.000197
C98	C	1.319016	0.720617	0.499803
C99	C	0.820158	0.298121	-0.000213
C100	C	1.320158	0.798121	0.499787
N101	N	0.812999	0.104478	0.254053
N102	N	1.312999	0.604478	0.754053
N103	N	0.836011	0.081418	-0.254396
N104	N	1.336011	0.581418	0.245604
C105	C	0.803112	0.114395	0.473168
C106	C	1.303112	0.614395	0.973168
C107	C	0.845895	0.071504	0.526496
C108	C	1.345895	0.571504	1.026496
C109	C	0.840394	0.077022	0.648419
C110	C	1.340394	0.577022	1.148419
C111	C	0.808613	0.108878	0.351234
C112	C	1.308613	0.608878	0.851234
H113	H	0.620582	0.089195	-0.176812
H114	H	1.120582	0.589195	0.323188
Br115	Br	0.969959	-0.734973	-0.000241
Br116	Br	1.469959	-0.234973	0.499759
Br117	Br	0.676516	-0.250774	-0.000151
Br118	Br	1.176516	0.249226	0.499849
Br119	Br	0.471103	0.084553	-0.229697
Br120	Br	0.971103	0.584553	0.270303
H121	H	0.886655	0.030640	0.480584
H122	H	1.386655	0.530640	0.980584
Br123	Br	0.177900	0.101347	0.229351
Br124	Br	0.677900	0.601347	0.729351
Br125	Br	0.450259	0.105385	0.229388
Br126	Br	0.950259	0.605385	0.729388
Br127	Br	0.976499	-0.290962	-0.000174
Br128	Br	1.476499	0.209038	0.499826
H129	H	0.604537	0.105242	0.176549
H130	H	1.104537	0.605242	0.676549
Br131	Br	0.198748	0.080513	-0.229741
Br132	Br	0.698748	0.580513	0.270259
H133	H	0.762356	0.155258	0.519075
H134	H	1.262356	0.655258	1.019075
Br135	Br	0.679043	-0.079121	-0.000141
Br136	Br	1.179043	0.420879	0.499859
H137	H	0.044468	0.080675	-0.176893
H138	H	0.544468	0.580675	0.323107
Br139	Br	0.972488	-0.563322	-0.000178
Br140	Br	1.472488	-0.063322	0.499822
H141	H	0.944194	-0.134452	-0.000143
H142	H	1.444194	0.365548	0.499857
H143	H	0.704810	-0.679650	-0.000198
H144	H	1.204810	-0.179650	0.499802
Br145	Br	0.672502	-0.523138	-0.000179
Br146	Br	1.172502	-0.023138	0.499821
H147	H	0.028419	0.096699	0.176460
H148	H	0.528419	0.596699	0.676460
