data_functionalizedCrystal
_audit_creation_method	'MofGen! by Chris Wilmer'
_symmetry_space_group_name_H-M	'P1'
_symmetry_Int_Tables_number	1
_symmetry_cell_setting	triclinic
loop_
_symmetry_equiv_pos_as_xyz
  x,y,z
_cell_length_a	23.532355
_cell_length_b	23.532357
_cell_length_c	22.610064
_cell_angle_alpha	89.998517
_cell_angle_beta	89.997644
_cell_angle_gamma	82.827896
loop_
_atom_site_label
_atom_site_type_symbol
_atom_site_fract_x
_atom_site_fract_y
_atom_site_fract_z
O1	O	0.755270	0.068988	-0.049111
O2	O	1.088604	0.402321	0.284222
O3	O	1.421937	0.735655	0.617555
O4	O	0.589401	0.079022	-0.049131
O5	O	0.922734	0.412356	0.284202
O6	O	1.256068	0.745689	0.617536
O7	O	0.677352	-0.008929	-0.049108
O8	O	1.010686	0.324404	0.284225
O9	O	1.344019	0.657737	0.617558
O10	O	0.667319	0.156940	-0.049134
O11	O	1.000652	0.490273	0.284199
O12	O	1.333986	0.823607	0.617533
O13	O	0.677337	-0.008917	0.049261
O14	O	1.010670	0.324417	0.382594
O15	O	1.344003	0.657750	0.715928
O16	O	0.589385	0.079035	0.049238
O17	O	0.922719	0.412369	0.382572
O18	O	1.256052	0.745702	0.715905
O19	O	0.755255	0.069001	0.049258
O20	O	1.088588	0.402334	0.382591
O21	O	1.421921	0.735668	0.715925
Zn22	Zn	0.672318	0.074020	0.064866
Zn23	Zn	1.005651	0.407353	0.398200
Zn24	Zn	1.338984	0.740687	0.731533
Zn25	Zn	0.672338	0.074003	-0.064739
Zn26	Zn	1.005671	0.407337	0.268594
Zn27	Zn	1.339005	0.740670	0.601927
O28	O	0.667303	0.156953	0.049235
O29	O	1.000637	0.490286	0.382569
O30	O	1.333970	0.823619	0.715902
C31	C	0.568177	0.078778	0.000051
C32	C	0.901510	0.412111	0.333385
C33	C	1.234843	0.745445	0.666718
C34	C	0.504958	0.078024	0.000044
C35	C	0.838291	0.411357	0.333378
C36	C	1.171625	0.744691	0.666711
C37	C	0.112937	0.073293	0.053691
C38	C	0.446270	0.406626	0.387024
C39	C	0.779603	0.739959	0.720357
C40	C	0.053537	0.072575	0.053693
C41	C	0.386871	0.405909	0.387026
C42	C	0.720204	0.739242	0.720360
O43	O	0.022812	0.072191	0.099295
O44	O	0.356145	0.405524	0.432629
O45	O	0.689478	0.738857	0.765962
N46	N	0.023837	0.072212	0.000072
N47	N	0.357171	0.405546	0.333406
N48	N	0.690504	0.738879	0.666739
C49	C	0.053541	0.072561	-0.053554
C50	C	0.386874	0.405895	0.279779
C51	C	0.720207	0.739228	0.613112
O52	O	0.022824	0.072186	-0.099163
O53	O	0.356158	0.405520	0.234171
O54	O	0.689491	0.738853	0.567504
C55	C	0.112939	0.073275	-0.053556
C56	C	0.446273	0.406608	0.279777
C57	C	0.779606	0.739941	0.613111
C58	C	0.142636	0.073643	0.000068
C59	C	0.475969	0.406977	0.333402
C60	C	0.809302	0.740310	0.666735
C61	C	0.142633	0.073661	0.107311
C62	C	0.475966	0.406994	0.440644
C63	C	0.809300	0.740327	0.773977
C64	C	0.202028	0.074379	0.107308
C65	C	0.535361	0.407712	0.440641
C66	C	0.868695	0.741046	0.773975
C67	C	0.231727	0.074730	0.053686
C68	C	0.565060	0.408063	0.387019
C69	C	0.898393	0.741396	0.720352
C70	C	0.202031	0.074362	0.000066
C71	C	0.535364	0.407695	0.333399
C72	C	0.868697	0.741028	0.666732
C73	C	0.142642	0.073620	-0.107182
C74	C	0.475975	0.406953	0.226151
C75	C	0.809309	0.740286	0.559484
C76	C	0.202045	0.074333	-0.107179
C77	C	0.535378	0.407666	0.226154
C78	C	0.868712	0.740999	0.559487
C79	C	0.231741	0.074701	-0.053555
C80	C	0.565074	0.408034	0.279778
C81	C	0.898408	0.741368	0.613112
C82	C	0.291124	0.075431	-0.053560
C83	C	0.624458	0.408764	0.279774
C84	C	0.957791	0.742098	0.613107
N85	N	0.320824	0.075794	0.000061
N86	N	0.654158	0.409127	0.333395
N87	N	0.987491	0.742460	0.666728
C88	C	0.291126	0.075443	0.053684
C89	C	0.624459	0.408776	0.387017
C90	C	0.957792	0.742110	0.720350
C91	C	-0.071201	0.071062	-0.053546
C92	C	0.262133	0.404396	0.279787
C93	C	0.595466	0.737729	0.613120
C94	C	-0.130599	0.070353	-0.053545
C95	C	0.202735	0.403686	0.279788
C96	C	0.536068	0.737020	0.613121
C97	C	-0.130598	0.070366	0.053702
C98	C	0.202735	0.403699	0.387036
C99	C	0.536069	0.737032	0.720369
C100	C	-0.071199	0.071079	0.053701
C101	C	0.262134	0.404413	0.387034
C102	C	0.595468	0.737746	0.720367
C103	C	-0.041501	0.071425	0.000074
C104	C	0.291833	0.404758	0.333408
C105	C	0.625166	0.738092	0.666741
C106	C	0.415859	0.076952	0.053674
C107	C	0.749193	0.410286	0.387008
C108	C	1.082526	0.743619	0.720341
C109	C	0.475259	0.077673	0.053667
C110	C	0.808593	0.411007	0.387000
C111	C	1.141926	0.744340	0.720333
C112	C	0.475254	0.077657	-0.053581
C113	C	0.808587	0.410991	0.279753
C114	C	1.141920	0.744324	0.613086
C115	C	0.415858	0.076940	-0.053574
C116	C	0.749192	0.410273	0.279760
C117	C	1.082525	0.743606	0.613093
C118	C	0.386163	0.076585	0.000059
C119	C	0.719496	0.409919	0.333392
C120	C	1.052830	0.743252	0.666725
O121	O	0.321888	0.075813	-0.099138
O122	O	0.655222	0.409147	0.234195
O123	O	0.988555	0.742480	0.567528
O124	O	0.321850	0.075811	0.099285
O125	O	0.655183	0.409144	0.432618
O126	O	0.988517	0.742477	0.765951
C127	C	0.677094	-0.030140	0.000078
C128	C	1.010427	0.303194	0.333411
C129	C	1.343760	0.636527	0.666745
C130	C	0.676339	-0.093358	0.000084
C131	C	1.009672	0.239975	0.333417
C132	C	1.343006	0.573309	0.666750
C133	C	0.671611	-0.485375	-0.053570
C134	C	1.004944	-0.152042	0.279763
C135	C	1.338277	0.181291	0.613097
C136	C	0.670893	-0.544775	-0.053573
C137	C	1.004227	-0.211441	0.279760
C138	C	1.337560	0.121892	0.613093
O139	O	0.670510	-0.575497	-0.099176
O140	O	1.003844	-0.242164	0.234157
O141	O	1.337177	0.091170	0.567491
N142	N	0.670529	-0.574479	0.000047
N143	N	1.003863	-0.241145	0.333380
N144	N	1.337196	0.092188	0.666713
C145	C	0.670877	-0.544780	0.053674
C146	C	1.004210	-0.211446	0.387007
C147	C	1.337543	0.121887	0.720341
O148	O	0.670500	-0.575500	0.099282
O149	O	1.003834	-0.242166	0.432615
O150	O	1.337167	0.091167	0.765949
C151	C	0.671590	-0.485381	0.053677
C152	C	1.004923	-0.152048	0.387010
C153	C	1.338256	0.181286	0.720344
C154	C	0.671960	-0.455681	0.000053
C155	C	1.005293	-0.122347	0.333386
C156	C	1.338626	0.210986	0.666720
C157	C	0.671980	-0.455675	-0.107189
C158	C	1.005313	-0.122342	0.226144
C159	C	1.338647	0.210992	0.559477
C160	C	0.672698	-0.396280	-0.107186
C161	C	1.006031	-0.062947	0.226148
C162	C	1.339365	0.270387	0.559481
C163	C	0.673047	-0.366585	-0.053563
C164	C	1.006380	-0.033252	0.279771
C165	C	1.339714	0.300081	0.613104
C166	C	0.672678	-0.396286	0.000057
C167	C	1.006011	-0.062952	0.333390
C168	C	1.339345	0.270381	0.666723
C169	C	0.671933	-0.455682	0.107303
C170	C	1.005266	-0.122349	0.440637
C171	C	1.338600	0.210984	0.773970
C172	C	0.672646	-0.396280	0.107302
C173	C	1.005979	-0.062946	0.440635
C174	C	1.339312	0.270387	0.773968
C175	C	0.673016	-0.366579	0.053678
C176	C	1.006349	-0.033246	0.387011
C177	C	1.339682	0.300087	0.720345
C178	C	0.673745	-0.307196	0.053684
C179	C	1.007079	0.026137	0.387017
C180	C	1.340412	0.359471	0.720350
N181	N	0.674109	-0.277492	0.000063
N182	N	1.007443	0.055842	0.333397
N183	N	1.340776	0.389175	0.666730
C184	C	0.673760	-0.307186	-0.053560
C185	C	1.007094	0.026147	0.279774
C186	C	1.340427	0.359480	0.613107
C187	C	0.669378	-0.669521	0.053664
C188	C	1.002711	-0.336188	0.386997
C189	C	1.336045	-0.002854	0.720331
C190	C	0.668669	-0.728919	0.053662
C191	C	1.002002	-0.395586	0.386995
C192	C	1.335335	-0.062253	0.720328
C193	C	0.668685	-0.728910	-0.053586
C194	C	1.002018	-0.395577	0.279747
C195	C	1.335351	-0.062243	0.613081
C196	C	0.669398	-0.669511	-0.053583
C197	C	1.002731	-0.336178	0.279750
C198	C	1.336064	-0.002845	0.613084
C199	C	0.669742	-0.639817	0.000044
C200	C	1.003075	-0.306484	0.333377
C201	C	1.336409	0.026850	0.666710
C202	C	0.675269	-0.182453	-0.053548
C203	C	1.008603	0.150881	0.279785
C204	C	1.341936	0.484214	0.613119
C205	C	0.675990	-0.123053	-0.053540
C206	C	1.009323	0.210281	0.279794
C207	C	1.342657	0.543614	0.613127
C208	C	0.675971	-0.123067	0.053708
C209	C	1.009304	0.210267	0.387041
C210	C	1.342638	0.543600	0.720374
C211	C	0.675253	-0.182462	0.053700
C212	C	1.008587	0.150871	0.387033
C213	C	1.341920	0.484205	0.720366
C214	C	0.674901	-0.212153	0.000067
C215	C	1.008234	0.121180	0.333400
C216	C	1.341567	0.454514	0.666734
O217	O	0.674126	-0.276436	0.099263
O218	O	1.007460	0.056898	0.432596
O219	O	1.340793	0.390231	0.765930
O220	O	0.674129	-0.276458	-0.099160
O221	O	1.007462	0.056875	0.234173
O222	O	1.340796	0.390208	0.567507
C223	C	0.776479	0.069245	0.000074
C224	C	1.109812	0.402579	0.333408
C225	C	1.443146	0.735912	0.666741
C226	C	0.839698	0.069999	0.000078
C227	C	1.173031	0.403333	0.333411
C228	C	1.506364	0.736666	0.666744
C229	C	0.667562	0.178163	0.000048
C230	C	1.000896	0.511496	0.333381
C231	C	1.334229	0.844829	0.666714
C232	C	0.668317	0.241381	0.000038
C233	C	1.001650	0.574715	0.333372
C234	C	1.334983	0.908048	0.666705
N235	N	0.672308	0.074031	0.153319
N236	N	1.005641	0.407365	0.486652
N237	N	1.338974	0.740698	0.819985
N238	N	0.672352	0.073987	-0.153192
N239	N	1.005686	0.407321	0.180142
N240	N	1.339019	0.740654	0.513475
C241	C	0.711285	0.035064	0.561970
C242	C	1.044618	0.368397	0.895304
C243	C	1.377951	0.701731	1.228637
C244	C	0.711288	0.035060	0.623890
C245	C	1.044621	0.368393	0.957223
C246	C	1.377954	0.701727	1.290557
O247	O	0.744403	0.001937	0.655917
O248	O	1.077736	0.335270	0.989251
O249	O	1.411069	0.668604	1.322584
N250	N	0.672338	0.073991	0.654856
N251	N	1.005671	0.407325	0.988189
N252	N	1.339004	0.740658	1.321523
C253	C	0.633378	0.112926	0.623899
C254	C	0.966712	0.446259	0.957232
C255	C	1.300045	0.779592	1.290565
O256	O	0.600249	0.146039	0.655923
O257	O	0.933582	0.479373	0.989257
O258	O	1.266915	0.812706	1.322590
C259	C	0.633373	0.112927	0.561980
C260	C	0.966707	0.446260	0.895313
C261	C	1.300040	0.779593	1.228647
C262	C	0.672330	0.073996	0.531017
C263	C	1.005663	0.407330	0.864351
C264	C	1.338996	0.740663	1.197684
C265	C	0.750237	-0.003863	0.531008
C266	C	1.083571	0.329470	0.864341
C267	C	1.416904	0.662803	1.197674
C268	C	0.750235	-0.003858	0.469092
C269	C	1.083568	0.329475	0.802425
C270	C	1.416902	0.662808	1.135759
C271	C	0.711280	0.035074	0.438139
C272	C	1.044613	0.368407	0.771472
C273	C	1.377947	0.701741	1.104806
C274	C	0.672327	0.074001	0.469102
C275	C	1.005661	0.407335	0.802435
C276	C	1.338994	0.740668	1.135768
C277	C	0.594412	0.151858	0.531024
C278	C	0.927745	0.485191	0.864357
C279	C	1.261079	0.818524	1.197690
C280	C	0.594410	0.151855	0.469101
C281	C	0.927743	0.485188	0.802434
C282	C	1.261076	0.818522	1.135767
C283	C	0.633366	0.112925	0.438138
C284	C	0.966699	0.446258	0.771471
C285	C	1.300033	0.779592	1.104805
C286	C	0.633370	0.112939	0.376233
C287	C	0.966703	0.446272	0.709566
C288	C	1.300036	0.779606	1.042900
N289	N	0.672320	0.074007	0.345267
N290	N	1.005653	0.407341	0.678601
N291	N	1.338986	0.740674	1.011934
C292	C	0.711275	0.035075	0.376220
C293	C	1.044608	0.368408	0.709553
C294	C	1.377941	0.701742	1.042887
C295	C	0.633392	0.112920	0.753932
C296	C	0.966725	0.446253	1.087266
C297	C	1.300058	0.779587	1.420599
C298	C	0.633399	0.112922	0.815850
C299	C	0.966732	0.446256	1.149183
C300	C	1.300066	0.779589	1.482517
C301	C	0.711308	0.035056	0.815837
C302	C	1.044641	0.368389	1.149170
C303	C	1.377974	0.701722	1.482504
C304	C	0.711302	0.035057	0.753918
C305	C	1.044636	0.368390	1.087252
C306	C	1.377969	0.701723	1.420585
C307	C	0.672342	0.073989	0.722966
C308	C	1.005675	0.407322	1.056300
C309	C	1.339008	0.740655	1.389633
C310	C	0.711267	0.035089	0.246193
C311	C	1.044600	0.368422	0.579526
C312	C	1.377934	0.701755	0.912860
C313	C	0.711263	0.035099	0.184272
C314	C	1.044596	0.368432	0.517605
C315	C	1.377930	0.701766	0.850938
C316	C	0.633353	0.112963	0.184290
C317	C	0.966686	0.446297	0.517623
C318	C	1.300019	0.779630	0.850957
C319	C	0.633359	0.112955	0.246206
C320	C	0.966692	0.446289	0.579539
C321	C	1.300025	0.779622	0.912872
C322	C	0.672318	0.074013	0.277156
C323	C	1.005651	0.407347	0.610489
C324	C	1.338985	0.740680	0.943822
O325	O	0.600270	0.146043	0.344166
O326	O	0.933603	0.479377	0.677500
O327	O	1.266937	0.812710	1.010833
O328	O	0.744394	0.001962	0.344188
O329	O	1.077727	0.335295	0.677521
O330	O	1.411061	0.668629	1.010855
H331	H	-0.154774	0.070062	-0.097212
H332	H	0.178560	0.403395	0.236122
H333	H	0.511893	0.736729	0.569455
F334	F	0.752732	-0.006358	0.279123
F335	F	1.086066	0.326976	0.612456
F336	F	1.419399	0.660309	0.945790
H337	H	0.781955	-0.035560	0.443886
H338	H	1.115288	0.297773	0.777219
H339	H	1.448621	0.631106	1.110552
F340	F	0.668309	-0.760523	-0.110657
F341	F	1.001643	-0.427190	0.222676
F342	F	1.334976	-0.093857	0.556010
F343	F	0.673088	-0.364678	-0.164260
F344	F	1.006421	-0.031344	0.169073
F345	F	1.339755	0.301989	0.502407
H346	H	0.743026	0.003354	0.841050
H347	H	1.076360	0.336687	1.174384
H348	H	1.409693	0.670020	1.507717
F349	F	0.591902	0.154396	0.279157
F350	F	0.925236	0.487729	0.612491
F351	F	1.258569	0.821062	0.945824
F352	F	0.233626	0.074768	0.164383
F353	F	0.566959	0.408102	0.497716
F354	F	0.900292	0.741435	0.831050
H355	H	0.601637	0.144663	0.159078
H356	H	0.934971	0.477997	0.492412
H357	H	1.268304	0.811330	0.825745
F358	F	0.384264	0.076574	0.110756
F359	F	0.717597	0.409908	0.444089
F360	F	1.050930	0.743241	0.777422
H361	H	0.118459	0.073374	0.150979
H362	H	0.451792	0.406707	0.484312
H363	H	0.785125	0.740041	0.817646
H364	H	0.118474	0.073319	-0.150849
H365	H	0.451807	0.406652	0.182484
H366	H	0.785141	0.739986	0.515818
H367	H	0.671633	-0.479854	0.150970
H368	H	1.004966	-0.146521	0.484303
H369	H	1.338299	0.186812	0.817636
F370	F	-0.162216	0.069991	0.110773
F371	F	0.171118	0.403324	0.444106
F372	F	0.504451	0.736658	0.777439
F373	F	0.506860	0.078067	0.110744
F374	F	0.840194	0.411401	0.444077
F375	F	1.173527	0.744734	0.777410
H376	H	0.743024	0.003356	0.728712
H377	H	1.076357	0.336689	1.062046
H378	H	1.409690	0.670023	1.395379
H379	H	0.601683	0.144629	0.841055
H380	H	0.935017	0.477962	1.174389
H381	H	1.268350	0.811295	1.507722
H382	H	0.674958	-0.206646	0.097365
H383	H	1.008291	0.126687	0.430698
H384	H	1.341624	0.460021	0.764031
F385	F	0.506872	0.078029	-0.110647
F386	F	0.840205	0.411362	0.222687
F387	F	1.173539	0.744696	0.556020
F388	F	0.674894	-0.214044	-0.110630
F389	F	1.008227	0.119289	0.222703
F390	F	1.341560	0.452623	0.556037
H391	H	-0.047025	0.071380	0.097366
H392	H	0.286309	0.404713	0.430700
H393	H	0.619642	0.738047	0.764033
F394	F	0.752728	-0.006336	0.151322
F395	F	1.086061	0.326997	0.484655
F396	F	1.419395	0.660330	0.817989
H397	H	0.226222	0.074614	-0.150849
H398	H	0.559556	0.407948	0.182484
H399	H	0.892889	0.741281	0.515817
F400	F	0.671608	-0.487269	-0.164268
F401	F	1.004941	-0.153936	0.169066
F402	F	1.338275	0.179397	0.502399
H403	H	0.669698	-0.645333	-0.097248
H404	H	1.003031	-0.312000	0.236085
H405	H	1.336365	0.021334	0.569418
F406	F	0.791701	-0.045305	0.563942
F407	F	1.125035	0.288029	0.897275
F408	F	1.458368	0.621362	1.230608
H409	H	0.672917	-0.372104	0.150972
H410	H	1.006251	-0.038771	0.484306
H411	H	1.339584	0.294562	0.817639
F412	F	0.676385	-0.091447	-0.110616
F413	F	1.009719	0.241886	0.222718
F414	F	1.343052	0.575220	0.556051
H415	H	0.676258	-0.098879	0.097366
H416	H	1.009591	0.234454	0.430700
H417	H	1.342925	0.567788	0.764033
F418	F	0.591925	0.154363	0.720996
F419	F	0.925259	0.487697	1.054329
F420	F	1.258592	0.821030	1.387662
F421	F	0.552949	0.193292	0.563965
F422	F	0.886282	0.526625	0.897299
F423	F	1.219615	0.859958	1.230632
F424	F	-0.039599	0.071436	-0.110627
F425	F	0.293734	0.404769	0.222706
F426	F	0.627068	0.738102	0.556040
H427	H	0.668376	-0.753097	0.097328
H428	H	1.001710	-0.419764	0.430661
H429	H	1.335043	-0.086431	0.763994
F430	F	0.552940	0.193292	0.436164
F431	F	0.886273	0.526626	0.769497
F432	F	1.219606	0.859959	1.102830
H433	H	0.391677	0.076649	-0.097239
H434	H	0.725011	0.409982	0.236095
H435	H	1.058344	0.743315	0.569428
H436	H	0.669660	-0.645348	0.097336
H437	H	1.002993	-0.312015	0.430669
H438	H	1.336327	0.021319	0.764003
