data_functionalizedCrystal
_audit_creation_method	'MofGen! by Chris Wilmer'
_symmetry_space_group_name_H-M	'P1'
_symmetry_Int_Tables_number	1
_symmetry_cell_setting	triclinic
loop_
_symmetry_equiv_pos_as_xyz
  x,y,z
_cell_length_a	21.295420
_cell_length_b	12.645330
_cell_length_c	12.645323
_cell_angle_alpha	90.024870
_cell_angle_beta	89.977463
_cell_angle_gamma	89.986526
loop_
_atom_site_label
_atom_site_type_symbol
_atom_site_fract_x
_atom_site_fract_y
_atom_site_fract_z
Zn1	Zn	0.962399	0.422150	-0.599442
Zn2	Zn	0.962328	0.599438	-0.422182
Zn3	Zn	0.857126	0.422176	-0.422187
Zn4	Zn	0.857115	0.599359	-0.599398
O5	O	0.909742	0.510781	-0.510802
O6	O	1.050479	0.445690	-0.575945
O7	O	0.948348	0.575968	-0.273836
O8	O	0.871124	0.273826	-0.445721
O9	O	1.050427	0.575943	-0.445713
O10	O	0.948468	0.273806	-0.575949
O11	O	0.871056	0.445734	-0.273839
O12	O	0.769035	0.445658	-0.445678
O13	O	0.871106	0.575808	-0.747751
O14	O	0.769027	0.575833	-0.575874
O15	O	0.948457	0.445613	-0.747784
O16	O	0.948338	0.747775	-0.445670
O17	O	0.871038	0.747717	-0.575870
C18	C	0.746190	0.510740	-0.510773
C19	C	0.676222	0.510749	-0.510785
C20	C	0.176790	0.443118	-0.578740
C21	C	0.242533	0.443110	-0.578740
C22	C	0.275383	0.510813	-0.510827
C23	C	0.242485	0.578548	-0.442928
C24	C	0.176743	0.578562	-0.442938
N25	N	0.378576	0.518808	-0.418004
N26	N	0.441027	0.518789	-0.417998
C27	C	0.473457	0.510778	-0.510796
N28	N	0.441077	0.502766	-0.603602
N29	N	0.378620	0.502780	-0.603607
C30	C	0.346668	0.510807	-0.510810
C31	C	0.577633	0.443044	-0.578696
C32	C	0.643377	0.443044	-0.578697
C33	C	0.643327	0.578476	-0.442876
C34	C	0.577585	0.578482	-0.442884
C35	C	0.544742	0.510761	-0.510792
C36	C	0.909696	0.786211	-0.510788
C37	C	0.909734	0.904041	-0.510817
C38	C	0.909788	0.510699	-0.787308
C39	C	0.909808	0.510664	-0.905138
C40	C	1.073932	0.510822	-0.510833
C41	C	1.143900	0.510840	-0.510846
C42	C	0.909805	0.234276	-0.510841
C43	C	0.909832	0.116446	-0.510857
C44	C	0.861305	1.071612	-0.592978
C45	C	0.861057	0.949053	-0.592714
C46	C	0.891774	0.948633	-0.399095
C47	C	0.891478	1.071231	-0.399594
C48	C	0.976419	1.071138	-0.539471
C49	C	0.976010	0.948531	-0.541914
C50	C	0.860996	0.592183	-1.072682
C51	C	0.861124	0.592587	-0.950122
C52	C	0.976136	0.540991	-0.949658
C53	C	0.975868	0.541502	-1.072256
C54	C	0.892919	0.398362	-1.072336
C55	C	0.891440	0.399035	-0.949730
C56	C	0.909732	0.510786	-0.235373
C57	C	0.909834	0.510522	-0.117543
H58	H	0.550891	0.387901	-0.633991
C59	C	0.995230	0.652264	-1.110913
H60	H	1.003182	0.696527	-1.051690
H61	H	1.032146	0.646880	-1.152765
H62	H	0.962296	0.681731	-1.152115
H63	H	0.269317	0.387958	-0.634027
H64	H	0.872294	0.918900	-0.675555
H65	H	0.150054	0.387978	-0.634041
C66	C	0.828718	0.361015	-1.114072
H67	H	0.819406	0.293192	-1.085845
H68	H	0.797153	0.409792	-1.093063
H69	H	0.829990	0.357012	-1.189064
H70	H	0.928491	0.337521	-1.101349
H71	H	0.924412	0.334976	-0.919108
C72	C	1.026699	0.464663	-1.112355
H73	H	1.047425	0.433280	-1.053715
H74	H	1.007692	0.411024	-1.154085
H75	H	1.056352	0.502299	-1.153988
C76	C	0.825501	0.368129	-0.910427
H77	H	0.814655	0.300534	-0.937674
H78	H	0.825345	0.365795	-0.835344
H79	H	0.795816	0.418990	-0.934036
C80	C	0.278616	0.653016	-0.368223
H81	H	0.322481	0.643302	-0.377933
H82	H	0.267844	0.724265	-0.383620
H83	H	0.267821	0.637411	-0.297020
H84	H	0.149964	0.633711	-0.387649
C85	C	0.679454	0.652950	-0.368174
H86	H	0.723318	0.643240	-0.377888
H87	H	0.668678	0.724197	-0.383571
H88	H	0.668662	0.637344	-0.296969
C89	C	1.027430	0.907140	-0.467003
H90	H	1.066936	0.935270	-0.487650
H91	H	1.018232	0.928475	-0.396644
H92	H	1.028849	0.832131	-0.470510
C93	C	0.794352	0.566800	-1.112489
H94	H	0.765584	0.616986	-1.084521
H95	H	0.793623	0.569886	-1.187535
H96	H	0.782729	0.497869	-1.089956
C97	C	0.994316	0.909142	-0.652978
H98	H	0.961710	0.865758	-0.680289
H99	H	1.000466	0.968020	-0.698442
H100	H	1.032063	0.869319	-0.648716
C101	C	0.876284	1.111476	-0.705234
H102	H	0.912270	1.155810	-0.703031
H103	H	0.884292	1.052854	-0.750267
H104	H	0.841513	1.150420	-0.731645
C105	C	0.679556	0.368544	-0.653383
H106	H	0.650578	0.328210	-0.693818
H107	H	0.705212	0.409140	-0.699509
H108	H	0.705194	0.322302	-0.612891
C109	C	1.025247	1.110198	-0.458602
H110	H	1.005187	1.153918	-0.407653
H111	H	1.043792	1.051179	-0.424211
H112	H	1.056873	1.149588	-0.494030
C113	C	0.541404	0.652965	-0.368187
H114	H	0.570382	0.693280	-0.327732
H115	H	0.515764	0.699209	-0.408662
H116	H	0.515750	0.612351	-0.322064
C117	C	0.794684	0.566936	-0.909451
H118	H	0.767370	0.556181	-0.967856
H119	H	0.796025	0.504635	-0.867566
H120	H	0.779661	0.624183	-0.867854
H121	H	0.812249	1.102507	-0.574263
H122	H	0.811693	0.919812	-0.573756
H123	H	0.842803	1.099916	-0.375353
C124	C	1.026615	0.463195	-0.910295
H125	H	1.007642	0.411407	-0.866250
H126	H	1.045830	0.429509	-0.969158
H127	H	1.057510	0.500677	-0.871168
C128	C	0.937141	1.111307	-0.314105
H129	H	0.955787	1.052658	-0.279220
H130	H	0.968983	1.152982	-0.346199
H131	H	0.914815	1.152990	-0.264136
C132	C	0.938001	0.909245	-0.314172
H133	H	0.968737	0.865146	-0.346174
H134	H	0.958021	0.968096	-0.281879
H135	H	0.915762	0.870171	-0.262079
H136	H	0.872053	0.674813	-1.103501
H137	H	0.843606	0.918015	-0.374416
H138	H	0.992802	1.101984	-0.619554
H139	H	0.872290	0.675736	-0.920808
H140	H	0.990719	0.622123	-0.918969
