data_functionalizedCrystal
_audit_creation_method	'MofGen! by Chris Wilmer'
_symmetry_space_group_name_H-M	'P1'
_symmetry_Int_Tables_number	1
_symmetry_cell_setting	triclinic
loop_
_symmetry_equiv_pos_as_xyz
  x,y,z
_cell_length_a	16.625548
_cell_length_b	12.759399
_cell_length_c	12.759393
_cell_angle_alpha	90.030906
_cell_angle_beta	89.977275
_cell_angle_gamma	89.983816
loop_
_atom_site_label
_atom_site_type_symbol
_atom_site_fract_x
_atom_site_fract_y
_atom_site_fract_z
Zn1	Zn	1.232739	0.418185	-0.594067
Zn2	Zn	1.566072	0.751519	-0.260734
Zn3	Zn	1.899405	1.084852	0.072599
Zn4	Zn	1.232654	0.593901	-0.418386
Zn5	Zn	1.565988	0.927234	-0.085053
Zn6	Zn	1.899321	1.260568	0.248281
Zn7	Zn	1.097896	0.418240	-0.418397
Zn8	Zn	1.431229	0.751573	-0.085064
Zn9	Zn	1.764562	1.084907	0.248270
Zn10	Zn	1.097888	0.593826	-0.594018
Zn11	Zn	1.431222	0.927160	-0.260684
Zn12	Zn	1.764555	1.260493	0.072649
O13	O	1.165294	0.506038	-0.506217
O14	O	1.498628	0.839372	-0.172884
O15	O	1.831961	1.172705	0.160450
O16	O	1.345560	0.441503	-0.570779
O17	O	1.678893	0.774836	-0.237446
O18	O	2.012227	1.108170	0.095888
O19	O	1.214746	0.570653	-0.271366
O20	O	1.548079	0.903987	0.061967
O21	O	1.881413	1.237320	0.395300
O22	O	1.115821	0.271212	-0.441725
O23	O	1.449155	0.604545	-0.108392
O24	O	1.782488	0.937878	0.224942
O25	O	1.345498	0.570601	-0.441707
O26	O	1.678831	0.903934	-0.108373
O27	O	2.012165	1.237267	0.224960
O28	O	1.214890	0.271172	-0.570789
O29	O	1.548223	0.604505	-0.237456
O30	O	1.881557	0.937838	0.095877
O31	O	1.115739	0.441596	-0.271374
O32	O	1.449073	0.774929	0.061959
O33	O	1.782406	1.108263	0.395292
O34	O	0.985062	0.441523	-0.441677
O35	O	1.318396	0.774857	-0.108344
O36	O	1.651729	1.108190	0.224989
O37	O	1.115809	0.570473	-0.741046
O38	O	1.449142	0.903806	-0.407712
O39	O	1.782476	1.237140	-0.074379
O40	O	0.985057	0.570526	-0.570705
O41	O	1.318390	0.903859	-0.237372
O42	O	1.651724	1.237193	0.095961
O43	O	1.214883	0.441431	-0.741082
O44	O	1.548216	0.774764	-0.407748
O45	O	1.881550	1.108097	-0.074415
O46	O	1.214739	0.740912	-0.441659
O47	O	1.548072	1.074246	-0.108325
O48	O	1.881406	1.407579	0.225008
O49	O	1.115727	0.740857	-0.570695
O50	O	1.449060	1.074191	-0.237361
O51	O	1.782394	1.407524	0.095972
C52	C	1.165245	0.779006	-0.506193
C53	C	1.498578	1.112339	-0.172860
C54	C	1.831911	1.445672	0.160474
C55	C	1.165297	0.895782	-0.506218
C56	C	1.498631	1.229116	-0.172885
C57	C	1.831964	1.562449	0.160449
C58	C	0.955803	0.506023	-0.506188
C59	C	1.289137	0.839357	-0.172854
C60	C	1.622470	1.172690	0.160479
C61	C	0.866182	0.506042	-0.506200
C62	C	1.199516	0.839375	-0.172867
C63	C	1.532849	1.172709	0.160467
C64	C	1.165355	0.505937	-0.780250
C65	C	1.498688	0.839271	-0.446917
C66	C	1.832021	1.172604	-0.113584
C67	C	1.165380	0.505894	-0.897027
C68	C	1.498714	0.839228	-0.563694
C69	C	1.832047	1.172561	-0.230361
C70	C	0.538007	0.506049	-0.506245
C71	C	0.871340	0.839382	-0.172912
C72	C	1.204673	1.172716	0.160422
C73	C	0.629315	0.506044	-0.506229
C74	C	0.962648	0.839377	-0.172896
C75	C	1.295982	1.172711	0.160438
C76	C	0.702092	0.506046	-0.506222
C77	C	1.035425	0.839379	-0.172888
C78	C	1.368758	1.172713	0.160445
C79	C	0.793406	0.506040	-0.506207
C80	C	1.126739	0.839373	-0.172874
C81	C	1.460073	1.172707	0.160459
C82	C	1.375603	0.506054	-0.506247
C83	C	1.708936	0.839387	-0.172914
C84	C	2.042270	1.172721	0.160420
C85	C	1.465224	0.506061	-0.506260
C86	C	1.798558	0.839394	-0.172927
C87	C	2.131891	1.172727	0.160407
C88	C	1.165366	0.232005	-0.506264
C89	C	1.498699	0.565338	-0.172931
C90	C	1.832033	0.898672	0.160403
C91	C	1.165396	0.115228	-0.506284
C92	C	1.498730	0.448562	-0.172951
C93	C	1.832063	0.781895	0.160383
C94	C	1.216912	0.950638	-0.439105
C95	C	1.550245	1.283971	-0.105772
C96	C	1.883578	1.617305	0.227561
C97	C	1.216964	1.060362	-0.439141
C98	C	1.550297	1.393695	-0.105807
C99	C	1.883630	1.727029	0.227526
C100	C	1.113780	1.060365	-0.573404
C101	C	1.447113	1.393698	-0.240071
C102	C	1.780446	1.727032	0.093263
C103	C	1.113733	0.950643	-0.573373
C104	C	1.447066	1.283976	-0.240040
C105	C	1.780399	1.617310	0.093293
C106	C	1.216972	0.438691	-0.951910
C107	C	1.550305	0.772025	-0.618576
C108	C	1.883639	1.105358	-0.285243
C109	C	1.216986	0.438646	-1.061634
C110	C	1.550319	0.771979	-0.728301
C111	C	1.883652	1.105313	-0.394967
C112	C	1.113814	0.573016	-1.061583
C113	C	1.447147	0.906349	-0.728250
C114	C	1.780480	1.239683	-0.394917
C115	C	1.113797	0.573055	-0.951861
C116	C	1.447130	0.906389	-0.618528
C117	C	1.780463	1.239722	-0.285194
C118	C	1.165281	0.506063	-0.233250
C119	C	1.498614	0.839396	0.100084
C120	C	1.831947	1.172730	0.433417
C121	C	1.165411	0.505810	-0.116474
C122	C	1.498744	0.839143	0.216860
C123	C	1.832078	1.172477	0.550193
H124	H	1.258900	0.905973	-0.384425
H125	H	1.592234	1.239306	-0.051092
H126	H	1.925567	1.572640	0.282242
H127	H	1.071818	0.627698	-1.106242
H128	H	1.405151	0.961032	-0.772909
H129	H	1.738484	1.294365	-0.439576
H130	H	1.071702	0.905976	-0.628029
H131	H	1.405035	1.239310	-0.294696
H132	H	1.738369	1.572643	0.038637
Cl133	Cl	1.281854	0.354167	-1.130625
Cl134	Cl	1.615187	0.687500	-0.797291
Cl135	Cl	1.948521	1.020834	-0.463958
Cl136	Cl	1.281817	0.354256	-0.882979
Cl137	Cl	1.615150	0.687590	-0.549646
Cl138	Cl	1.948483	1.020923	-0.216313
Cl139	Cl	1.048928	0.657540	-0.882861
Cl140	Cl	1.382262	0.990874	-0.549527
Cl141	Cl	1.715595	1.324207	-0.216194
H142	H	1.258994	1.105020	-0.384492
H143	H	1.592328	1.438354	-0.051159
H144	H	1.925661	1.771687	0.282174
Cl145	Cl	1.048956	1.129340	-0.657820
Cl146	Cl	1.382290	1.462673	-0.324486
Cl147	Cl	1.715623	1.796007	0.008847
