data_functionalizedCrystal
_audit_creation_method	'MofGen! by Chris Wilmer'
_symmetry_space_group_name_H-M	'P1'
_symmetry_Int_Tables_number	1
_symmetry_cell_setting	triclinic
loop_
_symmetry_equiv_pos_as_xyz
  x,y,z
_cell_length_a	10.968094
_cell_length_b	10.065918
_cell_length_c	8.559649
_cell_angle_alpha	79.193516
_cell_angle_beta	102.585609
_cell_angle_gamma	87.802429
loop_
_atom_site_label
_atom_site_type_symbol
_atom_site_fract_x
_atom_site_fract_y
_atom_site_fract_z
O1	O	1.600898	-0.262988	-0.175140
O2	O	1.246120	-0.179555	-0.212024
O3	O	1.454765	-0.228623	0.040029
O4	O	1.392253	-0.213919	-0.427193
O5	O	1.426859	-0.449049	0.080836
O6	O	1.218213	-0.399980	-0.171217
O7	O	1.572992	-0.483414	-0.134333
Zn8	Zn	1.391172	-0.476694	-0.146296
Zn9	Zn	1.427940	-0.186274	-0.200061
O10	O	1.364346	-0.434345	-0.386386
C11	C	1.187167	-0.279185	-0.192021
C12	C	1.053087	-0.247653	-0.193197
N13	N	1.366088	-0.674901	-0.109601
C14	C	0.840269	-0.315184	-0.173781
C15	C	0.978845	-0.347787	-0.172575
C16	C	1.419204	-0.755171	-0.187295
C17	C	1.399910	-0.907801	-0.159038
C18	C	1.631944	-0.383781	-0.154336
C19	C	1.766026	-0.415304	-0.153162
C20	C	1.445549	-0.339948	0.120115
C21	C	1.459652	-0.343257	0.297949
N22	N	1.453035	0.011930	-0.236743
C23	C	1.373562	-0.323018	-0.466472
C24	C	1.359461	-0.319700	-0.644308
H25	H	0.801242	-0.205332	-0.192316
Cl26	Cl	1.511477	-0.686830	-0.322284
H27	H	0.805057	-0.525157	-0.134609
Cl28	Cl	1.608752	-0.378339	0.431681
H29	H	1.017870	-0.457648	-0.154021
H30	H	1.262895	-0.296995	0.269080
H31	H	1.340152	-0.952070	-0.071592
Cl32	Cl	0.992841	-0.078032	-0.221870
H33	H	1.306333	-0.719176	-0.022161
Cl34	Cl	1.545313	-0.919739	-0.371738
