data_functionalizedCrystal
_audit_creation_method	'MofGen! by Chris Wilmer'
_symmetry_space_group_name_H-M	'P1'
_symmetry_Int_Tables_number	1
_symmetry_cell_setting	triclinic
loop_
_symmetry_equiv_pos_as_xyz
  x,y,z
_cell_length_a	12.645330
_cell_length_b	12.645331
_cell_length_c	12.645323
_cell_angle_alpha	89.977324
_cell_angle_beta	90.027006
_cell_angle_gamma	89.988375
loop_
_atom_site_label
_atom_site_type_symbol
_atom_site_fract_x
_atom_site_fract_y
_atom_site_fract_z
Zn1	Zn	-0.422060	-1.620768	0.599431
Zn2	Zn	-0.599348	-1.620666	0.422164
Zn3	Zn	-0.422096	-1.443483	0.422175
Zn4	Zn	-0.599279	-1.443480	0.599379
O5	O	-0.510695	-1.532099	0.510787
O6	O	-0.445591	-1.769102	0.575933
O7	O	-0.575879	-1.597120	0.273818
O8	O	-0.273744	-1.467044	0.445714
O9	O	-0.575844	-1.769027	0.445696
O10	O	-0.273717	-1.597295	0.575943
O11	O	-0.445653	-1.466945	0.273826
O12	O	-0.445585	-1.295135	0.445665
O13	O	-0.575726	-1.467040	0.747734
O14	O	-0.575761	-1.295133	0.575856
O15	O	-0.445524	-1.597293	0.747771
O16	O	-0.747686	-1.597118	0.445646
O17	O	-0.747635	-1.466940	0.575845
C18	C	-0.786125	-1.532046	0.510762
C19	C	-0.903955	-1.532121	0.510787
C20	C	-0.510670	-1.256670	0.510757
C21	C	-0.510685	-1.138840	0.510769
C22	C	-0.510613	-1.532177	0.787293
C23	C	-0.510579	-1.532211	0.905123
C24	C	-1.071507	-1.613884	0.428712
C25	C	-0.948947	-1.614150	0.428913
C26	C	-0.948338	-1.562421	0.622532
C27	C	-1.070936	-1.563069	0.622096
C28	C	-1.071281	-1.420025	0.482218
C29	C	-0.948676	-1.420562	0.479712
C30	C	-0.234190	-1.532182	0.510836
C31	C	-0.116360	-1.532217	0.510856
C32	C	-0.510722	-1.808605	0.510819
C33	C	-0.510733	-1.926435	0.510832
C34	C	-0.428415	-0.971241	0.429317
C35	C	-0.428628	-1.093801	0.428958
C36	C	-0.622359	-1.094329	0.480250
C37	C	-0.621910	-0.971731	0.479694
C38	C	-0.482344	-0.971688	0.623054
C39	C	-0.479849	-1.094293	0.622430
C40	C	-0.510701	-1.532083	0.235357
C41	C	-0.510437	-1.532255	0.117528
C42	C	-0.592103	-1.450016	1.072663
C43	C	-0.592506	-1.450231	0.950103
C44	C	-0.540899	-1.643913	0.949642
C45	C	-0.541410	-1.643462	1.072240
C46	C	-0.398278	-1.503760	1.072325
C47	C	-0.398951	-1.501267	0.949718
H48	H	-0.918943	-1.595192	0.346056
H49	H	-1.100602	-1.506193	0.685408
C50	C	-0.463089	-1.728918	0.910293
C51	C	-0.370891	-1.697817	0.837104
C52	C	-0.293077	-1.782819	0.797758
C53	C	-0.307460	-1.898922	0.831601
C54	C	-0.399662	-1.930028	0.904794
C55	C	-0.477477	-1.845026	0.944140
H56	H	-0.360240	-1.611866	0.812048
H57	H	-0.224823	-1.759792	0.743575
H58	H	-0.249858	-1.961845	0.802474
H59	H	-0.410313	-2.015979	0.929850
H60	H	-0.545730	-1.868053	0.998322
C61	C	-0.907324	-1.333918	0.554609
C62	C	-0.831889	-1.363078	0.645707
C63	C	-0.790538	-1.276437	0.720614
C64	C	-0.824622	-1.160636	0.704424
C65	C	-0.900061	-1.131471	0.613322
C66	C	-0.941412	-1.218112	0.538415
H67	H	-0.806654	-1.448805	0.657695
H68	H	-0.734693	-1.298028	0.788054
H69	H	-0.794012	-1.096500	0.759875
H70	H	-0.925296	-1.045744	0.601334
H71	H	-0.997257	-1.196522	0.470975
H72	H	-1.101059	-1.595163	0.345613
H73	H	-0.573311	-1.366940	1.102138
H74	H	-0.917551	-1.643501	0.647194
H75	H	-1.102289	-1.392472	0.402153
H76	H	-0.622030	-1.668479	0.918950
H77	H	-0.337434	-1.563658	1.101341
C78	C	-0.707578	-0.931686	0.556391
C79	C	-0.676575	-0.861821	0.651178
C80	C	-0.762247	-0.821784	0.727868
C81	C	-0.878922	-0.851612	0.709773
C82	C	-0.909931	-0.921481	0.614982
C83	C	-0.824259	-0.961518	0.538292
H84	H	-0.590201	-0.839737	0.664577
H85	H	-0.739292	-0.770062	0.798038
H86	H	-0.942342	-0.821974	0.766544
H87	H	-0.996305	-0.943564	0.601583
H88	H	-0.847214	-1.013239	0.468122
H89	H	-0.345355	-0.941770	0.448241
H90	H	-0.646847	-1.124987	0.399090
C91	C	-0.909512	-1.389692	0.368616
C92	C	-0.837263	-1.465390	0.306374
C93	C	-0.798097	-1.434526	0.195275
C94	C	-0.831180	-1.327963	0.146419
C95	C	-0.903433	-1.252257	0.208662
C96	C	-0.942599	-1.283122	0.319760
H97	H	-0.812770	-1.544281	0.342540
H98	H	-0.744610	-1.490568	0.149199
H99	H	-0.802186	-1.305115	0.064177
H100	H	-0.927926	-1.173367	0.172496
H101	H	-0.996085	-1.227079	0.365836
H102	H	-0.674731	-1.468644	1.103479
H103	H	-1.100287	-1.359177	0.542047
H104	H	-0.345817	-1.123895	0.448088
H105	H	-0.919540	-1.697246	0.447855
H106	H	-1.099450	-1.645076	0.646354
H107	H	-0.675654	-1.469043	0.920786
C108	C	-0.654423	-0.933025	0.368864
C109	C	-0.753306	-0.863229	0.355242
C110	C	-0.785816	-0.824529	0.244409
C111	C	-0.719444	-0.855625	0.147197
C112	C	-0.620555	-0.925425	0.160815
C113	C	-0.588044	-0.964125	0.271649
H114	H	-0.802444	-0.840206	0.427207
H115	H	-0.859021	-0.772858	0.234328
H116	H	-0.743511	-0.826977	0.065151
H117	H	-0.571417	-0.948447	0.088850
H118	H	-0.514840	-1.015795	0.281729
C119	C	-0.453989	-1.133363	0.316617
C120	C	-0.381298	-1.103376	0.223655
C121	C	-0.406667	-1.142936	0.111309
C122	C	-0.504725	-1.212482	0.091925
C123	C	-0.577422	-1.242473	0.184889
C124	C	-0.552054	-1.202913	0.297235
H125	H	-0.308704	-1.051891	0.238002
H126	H	-0.352851	-1.120734	0.042491
H127	H	-0.523504	-1.241766	0.008759
H128	H	-0.650017	-1.293959	0.170542
H129	H	-0.605870	-1.225115	0.366053
C130	C	-0.368827	-1.133594	0.653518
C131	C	-0.346936	-1.253018	0.663054
C132	C	-0.235912	-1.292325	0.694134
C133	C	-0.146779	-1.212208	0.715679
C134	C	-0.168667	-1.092777	0.706144
C135	C	-0.279691	-1.053470	0.675064
H136	H	-0.412920	-1.312332	0.647104
H137	H	-0.219709	-1.380737	0.701193
H138	H	-0.064593	-1.241306	0.738687
H139	H	-0.102684	-1.033463	0.722094
H140	H	-0.295894	-0.965059	0.668006
H141	H	-1.102239	-1.696534	0.447442
C142	C	-0.368045	-1.390223	0.910401
C143	C	-0.261407	-1.341500	0.943332
C144	C	-0.230503	-1.230457	0.904004
C145	C	-0.306236	-1.168137	0.831744
C146	C	-0.412881	-1.216860	0.798809
C147	C	-0.443785	-1.327903	0.838138
H148	H	-0.205339	-1.387634	0.996826
H149	H	-0.151557	-1.194390	0.928385
H150	H	-0.283359	-1.085937	0.802631
H151	H	-0.468949	-1.170726	0.745315
H152	H	-0.522731	-1.363970	0.813757
C153	C	-0.908960	-1.484520	0.707437
C154	C	-0.935585	-1.366026	0.698343
C155	C	-0.896204	-1.288125	0.783246
C156	C	-0.830200	-1.328717	0.877244
C157	C	-0.803572	-1.447217	0.886343
C158	C	-0.842952	-1.525119	0.801439
H159	H	-0.984449	-1.335972	0.628757
H160	H	-0.915917	-1.200403	0.776510
H161	H	-0.801048	-1.271050	0.940095
H162	H	-0.754708	-1.477271	0.955929
H163	H	-0.823240	-1.612840	0.808175
C164	C	-0.563335	-0.932555	0.705112
C165	C	-0.681317	-0.959700	0.691944
C166	C	-0.762312	-0.920565	0.773994
C167	C	-0.725326	-0.854284	0.869210
C168	C	-0.607339	-0.827135	0.882382
C169	C	-0.526343	-0.866270	0.800333
H170	H	-0.708702	-1.008768	0.621456
H171	H	-0.849654	-0.940663	0.764242
H172	H	-0.785284	-0.825314	0.929948
H173	H	-0.579954	-0.778067	0.952871
H174	H	-0.439001	-0.846172	0.810085
C175	C	-0.312404	-1.576275	0.908359
C176	C	-0.219489	-1.532005	0.843305
C177	C	-0.132946	-1.607024	0.801945
C178	C	-0.139318	-1.726313	0.825638
C179	C	-0.232236	-1.770589	0.890695
C180	C	-0.318779	-1.695570	0.932056
H181	H	-0.214769	-1.443695	0.825763
H182	H	-0.064162	-1.574247	0.753785
H183	H	-0.075254	-1.781846	0.795020
H184	H	-0.236957	-1.858899	0.908237
H185	H	-0.387563	-1.728347	0.980216
H186	H	-0.685331	-1.123504	0.537758
H187	H	-0.573532	-1.367400	0.920002
H188	H	-0.446970	-0.940395	0.346645
H189	H	-0.402333	-0.940784	0.650808
H190	H	-0.623400	-1.667614	1.100848
H191	H	-0.535432	-1.124956	0.686413
H192	H	-0.484511	-1.706815	1.101920
H193	H	-0.370640	-1.423724	1.103230
