data_functionalizedCrystal
_audit_creation_method	'MofGen! by Chris Wilmer'
_symmetry_space_group_name_H-M	'P1'
_symmetry_Int_Tables_number	1
_symmetry_cell_setting	triclinic
loop_
_symmetry_equiv_pos_as_xyz
  x,y,z
_cell_length_a	23.532361
_cell_length_b	10.654550
_cell_length_c	9.730223
_cell_angle_alpha	90.001969
_cell_angle_beta	90.000012
_cell_angle_gamma	83.657299
loop_
_atom_site_label
_atom_site_type_symbol
_atom_site_fract_x
_atom_site_fract_y
_atom_site_fract_z
O1	O	0.756268	0.152162	0.114140
O2	O	0.590545	0.174280	0.114171
O3	O	0.677217	-0.019640	0.114161
O4	O	0.669596	0.346083	0.114151
O5	O	0.677210	-0.019651	-0.114419
O6	O	0.590538	0.174269	-0.114409
O7	O	0.756261	0.152151	-0.114440
Zn8	Zn	0.673398	0.163208	-0.150716
Zn9	Zn	0.673407	0.163223	0.150448
O10	O	0.669589	0.346071	-0.114429
C11	C	0.569321	0.173721	-0.000115
C12	C	0.506092	0.172055	-0.000102
C13	C	0.232804	0.164778	0.124489
C14	C	0.292214	0.166354	0.124492
O15	O	0.322949	0.167131	0.230456
N16	N	0.321922	0.167144	-0.000107
C17	C	0.292216	0.166345	-0.124718
O18	O	0.322940	0.167160	-0.230700
C19	C	0.232808	0.164759	-0.124720
C20	C	0.203103	0.163982	-0.000113
C21	C	0.203100	0.163999	0.249086
C22	C	0.143694	0.162425	0.249082
C23	C	0.113992	0.161630	0.124481
C24	C	0.143697	0.162408	-0.000116
C25	C	0.203104	0.163951	-0.249330
C26	C	0.143692	0.162365	-0.249321
C27	C	0.113987	0.161588	-0.124713
C28	C	0.054590	0.160039	-0.124722
N29	N	0.024882	0.159249	-0.000122
C30	C	0.054584	0.160044	0.124479
C31	C	0.416978	0.169672	-0.124705
C32	C	0.476385	0.171266	-0.124704
C33	C	0.476379	0.171273	0.124507
C34	C	0.416971	0.169688	0.124505
C35	C	0.387271	0.168882	-0.000105
C36	C	-0.070173	0.156740	0.124462
C37	C	-0.129585	0.155171	0.124447
C38	C	-0.129574	0.155158	-0.124763
C39	C	-0.070168	0.156733	-0.124749
C40	C	-0.040469	0.157520	-0.000126
O41	O	0.023818	0.159256	-0.230632
O42	O	0.023854	0.159212	0.230443
C43	C	0.676654	-0.066426	-0.000125
C44	C	0.674979	-0.205815	-0.000112
C45	C	0.777484	0.152711	-0.000151
C46	C	0.840714	0.154376	-0.000155
C47	C	0.670152	0.392857	-0.000141
C48	C	0.671826	0.532247	-0.000145
N49	N	0.673396	0.163197	-0.356253
C50	C	0.620795	0.613368	-0.000132
C51	C	0.622372	0.744338	-0.000111
C52	C	0.726014	0.713053	-0.000120
C53	C	0.724437	0.582085	-0.000132
C54	C	0.638573	0.087454	-0.572107
C55	C	0.638565	0.087436	-0.428224
C56	C	0.708241	0.238971	-0.428172
C57	C	0.708251	0.238980	-0.572053
N58	N	0.673414	0.163224	0.355984
H59	H	0.392789	0.169055	0.225971
C60	C	0.600238	0.004090	-0.349123
C61	C	0.600227	0.004065	-0.190861
C62	C	0.561899	-0.079287	-0.111761
C63	C	0.523582	-0.162613	-0.190924
C64	C	0.523592	-0.162591	-0.349195
C65	C	0.561920	-0.079239	-0.428295
H66	H	0.628593	0.065751	-0.132251
H67	H	0.561892	-0.079303	0.005403
H68	H	0.495209	-0.224315	-0.132369
H69	H	0.495226	-0.224277	-0.407804
H70	H	0.561927	-0.079223	-0.545459
C71	C	0.746578	0.322335	-0.651164
C72	C	0.784893	0.405676	-0.572014
C73	C	0.823220	0.489022	-0.651126
C74	C	0.823232	0.489027	-0.809389
C75	C	0.784916	0.405682	-0.888548
C76	C	0.746589	0.322337	-0.809436
H77	H	0.784885	0.405675	-0.454850
H78	H	0.851584	0.550719	-0.592526
H79	H	0.851604	0.550724	-0.867953
H80	H	0.784924	0.405683	-1.005712
H81	H	0.718226	0.260640	-0.868036
H82	H	-0.153768	0.154542	0.225922
C83	C	0.600258	0.004116	-0.651270
C84	C	0.608087	-0.140162	-0.631508
C85	C	0.569773	-0.223506	-0.710668
C86	C	0.523629	-0.162571	-0.809591
C87	C	0.515797	-0.018286	-0.829358
C88	C	0.554112	0.065057	-0.750197
H89	H	0.642248	-0.185276	-0.558276
H90	H	0.575570	-0.330315	-0.696035
H91	H	0.495266	-0.224267	-0.868190
H92	H	0.481637	0.026828	-0.902590
H93	H	0.548314	0.171867	-0.764831
C94	C	0.783885	0.767877	-0.000126
C95	C	0.826424	0.736963	0.118559
C96	C	0.884297	0.791782	0.118547
C97	C	0.899631	0.877514	-0.000151
C98	C	0.857090	0.908431	-0.118845
C99	C	0.799218	0.853613	-0.118833
H100	H	0.815074	0.673495	0.206435
H101	H	0.915788	0.768894	0.206413
H102	H	0.942471	0.918094	-0.000161
H103	H	0.868440	0.971899	-0.206720
H104	H	0.767727	0.876501	-0.206698
H105	H	0.577956	0.572794	-0.000148
C106	C	0.746555	0.322309	-0.349006
C107	C	0.792695	0.261376	-0.250072
C108	C	0.831009	0.344720	-0.170908
C109	C	0.823182	0.488996	-0.190678
C110	C	0.777040	0.549937	-0.289616
C111	C	0.738727	0.466593	-0.368780
H112	H	0.798491	0.154567	-0.235434
H113	H	0.865166	0.299606	-0.097668
H114	H	0.851544	0.550692	-0.132076
H115	H	0.771244	0.656746	-0.304255
H116	H	0.704569	0.511707	-0.442021
H117	H	0.392799	0.169032	-0.226184
H118	H	-0.045999	0.157382	0.225942
H119	H	0.580817	0.810383	-0.000098
H120	H	0.765996	0.516032	-0.000138
C121	C	-0.037482	0.157642	-0.261802
C122	C	-0.051688	0.266510	-0.364563
C123	C	-0.019003	0.267426	-0.501611
C124	C	0.027888	0.159474	-0.535898
C125	C	0.042097	0.050598	-0.433134
C126	C	0.009412	0.049682	-0.296086
H127	H	-0.086402	0.346430	-0.339184
H128	H	-0.029521	0.348024	-0.577683
H129	H	0.052084	0.160152	-0.637349
H130	H	0.076810	-0.029322	-0.458513
H131	H	0.019930	-0.030915	-0.220014
H132	H	-0.153767	0.154516	-0.226211
H133	H	0.119514	0.161786	0.350551
H134	H	0.227277	0.164642	0.350557
H135	H	0.500573	0.171920	0.225964
H136	H	0.227280	0.164580	-0.350799
H137	H	0.500564	0.171920	-0.226173
H138	H	0.119512	0.161720	-0.350796
