data_functionalizedCrystal
_audit_creation_method	'MofGen! by Chris Wilmer'
_symmetry_space_group_name_H-M	'P1'
_symmetry_Int_Tables_number	1
_symmetry_cell_setting	triclinic
loop_
_symmetry_equiv_pos_as_xyz
  x,y,z
_cell_length_a	13.635800
_cell_length_b	27.923497
_cell_length_c	22.062966
_cell_angle_alpha	86.617950
_cell_angle_beta	119.786343
_cell_angle_gamma	81.035752
loop_
_atom_site_label
_atom_site_type_symbol
_atom_site_fract_x
_atom_site_fract_y
_atom_site_fract_z
V1	V	2.104215	-0.067640	0.218323
O2	O	2.107391	0.002724	0.213693
O3	O	2.068630	-0.133612	0.217285
O4	O	2.124522	-0.066830	0.313333
O5	O	2.051112	-0.064520	0.116980
V6	V	2.341737	-0.059196	0.206146
O7	O	2.244143	-0.086162	0.245033
O8	O	2.426907	-0.040674	0.179435
O9	O	2.265718	0.006776	0.207184
O10	O	2.397259	-0.129560	0.210776
O11	O	2.453538	-0.062316	0.307488
O12	O	2.209826	-0.060006	0.111136
V13	V	2.604215	-0.067640	0.218323
O14	O	2.607391	0.002724	0.213693
O15	O	2.568630	-0.133612	0.217285
O16	O	2.624522	-0.066830	0.313333
O17	O	2.551112	-0.064520	0.116980
V18	V	2.841737	-0.059196	0.206146
O19	O	2.744143	-0.086162	0.245033
O20	O	2.926907	-0.040674	0.179435
O21	O	2.765718	0.006776	0.207184
O22	O	2.897259	-0.129560	0.210776
O23	O	2.953538	-0.062316	0.307488
O24	O	2.709826	-0.060006	0.111136
C25	C	1.986921	-0.149688	0.213958
C26	C	1.998766	-0.203623	0.213743
C27	C	2.023398	-0.530992	0.148298
C28	C	2.067933	-0.733697	0.147451
O29	O	2.032177	-0.753889	0.092884
N30	N	2.122364	-0.766121	0.211383
C31	C	2.165672	-0.747866	0.275531
O32	O	2.213001	-0.780096	0.329890
C33	C	2.121144	-0.545162	0.276377
C34	C	2.066699	-0.512740	0.212440
C35	C	1.968959	-0.498570	0.084367
C36	C	1.957821	-0.447897	0.084579
C37	C	2.001122	-0.429645	0.148721
C38	C	2.055561	-0.462067	0.212652
C39	C	2.164458	-0.526908	0.340524
C40	C	2.153324	-0.476228	0.340730
C41	C	2.098879	-0.443806	0.276794
C42	C	2.087724	-0.393141	0.277007
N43	N	2.033293	-0.360717	0.213076
C44	C	1.989992	-0.378969	0.148933
C45	C	2.189044	-0.854288	0.275082
C46	C	2.200174	-0.904964	0.274871
C47	C	2.102436	-0.890792	0.146791
C48	C	2.091299	-0.840115	0.147003
C49	C	2.134613	-0.821865	0.211151
C50	C	1.966604	-0.272552	0.149383
C51	C	1.955465	-0.221875	0.149600
C52	C	2.053209	-0.236052	0.277680
C53	C	2.064342	-0.286725	0.277463
C54	C	2.021038	-0.304973	0.213309
O55	O	2.123463	-0.372915	0.331547
O56	O	1.942689	-0.346732	0.094583
C57	C	2.034536	-0.581665	0.148086
C58	C	2.088975	-0.614087	0.212016
C59	C	2.132277	-0.595835	0.276159
C60	C	2.100106	-0.664763	0.211805
C61	C	2.056804	-0.683014	0.147662
C62	C	2.002373	-0.650590	0.083731
C63	C	1.991235	-0.599917	0.083943
C64	C	2.186708	-0.628259	0.340091
C65	C	2.197841	-0.678932	0.339874
C66	C	2.154540	-0.697184	0.275731
C67	C	2.058215	-0.064500	0.336476
C68	C	2.115385	-0.064274	0.414150
C69	C	2.179097	0.022849	0.210508
C70	C	2.156873	0.076784	0.210728
C71	C	2.107802	-0.062338	0.087989
C72	C	2.040251	-0.062561	0.010314
C73	C	2.486921	-0.149688	0.213958
C74	C	2.498766	-0.203623	0.213743
C75	C	2.619592	-0.065074	0.977401
C76	C	2.565886	-0.065289	0.904419
C77	C	2.446699	-0.062965	0.864346
C78	C	2.381222	-0.060438	0.897265
C79	C	2.434932	-0.060227	0.970247
C80	C	2.279566	-0.032866	0.739371
C81	C	2.225859	-0.033074	0.666390
C82	C	2.281035	-0.063616	0.639246
C83	C	2.389939	-0.093944	0.685091
C84	C	2.443650	-0.093734	0.758073
C85	C	2.388449	-0.063193	0.785209
C86	C	2.288279	-0.066380	0.527201
C87	C	2.234569	-0.066598	0.454218
C88	C	2.049901	-0.061741	0.447064
C89	C	2.103615	-0.061528	0.520047
C90	C	2.222803	-0.063845	0.560110
C91	C	2.611286	-0.062333	1.087988
C92	C	2.554120	-0.062544	1.010311
C93	C	2.558215	-0.064500	0.336476
C94	C	2.615385	-0.064274	0.414150
C95	C	2.679097	0.022849	0.210508
C96	C	2.656873	0.076784	0.210728
C97	C	1.923485	-0.065091	-0.022595
C98	C	1.859997	-0.065295	-0.095580
C99	C	1.913280	-0.062972	-0.135654
C100	C	2.030056	-0.060439	-0.102740
C101	C	2.093540	-0.060232	-0.029758
C102	C	2.596625	-0.231433	0.217150
C103	C	2.607777	-0.282112	0.216959
C104	C	2.521065	-0.304979	0.213356
C105	C	2.423200	-0.277165	0.209950
C106	C	2.412053	-0.226488	0.210147
C107	C	2.734568	-0.066596	0.454205
C108	C	2.788297	-0.066378	0.527188
C109	C	2.722842	-0.063842	0.560115
C110	C	2.603648	-0.061518	0.520054
C111	C	2.549919	-0.061733	0.447072
C112	C	2.731509	0.104594	0.207323
C113	C	2.710630	0.155273	0.207518
C114	C	2.615120	0.178140	0.211123
C115	C	2.540477	0.150326	0.214526
C116	C	2.561351	0.099649	0.214326
H117	H	1.911125	-0.195478	0.097533
H118	H	2.687469	-0.304752	0.219730
N119	N	2.791158	0.185263	0.203862
H120	H	2.746464	0.211213	0.160240
H121	H	2.854818	0.163047	0.201587
H122	H	2.550365	-0.059454	0.546874
H123	H	2.598135	0.219405	0.211284
N124	N	2.533095	-0.359639	0.213143
H125	H	2.608249	-0.373783	0.215847
H126	H	2.466262	-0.366023	0.168166
N127	N	1.866004	-0.067601	0.020619
H128	H	1.782399	-0.069233	-0.011313
H129	H	1.870065	-0.037388	0.044066
H130	H	2.332361	-0.203848	0.207368
N131	N	2.437468	0.174992	0.218418
H132	H	2.435585	0.211315	0.218032
H133	H	2.443824	0.160241	0.263466
H134	H	1.861578	-0.063147	-0.195079
H135	H	2.352604	-0.295792	0.207016
H136	H	1.931340	-0.287403	0.097142
H137	H	1.946902	-0.573523	0.031879
N138	N	2.480856	0.069656	0.218014
H139	H	2.508563	0.034081	0.217343
H140	H	2.400205	0.082248	0.176032
N141	N	1.899052	-0.412930	0.015617
H142	H	1.873302	-0.432188	-0.025045
H143	H	1.955025	-0.393265	0.015269
N144	N	1.734051	-0.068026	-0.131070
H145	H	1.709942	-0.069472	-0.094604
H146	H	1.722576	-0.098450	-0.154207
H147	H	2.532318	-0.118429	0.795398
H148	H	1.933697	-0.513425	0.032131
N149	N	2.087515	-0.057930	-0.145968
H150	H	2.029571	-0.058447	-0.197194
H151	H	2.154311	-0.087067	-0.127788
H152	H	2.452872	-0.059844	0.414465
N153	N	2.055752	-0.910482	0.077607
H154	H	2.071076	-0.947505	0.087182
H155	H	2.095248	-0.900214	0.052077
N156	N	2.805180	-0.069332	0.418701
H157	H	2.888832	-0.070768	0.455158
H158	H	2.774948	-0.039294	0.381580
H159	H	2.667238	-0.212821	0.220080
N160	N	2.032562	-0.805147	0.078044
H161	H	2.006815	-0.824404	0.037381
H162	H	2.088561	-0.785492	0.077712
H163	H	2.809285	0.085983	0.204388
H164	H	2.188620	-0.058174	-0.002969
N165	N	2.916854	-0.068884	0.570380
H166	H	2.959819	-0.100218	0.566233
H167	H	2.940875	-0.068339	0.621591
N168	N	2.220044	0.000080	0.768639
H169	H	2.269872	0.023621	0.794710
H170	H	2.207476	-0.020607	0.802264
N171	N	2.258875	-0.939931	0.343829
H172	H	2.284616	-0.920673	0.384492
H173	H	2.328386	-0.962948	0.348918
N174	N	2.235760	-0.834608	0.344274
H175	H	2.271923	-0.862842	0.384736
H176	H	2.170509	-0.812209	0.344770
H177	H	2.208792	-0.553298	0.392588
N178	N	2.033028	-0.058797	0.555564
H179	H	2.063181	-0.088836	0.592677
H180	H	1.949386	-0.057341	0.519075
N181	N	2.780793	-0.063594	0.638827
H182	H	2.866228	-0.065446	0.659200
H183	H	2.769379	-0.092817	0.661964
H184	H	2.188608	-0.461373	0.392969
N185	N	2.099910	-0.216354	0.346855
H186	H	2.185972	-0.229950	0.377196
H187	H	2.060380	-0.226587	0.372383
N188	N	2.123044	-0.321697	0.346419
H189	H	2.148779	-0.302443	0.387085
H190	H	2.192559	-0.344711	0.351506
N191	N	1.955719	-0.670282	0.014548
H192	H	1.971059	-0.707306	0.024124
H193	H	1.995230	-0.660008	-0.010969
H194	H	2.221972	-0.613404	0.392325
N195	N	2.256564	-0.713902	0.408835
H196	H	2.213240	-0.706500	0.434491
H197	H	2.338744	-0.709842	0.439191
N198	N	2.748144	-0.067579	1.020604
H199	H	2.786512	-0.097833	1.058036
H200	H	2.762492	-0.037347	1.044005
H201	H	2.619203	-0.067350	0.877619
H202	H	2.385331	-0.068271	0.559824
N203	N	2.449470	-0.126887	0.655827
H204	H	2.398921	-0.122422	0.602638
H205	H	2.463491	-0.162240	0.676464
H206	H	2.287893	-0.068661	0.427426
H207	H	1.952859	-0.059852	0.414438
N208	N	2.108409	-0.000360	0.616954
H209	H	2.050703	-0.009122	0.629363
H210	H	2.082851	-0.005136	0.566618
N211	N	2.252673	-0.057931	0.854049
H212	H	2.228580	-0.058447	0.802820
H213	H	2.209782	-0.026602	0.858253
H214	H	2.381610	-0.058167	0.997040
