data_functionalizedCrystal
_audit_creation_method	'MofGen! by Chris Wilmer'
_symmetry_space_group_name_H-M	'P1'
_symmetry_Int_Tables_number	1
_symmetry_cell_setting	triclinic
loop_
_symmetry_equiv_pos_as_xyz
  x,y,z
_cell_length_a	19.188930
_cell_length_b	10.654550
_cell_length_c	9.130313
_cell_angle_alpha	90.000110
_cell_angle_beta	89.985896
_cell_angle_gamma	96.185158
loop_
_atom_site_label
_atom_site_type_symbol
_atom_site_fract_x
_atom_site_fract_y
_atom_site_fract_z
O1	O	0.927166	-0.156774	-0.122267
O2	O	0.723993	-0.177880	-0.122166
O3	O	0.830251	0.015511	-0.122214
O4	O	0.820908	-0.350165	-0.122220
O5	O	0.830250	0.015506	0.121385
O6	O	0.723992	-0.177885	0.121433
O7	O	0.927165	-0.156779	0.121332
Cu8	Cu	0.825578	-0.167333	0.143625
Cu9	Cu	0.825580	-0.167326	-0.144459
O10	O	0.820907	-0.350170	0.121379
C11	C	0.697977	-0.177199	-0.000354
C12	C	0.620459	-0.175147	-0.000315
C13	C	0.829564	0.062292	-0.000416
C14	C	0.827512	0.201692	-0.000420
N15	N	0.825582	-0.167336	0.346247
C16	C	0.576277	-0.288622	-0.000340
C17	C	0.503441	-0.286695	-0.000356
C18	C	0.474789	-0.171286	-0.000377
C19	C	0.518981	-0.057795	-0.000344
C20	C	0.591816	-0.059726	-0.000313
N21	N	0.366233	-0.083068	-0.083342
N22	N	0.297042	-0.081241	-0.083374
C23	C	0.255343	-0.165461	-0.000466
N24	N	0.285446	-0.251596	0.082456
N25	N	0.354643	-0.253426	0.082482
C26	C	0.395813	-0.169179	-0.000409
C27	C	0.132183	-0.276855	-0.000507
C28	C	0.059345	-0.274922	-0.000514
C29	C	0.074887	-0.046020	-0.000516
C30	C	0.147723	-0.047955	-0.000494
C31	C	0.176366	-0.163376	-0.000497
C32	C	0.953181	-0.157460	-0.000484
C33	C	1.030699	-0.159512	-0.000532
C34	C	0.821594	-0.396951	-0.000422
C35	C	0.823646	-0.536351	-0.000428
C36	C	0.890075	0.282501	-0.000446
C37	C	0.888142	0.413481	-0.000456
C38	C	0.761078	0.382829	-0.000405
C39	C	0.763011	0.251852	-0.000407
C40	C	0.963434	0.300199	-0.000469
C41	C	0.961502	0.431179	-0.000478
N42	N	0.825581	-0.167313	-0.347082
C43	C	0.872645	-0.081731	0.422878
C44	C	0.872643	-0.081716	0.576215
C45	C	0.778513	-0.252922	0.576276
C46	C	0.778512	-0.252930	0.422942
C47	C	0.926993	0.017109	0.422844
C48	C	0.926991	0.017124	0.576181
H49	H	0.467461	-0.379103	-0.000373
N50	N	0.605523	-0.406529	-0.000347
N51	N	0.566060	-0.507840	-0.000371
H52	H	0.586716	-0.591114	-0.000377
N53	N	0.489706	0.060082	-0.000350
N54	N	0.424675	0.061791	-0.000378
H55	H	0.403999	0.145046	-0.000375
N56	N	0.730426	-0.340350	0.654601
N57	N	0.665889	-0.338907	0.637498
H58	H	0.631926	-0.400655	0.692811
H59	H	0.977683	-0.012407	0.375260
H60	H	0.915073	0.113389	0.381233
H61	H	0.712067	0.186060	-0.000405
N62	N	0.695203	0.434094	-0.000368
N63	N	0.679950	0.503767	0.102320
H64	H	0.633425	0.539974	0.102350
N65	N	0.994290	-0.008439	0.628394
N66	N	1.005681	-0.012741	0.762992
H67	H	1.053210	-0.030789	0.799871
N68	N	0.999435	0.264144	-0.128365
N69	N	1.023208	0.346150	-0.218480
H70	H	1.048633	0.320687	-0.308805
H71	H	0.986794	0.265064	0.104701
N72	N	0.636940	0.056203	-0.000280
N73	N	0.611354	0.159243	-0.000284
H74	H	0.643224	0.241121	-0.000262
N75	N	0.989324	0.489016	-0.132436
N76	N	1.051380	0.479341	-0.168360
H77	H	1.071029	0.520186	-0.261555
H78	H	0.910029	0.107988	0.623739
H79	H	0.740183	-0.322625	0.360551
H80	H	0.023372	-0.367332	-0.000526
N81	N	0.161436	-0.394758	-0.000471
N82	N	0.148078	-0.471166	0.102218
H83	H	0.168737	-0.554437	0.102247
N84	N	0.045618	0.071859	-0.000510
N85	N	-0.019413	0.073570	-0.000523
H86	H	-0.040088	0.156825	-0.000509
N87	N	0.192848	0.067971	-0.000473
N88	N	0.167261	0.171009	-0.000485
H89	H	0.199130	0.252888	-0.000465
N90	N	0.996174	0.484289	0.127396
N91	N	1.022181	0.414294	0.217502
H92	H	1.046666	0.451801	0.307813
