data_functionalizedCrystal
_audit_creation_method	'MofGen! by Chris Wilmer'
_symmetry_space_group_name_H-M	'P1'
_symmetry_Int_Tables_number	1
_symmetry_cell_setting	triclinic
loop_
_symmetry_equiv_pos_as_xyz
  x,y,z
_cell_length_a	14.908932
_cell_length_b	19.805407
_cell_length_c	19.805399
_cell_angle_alpha	90.019573
_cell_angle_beta	86.686672
_cell_angle_gamma	86.700340
loop_
_atom_site_label
_atom_site_type_symbol
_atom_site_fract_x
_atom_site_fract_y
_atom_site_fract_z
Zn1	Zn	0.359180	1.019292	0.367217
Zn2	Zn	0.692513	1.352625	0.700550
Zn3	Zn	1.025846	1.685959	1.033884
Zn4	Zn	0.510045	1.012720	0.247517
Zn5	Zn	0.843378	1.346053	0.580851
Zn6	Zn	1.176712	1.679387	0.914184
Zn7	Zn	0.359205	0.906106	0.254041
Zn8	Zn	0.692538	1.239439	0.587374
Zn9	Zn	1.025871	1.572772	0.920707
Zn10	Zn	0.509997	0.899586	0.360666
Zn11	Zn	0.843330	1.232919	0.694000
Zn12	Zn	1.176664	1.566252	1.027333
O13	O	0.434607	0.959426	0.307360
O14	O	0.767940	1.292759	0.640694
O15	O	1.101273	1.626092	0.974027
O16	O	0.379202	1.113136	0.351350
O17	O	0.712535	1.446470	0.684684
O18	O	1.045869	1.779803	1.018017
O19	O	0.490066	0.998556	0.153665
O20	O	0.823399	1.331889	0.486998
O21	O	1.156733	1.665222	0.820331
O22	O	0.232957	0.926599	0.274525
O23	O	0.566290	1.259932	0.607859
O24	O	0.899623	1.593266	0.941192
O25	O	0.490042	1.108308	0.263407
O26	O	0.823375	1.441641	0.596741
O27	O	1.156709	1.774975	0.930074
O28	O	0.232938	1.009757	0.357676
O29	O	0.566272	1.343090	0.691009
O30	O	0.899605	1.676423	1.024342
O31	O	0.379244	0.920227	0.158457
O32	O	0.712578	1.253560	0.491791
O33	O	1.045911	1.586893	0.825124
O34	O	0.379198	0.810525	0.268173
O35	O	0.712531	1.143858	0.601507
O36	O	1.045865	1.477191	0.934840
O37	O	0.489960	0.915487	0.456253
O38	O	0.823294	1.248820	0.789586
O39	O	1.156627	1.582153	1.122920
O40	O	0.489984	0.805734	0.346511
O41	O	0.823318	1.139068	0.679844
O42	O	1.156651	1.472401	1.013177
O43	O	0.379156	1.003434	0.461066
O44	O	0.712489	1.336768	0.794399
O45	O	1.045822	1.670101	1.127733
O46	O	0.636283	0.992234	0.257055
O47	O	0.969617	1.325567	0.590389
O48	O	1.302950	1.658900	0.923722
O49	O	0.636248	0.909114	0.340185
O50	O	0.969581	1.242447	0.673519
O51	O	1.302915	1.575781	1.006852
C52	C	0.434589	0.783571	0.307339
C53	C	0.767923	1.116904	0.640673
C54	C	1.101256	1.450237	0.974006
C55	C	0.434604	0.708338	0.307345
C56	C	0.767937	1.041671	0.640679
C57	C	1.101270	1.375005	0.974012
C58	C	0.199298	0.969638	0.317559
C59	C	0.532632	1.302972	0.650892
C60	C	0.865965	1.636305	0.984226
C61	C	0.099024	0.973990	0.321905
C62	C	0.432357	1.307324	0.655238
C63	C	0.765691	1.640657	0.988572
C64	C	0.492377	0.670513	0.348062
C65	C	0.825710	1.003847	0.681395
C66	C	1.159044	1.337180	1.014728
C67	C	0.492379	0.599825	0.348071
C68	C	0.825712	0.933158	0.681405
C69	C	1.159045	1.266492	1.014738
C70	C	0.434611	0.566962	0.307360
C71	C	0.767944	0.900295	0.640693
C72	C	1.101277	1.233629	0.974027
C73	C	0.376831	0.604792	0.266642
C74	C	0.710164	0.938125	0.599975
C75	C	1.043498	1.271458	0.933309
C76	C	0.376826	0.675479	0.266637
C77	C	0.710159	1.008812	0.599970
C78	C	1.043492	1.342146	0.933303
C79	C	0.376851	0.319718	0.266664
C80	C	0.710184	0.653051	0.599997
C81	C	1.043518	0.986384	0.933330
C82	C	0.376863	0.249025	0.266671
C83	C	0.710196	0.582358	0.600004
C84	C	1.043529	0.915692	0.933337
C85	C	0.492404	0.244063	0.348098
C86	C	0.825737	0.577397	0.681431
C87	C	1.159071	0.910730	1.014765
C88	C	0.492399	0.314751	0.348093
C89	C	0.825732	0.648084	0.681426
C90	C	1.159065	0.981417	1.014759
C91	C	0.434616	0.352574	0.307378
C92	C	0.767949	0.685908	0.640711
C93	C	1.101283	1.019241	0.974044
C94	C	0.434614	0.429223	0.307369
C95	C	0.767947	0.762556	0.640702
C96	C	1.101280	1.095890	0.974035
C97	C	0.434617	0.490315	0.307365
C98	C	0.767950	0.823648	0.640698
C99	C	1.101283	1.156981	0.974032
C100	C	-0.089385	0.895560	0.243489
C101	C	0.243949	1.228894	0.576822
C102	C	0.577282	1.562227	0.910156
C103	C	-0.183601	0.899647	0.247570
C104	C	0.149732	1.232980	0.580903
C105	C	0.483065	1.566314	0.914237
C106	C	-0.183628	0.986247	0.334152
C107	C	0.149706	1.319580	0.667485
C108	C	0.483039	1.652913	1.000818
C109	C	-0.089411	0.982160	0.330070
C110	C	0.243922	1.315493	0.663404
C111	C	0.577256	1.648826	0.996737
C112	C	-0.042293	0.936816	0.284737
C113	C	0.291040	1.270149	0.618070
C114	C	0.624374	1.603483	0.951403
C115	C	0.051926	0.932733	0.280652
C116	C	0.385259	1.266066	0.613986
C117	C	0.718592	1.599400	0.947319
C118	C	0.051898	1.019329	0.367237
C119	C	0.385231	1.352662	0.700570
C120	C	0.718564	1.685995	1.033904
C121	C	-0.042319	1.023415	0.371318
C122	C	0.291014	1.356749	0.704652
C123	C	0.624348	1.690082	1.037985
C124	C	0.669000	0.949271	0.297216
C125	C	1.002333	1.282605	0.630550
C126	C	1.335666	1.615938	0.963883
C127	C	0.769274	0.944989	0.292899
C128	C	1.102607	1.278323	0.626233
C129	C	1.435940	1.611656	0.959566
C130	C	0.434550	0.959466	0.483906
C131	C	0.767883	1.292800	0.817239
C132	C	1.101216	1.626133	1.150572
C133	C	0.434526	0.959483	0.559139
C134	C	0.767859	1.292817	0.892472
C135	C	1.101192	1.626150	1.225805
C136	C	0.434625	1.135968	0.307382
C137	C	0.767958	1.469301	0.640715
C138	C	1.101291	1.802634	0.974049
C139	C	0.434632	1.211199	0.307391
C140	C	0.767966	1.544533	0.640724
C141	C	1.101299	1.877866	0.974058
C142	C	0.434598	0.959427	0.131505
C143	C	0.767931	1.292761	0.464838
C144	C	1.101265	1.626094	0.798171
C145	C	0.434368	0.959552	0.056283
C146	C	0.767701	1.292886	0.389616
C147	C	1.101035	1.626219	0.722950
C148	C	0.376827	1.005279	0.596990
C149	C	0.710160	1.338612	0.930323
C150	C	1.043493	1.671946	1.263657
C151	C	0.376800	1.005287	0.667680
C152	C	0.710134	1.338620	1.001013
C153	C	1.043467	1.671954	1.334346
C154	C	0.434478	0.959502	0.700516
C155	C	0.767812	1.292836	1.033850
C156	C	1.101145	1.626169	1.367183
C157	C	0.492180	0.913702	0.662660
C158	C	0.825513	1.247035	0.995993
C159	C	1.158847	1.580369	1.329327
C160	C	0.492201	0.913691	0.591972
C161	C	0.825534	1.247024	0.925305
C162	C	1.158868	1.580358	1.258638
C163	C	0.492096	0.913744	0.947737
C164	C	0.825429	1.247077	1.281070
C165	C	1.158762	1.580410	1.614404
C166	C	0.492072	0.913759	1.018430
C167	C	0.825406	1.247093	1.351763
C168	C	1.158739	1.580426	1.685097
C169	C	0.376695	1.005340	1.023445
C170	C	0.710029	1.338673	1.356778
C171	C	1.043362	1.672006	1.690112
C172	C	0.376716	1.005329	0.952757
C173	C	0.710050	1.338662	1.286090
C174	C	1.043383	1.671996	1.619423
C175	C	0.434414	0.959526	0.914907
C176	C	0.767747	1.292860	1.248240
C177	C	1.101081	1.626193	1.581573
C178	C	0.434441	0.959517	0.838257
C179	C	0.767774	1.292851	1.171590
C180	C	1.101107	1.626184	1.504924
C181	C	0.434457	0.959514	0.777164
C182	C	0.767791	1.292847	1.110498
C183	C	1.101124	1.626181	1.443831
H184	H	0.539421	0.697265	0.381211
H185	H	0.872755	1.030598	0.714544
H186	H	1.206088	1.363932	1.047878
H187	H	0.539442	0.341504	0.381241
H188	H	0.872776	0.674837	0.714575
H189	H	1.206109	1.008171	1.047908
H190	H	-0.221941	0.866052	0.213983
H191	H	0.111392	1.199385	0.547316
H192	H	0.444726	1.532719	0.880650
H193	H	0.329861	1.042564	0.570260
H194	H	0.663195	1.375898	0.903593
H195	H	0.996528	1.709231	1.236926
H196	H	0.329816	0.222271	0.233519
H197	H	0.663149	0.555604	0.566852
H198	H	0.996482	0.888937	0.900186
H199	H	-0.080694	1.060332	0.408230
H200	H	0.252640	1.393665	0.741563
H201	H	0.585973	1.726998	1.074896
C202	C	0.313356	1.055677	0.709316
C203	C	0.646689	1.389010	1.042649
C204	C	0.980023	1.722343	1.375982
H205	H	0.321601	1.049126	0.756118
H206	H	0.654934	1.382460	1.089451
H207	H	0.988267	1.715793	1.422784
H208	H	0.326589	1.100572	0.697160
H209	H	0.659923	1.433906	1.030493
H210	H	0.993256	1.767239	1.363826
H211	H	0.252733	1.048413	0.700363
H212	H	0.586067	1.381746	1.033696
H213	H	0.919400	1.715080	1.367030
H214	H	0.329776	0.706275	0.233485
H215	H	0.663109	1.039609	0.566818
H216	H	0.996442	1.372942	0.900152
C217	C	0.103700	1.064713	0.412610
C218	C	0.437034	1.398047	0.745943
C219	C	0.770367	1.731380	1.079276
H220	H	0.166561	1.055785	0.403689
H221	H	0.499894	1.389119	0.737022
H222	H	0.833228	1.722452	1.070356
H223	H	0.088261	1.110856	0.403374
H224	H	0.421594	1.444189	0.736707
H225	H	0.754928	1.777523	1.070041
H226	H	0.088247	1.055488	0.458759
H227	H	0.421580	1.388822	0.792093
H228	H	0.754913	1.722155	1.125426
H229	H	0.329712	1.042632	1.054271
H230	H	0.663045	1.375965	1.387605
H231	H	0.996379	1.709299	1.720938
H232	H	0.539042	0.876473	1.045163
H233	H	0.872376	1.209806	1.378497
H234	H	1.205709	1.543139	1.711830
H235	H	-0.222004	1.023160	0.371066
H236	H	0.111330	1.356493	0.704399
H237	H	0.444663	1.689826	1.037732
C238	C	0.313309	0.361314	0.221867
C239	C	0.646642	0.694647	0.555200
C240	C	0.979975	1.027981	0.888533
H241	H	0.278917	0.331616	0.197615
H242	H	0.612250	0.664949	0.530948
H243	H	0.945584	0.998282	0.864281
H244	H	0.274038	0.390604	0.249495
H245	H	0.607371	0.723937	0.582828
H246	H	0.940704	1.057270	0.916161
H247	H	0.347778	0.387380	0.190838
H248	H	0.681111	0.720713	0.524171
H249	H	1.014445	1.054047	0.857505
C250	C	0.103755	0.882854	0.230792
C251	C	0.437088	1.216188	0.564125
C252	C	0.770421	1.549521	0.897459
H253	H	0.062211	0.858864	0.206817
H254	H	0.395544	1.192198	0.540150
H255	H	0.728877	1.525531	0.873483
H256	H	0.140523	0.907138	0.199707
H257	H	0.473856	1.240471	0.533041
H258	H	0.807190	1.573805	0.866374
H259	H	0.140494	0.851775	0.255097
H260	H	0.473828	1.185109	0.588431
H261	H	0.807161	1.518442	0.921764
H262	H	0.329791	0.578029	0.233498
H263	H	0.663125	0.911363	0.566831
H264	H	0.996458	1.244696	0.900164
C265	C	0.555542	0.863350	0.906111
C266	C	0.888875	1.196684	1.239445
C267	C	1.222209	1.530017	1.572778
H268	H	0.589888	0.836086	0.935794
H269	H	0.923221	1.169419	1.269127
H270	H	1.256554	1.502752	1.602460
H271	H	0.521017	0.835358	0.880037
H272	H	0.854350	1.168691	1.213371
H273	H	1.187683	1.502024	1.546704
H274	H	0.594874	0.887516	0.876827
H275	H	0.928207	1.220850	1.210160
H276	H	1.261540	1.554183	1.543494
C277	C	0.555984	0.558218	0.392815
C278	C	0.889318	0.891552	0.726149
C279	C	1.222651	1.224885	1.059482
H280	H	0.590412	0.587913	0.417041
H281	H	0.923745	0.921247	0.750374
H282	H	1.257078	1.254580	1.083708
H283	H	0.521581	0.532126	0.423856
H284	H	0.854915	0.865459	0.757189
H285	H	1.188248	1.198792	1.090523
H286	H	0.595232	0.528954	0.365137
H287	H	0.928565	0.862287	0.698470
H288	H	1.261899	1.195620	1.031803
C289	C	0.555956	0.202456	0.392892
C290	C	0.889289	0.535789	0.726225
C291	C	1.222622	0.869123	1.059559
H292	H	0.547681	0.155651	0.387073
H293	H	0.881015	0.488984	0.720406
H294	H	1.214348	0.822317	1.053739
H295	H	0.616552	0.211412	0.380288
H296	H	0.949885	0.544745	0.713621
H297	H	1.283219	0.878079	1.046955
H298	H	0.542826	0.214632	0.438954
H299	H	0.876159	0.547965	0.772288
H300	H	1.209493	0.881298	1.105621
H301	H	-0.051020	0.858643	0.206573
H302	H	0.282313	1.191977	0.539906
H303	H	0.615646	1.525310	0.873239
C304	C	0.313268	1.055690	0.916640
C305	C	0.646601	1.389023	1.249973
C306	C	0.979935	1.722356	1.583307
H307	H	0.278893	1.082961	0.949308
H308	H	0.612227	1.416295	1.282642
H309	H	0.945560	1.749628	1.615975
H310	H	0.347785	1.083679	0.887572
H311	H	0.681118	1.417012	1.220906
H312	H	1.014452	1.750346	1.554239
H313	H	0.273964	1.031492	0.890767
H314	H	0.607297	1.364825	1.224100
H315	H	0.940631	1.698159	1.557433
C316	C	0.555625	0.863340	0.698778
C317	C	0.888959	1.196674	1.032112
C318	C	1.222292	1.530007	1.365445
H319	H	0.547357	0.869909	0.746299
H320	H	0.880690	1.203243	1.079632
H321	H	1.214024	1.536576	1.412965
H322	H	0.542423	0.818434	0.687759
H323	H	0.875757	1.151767	1.021092
H324	H	1.209090	1.485101	1.354425
H325	H	0.616247	0.870619	0.684565
H326	H	0.949581	1.203952	1.017899
H327	H	1.282914	1.537285	1.351232
C328	C	0.555692	0.863332	0.550334
C329	C	0.889025	1.196665	0.883667
C330	C	1.222358	1.529999	1.217001
H331	H	0.590052	0.836074	0.580013
H332	H	0.923385	1.169407	0.913346
H333	H	1.256719	1.502740	1.246679
H334	H	0.521205	0.835329	0.524240
H335	H	0.854539	1.168662	0.857574
H336	H	1.187872	1.501996	1.190907
H337	H	0.595007	0.887531	0.521068
H338	H	0.928341	1.220864	0.854402
H339	H	1.261674	1.554198	1.187735
