data_functionalizedCrystal
_audit_creation_method	'MofGen! by Chris Wilmer'
_symmetry_space_group_name_H-M	'P1'
_symmetry_Int_Tables_number	1
_symmetry_cell_setting	triclinic
loop_
_symmetry_equiv_pos_as_xyz
  x,y,z
_cell_length_a	23.532355
_cell_length_b	22.610064
_cell_length_c	10.540539
_cell_angle_alpha	89.993336
_cell_angle_beta	83.676481
_cell_angle_gamma	90.004347
loop_
_atom_site_label
_atom_site_type_symbol
_atom_site_fract_x
_atom_site_fract_y
_atom_site_fract_z
O1	O	-0.756298	-0.049129	-0.153749
O2	O	-0.256298	0.450871	0.346251
O3	O	-0.590579	-0.049141	-0.176112
O4	O	-0.090579	0.450859	0.323888
O5	O	-0.677219	-0.049134	0.019902
O6	O	-0.177219	0.450866	0.519902
O7	O	-0.669658	-0.049136	-0.349763
O8	O	-0.169658	0.450864	0.150237
O9	O	-0.677204	0.049235	0.019872
O10	O	-0.177204	0.549235	0.519872
O11	O	-0.590563	0.049228	-0.176142
O12	O	-0.090563	0.549228	0.323858
O13	O	-0.756283	0.049241	-0.153779
O14	O	-0.256283	0.549241	0.346221
Zn15	Zn	-0.673421	0.064853	-0.164965
Zn16	Zn	-0.173421	0.564853	0.335035
Zn17	Zn	-0.673441	-0.064753	-0.164926
Zn18	Zn	-0.173441	0.435247	0.335074
O19	O	-0.669642	0.049233	-0.349793
O20	O	-0.169642	0.549233	0.150207
C21	C	-0.569351	0.000042	-0.175568
C22	C	-0.069351	0.500042	0.324432
C23	C	-0.506121	0.000037	-0.173888
C24	C	-0.006121	0.500037	0.326112
C25	C	-0.232836	-0.053578	-0.166521
C26	C	0.267164	0.446422	0.333479
C27	C	-0.292247	-0.053580	-0.168111
C28	C	0.207753	0.446420	0.331889
O29	O	-0.322985	-0.099182	-0.168876
O30	O	0.177015	0.400818	0.331124
N31	N	-0.321949	0.000041	-0.168931
N32	N	0.178051	0.500041	0.331069
C33	C	-0.292239	0.053667	-0.168148
C34	C	0.207761	0.553667	0.331852
O35	O	-0.322959	0.099276	-0.168990
O36	O	0.177041	0.599276	0.331010
C37	C	-0.232830	0.053669	-0.166548
C38	C	0.267170	0.553669	0.333452
C39	C	-0.203130	0.000044	-0.165741
C40	C	0.296870	0.500044	0.334259
C41	C	-0.203136	-0.107199	-0.165712
C42	C	0.296864	0.392801	0.334288
C43	C	-0.143729	-0.107196	-0.164124
C44	C	0.356271	0.392804	0.335876
C45	C	-0.114023	-0.053574	-0.163344
C46	C	0.385977	0.446426	0.336656
C47	C	-0.143724	0.000046	-0.164152
C48	C	0.356276	0.500046	0.335848
C49	C	-0.203122	0.107294	-0.165755
C50	C	0.296878	0.607294	0.334245
C51	C	-0.143709	0.107291	-0.164154
C52	C	0.356291	0.607291	0.335846
C53	C	-0.114009	0.053667	-0.163347
C54	C	0.385991	0.553667	0.336653
C55	C	-0.054611	0.053671	-0.161784
C56	C	0.445389	0.553671	0.338216
N57	N	-0.024908	0.000050	-0.160964
N58	N	0.475092	0.500050	0.339036
C59	C	-0.054614	-0.053573	-0.161744
C60	C	0.445386	0.446427	0.338256
C61	C	-0.417002	0.053660	-0.171505
C62	C	0.082998	0.553660	0.328495
C63	C	-0.476409	0.053660	-0.173114
C64	C	0.023591	0.553660	0.326886
C65	C	-0.476413	-0.053588	-0.173076
C66	C	0.023587	0.446412	0.326924
C67	C	-0.417004	-0.053587	-0.171476
C68	C	0.082996	0.446413	0.328524
C69	C	-0.387299	0.000039	-0.170685
C70	C	0.112701	0.500039	0.329315
C71	C	0.070143	-0.053564	-0.158410
C72	C	0.570143	0.446436	0.341590
C73	C	0.129555	-0.053557	-0.156826
C74	C	0.629555	0.446443	0.343174
C75	C	0.129553	0.053690	-0.156859
C76	C	0.629553	0.553690	0.343141
C77	C	0.070147	0.053684	-0.158448
C78	C	0.570147	0.553684	0.341552
C79	C	0.040443	0.000052	-0.159219
C80	C	0.540443	0.500052	0.340781
O81	O	-0.023835	0.099249	-0.161013
O82	O	0.476165	0.599249	0.338987
O83	O	-0.023888	-0.099174	-0.160885
O84	O	0.476112	0.400826	0.339115
N85	N	-0.673411	0.153305	-0.164992
N86	N	-0.173411	0.653305	0.335008
C87	C	-0.711807	0.561950	-0.078154
C88	C	-0.211807	1.061950	0.421846
C89	C	-0.711809	0.623869	-0.078145
C90	C	-0.211809	1.123869	0.421855
O91	O	-0.744431	0.655891	-0.004327
O92	O	-0.244431	1.155891	0.495673
N93	N	-0.673440	0.654842	-0.164911
N94	N	-0.173440	1.154842	0.335089
C95	C	-0.635061	0.623892	-0.251681
C96	C	-0.135061	1.123892	0.248319
O97	O	-0.602424	0.655922	-0.325480
O98	O	-0.102424	1.155922	0.174520
C99	C	-0.635055	0.561973	-0.251682
C100	C	-0.135055	1.061973	0.248318
C101	C	-0.673432	0.531003	-0.164920
C102	C	-0.173432	1.031003	0.335080
C103	C	-0.750179	0.530980	0.008602
C104	C	-0.250179	1.030980	0.508602
C105	C	-0.750177	0.469064	0.008592
C106	C	-0.250177	0.969064	0.508592
C107	C	-0.711802	0.438118	-0.078174
C108	C	-0.211802	0.938118	0.421826
C109	C	-0.673429	0.469088	-0.164930
C110	C	-0.173429	0.969088	0.335070
C111	C	-0.596674	0.531023	-0.338446
C112	C	-0.096674	1.031023	0.161554
C113	C	-0.596672	0.469100	-0.338439
C114	C	-0.096672	0.969100	0.161561
C115	C	-0.635048	0.438131	-0.251676
C116	C	-0.135048	0.938131	0.248324
C117	C	-0.635052	0.376226	-0.251707
C118	C	-0.135052	0.876226	0.248293
N119	N	-0.673422	0.345253	-0.164942
N120	N	-0.173422	0.845253	0.335058
C121	C	-0.711797	0.376200	-0.078175
C122	C	-0.211797	0.876200	0.421825
C123	C	-0.635074	0.753925	-0.251670
C124	C	-0.135074	1.253925	0.248330
C125	C	-0.635081	0.815843	-0.251676
C126	C	-0.135081	1.315843	0.248324
C127	C	-0.711829	0.815816	-0.078139
C128	C	-0.211829	1.315816	0.421861
C129	C	-0.711824	0.753898	-0.078140
C130	C	-0.211824	1.253898	0.421860
C131	C	-0.673443	0.722953	-0.164905
C132	C	-0.173443	1.222953	0.335095
C133	C	-0.711790	0.246172	-0.078204
C134	C	-0.211790	0.746172	0.421796
C135	C	-0.711786	0.184251	-0.078225
C136	C	-0.211786	0.684251	0.421775
C137	C	-0.635036	0.184283	-0.251758
C138	C	-0.135036	0.684283	0.248242
C139	C	-0.635042	0.246199	-0.251741
C140	C	-0.135042	0.746199	0.248259
C141	C	-0.673421	0.277142	-0.164954
C142	C	-0.173421	0.777142	0.335046
O143	O	-0.602446	0.344165	-0.325484
O144	O	-0.102446	0.844165	0.174516
O145	O	-0.744423	0.344162	-0.004378
O146	O	-0.244423	0.844162	0.495622
C147	C	0.222490	0.000058	-0.154334
C148	C	0.722490	0.500058	0.345666
C149	C	0.159262	0.000065	-0.156047
C150	C	0.659262	0.500065	0.343953
C151	C	-0.676644	0.000050	0.067171
C152	C	-0.176644	0.500050	0.567171
C153	C	-0.674948	0.000046	0.208062
C154	C	-0.174948	0.500046	0.708062
N155	N	-0.673454	0.846794	-0.164905
N156	N	-0.173454	1.346794	0.335095
C157	C	-0.670217	0.000048	-0.397062
C158	C	-0.170217	0.500048	0.102938
C159	C	-0.671914	0.000048	-0.537954
C160	C	-0.171914	0.500048	-0.037954
C161	C	-0.609938	-0.000179	0.389329
C162	C	-0.109938	0.499821	0.889329
C163	C	-0.611657	0.000042	0.242768
C164	C	-0.111657	0.500042	0.742768
C165	C	-0.705397	0.056222	0.270715
C166	C	-0.205397	0.556222	0.770715
C167	C	-0.703237	0.056269	0.417188
C168	C	-0.203237	0.556269	0.917188
C169	C	-0.704542	-0.055595	0.417783
C170	C	-0.204542	0.444405	0.917783
C171	C	-0.705125	-0.056337	0.270821
C172	C	-0.205125	0.443663	0.770821
H173	H	-0.119526	0.150961	-0.163521
H174	H	0.380474	0.650961	0.336479
Cl175	Cl	-0.776368	-0.061574	0.235790
Cl176	Cl	-0.276368	0.438426	0.735790
Cl177	Cl	-0.760069	0.714971	0.030939
Cl178	Cl	-0.260069	1.214971	0.530939
Cl179	Cl	-0.379664	0.121083	-0.170530
Cl180	Cl	0.120336	0.621083	0.329470
H181	H	-0.682846	-0.097895	0.229235
H182	H	-0.182846	0.402105	0.729235
H183	H	-0.751876	0.058314	0.249905
H184	H	-0.251876	0.558314	0.749905
H185	H	-0.119553	-0.150863	-0.163461
H186	H	0.380447	0.349137	0.336539
H187	H	-0.227294	0.150961	-0.166408
H188	H	0.272706	0.650961	0.333592
H189	H	-0.565425	0.556230	-0.409094
H190	H	-0.065425	1.056230	0.090906
Cl191	Cl	-0.571344	-0.062377	0.432218
Cl192	Cl	-0.071344	0.437623	0.932218
H193	H	-0.500610	-0.097250	-0.173710
H194	H	-0.000610	0.402750	0.326290
Cl195	Cl	-0.775120	-0.056175	0.493044
Cl196	Cl	-0.275120	0.443825	0.993044
H197	H	-0.565416	0.443908	-0.409092
H198	H	-0.065416	0.943908	0.090908
Cl199	Cl	0.032809	0.121098	-0.159479
Cl200	Cl	0.532809	0.621098	0.340521
H201	H	0.153751	0.097348	-0.156229
H202	H	0.653751	0.597348	0.343771
H203	H	-0.603798	0.271414	-0.322403
H204	H	-0.103798	0.771414	0.177597
H205	H	-0.743038	0.159038	-0.007573
H206	H	-0.243038	0.659038	0.492427
Cl207	Cl	0.166889	-0.120976	-0.155815
Cl208	Cl	0.666889	0.379024	0.344185
H209	H	-0.748754	0.058821	0.466668
H210	H	-0.248754	0.558821	0.966668
Cl211	Cl	-0.586795	0.145369	-0.360832
Cl212	Cl	-0.086795	0.645369	0.139168
Cl213	Cl	-0.672921	-0.121332	0.465447
Cl214	Cl	-0.172921	0.378668	0.965447
Cl215	Cl	0.032811	-0.120988	-0.159382
Cl216	Cl	0.532811	0.379012	0.340618
Cl217	Cl	-0.574664	-0.062130	0.175775
Cl218	Cl	-0.074664	0.437870	0.675775
Cl219	Cl	-0.571376	0.061480	0.435210
Cl220	Cl	-0.071376	0.561480	0.935210
H221	H	-0.743041	0.271359	-0.007532
H222	H	-0.243041	0.771359	0.492468
Cl223	Cl	-0.240470	-0.174619	-0.166692
Cl224	Cl	0.259530	0.325381	0.333308
Cl225	Cl	-0.574385	0.062312	0.177032
Cl226	Cl	-0.074385	0.562312	0.677032
Cl227	Cl	-0.672722	0.120762	0.203847
Cl228	Cl	-0.172722	0.620762	0.703847
Cl229	Cl	-0.513738	0.121076	-0.174155
Cl230	Cl	-0.013738	0.621076	0.325845
H231	H	-0.392826	-0.097253	-0.170819
H232	H	0.107174	0.402747	0.329181
Cl233	Cl	-0.798419	0.430138	0.117677
Cl234	Cl	-0.298419	0.930138	0.617677
H235	H	-0.680721	0.098259	0.444626
H236	H	-0.180721	0.598259	0.944626
H237	H	-0.781429	0.556171	0.079264
H238	H	-0.281429	1.056171	0.579264
H239	H	-0.743075	0.841024	-0.007487
H240	H	-0.243075	1.341024	0.492513
Cl241	Cl	-0.586842	0.854769	-0.360770
Cl242	Cl	-0.086842	1.354769	0.139230
H243	H	-0.603821	0.728733	-0.322335
H244	H	-0.103821	1.228733	0.177665
