data_functionalizedCrystal
_audit_creation_method	'MofGen! by Chris Wilmer'
_symmetry_space_group_name_H-M	'P1'
_symmetry_Int_Tables_number	1
_symmetry_cell_setting	triclinic
loop_
_symmetry_equiv_pos_as_xyz
  x,y,z
_cell_length_a	15.944551
_cell_length_b	10.268362
_cell_length_c	11.792254
_cell_angle_alpha	90.001515
_cell_angle_beta	83.848668
_cell_angle_gamma	90.000122
loop_
_atom_site_label
_atom_site_type_symbol
_atom_site_fract_x
_atom_site_fract_y
_atom_site_fract_z
O1	O	1.115190	0.108165	0.146373
O2	O	0.870723	0.108197	0.164420
O3	O	0.998883	0.108171	-0.009822
O4	O	0.987029	0.108191	0.320615
O5	O	0.998871	-0.108429	-0.009816
O6	O	0.870710	-0.108403	0.164426
O7	O	1.115178	-0.108436	0.146379
Cu8	Cu	0.992943	-0.128197	0.155403
Cu9	Cu	0.992958	0.127959	0.155396
O10	O	0.987017	-0.108409	0.320621
C11	C	0.839419	-0.000099	0.163674
C12	C	0.746163	-0.000087	0.161428
C13	C	0.998131	-0.000129	-0.052103
C14	C	0.995895	-0.000127	-0.178098
N15	N	0.992939	-0.308363	0.155407
C16	C	0.530791	-0.000119	0.048056
C17	C	0.470016	0.106680	0.100699
C18	C	0.575418	-0.000102	0.157364
C19	C	0.470026	-0.106871	0.100731
C20	C	0.410488	-0.000123	0.153431
C21	C	0.515872	0.106785	0.210038
C22	C	0.515889	-0.106863	0.210054
C23	C	0.455132	-0.000038	0.262777
C24	C	0.670431	-0.000089	0.159627
C25	C	0.315477	-0.000127	0.151177
C26	C	1.146481	-0.000137	0.147125
C27	C	1.239738	-0.000140	0.149371
C28	C	0.992945	-0.426205	0.155408
C29	C	0.992955	-0.574043	0.155398
N30	N	0.992968	0.308124	0.155383
C31	C	0.994079	-0.000122	-0.280420
C32	C	0.991809	-0.000110	-0.408787
C33	C	0.987770	-0.000107	0.362903
C34	C	0.990005	-0.000100	0.488897
H35	H	0.563711	0.000008	-0.042661
C36	C	0.543372	-0.228831	0.272458
H37	H	0.527850	-0.304646	0.233512
H38	H	0.516421	-0.229595	0.348308
H39	H	0.602812	-0.227516	0.274027
C40	C	0.442563	0.228640	0.038242
H41	H	0.468716	0.228508	-0.038035
H42	H	0.459020	0.304483	0.076335
H43	H	0.383012	0.228152	0.037873
C44	C	0.410886	0.000040	0.385446
H45	H	0.377000	-0.075857	0.397252
H46	H	0.376284	0.075218	0.396789
H47	H	0.452084	0.000788	0.437979
H48	H	0.536075	0.197173	0.256234
C49	C	0.442602	-0.228844	0.038259
H50	H	0.468772	-0.228707	-0.038010
H51	H	0.383056	-0.228395	0.037884
H52	H	0.459080	-0.304681	0.076349
