data_functionalizedCrystal
_audit_creation_method	'MofGen! by Chris Wilmer'
_symmetry_space_group_name_H-M	'P1'
_symmetry_Int_Tables_number	1
_symmetry_cell_setting	triclinic
loop_
_symmetry_equiv_pos_as_xyz
  x,y,z
_cell_length_a	8.634740
_cell_length_b	7.088929
_cell_length_c	8.559649
_cell_angle_alpha	84.654717
_cell_angle_beta	94.825514
_cell_angle_gamma	82.825047
loop_
_atom_site_label
_atom_site_type_symbol
_atom_site_fract_x
_atom_site_fract_y
_atom_site_fract_z
O1	O	1.968016	0.158976	-0.525367
O2	O	1.524144	0.158981	-0.482465
O3	O	1.785186	0.158970	-0.277334
O4	O	1.706973	0.158986	-0.730499
O5	O	1.820080	-0.159006	-0.249848
O6	O	1.559038	-0.158996	-0.454979
O7	O	2.002910	-0.159001	-0.497881
Cu8	Cu	1.784160	-0.188032	-0.473920
Cu9	Cu	1.742894	0.188012	-0.506426
O10	O	1.741868	-0.158990	-0.703012
C11	C	1.485292	-0.000007	-0.459003
C12	C	1.317540	-0.000005	-0.430025
N13	N	1.813196	-0.452521	-0.451058
C14	C	2.041762	-0.000009	-0.521343
C15	C	2.209512	0.000002	-0.550322
C16	C	1.808560	-0.000016	-0.204974
C17	C	1.826202	-0.000010	-0.030310
N18	N	1.713871	0.452501	-0.529278
C19	C	1.718494	-0.000003	0.224627
C20	C	1.700851	-0.000006	0.049964
H21	H	1.245367	-0.000007	-0.675490
Cl22	Cl	1.972150	-0.578588	-0.325921
H23	H	1.580030	-0.000019	-0.014940
Cl24	Cl	1.554938	-0.421440	-0.654427
H25	H	1.947018	-0.000019	0.034587
H26	H	1.281687	0.000041	-0.304869
