data_functionalizedCrystal
_audit_creation_method	'MofGen! by Chris Wilmer'
_symmetry_space_group_name_H-M	'P1'
_symmetry_Int_Tables_number	1
_symmetry_cell_setting	triclinic
loop_
_symmetry_equiv_pos_as_xyz
  x,y,z
_cell_length_a	26.374263
_cell_length_b	26.373608
_cell_length_c	26.370205
_cell_angle_alpha	60.005297
_cell_angle_beta	60.010839
_cell_angle_gamma	59.993700
loop_
_atom_site_label
_atom_site_type_symbol
_atom_site_fract_x
_atom_site_fract_y
_atom_site_fract_z
O1	O	0.070152	-0.740800	0.619517
O2	O	0.570152	-0.240800	1.119517
O3	O	0.026377	-0.576764	0.499159
O4	O	0.526377	-0.076764	0.999159
O5	O	0.130245	-0.680560	0.499088
O6	O	0.630245	-0.180560	0.999088
O7	O	-0.033715	-0.637003	0.619589
O8	O	0.466285	-0.137003	1.119589
O9	O	0.164701	-0.646107	0.533470
O10	O	0.664701	-0.146107	1.033470
O11	O	0.060833	-0.542310	0.533541
O12	O	0.560833	-0.042310	1.033541
O13	O	0.104608	-0.706346	0.653899
O14	O	0.604608	-0.206346	1.153899
Cu15	Cu	0.085867	-0.621182	0.596859
Cu16	Cu	0.585867	-0.121182	1.096859
Cu17	Cu	0.045119	-0.661927	0.556199
Cu18	Cu	0.545119	-0.161927	1.056199
O19	O	0.000741	-0.602549	0.653971
O20	O	0.500741	-0.102549	1.153971
N21	N	0.114528	-0.592529	0.625461
N22	N	0.614528	-0.092529	1.125461
N23	N	0.016463	-0.690587	0.527598
N24	N	0.516463	-0.190587	1.027598
C25	C	0.181428	-0.355400	0.692330
C26	C	0.681428	0.144600	1.192330
C27	C	0.181530	-0.525690	0.862573
C28	C	0.681530	-0.025690	1.362573
C29	C	0.181440	-0.525667	0.692313
C30	C	0.681440	-0.025667	1.192313
C31	C	0.351736	-0.525673	0.692271
C32	C	0.851736	-0.025673	1.192271
C33	C	0.200174	-0.411588	0.711047
C34	C	0.700174	0.088412	1.211047
C35	C	0.200232	-0.506954	0.806384
C36	C	0.700232	-0.006954	1.306384
C37	C	0.295546	-0.506943	0.711016
C38	C	0.795546	-0.006943	1.211016
C39	C	0.200182	-0.506940	0.711037
C40	C	0.700182	-0.006940	1.211037
C41	C	0.157567	-0.283881	0.668507
C42	C	0.657567	0.216119	1.168507
C43	C	0.157587	-0.549500	0.668479
C44	C	0.657587	-0.049500	1.168479
C45	C	0.224035	-0.483107	0.734871
C46	C	0.724035	0.016893	1.234871
C47	C	0.455739	-0.507754	0.637520
C48	C	0.955739	-0.007754	1.137520
C49	C	0.520749	-0.529425	0.615835
C50	C	1.020749	-0.029425	1.115835
C51	C	0.520768	-0.634611	0.655947
C52	C	1.020768	-0.134611	1.155947
C53	C	0.455759	-0.612939	0.677633
C54	C	0.955759	-0.112939	1.177633
C55	C	0.173240	-0.251367	0.604595
C56	C	0.673240	0.248633	1.104595
C57	C	0.151546	-0.186351	0.582941
C58	C	0.651546	0.313649	1.082941
C59	C	0.098512	-0.186369	0.689113
C60	C	0.598512	0.313631	1.189113
C61	C	0.120206	-0.251385	0.710768
C62	C	0.620206	0.248615	1.210768
C63	C	0.093669	-0.533798	0.684205
C64	C	0.593669	-0.033798	1.184205
C65	C	0.071992	-0.555464	0.662532
C66	C	0.571992	-0.055464	1.162532
C67	C	0.178144	-0.608536	0.609422
C68	C	0.678144	-0.108536	1.109422
C69	C	0.199825	-0.586869	0.631088
C70	C	0.699825	-0.086869	1.131088
C71	C	0.093821	-0.533842	0.966616
C72	C	0.593821	-0.033842	1.466616
C73	C	0.072187	-0.555526	1.031630
C74	C	0.572187	-0.055526	1.531630
C75	C	0.178370	-0.608608	1.031591
C76	C	0.678370	-0.108608	1.531591
C77	C	0.200004	-0.586926	0.966576
C78	C	0.700004	-0.086926	1.466576
C79	C	0.157728	-0.549541	0.934090
C80	C	0.657728	-0.049541	1.434090
C81	C	0.423247	-0.549509	0.668416
C82	C	0.923247	-0.049509	1.168416
C83	C	-0.097522	-0.709158	0.508557
C84	C	0.402478	-0.209158	1.008557
C85	C	-0.002050	-0.709295	0.413344
C86	C	0.497950	-0.209295	0.913344
C87	C	-0.002241	-0.804604	0.508735
C88	C	0.497759	-0.304604	1.008735
C89	C	-0.002225	-0.709288	0.508793
C90	C	0.497775	-0.209288	1.008793
C91	C	-0.026009	-0.733087	0.484858
C92	C	0.473991	-0.233087	0.984858
N93	N	0.552340	-0.592538	0.625346
N94	N	1.052340	-0.092538	1.125346
O95	O	0.750867	-0.598274	0.477076
O96	O	1.250867	-0.098274	0.977076
O97	O	0.751048	-0.718989	0.640960
O98	O	1.251048	-0.218989	1.140960
O99	O	0.750981	-0.718715	0.537020
O100	O	1.250981	-0.218715	1.037020
O101	O	0.750934	-0.598547	0.581017
O102	O	1.250934	-0.098547	1.081017
O103	O	0.647701	-0.684348	0.571512
O104	O	1.147701	-0.184348	1.071512
O105	O	0.647768	-0.684622	0.675452
O106	O	1.147768	-0.184622	1.175452
O107	O	0.647587	-0.563907	0.511569
O108	O	1.147587	-0.063907	1.011569
Cu109	Cu	0.638247	-0.621127	0.596660
Cu110	Cu	1.138247	-0.121127	1.096660
Cu111	Cu	0.760388	-0.661769	0.555869
Cu112	Cu	1.260388	-0.161769	1.055869
O113	O	0.647654	-0.564181	0.615509
O114	O	1.147654	-0.064181	1.115509
N115	N	0.846295	-0.690358	0.527176
N116	N	1.346295	-0.190358	1.027176
N117	N	0.114503	-0.154778	0.625499
N118	N	0.614503	0.345222	1.125499
O119	O	-0.033701	0.043855	0.619632
O120	O	0.466299	0.543855	1.119632
O121	O	0.130190	0.043858	0.498933
O122	O	0.630190	0.543858	0.998933
O123	O	0.026233	0.043841	0.499224
O124	O	0.526233	0.543841	0.999224
O125	O	0.070257	0.043872	0.619341
O126	O	0.570257	0.543872	1.119341
O127	O	0.060690	-0.059448	0.533654
O128	O	0.560690	0.440552	1.033654
O129	O	0.164647	-0.059431	0.533363
O130	O	0.664647	0.440569	1.033363
O131	O	0.000756	-0.059434	0.654062
O132	O	0.500756	0.440566	1.154062
Cu133	Cu	0.085848	-0.068863	0.596857
Cu134	Cu	0.585848	0.431137	1.096857
Cu135	Cu	0.045099	0.053287	0.556138
Cu136	Cu	0.545099	0.553287	1.056138
O137	O	0.104714	-0.059417	0.653771
O138	O	0.604714	0.440583	1.153771
N139	N	0.016435	0.139202	0.527497
N140	N	0.516435	0.639202	1.027497
N141	N	0.114760	-0.592585	1.063190
N142	N	0.614760	-0.092585	1.563190
O143	O	0.108896	-0.740779	1.261808
O144	O	0.608896	-0.240779	1.761808
O145	O	-0.011787	-0.576838	1.261822
O146	O	0.488213	-0.076838	1.761822
O147	O	-0.011509	-0.680779	1.261780
O148	O	0.488491	-0.180779	1.761780
O149	O	0.108618	-0.636838	1.261850
O150	O	0.608618	-0.136838	1.761850
O151	O	0.022916	-0.646341	1.158496
O152	O	0.522916	-0.146341	1.658496
O153	O	0.022638	-0.542399	1.158538
O154	O	0.522638	-0.042399	1.658538
O155	O	0.143321	-0.706341	1.158524
O156	O	0.643321	-0.206341	1.658524
Cu157	Cu	0.086123	-0.621225	1.149100
Cu158	Cu	0.586123	-0.121225	1.649100
Cu159	Cu	0.045411	-0.661953	1.271246
Cu160	Cu	0.545411	-0.161953	1.771246
O161	O	0.143044	-0.602399	1.158566
O162	O	0.643044	-0.102399	1.658566
N163	N	0.016774	-0.690600	1.357156
N164	N	0.516774	-0.190600	1.857156
C165	C	0.039504	-0.538867	0.499769
C166	C	0.539504	-0.038867	0.999769
C167	C	0.168130	-0.667407	0.499680
C168	C	0.668130	-0.167407	0.999680
C169	C	0.091482	-0.744243	0.653289
C170	C	0.591482	-0.244243	1.153289
C171	C	-0.037145	-0.615703	0.653378
C172	C	0.462855	-0.115703	1.153378
C173	C	0.699429	-0.718429	0.678853
C174	C	1.199429	-0.218429	1.178853
C175	C	0.699348	-0.718091	0.550135
C176	C	1.199348	-0.218091	1.050135
C177	C	0.699202	-0.564465	0.473677
C178	C	1.199202	-0.064465	0.973677
C179	C	0.699287	-0.564805	0.602393
C180	C	1.199287	-0.064805	1.102393
C181	C	0.168023	-0.007659	0.499484
C182	C	0.668023	0.492341	0.999484
C183	C	0.039327	-0.007807	0.499887
C184	C	0.539327	0.492193	0.999887
C185	C	-0.037119	-0.007789	0.653468
C186	C	0.462881	0.492211	1.153468
C187	C	0.091620	-0.007770	0.653109
C188	C	0.591620	0.492230	1.153109
C189	C	-0.011194	-0.538964	1.210181
C190	C	0.488806	-0.038964	1.710181
C191	C	-0.010843	-0.667676	1.210109
C192	C	0.489157	-0.167676	1.710109
C193	C	0.142729	-0.744214	1.210165
C194	C	0.642729	-0.244214	1.710165
C195	C	0.142386	-0.615494	1.210214
C196	C	0.642386	-0.115494	1.710214
H197	H	0.020147	-0.542732	1.058106
H198	H	0.520147	-0.042732	1.558106
C199	C	-0.061171	-0.680065	1.209926
C200	C	0.438829	-0.180065	1.709926
C201	C	-0.077694	-0.637733	1.156773
C202	C	0.422306	-0.137733	1.656773
C203	C	-0.124060	-0.649122	1.156589
C204	C	0.375940	-0.149122	1.656589
H205	H	-0.046060	-0.721157	1.209872
H206	H	0.453940	-0.221157	1.709872
H207	H	-0.096533	-0.675402	1.245909
H208	H	0.403467	-0.175402	1.745909
H209	H	-0.042338	-0.642402	1.120800
H210	H	0.457662	-0.142402	1.620800
H211	H	-0.092816	-0.596638	1.156816
H212	H	0.407184	-0.096638	1.656816
H213	H	-0.159422	-0.644458	1.192572
H214	H	0.340578	-0.144458	1.692572
H215	H	-0.108944	-0.690214	1.156537
H216	H	0.391056	-0.190214	1.656537
H217	H	-0.135280	-0.620398	1.120528
H218	H	0.364720	-0.120398	1.620528
C219	C	0.103823	-0.807076	0.703720
C220	C	0.603823	-0.307076	1.203720
C221	C	0.061475	-0.834406	0.720291
C222	C	0.561475	-0.334406	1.220291
C223	C	0.072819	-0.892284	0.766751
C224	C	0.572819	-0.392284	1.266751
H225	H	0.144906	-0.833160	0.688676
H226	H	0.644906	-0.333160	1.188676
H227	H	0.099151	-0.801711	0.739046
H228	H	0.599151	-0.301711	1.239046
H229	H	0.066152	-0.839774	0.684972
H230	H	0.566152	-0.339774	1.184972
H231	H	0.020388	-0.808339	0.735346
H232	H	0.520388	-0.308339	1.235346
H233	H	0.068147	-0.886919	0.802078
H234	H	0.568147	-0.386919	1.302078
H235	H	0.113903	-0.918362	0.751703
H236	H	0.613903	-0.418362	1.251703
H237	H	0.044084	-0.910831	0.778005
H238	H	0.544084	-0.410831	1.278005
H239	H	0.180620	-0.791296	1.210154
H240	H	0.680620	-0.291296	1.710154
H241	H	-0.084239	-0.606419	0.691217
H242	H	0.415761	-0.106419	1.191217
H243	H	0.030155	-0.491745	0.461969
H244	H	0.530155	0.008255	0.961969
C245	C	0.192800	-0.603017	1.210134
C246	C	0.692800	-0.103017	1.710134
C247	C	0.244773	-0.609904	1.157006
C248	C	0.744773	-0.109904	1.657006
C249	C	0.291230	-0.598423	1.156916
C250	C	0.791230	-0.098423	1.656916
H251	H	0.177714	-0.561900	1.210111
H252	H	0.677714	-0.061900	1.710111
H253	H	0.204153	-0.631686	1.246134
H254	H	0.704153	-0.131686	1.746134
H255	H	0.233421	-0.581236	1.121016
H256	H	0.733421	-0.081236	1.621016
H257	H	0.259877	-0.651018	1.157019
H258	H	0.759877	-0.151018	1.657019
H259	H	0.302583	-0.627092	1.192915
H260	H	0.802583	-0.127092	1.692915
H261	H	0.276138	-0.557305	1.156893
H262	H	0.776138	-0.057305	1.656893
H263	H	0.326501	-0.603100	1.120872
H264	H	0.826501	-0.103100	1.620872
C265	C	0.047820	-0.493282	0.931461
C266	C	0.547820	0.006718	1.431461
C267	C	-0.012777	-0.484187	0.973864
C268	C	0.487223	0.015813	1.473864
C269	C	-0.055168	-0.446836	0.941502
C270	C	0.444832	0.053164	1.441502
H271	H	0.053969	-0.454278	0.906102
H272	H	0.553969	0.045722	1.406102
H273	H	0.054015	-0.513127	0.906111
H274	H	0.554015	-0.013127	1.406111
H275	H	-0.018970	-0.464341	0.999203
H276	H	0.481030	0.035659	1.499203
H277	H	-0.018946	-0.523179	0.999225
H278	H	0.481054	-0.023179	1.499225
H279	H	-0.048973	-0.466681	0.916151
H280	H	0.451027	0.033319	1.416151
H281	H	-0.049014	-0.407836	0.916143
H282	H	0.450986	0.092164	1.416143
H283	H	-0.096288	-0.440665	0.970266
H284	H	0.403712	0.059335	1.470266
C285	C	-0.061698	-0.476153	1.210055
C286	C	0.438302	0.023847	1.710055
C287	C	-0.078196	-0.448893	1.156898
C288	C	0.421804	0.051107	1.656898
C289	C	-0.124711	-0.391028	1.156756
C290	C	0.375289	0.108972	1.656756
H291	H	-0.097039	-0.481504	1.246022
H292	H	0.402961	0.018496	1.746022
H293	H	-0.046711	-0.450033	1.210037
H294	H	0.453289	0.049967	1.710037
H295	H	-0.093184	-0.475007	1.156921
H296	H	0.406816	0.024993	1.656921
H297	H	-0.042869	-0.443526	1.120922
H298	H	0.457131	0.056474	1.620922
H299	H	-0.109724	-0.364908	1.156739
H300	H	0.390276	0.135092	1.656739
H301	H	-0.160048	-0.396385	1.192726
H302	H	0.339952	0.103615	1.692726
H303	H	-0.135907	-0.372522	1.120687
H304	H	0.364093	0.127478	1.620687
C305	C	-0.099826	-0.007912	0.704059
C306	C	0.400174	0.492088	1.204059
C307	C	-0.091625	-0.061052	0.755992
C308	C	0.408375	0.438948	1.255992
C309	C	-0.149378	-0.061190	0.802603
C310	C	0.350622	0.438810	1.302603
H311	H	-0.118456	0.028070	0.715414
H312	H	0.381544	0.528070	1.215414
H313	H	-0.125934	-0.007952	0.689096
H314	H	0.374066	0.492048	1.189096
H315	H	-0.065526	-0.061007	0.770954
H316	H	0.434474	0.438993	1.270954
H317	H	-0.073004	-0.097043	0.744657
H318	H	0.426996	0.402957	1.244657
H319	H	-0.175486	-0.061229	0.787639
H320	H	0.324514	0.438771	1.287639
H321	H	-0.168003	-0.025205	0.813952
H322	H	0.331997	0.474795	1.313952
H323	H	-0.143821	-0.097247	0.837842
H324	H	0.356179	0.402753	1.337842
C325	C	0.224369	-0.649214	1.066749
C326	C	0.724369	-0.149214	1.566749
C327	C	0.284967	-0.658335	1.024349
C328	C	0.784967	-0.158335	1.524349
C329	C	0.327356	-0.695751	1.056714
C330	C	0.827356	-0.195751	1.556714
H331	H	0.218219	-0.629425	1.092120
H332	H	0.718219	-0.129425	1.592120
H333	H	0.218172	-0.688206	1.092088
H334	H	0.718172	-0.188206	1.592088
H335	H	0.291161	-0.619350	0.999021
H336	H	0.791161	-0.119350	1.499021
H337	H	0.291137	-0.678131	0.998977
H338	H	0.791137	-0.178131	1.498977
H339	H	0.321159	-0.734743	1.082053
H340	H	0.821159	-0.234743	1.582053
H341	H	0.321200	-0.675958	1.082084
H342	H	0.821200	-0.175958	1.582084
H343	H	0.368476	-0.701949	1.027951
H344	H	0.868476	-0.201949	1.527951
H345	H	0.252044	-0.599714	0.940097
H346	H	0.752044	-0.099714	1.440097
C347	C	0.104258	-0.007898	0.703453
C348	C	0.604258	0.492102	1.203453
C349	C	0.154202	-0.061045	0.717580
C350	C	0.654202	0.438955	1.217580
C351	C	0.165855	-0.061192	0.763963
C352	C	0.665855	0.438808	1.263963
H353	H	0.114150	0.028079	0.689172
H354	H	0.614150	0.528079	1.189172
H355	H	0.068391	-0.007934	0.739623
H356	H	0.568391	0.492066	1.239623
H357	H	0.190061	-0.061004	0.681418
H358	H	0.690061	0.438996	1.181418
H359	H	0.144323	-0.097031	0.731871
H360	H	0.644323	0.402969	1.231871
H361	H	0.129988	-0.061228	0.800132
H362	H	0.629988	0.438772	1.300132
H363	H	0.175744	-0.025212	0.749677
H364	H	0.675744	0.474788	1.249677
H365	H	0.199739	-0.097254	0.773557
H366	H	0.699739	0.402746	1.273557
H367	H	0.059274	-0.503369	0.714648
H368	H	0.559274	-0.003369	1.214648
C369	C	0.230971	-0.679892	0.449309
C370	C	0.730971	-0.179892	0.949309
C371	C	0.269247	-0.740496	0.471667
C372	C	0.769247	-0.240496	0.971667
C373	C	0.327143	-0.752017	0.425286
C374	C	0.827143	-0.252017	0.925286
H375	H	0.225637	-0.675272	0.413993
H376	H	0.725637	-0.175272	0.913993
H377	H	0.249621	-0.651221	0.438003
H378	H	0.749621	-0.151221	0.938003
H379	H	0.250602	-0.769159	0.482965
H380	H	0.750602	-0.269159	0.982965
H381	H	0.274600	-0.745131	0.506977
H382	H	0.774600	-0.245131	1.006977
H383	H	0.345793	-0.723345	0.413980
H384	H	0.845793	-0.223345	0.913980
H385	H	0.321802	-0.747393	0.389974
H386	H	0.821802	-0.247393	0.889974
H387	H	0.353122	-0.793134	0.440452
H388	H	0.853122	-0.293134	0.940452
C389	C	0.699365	-0.514558	0.614996
C390	C	1.199365	-0.014558	1.114996
C391	C	0.752518	-0.535839	0.629487
C392	C	1.252518	-0.035839	1.129487
C393	C	0.752607	-0.489572	0.641108
C394	C	1.252607	0.010428	1.141108
H395	H	0.699352	-0.478379	0.579145
H396	H	1.199352	0.021621	1.079145
H397	H	0.663385	-0.504923	0.648912
H398	H	1.163385	-0.004923	1.148912
H399	H	0.788489	-0.545465	0.595573
H400	H	1.288489	-0.045465	1.095573
H401	H	0.752542	-0.572011	0.665341
H402	H	1.252542	-0.072011	1.165341
H403	H	0.716626	-0.479937	0.675025
H404	H	1.216626	0.020063	1.175025
H405	H	0.752592	-0.453396	0.605255
H406	H	1.252592	0.046604	1.105255
H407	H	0.788667	-0.504006	0.650947
H408	H	1.288667	-0.004006	1.150947
H409	H	0.699142	-0.526565	0.426612
H410	H	1.199142	-0.026565	0.926612
C411	C	0.002571	-0.538383	0.679701
C412	C	0.502571	-0.038383	1.179701
C413	C	-0.029781	-0.501041	0.717106
C414	C	0.470219	-0.001041	1.217106
C415	C	-0.093731	-0.485304	0.732942
C416	C	0.406269	0.014696	1.232942
H417	H	-0.008200	-0.516285	0.643001
H418	H	0.491800	-0.016285	1.143001
H419	H	-0.008094	-0.575142	0.701783
H420	H	0.491906	-0.075142	1.201783
H421	H	-0.019121	-0.464289	0.695024
H422	H	0.480879	0.035711	1.195024
H423	H	-0.019028	-0.523127	0.753814
H424	H	0.480972	-0.023127	1.253814
H425	H	-0.104396	-0.522062	0.755024
H426	H	0.395604	-0.022062	1.255024
H427	H	-0.104496	-0.463207	0.696239
H428	H	0.395504	0.036793	1.196239
H429	H	-0.115690	-0.459970	0.758328
H430	H	0.384310	0.040030	1.258328
H431	H	0.699474	-0.756325	0.725922
H432	H	1.199474	-0.256325	1.225922
H433	H	0.214995	-0.007372	0.461496
H434	H	0.714995	0.492628	0.961496
C435	C	0.026664	-0.007871	0.449665
C436	C	0.526664	0.492129	0.949665
C437	C	-0.033956	-0.007901	0.472196
C438	C	0.466044	0.492099	0.972196
C439	C	-0.045636	-0.007978	0.425956
C440	C	0.454364	0.492022	0.925956
H441	H	0.031231	0.028129	0.414309
H442	H	0.531231	0.528129	0.914309
H443	H	0.055291	-0.043913	0.438379
H444	H	0.555291	0.456087	0.938379
H445	H	-0.062575	0.028138	0.483473
H446	H	0.437425	0.528138	0.983473
H447	H	-0.038537	-0.043898	0.507547
H448	H	0.461463	0.456102	1.007547
H449	H	-0.017009	-0.044021	0.414670
H450	H	0.482991	0.455979	0.914670
H451	H	-0.041066	0.028023	0.390602
H452	H	0.458934	0.528023	0.890602
H453	H	-0.086765	-0.008004	0.441238
H454	H	0.413235	0.491996	0.941238
C455	C	0.699272	-0.768454	0.537704
C456	C	1.199272	-0.268454	1.037704
C457	C	0.646181	-0.785052	0.580033
C458	C	1.146181	-0.285052	1.080033
C459	C	0.646094	-0.831450	0.568606
C460	C	1.146094	-0.331450	1.068606
H461	H	0.699204	-0.753343	0.496616
H462	H	1.199204	-0.253343	0.996616
H463	H	0.735294	-0.803786	0.542338
H464	H	1.235294	-0.303786	1.042338
H465	H	0.610168	-0.749727	0.575394
H466	H	1.110168	-0.249727	1.075394
H467	H	0.646237	-0.800174	0.621125
H468	H	1.146237	-0.300174	1.121125
H469	H	0.682116	-0.866783	0.573240
H470	H	1.182116	-0.366783	1.073240
H471	H	0.646028	-0.816335	0.527517
H472	H	1.146028	-0.316335	1.027517
H473	H	0.610075	-0.842722	0.597328
H474	H	1.110075	-0.342722	1.097328
H475	H	0.251872	-0.599651	0.618278
H476	H	0.751872	-0.099651	1.118278
C477	C	0.224040	-0.649003	0.568724
C478	C	0.724040	-0.149003	1.068724
C479	C	0.261298	-0.616339	0.514591
C480	C	0.761298	-0.116339	1.014591
C481	C	0.303578	-0.653591	0.477081
C482	C	0.803578	-0.153591	0.977081
H483	H	0.249480	-0.685777	0.590689
H484	H	0.749480	-0.185777	1.090689
H485	H	0.202002	-0.659648	0.558024
H486	H	0.702002	-0.159648	1.058024
H487	H	0.283334	-0.605703	0.525292
H488	H	0.783334	-0.105703	1.025292
H489	H	0.235876	-0.579568	0.492610
H490	H	0.735876	-0.079568	0.992610
H491	H	0.281540	-0.664236	0.466380
H492	H	0.781540	-0.164236	0.966380
H493	H	0.329013	-0.690363	0.499051
H494	H	0.829013	-0.190363	0.999051
H495	H	0.328858	-0.631432	0.440345
H496	H	0.828858	-0.131432	0.940345
C497	C	0.420596	-0.658371	0.711136
C498	C	0.920596	-0.158371	1.211136
C499	C	0.462990	-0.718554	0.714546
C500	C	0.962990	-0.218554	1.214546
C501	C	0.430621	-0.760423	0.745397
C502	C	0.930621	-0.260423	1.245397
H503	H	0.395250	-0.656796	0.751892
H504	H	0.895250	-0.156796	1.251892
H505	H	0.395234	-0.647528	0.688987
H506	H	0.895234	-0.147528	1.188987
H507	H	0.488342	-0.729394	0.736696
H508	H	0.988342	-0.229394	1.236696
H509	H	0.488338	-0.720149	0.673800
H510	H	0.988338	-0.220149	1.173800
H511	H	0.405259	-0.749580	0.723248
H512	H	0.905259	-0.249580	1.223248
H513	H	0.405276	-0.758843	0.786150
H514	H	0.905276	-0.258843	1.286150
H515	H	0.459380	-0.801261	0.747710
H516	H	0.959380	-0.301261	1.247710
H517	H	0.547206	-0.495421	0.590679
H518	H	1.047206	0.004579	1.090679
C519	C	0.420516	-0.438857	0.627389
C520	C	0.920516	0.061143	1.127389
C521	C	0.436317	-0.405598	0.563634
C522	C	0.936317	0.094402	1.063634
C523	C	0.403891	-0.342129	0.554276
C524	C	0.903891	0.157871	1.054276
H525	H	0.377135	-0.431837	0.644670
H526	H	0.877135	0.068163	1.144670
H527	H	0.431195	-0.425380	0.647001
H528	H	0.931195	0.074620	1.147001
H529	H	0.425634	-0.419069	0.544030
H530	H	0.925634	0.080931	1.044030
H531	H	0.479692	-0.412598	0.546340
H532	H	0.979692	0.087402	1.046340
H533	H	0.414569	-0.328652	0.573888
H534	H	0.914569	0.171348	1.073888
H535	H	0.360511	-0.335116	0.571560
H536	H	0.860511	0.164884	1.071560
H537	H	0.414611	-0.319554	0.511019
H538	H	0.914611	0.180446	1.011019
C539	C	0.213768	-0.286535	0.558613
C540	C	0.713768	0.213465	1.058613
C541	C	0.222831	-0.244142	0.498004
C542	C	0.722831	0.255858	0.998004
C543	C	0.260156	-0.276519	0.455631
C544	C	0.760156	0.223481	0.955631
H545	H	0.252779	-0.311897	0.564761
H546	H	0.752779	0.188103	1.064761
H547	H	0.193920	-0.311885	0.564828
H548	H	0.693920	0.188115	1.064828
H549	H	0.242680	-0.218802	0.491791
H550	H	0.742680	0.281198	0.991791
H551	H	0.183832	-0.218778	0.491836
H552	H	0.683832	0.281222	0.991836
H553	H	0.240308	-0.301869	0.461846
H554	H	0.740308	0.198131	0.961846
H555	H	0.299164	-0.301880	0.461784
H556	H	0.799164	0.198120	0.961784
H557	H	0.266305	-0.247760	0.414503
H558	H	0.766305	0.252240	0.914503
H559	H	0.547237	-0.686258	0.663446
H560	H	1.047237	-0.186258	1.163446
H561	H	0.164306	-0.159876	0.530897
H562	H	0.664306	0.340124	1.030897
H563	H	0.107441	-0.277854	0.762810
H564	H	0.607441	0.222146	1.262810
C565	C	0.057935	-0.151196	0.735094
C566	C	0.557935	0.348804	1.235094
C567	C	0.048849	-0.193589	0.795702
C568	C	0.548849	0.306411	1.295702
C569	C	0.011465	-0.161213	0.838076
C570	C	0.511465	0.338787	1.338076
H571	H	0.077732	-0.125829	0.728922
H572	H	0.577732	0.374171	1.228922
H573	H	0.018934	-0.125851	0.728902
H574	H	0.518934	0.374149	1.228902
H575	H	0.087842	-0.218924	0.801892
H576	H	0.587842	0.281076	1.301892
H577	H	0.029045	-0.218958	0.801893
H578	H	0.529045	0.281042	1.301893
H579	H	-0.027536	-0.135867	0.831884
H580	H	0.472464	0.364133	1.331884
H581	H	0.031266	-0.135847	0.831899
H582	H	0.531266	0.364153	1.331899
H583	H	0.005290	-0.189971	0.879203
H584	H	0.505290	0.310029	1.379203
