data_functionalizedCrystal
_audit_creation_method	'MofGen! by Chris Wilmer'
_symmetry_space_group_name_H-M	'P1'
_symmetry_Int_Tables_number	1
_symmetry_cell_setting	triclinic
loop_
_symmetry_equiv_pos_as_xyz
  x,y,z
_cell_length_a	10.723024
_cell_length_b	12.996460
_cell_length_c	10.723024
_cell_angle_alpha	89.995038
_cell_angle_beta	95.532131
_cell_angle_gamma	90.005265
loop_
_atom_site_label
_atom_site_type_symbol
_atom_site_fract_x
_atom_site_fract_y
_atom_site_fract_z
O1	O	1.657190	0.085557	-0.175030
O2	O	1.294038	0.085561	-0.191783
O3	O	1.483991	0.085555	-0.001830
O4	O	1.467237	0.085563	-0.364982
O5	O	1.483971	-0.085579	-0.001819
O6	O	1.294018	-0.085573	-0.191772
O7	O	1.657170	-0.085576	-0.175019
Cu8	Cu	1.475592	-0.101201	-0.183395
Cu9	Cu	1.475616	0.101185	-0.183407
O10	O	1.467217	-0.085571	-0.364972
C11	C	1.247528	-0.000006	-0.190558
C12	C	1.108974	-0.000005	-0.186911
C13	C	1.033991	-0.000002	-0.293198
C14	C	0.890788	-0.000000	-0.289431
N15	N	1.475585	-0.243548	-0.183385
C16	C	1.475614	-0.663362	-0.183408
C17	C	1.475602	-0.546557	-0.183406
C18	C	1.475600	-0.453459	-0.183398
C19	C	1.475587	-0.336646	-0.183393
C20	C	1.703680	-0.000008	-0.176243
C21	C	1.842234	-0.000002	-0.179891
C22	C	1.482762	-0.000011	0.044675
C23	C	1.479114	-0.000007	0.183229
N24	N	1.475633	0.243532	-0.183407
C25	C	1.468447	-0.000003	-0.411477
C26	C	1.472094	0.000000	-0.550031
C27	C	1.585401	-0.000006	0.258212
C28	C	1.581634	-0.000003	0.401415
H29	H	0.906659	0.000002	-0.088896
H30	H	1.672624	-0.000007	0.465848
H31	H	1.067152	0.000020	-0.093125
H32	H	1.075814	-0.000006	-0.386984
H33	H	0.826355	0.000006	-0.380421
H34	H	1.381099	-0.000007	0.385544
O35	O	1.697186	-0.000055	0.208125
C36	C	1.676062	-0.000030	0.076294
H37	H	1.578907	-0.032427	0.046692
H38	H	1.682380	0.082072	0.039988
C39	C	1.895021	-0.027353	0.057675
C40	C	1.775697	-0.067153	0.021318
H41	H	1.956483	-0.068754	0.023761
H42	H	1.909255	-0.027366	0.146492
H43	H	1.900268	0.041064	0.027418
H44	H	1.770447	-0.135563	0.051589
H45	H	1.761465	-0.067153	-0.067496
O46	O	1.367298	0.000134	0.233257
C47	C	1.358616	0.088782	0.307709
H48	H	1.456729	0.118332	0.339153
H49	H	1.303838	0.150844	0.250731
C50	C	1.170090	0.025573	0.384912
C51	C	1.290595	0.061861	0.423540
H52	H	1.128126	0.008970	0.456359
H53	H	1.175936	-0.034149	0.334749
H54	H	1.124457	0.077297	0.337429
H55	H	1.336230	0.010133	0.471008
H56	H	1.284755	0.121575	0.473715
