data_functionalizedCrystal
_audit_creation_method	'MofGen! by Chris Wilmer'
_symmetry_space_group_name_H-M	'P1'
_symmetry_Int_Tables_number	1
_symmetry_cell_setting	triclinic
loop_
_symmetry_equiv_pos_as_xyz
  x,y,z
_cell_length_a	17.699077
_cell_length_b	8.597275
_cell_length_c	16.176319
_cell_angle_alpha	97.696990
_cell_angle_beta	89.993140
_cell_angle_gamma	84.313046
loop_
_atom_site_label
_atom_site_type_symbol
_atom_site_fract_x
_atom_site_fract_y
_atom_site_fract_z
O1	O	1.005724	0.198420	-0.054599
O2	O	1.505724	0.698420	0.445401
O3	O	0.785559	0.224250	-0.052763
O4	O	1.285559	0.724250	0.447237
O5	O	0.899976	-0.017146	-0.069954
O6	O	1.399976	0.482854	0.430046
O7	O	0.891306	0.439816	-0.037409
O8	O	1.391306	0.939816	0.462591
O9	O	0.899960	-0.017162	0.067538
O10	O	1.399960	0.482838	0.567538
O11	O	0.785543	0.224235	0.084729
O12	O	1.285543	0.724235	0.584729
O13	O	1.005708	0.198404	0.082893
O14	O	1.505708	0.698404	0.582893
Cu15	Cu	0.895624	0.211318	0.096365
Cu16	Cu	1.395624	0.711318	0.596365
Cu17	Cu	0.895643	0.211336	-0.066235
Cu18	Cu	1.395643	0.711336	0.433765
O19	O	0.891290	0.439801	0.100083
O20	O	1.391290	0.939801	0.600083
C21	C	0.757346	0.223319	0.015917
C22	C	1.257346	0.723319	0.515917
C23	C	0.673305	0.220547	0.015718
C24	C	1.173305	0.720547	0.515718
C25	C	0.899038	-0.075621	-0.005373
C26	C	1.399038	0.424379	0.494627
C27	C	0.896258	-0.249836	-0.017786
C28	C	1.396258	0.250164	0.482214
C29	C	0.633818	0.219232	0.090572
C30	C	1.133818	0.719232	0.590572
C31	C	0.554853	0.216603	0.090386
C32	C	1.054853	0.716603	0.590386
C33	C	0.515377	0.215299	0.015345
C34	C	1.015377	0.715299	0.515345
C35	C	0.554870	0.216609	-0.059516
C36	C	1.054870	0.716609	0.440484
C37	C	0.633833	0.219227	-0.059330
C38	C	1.133833	0.719227	0.440670
C39	C	0.236419	0.206047	-0.060270
C40	C	0.736419	0.706047	0.439730
C41	C	0.157450	0.203434	-0.060450
C42	C	0.657450	0.703434	0.439550
C43	C	0.157439	0.203423	0.089446
C44	C	0.657439	0.703423	0.589446
C45	C	0.236403	0.206041	0.089632
C46	C	0.736403	0.706041	0.589632
C47	C	0.275889	0.207343	0.014771
C48	C	0.775889	0.707343	0.514771
C49	C	0.361511	0.210191	0.014974
C50	C	0.861511	0.710191	0.514974
C51	C	0.429755	0.212462	0.015142
C52	C	0.929755	0.712462	0.515142
C53	C	1.033921	0.199336	0.014211
C54	C	1.533921	0.699336	0.514211
C55	C	1.117962	0.202108	0.014405
C56	C	1.617962	0.702108	0.514405
C57	C	0.892228	0.498276	0.035501
C58	C	1.392228	0.998276	0.535501
C59	C	0.895009	0.672490	0.047909
C60	C	1.395009	1.172490	0.547909
N61	N	0.895616	0.211304	0.210729
N62	N	1.395616	0.711304	0.710729
N63	N	0.895657	0.211338	-0.180601
N64	N	1.395657	0.711338	0.319399
C65	C	0.946296	0.104458	0.246385
C66	C	1.446296	0.604458	0.746385
C67	C	0.946300	0.104456	0.332932
C68	C	1.446300	0.604456	0.832932
C69	C	0.895627	0.211310	0.383822
C70	C	1.395627	0.711310	0.883822
C71	C	0.844941	0.318162	0.348161
C72	C	1.344941	0.818162	0.848161
C73	C	0.844934	0.318155	0.261615
C74	C	1.344934	0.818155	0.761615
C75	C	0.844967	0.318191	0.697191
C76	C	1.344967	0.818191	1.197191
C77	C	0.844980	0.318193	0.783743
C78	C	1.344980	0.818193	1.283743
C79	C	0.946333	0.104493	0.768508
C80	C	1.446333	0.604493	1.268508
C81	C	0.946326	0.104485	0.681962
C82	C	1.446326	0.604485	1.181962
C83	C	0.895638	0.211331	0.646308
C84	C	1.395638	0.711331	1.146308
C85	C	0.895633	0.211330	0.552464
C86	C	1.395633	0.711330	1.052464
C87	C	0.895634	0.211320	0.477665
C88	C	1.395634	0.711320	0.977665
H89	H	0.665953	0.220307	0.151681
H90	H	1.165953	0.720307	0.651681
F91	F	0.791024	0.431907	0.659253
F92	F	1.291024	0.931907	1.159253
H93	H	0.896073	-0.260724	0.113650
H94	H	1.396073	0.239276	0.613650
F95	F	1.000278	-0.009229	0.806459
F96	F	1.500278	0.490771	1.306459
H97	H	0.803664	0.405158	0.232586
H98	H	1.303664	0.905158	0.732586
F99	F	0.894878	-0.337118	-0.103712
F100	F	1.394878	0.162882	0.396288
H101	H	0.987563	0.017452	0.204955
H102	H	1.487563	0.517452	0.704955
H103	H	0.987567	0.017452	0.361961
H104	H	1.487567	0.517452	0.861961
F105	F	0.791006	0.431878	0.402323
F106	F	1.291006	0.931878	0.902323
H107	H	0.522708	0.215506	0.151339
H108	H	1.022708	0.715506	0.651339
H109	H	0.522722	0.215536	-0.120617
H110	H	1.022722	0.715536	0.379383
H111	H	0.803713	0.405209	0.825178
H112	H	1.303713	0.905209	1.325178
F113	F	0.278412	0.207438	0.169502
F114	F	0.778412	0.707438	0.669502
F115	F	0.115409	0.202031	0.169120
F116	F	0.615409	0.702031	0.669120
F117	F	1.000261	-0.009236	0.627804
F118	F	1.500261	0.490764	1.127804
H119	H	0.268559	0.207102	-0.121227
H120	H	0.768559	0.707102	0.378773
H121	H	0.125310	0.202371	-0.121562
H122	H	0.625310	0.702371	0.378438
H123	H	0.665982	0.220300	-0.120284
H124	H	1.165982	0.720300	0.379716
