data_functionalizedCrystal
_audit_creation_method	'MofGen! by Chris Wilmer'
_symmetry_space_group_name_H-M	'P1'
_symmetry_Int_Tables_number	1
_symmetry_cell_setting	triclinic
loop_
_symmetry_equiv_pos_as_xyz
  x,y,z
_cell_length_a	10.654550
_cell_length_b	14.853567
_cell_length_c	9.130313
_cell_angle_alpha	90.002541
_cell_angle_beta	89.996220
_cell_angle_gamma	84.059917
loop_
_atom_site_label
_atom_site_type_symbol
_atom_site_fract_x
_atom_site_fract_y
_atom_site_fract_z
O1	O	1.666519	0.126622	-0.121906
O2	O	1.300915	0.138686	-0.121881
O3	O	1.493483	0.001476	-0.121899
O4	O	1.473951	0.263831	-0.121889
O5	O	1.493480	0.001480	0.121700
O6	O	1.300912	0.138690	0.121717
O7	O	1.666516	0.126626	0.121693
Cu8	Cu	1.483714	0.132658	0.143948
Cu9	Cu	1.483717	0.132654	-0.144136
O10	O	1.473948	0.263835	0.121710
C11	C	1.254125	0.137802	-0.000079
C12	C	1.114709	0.135152	-0.000070
C13	C	1.034384	0.215939	-0.000088
C14	C	0.903389	0.213443	-0.000114
C15	C	0.933057	0.049367	-0.000109
C16	C	1.064050	0.051863	-0.000073
C17	C	1.085044	0.299227	-0.000085
C18	C	1.004717	0.380021	-0.000105
C19	C	0.873722	0.377525	-0.000131
C20	C	0.823054	0.294236	-0.000136
C21	C	1.492596	-0.032115	-0.000104
C22	C	1.489944	-0.132213	-0.000116
C23	C	1.364344	-0.545419	-0.000080
C24	C	1.593119	-0.565475	-0.000095
C25	C	1.595613	-0.471428	-0.000104
C26	C	1.482470	-0.414372	-0.000099
C27	C	1.366834	-0.451363	-0.000084
C28	C	1.711247	-0.434430	-0.000104
C29	C	1.713745	-0.340378	-0.000111
C30	C	1.600601	-0.283320	-0.000116
C31	C	1.484961	-0.320316	-0.000103
C32	C	1.371818	-0.263260	-0.000097
C33	C	1.256176	-0.300254	-0.000095
C34	C	1.253691	-0.394305	-0.000089
C35	C	1.603087	-0.189269	-0.000122
C36	C	1.374308	-0.169204	-0.000102
C37	C	1.713306	0.127510	-0.000113
C38	C	1.852722	0.130160	-0.000131
C39	C	1.474835	0.297427	-0.000088
C40	C	1.477487	0.397525	-0.000085
N41	N	1.483721	0.132661	0.346570
N42	N	1.483720	0.132644	-0.346759
C43	C	1.569012	0.071925	0.423214
C44	C	1.569009	0.071914	0.576551
C45	C	1.398420	0.193382	0.576586
C46	C	1.398418	0.193388	0.423252
C47	C	1.654315	0.011197	0.346533
C48	C	1.739614	-0.049542	0.423177
C49	C	1.739610	-0.049553	0.576514
C50	C	1.654308	0.011176	0.653206
H51	H	1.129453	-0.013920	-0.000062
C52	C	1.833422	-0.116380	0.660818
N53	N	1.904084	-0.166716	0.724313
C54	C	1.131724	-0.237481	-0.000089
N55	N	1.037989	-0.190196	-0.000087
C56	C	1.126496	-0.435007	-0.000056
N57	N	1.030694	-0.465667	-0.000018
C58	C	0.678954	0.291496	-0.000159
N59	N	0.570419	0.289433	-0.000183
H60	H	1.654328	0.011202	0.221678
H61	H	1.328972	0.242826	0.639039
C62	C	0.877315	-0.042245	-0.000129
N63	N	0.835331	-0.111248	-0.000151
H64	H	1.809057	-0.098991	0.360726
H65	H	0.808324	0.443311	-0.000132
C66	C	1.654310	0.011160	0.821882
N67	N	1.654318	0.011152	0.948927
C68	C	1.304566	0.260181	0.338939
N69	N	1.233862	0.310481	0.275434
H70	H	1.282173	-0.122754	-0.000104
H71	H	1.270191	-0.575545	-0.000084
C72	C	1.840952	-0.299693	-0.000125
N73	N	1.936766	-0.269048	-0.000141
H74	H	1.045981	0.447831	-0.000088
C75	C	1.229139	0.301980	-0.000048
N76	N	1.337672	0.304052	-0.000018
H77	H	1.685234	-0.611936	-0.000088
H78	H	1.803361	-0.480892	-0.000095
H79	H	1.697240	-0.159152	-0.000114
