data_functionalizedCrystal
_audit_creation_method	'MofGen! by Chris Wilmer'
_symmetry_space_group_name_H-M	'P1'
_symmetry_Int_Tables_number	1
_symmetry_cell_setting	triclinic
loop_
_symmetry_equiv_pos_as_xyz
  x,y,z
_cell_length_a	18.101398
_cell_length_b	12.827892
_cell_length_c	12.827885
_cell_angle_alpha	89.970214
_cell_angle_beta	90.026581
_cell_angle_gamma	89.989341
loop_
_atom_site_label
_atom_site_type_symbol
_atom_site_fract_x
_atom_site_fract_y
_atom_site_fract_z
Zn1	Zn	1.132218	0.416114	0.591052
Zn2	Zn	1.632218	0.916114	1.091052
Zn3	Zn	1.132143	0.590892	0.416313
Zn4	Zn	1.632143	1.090892	0.916313
Zn5	Zn	1.008372	0.416151	0.416304
Zn6	Zn	1.508372	0.916151	0.916304
Zn7	Zn	1.008362	0.590800	0.590990
Zn8	Zn	1.508362	1.090800	1.090990
O9	O	1.070274	0.503489	0.503665
O10	O	1.570274	1.003489	1.003665
O11	O	1.235841	0.439322	0.567903
O12	O	1.735841	0.939322	1.067903
O13	O	1.115698	0.567766	0.270075
O14	O	1.615698	1.067766	0.770075
O15	O	1.024837	0.269910	0.439507
O16	O	1.524837	0.769910	0.939507
O17	O	1.235786	0.567730	0.439522
O18	O	1.735786	1.067730	0.939522
O19	O	1.115826	0.269883	0.567894
O20	O	1.615826	0.769883	1.067894
O21	O	1.024764	0.439384	0.270069
O22	O	1.524764	0.939384	0.770069
O23	O	0.904738	0.439295	0.439447
O24	O	1.404738	0.939295	0.939447
O25	O	1.024819	0.567573	0.737235
O26	O	1.524819	1.067573	1.237235
O27	O	0.904731	0.567609	0.567788
O28	O	1.404731	1.067609	1.067788
O29	O	1.115816	0.439233	0.737280
O30	O	1.615816	0.939233	1.237280
O31	O	1.115688	0.737115	0.439462
O32	O	1.615688	1.237115	0.939462
O33	O	1.024746	0.737048	0.567797
O34	O	1.524746	1.237048	1.067797
C35	C	1.070228	0.774999	0.503646
C36	C	1.570228	1.274999	1.003646
C37	C	1.070276	0.891152	0.503673
C38	C	1.570276	1.391152	1.003673
C39	C	0.877863	0.503447	0.503610
C40	C	1.377863	1.003447	1.003610
C41	C	0.795549	0.503454	0.503612
C42	C	1.295549	1.003454	1.003612
C43	C	1.070324	0.503389	0.776235
C44	C	1.570324	1.003389	1.276235
C45	C	1.070346	0.503346	0.892388
C46	C	1.570346	1.003346	1.392388
C47	C	0.496458	0.503519	0.503700
C48	C	0.996458	1.003519	1.003700
C49	C	0.527764	0.422384	0.423344
C50	C	1.027764	0.922384	0.923344
C51	C	0.613382	0.422602	0.423002
C52	C	1.113382	0.922602	0.923002
C53	C	0.644841	0.503486	0.503656
C54	C	1.144841	1.003486	1.003656
C55	C	0.613743	0.613571	0.473573
C56	C	1.113743	1.113571	0.973573
C57	C	0.528098	0.613120	0.473014
C58	C	1.028098	1.113120	0.973014
C59	C	0.528071	0.475526	0.614327
C60	C	1.028071	0.975526	1.114327
C61	C	0.613721	0.473075	0.613723
C62	C	1.113721	0.973075	1.113723
C63	C	0.728700	0.503474	0.503633
C64	C	1.228700	1.003474	1.003633
C65	C	0.412599	0.503538	0.503720
C66	C	0.912599	1.003538	1.003720
C67	C	1.263436	0.503532	0.503720
C68	C	1.763436	1.003532	1.003720
C69	C	1.345750	0.503551	0.503744
C70	C	1.845750	1.003551	1.003744
C71	C	1.070341	0.230919	0.503706
C72	C	1.570341	0.730919	1.003706
C73	C	1.070369	0.114766	0.503724
C74	C	1.570369	0.614766	1.003724
C75	C	1.115330	0.942936	0.440240
C76	C	1.615330	1.442936	0.940240
C77	C	1.115380	1.062986	0.440266
C78	C	1.615380	1.562986	0.940266
C79	C	1.070266	0.503514	0.232155
C80	C	1.570266	1.003514	0.732155
C81	C	1.070388	0.503262	0.116002
C82	C	1.570388	1.003262	0.616002
C83	C	1.115379	0.439827	0.944196
C84	C	1.615379	0.939827	1.444196
C85	C	1.115402	0.439781	1.064246
C86	C	1.615402	0.939781	1.564246
H87	H	0.634407	0.340969	0.441857
H88	H	1.134407	0.840969	0.941857
Br89	Br	0.494332	0.574021	0.714118
Br90	Br	0.994332	1.074021	1.214118
Br91	Br	1.179592	0.349207	0.869999
Br92	Br	1.679592	0.849207	1.369999
H93	H	1.031835	0.557650	1.071456
H94	H	1.531835	1.057650	1.571456
Br95	Br	1.006104	0.593926	0.966585
Br96	Br	1.506104	1.093926	1.466585
Br97	Br	1.179669	1.137203	0.349735
Br98	Br	1.679669	1.637203	0.849735
Br99	Br	0.493456	0.285902	0.454421
Br100	Br	0.993456	0.785902	0.954421
Br101	Br	0.491832	0.452854	0.287513
Br102	Br	0.991832	0.952854	0.787513
H103	H	1.153959	0.385403	1.108799
H104	H	1.653959	0.885403	1.608799
H105	H	0.633837	0.441108	0.341028
H106	H	1.133837	0.941108	0.841028
H107	H	1.153868	0.898395	0.385915
H108	H	1.653868	1.398395	0.885915
Br109	Br	0.494743	0.652683	0.338220
Br110	Br	0.994743	1.152683	0.838220
H111	H	0.634122	0.675643	0.530269
H112	H	1.134122	1.175643	1.030269
H113	H	0.635161	0.637720	0.393573
H114	H	1.135161	1.137720	0.893573
Br115	Br	0.493578	0.717291	0.566301
Br116	Br	0.993578	1.217291	1.066301
H117	H	0.506484	0.396649	0.641679
H118	H	1.006484	0.896649	1.141679
H119	H	0.634050	0.392065	0.636407
H120	H	1.134050	0.892065	1.136407
H121	H	1.031791	1.070241	0.558031
H122	H	1.531791	1.570241	1.058031
Br123	Br	0.649412	0.564394	0.718863
Br124	Br	1.149412	1.064394	1.218863
Br125	Br	1.006050	0.965382	0.594237
Br126	Br	1.506050	1.465382	1.094237
