data_functionalizedCrystal
_audit_creation_method	'MofGen! by Chris Wilmer'
_symmetry_space_group_name_H-M	'P1'
_symmetry_Int_Tables_number	1
_symmetry_cell_setting	triclinic
loop_
_symmetry_equiv_pos_as_xyz
  x,y,z
_cell_length_a	14.908571
_cell_length_b	12.759400
_cell_length_c	14.908854
_cell_angle_alpha	93.325643
_cell_angle_beta	90.204386
_cell_angle_gamma	86.710990
loop_
_atom_site_label
_atom_site_type_symbol
_atom_site_fract_x
_atom_site_fract_y
_atom_site_fract_z
Zn1	Zn	1.345355	-0.469301	0.587610
Zn2	Zn	1.845355	0.030699	1.087610
Zn3	Zn	1.353946	-0.655690	0.437252
Zn4	Zn	1.853946	-0.155690	0.937252
Zn5	Zn	1.203665	-0.470493	0.428604
Zn6	Zn	1.703665	0.029507	0.928604
Zn7	Zn	1.194977	-0.635402	0.578907
Zn8	Zn	1.694977	-0.135402	1.078907
O9	O	1.274486	-0.557722	0.508093
O10	O	1.774486	-0.057722	1.008093
O11	O	1.472322	-0.502017	0.574926
O12	O	1.972322	-0.002017	1.074926
O13	O	1.341242	-0.640113	0.310278
O14	O	1.841242	-0.140113	0.810278
O15	O	1.222501	-0.323315	0.449720
O16	O	1.722501	0.176685	0.949720
O17	O	1.478633	-0.638957	0.464459
O18	O	1.978633	-0.138957	0.964459
O19	O	1.326600	-0.322439	0.566541
O20	O	1.826600	0.177561	1.066541
O21	O	1.230831	-0.504049	0.303924
O22	O	1.730831	-0.004049	0.803924
O23	O	1.076686	-0.484377	0.441280
O24	O	1.576686	0.015623	0.941280
O25	O	1.207693	-0.604379	0.705889
O26	O	1.707693	-0.104379	1.205889
O27	O	1.070302	-0.605535	0.551707
O28	O	1.570302	-0.105535	1.051707
O29	O	1.318176	-0.482345	0.712283
O30	O	1.818176	0.017655	1.212283
O31	O	1.332818	-0.800019	0.456020
O32	O	1.832818	-0.300019	0.956020
O33	O	1.216024	-0.785113	0.560093
O34	O	1.716024	-0.285113	1.060093
C35	C	1.040868	-0.542884	0.494611
C36	C	1.540868	-0.042884	0.994611
C37	C	0.940925	-0.536561	0.488865
C38	C	1.440925	-0.036561	0.988865
C39	C	0.746530	-0.651060	0.592900
C40	C	1.246530	-0.151060	1.092900
C41	C	0.652624	-0.645121	0.587504
C42	C	1.152624	-0.145121	1.087504
C43	C	0.659204	-0.518740	0.472682
C44	C	1.159204	-0.018740	0.972682
C45	C	0.753110	-0.524679	0.478078
C46	C	1.253110	-0.024679	0.978078
C47	C	0.796770	-0.590842	0.538188
C48	C	1.296770	-0.090842	1.038188
C49	C	0.890678	-0.596785	0.543579
C50	C	1.390678	-0.096785	1.043579
C51	C	0.897256	-0.470400	0.428762
C52	C	1.397256	0.029600	0.928762
C53	C	0.803350	-0.464461	0.423366
C54	C	1.303350	0.035539	0.923366
C55	C	1.274433	-0.830687	0.508071
C56	C	1.774433	-0.330687	1.008071
C57	C	1.274492	-0.947466	0.508097
C58	C	1.774492	-0.447466	1.008097
C59	C	1.335366	-1.010054	0.453973
C60	C	1.835366	-0.510054	0.953973
C61	C	1.335420	-1.119779	0.454004
C62	C	1.835420	-0.619779	0.954004
C63	C	1.213716	-1.104318	0.562284
C64	C	1.713716	-0.604318	1.062284
C65	C	1.213668	-0.994595	0.562258
C66	C	1.713668	-0.494595	1.062258
C67	C	1.396190	-0.962924	0.399813
C68	C	1.896190	-0.462924	0.899813
C69	C	1.457069	-1.025513	0.345684
C70	C	1.957069	-0.525513	0.845684
C71	C	1.457123	-1.135239	0.345715
C72	C	1.957123	-0.635239	0.845715
C73	C	1.396298	-1.182375	0.399875
C74	C	1.896298	-0.682375	0.899875
C75	C	1.509015	-0.572617	0.521628
C76	C	2.009015	-0.072617	1.021628
C77	C	1.608958	-0.578965	0.527396
C78	C	2.108958	-0.078965	1.027396
C79	C	1.261007	-0.540966	0.742624
C80	C	1.761007	-0.040966	1.242624
C81	C	1.255263	-0.533825	0.842567
C82	C	1.755263	-0.033825	1.342567
C83	C	1.274562	-0.283690	0.508136
C84	C	1.774562	0.216310	1.008136
C85	C	1.274594	-0.166915	0.508155
C86	C	1.774594	0.333085	1.008155
C87	C	1.287964	-0.574340	0.274478
C88	C	1.787964	-0.074340	0.774478
C89	C	1.293882	-0.581195	0.174546
C90	C	1.793882	-0.081195	0.674546
C91	C	1.359462	-0.662089	1.036989
C92	C	1.859462	-0.162089	1.536989
C93	C	1.354068	-0.655384	1.130895
C94	C	1.854068	-0.155384	1.630895
C95	C	1.239087	-0.513705	1.124285
C96	C	1.739087	-0.013705	1.624285
C97	C	1.244481	-0.520410	1.030380
C98	C	1.744481	-0.020410	1.530380
C99	C	1.304669	-0.594606	0.986735
C100	C	1.804669	-0.094606	1.486735
C101	C	1.310058	-0.601316	0.892828
C102	C	1.810058	-0.101316	1.392828
C103	C	1.195082	-0.459632	0.886220
C104	C	1.695082	0.040368	1.386220
C105	C	1.189688	-0.452927	0.980125
C106	C	1.689688	0.047073	1.480125
H107	H	0.938172	-0.421368	0.384210
H108	H	1.438172	0.078632	0.884210
H109	H	0.611722	-0.694155	0.632058
H110	H	1.111722	-0.194155	1.132058
H111	H	1.396353	-1.271722	0.399903
H112	H	1.896353	-0.771722	0.899903
H113	H	1.190090	-0.453292	1.159837
H114	H	1.690090	0.046708	1.659837
Cl115	Cl	0.801421	-0.734245	0.668455
Cl116	Cl	1.301421	-0.234245	1.168455
Cl117	Cl	1.533662	-1.213919	0.277677
Cl118	Cl	2.033662	-0.713919	0.777677
Cl119	Cl	1.114029	-0.359655	1.035002
Cl120	Cl	1.614029	0.140345	1.535002
Cl121	Cl	1.137140	-0.915907	0.630302
Cl122	Cl	1.637140	-0.415907	1.130302
H123	H	1.150465	-0.404683	0.845293
H124	H	1.650465	0.095317	1.345293
Cl125	Cl	1.385720	-0.694592	0.837961
Cl126	Cl	1.885720	-0.194592	1.337961
H127	H	0.623639	-0.464867	0.423749
H128	H	1.123639	0.035133	0.923749
H129	H	1.398687	-0.710334	1.171809
H130	H	1.898687	-0.210334	1.671809
Cl131	Cl	0.945564	-0.679963	0.619143
Cl132	Cl	1.445564	-0.179963	1.119143
Cl133	Cl	0.748454	-0.381285	0.347808
Cl134	Cl	1.248454	0.118715	0.847808
Cl135	Cl	1.396364	-0.824983	0.400036
Cl136	Cl	1.896364	-0.324983	0.900036
H137	H	1.408473	-0.722498	1.001454
H138	H	1.908473	-0.222498	1.501454
Cl139	Cl	1.533539	-0.966257	0.277611
Cl140	Cl	2.033539	-0.466257	0.777611
H141	H	1.164194	-1.142706	0.606378
H142	H	1.664194	-0.642706	1.106378
