data_functionalizedCrystal
_audit_creation_method	'MofGen! by Chris Wilmer'
_symmetry_space_group_name_H-M	'P1'
_symmetry_Int_Tables_number	1
_symmetry_cell_setting	triclinic
loop_
_symmetry_equiv_pos_as_xyz
  x,y,z
_cell_length_a	14.519731
_cell_length_b	14.519709
_cell_length_c	11.892095
_cell_angle_alpha	93.895429
_cell_angle_beta	86.093342
_cell_angle_gamma	83.684499
loop_
_atom_site_label
_atom_site_type_symbol
_atom_site_fract_x
_atom_site_fract_y
_atom_site_fract_z
O1	O	1.229743	0.115099	-0.094008
O2	O	0.961268	0.129315	-0.094010
O3	O	1.102623	-0.012031	-0.093999
O4	O	1.088388	0.256444	-0.094019
O5	O	1.090837	-0.000264	0.094008
O6	O	0.949483	0.141082	0.093996
O7	O	1.217957	0.126866	0.093998
Zn8	Zn	1.081848	0.135842	0.123848
Zn9	Zn	1.097377	0.120339	-0.123859
O10	O	1.076602	0.268211	0.093987
C11	C	0.921016	0.134532	-0.000007
C12	C	0.818636	0.132536	-0.000007
C13	C	0.735492	0.130914	-0.000012
C14	C	0.631183	0.128887	-0.000012
C15	C	0.548044	0.127279	-0.000012
C16	C	0.443729	0.125252	-0.000014
C17	C	1.096067	-0.040507	0.000005
C18	C	1.094078	-0.142888	0.000005
C19	C	1.086761	-0.517786	-0.000024
C20	C	1.088793	-0.413478	-0.000016
C21	C	1.090419	-0.330341	-0.000008
C22	C	1.092452	-0.226025	-0.000002
C23	C	1.258209	0.121648	-0.000007
C24	C	1.360590	0.123644	-0.000014
C25	C	1.083159	0.296687	-0.000019
C26	C	1.085147	0.399068	-0.000027
N27	N	1.071257	0.146422	0.292901
N28	N	1.107975	0.109751	-0.292912
C29	C	1.181672	0.036077	0.529557
C30	C	1.174276	0.043479	0.647899
C31	C	1.049064	0.168623	0.647927
C32	C	1.056461	0.161221	0.529586
C33	C	1.122768	0.094947	0.470405
C34	C	1.130168	0.087550	0.352062
C35	C	1.004953	0.212689	0.352092
C36	C	0.997556	0.220091	0.470433
H37	H	1.184160	0.033588	0.303878
H38	H	0.995073	0.222576	0.696127
C39	C	0.863769	0.248149	0.603559
C40	C	0.924678	0.292937	0.535496
H41	H	0.818782	0.293125	0.643729
H42	H	0.833418	0.206812	0.557401
H43	H	0.897803	0.214147	0.655719
H44	H	0.890645	0.326934	0.483330
H45	H	0.955032	0.334291	0.581658
C46	C	1.237864	-0.125731	0.493068
C47	C	1.254557	-0.036755	0.464480
H48	H	1.282859	-0.170690	0.452881
H49	H	1.241905	-0.129755	0.572000
H50	H	1.177511	-0.137093	0.473691
H51	H	1.314908	-0.025390	0.483864
H52	H	1.250525	-0.032728	0.385530
H53	H	0.956991	0.260628	0.303916
C54	C	1.185762	-0.073664	0.780978
C55	C	1.239025	-0.021232	0.712921
H56	H	1.225738	-0.113619	0.821114
H57	H	1.145227	-0.033136	0.833157
H58	H	1.150209	-0.109808	0.734811
H59	H	1.274573	0.014918	0.759089
H60	H	1.279576	-0.061765	0.660735
