data_functionalizedCrystal
_audit_creation_method	'MofGen! by Chris Wilmer'
_symmetry_space_group_name_H-M	'P1'
_symmetry_Int_Tables_number	1
_symmetry_cell_setting	triclinic
loop_
_symmetry_equiv_pos_as_xyz
  x,y,z
_cell_length_a	11.026607
_cell_length_b	17.699083
_cell_length_c	16.776229
_cell_angle_alpha	89.992455
_cell_angle_beta	90.005981
_cell_angle_gamma	84.065484
loop_
_atom_site_label
_atom_site_type_symbol
_atom_site_fract_x
_atom_site_fract_y
_atom_site_fract_z
O1	O	1.609234	-0.316812	0.066299
O2	O	2.109234	0.183188	0.566299
O3	O	1.256034	-0.280737	0.066298
O4	O	1.756034	0.219263	0.566298
O5	O	1.442612	-0.189956	0.066291
O6	O	1.942612	0.310044	0.566291
O7	O	1.422655	-0.407592	0.066306
O8	O	1.922655	0.092408	0.566306
O9	O	1.442588	-0.189945	-0.066285
O10	O	1.942588	0.310055	0.433715
O11	O	1.256009	-0.280726	-0.066278
O12	O	1.756009	0.219274	0.433722
O13	O	1.609209	-0.316801	-0.066278
O14	O	2.109209	0.183199	0.433722
Zn15	Zn	1.432605	-0.298762	-0.087327
Zn16	Zn	1.932605	0.201238	0.412673
Zn17	Zn	1.432638	-0.298776	0.087348
Zn18	Zn	1.932638	0.201224	0.587348
O19	O	1.422630	-0.407582	-0.066271
O20	O	1.922630	0.092418	0.433729
C21	C	1.210830	-0.274076	0.000010
C22	C	1.710830	0.225924	0.500010
C23	C	1.076175	-0.254237	0.000010
C24	C	1.576175	0.245763	0.500010
C25	C	1.441885	-0.161655	0.000003
C26	C	1.941885	0.338345	0.500003
C27	C	1.439740	-0.077343	0.000003
C28	C	1.939740	0.422657	0.500003
N29	N	1.432592	-0.298753	-0.206539
N30	N	1.932592	0.201247	0.293461
C31	C	1.002207	-0.309017	0.000014
C32	C	1.502207	0.190983	0.500014
C33	C	0.863034	-0.288513	0.000014
C34	C	1.363034	0.211487	0.500014
C35	C	1.654412	-0.323461	0.000012
C36	C	2.154412	0.176539	0.500012
C37	C	1.789068	-0.343301	0.000018
C38	C	2.289068	0.156699	0.500018
C39	C	1.423358	-0.435882	0.000019
C40	C	1.923358	0.064118	0.500019
C41	C	1.425503	-0.520195	0.000025
C42	C	1.925503	-0.020195	0.500025
C43	C	1.549257	-0.043769	0.000002
C44	C	2.049257	0.456231	0.500002
C45	C	1.547234	0.035453	0.000009
C46	C	2.047234	0.535453	0.500009
C47	C	1.435692	0.081099	0.000011
C48	C	1.935692	0.581099	0.500011
C49	C	1.326166	0.047520	0.000015
C50	C	1.826166	0.547520	0.500015
C51	C	1.328190	-0.031700	0.000013
C52	C	1.828190	0.468300	0.500013
C53	C	1.318000	0.367005	0.000021
C54	C	1.818000	0.867005	0.500021
C55	C	1.315984	0.446230	0.000020
C56	C	1.815984	0.946230	0.500020
C57	C	1.537044	0.434158	0.000017
C58	C	2.037044	0.934158	0.500017
C59	C	1.539068	0.354938	0.000015
C60	C	2.039068	0.854938	0.500015
C61	C	1.429543	0.321366	0.000023
C62	C	1.929543	0.821366	0.500023
C63	C	1.431738	0.235465	0.000017
C64	C	1.931738	0.735465	0.500017
C65	C	1.433496	0.166998	0.000012
C66	C	1.933496	0.666998	0.500012
C67	C	1.515234	-0.258580	-0.248259
C68	C	2.015234	0.241420	0.251741
C69	C	1.515240	-0.258580	-0.331711
C70	C	2.015240	0.241420	0.168289
C71	C	1.432610	-0.298759	-0.373441
C72	C	1.932610	0.201241	0.126559
C73	C	1.349959	-0.338933	-0.331715
C74	C	1.849959	0.161067	0.168285
C75	C	1.349947	-0.338928	-0.248265
C76	C	1.849947	0.161072	0.251735
C77	C	1.350003	-0.338954	-0.668263
C78	C	1.850003	0.161046	-0.168263
C79	C	1.350023	-0.338958	-0.751719
C80	C	1.850023	0.161042	-0.251719
C81	C	1.515296	-0.258606	-0.751709
C82	C	2.015296	0.241394	-0.251709
C83	C	1.515284	-0.258601	-0.668258
C84	C	2.015284	0.241399	-0.168258
C85	C	1.432630	-0.298772	-0.626539
C86	C	1.932630	0.201228	-0.126539
C87	C	1.432622	-0.298770	-0.536051
C88	C	1.932622	0.201230	-0.036051
C89	C	1.432623	-0.298765	-0.463928
C90	C	1.932623	0.201235	0.036072
N91	N	1.432661	-0.298780	0.206559
N92	N	1.932661	0.201220	0.706559
H93	H	1.041916	-0.371095	0.000013
H94	H	1.541916	0.128905	0.500013
C95	C	0.809402	-0.204642	0.000008
C96	C	1.309402	0.295358	0.500008
N97	N	0.769004	-0.141471	0.000005
N98	N	1.269004	0.358529	0.500005
C99	C	1.203468	0.097733	0.000011
C100	C	1.703468	0.597733	0.500011
N101	N	1.111050	0.135553	0.000002
N102	N	1.611050	0.635553	0.500002
H103	H	1.036466	-0.192158	0.000026
H104	H	1.536466	0.307842	0.500026
H105	H	1.640088	-0.080929	-0.000005
H106	H	2.140088	0.419071	0.499995
C107	C	1.606181	-0.214400	-0.622359
C108	C	2.106181	0.285600	-0.122359
N109	N	1.674643	-0.181103	-0.587789
N110	N	2.174643	0.318897	-0.087789
H111	H	1.225148	0.483393	0.000020
H112	H	1.725148	0.983393	0.500020
C113	C	1.606135	-0.214379	-0.202363
C114	C	2.106135	0.285621	0.297637
N115	N	1.674601	-0.181083	-0.167796
N116	N	2.174601	0.318917	0.332204
C117	C	1.606125	-0.214365	-0.377599
C118	C	2.106125	0.285635	0.122401
N119	N	1.674571	-0.181051	-0.412162
N120	N	2.174571	0.318949	0.087838
C121	C	0.842697	-0.427173	0.000024
C122	C	1.342697	0.072827	0.500024
N123	N	0.883092	-0.490344	0.000030
N124	N	1.383092	0.009656	0.500030
H125	H	1.629897	0.317776	0.000009
H126	H	2.129897	0.817776	0.500009
C127	C	1.667713	0.072380	-0.000005
C128	C	2.167713	0.572380	0.499995
N129	N	1.758463	0.100193	-0.000020
N130	N	2.258463	0.600193	0.499980
H131	H	1.626225	0.461501	0.000014
H132	H	2.126225	0.961501	0.500014
C133	C	1.197518	0.330086	0.000034
C134	C	1.697518	0.830086	0.500034
N135	N	1.106765	0.302276	0.000046
N136	N	1.606765	0.802276	0.500046
H137	H	1.239010	-0.059035	0.000014
H138	H	1.739010	0.440965	0.500014
C139	C	1.606208	-0.214409	-0.797607
C140	C	2.106208	0.285591	-0.297607
N141	N	1.674682	-0.181121	-0.832176
N142	N	2.174682	0.318879	-0.332176
H143	H	1.282731	-0.371677	-0.785695
H144	H	1.782731	0.128323	-0.285695
C145	C	1.259237	-0.383263	-0.622383
C146	C	1.759237	0.116737	-0.122383
N147	N	1.190925	-0.416681	-0.587824
N148	N	1.690925	0.083319	-0.087824
C149	C	1.259053	-0.383121	-0.377622
C150	C	1.759053	0.116879	0.122378
N151	N	1.190580	-0.416404	-0.412198
N152	N	1.690580	0.083596	0.087802
H153	H	1.282650	-0.371640	-0.214297
H154	H	1.782650	0.128360	0.285703
