data_functionalizedCrystal
_audit_creation_method	'MofGen! by Chris Wilmer'
_symmetry_space_group_name_H-M	'P1'
_symmetry_Int_Tables_number	1
_symmetry_cell_setting	triclinic
loop_
_symmetry_equiv_pos_as_xyz
  x,y,z
_cell_length_a	10.654541
_cell_length_b	15.944551
_cell_length_c	9.730217
_cell_angle_alpha	89.995798
_cell_angle_beta	89.999932
_cell_angle_gamma	83.991333
loop_
_atom_site_label
_atom_site_type_symbol
_atom_site_fract_x
_atom_site_fract_y
_atom_site_fract_z
O1	O	1.666312	0.117965	-0.114251
O2	O	1.300688	0.129208	-0.114263
O3	O	1.493484	0.001369	-0.114245
O4	O	1.473516	0.245804	-0.114270
O5	O	1.493478	0.001368	0.114335
O6	O	1.300682	0.129206	0.114317
O7	O	1.666306	0.117964	0.114329
Zn8	Zn	1.483493	0.123585	0.150615
Zn9	Zn	1.483501	0.123587	-0.150549
O10	O	1.473510	0.245802	0.114310
C11	C	1.253897	0.128382	0.000025
C12	C	1.114486	0.125914	0.000021
C13	C	1.084537	0.278779	-0.000012
C14	C	1.004069	0.354048	-0.000034
C15	C	0.873081	0.351724	-0.000035
C16	C	0.822560	0.274122	-0.000010
C17	C	0.903028	0.198852	0.000012
C18	C	1.034017	0.201185	0.000009
C19	C	0.932976	0.045989	0.000055
C20	C	1.063965	0.048311	0.000046
C21	C	0.882455	-0.031613	0.000080
C22	C	0.962924	-0.106885	0.000092
C23	C	1.093919	-0.104557	0.000091
C24	C	1.144433	-0.026958	0.000068
C25	C	1.492652	-0.029930	0.000046
C26	C	1.490167	-0.123190	0.000046
C27	C	1.364722	-0.338772	0.000023
C28	C	1.422972	-0.399453	0.112729
C29	C	1.485671	-0.293942	0.000036
C30	C	1.423006	-0.399436	-0.112633
C31	C	1.481319	-0.458880	0.000019
C32	C	1.543954	-0.353395	0.112834
C33	C	1.543971	-0.353371	-0.112629
C34	C	1.602309	-0.414034	0.000104
C35	C	1.488175	-0.198925	0.000046
C36	C	1.478825	-0.553896	0.000019
C37	C	1.713097	0.118790	0.000037
C38	C	1.852508	0.121258	0.000033
C39	C	1.474342	0.277102	0.000017
C40	C	1.476827	0.370362	0.000007
N41	N	1.483497	0.123584	0.356151
N42	N	1.483507	0.123582	-0.356086
C43	C	1.654288	0.010416	0.356159
C44	C	1.739691	-0.046165	0.428102
C45	C	1.739704	-0.046166	0.571982
C46	C	1.654302	0.010420	0.643921
C47	C	1.568898	0.067001	0.571978
C48	C	1.568897	0.066997	0.428095
C49	C	1.398103	0.180163	0.571971
C50	C	1.398094	0.180169	0.428091
C51	C	1.312700	0.236748	0.643910
C52	C	1.227301	0.293335	0.571967
C53	C	1.227292	0.293334	0.428078
C54	C	1.312691	0.236750	0.356147
H55	H	0.921778	-0.170062	0.000111
O56	O	0.695310	0.271907	-0.000243
C57	C	0.643324	0.313072	-0.118613
H58	H	0.719068	0.313062	-0.201364
H59	H	0.562139	0.278583	-0.158336
H60	H	0.606728	0.380855	-0.091858
O61	O	1.171903	-0.177755	0.000050
C62	C	1.099217	-0.246739	0.000109
H63	H	1.001454	-0.225990	-0.043167
H64	H	1.147529	-0.299529	-0.066240
H65	H	1.089891	-0.270480	0.109778
O66	O	1.822698	-0.101209	0.358433
C67	C	1.898099	-0.151133	0.452787
H68	H	1.846619	-0.152406	0.555353
H69	H	1.917268	-0.218095	0.411224
H70	H	1.991378	-0.123270	0.468079
H71	H	1.191193	0.280679	-0.000042
H72	H	1.251088	-0.025055	0.000051
H73	H	1.264329	-0.306045	0.000132
H74	H	1.371813	-0.419858	0.208009
H75	H	1.809243	-0.092242	0.630559
O76	O	1.144297	0.348178	0.642000
C77	C	1.066816	0.302701	0.725201
H78	H	1.116839	0.237283	0.746748
H79	H	1.046952	0.337629	0.826382
H80	H	0.974005	0.296416	0.669756
H81	H	1.702790	-0.446611	0.000171
H82	H	1.595086	-0.332944	-0.207914
H83	H	0.775797	-0.033501	0.000086
H84	H	1.654307	0.010409	0.761076
O85	O	0.794857	0.424816	0.000185
C86	C	0.718165	0.428038	0.118547
H87	H	0.766137	0.385373	0.201305
H88	H	0.703426	0.495615	0.158264
H89	H	0.622919	0.405732	0.091784
O90	O	1.361794	-0.423638	-0.226266
C91	C	1.236576	-0.384967	-0.225820
H92	H	1.230555	-0.325604	-0.159839
H93	H	1.206476	-0.367431	-0.335425
H94	H	1.171442	-0.430596	-0.181836
O95	O	1.312699	0.236905	0.783674
C96	C	1.338238	0.316796	0.831724
H97	H	1.312490	0.366120	0.748799
H98	H	1.279986	0.333626	0.927981
H99	H	1.442887	0.315243	0.857247
O100	O	1.144282	0.348379	0.358409
C101	C	1.068892	0.398301	0.452764
H102	H	1.120383	0.399570	0.555323
H103	H	1.049718	0.465264	0.411191
H104	H	0.975614	0.370437	0.468074
O105	O	1.312784	0.236881	0.216383
C106	C	1.338255	0.316781	0.168292
H107	H	1.390333	0.349938	0.251197
H108	H	1.399334	0.308799	0.072034
H109	H	1.245700	0.356215	0.142758
O110	O	1.604844	-0.329054	0.226594
C111	C	1.606428	-0.240748	0.225240
H112	H	1.525815	-0.211017	0.158444
H113	H	1.594551	-0.215367	0.334513
H114	H	1.700198	-0.224452	0.181673
H115	H	1.654296	0.010418	0.239004
H116	H	1.045218	0.417231	-0.000051
