data_functionalizedCrystal
_audit_creation_method	'MofGen! by Chris Wilmer'
_symmetry_space_group_name_H-M	'P1'
_symmetry_Int_Tables_number	1
_symmetry_cell_setting	triclinic
loop_
_symmetry_equiv_pos_as_xyz
  x,y,z
_cell_length_a	35.288113
_cell_length_b	35.282844
_cell_length_c	35.277682
_cell_angle_alpha	119.999998
_cell_angle_beta	90.000380
_cell_angle_gamma	59.985448
loop_
_atom_site_label
_atom_site_type_symbol
_atom_site_fract_x
_atom_site_fract_y
_atom_site_fract_z
O1	O	-0.259854	-0.334376	-0.011290
O2	O	-0.204772	-0.256750	0.011214
O3	O	-0.204747	-0.334375	-0.066414
O4	O	-0.259880	-0.256752	0.066338
O5	O	-0.267796	-0.271324	-0.066407
O6	O	-0.267822	-0.193700	0.011221
O7	O	-0.322903	-0.271326	-0.011283
Zn8	Zn	-0.305373	-0.222502	-0.000030
Zn9	Zn	-0.222303	-0.305574	-0.000039
O10	O	-0.322929	-0.193702	0.066345
C11	C	-0.095943	0.006465	0.034094
C12	C	-0.118848	-0.016235	0.034417
C13	C	-0.027301	-0.062176	0.034097
C14	C	-0.050311	-0.084772	0.034420
C15	C	-0.095924	-0.062174	0.034099
C16	C	-0.050330	-0.016236	0.034415
C17	C	-0.137887	0.159560	0.021655
C18	C	-0.159497	0.202921	0.018138
C19	C	-0.204697	0.224672	0.016374
C20	C	-0.228128	0.271680	0.012552
C21	C	-0.228287	0.203062	0.018130
C22	C	-0.206678	0.159710	0.021653
C23	C	-0.161476	0.137958	0.023415
C24	C	-0.207065	-0.116516	0.021677
C25	C	-0.228810	-0.141634	0.018165
C26	C	-0.205350	-0.188604	0.016402
C27	C	-0.228920	-0.215847	0.012587
C28	C	-0.160144	-0.210451	0.018156
C29	C	-0.138404	-0.185329	0.021676
C30	C	-0.161869	-0.138359	0.023433
C31	C	0.138198	-0.116522	0.021668
C32	C	0.185071	-0.141646	0.018149
C33	C	0.208593	-0.188615	0.016388
C34	C	0.259415	-0.215859	0.012569
C35	C	0.185242	-0.210461	0.018142
C36	C	0.138371	-0.185338	0.021659
C37	C	0.114852	-0.138364	0.023426
C38	C	-0.138047	0.090946	0.027231
C39	C	-0.119372	0.053474	0.030274
C40	C	0.023519	-0.089416	0.030281
C41	C	0.064029	-0.111128	0.027240
C42	C	-0.119498	-0.089413	0.030284
C43	C	-0.138290	-0.111124	0.027245
C44	C	-0.364281	-0.388121	-0.023604
C45	C	-0.340906	-0.361508	-0.020382
C46	C	-0.341354	-0.434066	-0.023930
C47	C	-0.432903	-0.388122	-0.023605
C48	C	-0.482899	-0.361511	-0.020383
C49	C	-0.409872	-0.434067	-0.023931
C50	C	-0.364258	-0.456770	-0.023612
C51	C	-0.340857	-0.503556	-0.020399
C52	C	-0.409895	-0.365522	-0.023922
C53	C	-0.321952	-0.541354	-0.017802
C54	C	-0.322022	-0.340006	-0.017777
C55	C	-0.523291	-0.340010	-0.017779
C56	C	-0.298235	-0.588774	-0.014544
C57	C	-0.298330	-0.313032	-0.014510
C58	C	-0.573964	-0.313038	-0.014513
C59	C	-0.095800	-0.466212	-0.438584
C60	C	-0.050178	-0.512156	-0.461507
C61	C	-0.095800	-0.466212	-0.369941
C62	C	-0.050178	-0.512156	-0.392968
C63	C	-0.027155	-0.534859	-0.438590
C64	C	-0.118719	-0.443613	-0.392961
C65	C	-0.206996	-0.342589	-0.480488
C66	C	-0.228756	-0.317316	-0.502091
C67	C	-0.205300	-0.339009	-0.547300
C68	C	-0.228888	-0.311603	-0.570723
C69	C	-0.160084	-0.385979	-0.570907
C70	C	-0.138331	-0.411252	-0.549306
C71	C	-0.161789	-0.389555	-0.504094
C72	C	0.138378	-0.687973	-0.549793
C73	C	0.185256	-0.731338	-0.571555
C74	C	0.208774	-0.753091	-0.548103
C75	C	0.259602	-0.800105	-0.571692
C76	C	0.185408	-0.731479	-0.502888
C77	C	0.138531	-0.688121	-0.481130
C78	C	0.115019	-0.666368	-0.504588
C79	C	-0.206996	-0.342589	-0.204397
C80	C	-0.228754	-0.317312	-0.157516
C81	C	-0.205298	-0.339005	-0.134002
C82	C	-0.228886	-0.311599	-0.083170
C83	C	-0.160085	-0.385971	-0.157370
C84	C	-0.138329	-0.411244	-0.204250
C85	C	-0.161791	-0.389551	-0.227761
C86	C	-0.138195	-0.416961	-0.480673
C87	C	-0.119390	-0.438807	-0.462005
C88	C	-0.119390	-0.438806	-0.319111
C89	C	-0.138195	-0.416961	-0.278594
C90	C	0.023673	-0.581873	-0.462183
C91	C	0.064189	-0.619350	-0.480989
O92	O	0.408892	-0.271335	-0.011291
O93	O	0.276164	-0.193713	0.011202
O94	O	0.353788	-0.271346	-0.066421
O95	O	0.331268	-0.193702	0.066332
O96	O	0.353804	-0.334389	-0.066416
O97	O	0.276180	-0.256756	0.011207
O98	O	0.408909	-0.334378	-0.011287
Zn99	Zn	0.342547	-0.305577	-0.000039
Zn100	Zn	0.342525	-0.222514	-0.000045
O101	O	0.331285	-0.256745	0.066337
O102	O	-0.322789	0.397311	-0.011322
O103	O	-0.267652	0.287070	0.011181
O104	O	-0.267645	0.287053	-0.066446
O105	O	-0.322796	0.397328	0.066305
O106	O	-0.204617	0.287052	-0.066448
O107	O	-0.204623	0.287069	0.011179
O108	O	-0.259761	0.397310	-0.011323
Zn109	Zn	-0.222185	0.342189	-0.000072
Zn110	Zn	-0.305227	0.342190	-0.000070
O111	O	-0.259767	0.397327	0.066304
O112	O	0.409102	-0.925752	-0.602685
O113	O	0.276362	-0.815495	-0.547552
O114	O	0.353957	-0.815494	-0.547549
O115	O	0.331508	-0.925753	-0.602687
O116	O	0.353958	-0.815495	-0.610597
O117	O	0.276364	-0.815497	-0.610599
O118	O	0.409104	-0.925753	-0.665732
Zn119	Zn	0.342734	-0.870625	-0.648176
Zn120	Zn	0.342732	-0.870623	-0.565108
O121	O	0.331509	-0.925755	-0.665734
O122	O	-0.259884	-0.256748	-0.665371
O123	O	-0.204747	-0.334374	-0.610256
O124	O	-0.204774	-0.256748	-0.610246
O125	O	-0.259856	-0.334374	-0.665381
O126	O	-0.267822	-0.193699	-0.547193
O127	O	-0.267795	-0.271325	-0.547203
O128	O	-0.322932	-0.193699	-0.602318
Zn129	Zn	-0.305373	-0.222501	-0.564749
Zn130	Zn	-0.222305	-0.305572	-0.647825
O131	O	-0.322904	-0.271325	-0.602328
C132	C	-0.433012	-0.071312	0.293214
C133	C	-0.483015	-0.024526	0.316610
C134	C	-0.409989	-0.094015	0.316131
C135	C	-0.364367	-0.139959	0.224565
C136	C	-0.340973	-0.166572	0.174561
C137	C	-0.341448	-0.162558	0.247586
C138	C	-0.364367	-0.139958	0.293208
C139	C	-0.340975	-0.166570	0.316597
C140	C	-0.409989	-0.094015	0.247592
C141	C	-0.322076	-0.188070	0.335493
C142	C	-0.523412	0.013271	0.335510
C143	C	-0.322074	-0.188072	0.134162
C144	C	-0.298366	-0.215043	0.359199
C145	C	-0.574092	0.060690	0.359223
C146	C	-0.298363	-0.215046	0.083480
C147	C	0.318955	-0.139932	0.293205
C148	C	0.322181	-0.166538	0.316599
C149	C	0.318623	-0.093991	0.316121
C150	C	0.318954	-0.139942	0.224557
C151	C	0.322178	-0.166559	0.174553
C152	C	0.318622	-0.094001	0.247578
C153	C	0.318937	-0.071293	0.293200
C154	C	0.322144	-0.024510	0.316589
C155	C	0.318639	-0.162535	0.247583
C156	C	0.324736	0.013286	0.335485
C157	C	0.324788	-0.188034	0.335499
C158	C	0.324784	-0.188063	0.134154
C159	C	0.327986	0.060702	0.359190
C160	C	0.328058	-0.215001	0.359211
C161	C	0.328052	-0.215041	0.083473
C162	C	-0.364297	0.611920	0.293175
C163	C	-0.340923	0.638535	0.316567
C164	C	-0.409912	0.634522	0.316094
C165	C	-0.364271	0.543265	0.224529
C166	C	-0.340868	0.496473	0.174524
C167	C	-0.409886	0.565970	0.247552
C168	C	-0.432919	0.611919	0.293175
C169	C	-0.482916	0.638534	0.316567
C170	C	-0.341368	0.565971	0.247553
C171	C	-0.523308	0.660036	0.335465
C172	C	-0.322039	0.660038	0.335466
C173	C	-0.321962	0.458670	0.134125
C174	C	-0.573982	0.687011	0.359174
C175	C	-0.298348	0.687014	0.359175
C176	C	-0.298242	0.411245	0.083443
C177	C	0.376737	-0.534611	-0.438589
C178	C	0.377051	-0.511913	-0.461511
C179	C	0.376720	-0.465962	-0.369947
C180	C	0.377034	-0.443368	-0.392973
C181	C	0.376719	-0.465971	-0.438594
C182	C	0.377053	-0.511904	-0.392968
C183	C	0.364352	-0.687713	-0.480496
C184	C	0.360850	-0.731076	-0.502099
C185	C	0.359092	-0.752833	-0.547308
C186	C	0.355286	-0.799845	-0.570731
C187	C	0.360839	-0.731227	-0.570913
C188	C	0.364347	-0.687871	-0.549312
C189	C	0.366103	-0.666114	-0.504101
C190	C	0.364277	-0.411646	-0.549793
C191	C	0.360757	-0.386530	-0.571553
C192	C	0.358980	-0.339558	-0.548101
C193	C	0.355156	-0.312319	-0.571688
C194	C	0.360728	-0.317705	-0.502887
C195	C	0.364256	-0.342824	-0.481130
C196	C	0.366028	-0.389796	-0.504588
C197	C	0.364286	-0.411596	-0.204405
C198	C	0.360761	-0.386467	-0.157524
C199	C	0.358986	-0.339494	-0.134010
C200	C	0.355163	-0.312244	-0.083178
C201	C	0.360731	-0.317651	-0.157377
C202	C	0.364253	-0.342780	-0.204256
C203	C	0.366035	-0.389757	-0.227768
C204	C	0.369903	-0.619098	-0.480680
C205	C	0.372933	-0.581623	-0.462011
C206	C	0.372899	-0.438715	-0.319117
C207	C	0.369854	-0.416999	-0.278600
C208	C	0.372895	-0.438736	-0.462185
C209	C	0.369849	-0.417028	-0.480991
O210	O	0.353784	-0.271259	0.452826
O211	O	0.331275	-0.193653	0.397692
O212	O	0.408895	-0.271274	0.397688
O213	O	0.276165	-0.193638	0.452830
O214	O	0.408910	-0.334327	0.334642
O215	O	0.331290	-0.256706	0.334646
O216	O	0.353800	-0.334312	0.389780
Zn217	Zn	0.342547	-0.305520	0.352203
Zn218	Zn	0.342527	-0.222445	0.435269
O219	O	0.276180	-0.256691	0.389784
C220	C	-0.027256	-0.062279	-0.438625
C221	C	-0.050263	-0.084881	-0.461544
C222	C	-0.095904	0.006376	-0.369978
C223	C	-0.118807	-0.016330	-0.393002
C224	C	-0.095878	-0.062279	-0.438624
C225	C	-0.050289	-0.016330	-0.393002
C226	C	0.138246	-0.116629	-0.480543
C227	C	0.185118	-0.141752	-0.502150
C228	C	0.208644	-0.188731	-0.547359
C229	C	0.259468	-0.215979	-0.570786
C230	C	0.185294	-0.210584	-0.570962
C231	C	0.138424	-0.185457	-0.549358
C232	C	0.114900	-0.138477	-0.504146
C233	C	-0.137737	-0.185914	-0.549816
C234	C	-0.159327	-0.211190	-0.571575
C235	C	-0.204527	-0.189498	-0.548119
C236	C	-0.227937	-0.216902	-0.571704
C237	C	-0.228139	-0.142523	-0.502904
C238	C	-0.206553	-0.117243	-0.481150
C239	C	-0.161347	-0.138947	-0.504611
C240	C	-0.137866	0.159511	-0.204438
C241	C	-0.159479	0.202879	-0.157556
C242	C	-0.204681	0.224635	-0.134039
C243	C	-0.228118	0.271655	-0.083207
C244	C	-0.228266	0.203019	-0.157403
C245	C	-0.206650	0.159651	-0.204283
C246	C	-0.161450	0.137903	-0.227798
C247	C	0.064077	-0.111238	-0.480721
C248	C	0.023567	-0.089523	-0.462049
C249	C	-0.119338	0.053397	-0.319148
C250	C	-0.138018	0.090879	-0.278631
C251	C	-0.119285	-0.089687	-0.462213
C252	C	-0.137942	-0.111535	-0.481016
H253	H	-0.226175	-0.078272	0.023109
Cl254	Cl	0.214869	-0.269638	-0.627795
Cl255	Cl	-0.283506	0.536636	0.219011
H256	H	-0.031822	-0.121736	0.034940
Cl257	Cl	-0.283500	-0.463382	-0.024700
H258	H	-0.156329	0.002771	0.034939
H259	H	0.359420	-0.748659	-0.482874
Cl260	Cl	0.317862	-0.219613	0.219046
H261	H	0.318102	-0.075007	0.229089
H262	H	0.119415	-0.203250	-0.568578
Cl263	Cl	0.358628	-0.758579	-0.627744
H264	H	-0.100931	-0.203587	-0.568923
H265	H	-0.101515	-0.449485	-0.223273
Cl266	Cl	0.214625	-0.758502	-0.628391
Cl267	Cl	0.214425	-0.114183	0.015938
Cl268	Cl	-0.285592	-0.258270	-0.128142
H269	H	0.377572	-0.530900	-0.374482
Cl270	Cl	-0.285108	0.230410	0.015916
H271	H	-0.101082	0.141855	0.023091
H272	H	0.318099	-0.074986	0.353607
H273	H	-0.303964	-0.199528	0.229097
Cl274	Cl	0.358564	-0.413927	-0.128151
H275	H	-0.428473	-0.075006	0.353619
Cl276	Cl	-0.129827	0.230048	-0.128187
H277	H	-0.225888	0.142120	0.023085
Cl278	Cl	-0.130589	-0.413233	-0.127807
Cl279	Cl	-0.285092	0.230367	-0.127840
Cl280	Cl	-0.438445	-0.308443	-0.024711
Cl281	Cl	-0.438527	-0.064685	0.219054
H282	H	-0.265615	-0.123843	0.016736
H283	H	-0.141045	-0.248692	0.016727
H284	H	-0.428355	0.546965	0.229066
Cl285	Cl	-0.438463	0.691604	0.373969
H286	H	-0.140097	-0.249438	-0.608387
H287	H	0.377537	-0.406397	-0.374487
Cl288	Cl	0.377892	-0.541279	-0.519396
Cl289	Cl	-0.284964	-0.115246	-0.473417
H290	H	-0.101599	-0.203118	0.023107
H291	H	0.359333	-0.404326	-0.608366
H292	H	0.119051	-0.078275	0.023105
Cl293	Cl	0.366522	-0.470649	-0.233962
Cl294	Cl	-0.129841	0.230080	0.015927
Cl295	Cl	0.366564	-0.660367	-0.423662
H296	H	0.365681	-0.325029	-0.444317
Cl297	Cl	0.366546	-0.660714	-0.578987
Cl298	Cl	0.366505	-0.470694	-0.579282
H299	H	0.359287	-0.279462	-0.483793
Cl300	Cl	0.366449	-0.315320	-0.233629
Cl301	Cl	-0.021772	0.013010	-0.364463
H302	H	-0.140992	-0.403639	-0.607717
H303	H	0.359283	-0.279401	-0.138228
Cl304	Cl	0.214968	-0.758828	-0.473407
Cl305	Cl	0.109018	-0.212802	0.023866
Cl306	Cl	-0.176670	0.013006	-0.364463
H307	H	-0.031767	-0.121860	-0.499027
Cl308	Cl	0.214811	-0.269511	0.015927
Cl309	Cl	-0.081042	0.132169	-0.233999
Cl310	Cl	0.108677	-0.057570	-0.423709
H311	H	0.204125	-0.123956	-0.482930
Cl312	Cl	-0.021626	-0.541468	-0.364422
H313	H	-0.225782	-0.078995	-0.444337
H314	H	-0.031859	0.002767	0.034933
Cl315	Cl	-0.236302	0.132482	-0.233653
H316	H	-0.428346	-0.453064	-0.024446
H317	H	-0.031696	-0.531156	-0.498992
H318	H	-0.156199	-0.406634	-0.374471
H319	H	-0.226101	-0.324919	-0.443676
Cl320	Cl	-0.285592	-0.258271	-0.472413
Cl321	Cl	-0.236490	-0.315316	-0.233953
H322	H	-0.101518	-0.449495	-0.568529
H323	H	0.119237	-0.670267	-0.568897
H324	H	0.119509	-0.670529	-0.444318
