data_functionalizedCrystal
_audit_creation_method	'MofGen! by Chris Wilmer'
_symmetry_space_group_name_H-M	'P1'
_symmetry_Int_Tables_number	1
_symmetry_cell_setting	triclinic
loop_
_symmetry_equiv_pos_as_xyz
  x,y,z
_cell_length_a	10.654550
_cell_length_b	10.489741
_cell_length_c	9.130313
_cell_angle_alpha	89.999004
_cell_angle_beta	89.996220
_cell_angle_gamma	84.512038
loop_
_atom_site_label
_atom_site_type_symbol
_atom_site_fract_x
_atom_site_fract_y
_atom_site_fract_z
O1	O	1.667918	0.179156	-0.121919
O2	O	1.302447	0.196226	-0.121895
O3	O	1.493499	0.002089	-0.121899
O4	O	1.476867	0.373293	-0.121915
O5	O	1.493497	0.002094	0.121700
O6	O	1.302445	0.196231	0.121703
O7	O	1.667916	0.179161	0.121680
Cu8	Cu	1.485180	0.187697	0.143934
Cu9	Cu	1.485183	0.187690	-0.144150
O10	O	1.476864	0.373298	0.121683
C11	C	1.255648	0.194975	-0.000093
C12	C	1.116203	0.191225	-0.000084
C13	C	1.036771	0.305530	-0.000110
C14	C	0.905748	0.301999	-0.000135
C15	C	0.933603	0.069849	-0.000114
C16	C	1.064623	0.073381	-0.000078
C17	C	1.020688	0.439560	-0.000129
C18	C	0.889665	0.436029	-0.000154
C19	C	1.492241	-0.045439	-0.000100
C20	C	1.488483	-0.187067	-0.000103
C21	C	1.366923	-0.255148	-0.000106
C22	C	1.424346	-0.347296	0.119997
C23	C	1.424377	-0.347276	-0.120172
C24	C	1.545956	-0.277349	0.120099
C25	C	1.545970	-0.277320	-0.120178
C26	C	1.603481	-0.369440	-0.000045
C27	C	1.714715	0.180412	-0.000126
C28	C	1.854160	0.184162	-0.000145
C29	C	1.478122	0.420826	-0.000118
C30	C	1.481880	0.562454	-0.000126
N31	N	1.485187	0.187700	0.346557
N32	N	1.485186	0.187677	-0.346772
C33	C	1.569807	0.101766	0.423207
C34	C	1.569803	0.101751	0.576544
C35	C	1.400557	0.273615	0.576567
C36	C	1.400555	0.273623	0.423232
C37	C	1.667524	0.002545	0.423195
C38	C	1.667520	0.002530	0.576532
H39	H	1.056364	0.482235	-0.105303
C40	C	0.827981	0.490750	0.141907
H41	H	0.891175	0.517570	0.205185
H42	H	0.785469	0.426576	0.189112
H43	H	0.769255	0.561883	0.119059
C44	C	1.060352	0.510387	0.137578
H45	H	0.987756	0.537106	0.194199
H46	H	1.101170	0.583169	0.109255
H47	H	1.116589	0.454568	0.194249
C48	C	1.638484	-0.129894	0.366967
H49	H	1.626530	-0.184364	0.447895
H50	H	1.706962	-0.166140	0.309158
H51	H	1.564022	-0.120878	0.309174
H52	H	1.597363	-0.246302	-0.221728
H53	H	1.372927	-0.378217	-0.221719
H54	H	1.636964	-0.090122	0.624085
C55	C	1.354865	-0.389163	0.257171
H56	H	1.270822	-0.349660	0.257034
H57	H	1.397243	-0.364063	0.342459
H58	H	1.353643	-0.479599	0.256625
C59	C	1.307467	0.368143	0.338921
H60	H	1.257075	0.419318	0.406551
H61	H	1.254783	0.321760	0.279106
H62	H	1.353121	0.421685	0.279108
C63	C	0.833333	0.504073	-0.137991
H64	H	0.899075	0.534459	-0.194658
H65	H	0.775319	0.574213	-0.109857
H66	H	0.790872	0.445461	-0.194540
H67	H	0.891590	-0.026096	-0.000132
C68	C	1.307477	0.368130	0.660914
H69	H	1.319600	0.355823	0.763213
H70	H	1.223537	0.353488	0.635788
H71	H	1.321890	0.453399	0.635791
H72	H	1.266977	-0.205449	0.000022
C73	C	1.790724	0.044500	0.358926
H74	H	1.845591	0.063172	0.436411
H75	H	1.772247	0.118778	0.300367
H76	H	1.830353	-0.022585	0.300366
C77	C	1.797903	0.032058	0.632754
H78	H	1.851523	0.044225	0.551823
H79	H	1.833610	-0.037495	0.690545
H80	H	1.789009	0.107683	0.690563
H81	H	1.597345	-0.246540	0.221751
H82	H	1.129293	-0.019697	-0.000036
H83	H	1.703518	-0.418912	0.000015
