data_functionalizedCrystal
_audit_creation_method	'MofGen! by Chris Wilmer'
_symmetry_space_group_name_H-M	'P1'
_symmetry_Int_Tables_number	1
_symmetry_cell_setting	triclinic
loop_
_symmetry_equiv_pos_as_xyz
  x,y,z
_cell_length_a	11.026607
_cell_length_b	15.995350
_cell_length_c	9.482900
_cell_angle_alpha	99.336743
_cell_angle_beta	78.636152
_cell_angle_gamma	96.039196
loop_
_atom_site_label
_atom_site_type_symbol
_atom_site_fract_x
_atom_site_fract_y
_atom_site_fract_z
O1	O	1.629075	0.340363	-0.120882
O2	O	2.129075	0.840363	0.379118
O3	O	1.275769	0.300437	-0.120885
O4	O	1.775769	0.800437	0.379115
O5	O	1.462080	0.199968	-0.120882
O6	O	1.962080	0.699968	0.379118
O7	O	1.442765	0.440832	-0.120885
O8	O	1.942765	0.940832	0.379115
O9	O	1.424236	0.220481	0.120910
O10	O	1.924236	0.720481	0.620910
O11	O	1.237926	0.320950	0.120907
O12	O	1.737926	0.820950	0.620907
O13	O	1.591231	0.360875	0.120910
O14	O	2.091231	0.860875	0.620910
Cu15	Cu	1.411123	0.342785	0.142986
Cu16	Cu	1.911123	0.842785	0.642986
Cu17	Cu	1.455878	0.318527	-0.142961
Cu18	Cu	1.955878	0.818527	0.357039
O19	O	1.404921	0.461344	0.120907
O20	O	1.904921	0.961344	0.620907
C21	C	1.211637	0.303328	0.000010
C22	C	1.711637	0.803328	0.500010
C23	C	1.076923	0.281371	0.000009
C24	C	1.576923	0.781371	0.500009
C25	C	1.003118	0.341997	0.000007
C26	C	1.503118	0.841997	0.500007
C27	C	0.863884	0.319305	0.000005
C28	C	1.363884	0.819305	0.500005
C29	C	1.442360	0.178909	0.000011
C30	C	1.942360	0.678909	0.500011
C31	C	1.439967	0.085597	0.000003
C32	C	1.939967	0.585597	0.500003
C33	C	1.431369	-0.253446	0.000008
C34	C	1.931369	0.246554	0.500008
C35	C	1.298767	-0.226057	-0.000536
C36	C	1.798767	0.273943	0.499464
C37	C	1.301076	-0.128960	0.000009
C38	C	1.801076	0.371040	0.500009
C39	C	1.435634	-0.085243	0.000005
C40	C	1.935634	0.414757	0.500005
C41	C	1.479470	-0.104742	0.138078
C42	C	1.979470	0.395258	0.638078
C43	C	1.476118	-0.201871	0.138193
C44	C	1.976118	0.298129	0.638193
C45	C	1.521895	-0.225142	-0.136769
C46	C	2.021895	0.274858	0.363231
C47	C	1.522149	-0.128356	-0.138594
C48	C	2.022149	0.371644	0.361406
C49	C	1.438051	0.009819	0.000008
C50	C	1.938051	0.509819	0.500008
C51	C	1.428954	-0.348507	0.000014
C52	C	1.928954	0.151493	0.500014
C53	C	1.655364	0.357984	0.000012
C54	C	2.155364	0.857984	0.500012
C55	C	1.790080	0.379940	0.000004
C56	C	2.290080	0.879940	0.500004
C57	C	1.424641	0.482403	0.000011
C58	C	1.924641	0.982403	0.500011
C59	C	1.427036	0.575714	0.000009
C60	C	1.927036	1.075714	0.500009
N61	N	1.379654	0.359848	0.344106
N62	N	1.879654	0.859848	0.844106
N63	N	1.487357	0.301459	-0.344081
N64	N	1.987357	0.801459	0.155919
C65	C	1.446587	0.323554	0.416306
C66	C	1.946587	0.823554	0.916306
C67	C	1.420413	0.337759	0.583723
C68	C	1.920413	0.837759	1.083723
H69	H	1.043008	0.410702	0.000014
H70	H	1.543008	0.910702	0.500014
H71	H	0.824003	0.250594	-0.000031
H72	H	1.324003	0.750594	0.499969
H73	H	1.302967	0.401433	0.406234
H74	H	1.802967	0.901433	0.906234
O75	O	0.842893	0.470956	-0.000002
O76	O	1.342893	0.970956	0.499998
H77	H	0.943966	0.474498	-0.000012
H78	H	1.443966	0.974498	0.499988
H79	H	1.261230	-0.260983	-0.099551
H80	H	1.761230	0.239017	0.400449
H81	H	1.523265	0.281962	0.354179
H82	H	2.023265	0.781962	0.854179
O83	O	1.024102	0.190361	0.000010
O84	O	1.524102	0.690361	0.500010
H85	H	0.923032	0.186819	-0.000000
H86	H	1.423032	0.686819	0.500000
H87	H	1.577522	-0.075281	0.143209
H88	H	2.077522	0.424719	0.643209
H89	H	1.564039	0.259864	0.593796
H90	H	2.064039	0.759864	1.093796
O91	O	1.253425	-0.112693	-0.131073
O92	O	1.753425	0.387307	0.368927
H93	H	1.228518	-0.174268	-0.195424
H94	H	1.728518	0.325732	0.304576
H95	H	1.230558	-0.245256	0.097926
H96	H	1.730558	0.254744	0.597926
H97	H	1.417932	-0.074495	0.240830
H98	H	1.917932	0.425505	0.740830
H99	H	1.343722	0.379346	0.645846
H100	H	1.843722	0.879346	1.145846
O101	O	1.211945	-0.091233	0.131352
O102	O	1.711945	0.408767	0.631352
H103	H	1.167030	-0.142349	0.194734
H104	H	1.667030	0.357651	0.694734
H105	H	1.619870	-0.242236	-0.137701
H106	H	2.119870	0.257764	0.362299
O107	O	1.391496	-0.224056	0.274899
O108	O	1.891496	0.275944	0.774899
H109	H	1.353343	-0.165447	0.340300
H110	H	1.853343	0.334553	0.840300
O111	O	1.603845	-0.224442	0.146523
O112	O	2.103845	0.275558	0.646523
H113	H	1.667729	-0.165999	0.150462
H114	H	2.167729	0.334001	0.650462
H115	H	1.494892	-0.261099	-0.241421
H116	H	1.994892	0.238901	0.258579
H117	H	1.490286	-0.116985	-0.240737
H118	H	1.990286	0.383015	0.259263
O119	O	1.653864	-0.089365	-0.149653
O120	O	2.153864	0.410635	0.350347
H121	H	1.659749	-0.038425	-0.056113
H122	H	2.159749	0.461575	0.443887
