data_functionalizedCrystal
_audit_creation_method	'MofGen! by Chris Wilmer'
_symmetry_space_group_name_H-M	'P1'
_symmetry_Int_Tables_number	1
_symmetry_cell_setting	triclinic
loop_
_symmetry_equiv_pos_as_xyz
  x,y,z
_cell_length_a	19.288864
_cell_length_b	10.654550
_cell_length_c	17.766277
_cell_angle_alpha	89.994852
_cell_angle_beta	89.976791
_cell_angle_gamma	83.810575
loop_
_atom_site_label
_atom_site_type_symbol
_atom_site_fract_x
_atom_site_fract_y
_atom_site_fract_z
O1	O	0.922379	0.156657	-0.062834
O2	O	0.720257	0.177789	-0.062782
O3	O	0.825965	-0.015616	-0.062807
O4	O	0.816670	0.350062	-0.062810
O5	O	0.825946	-0.015625	0.062382
O6	O	0.720238	0.177780	0.062406
O7	O	0.922360	0.156647	0.062355
Cu8	Cu	0.821297	0.167212	0.073811
Cu9	Cu	0.821319	0.167224	-0.074239
O10	O	0.816652	0.350052	0.062379
C11	C	0.694366	0.177105	-0.000181
C12	C	0.617249	0.175063	-0.000162
C13	C	0.573296	0.288545	-0.000175
C14	C	0.500836	0.286627	-0.000183
C15	C	0.472333	0.171222	-0.000193
C16	C	0.516296	0.057725	-0.000176
C17	C	0.588754	0.059646	-0.000160
C18	C	0.363484	0.080503	-0.044077
C19	C	0.291027	0.078587	-0.044098
C20	C	0.248849	0.165292	-0.000239
C21	C	0.279135	0.253934	0.043630
C22	C	0.351593	0.255855	0.043646
C23	C	0.393766	0.169126	-0.000210
C24	C	0.126326	0.276702	-0.000260
C25	C	0.053865	0.274779	-0.000263
C26	C	0.069327	0.045875	-0.000264
C27	C	0.141786	0.047800	-0.000253
C28	C	0.170281	0.163217	-0.000254
C29	C	0.825273	-0.062404	-0.000213
C30	C	0.823231	-0.201803	-0.000215
C31	C	0.885471	-0.282621	-0.000229
C32	C	0.883548	-0.413601	-0.000234
C33	C	0.757141	-0.382932	-0.000208
C34	C	0.759065	-0.251955	-0.000208
C35	C	0.949637	-0.232470	-0.000235
C36	C	1.011882	-0.313290	-0.000248
C37	C	1.009959	-0.444269	-0.000253
C38	C	0.945792	-0.494429	-0.000245
C39	C	0.948250	0.157332	-0.000248
C40	C	1.025367	0.159373	-0.000273
C41	C	0.817344	0.396840	-0.000216
C42	C	0.819385	0.536240	-0.000219
N43	N	0.821287	0.167203	0.177941
N44	N	0.821335	0.167223	-0.178369
C45	C	0.868110	0.081606	0.217318
C46	C	0.868114	0.081600	0.296119
C47	C	0.821301	0.167213	0.335542
C48	C	0.774469	0.252818	0.296156
C49	C	0.774462	0.252813	0.217356
C50	C	0.812752	0.281634	0.460380
C51	C	0.812764	0.281641	0.539179
C52	C	0.821320	0.167229	0.578588
C53	C	0.829879	0.052804	0.539189
C54	C	0.829871	0.052799	0.460389
C55	C	0.821304	0.167228	0.420988
C56	C	0.868150	0.081617	0.703410
C57	C	0.868149	0.081610	0.782214
C58	C	0.774508	0.252839	0.782249
C59	C	0.774506	0.252835	0.703447
C60	C	0.821330	0.167226	0.664033
H61	H	0.149528	0.370681	-0.000250
H62	H	0.836845	-0.040361	0.571274
H63	H	1.064124	-0.272440	-0.000274
O64	O	0.687939	-0.437038	-0.000187
H65	H	0.658008	-0.404557	-0.051207
H66	H	0.906275	0.011905	0.671318
O67	O	0.943720	-0.635702	-0.000247
H68	H	0.915942	-0.663615	-0.051267
O69	O	0.803547	0.405048	0.581673
H70	H	0.797587	0.484605	0.541033
H71	H	0.736390	0.322542	0.814346
H72	H	0.708384	-0.186150	-0.000196
O73	O	0.189199	-0.074599	-0.000243
H74	H	0.179033	-0.129843	-0.051272
O75	O	0.918602	-0.010741	0.174804
H76	H	0.951157	-0.070274	0.215429
O77	O	0.918661	-0.010705	0.824690
H78	H	0.951224	-0.070217	0.784041
O79	O	0.038595	-0.078603	-0.000266
H80	H	0.056240	-0.133121	-0.051283
H81	H	1.060642	-0.510069	-0.000271
O82	O	0.453416	0.409028	-0.000205
H83	H	0.485403	0.489605	-0.000208
H84	H	0.736380	0.322542	0.671385
H85	H	0.266373	0.006415	-0.079822
O86	O	0.838966	-0.070683	0.417966
H87	H	0.792478	-0.078415	0.382159
O88	O	0.723988	0.345169	0.338679
H89	H	0.733309	0.443019	0.323532
H90	H	0.596492	0.382526	-0.000177
O91	O	0.636168	-0.062755	-0.000150
H92	H	0.604179	-0.143330	-0.000161
H93	H	0.906244	0.011893	0.328185
H94	H	0.805772	0.374809	0.428300
H95	H	0.736332	0.322518	0.185295
H96	H	0.376250	0.328027	0.079369
H97	H	0.244795	0.324537	0.079345
H98	H	0.018079	0.367194	-0.000269
H99	H	0.397820	0.009895	-0.079796
O100	O	0.485560	-0.066752	-0.000188
H101	H	0.427791	-0.049024	-0.000209
H102	H	0.951210	-0.125822	-0.000229
