data_functionalizedCrystal
_audit_creation_method	'MofGen! by Chris Wilmer'
_symmetry_space_group_name_H-M	'P1'
_symmetry_Int_Tables_number	1
_symmetry_cell_setting	triclinic
loop_
_symmetry_equiv_pos_as_xyz
  x,y,z
_cell_length_a	29.839135
_cell_length_b	29.839131
_cell_length_c	29.839135
_cell_angle_alpha	89.999332
_cell_angle_beta	89.988440
_cell_angle_gamma	90.043247
loop_
_atom_site_label
_atom_site_type_symbol
_atom_site_fract_x
_atom_site_fract_y
_atom_site_fract_z
Zn1	Zn	-0.686701	0.178970	0.254050
Zn2	Zn	-0.186701	0.678970	0.754050
Zn3	Zn	-0.686639	0.254060	0.178920
Zn4	Zn	-0.186639	0.754060	0.678920
Zn5	Zn	-0.611589	0.178947	0.178928
Zn6	Zn	-0.111589	0.678947	0.678928
Zn7	Zn	-0.611532	0.254076	0.254017
Zn8	Zn	-0.111532	0.754076	0.754017
O9	O	-0.649115	0.216513	0.216479
O10	O	-0.149115	0.716513	0.716479
O11	O	-0.749560	0.188934	0.244095
O12	O	-0.249560	0.688934	0.744095
O13	O	-0.676681	0.244079	0.116054
O14	O	-0.176681	0.744079	0.616054
O15	O	-0.621603	0.116083	0.188910
O16	O	-0.121603	0.616083	0.688910
O17	O	-0.749514	0.244102	0.188897
O18	O	-0.249514	0.744102	0.688897
O19	O	-0.676788	0.116100	0.244102
O20	O	-0.176788	0.616100	0.744102
O21	O	-0.621543	0.188894	0.116060
O22	O	-0.121543	0.688894	0.616060
O23	O	-0.548715	0.188910	0.188878
O24	O	-0.048715	0.688910	0.688878
O25	O	-0.621505	0.244130	0.316888
O26	O	-0.121505	0.744130	0.816888
O27	O	-0.548672	0.244107	0.244045
O28	O	-0.048672	0.744107	0.744045
O29	O	-0.676731	0.188950	0.316913
O30	O	-0.176731	0.688950	0.816913
O31	O	-0.676625	0.316929	0.188865
O32	O	-0.176625	0.816929	0.688865
O33	O	-0.621444	0.316941	0.244038
O34	O	-0.121444	0.816941	0.744038
C35	C	-0.532393	0.216508	0.216459
C36	C	-0.032393	0.716508	0.716459
C37	C	-0.482458	0.216517	0.216461
C38	C	0.017542	0.716517	0.716461
C39	C	-0.172836	0.187825	0.245260
C40	C	0.327164	0.687825	0.745260
C41	C	0.014837	0.187826	0.245272
C42	C	0.514837	0.687826	0.745272
O43	O	0.039085	0.163423	0.269738
O44	O	0.539085	0.663423	0.769738
N45	N	0.038327	0.216505	0.216492
N46	N	0.538327	0.716505	0.716492
C47	C	0.014895	0.245185	0.187705
C48	C	0.514895	0.745185	0.687705
O49	O	0.039181	0.269575	0.163223
O50	O	0.539181	0.769575	0.663223
C51	C	-0.172777	0.245181	0.187691
C52	C	0.327223	0.745181	0.687691
C53	C	-0.196264	0.216503	0.216476
C54	C	0.303736	0.716503	0.716476
C55	C	-0.196323	0.159149	0.274043
C56	C	0.303677	0.659149	0.774043
C57	C	-0.243238	0.159150	0.274042
C58	C	0.256762	0.659150	0.774042
C59	C	-0.266666	0.187829	0.245257
C60	C	0.233334	0.687829	0.745257
C61	C	-0.243179	0.216505	0.216475
C62	C	0.256821	0.716505	0.716475
C63	C	-0.196208	0.273858	0.158902
C64	C	0.303792	0.773858	0.658902
C65	C	-0.243129	0.273854	0.158900
C66	C	0.256871	0.773854	0.658900
C67	C	-0.266616	0.245175	0.187685
C68	C	0.233384	0.745175	0.687685
C69	C	-0.313523	0.245185	0.187689
C70	C	0.186477	0.745185	0.687689
N71	N	-0.337013	0.216505	0.216469
N72	N	0.162987	0.716505	0.716469
C73	C	-0.313584	0.187827	0.245253
C74	C	0.186416	0.687827	0.745253
C75	C	0.113426	0.245185	0.187715
C76	C	0.613426	0.745185	0.687715
C77	C	0.160344	0.245186	0.187719
C78	C	0.660344	0.745186	0.687719
C79	C	0.160283	0.187827	0.245286
C80	C	0.660283	0.687827	0.745286
C81	C	0.113364	0.187828	0.245284
C82	C	0.613364	0.687828	0.745284
C83	C	0.089936	0.216505	0.216495
C84	C	0.589936	0.716505	0.716495
C85	C	-0.412110	0.187833	0.245248
C86	C	0.087890	0.687833	0.745248
C87	C	-0.459030	0.187839	0.245245
C88	C	0.040970	0.687839	0.745245
C89	C	-0.458965	0.245197	0.187677
C90	C	0.041035	0.745197	0.687677
C91	C	-0.412049	0.245193	0.187681
C92	C	0.087951	0.745193	0.687681
C93	C	-0.388623	0.216508	0.216468
C94	C	0.111377	0.716508	0.716468
O95	O	-0.337799	0.269571	0.163233
O96	O	0.162201	0.769571	0.663233
O97	O	-0.337878	0.163433	0.269725
O98	O	0.162122	0.663433	0.769725
C99	C	-0.125920	0.187823	0.245262
C100	C	0.374080	0.687823	0.745262
C101	C	-0.102433	0.216499	0.216479
C102	C	0.397567	0.716499	0.716479
C103	C	-0.125861	0.245177	0.187695
C104	C	0.374139	0.745177	0.687695
C105	C	-0.055515	0.216501	0.216483
C106	C	0.444485	0.716501	0.716483
C107	C	-0.032087	0.187823	0.245267
C108	C	0.467913	0.687823	0.745267
C109	C	-0.055576	0.159143	0.274048
C110	C	0.444424	0.659143	0.774048
C111	C	-0.102492	0.159145	0.274046
C112	C	0.397508	0.659145	0.774046
C113	C	-0.102372	0.273857	0.158915
C114	C	0.397628	0.773857	0.658915
C115	C	-0.055456	0.273853	0.158919
C116	C	0.444544	0.773853	0.658919
C117	C	-0.032028	0.245175	0.187703
C118	C	0.467972	0.745175	0.687703
C119	C	-0.649034	0.333236	0.216457
C120	C	-0.149034	0.833236	0.716457
C121	C	-0.649040	0.383170	0.216462
C122	C	-0.149040	0.883170	0.716462
C123	C	-0.649119	0.216544	0.333657
C124	C	-0.149119	0.716544	0.833657
C125	C	-0.649120	0.216557	0.383592
C126	C	-0.149120	0.716557	0.883592
C127	C	0.233707	0.216515	0.216498
C128	C	0.733707	0.716515	0.716498
C129	C	0.183772	0.216508	0.216503
C130	C	0.683772	0.716508	0.716503
C131	C	-0.649209	0.099335	0.216511
C132	C	-0.149209	0.599335	0.716511
C133	C	-0.649249	0.049400	0.216525
C134	C	-0.149249	0.549400	0.716525
C135	C	-0.677900	0.692795	0.187792
C136	C	-0.177900	1.192795	0.687792
C137	C	-0.677955	0.880468	0.187810
C138	C	-0.177955	1.380468	0.687810
O139	O	-0.702429	0.904716	0.163416
O140	O	-0.202429	1.404716	0.663416
N141	N	-0.649208	0.903955	0.216513
N142	N	-0.149208	1.403955	0.716513
C143	C	-0.620447	0.880522	0.245216
C144	C	-0.120447	1.380522	0.745216
O145	O	-0.596000	0.904805	0.269633
O146	O	-0.096000	1.404805	0.769633
C147	C	-0.620394	0.692849	0.245200
C148	C	-0.120394	1.192849	0.745200
C149	C	-0.649140	0.669364	0.216492
C150	C	-0.149140	1.169364	0.716492
C151	C	-0.706644	0.669309	0.159087
C152	C	-0.206644	1.169309	0.659087
C153	C	-0.706628	0.622394	0.159081
C154	C	-0.206628	1.122394	0.659081
C155	C	-0.677868	0.598964	0.187781
C156	C	-0.177868	1.098964	0.687781
C157	C	-0.649124	0.622449	0.216486
C158	C	-0.149124	1.122449	0.716486
C159	C	-0.591636	0.669417	0.273905
C160	C	-0.091636	1.169417	0.773905
C161	C	-0.591626	0.622496	0.273899
C162	C	-0.091626	1.122496	0.773899
C163	C	-0.620372	0.599011	0.245191
C164	C	-0.120372	1.099011	0.745191
C165	C	-0.620349	0.552103	0.245180
C166	C	-0.120349	1.052103	0.745180
N167	N	-0.649096	0.528616	0.216477
N168	N	-0.149096	1.028616	0.716477
C169	C	-0.677856	0.552046	0.187777
C170	C	-0.177856	1.052046	0.687777
C171	C	-0.620476	0.979052	0.245221
C172	C	-0.120476	1.479052	0.745221
C173	C	-0.620489	1.025970	0.245224
C174	C	-0.120489	1.525970	0.745224
C175	C	-0.677998	1.025913	0.187819
C176	C	-0.177998	1.525913	0.687819
C177	C	-0.677983	0.978994	0.187814
C178	C	-0.177983	1.478994	0.687814
C179	C	-0.649224	0.955565	0.216518
C180	C	-0.149224	1.455565	0.716518
C181	C	-0.677820	0.453520	0.187767
C182	C	-0.177820	0.953520	0.687767
C183	C	-0.677800	0.406600	0.187762
C184	C	-0.177800	0.906600	0.687762
C185	C	-0.620293	0.406662	0.245169
C186	C	-0.120293	0.906662	0.745169
C187	C	-0.620311	0.453577	0.245172
C188	C	-0.120311	0.953577	0.745172
C189	C	-0.649078	0.477005	0.216470
C190	C	-0.149078	0.977005	0.716470
O191	O	-0.595892	0.527825	0.269564
O192	O	-0.095892	1.027825	0.769564
O193	O	-0.702306	0.527754	0.163370
O194	O	-0.202306	1.027754	0.663370
C195	C	-0.677916	0.739710	0.187798
C196	C	-0.177916	1.239710	0.687798
C197	C	-0.649172	0.763195	0.216504
C198	C	-0.149172	1.263195	0.716504
C199	C	-0.620412	0.739765	0.245203
C200	C	-0.120412	1.239765	0.745203
C201	C	-0.649185	0.810113	0.216507
C202	C	-0.149185	1.310113	0.716507
C203	C	-0.677944	0.833543	0.187807
C204	C	-0.177944	1.333543	0.687807
C205	C	-0.706692	0.810056	0.159104
C206	C	-0.206692	1.310056	0.659104
C207	C	-0.706676	0.763140	0.159098
C208	C	-0.206676	1.263140	0.659098
C209	C	-0.591665	0.763252	0.273906
C210	C	-0.091665	1.263252	0.773906
C211	C	-0.591683	0.810168	0.273909
C212	C	-0.091683	1.310168	0.773909
C213	C	-0.620443	0.833598	0.245210
C214	C	-0.120443	1.333598	0.745210
C215	C	-0.620358	0.245254	0.740166
C216	C	-0.120358	0.745254	1.240166
C217	C	-0.620361	0.245270	0.552493
C218	C	-0.120361	0.745270	1.052493
O219	O	-0.595896	0.269692	0.528218
O220	O	-0.095896	0.769692	1.028218
N221	N	-0.649115	0.216543	0.529037
N222	N	-0.149115	0.716543	1.029037
C223	C	-0.677868	0.187808	0.552502
C224	C	-0.177868	0.687808	1.052502
O225	O	-0.702322	0.163371	0.528245
O226	O	-0.202322	0.663371	1.028245
C227	C	-0.677863	0.187790	0.740174
C228	C	-0.177863	0.687790	1.240174
C229	C	-0.649110	0.216522	0.763628
C230	C	-0.149110	0.716522	1.263628
C231	C	-0.591608	0.273984	0.763620
C232	C	-0.091608	0.773984	1.263620
C233	C	-0.591609	0.273981	0.810535
C234	C	-0.091609	0.773981	1.310535
C235	C	-0.620361	0.245249	0.833997
C236	C	-0.120361	0.745249	1.333997
C237	C	-0.649111	0.216520	0.810543
C238	C	-0.149111	0.716520	1.310543
C239	C	-0.706613	0.159053	0.763638
C240	C	-0.206613	0.659053	1.263638
C241	C	-0.706608	0.159050	0.810559
C242	C	-0.206608	0.659050	1.310559
C243	C	-0.677856	0.187783	0.834013
C244	C	-0.177856	0.687783	1.334013
C245	C	-0.677865	0.187785	0.880920
C246	C	-0.177865	0.687785	1.380920
N247	N	-0.649111	0.216512	0.904376
N248	N	-0.149111	0.716512	1.404376
C249	C	-0.620359	0.245244	0.880915
C250	C	-0.120359	0.745244	1.380915
C251	C	-0.677870	0.187820	0.453971
C252	C	-0.177870	0.687820	0.953971
C253	C	-0.677872	0.187825	0.407053
C254	C	-0.177872	0.687825	0.907053
C255	C	-0.620364	0.245287	0.407048
C256	C	-0.120364	0.745287	0.907048
C257	C	-0.620365	0.245284	0.453966
C258	C	-0.120365	0.745284	0.953966
C259	C	-0.649116	0.216547	0.477427
C260	C	-0.149116	0.716547	0.977427
C261	C	-0.620364	0.245237	0.979441
C262	C	-0.120364	0.745237	1.479441
C263	C	-0.620369	0.245233	1.026360
C264	C	-0.120369	0.745233	1.526360
C265	C	-0.677875	0.187770	1.026362
C266	C	-0.177875	0.687770	1.526362
C267	C	-0.677872	0.187775	0.979446
C268	C	-0.177872	0.687775	1.479446
C269	C	-0.649112	0.216510	0.955987
C270	C	-0.149112	0.716510	1.455987
O271	O	-0.702313	0.163373	0.905225
O272	O	-0.202313	0.663373	1.405225
O273	O	-0.595902	0.269671	0.905180
O274	O	-0.095902	0.769671	1.405180
C275	C	-0.620357	0.245257	0.693251
C276	C	-0.120357	0.745257	1.193251
C277	C	-0.649108	0.216528	0.669797
C278	C	-0.149108	0.716528	1.169797
C279	C	-0.677859	0.187795	0.693258
C280	C	-0.177859	0.687795	1.193258
C281	C	-0.649110	0.216532	0.622879
C282	C	-0.149110	0.716532	1.122879
C283	C	-0.620358	0.245265	0.599417
C284	C	-0.120358	0.745265	1.099417
C285	C	-0.591604	0.273992	0.622873
C286	C	-0.091604	0.773992	1.122873
C287	C	-0.591605	0.273989	0.669789
C288	C	-0.091605	0.773989	1.169789
C289	C	-0.706613	0.159068	0.669802
C290	C	-0.206613	0.659068	1.169802
C291	C	-0.706610	0.159074	0.622887
C292	C	-0.206610	0.659074	1.122887
C293	C	-0.677858	0.187806	0.599425
C294	C	-0.177858	0.687806	1.099425
C295	C	-0.649112	0.216498	1.099756
C296	C	-0.149112	0.716498	1.599756
C297	C	-0.649121	0.216501	1.049822
C298	C	-0.149121	0.716501	1.549822
H299	H	-0.262201	0.297206	0.135456
H300	H	0.237799	0.797206	0.635456
H301	H	-0.568226	0.688530	0.297280
H302	H	-0.068226	1.188530	0.797280
H303	H	-0.568207	0.603422	0.297275
H304	H	-0.068207	1.103422	0.797275
H305	H	-0.177092	0.297210	0.135461
H306	H	0.322908	0.797210	0.635461
O307	O	-0.737625	0.128083	0.597591
O308	O	-0.237625	0.628083	1.097591
H309	H	-0.757613	0.108102	0.621793
H310	H	-0.257613	0.608102	1.121793
H311	H	0.179366	0.164476	0.268723
H312	H	0.679366	0.664476	0.768723
H313	H	-0.392925	0.268550	0.164247
H314	H	0.107075	0.768550	0.664247
H315	H	0.094356	0.268539	0.164270
H316	H	0.594356	0.768539	0.664270
H317	H	-0.478048	0.268547	0.164243
H318	H	0.021952	0.768547	0.664243
O319	O	-0.737639	0.597066	0.128124
O320	O	-0.237639	1.097066	0.628124
H321	H	-0.757642	0.621247	0.108175
H322	H	-0.257642	1.121247	0.608175
H323	H	-0.730083	0.744022	0.135722
H324	H	-0.230083	1.244022	0.635722
H325	H	-0.597056	0.959979	0.268596
H326	H	-0.097056	1.459979	0.768596
H327	H	-0.036493	0.135794	0.297486
H328	H	0.463507	0.635794	0.797486
H329	H	-0.596942	0.268632	0.960346
H330	H	-0.096942	0.768632	1.460346
O331	O	-0.589476	1.051295	0.276183
O332	O	-0.089476	1.551295	0.776183
H333	H	-0.594310	1.087858	0.271364
H334	H	-0.094310	1.587858	0.771364
H335	H	-0.730027	0.135657	0.744550
H336	H	-0.230027	0.635657	1.244550
O337	O	-0.708995	0.953669	0.156855
O338	O	-0.208995	1.453669	0.656855
H339	H	-0.731830	0.932271	0.176987
H340	H	-0.231830	1.432271	0.676987
O341	O	-0.268565	0.128209	0.305081
O342	O	0.231435	0.628209	0.805081
H343	H	-0.259559	0.135971	0.340327
H344	H	0.240441	0.635971	0.840327
O345	O	-0.560586	0.304975	0.738327
O346	O	-0.060586	0.804975	1.238327
H347	H	-0.580668	0.327840	0.716955
H348	H	-0.080668	0.827840	1.216955
H349	H	-0.177252	0.135793	0.297483
H350	H	0.322748	0.635793	0.797483
H351	H	-0.701415	1.044998	0.164451
H352	H	-0.201415	1.544998	0.664451
H353	H	-0.121611	0.135792	0.297486
H354	H	0.378389	0.635792	0.797486
H355	H	-0.730066	0.688381	0.135716
H356	H	-0.230066	1.188381	0.635716
H357	H	-0.568271	0.829286	0.297287
H358	H	-0.068271	1.329286	0.797287
H359	H	0.094244	0.164475	0.268722
H360	H	0.594244	0.664475	0.768722
O361	O	-0.589307	0.478912	0.276134
O362	O	-0.089307	0.978912	0.776134
H363	H	-0.569307	0.454735	0.296091
H364	H	-0.069307	0.954735	0.796091
H365	H	-0.121442	0.297210	0.135474
H366	H	0.378558	0.797210	0.635474
H367	H	0.179463	0.268544	0.164284
H368	H	0.679463	0.768544	0.664284
O369	O	-0.030125	0.304784	0.127867
O370	O	0.469875	0.804784	0.627867
H371	H	-0.054303	0.324719	0.107849
H372	H	0.445697	0.824719	0.607849
O373	O	-0.708809	0.381269	0.156801
O374	O	-0.208809	0.881269	0.656801
H375	H	-0.728813	0.405447	0.136850
H376	H	-0.228813	0.905447	0.636850
H377	H	-0.701246	0.472590	0.164395
H378	H	-0.201246	0.972590	0.664395
O379	O	-0.560633	0.737989	0.304856
O380	O	-0.060633	1.237989	0.804856
H381	H	-0.568304	0.746985	0.340125
H382	H	-0.068304	1.246985	0.840125
O383	O	-0.589276	0.381387	0.276126
O384	O	-0.089276	0.881387	0.776126
H385	H	-0.594102	0.344817	0.271300
H386	H	-0.094102	0.844817	0.771300
O387	O	-0.737721	0.835331	0.128157
O388	O	-0.237721	1.335331	0.628157
H389	H	-0.732905	0.871900	0.132993
H390	H	-0.232905	1.371900	0.632993
H391	H	-0.596955	0.268632	1.045454
H392	H	-0.096955	0.768632	1.545454
O393	O	-0.560590	0.304964	0.835830
O394	O	-0.060590	0.804964	1.335830
H395	H	-0.540595	0.324936	0.811627
H396	H	-0.040595	0.824936	1.311627
H397	H	-0.596952	0.268680	0.473059
H398	H	-0.096952	0.768680	0.973059
H399	H	-0.393042	0.164474	0.268688
H400	H	0.106958	0.664474	0.768688
H401	H	-0.701285	0.164379	1.045473
H402	H	-0.201285	0.664379	1.545473
O403	O	-0.560591	0.304977	0.695082
O404	O	-0.060591	0.804977	1.195082
H405	H	-0.537750	0.284869	0.716453
H406	H	-0.037750	0.784869	1.216453
O407	O	-0.589348	0.276274	0.381739
O408	O	-0.089348	0.776274	0.881739
H409	H	-0.594180	0.271444	0.345175
H410	H	-0.094180	0.771444	0.845175
O411	O	-0.708888	0.156840	0.381758
O412	O	-0.208888	0.656840	0.881758
H413	H	-0.728876	0.136859	0.405959
H414	H	-0.228876	0.636859	0.905959
H415	H	-0.701285	0.164419	0.473069
H416	H	-0.201285	0.664419	0.973069
O417	O	-0.708883	0.156788	0.954145
O418	O	-0.208883	0.656788	1.454145
H419	H	-0.728874	0.136807	0.978344
H420	H	-0.228874	0.636807	1.478344
H421	H	-0.730020	0.135647	0.829658
H422	H	-0.230020	0.635647	1.329658
H423	H	-0.568195	0.297388	0.603763
H424	H	-0.068195	0.797388	1.103763
O425	O	-0.737629	0.128081	0.695105
O426	O	-0.237629	0.628081	1.195105
H427	H	-0.757623	0.108111	0.670908
H428	H	-0.257623	0.608111	1.170908
H429	H	-0.478151	0.164485	0.268687
H430	H	0.021849	0.664485	0.768687
