data_functionalizedCrystal
_audit_creation_method	'MofGen! by Chris Wilmer'
_symmetry_space_group_name_H-M	'P1'
_symmetry_Int_Tables_number	1
_symmetry_cell_setting	triclinic
loop_
_symmetry_equiv_pos_as_xyz
  x,y,z
_cell_length_a	14.044191
_cell_length_b	14.044190
_cell_length_c	9.798715
_cell_angle_alpha	90.008237
_cell_angle_beta	90.001336
_cell_angle_gamma	93.191777
loop_
_atom_site_label
_atom_site_type_symbol
_atom_site_fract_x
_atom_site_fract_y
_atom_site_fract_z
O1	O	1.277177	0.230199	0.113453
O2	O	1.777177	0.730199	0.613453
O3	O	1.000505	0.221886	0.113470
O4	O	1.500505	0.721886	0.613470
O5	O	1.134685	0.087706	0.113435
O6	O	1.634685	0.587706	0.613435
O7	O	1.142997	0.364379	0.113488
O8	O	1.642997	0.864379	0.613488
O9	O	1.134674	0.087704	-0.113547
O10	O	1.634674	0.587704	0.386453
O11	O	1.000494	0.221884	-0.113513
O12	O	1.500494	0.721884	0.386487
O13	O	1.277166	0.230197	-0.113529
O14	O	1.777166	0.730197	0.386471
Zn15	Zn	1.138828	0.226040	-0.149559
Zn16	Zn	1.638828	0.726040	0.350441
Zn17	Zn	1.138843	0.226043	0.149500
Zn18	Zn	1.638843	0.726043	0.649500
O19	O	1.142986	0.364377	-0.113494
O20	O	1.642986	0.864377	0.386506
C21	C	0.964877	0.218249	-0.000020
C22	C	1.464877	0.718249	0.499980
C23	C	0.858734	0.207401	-0.000015
C24	C	1.358734	0.707401	0.499985
C25	C	0.613277	0.264502	-0.000017
C26	C	1.113277	0.764502	0.499983
C27	C	0.664400	0.187585	-0.000030
C28	C	1.164400	0.687585	0.499970
C29	C	0.772537	0.198614	-0.000021
C30	C	1.272537	0.698614	0.499979
C31	C	0.505130	0.253475	-0.000026
C32	C	1.005130	0.753475	0.499974
C33	C	1.131043	0.052083	-0.000060
C34	C	1.631043	0.552083	0.499940
C35	C	1.120195	-0.054060	-0.000071
C36	C	1.620195	0.445940	0.499929
C37	C	1.177296	-0.299517	-0.000021
C38	C	1.677296	0.200483	0.499979
C39	C	1.100379	-0.248394	-0.000026
C40	C	1.600379	0.251606	0.499974
C41	C	1.111408	-0.140257	-0.000051
C42	C	1.611408	0.359743	0.499949
C43	C	1.166269	-0.407664	0.000004
C44	C	1.666269	0.092336	0.500004
C45	C	1.312794	0.233834	-0.000036
C46	C	1.812794	0.733834	0.499964
C47	C	1.418937	0.244682	-0.000032
C48	C	1.918937	0.744682	0.499968
C49	C	1.146628	0.400000	0.000004
C50	C	1.646628	0.900000	0.500004
C51	C	1.157476	0.506143	0.000024
C52	C	1.657476	1.006143	0.500024
N53	N	1.138825	0.226039	-0.353659
N54	N	1.638825	0.726039	0.146341
C55	C	1.198666	0.285594	-0.421429
C56	C	1.698666	0.785594	0.078571
C57	C	1.198681	0.285594	-0.578591
C58	C	1.698681	0.785594	-0.078591
N59	N	1.138853	0.226038	0.353600
N60	N	1.638853	0.726038	0.853600
H61	H	0.650720	0.338629	0.000001
H62	H	1.150720	0.838629	0.500001
N63	N	1.074597	0.162050	-0.573303
N64	N	1.574597	0.662050	-0.073303
N65	N	1.078265	0.074017	-0.589167
N66	N	1.578265	0.574017	-0.089167
H67	H	1.032887	0.028822	-0.537530
H68	H	1.532887	0.528822	-0.037530
N69	N	1.007385	-0.295375	-0.000035
N70	N	1.507385	0.204625	0.499965
N71	N	0.982598	-0.350182	-0.095708
N72	N	1.482598	0.149818	0.404292
H73	H	0.916923	-0.383367	-0.095721
H74	H	1.416923	0.116633	0.404279
H75	H	1.251423	-0.262074	-0.000040
H76	H	1.751423	0.237926	0.499960
H77	H	1.249891	0.336578	-0.363097
H78	H	1.749891	0.836578	0.136903
H79	H	0.626955	0.113453	0.000052
H80	H	1.126955	0.613453	0.500052
H81	H	1.249909	0.336587	-0.636872
H82	H	1.749909	0.836587	-0.136872
H83	H	1.087607	0.175049	-0.411990
H84	H	1.587607	0.675049	0.088010
