data_functionalizedCrystal
_audit_creation_method	'MofGen! by Chris Wilmer'
_symmetry_space_group_name_H-M	'P1'
_symmetry_Int_Tables_number	1
_symmetry_cell_setting	triclinic
loop_
_symmetry_equiv_pos_as_xyz
  x,y,z
_cell_length_a	17.699097
_cell_length_b	19.188925
_cell_length_c	16.176319
_cell_angle_alpha	89.993545
_cell_angle_beta	89.988988
_cell_angle_gamma	83.215490
loop_
_atom_site_label
_atom_site_type_symbol
_atom_site_fract_x
_atom_site_fract_y
_atom_site_fract_z
O1	O	1.003954	0.088339	-0.068815
O2	O	0.783562	0.099816	-0.068801
O3	O	0.900120	-0.007571	-0.068804
O4	O	0.887396	0.195726	-0.068812
O5	O	0.900104	-0.007578	0.068690
O6	O	0.783546	0.099810	0.068692
O7	O	1.003938	0.088332	0.068679
Cu8	Cu	0.893741	0.094070	0.081240
Cu9	Cu	0.893760	0.094078	-0.081362
O10	O	0.887380	0.195719	0.068681
C11	C	0.755358	0.099400	-0.000053
C12	C	0.671342	0.098162	-0.000047
C13	C	0.155642	0.090574	-0.075028
C14	C	0.234585	0.091733	-0.075024
C15	C	0.274041	0.092310	-0.000073
C16	C	0.234552	0.091720	0.074879
C17	C	0.155612	0.090556	0.074874
C18	C	0.552910	0.096413	0.074900
C19	C	0.631856	0.097580	0.074899
C20	C	0.631883	0.097590	-0.074997
C21	C	0.552943	0.096426	-0.075002
C22	C	0.513461	0.095833	-0.000051
C23	C	0.427863	0.094575	-0.000057
C24	C	0.359637	0.093573	-0.000067
C25	C	0.899701	-0.033586	-0.000057
C26	C	0.898466	-0.111092	-0.000059
C27	C	0.958590	-0.672792	-0.000084
C28	C	0.959757	-0.599968	-0.000076
C29	C	0.891364	-0.555113	-0.000072
C30	C	0.821799	-0.583088	-0.000055
C31	C	0.820634	-0.655911	-0.000054
N32	N	0.841856	-0.434488	-0.046868
N33	N	0.842967	-0.365309	-0.046871
C34	C	0.894870	-0.335700	-0.000073
N35	N	0.945630	-0.377884	0.046717
N36	N	0.944521	-0.447069	0.046716
C37	C	0.892619	-0.476147	-0.000073
C38	C	0.965695	-0.228768	-0.000077
C39	C	0.966859	-0.155942	-0.000064
C40	C	0.828900	-0.139063	-0.000051
C41	C	0.827738	-0.211888	-0.000055
C42	C	0.896138	-0.256737	-0.000072
C43	C	1.032143	0.088748	-0.000072
C44	C	1.116158	0.089987	-0.000082
C45	C	0.887799	0.221734	-0.000067
C46	C	0.889034	0.299240	-0.000071
N47	N	0.893733	0.094064	0.195605
N48	N	0.893773	0.094079	-0.195727
C49	C	0.945360	0.046532	0.238868
C50	C	0.945364	0.046532	0.325415
C51	C	0.893744	0.094066	0.368697
C52	C	0.842111	0.141600	0.325428
C53	C	0.842104	0.141597	0.238883
C54	C	0.842136	0.141614	0.674457
C55	C	0.842149	0.141614	0.761008
C56	C	0.945397	0.046548	0.760989
C57	C	0.945390	0.046545	0.674443
C58	C	0.893755	0.094076	0.631182
C59	C	0.893750	0.094075	0.537338
C60	C	0.893751	0.094071	0.462540
H61	H	0.266730	0.092206	-0.136053
H62	H	1.014286	-0.709304	-0.000093
F63	F	0.113656	0.089965	-0.154803
H64	H	1.021391	-0.265286	-0.000090
H65	H	0.266685	0.092186	0.135905
F66	F	0.510954	0.095815	-0.154775
H67	H	0.664039	0.098070	-0.136026
F68	F	0.746600	-0.685677	-0.000041
H69	H	0.800076	0.180302	0.360674
F70	F	0.787204	0.192209	0.807071
F71	F	1.033790	-0.570196	-0.000082
F72	F	1.040894	-0.126178	-0.000080
H73	H	0.123464	0.090086	0.135902
F74	F	0.749011	-0.535349	-0.000047
H75	H	0.773213	-0.102543	-0.000041
F76	F	0.753706	-0.241654	-0.000048
H77	H	0.987399	0.007827	0.203633
F78	F	1.000350	-0.004042	0.807037
F79	F	1.000311	-0.004058	0.371459
H80	H	0.987427	0.007840	0.639205
H81	H	0.800095	0.180316	0.639240
H82	H	0.663979	0.098049	0.135937
F83	F	0.510899	0.095797	0.154670
F84	F	0.787152	0.192185	0.192840
