data_functionalizedCrystal
_audit_creation_method	'MofGen! by Chris Wilmer'
_symmetry_space_group_name_H-M	'P1'
_symmetry_Int_Tables_number	1
_symmetry_cell_setting	triclinic
loop_
_symmetry_equiv_pos_as_xyz
  x,y,z
_cell_length_a	14.971487
_cell_length_b	26.210047
_cell_length_c	14.971494
_cell_angle_alpha	89.993775
_cell_angle_beta	96.384020
_cell_angle_gamma	89.997125
loop_
_atom_site_label
_atom_site_type_symbol
_atom_site_fract_x
_atom_site_fract_y
_atom_site_fract_z
O1	O	-1.186955	0.042354	0.116552
O2	O	-0.926555	0.042371	0.130510
O3	O	-1.063731	0.042361	-0.006668
O4	O	-1.049780	0.042364	0.253731
O5	O	-1.063704	-0.042497	-0.006647
O6	O	-0.926529	-0.042487	0.130532
O7	O	-1.186929	-0.042504	0.116574
Cu8	Cu	-1.056726	-0.050244	0.123555
Cu9	Cu	-1.056758	0.050111	0.123529
O10	O	-1.049753	-0.042494	0.253752
C11	C	-0.893218	-0.000056	0.129897
C12	C	-0.793920	-0.000050	0.128026
C13	C	-0.736698	-0.000049	0.208615
C14	C	-0.643398	-0.000055	0.206851
C15	C	-0.607323	-0.000059	0.124498
C16	C	-0.664553	-0.000061	0.043903
C17	C	-0.757851	-0.000059	0.045668
C18	C	-0.470091	-0.000066	0.040232
C19	C	-0.376787	-0.000068	0.038467
C20	C	-0.355638	-0.000063	0.201415
C21	C	-0.448936	-0.000060	0.203180
C22	C	-0.506159	-0.000061	0.122584
N23	N	-1.056711	-0.120828	0.123572
C24	C	-1.117493	-0.473346	0.062800
C25	C	-1.117512	-0.687005	0.062788
O26	O	-1.169157	-0.714631	0.011122
N27	N	-1.056762	-0.713722	0.123510
C28	C	-0.995999	-0.687021	0.184235
O29	O	-0.944322	-0.714648	0.235876
C30	C	-0.995976	-0.473363	0.184242
C31	C	-1.056736	-0.446649	0.123523
C32	C	-1.178247	-0.446632	0.002085
C33	C	-1.178245	-0.393221	0.002092
C34	C	-1.117488	-0.366523	0.062814
C35	C	-1.056734	-0.393238	0.123530
C36	C	-0.935209	-0.446663	0.244963
C37	C	-0.935207	-0.393245	0.244957
C38	C	-0.995967	-0.366531	0.184238
C39	C	-0.995975	-0.313129	0.184259
N40	N	-1.056725	-0.286412	0.123537
C41	C	-1.117482	-0.313109	0.062815
C42	C	-0.996017	-0.799194	0.184228
C43	C	-0.996024	-0.852608	0.184227
C44	C	-1.117536	-0.852589	0.062779
C45	C	-1.117533	-0.799174	0.062785
C46	C	-1.056767	-0.772477	0.123506
C47	C	-1.117473	-0.200941	0.062835
C48	C	-1.117468	-0.147525	0.062850
C49	C	-0.995953	-0.147549	0.184294
C50	C	-0.995960	-0.200961	0.184283
C51	C	-1.056724	-0.227656	0.123546
O52	O	-0.944351	-0.285470	0.235891
O53	O	-1.169138	-0.285473	0.011168
C54	C	-1.117495	-0.526758	0.062793
C55	C	-1.056741	-0.553472	0.123509
C56	C	-0.995984	-0.526775	0.184231
C57	C	-1.056747	-0.606886	0.123508
C58	C	-1.117504	-0.633583	0.062786
C59	C	-1.178254	-0.606867	0.002064
C60	C	-1.178252	-0.553455	0.002071
C61	C	-0.935234	-0.553491	0.244953
C62	C	-0.935242	-0.606903	0.244942
C63	C	-0.995999	-0.633600	0.184219
C64	C	-0.220267	-0.000073	0.117187
C65	C	-0.319564	-0.000067	0.119056
C66	C	-1.063092	-0.000067	-0.039982
C67	C	-1.061219	-0.000065	-0.139279
N68	N	-1.056780	0.120695	0.123505
C69	C	-1.060355	0.046192	-0.185935
C70	C	-1.058588	0.046193	-0.279234
C71	C	-1.057692	-0.000064	-0.325876
C72	C	-1.058554	-0.046324	-0.279213
C73	C	-1.060313	-0.046325	-0.185915
C74	C	-1.054888	-0.046321	-0.473676
C75	C	-1.053129	-0.046321	-0.566981
C76	C	-1.053163	0.046196	-0.566996
C77	C	-1.054923	0.046196	-0.473697
C78	C	-1.055785	-0.000064	-0.427041
C79	C	-1.050392	-0.000065	0.287066
C80	C	-1.052266	-0.000064	0.386363
H81	H	-0.478304	-0.000052	0.270239
H82	H	-1.057818	-0.083987	-0.317195
H83	H	-0.596810	-0.000054	0.272475
H84	H	-0.309041	-0.000064	0.267039
O85	O	-0.930497	-0.881416	0.249730
H86	H	-0.940707	-0.923044	0.239541
O87	O	-1.052167	-0.096215	-0.617277
H88	H	-1.112292	-0.098435	-0.667676
O89	O	-1.061255	-0.096215	-0.135586
H90	H	-1.060347	-0.128381	-0.183693
O91	O	-1.057650	0.096080	-0.329570
H92	H	-0.995921	0.098289	-0.364157
O93	O	-0.337871	-0.000079	-0.050353
H94	H	-0.393335	-0.000088	-0.106100
O95	O	-1.182997	-0.118711	-0.002649
H96	H	-1.225236	-0.146252	-0.044880
H97	H	-1.227718	-0.371473	-0.047353
O98	O	-1.183043	-0.770360	-0.002725
H99	H	-1.226560	-0.746020	0.034982
H100	H	-1.167008	-0.874335	0.013338
O101	O	-0.869697	-0.524700	0.310447
H102	H	-0.907389	-0.500364	0.353983
H103	H	-1.055659	0.083862	-0.435725
O104	O	-1.061312	0.096085	-0.135632
H105	H	-1.121891	0.118267	-0.161454
H106	H	-1.227723	-0.468364	-0.047366
H107	H	-0.946533	-0.777461	0.233677
H108	H	-0.766062	-0.000045	0.275676
O109	O	-1.183019	-0.229730	-0.002661
H110	H	-1.225268	-0.202174	-0.044866
O111	O	-0.869707	-0.475469	0.310486
H112	H	-0.827470	-0.447922	0.352708
H113	H	-0.516681	-0.000068	-0.025398
H114	H	-1.227728	-0.628612	-0.047376
H115	H	-1.055571	-0.083991	-0.435688
O116	O	-0.625647	-0.000071	-0.044922
H117	H	-0.648633	0.034512	-0.083667
O118	O	-0.819577	-0.000058	-0.041252
H119	H	-0.778820	-0.000056	-0.098815
H120	H	-0.885722	-0.371512	0.294403
H121	H	-0.946493	-0.222712	0.233735
O122	O	-1.052223	0.096094	-0.617308
H123	H	-1.050835	0.088325	-0.690018
H124	H	-0.946488	-0.125804	0.233736
H125	H	-1.227728	-0.531708	-0.047373
O126	O	-0.869728	-0.635714	0.310460
H127	H	-0.827486	-0.608171	0.352684
