data_functionalizedCrystal
_audit_creation_method	'MofGen! by Chris Wilmer'
_symmetry_space_group_name_H-M	'P1'
_symmetry_Int_Tables_number	1
_symmetry_cell_setting	triclinic
loop_
_symmetry_equiv_pos_as_xyz
  x,y,z
_cell_length_a	13.032721
_cell_length_b	19.805407
_cell_length_c	19.805399
_cell_angle_alpha	89.980427
_cell_angle_beta	82.844098
_cell_angle_gamma	82.795335
loop_
_atom_site_label
_atom_site_type_symbol
_atom_site_fract_x
_atom_site_fract_y
_atom_site_fract_z
Zn1	Zn	-0.416068	-1.000535	0.416943
Zn2	Zn	0.083932	-0.500535	0.916943
Zn3	Zn	-0.590828	-0.986084	0.318130
Zn4	Zn	-0.090828	-0.486084	0.818130
Zn5	Zn	-0.416097	-0.887347	0.303770
Zn6	Zn	0.083903	-0.387347	0.803770
Zn7	Zn	-0.590772	-0.872952	0.431272
Zn8	Zn	-0.090772	-0.372952	0.931272
O9	O	-0.503441	-0.936729	0.367529
O10	O	-0.003441	-0.436729	0.867529
O11	O	-0.439261	-1.093333	0.403849
O12	O	0.060739	-0.593333	0.903849
O13	O	-0.567684	-0.972963	0.221512
O14	O	-0.067684	-0.472963	0.721512
O15	O	-0.269853	-0.914433	0.306777
O16	O	0.230147	-0.414433	0.806777
O17	O	-0.567656	-1.082717	0.331251
O18	O	-0.067656	-0.582717	0.831251
O19	O	-0.269832	-0.997592	0.389925
O20	O	0.230168	-0.497592	0.889925
O21	O	-0.439310	-0.900421	0.210962
O22	O	0.060690	-0.400421	0.710962
O23	O	-0.439257	-0.790722	0.320671
O24	O	0.060743	-0.290722	0.820671
O25	O	-0.567562	-0.889899	0.524085
O26	O	-0.067562	-0.389899	1.024085
O27	O	-0.567590	-0.780146	0.414346
O28	O	-0.067590	-0.280146	0.914346
O29	O	-0.439207	-0.983634	0.513558
O30	O	0.060793	-0.483634	1.013558
O31	O	-0.737060	-0.959005	0.345145
O32	O	-0.237060	-0.459005	0.845145
O33	O	-0.737019	-0.875887	0.428270
O34	O	-0.237019	-0.375887	0.928270
C35	C	-0.503421	-0.760875	0.367506
C36	C	-0.003421	-0.260875	0.867506
C37	C	-0.503438	-0.685642	0.367514
C38	C	-0.003438	-0.185642	0.867514
C39	C	-0.774958	-0.914334	0.389835
C40	C	-0.274958	-0.414334	0.889835
C41	C	-0.891114	-0.904816	0.399401
C42	C	-0.391114	-0.404816	0.899401
C43	C	-0.503375	-0.936773	0.544066
C44	C	-0.003375	-0.436773	1.044066
C45	C	-0.503347	-0.936791	0.619296
C46	C	-0.003347	-0.436791	1.119296
C47	C	-0.942886	-0.941733	0.362567
C48	C	-0.442886	-0.441733	0.862567
C49	C	-1.062939	-0.931896	0.372453
C50	C	-0.562939	-0.431896	0.872453
C51	C	-0.230864	-0.959230	0.345151
C52	C	0.269136	-0.459230	0.845151
C53	C	-0.114708	-0.968819	0.335614
C54	C	0.385292	-0.468819	0.835614
C55	C	-0.503462	-1.113270	0.367553
C56	C	-0.003462	-0.613270	0.867553
C57	C	-0.503471	-1.188502	0.367563
C58	C	-0.003471	-0.688502	0.867563
C59	C	-0.570361	-0.644800	0.416228
C60	C	-0.070361	-0.144800	0.916228
C61	C	-0.570363	-0.574112	0.416238
C62	C	-0.070363	-0.074112	0.916238
C63	C	-0.503446	-0.544265	0.367529
C64	C	-0.003446	-0.044265	0.867529
C65	C	-0.436515	-0.585113	0.318812
C66	C	0.063485	-0.085113	0.818812
C67	C	-0.436508	-0.655800	0.318806
C68	C	0.063492	-0.155800	0.818806
C69	C	-0.436538	-0.300037	0.318836
C70	C	0.063462	0.199963	0.818836
C71	C	-0.436551	-0.229344	0.318845
C72	C	0.063449	0.270656	0.818845
C73	C	-0.570393	-0.218349	0.416269
C74	C	-0.070393	0.281651	0.916269
C75	C	-0.570386	-0.289036	0.416262
C76	C	-0.070386	0.210964	0.916262
C77	C	-0.503452	-0.329878	0.367548
C78	C	-0.003452	0.170122	0.867548
C79	C	-0.503449	-0.406526	0.367538
C80	C	-0.003449	0.093474	0.867538
C81	C	-0.503453	-0.467618	0.367535
C82	C	-0.003453	0.032382	0.867535
C83	C	-0.503431	-0.936731	0.191672
C84	C	-0.003431	-0.436731	0.691672
C85	C	-0.503165	-0.936868	0.116419
C86	C	-0.003165	-0.436868	0.616419
C87	C	-0.436510	-0.985600	0.649160
C88	C	0.063490	-0.485600	1.149160
C89	C	-0.436479	-0.985609	0.719846
C90	C	0.063521	-0.485609	1.219846
C91	C	-0.503293	-0.936813	0.760667
C92	C	-0.003293	-0.436813	1.260667
C93	C	-0.570133	-0.887999	0.730799
C94	C	-0.070133	-0.387999	1.230799
C95	C	-0.570157	-0.887987	0.660114
C96	C	-0.070157	-0.387987	1.160114
C97	C	-0.570036	-0.888045	1.015865
C98	C	-0.070036	-0.388045	1.515865
C99	C	-0.570008	-0.888062	1.086555
C100	C	-0.070008	-0.388062	1.586555
C101	C	-0.436358	-0.985668	1.075596
C102	C	0.063642	-0.485668	1.575596
C103	C	-0.436382	-0.985656	1.004911
C104	C	0.063618	-0.485656	1.504911
C105	C	-0.503218	-0.936840	0.975049
C106	C	-0.003218	-0.436840	1.475049
C107	C	-0.503249	-0.936830	0.898403
C108	C	-0.003249	-0.436830	1.398403
C109	C	-0.503268	-0.936825	0.837312
C110	C	-0.003268	-0.436825	1.337312
H111	H	-0.898333	-0.980626	0.323717
H112	H	-0.398333	-0.480626	0.823717
H113	H	-1.107490	-0.893007	0.411311
H114	H	-0.607490	-0.393007	0.911311
H115	H	-0.624881	-0.313333	0.455924
H116	H	-0.124881	0.186667	0.955924
H117	H	-0.381979	-1.025393	0.971677
H118	H	0.118021	-0.525393	1.471677
H119	H	-1.070157	-1.007714	0.296761
H120	H	-0.570157	-0.507714	0.796761
H121	H	-0.624890	-0.185087	0.455937
H122	H	-0.124890	0.314913	0.955937
O123	O	-0.642741	-0.530112	0.468725
O124	O	-0.142741	-0.030112	0.968725
H125	H	-0.625081	-0.545150	0.520438
H126	H	-0.125081	-0.045150	1.020438
H127	H	-0.624418	-0.848322	1.119791
H128	H	-0.124418	-0.348322	1.619791
O129	O	-0.364381	-0.197154	0.266298
O130	O	0.135619	0.302846	0.766298
H131	H	-0.375648	-0.141138	0.274481
H132	H	0.124352	0.358862	0.774481
O133	O	-0.364235	-1.038305	1.107800
O134	O	0.135765	-0.538305	1.607800
H135	H	-0.375422	-1.030110	1.163809
H136	H	0.124578	-0.530110	1.663809
H137	H	-0.624473	-0.848305	0.991561
H138	H	-0.124473	-0.348305	1.491561
H139	H	-0.935669	-0.865929	0.438256
H140	H	-0.435669	-0.365929	0.938256
O141	O	-0.364336	-0.552921	0.266278
O142	O	0.135664	-0.052921	0.766278
H143	H	-0.317791	-0.593200	0.232407
H144	H	0.182209	-0.093200	0.732407
H145	H	-0.382044	-0.333282	0.279165
H146	H	0.117956	0.166718	0.779165
O147	O	-0.364339	-0.699855	0.266257
O148	O	0.135661	-0.199855	0.766257
H149	H	-0.317818	-0.667226	0.232382
H150	H	0.182182	-0.167226	0.732382
H151	H	-0.624857	-0.669095	0.455891
H152	H	-0.124857	-0.169095	0.955891
H153	H	-0.382056	-1.025356	0.744157
H154	H	0.117944	-0.525356	1.244157
O155	O	-0.364447	-1.038231	0.605131
O156	O	0.135553	-0.538231	1.105131
H157	H	-0.317959	-1.072168	0.637775
H158	H	0.182041	-0.572168	1.137775
H159	H	-0.624573	-0.848236	0.635800
H160	H	-0.124573	-0.348236	1.135800
H161	H	-0.624530	-0.848265	0.764042
H162	H	-0.124530	-0.348265	1.264042
