data_functionalizedCrystal
_audit_creation_method	'MofGen! by Chris Wilmer'
_symmetry_space_group_name_H-M	'P1'
_symmetry_Int_Tables_number	1
_symmetry_cell_setting	triclinic
loop_
_symmetry_equiv_pos_as_xyz
  x,y,z
_cell_length_a	16.992694
_cell_length_b	10.540539
_cell_length_c	15.455313
_cell_angle_alpha	92.694186
_cell_angle_beta	87.142206
_cell_angle_gamma	87.596857
loop_
_atom_site_label
_atom_site_type_symbol
_atom_site_fract_x
_atom_site_fract_y
_atom_site_fract_z
O1	O	1.045302	0.264111	-0.072015
O2	O	0.817001	0.261155	-0.072041
O3	O	0.936360	0.078379	-0.072026
O4	O	0.925943	0.446887	-0.072030
O5	O	0.929534	0.088785	0.072235
O6	O	0.810175	0.271561	0.072220
O7	O	1.038476	0.274517	0.072246
Cu8	Cu	0.923702	0.273989	0.085405
Cu9	Cu	0.931774	0.261683	-0.085200
O10	O	0.919117	0.457293	0.072232
C11	C	0.784354	0.262557	0.000086
C12	C	0.697247	0.251216	0.000077
C13	C	0.647619	0.360636	0.000076
C14	C	0.565773	0.349973	0.000088
C15	C	0.533555	0.229889	0.000094
C16	C	0.583189	0.120461	0.000097
C17	C	0.665034	0.131125	0.000092
C18	C	0.289709	0.185692	0.000118
C19	C	0.207858	0.175036	0.000121
C20	C	0.190446	0.404549	0.000114
C21	C	0.272294	0.415202	0.000103
C22	C	0.321921	0.305774	0.000110
N23	N	0.449895	0.218988	0.000104
N24	N	0.405579	0.316677	0.000107
C25	C	0.932166	0.036211	0.000103
C26	C	0.929829	-0.104941	0.000098
C27	C	0.840284	-0.296163	-0.000236
C28	C	0.842638	-0.149316	0.000089
C29	C	0.967891	-0.157014	0.082483
C30	C	0.964912	-0.303812	0.082552
C31	C	0.974447	-0.316010	-0.081500
C32	C	0.975302	-0.169037	-0.082589
C33	C	1.071122	0.273115	0.000117
C34	C	1.158230	0.284456	0.000121
C35	C	0.923311	0.499461	0.000101
C36	C	0.925648	0.640612	0.000100
N37	N	0.918030	0.282645	0.205400
N38	N	0.937452	0.253018	-0.205195
C39	C	0.968756	0.205027	0.250801
C40	C	0.964474	0.211585	0.341608
C41	C	0.909469	0.295768	0.387013
C42	C	0.858738	0.373389	0.341607
C43	C	0.863017	0.366823	0.250801
C44	C	0.891000	0.324073	0.658593
C45	C	0.886727	0.330635	0.749405
C46	C	0.992462	0.168829	0.749400
C47	C	0.996739	0.162277	0.658592
C48	C	0.946005	0.239893	0.613193
N49	N	0.905093	0.302477	0.479833
N50	N	0.950379	0.233177	0.520375
H51	H	0.525368	0.439075	0.000087
H52	H	1.033766	0.105637	0.786371
H53	H	0.947484	-0.135239	-0.143535
O54	O	1.049569	-0.366028	-0.082051
C55	C	1.058053	-0.439820	-0.009053
H56	H	0.997791	-0.471762	0.014678
H57	H	1.098563	-0.526817	-0.027604
H58	H	1.084667	-0.380553	0.044794
H59	H	1.027442	-0.346069	0.086296
O60	O	1.044126	-0.123609	0.086267
C61	C	1.076461	-0.171825	0.160962
H62	H	1.041905	-0.256305	0.182388
H63	H	1.140782	-0.203715	0.145633
H64	H	1.072845	-0.094446	0.215266
H65	H	0.821710	0.430026	0.213837
O66	O	0.176689	0.058285	0.000165
C67	C	0.238041	-0.036016	0.000147
H68	H	0.292542	0.007190	0.027461
H69	H	0.218500	-0.116331	0.042031
H70	H	0.252692	-0.075161	-0.069061
H71	H	0.705441	0.042024	0.000091
H72	H	0.330106	0.096587	0.000125
O73	O	0.805198	0.455020	0.385674
C74	C	0.728470	0.424831	0.363483
H75	H	0.728699	0.321300	0.338529
H76	H	0.686367	0.439721	0.423206
H77	H	0.708299	0.489059	0.310773
H78	H	0.673844	0.458421	0.000071
O79	O	0.944421	-0.362095	-0.156018
C80	C	1.002519	-0.439640	-0.203648
H81	H	1.048001	-0.476184	-0.157949
H82	H	0.973675	-0.523618	-0.236442
H83	H	1.032859	-0.381828	-0.255066
H84	H	1.041528	0.093728	0.621625
H85	H	1.005778	0.148382	0.378572
O86	O	0.303488	0.531923	-0.000022
C87	C	0.281718	0.593702	-0.074750
H88	H	0.225949	0.551506	-0.099647
H89	H	0.270145	0.699528	-0.057956
H90	H	0.331455	0.580029	-0.127073
O91	O	0.833214	0.412432	0.793379
C92	C	0.789362	0.479547	0.733838
H93	H	0.791240	0.422710	0.669111
H94	H	0.725581	0.494381	0.760085
H95	H	0.815801	0.575819	0.724172
H96	H	0.150032	0.493639	0.000110
O97	O	0.552024	0.003716	0.000139
C98	C	0.613382	-0.090576	0.000116
H99	H	0.667881	-0.047364	0.027428
H100	H	0.593848	-0.170897	0.041997
H101	H	0.628032	-0.129715	-0.069094
H102	H	0.849692	0.387274	0.621636
H103	H	0.808637	-0.332013	-0.059316
O104	O	0.806653	-0.107158	-0.070457
C105	C	0.846370	-0.161057	-0.146570
H106	H	0.879831	-0.252503	-0.131021
H107	H	0.801674	-0.183248	-0.197152
H108	H	0.889720	-0.091007	-0.173084
O109	O	0.929545	-0.104084	0.155594
C110	C	0.849531	-0.134655	0.156526
H111	H	0.843055	-0.224414	0.113851
H112	H	0.827697	-0.151527	0.225807
H113	H	0.813140	-0.052746	0.130677
O114	O	0.796163	-0.330759	0.069910
C115	C	0.842094	-0.411930	0.119271
H116	H	0.907278	-0.395471	0.105267
H117	H	0.826321	-0.390865	0.191215
H118	H	0.829824	-0.515087	0.101246
H119	H	0.806591	-0.106178	0.059237
O120	O	0.924557	-0.335451	0.156065
C121	C	0.973889	-0.412150	0.204835
H122	H	1.038213	-0.394645	0.186564
H123	H	0.961246	-0.387300	0.276910
H124	H	0.962098	-0.516522	0.190471
H125	H	1.039106	-0.139658	-0.087557
O126	O	1.022107	0.123047	0.206756
C127	C	1.007597	-0.002359	0.229004
H128	H	0.943601	-0.007571	0.253961
H129	H	1.019084	-0.069530	0.169309
H130	H	1.048372	-0.031385	0.281729
