data_functionalizedCrystal
_audit_creation_method	'MofGen! by Chris Wilmer'
_symmetry_space_group_name_H-M	'P1'
_symmetry_Int_Tables_number	1
_symmetry_cell_setting	triclinic
loop_
_symmetry_equiv_pos_as_xyz
  x,y,z
_cell_length_a	19.077105
_cell_length_b	29.839131
_cell_length_c	19.077174
_cell_angle_alpha	92.270061
_cell_angle_beta	85.483752
_cell_angle_gamma	87.737628
loop_
_atom_site_label
_atom_site_type_symbol
_atom_site_fract_x
_atom_site_fract_y
_atom_site_fract_z
Zn1	Zn	1.093604	-0.218280	-0.441818
Zn2	Zn	1.593604	0.281720	0.058182
Zn3	Zn	1.088756	-0.290261	-0.323922
Zn4	Zn	1.588756	0.209739	0.176078
Zn5	Zn	0.970992	-0.212000	-0.319217
Zn6	Zn	1.470992	0.288000	0.180783
Zn7	Zn	0.975650	-0.290232	-0.437040
Zn8	Zn	1.475650	0.209768	0.062960
O9	O	1.032251	-0.252693	-0.380499
O10	O	1.532251	0.247307	0.119501
O11	O	1.191610	-0.230469	-0.430148
O12	O	1.691610	0.269531	0.069852
O13	O	1.069156	-0.277264	-0.224649
O14	O	1.569156	0.222736	0.275351
O15	O	0.987337	-0.149969	-0.335510
O16	O	1.487337	0.350031	0.164490
O17	O	1.188048	-0.283353	-0.343531
O18	O	1.688048	0.216647	0.156469
O19	O	1.077420	-0.154583	-0.425585
O20	O	1.577420	0.345417	0.074415
O21	O	0.982636	-0.219766	-0.221191
O22	O	1.482636	0.280234	0.278809
O23	O	0.872961	-0.219737	-0.330877
O24	O	1.372961	0.280263	0.169123
O25	O	0.995275	-0.283303	-0.536324
O26	O	1.495275	0.216697	-0.036324
O27	O	0.876383	-0.277214	-0.417442
O28	O	1.376383	0.222786	0.082558
O29	O	1.081936	-0.230441	-0.539834
O30	O	1.581936	0.269559	-0.039834
O31	O	1.073672	-0.353121	-0.338898
O32	O	1.573672	0.146879	0.161102
O33	O	0.990574	-0.353100	-0.422005
O34	O	1.490574	0.146900	0.077995
C35	C	0.849094	-0.247791	-0.373131
C36	C	1.349094	0.252209	0.126869
C37	C	0.770739	-0.245705	-0.369995
C38	C	1.270739	0.254295	0.130005
C39	C	0.735725	-0.274692	-0.413521
C40	C	1.235725	0.225308	0.086479
C41	C	0.662102	-0.272726	-0.410578
C42	C	1.162102	0.227274	0.089422
C43	C	0.623495	-0.241776	-0.364105
C44	C	1.123495	0.258224	0.135895
C45	C	0.658514	-0.212786	-0.320578
C46	C	1.158514	0.287214	0.179422
C47	C	0.732136	-0.214750	-0.323525
C48	C	1.232136	0.285250	0.176475
C49	C	0.403119	-0.232687	-0.350470
C50	C	0.903119	0.267313	0.149530
C51	C	0.329492	-0.230726	-0.347525
C52	C	0.829492	0.269274	0.152475
C53	C	0.333085	-0.290665	-0.437525
C54	C	0.833085	0.209335	0.062475
C55	C	0.406708	-0.292628	-0.440465
C56	C	0.906708	0.207372	0.059535
C57	C	0.441721	-0.263637	-0.396941
C58	C	0.941721	0.236363	0.103059
N59	N	0.548241	-0.239767	-0.361094
N60	N	1.048241	0.260233	0.138906
N61	N	0.516973	-0.265644	-0.399956
N62	N	1.016973	0.234356	0.100044
C63	C	1.032122	-0.369412	-0.380459
C64	C	1.532122	0.130588	0.119541
C65	C	1.032132	-0.419346	-0.380468
C66	C	1.532132	0.080654	0.119532
C67	C	1.075605	-0.728996	-0.337295
C68	C	1.575605	-0.228996	0.162705
C69	C	1.075693	-0.916672	-0.337326
C70	C	1.575693	-0.416672	0.162674
O71	O	1.112552	-0.940939	-0.300587
O72	O	1.612552	-0.440939	0.199413
N73	N	1.032399	-0.940141	-0.380559
N74	N	1.532399	-0.440141	0.119441
C75	C	0.989083	-0.916687	-0.423790
C76	C	1.489083	-0.416687	0.076210
O77	O	0.952267	-0.940955	-0.460568
O78	O	1.452267	-0.440955	0.039432
C79	C	0.988999	-0.729012	-0.423763
C80	C	1.488999	-0.229012	0.076237
C81	C	1.032291	-0.705546	-0.380522
C82	C	1.532291	-0.205546	0.119478
C83	C	1.118893	-0.705530	-0.294058
C84	C	1.618893	-0.205530	0.205942
C85	C	1.118868	-0.658614	-0.294048
C86	C	1.618868	-0.158614	0.205952
C87	C	1.075554	-0.635163	-0.337275
C88	C	1.575554	-0.135163	0.162725
C89	C	1.032266	-0.658630	-0.380511
C90	C	1.532266	-0.158630	0.119489
C91	C	0.945688	-0.705560	-0.466997
C92	C	1.445688	-0.205560	0.033003
C93	C	0.945672	-0.658638	-0.466988
C94	C	1.445672	-0.158638	0.033012
C95	C	0.988964	-0.635172	-0.423747
C96	C	1.488964	-0.135172	0.076253
C97	C	0.988926	-0.588263	-0.423728
C98	C	1.488926	-0.088263	0.076272
N99	N	1.032220	-0.564795	-0.380495
N100	N	1.532220	-0.064795	0.119505
C101	C	1.075534	-0.588245	-0.337268
C102	C	1.575534	-0.088245	0.162732
C103	C	0.989129	-1.015219	-0.423801
C104	C	1.489129	-0.515219	0.076199
C105	C	0.989149	-1.062138	-0.423807
C106	C	1.489149	-0.562138	0.076193
C107	C	1.075760	-1.062120	-0.337343
C108	C	1.575760	-0.562120	0.162657
C109	C	1.075736	-1.015200	-0.337334
C110	C	1.575736	-0.515200	0.162666
C111	C	1.032423	-0.991751	-0.380568
C112	C	1.532423	-0.491751	0.119432
C113	C	1.075477	-0.489717	-0.337250
C114	C	1.575477	0.010283	0.162750
C115	C	1.075446	-0.442797	-0.337242
C116	C	1.575446	0.057203	0.162758
C117	C	0.988839	-0.442819	-0.423708
C118	C	1.488839	0.057181	0.076292
C119	C	0.988867	-0.489735	-0.423714
C120	C	1.488867	0.010265	0.076286
C121	C	1.032192	-0.513183	-0.380483
C122	C	1.532192	-0.013183	0.119517
O123	O	0.952092	-0.563968	-0.460453
O124	O	1.452092	-0.063968	0.039547
O125	O	1.112357	-0.563970	-0.300507
O126	O	1.612357	-0.063970	0.199493
C127	C	1.075630	-0.775913	-0.337305
C128	C	1.575630	-0.275913	0.162695
C129	C	1.032341	-0.799379	-0.380542
C130	C	1.532341	-0.299379	0.119458
C131	C	0.989028	-0.775929	-0.423769
C132	C	1.489028	-0.275929	0.076231
C133	C	1.032361	-0.846297	-0.380548
C134	C	1.532361	-0.346297	0.119452
C135	C	1.075675	-0.869747	-0.337321
C136	C	1.575675	-0.369747	0.162679
C137	C	1.118969	-0.846279	-0.294088
C138	C	1.618969	-0.346279	0.205912
C139	C	1.118944	-0.799363	-0.294078
C140	C	1.618944	-0.299363	0.205922
C141	C	0.945734	-0.799397	-0.467001
C142	C	1.445734	-0.299397	0.032999
C143	C	0.945762	-0.846313	-0.467007
C144	C	1.445762	-0.346313	0.032993
C145	C	0.989076	-0.869763	-0.423781
C146	C	1.489076	-0.369763	0.076219
C147	C	1.216123	-0.257615	-0.387897
C148	C	1.716123	0.242385	0.112103
C149	C	1.294478	-0.259712	-0.391050
C150	C	1.794478	0.240288	0.108950
C151	C	1.039666	-0.257569	-0.564373
C152	C	1.539666	0.242431	-0.064373
C153	C	1.042826	-0.259647	-0.642729
C154	C	1.542826	0.240353	-0.142729
C155	C	1.032400	-0.135520	-0.380556
C156	C	1.532400	0.364480	0.119444
C157	C	1.032463	-0.085588	-0.380580
C158	C	1.532463	0.414412	0.119420
C159	C	0.999266	-0.230687	-0.677740
C160	C	1.499266	0.269313	-0.177740
C161	C	1.002232	-0.232643	-0.751363
C162	C	1.502232	0.267357	-0.251363
C163	C	1.048762	-0.263557	-0.789974
C164	C	1.548762	0.236443	-0.289974
C165	C	1.092324	-0.292519	-0.754958
C166	C	1.592324	0.207481	-0.254958
C167	C	1.089354	-0.290565	-0.681336
C168	C	1.589354	0.209435	-0.181336
C169	C	1.062473	-0.272613	-1.010355
C170	C	1.562473	0.227387	-0.510355
C171	C	1.065442	-0.274564	-1.083982
C172	C	1.565442	0.225436	-0.583982
C173	C	0.975348	-0.214688	-1.080382
C174	C	1.475348	0.285312	-0.580382
C175	C	0.972385	-0.212735	-1.006759
C176	C	1.472385	0.287265	-0.506759
C177	C	1.015944	-0.241699	-0.971749
C178	C	1.515944	0.258301	-0.471749
N179	N	1.051797	-0.265556	-0.865230
N180	N	1.551797	0.234444	-0.365230
N181	N	1.012905	-0.239702	-0.896495
N182	N	1.512905	0.260298	-0.396495
C183	C	1.024905	-0.247805	-0.197343
C184	C	1.524905	0.252195	0.302657
C185	C	1.021882	-0.245605	-0.118993
C186	C	1.521882	0.254395	0.381007
H187	H	0.298060	-0.205517	-0.309685
H188	H	0.798060	0.294483	0.190315
H189	H	1.130207	-0.317692	-0.786401
H190	H	1.630207	0.182308	-0.286401
C191	C	0.954319	-0.200781	-0.789872
C192	C	1.454319	0.299219	-0.289872
N193	N	0.918231	-0.176780	-0.818877
N194	N	1.418231	0.323220	-0.318877
C195	C	0.941242	-0.515549	-0.471278
C196	C	1.441242	-0.015549	0.028722
N197	N	0.905375	-0.534989	-0.507110
N198	N	1.405375	-0.034989	-0.007110
C199	C	0.449170	-0.326678	-0.491585
C200	C	0.949170	0.173322	0.008415
N201	N	0.481153	-0.352326	-0.530087
N202	N	0.981153	0.147674	-0.030087
C203	C	0.948078	-0.196680	-0.635274
C204	C	1.448078	0.303320	-0.135274
N205	N	0.909519	-0.171066	-0.603291
N206	N	1.409519	0.328934	-0.103291
H207	H	0.910432	-0.724658	-0.502205
H208	H	1.410432	-0.224658	-0.002205
H209	H	0.633597	-0.296330	-0.446020
H210	H	1.133597	0.203670	0.053980
H211	H	1.154168	-0.724618	-0.258857
H212	H	1.654168	-0.224618	0.241143
C213	C	1.123133	-0.515503	-0.289689
C214	C	1.623133	-0.015503	0.210311
N215	N	1.159022	-0.534924	-0.253862
N216	N	1.659022	-0.034924	0.246138
C217	C	0.441623	-0.200798	-0.302586
C218	C	0.941623	0.299202	0.197414
N219	N	0.470627	-0.176779	-0.266517
N220	N	0.970627	0.323221	0.233483
H221	H	1.097934	-0.296202	-0.981858
H222	H	1.597934	0.203798	-0.481858
H223	H	0.304570	-0.314267	-0.472962
H224	H	0.804570	0.185733	0.027038
H225	H	1.124830	-0.314144	-0.652831
H226	H	1.624830	0.185856	-0.152831
H227	H	0.627075	-0.187584	-0.282742
H228	H	1.127075	0.312416	0.217258
H229	H	0.767154	-0.299896	-0.451361
H230	H	1.267154	0.200104	0.048639
H231	H	0.760643	-0.191144	-0.288086
H232	H	1.260643	0.308856	0.211914
H233	H	0.910403	-0.639548	-0.502197
H234	H	1.410403	-0.139548	-0.002197
C235	C	0.941518	-1.087945	-0.471368
C236	C	1.441518	-0.587945	0.028632
N237	N	0.905644	-1.107381	-0.507196
N238	N	1.405644	-0.607381	-0.007196
H239	H	1.110988	-0.996097	-0.302124
H240	H	1.610988	-0.496097	0.197876
H241	H	0.934493	-0.187564	-0.975326
H242	H	1.434493	0.312436	-0.475326
C243	C	1.123068	-0.416986	-0.289668
C244	C	1.623068	0.083014	0.210332
N245	N	1.158936	-0.397548	-0.253835
N246	N	1.658936	0.102452	0.246165
C247	C	0.927432	-0.182833	-1.118899
C248	C	1.427432	0.317167	-0.618899
N249	N	0.891337	-0.158840	-1.147910
N250	N	1.391337	0.341160	-0.647910
C251	C	1.123409	-1.087924	-0.289797
C252	C	1.623409	-0.587924	0.210203
N253	N	1.159301	-1.107362	-0.253992
N254	N	1.659301	-0.607362	0.246008
H255	H	1.154121	-0.639510	-0.258839
H256	H	1.654121	-0.139510	0.241161
H257	H	0.953571	-0.423718	-0.458901
H258	H	1.453571	0.076282	0.041099
C259	C	0.941498	-0.989432	-0.471384
C260	C	1.441498	-0.489432	0.028616
N261	N	0.905628	-0.970012	-0.507230
N262	N	1.405628	-0.470012	-0.007230
C263	C	1.166566	-0.773556	-0.246507
C264	C	1.666566	-0.273556	0.253493
N265	N	1.202436	-0.754121	-0.210672
N266	N	1.702436	-0.254121	0.289328
H267	H	1.154235	-0.865380	-0.258889
H268	H	1.654235	-0.365380	0.241111
C269	C	0.898133	-0.872121	-0.514578
C270	C	1.398133	-0.372121	-0.014578
N271	N	0.862265	-0.891557	-0.550412
N272	N	1.362265	-0.391557	-0.050412
H273	H	0.910463	-0.780307	-0.502203
H274	H	1.410463	-0.280307	-0.002203
C275	C	1.116628	-0.308574	-1.126453
C276	C	1.616628	0.191426	-0.626453
N277	N	1.155180	-0.334189	-1.158442
N278	N	1.655180	0.165811	-0.658442
