data_functionalizedCrystal
_audit_creation_method	'MofGen! by Chris Wilmer'
_symmetry_space_group_name_H-M	'P1'
_symmetry_Int_Tables_number	1
_symmetry_cell_setting	triclinic
loop_
_symmetry_equiv_pos_as_xyz
  x,y,z
_cell_length_a	11.169417
_cell_length_b	16.959453
_cell_length_c	11.169409
_cell_angle_alpha	89.962728
_cell_angle_beta	89.980176
_cell_angle_gamma	90.020866
loop_
_atom_site_label
_atom_site_type_symbol
_atom_site_fract_x
_atom_site_fract_y
_atom_site_fract_z
Zn1	Zn	1.834882	-0.314599	-0.678502
Zn2	Zn	2.334882	0.185401	-0.178502
Zn3	Zn	1.834737	-0.446806	-0.477801
Zn4	Zn	2.334737	0.053194	0.022199
Zn5	Zn	1.634168	-0.314647	-0.477836
Zn6	Zn	2.134168	0.185353	0.022164
Zn7	Zn	1.634141	-0.446741	-0.678446
Zn8	Zn	2.134141	0.053259	-0.178446
O9	O	1.734482	-0.380698	-0.578146
O10	O	2.234482	0.119302	-0.078146
O11	O	2.002812	-0.332143	-0.651887
O12	O	2.502812	0.167857	-0.151887
O13	O	1.808082	-0.429322	-0.309856
O14	O	2.308082	0.070678	0.190144
O15	O	1.660864	-0.204030	-0.504492
O16	O	2.160864	0.295970	-0.004492
O17	O	2.002706	-0.429275	-0.504433
O18	O	2.502706	0.070725	-0.004433
O19	O	1.808328	-0.203995	-0.651921
O20	O	2.308328	0.296005	-0.151921
O21	O	1.660724	-0.332225	-0.309882
O22	O	2.160724	0.167775	0.190118
O23	O	1.466215	-0.332163	-0.504439
O24	O	1.966215	0.167837	-0.004439
O25	O	1.660820	-0.429165	-0.846403
O26	O	2.160820	0.070835	-0.346403
O27	O	1.466195	-0.429212	-0.651826
O28	O	1.966195	0.070788	-0.151826
O29	O	1.808303	-0.332081	-0.846444
O30	O	2.308303	0.167919	-0.346444
O31	O	1.808056	-0.557408	-0.504379
O32	O	2.308056	-0.057408	-0.004379
O33	O	1.660679	-0.557361	-0.651792
O34	O	2.160679	-0.057361	-0.151792
C35	C	1.422657	-0.380686	-0.578131
C36	C	1.922657	0.119314	-0.078131
C37	C	1.289257	-0.380700	-0.578153
C38	C	1.789257	0.119300	-0.078153
C39	C	1.734382	-0.586065	-0.578102
C40	C	2.234382	-0.086065	-0.078102
C41	C	1.734449	-0.673921	-0.578124
C42	C	2.234449	-0.173921	-0.078124
C43	C	1.811365	-1.045320	-0.655057
C44	C	2.311365	-0.545320	-0.155057
C45	C	1.657935	-1.045474	-0.501414
C46	C	2.157935	-0.545474	-0.001414
C47	C	1.657890	-0.962928	-0.501386
C48	C	2.157890	-0.462928	-0.001386
C49	C	1.734583	-0.921574	-0.578196
C50	C	2.234583	-0.421574	-0.078196
C51	C	1.811320	-0.962766	-0.655034
C52	C	2.311320	-0.462766	-0.155034
C53	C	1.581146	-0.921729	-0.424558
C54	C	2.081146	-0.421729	0.075442
C55	C	1.581097	-0.839179	-0.424529
C56	C	2.081097	-0.339179	0.075471
C57	C	1.657797	-0.797823	-0.501334
C58	C	2.157797	-0.297823	-0.001334
C59	C	1.734538	-0.839021	-0.578174
C60	C	2.234538	-0.339021	-0.078174
C61	C	1.811231	-0.797667	-0.654984
C62	C	2.311231	-0.297667	-0.154984
C63	C	1.887979	-0.838863	-0.731819
C64	C	2.387979	-0.338863	-0.231819
C65	C	1.888020	-0.921411	-0.731839
C66	C	2.388020	-0.421411	-0.231839
C67	C	1.657756	-0.715275	-0.501313
C68	C	2.157756	-0.215275	-0.001313
C69	C	1.811186	-0.715113	-0.654961
C70	C	2.311186	-0.215113	-0.154961
C71	C	2.047524	-0.380711	-0.578162
C72	C	2.547524	0.119289	-0.078162
C73	C	2.180924	-0.380716	-0.578169
C74	C	2.680924	0.119284	-0.078169
C75	C	1.734574	-0.380611	-0.891189
C76	C	2.234574	0.119389	-0.391189
C77	C	1.734614	-0.380573	-1.024589
C78	C	2.234614	0.119427	-0.524589
C79	C	1.734615	-0.174530	-0.578217
C80	C	2.234615	0.325470	-0.078217
C81	C	1.734672	-0.086674	-0.578247
C82	C	2.234672	0.413326	-0.078247
C83	C	1.734459	-0.380729	-0.266321
C84	C	2.234459	0.119271	0.233679
C85	C	1.734653	-0.380543	-0.132922
C86	C	2.234653	0.119457	0.367078
H87	H	1.873644	-0.681448	-0.717506
H88	H	2.373644	-0.181448	-0.217506
C89	C	1.972420	-0.966727	-0.816360
C90	C	2.472420	-0.466727	-0.316360
H91	H	1.961449	-1.021812	-0.805382
H92	H	2.461449	-0.521812	-0.305382
H93	H	2.053065	-0.953176	-0.798871
H94	H	2.553065	-0.453176	-0.298871
H95	H	1.954792	-0.953160	-0.896982
H96	H	2.454792	-0.453160	-0.396982
H97	H	1.950418	-0.805183	-0.794364
H98	H	2.450418	-0.305183	-0.294364
C99	C	1.895778	-1.090630	-0.739572
C100	C	2.395778	-0.590630	-0.239572
H101	H	1.884821	-1.145716	-0.728594
H102	H	2.384821	-0.645716	-0.228594
H103	H	1.976418	-1.077069	-0.722078
H104	H	2.476418	-0.577069	-0.222078
H105	H	1.878152	-1.077066	-0.820196
H106	H	2.378152	-0.577066	-0.320196
C107	C	1.573583	-1.090960	-0.416927
C108	C	2.073583	-0.590960	0.083073
H109	H	1.584606	-1.146023	-0.427940
H110	H	2.084606	-0.646023	0.072060
H111	H	1.492926	-1.077461	-0.434407
H112	H	1.992926	-0.577461	0.065593
H113	H	1.591199	-1.077469	-0.336296
H114	H	2.091199	-0.577469	0.163704
C115	C	1.496800	-0.967218	-0.340068
C116	C	1.996800	-0.467218	0.159932
H117	H	1.507833	-1.022280	-0.351075
H118	H	2.007833	-0.522280	0.148925
H119	H	1.416140	-0.953726	-0.357551
H120	H	1.916140	-0.453726	0.142449
H121	H	1.514412	-0.953721	-0.259438
H122	H	2.014412	-0.453721	0.240562
H123	H	1.595263	-0.681737	-0.438761
H124	H	2.095263	-0.181737	0.061239
C125	C	1.496691	-0.793870	-0.340004
C126	C	1.996691	-0.293870	0.159996
H127	H	1.451030	-0.830323	-0.294257
H128	H	1.951030	-0.330323	0.205743
H129	H	1.444357	-0.761662	-0.385851
H130	H	1.944357	-0.261662	0.114149
H131	H	1.542626	-0.761681	-0.287736
H132	H	2.042626	-0.261681	0.212264
