data_functionalizedCrystal
_audit_creation_method	'MofGen! by Chris Wilmer'
_symmetry_space_group_name_H-M	'P1'
_symmetry_Int_Tables_number	1
_symmetry_cell_setting	triclinic
loop_
_symmetry_equiv_pos_as_xyz
  x,y,z
_cell_length_a	10.654545
_cell_length_b	11.792254
_cell_length_c	9.130313
_cell_angle_alpha	89.995304
_cell_angle_beta	89.996934
_cell_angle_gamma	84.340838
loop_
_atom_site_label
_atom_site_type_symbol
_atom_site_fract_x
_atom_site_fract_y
_atom_site_fract_z
O1	O	1.667400	0.159395	-0.121786
O2	O	2.167400	0.659395	0.378214
O3	O	1.301878	0.174588	-0.121792
O4	O	1.801878	0.674588	0.378208
O5	O	1.493501	0.001842	-0.121778
O6	O	1.993501	0.501842	0.378222
O7	O	1.475777	0.332141	-0.121799
O8	O	1.975777	0.832141	0.378201
O9	O	1.493488	0.001837	0.121821
O10	O	1.993488	0.501837	0.621821
O11	O	1.301865	0.174583	0.121807
O12	O	1.801865	0.674583	0.621807
O13	O	1.667387	0.159389	0.121813
O14	O	2.167387	0.659389	0.621813
Cu15	Cu	1.484625	0.166986	0.144053
Cu16	Cu	1.984625	0.666986	0.644053
Cu17	Cu	1.484640	0.166992	-0.144031
Cu18	Cu	1.984640	0.666992	0.355969
O19	O	1.475764	0.332136	0.121800
O20	O	1.975764	0.832136	0.621800
C21	C	1.255077	0.173471	0.000007
C22	C	1.755077	0.673471	0.500007
C23	C	1.115643	0.170137	0.000005
C24	C	1.615643	0.670137	0.500005
C25	C	1.050135	0.168564	0.132792
C26	C	1.550135	0.668564	0.632792
C27	C	0.919125	0.165412	0.132792
C28	C	1.419125	0.665412	0.632792
C29	C	0.919140	0.165410	-0.132793
C30	C	1.419140	0.665410	0.367207
C31	C	1.050149	0.168554	-0.132792
C32	C	1.550149	0.668554	0.367208
C33	C	1.492378	-0.040454	0.000021
C34	C	1.992378	0.459546	0.500021
C35	C	1.489036	-0.166474	0.000019
C36	C	1.989036	0.333526	0.500019
C37	C	1.486321	-0.268817	0.000014
C38	C	1.986321	0.231183	0.500014
C39	C	1.482926	-0.397212	0.000001
C40	C	1.982926	0.102788	0.500001
C41	C	1.714188	0.160506	0.000011
C42	C	2.214188	0.660506	0.500011
C43	C	1.853623	0.163841	0.000004
C44	C	2.353623	0.663841	0.500004
C45	C	1.476887	0.374431	-0.000002
C46	C	1.976887	0.874431	0.499998
C47	C	1.480229	0.500452	-0.000011
C48	C	1.980229	1.000452	0.499989
N49	N	1.484623	0.166981	0.346675
N50	N	1.984623	0.666981	0.846675
N51	N	1.484652	0.166988	-0.346654
N52	N	1.984652	0.666988	0.153346
C53	C	1.569502	0.090521	0.423333
C54	C	2.069502	0.590521	0.923333
C55	C	1.569514	0.090522	0.576670
C56	C	2.069514	0.590522	1.076670
C57	C	1.399764	0.243451	0.576678
C58	C	1.899764	0.743451	1.076678
C59	C	1.399747	0.243444	0.423344
C60	C	1.899747	0.743444	0.923344
H61	H	1.638612	0.028259	0.360914
H62	H	2.138612	0.528259	0.860914
H63	H	1.330661	0.305707	0.639116
H64	H	1.830661	0.805707	1.139116
H65	H	0.865794	0.164132	0.240920
H66	H	1.365794	0.664132	0.740920
H67	H	1.330622	0.305707	0.360925
H68	H	1.830622	0.805707	0.860925
N69	N	1.120801	0.170252	-0.276027
N70	N	1.620801	0.670252	0.223973
H71	H	1.165456	0.241790	-0.281954
H72	H	1.665456	0.741790	0.218046
H73	H	1.184793	0.101271	-0.281852
H74	H	1.684793	0.601271	0.218148
N75	N	1.120770	0.170268	0.276020
N76	N	1.620770	0.670268	0.776020
H77	H	1.107673	0.099484	0.334078
H78	H	1.607673	0.599484	0.834078
H79	H	1.213676	0.172545	0.255759
H80	H	1.713676	0.672545	0.755759
N81	N	0.848488	0.163705	-0.276010
N82	N	1.348488	0.663705	0.223990
H83	H	0.784430	0.232638	-0.281937
H84	H	1.284430	0.732638	0.218063
H85	H	0.909951	0.165133	-0.360051
H86	H	1.409951	0.665133	0.139949
N87	N	1.661080	0.008071	0.659353
N88	N	2.161080	0.508071	1.159353
H89	H	1.714848	-0.040360	0.587512
H90	H	2.214848	0.459640	1.087512
H91	H	1.716887	0.052015	0.722942
H92	H	2.216887	0.552015	1.222942
