data_functionalizedCrystal
_audit_creation_method	'MofGen! by Chris Wilmer'
_symmetry_space_group_name_H-M	'P1'
_symmetry_Int_Tables_number	1
_symmetry_cell_setting	triclinic
loop_
_symmetry_equiv_pos_as_xyz
  x,y,z
_cell_length_a	14.044220
_cell_length_b	16.992701
_cell_length_c	16.053802
_cell_angle_alpha	87.243340
_cell_angle_beta	87.198230
_cell_angle_gamma	88.071976
loop_
_atom_site_label
_atom_site_type_symbol
_atom_site_fract_x
_atom_site_fract_y
_atom_site_fract_z
O1	O	-0.198288	1.057568	-0.069433
O2	O	0.301712	1.557568	0.430567
O3	O	-0.196074	0.829128	-0.069433
O4	O	0.303926	1.329128	0.430567
O5	O	-0.058937	0.939919	-0.069429
O6	O	0.441063	1.439919	0.430571
O7	O	-0.335425	0.946777	-0.069437
O8	O	0.164575	1.446777	0.430563
O9	O	-0.066452	0.933819	0.069429
O10	O	0.433548	1.433819	0.569429
O11	O	-0.203589	0.823028	0.069426
O12	O	0.296411	1.323028	0.569426
O13	O	-0.205803	1.051468	0.069426
O14	O	0.294197	1.551468	0.569426
Zn15	Zn	-0.205889	0.936279	0.091473
Zn16	Zn	0.294111	1.436279	0.591473
Zn17	Zn	-0.195988	0.944317	-0.091480
Zn18	Zn	0.304012	1.444317	0.408520
O19	O	-0.342940	0.940677	0.069422
O20	O	0.157060	1.440677	0.569422
C21	C	-0.196980	0.796666	-0.000004
C22	C	0.303020	1.296666	0.499996
C23	C	-0.188472	0.709027	-0.000004
C24	C	0.311528	1.209027	0.499996
C25	C	-0.131308	0.216069	-0.000006
C26	C	0.368692	0.716069	0.499994
C27	C	-0.139310	0.298415	-0.000001
C28	C	0.360690	0.798415	0.499999
C29	C	-0.229408	0.336260	-0.000007
C30	C	0.270592	0.836260	0.499993
C31	C	-0.311510	0.291755	-0.000009
C32	C	0.188490	0.791755	0.499991
C33	C	-0.303508	0.209410	-0.000008
C34	C	0.196492	0.709410	0.499992
C35	C	-0.262572	0.582177	-0.000005
C36	C	0.237428	1.082177	0.499995
C37	C	-0.270568	0.664527	-0.000009
C38	C	0.229432	1.164527	0.499991
C39	C	-0.098367	0.671182	0.000001
C40	C	0.401633	1.171182	0.500001
C41	C	-0.090373	0.588836	-0.000003
C42	C	0.409627	1.088836	0.499997
C43	C	-0.172475	0.544337	-0.000001
C44	C	0.327525	1.044337	0.499999
N45	N	-0.237589	0.420431	-0.000005
N46	N	0.262411	0.920431	0.499995
N47	N	-0.164294	0.460168	0.000003
N48	N	0.335706	0.960168	0.500003
C49	C	-0.374724	0.946729	-0.000008
C50	C	0.125276	1.446729	0.499992
C51	C	-0.480628	0.955683	-0.000011
C52	C	0.019372	1.455683	0.499989
C53	C	-0.674530	0.972053	-0.000008
C54	C	-0.174530	1.472053	0.499992
C55	C	-0.727353	0.908547	-0.000007
C56	C	-0.227353	1.408547	0.499993
C57	C	-0.835246	0.917655	-0.000005
C58	C	-0.335246	1.417655	0.499995
C59	C	-0.566626	0.962946	-0.000010
C60	C	-0.066626	1.462946	0.499990
C61	C	-0.027153	0.933867	-0.000001
C62	C	0.472847	1.433867	0.499999
C63	C	0.078752	0.924913	-0.000003
C64	C	0.578752	1.424913	0.499997
C65	C	-0.204897	1.083930	-0.000005
C66	C	0.295103	1.583930	0.499995
C67	C	-0.213404	1.171570	-0.000011
C68	C	0.286596	1.671570	0.499989
N69	N	-0.212647	0.930799	0.216333
N70	N	0.287353	1.430799	0.716333
N71	N	-0.189223	0.949802	-0.216340
N72	N	0.310777	1.449802	0.283660
C73	C	-0.154318	0.977961	0.260028
C74	C	0.345682	1.477961	0.760028
C75	C	-0.159055	0.974136	0.347435
C76	C	0.340945	1.474136	0.847435
C77	C	-0.222125	0.923152	0.391144
C78	C	0.277875	1.423152	0.891144
C79	C	-0.280456	0.875985	0.347443
C80	C	0.219544	1.375985	0.847443
C81	C	-0.275714	0.879807	0.260038
C82	C	0.224286	1.379807	0.760038
C83	C	-0.242812	0.906457	0.652553
C84	C	0.257188	1.406457	1.152553
C85	C	-0.247552	0.902640	0.739964
C86	C	0.252448	1.402640	1.239964
C87	C	-0.126149	1.000791	0.739951
C88	C	0.373851	1.500791	1.239951
C89	C	-0.121416	1.004611	0.652544
C90	C	0.378584	1.504611	1.152544
C91	C	-0.179743	0.957441	0.608850
C92	C	0.320257	1.457441	1.108850
N93	N	-0.226970	0.919243	0.480488
N94	N	0.273030	1.419243	0.980488
N95	N	-0.174893	0.961347	0.519508
N96	N	0.325107	1.461347	1.019508
H97	H	-0.329426	0.545956	-0.000008
H98	H	0.170574	1.045956	0.499992
H99	H	-0.057941	0.185262	-0.000006
H100	H	0.442059	0.685262	0.499994
H101	H	-0.691546	0.847337	-0.000007
H102	H	-0.191546	1.347337	0.499993
H103	H	-0.710335	1.033258	-0.000004
H104	H	-0.210335	1.533258	0.499996
H105	H	-0.323210	0.841401	0.224461
H106	H	0.176790	1.341401	0.724461
H107	H	-0.070059	1.046126	0.616957
H108	H	0.429941	1.546126	1.116957
H109	H	-0.072458	0.334643	0.000007
H110	H	0.427542	0.834643	0.500007
N111	N	-0.086298	1.032956	0.212887
N112	N	0.413702	1.532956	0.712887
H113	H	-0.050065	1.062251	0.253835
H114	H	0.449935	1.562251	0.753835
H115	H	-0.039895	1.001420	0.176634
H116	H	0.460105	1.501420	0.676634
H117	H	-0.017006	0.558028	0.000002
H118	H	0.482994	1.058028	0.500002
H119	H	-0.384870	0.322575	-0.000009
H120	H	0.115130	0.822575	0.499991
N121	N	-0.392063	0.161420	-0.000000
N122	N	0.107937	0.661420	0.500000
H123	H	-0.428315	0.176553	-0.051474
H124	H	0.071685	0.676553	0.448526
H125	H	-0.373258	0.103527	0.000040
H126	H	0.126742	0.603527	0.500040
N127	N	-0.009818	0.719175	0.000004
N128	N	0.490182	1.219175	0.500004
H129	H	-0.028555	0.777083	0.000003
H130	H	0.471445	1.277083	0.500003
H131	H	0.026385	0.703972	0.051485
H132	H	0.526385	1.203972	0.551485
H133	H	-0.111559	1.012539	0.383011
H134	H	0.388441	1.512539	0.883011
H135	H	-0.078660	1.039194	0.775534
H136	H	0.421340	1.539194	1.275534
H137	H	-0.298915	0.861121	0.775549
H138	H	0.201085	1.361121	1.275549
N139	N	-0.348475	0.820992	0.394588
N140	N	0.151525	1.320992	0.894588
H141	H	-0.394939	0.852479	0.430838
H142	H	0.105061	1.352479	0.930838
H143	H	-0.384640	0.791703	0.353592
H144	H	0.115360	1.291703	0.853592
N145	N	-0.305714	0.855578	0.605432
N146	N	0.194286	1.355578	1.105432
H147	H	-0.346387	0.822703	0.646388
H148	H	0.153613	1.322703	1.146388
H149	H	-0.348184	0.890279	0.569149
H150	H	0.151816	1.390279	1.069149
H151	H	-0.343941	0.695338	-0.000002
H152	H	0.156059	1.195338	0.499998
