data_functionalizedCrystal
_audit_creation_method	'MofGen! by Chris Wilmer'
_symmetry_space_group_name_H-M	'P1'
_symmetry_Int_Tables_number	1
_symmetry_cell_setting	triclinic
loop_
_symmetry_equiv_pos_as_xyz
  x,y,z
_cell_length_a	19.805405
_cell_length_b	17.077404
_cell_length_c	17.077396
_cell_angle_alpha	90.020945
_cell_angle_beta	89.968350
_cell_angle_gamma	89.980111
loop_
_atom_site_label
_atom_site_type_symbol
_atom_site_fract_x
_atom_site_fract_y
_atom_site_fract_z
Zn1	Zn	-0.269581	-1.200035	-0.443856
Zn2	Zn	0.230419	-0.700035	0.056144
Zn3	Zn	-0.382774	-1.199934	-0.312582
Zn4	Zn	0.117226	-0.699934	0.187418
Zn5	Zn	-0.269591	-1.068767	-0.312600
Zn6	Zn	0.230409	-0.568767	0.187400
Zn7	Zn	-0.382720	-1.068727	-0.443803
Zn8	Zn	0.117280	-0.568727	0.056197
O9	O	-0.326167	-1.134366	-0.378210
O10	O	0.173833	-0.634366	0.121790
O11	O	-0.284614	-1.309869	-0.426457
O12	O	0.215386	-0.809869	0.073543
O13	O	-0.367787	-1.182509	-0.202738
O14	O	0.132213	-0.682509	0.297262
O15	O	-0.174873	-1.086239	-0.330041
O16	O	0.325127	-0.586239	0.169959
O17	O	-0.367777	-1.309795	-0.330011
O18	O	0.132223	-0.809795	0.169989
O19	O	-0.174866	-1.182681	-0.426474
O20	O	0.325134	-0.682681	0.073526
O21	O	-0.284632	-1.086141	-0.202751
O22	O	0.215368	-0.586141	0.297249
O23	O	-0.284580	-0.958915	-0.329990
O24	O	0.215420	-0.458915	0.170010
O25	O	-0.367686	-1.086171	-0.553657
O26	O	0.132314	-0.586171	-0.053657
O27	O	-0.367696	-0.958885	-0.426384
O28	O	0.132304	-0.458885	0.073616
O29	O	-0.284562	-1.182643	-0.553696
O30	O	0.215438	-0.682643	-0.053696
O31	O	-0.477483	-1.182470	-0.329959
O32	O	0.022517	-0.682470	0.170041
O33	O	-0.477444	-1.086073	-0.426366
O34	O	0.022556	-0.586073	0.073634
C35	C	-0.502023	-1.134278	-0.378172
C36	C	-0.002023	-0.634278	0.121828
C37	C	-0.577255	-1.134312	-0.378182
C38	C	-0.077255	-0.634312	0.121818
C39	C	-0.326134	-0.930418	-0.378183
C40	C	0.173866	-0.430418	0.121817
C41	C	-0.326136	-0.843168	-0.378191
C42	C	0.173864	-0.343168	0.121809
C43	C	-0.326117	-1.134413	-0.582955
C44	C	0.173883	-0.634413	-0.082955
C45	C	-0.326096	-1.134434	-0.670204
C46	C	0.173904	-0.634434	-0.170204
C47	C	-0.612597	-1.184555	-0.328036
C48	C	-0.112597	-0.684555	0.171964
C49	C	-0.683285	-1.184588	-0.328053
C50	C	-0.183285	-0.684588	0.171947
C51	C	-0.718630	-1.134374	-0.378214
C52	C	-0.218630	-0.634374	0.121786
C53	C	-0.683283	-1.084129	-0.428366
C54	C	-0.183283	-0.584129	0.071634
C55	C	-0.612596	-1.084100	-0.428352
C56	C	-0.112596	-0.584100	0.071648
C57	C	-0.968356	-1.084245	-0.428424
C58	C	-0.468356	-0.584245	0.071576
C59	C	-1.039048	-1.084276	-0.428432
C60	C	-0.539048	-0.584276	0.071568
C61	C	-1.039046	-1.184732	-0.328125
C62	C	-0.539046	-0.684732	0.171875
C63	C	-0.968359	-1.184704	-0.328111
C64	C	-0.468359	-0.684704	0.171889
C65	C	-0.933018	-1.134462	-0.378266
C66	C	-0.433018	-0.634462	0.121734
C67	C	-0.856369	-1.134427	-0.378247
C68	C	-0.356369	-0.634427	0.121753
C69	C	-0.795277	-1.134404	-0.378229
C70	C	-0.295277	-0.634404	0.121771
C71	C	-0.149624	-1.134476	-0.378266
C72	C	0.350376	-0.634476	0.121734
C73	C	-0.074392	-1.134523	-0.378289
C74	C	0.425608	-0.634523	0.121711
C75	C	-0.369523	-0.467359	-0.428332
C76	C	0.130477	0.032641	0.071668
C77	C	-0.369516	-0.549340	-0.428322
C78	C	0.130484	-0.049340	0.071678
C79	C	-0.326169	-0.590319	-0.378212
C80	C	0.173831	-0.090319	0.121788
C81	C	-0.282830	-0.549315	-0.328103
C82	C	0.217170	-0.049315	0.171897
C83	C	-0.282841	-0.467336	-0.328109
C84	C	0.217159	0.032664	0.171891
C85	C	-0.282811	-0.720185	-0.328093
C86	C	0.217189	-0.220185	0.171907
C87	C	-0.282799	-0.802169	-0.328087
C88	C	0.217201	-0.302169	0.171913
C89	C	-0.369486	-0.802189	-0.428306
C90	C	0.130514	-0.302189	0.071694
C91	C	-0.369496	-0.720210	-0.428313
C92	C	0.130504	-0.220210	0.071687
C93	C	-0.326157	-0.679210	-0.378204
C94	C	0.173843	-0.179210	0.121796
C95	C	-0.326193	-0.339110	-0.378232
C96	C	0.173807	0.160890	0.121768
C97	C	-0.326186	-0.426360	-0.378229
C98	C	0.173814	0.073640	0.121771
C99	C	-0.282810	-1.184668	-0.711216
C100	C	0.217190	-0.684668	-0.211216
C101	C	-0.282787	-1.184678	-0.793197
C102	C	0.217213	-0.684678	-0.293197
C103	C	-0.326054	-1.134456	-0.834164
C104	C	0.173946	-0.634456	-0.334164
C105	C	-0.369342	-1.084216	-0.793146
C106	C	0.130658	-0.584216	-0.293146
C107	C	-0.369361	-1.084203	-0.711167
C108	C	0.130639	-0.584203	-0.211167
C109	C	-0.369301	-1.084247	-0.964017
C110	C	0.130699	-0.584247	-0.464017
C111	C	-0.369284	-1.084261	-1.046001
C112	C	0.130716	-0.584261	-0.546001
C113	C	-0.282728	-1.184722	-1.046046
C114	C	0.217272	-0.684722	-0.546046
C115	C	-0.282747	-1.184709	-0.964067
C116	C	0.217253	-0.684709	-0.464067
C117	C	-0.326035	-1.134470	-0.923055
C118	C	0.173965	-0.634470	-0.423055
C119	C	-0.326168	-1.134364	-0.174262
C120	C	0.173832	-0.634364	0.325738
C121	C	-0.325998	-1.134496	-0.087013
C122	C	0.174002	-0.634496	0.412987
H123	H	-0.712058	-1.225500	-0.287218
H124	H	-0.212058	-0.725500	0.212782
H125	H	-0.404807	-0.582717	-0.469120
H126	H	0.095193	-0.082717	0.030880
H127	H	-1.067824	-1.043386	-0.469285
H128	H	-0.567824	-0.543386	0.030715
C129	C	-0.235176	-1.239940	-0.838306
C130	C	0.264824	-0.739940	-0.338306
H131	H	-0.209417	-1.269855	-0.802166
H132	H	0.290583	-0.769855	-0.302166
H133	H	-0.205670	-1.209940	-0.870290
H134	H	0.294330	-0.709940	-0.370290
H135	H	-0.261073	-1.274131	-0.870284
H136	H	0.238927	-0.774131	-0.370284
C137	C	-0.417179	-0.847284	-0.483400
C138	C	0.082821	-0.347284	0.016600
H139	H	-0.410978	-0.901977	-0.476208
H140	H	0.089022	-0.401977	0.023792
H141	H	-0.407350	-0.833887	-0.536171
H142	H	0.092650	-0.333887	-0.036171
H143	H	-0.462641	-0.833819	-0.471792
H144	H	0.037359	-0.333819	0.028208
H145	H	-0.247518	-1.225609	-0.930713
H146	H	0.252482	-0.725609	-0.430713
H147	H	-0.939587	-1.043334	-0.469260
H148	H	-0.439587	-0.543334	0.030740
H149	H	-0.247479	-1.225628	-1.079441
H150	H	0.252521	-0.725628	-0.579441
H151	H	-0.712067	-1.043247	-0.469211
H152	H	-0.212067	-0.543247	0.030789
C153	C	-0.416873	-1.029014	-1.091064
C154	C	0.083127	-0.529014	-0.591064
H155	H	-0.442650	-0.999084	-1.054900
H156	H	0.057350	-0.499084	-0.554900
H157	H	-0.446363	-1.059026	-1.123040
H158	H	0.053637	-0.559026	-0.623040
H159	H	-0.390959	-0.994836	-1.123046
H160	H	0.109041	-0.494836	-0.623046
H161	H	-0.583821	-1.043188	-0.469187
H162	H	-0.083821	-0.543188	0.030813
H163	H	-0.404541	-1.043325	-0.930627
H164	H	0.095459	-0.543325	-0.430627
C165	C	-0.416936	-1.028971	-0.838205
C166	C	0.083064	-0.528971	-0.338205
H167	H	-0.442714	-0.999047	-0.802036
H168	H	0.057286	-0.499047	-0.302036
H169	H	-0.446426	-1.058985	-0.870180
H170	H	0.053574	-0.558985	-0.370180
H171	H	-0.391028	-0.994788	-0.870186
H172	H	0.108972	-0.494788	-0.370186
C173	C	-0.416992	-1.028965	-0.666055
C174	C	0.083008	-0.528965	-0.166055
H175	H	-0.442767	-0.999066	-0.702193
H176	H	0.057233	-0.499066	-0.202193
H177	H	-0.391116	-0.994768	-0.634067
H178	H	0.108884	-0.494768	-0.134067
H179	H	-0.446493	-1.058989	-0.634081
H180	H	0.053507	-0.558989	-0.134081
C181	C	-0.417181	-0.422288	-0.483483
C182	C	0.082819	0.077712	0.016517
H183	H	-0.442987	-0.458451	-0.513324
H184	H	0.057013	0.041549	-0.013324
H185	H	-0.391312	-0.390344	-0.517735
H186	H	0.108688	0.109656	-0.017735
H187	H	-0.446653	-0.390275	-0.453415
H188	H	0.053347	0.109725	0.046585
H189	H	-0.247579	-1.225567	-0.677866
H190	H	0.252421	-0.725567	-0.177866
H191	H	-0.583824	-1.225441	-0.287186
H192	H	-0.083824	-0.725441	0.212814
H193	H	-0.404790	-0.686846	-0.469121
H194	H	0.095210	-0.186846	0.030879
C195	C	-0.235168	-0.422237	-0.272999
C196	C	0.264832	0.077763	0.227001
H197	H	-0.209345	-0.458382	-0.243159
H198	H	0.290655	0.041618	0.256841
H199	H	-0.261024	-0.390234	-0.238743
H200	H	0.238976	0.109766	0.261257
H201	H	-0.205712	-0.390278	-0.303099
H202	H	0.294288	0.109722	0.196901
C203	C	-0.235115	-0.847246	-0.272972
C204	C	0.264885	-0.347246	0.227028
H205	H	-0.209309	-0.811089	-0.243125
H206	H	0.290691	-0.311089	0.256875
H207	H	-0.205655	-0.879241	-0.303067
H208	H	0.294345	-0.379241	0.196933
H209	H	-0.260965	-0.879209	-0.238710
H210	H	0.239035	-0.379209	0.261290
H211	H	-0.939583	-1.225590	-0.287263
H212	H	-0.439583	-0.725590	0.212737
C213	C	-0.235135	-0.675087	-0.272978
C214	C	0.264865	-0.175087	0.227022
H215	H	-0.209312	-0.711233	-0.243140
H216	H	0.290688	-0.211233	0.256860
H217	H	-0.260988	-0.643083	-0.238722
H218	H	0.239012	-0.143083	0.261278
H219	H	-0.205681	-0.643131	-0.303082
H220	H	0.294319	-0.143131	0.196918
H221	H	-0.247539	-0.582687	-0.287298
H222	H	0.252461	-0.082687	0.212702
C223	C	-1.077922	-1.240004	-0.272960
C224	C	-0.577922	-0.740004	0.227040
H225	H	-1.125083	-1.232838	-0.280155
H226	H	-0.625083	-0.732838	0.219845
H227	H	-1.066377	-1.228539	-0.220207
H228	H	-0.566377	-0.728539	0.279793
H229	H	-1.066297	-1.292737	-0.284498
H230	H	-0.566297	-0.792737	0.215502
