data_functionalizedCrystal
_audit_creation_method	'MofGen! by Chris Wilmer'
_symmetry_space_group_name_H-M	'P1'
_symmetry_Int_Tables_number	1
_symmetry_cell_setting	triclinic
loop_
_symmetry_equiv_pos_as_xyz
  x,y,z
_cell_length_a	18.101398
_cell_length_b	12.594516
_cell_length_c	18.101389
_cell_angle_alpha	89.987481
_cell_angle_beta	89.975673
_cell_angle_gamma	90.011320
loop_
_atom_site_label
_atom_site_type_symbol
_atom_site_fract_x
_atom_site_fract_y
_atom_site_fract_z
Zn1	Zn	1.132198	-0.423988	-0.418869
Zn2	Zn	1.632198	0.076012	0.081131
Zn3	Zn	1.132127	-0.601956	-0.295040
Zn4	Zn	1.632127	-0.101956	0.204960
Zn5	Zn	1.008357	-0.423977	-0.295030
Zn6	Zn	1.508357	0.076023	0.204970
Zn7	Zn	1.008341	-0.601910	-0.418829
Zn8	Zn	1.508341	-0.101910	0.081171
O9	O	1.070256	-0.512958	-0.356942
O10	O	1.570256	-0.012958	0.143058
O11	O	1.235822	-0.447620	-0.402464
O12	O	1.735822	0.052380	0.097536
O13	O	1.115686	-0.578361	-0.191406
O14	O	1.615686	-0.078361	0.308594
O15	O	1.024822	-0.275033	-0.311470
O16	O	1.524822	0.224967	0.188530
O17	O	1.235769	-0.578372	-0.311488
O18	O	1.735769	-0.078372	0.188512
O19	O	1.115808	-0.275041	-0.402454
O20	O	1.615808	0.224959	0.097546
O21	O	1.024753	-0.447601	-0.191399
O22	O	1.524753	0.052399	0.308601
O23	O	0.904722	-0.447557	-0.311431
O24	O	1.404722	0.052443	0.188569
O25	O	1.024794	-0.578294	-0.522467
O26	O	1.524794	-0.078294	-0.022467
O27	O	0.904710	-0.578283	-0.402386
O28	O	1.404710	-0.078283	0.097614
O29	O	1.115791	-0.447575	-0.522497
O30	O	1.615791	0.052425	-0.022497
O31	O	1.115669	-0.750896	-0.311449
O32	O	1.615669	-0.250896	0.188551
O33	O	1.024724	-0.750862	-0.402395
O34	O	1.524724	-0.250862	0.097605
C35	C	0.877845	-0.512915	-0.356904
C36	C	1.377845	-0.012915	0.143096
C37	C	0.795531	-0.512922	-0.356905
C38	C	1.295531	-0.012922	0.143095
C39	C	0.496440	-0.512988	-0.356967
C40	C	0.996440	-0.012988	0.143033
C41	C	0.527748	-0.430327	-0.300020
C42	C	1.027748	0.069673	0.199980
C43	C	0.613367	-0.430549	-0.299777
C44	C	1.113367	0.069451	0.200223
C45	C	0.644823	-0.512954	-0.356936
C46	C	1.144823	-0.012954	0.143064
C47	C	0.613725	-0.625071	-0.335619
C48	C	1.113725	-0.125071	0.164381
C49	C	0.528080	-0.624611	-0.335223
C50	C	1.028080	-0.124611	0.164777
C51	C	0.528050	-0.484507	-0.435364
C52	C	1.028050	0.015493	0.064636
C53	C	0.613700	-0.482010	-0.434936
C54	C	1.113700	0.017990	0.065064
C55	C	0.728682	-0.512942	-0.356920
C56	C	1.228682	-0.012942	0.143080
C57	C	0.412581	-0.513008	-0.356981
C58	C	0.912581	-0.013008	0.143019
C59	C	1.070207	-0.789499	-0.356935
C60	C	1.570207	-0.289499	0.143065
C61	C	1.070254	-0.907804	-0.356957
C62	C	1.570254	-0.407804	0.143043
C63	C	1.020784	-0.977078	-0.406388
C64	C	1.520784	-0.477078	0.093612
C65	C	1.002743	-1.047918	-0.338810
C66	C	1.502743	-0.547918	0.161190
C67	C	1.088363	-1.047763	-0.424546
C68	C	1.588363	-0.547763	0.075454
C69	C	1.052177	-0.977086	-0.289343
C70	C	1.552177	-0.477086	0.210657
C71	C	1.137829	-0.976925	-0.375124
C72	C	1.637829	-0.476925	0.124876
C73	C	1.119813	-1.047733	-0.307500
C74	C	1.619813	-0.547733	0.192500
C75	C	1.263418	-0.513002	-0.356981
C76	C	1.763418	-0.013002	0.143019
C77	C	1.345732	-0.513021	-0.356998
C78	C	1.845732	-0.013021	0.143002
C79	C	1.070299	-0.512931	-0.550104
C80	C	1.570299	-0.012931	-0.050104
C81	C	1.070317	-0.512919	-0.632418
C82	C	1.570317	-0.012919	-0.132418
C83	C	1.070325	-0.235337	-0.356966
C84	C	1.570325	0.264663	0.143034
C85	C	1.070354	-0.117032	-0.356976
C86	C	1.570354	0.382968	0.143024
C87	C	1.070360	-0.512720	-0.931509
C88	C	1.570360	-0.012720	-0.431509
C89	C	1.012909	-0.594703	-0.900166
C90	C	1.512909	-0.094703	-0.400166
C91	C	1.013065	-0.595083	-0.814547
C92	C	1.513065	-0.095083	-0.314547
C93	C	1.070338	-0.512819	-0.783127
C94	C	1.570338	-0.012819	-0.283127
C95	C	1.148369	-0.543275	-0.814235
C96	C	1.648369	-0.043275	-0.314235
C97	C	1.148049	-0.543813	-0.899880
C98	C	1.648049	-0.043813	-0.399880
C99	C	1.050458	-0.400099	-0.899926
C100	C	1.550458	0.099901	-0.399926
C101	C	1.048722	-0.400749	-0.814275
C102	C	1.548722	0.099251	-0.314275
C103	C	1.070330	-0.512873	-0.699267
C104	C	1.570330	-0.012873	-0.199267
C105	C	1.070373	-0.512668	-1.015369
C106	C	1.570373	-0.012668	-0.515369
C107	C	1.070256	-0.512908	-0.164532
C108	C	1.570256	-0.012908	0.335468
C109	C	1.070381	-0.512619	-0.082218
C110	C	1.570381	-0.012619	0.417782
H111	H	0.508073	-0.648767	-0.277911
H112	H	1.008073	-0.148767	0.222089
F113	F	0.928105	-1.088675	-0.318728
F114	F	1.428105	-0.588675	0.181272
H115	H	1.192324	-0.485439	-0.793885
H116	H	1.692324	0.014561	-0.293885
H117	H	0.633824	-0.449376	-0.241685
H118	H	1.133824	0.050624	0.258315
F119	F	1.212446	-0.936136	-0.395231
F120	F	1.712446	-0.436136	0.104769
H121	H	0.635144	-0.649646	-0.278926
H122	H	1.135144	-0.149646	0.221074
H123	H	0.978875	-0.946053	-0.448129
H124	H	1.478875	-0.446053	0.051871
F125	F	1.170801	-0.649740	-0.786217
F126	F	1.670801	-0.149740	-0.286217
H127	H	0.991298	-0.377782	-0.793941
H128	H	1.491298	0.122218	-0.293941
H129	H	0.506202	-0.448941	-0.242266
H130	H	1.006202	0.051059	0.257734
F131	F	0.500843	-0.321323	-0.317289
F132	F	1.000843	0.178677	0.182711
F133	F	0.640851	-0.321879	-0.317239
F134	F	1.140851	0.178121	0.182761
H135	H	0.955202	-0.576024	-0.793513
H136	H	1.455202	-0.076024	-0.293513
H137	H	1.026206	-0.678562	-0.794071
H138	H	1.526206	-0.178562	-0.294071
F139	F	0.501587	-0.563200	-0.490825
F140	F	1.001587	-0.063200	0.009175
F141	F	1.032126	-0.936680	-0.214620
F142	F	1.532126	-0.436680	0.285380
F143	F	1.174552	-1.088029	-0.252811
F144	F	1.674552	-0.588029	0.247189
F145	F	1.108330	-1.088346	-0.499246
F146	F	1.608330	-0.588346	0.000754
F147	F	1.099428	-0.316670	-0.786327
F148	F	1.599428	0.183330	-0.286327
H149	H	0.507370	-0.688284	-0.374893
H150	H	1.007370	-0.188284	0.125107
F151	F	0.640281	-0.374177	-0.455953
F152	F	1.140281	0.125823	0.044047
F153	F	0.937048	-0.570042	-0.927064
F154	F	1.437048	-0.070042	-0.427064
F155	F	0.641687	-0.554974	-0.493367
F156	F	1.141687	-0.054974	0.006633
H157	H	0.506463	-0.404176	-0.454747
H158	H	1.006463	0.095824	0.045253
F159	F	0.640350	-0.707728	-0.388141
F160	F	1.140350	-0.207728	0.111859
H161	H	1.025920	-0.677672	-0.921697
H162	H	1.525920	-0.177672	-0.421697
H163	H	1.164918	-0.626141	-0.919869
H164	H	1.664918	-0.126141	-0.419869
H165	H	0.994546	-0.372353	-0.921510
H166	H	1.494546	0.127647	-0.421510
F167	F	1.205864	-0.469106	-0.926986
F168	F	1.705864	0.030894	-0.426986
H169	H	1.092302	-0.339017	-0.920197
H170	H	1.592302	0.160983	-0.420197
