data_functionalizedCrystal
_audit_creation_method	'MofGen! by Chris Wilmer'
_symmetry_space_group_name_H-M	'P1'
_symmetry_Int_Tables_number	1
_symmetry_cell_setting	triclinic
loop_
_symmetry_equiv_pos_as_xyz
  x,y,z
_cell_length_a	10.654562
_cell_length_b	14.044190
_cell_length_c	9.130313
_cell_angle_alpha	89.993628
_cell_angle_beta	89.996930
_cell_angle_gamma	88.840940
loop_
_atom_site_label
_atom_site_type_symbol
_atom_site_fract_x
_atom_site_fract_y
_atom_site_fract_z
O1	O	1.681223	0.133285	-0.121915
O2	O	1.317021	0.145966	-0.121899
O3	O	1.493651	0.001605	-0.121878
O4	O	1.504593	0.277647	-0.121936
O5	O	1.493649	0.001609	0.121721
O6	O	1.317019	0.145970	0.121700
O7	O	1.681221	0.133289	0.121684
Cu8	Cu	1.499120	0.139630	0.143935
Cu9	Cu	1.499122	0.139626	-0.144149
O10	O	1.504591	0.277651	0.121663
C11	C	1.270129	0.145035	-0.000097
C12	C	1.130405	0.142241	-0.000089
C13	C	1.064743	0.140941	0.132685
C14	C	0.933457	0.138324	0.132662
C15	C	0.933509	0.138312	-0.132923
C16	C	1.064792	0.140922	-0.132898
C17	C	1.064712	0.140951	0.286019
C18	C	0.933426	0.138334	0.285995
C19	C	1.488863	-0.033739	-0.000074
C20	C	1.474584	-0.139060	-0.000060
C21	C	1.549749	-0.388849	-0.000121
C22	C	1.448499	-0.331889	-0.000106
C23	C	1.463016	-0.224589	-0.000081
C24	C	1.535234	-0.496160	-0.000147
C25	C	1.728114	0.134221	-0.000121
C26	C	1.867837	0.137014	-0.000138
C27	C	1.509379	0.312995	-0.000144
C28	C	1.523659	0.418315	-0.000167
N29	N	1.499127	0.139633	0.346557
N30	N	1.499124	0.139615	-0.346772
C31	C	1.577363	0.075732	0.423218
C32	C	1.577359	0.075720	0.576555
C33	C	1.420879	0.203520	0.576556
C34	C	1.420878	0.203526	0.423222
C35	C	1.667709	0.001950	0.423219
C36	C	1.667705	0.001939	0.576556
H37	H	0.880071	0.137239	-0.241051
H38	H	1.357170	0.255539	0.638993
H39	H	1.118251	0.141967	-0.241016
H40	H	1.104381	0.075397	0.344916
H41	H	1.101240	0.210133	0.333581
Cl42	Cl	0.876990	0.031624	0.359790
Cl43	Cl	1.297833	-0.381013	-0.000101
H44	H	1.357161	0.255551	0.360806
Cl45	Cl	0.872128	0.239546	0.376852
Cl46	Cl	1.700405	-0.339724	-0.000105
H47	H	1.638937	-0.070961	0.381616
Cl48	Cl	1.609893	-0.104431	0.650003
Cl49	Cl	1.819229	0.027028	0.640807
H50	H	1.761215	0.025056	0.375651
