data_functionalizedCrystal
_audit_creation_method	'MofGen! by Chris Wilmer'
_symmetry_space_group_name_H-M	'P1'
_symmetry_Int_Tables_number	1
_symmetry_cell_setting	triclinic
loop_
_symmetry_equiv_pos_as_xyz
  x,y,z
_cell_length_a	25.639239
_cell_length_b	18.101398
_cell_length_c	18.101398
_cell_angle_alpha	90.006000
_cell_angle_beta	90.006971
_cell_angle_gamma	89.966508
loop_
_atom_site_label
_atom_site_type_symbol
_atom_site_fract_x
_atom_site_fract_y
_atom_site_fract_z
Zn1	Zn	-0.208348	-1.131975	0.418517
Zn2	Zn	0.291652	-0.631975	0.918517
Zn3	Zn	-0.295748	-1.131886	0.294671
Zn4	Zn	0.204252	-0.631886	0.794671
Zn5	Zn	-0.208321	-1.008166	0.294712
Zn6	Zn	0.291679	-0.508166	0.794712
Zn7	Zn	-0.295746	-1.008068	0.418494
Zn8	Zn	0.204254	-0.508068	0.918494
O9	O	-0.252041	-1.070024	0.356599
O10	O	0.247959	-0.570024	0.856599
O11	O	-0.219954	-1.235596	0.402081
O12	O	0.280046	-0.735596	0.902081
O13	O	-0.284141	-1.115478	0.191044
O14	O	0.215859	-0.615478	0.691044
O15	O	-0.135159	-1.024667	0.311162
O16	O	0.364841	-0.524667	0.811162
O17	O	-0.284167	-1.235531	0.311092
O18	O	0.215833	-0.735531	0.811092
O19	O	-0.135179	-1.115629	0.402121
O20	O	0.364821	-0.615629	0.902121
O21	O	-0.219908	-1.024581	0.191074
O22	O	0.280092	-0.524581	0.691074
O23	O	-0.219906	-0.904520	0.311140
O24	O	0.280094	-0.404520	0.811140
O25	O	-0.284163	-1.024502	0.522130
O26	O	0.215837	-0.524502	1.022130
O27	O	-0.284137	-0.904449	0.402081
O28	O	0.215863	-0.404449	0.902081
O29	O	-0.219951	-1.115535	0.522147
O30	O	0.280049	-0.615535	1.022147
O31	O	-0.368913	-1.115384	0.311070
O32	O	0.131087	-0.615384	0.811070
O33	O	-0.368912	-1.024415	0.402042
O34	O	0.131088	-0.524415	0.902042
C35	C	-0.252018	-0.877613	0.356613
C36	C	0.247982	-0.377613	0.856613
C37	C	-0.252021	-0.795299	0.356636
C38	C	0.247979	-0.295299	0.856636
C39	C	-0.252049	-0.496208	0.356612
C40	C	0.247951	0.003792	0.856612
C41	C	-0.292657	-0.527513	0.413547
C42	C	0.207343	-0.027513	0.913547
C43	C	-0.292531	-0.613132	0.413779
C44	C	0.207469	-0.113132	0.913779
C45	C	-0.252036	-0.644591	0.356624
C46	C	0.247964	-0.144591	0.856624
C47	C	-0.196972	-0.613541	0.377955
C48	C	0.303028	-0.113541	0.877955
C49	C	-0.197215	-0.527896	0.378362
C50	C	0.302785	-0.027896	0.878362
C51	C	-0.266020	-0.527773	0.278208
C52	C	0.233980	-0.027773	0.778208
C53	C	-0.267230	-0.613423	0.278625
C54	C	0.232770	-0.113423	0.778625
C55	C	-0.252025	-0.728450	0.356630
C56	C	0.247975	-0.228450	0.856630
C57	C	-0.252057	-0.412349	0.356608
C58	C	0.247943	0.087651	0.856608
C59	C	-0.387883	-1.069899	0.356565
C60	C	0.112117	-0.569899	0.856565
C61	C	-0.445997	-1.069914	0.356575
C62	C	0.054003	-0.569914	0.856575
C63	C	-0.806349	-1.117515	0.309310
C64	C	-0.306349	-0.617515	0.809310
C65	C	-0.860953	-1.117543	0.309320
C66	C	-0.360953	-0.617543	0.809320
O67	O	-0.889180	-1.157886	0.269097
O68	O	-0.389180	-0.657886	0.769097
N69	N	-0.888280	-1.070154	0.356648
N70	N	-0.388280	-0.570154	0.856648
C71	C	-0.860999	-1.022738	0.403974
C72	C	-0.360999	-0.522738	0.903974
O73	O	-0.889257	-0.982433	0.444231
O74	O	-0.389257	-0.482433	0.944231
C75	C	-0.806396	-1.022714	0.403967
C76	C	-0.306396	-0.522714	0.903967
C77	C	-0.779072	-1.070101	0.356631
C78	C	-0.279072	-0.570101	0.856631
C79	C	-0.779025	-1.164899	0.261979
C80	C	-0.279025	-0.664899	0.761979
C81	C	-0.724424	-1.164869	0.261968
C82	C	-0.224424	-0.664869	0.761968
C83	C	-0.697148	-1.117455	0.309289
C84	C	-0.197148	-0.617455	0.809289
C85	C	-0.724472	-1.070071	0.356620
C86	C	-0.224472	-0.570071	0.856620
C87	C	-0.779117	-0.975302	0.451296
C88	C	-0.279117	-0.475302	0.951296
C89	C	-0.724510	-0.975282	0.451286
C90	C	-0.224510	-0.475282	0.951286
C91	C	-0.697186	-1.022669	0.403950
C92	C	-0.197186	-0.522669	0.903950
C93	C	-0.642594	-1.022628	0.403930
C94	C	-0.142594	-0.522628	0.903930
N95	N	-0.615268	-1.070017	0.356603
N96	N	-0.115268	-0.570017	0.856603
C97	C	-0.642544	-1.117431	0.309282
C98	C	-0.142544	-0.617431	0.809282
C99	C	-0.975670	-1.022794	0.403985
C100	C	-0.475670	-0.522794	0.903985
C101	C	-1.030272	-1.022814	0.403989
C102	C	-0.530272	-0.522814	0.903989
C103	C	-1.030222	-1.117620	0.309336
C104	C	-0.530222	-0.617620	0.809336
C105	C	-0.975619	-1.117596	0.309329
C106	C	-0.475619	-0.617596	0.809329
C107	C	-0.948343	-1.070183	0.356658
C108	C	-0.448343	-0.570183	0.856658
C109	C	-0.527879	-1.117364	0.309263
C110	C	-0.027879	-0.617364	0.809263
C111	C	-0.473274	-1.117328	0.309254
C112	C	0.026726	-0.617328	0.809254
C113	C	-0.473329	-1.022524	0.403909
C114	C	0.026671	-0.522524	0.903909
C115	C	-0.527929	-1.022557	0.403916
C116	C	-0.027929	-0.522557	0.903916
C117	C	-0.555203	-1.069983	0.356590
C118	C	-0.055203	-0.569983	0.856590
O119	O	-0.614333	-0.982307	0.444135
O120	O	-0.114333	-0.482307	0.944135
O121	O	-0.614280	-1.157736	0.269039
O122	O	-0.114280	-0.657736	0.769039
C123	C	-0.115668	-1.070169	0.356649
C124	C	0.384332	-0.570169	0.856649
C125	C	-0.057554	-1.070231	0.356670
C126	C	0.442446	-0.570231	0.856670
C127	C	-0.252060	-1.070017	0.549761
C128	C	0.247940	-0.570017	1.049761
C129	C	-0.252068	-1.070015	0.632075
C130	C	0.247932	-0.570015	1.132075
C131	C	-0.252061	-0.263186	0.356590
C132	C	0.247939	0.236814	0.856590
C133	C	-0.252064	-0.345500	0.356599
C134	C	0.247936	0.154500	0.856599
C135	C	-0.252059	-1.070009	0.782783
C136	C	0.247941	-0.570009	1.282783
C137	C	-0.292458	-1.012736	0.814126
C138	C	0.207542	-0.512736	1.314126
C139	C	-0.292334	-1.012508	0.899744
C140	C	0.207666	-0.512508	1.399744
C141	C	-0.252052	-1.070004	0.931166
C142	C	0.247948	-0.570004	1.431166
C143	C	-0.196909	-1.049134	0.900090
C144	C	0.303091	-0.549134	1.400090
C145	C	-0.197147	-1.048722	0.814445
C146	C	0.302853	-0.548722	1.314445
C147	C	-0.266321	-1.148296	0.814336
C148	C	0.233679	-0.648296	1.314336
C149	C	-0.267532	-1.147873	0.899986
C150	C	0.232468	-0.647873	1.399986
C151	C	-0.252045	-1.070002	1.015025
C152	C	0.247955	-0.570002	1.515025
C153	C	-0.252063	-1.070009	0.698924
C154	C	0.247937	-0.570009	1.198924
C155	C	-0.252038	-1.070017	1.164188
C156	C	0.247962	-0.570017	1.664188
C157	C	-0.252044	-1.069998	1.081874
C158	C	0.247956	-0.569998	1.581874
H159	H	-0.305485	-0.506157	0.258824
H160	H	0.194515	-0.006157	0.758824
C161	C	-0.809163	-0.923186	0.503374
C162	C	-0.309163	-0.423186	1.003374
H163	H	-0.845591	-0.929982	0.496609
H164	H	-0.345591	-0.429982	0.996609
H165	H	-0.800192	-0.933989	0.553133
H166	H	-0.300192	-0.433989	1.053133
H167	H	-0.800248	-0.873428	0.492502
H168	H	-0.300248	-0.373428	0.992502
C169	C	-0.180676	-0.642498	0.454552
C170	C	0.319324	-0.142498	0.954552
H171	H	-0.207351	-0.673502	0.473633
H172	H	0.292649	-0.173502	0.973633
H173	H	-0.149204	-0.669874	0.450229
H174	H	0.350796	-0.169874	0.950229
H175	H	-0.175433	-0.601969	0.487058
H176	H	0.324567	-0.101969	0.987058
H177	H	-0.550079	-1.155984	0.270727
H178	H	-0.050079	-0.655984	0.770727
C179	C	-0.155086	-1.102642	0.786427
C180	C	0.344914	-0.602642	1.286427
H181	H	-0.154949	-1.102758	0.733943
H182	H	0.345051	-0.602758	1.233943
H183	H	-0.121883	-1.087464	0.804071
H184	H	0.378117	-0.587464	1.304071
H185	H	-0.162484	-1.150972	0.803975
H186	H	0.337516	-0.650972	1.303975
H187	H	-0.165897	-0.633922	0.337779
H188	H	0.334103	-0.133922	0.837779
C189	C	-0.443218	-1.169446	0.257176
C190	C	0.056782	-0.669446	0.757176
H191	H	-0.406791	-1.162633	0.263936
H192	H	0.093209	-0.662633	0.763936
H193	H	-0.452128	-1.219202	0.268043
H194	H	0.047872	-0.719202	0.768043
H195	H	-0.452189	-1.158640	0.207413
H196	H	0.047811	-0.658640	0.707413
C197	C	-0.347864	-1.030116	0.786291
C198	C	0.152136	-0.530116	1.286291
H199	H	-0.346858	-1.072454	0.755302
H200	H	0.153142	-0.572454	1.255302
H201	H	-0.370047	-1.039457	0.827264
H202	H	0.129953	-0.539457	1.327264
H203	H	-0.360868	-0.989159	0.759117
H204	H	0.139132	-0.489159	1.259117
H205	H	-0.702304	-0.936674	0.489829
H206	H	-0.202304	-0.436674	0.989829
H207	H	-0.307749	-0.633723	0.262537
H208	H	0.192251	-0.133723	0.762537
H209	H	-0.550178	-0.983973	0.442463
H210	H	-0.050178	-0.483973	0.942463
C211	C	-0.279837	-0.934809	0.785088
C212	C	0.220163	-0.434809	1.285088
H213	H	-0.304428	-0.900545	0.804291
H214	H	0.195572	-0.400545	1.304291
H215	H	-0.245746	-0.921117	0.800396
H216	H	0.254254	-0.421117	1.300396
H217	H	-0.281558	-0.934688	0.732663
H218	H	0.218442	-0.434688	1.232663
C219	C	-0.181209	-0.500905	0.455790
C220	C	0.318791	-0.000905	0.955790
H221	H	-0.181213	-0.448430	0.456720
H222	H	0.318787	0.051570	0.956720
H223	H	-0.205283	-0.519015	0.491316
H224	H	0.294717	-0.019015	0.991316
H225	H	-0.147247	-0.518615	0.467097
H226	H	0.352753	-0.018615	0.967097
H227	H	-0.451112	-0.983918	0.442435
H228	H	0.048888	-0.483918	0.942435
C229	C	-0.180323	-0.972686	0.929072
C230	C	0.319677	-0.472686	1.429072
H231	H	-0.146901	-0.960549	0.909960
H232	H	0.353099	-0.460549	1.409960
H233	H	-0.204956	-0.936633	0.913636
H234	H	0.295044	-0.436633	1.413636
H235	H	-0.178873	-0.973719	0.981504
H236	H	0.321127	-0.473719	1.481504
H237	H	-0.333218	-1.025534	0.920755
H238	H	0.166782	-0.525534	1.420755
C239	C	-0.694375	-1.217004	0.209907
C240	C	-0.194375	-0.717004	0.709907
H241	H	-0.718447	-1.245248	0.181736
H242	H	-0.218447	-0.745248	0.681736
H243	H	-0.673096	-1.188703	0.177610
H244	H	-0.173096	-0.688703	0.677610
H245	H	-0.673052	-1.249242	0.238264
H246	H	-0.173052	-0.749242	0.738264
C247	C	-0.180857	-0.971426	0.787469
C248	C	0.319143	-0.471426	1.287469
H249	H	-0.174159	-0.940571	0.828852
H250	H	0.325841	-0.440571	1.328852
H251	H	-0.150212	-0.975353	0.758240
H252	H	0.349788	-0.475353	1.258240
H253	H	-0.208160	-0.950658	0.758683
H254	H	0.291840	-0.450658	1.258683
H255	H	-0.165876	-0.507190	0.338795
H256	H	0.334124	-0.007190	0.838795
H257	H	-0.305851	-1.167352	0.792728
H258	H	0.194149	-0.667352	1.292728
H259	H	-0.801228	-1.203513	0.223444
H260	H	-0.301228	-0.703513	0.723444
C261	C	-0.226073	-0.500413	0.220894
C262	C	0.273927	-0.000413	0.720894
H263	H	-0.201000	-0.469902	0.244591
H264	H	0.299000	0.030098	0.744591
H265	H	-0.209049	-0.541598	0.199043
H266	H	0.290951	-0.041598	0.699043
H267	H	-0.243529	-0.472838	0.183698
H268	H	0.256471	0.027162	0.683698
C269	C	-0.230172	-0.642345	0.218237
C270	C	0.269828	-0.142345	0.718237
H271	H	-0.204833	-0.673944	0.239901
H272	H	0.295167	-0.173944	0.739901
H273	H	-0.249608	-0.669085	0.182450
H274	H	0.250392	-0.169085	0.682450
H275	H	-0.213201	-0.601844	0.195113
H276	H	0.286799	-0.101844	0.695113
C277	C	-0.945568	-1.169727	0.257266
C278	C	-0.445568	-0.669727	0.757266
H279	H	-0.969638	-1.197969	0.229090
H280	H	-0.469638	-0.697969	0.729090
H281	H	-0.924287	-1.141421	0.224974
H282	H	-0.424287	-0.641421	0.724974
H283	H	-0.924245	-1.201967	0.285621
H284	H	-0.424245	-0.701967	0.785621
H285	H	-0.282879	-0.954497	0.920243
H286	H	0.217121	-0.454497	1.420243
C287	C	-0.280048	-0.640820	0.492252
C288	C	0.219952	-0.140820	0.992252
H289	H	-0.279934	-0.693303	0.492665
H290	H	0.220066	-0.193303	0.992665
H291	H	-0.246742	-0.623090	0.506861
H292	H	0.253258	-0.123090	1.006861
H293	H	-0.305774	-0.623158	0.525645
H294	H	0.194226	-0.123158	1.025645
H295	H	-1.052441	-1.156230	0.270807
H296	H	-0.552441	-0.656230	0.770807
C297	C	-1.060323	-0.970684	0.456053
C298	C	-0.560323	-0.470684	0.956053
H299	H	-1.036253	-0.942448	0.484236
H300	H	-0.536253	-0.442448	0.984236
H301	H	-1.081652	-0.938449	0.427710
H302	H	-0.581652	-0.438449	0.927710
H303	H	-1.081596	-0.999001	0.488352
H304	H	-0.581596	-0.499001	0.988352
H305	H	-0.953465	-0.984179	0.442523
H306	H	-0.453465	-0.484179	0.942523
H307	H	-0.165984	-1.089571	0.920442
H308	H	0.334016	-0.589571	1.420442
H309	H	-0.308115	-1.163614	0.920294
H310	H	0.191885	-0.663614	1.420294
H311	H	-0.240268	-1.192804	0.921377
H312	H	0.259732	-0.692804	1.421377
C313	C	-0.226578	-1.205940	0.786951
C314	C	0.273422	-0.705940	1.286951
H315	H	-0.201414	-1.182452	0.756436
H316	H	0.298586	-0.682452	1.256436
H317	H	-0.209639	-1.227927	0.828129
H318	H	0.290361	-0.727927	1.328129
H319	H	-0.244161	-1.242995	0.759377
H320	H	0.255839	-0.742995	1.259377
C321	C	-0.347694	-0.641496	0.395734
C322	C	0.152306	-0.141496	0.895734
H323	H	-0.347691	-0.693980	0.395853
H324	H	0.152309	-0.193980	0.895853
H325	H	-0.371537	-0.623898	0.431849
H326	H	0.128463	-0.123898	0.931849
H327	H	-0.357885	-0.624116	0.348361
H328	H	0.142115	-0.124116	0.848361
H329	H	-0.333624	-0.506894	0.400327
H330	H	0.166376	-0.006894	0.900327
H331	H	-0.283533	-0.505990	0.471303
H332	H	0.216467	-0.005990	0.971303
