data_functionalizedCrystal
_audit_creation_method	'MofGen! by Chris Wilmer'
_symmetry_space_group_name_H-M	'P1'
_symmetry_Int_Tables_number	1
_symmetry_cell_setting	triclinic
loop_
_symmetry_equiv_pos_as_xyz
  x,y,z
_cell_length_a	18.100771
_cell_length_b	15.297475
_cell_length_c	15.296720
_cell_angle_alpha	91.617114
_cell_angle_beta	80.097810
_cell_angle_gamma	99.337564
loop_
_atom_site_label
_atom_site_type_symbol
_atom_site_fract_x
_atom_site_fract_y
_atom_site_fract_z
Zn1	Zn	0.576261	1.249328	-0.729702
Zn2	Zn	0.682878	1.273837	-0.583792
Zn3	Zn	0.534665	1.128500	-0.557719
Zn4	Zn	0.675600	1.102115	-0.704881
O5	O	0.617351	1.188445	-0.644024
O6	O	0.610858	1.375013	-0.731646
O7	O	0.648855	1.275857	-0.457682
O8	O	0.436580	1.145313	-0.580009
O9	O	0.689189	1.393019	-0.624447
O10	O	0.467141	1.234085	-0.706364
O11	O	0.539963	1.169078	-0.438526
O12	O	0.532906	1.002566	-0.555941
O13	O	0.676785	1.100344	-0.830826
O14	O	0.636451	0.983181	-0.664061
O15	O	0.603800	1.208501	-0.849062
O16	O	0.785515	1.250273	-0.600379
O17	O	0.780168	1.124109	-0.689343
C18	C	0.579375	0.961128	-0.604479
C19	C	0.563150	0.863877	-0.587582
C20	C	0.424247	1.189908	-0.643047
C21	C	0.341957	1.190532	-0.642630
C22	C	0.733325	0.549528	-0.764789
C23	C	0.748575	0.640901	-0.780662
C24	C	0.702220	0.696649	-0.732393
C25	C	0.640612	0.661017	-0.668249
C26	C	0.625364	0.569636	-0.652370
C27	C	0.594259	0.716757	-0.619974
C28	C	0.532651	0.681124	-0.555830
C29	C	0.517406	0.589752	-0.539954
C30	C	0.563761	0.534004	-0.588222
C31	C	0.609507	0.808137	-0.635854
C32	C	0.501546	0.828245	-0.523435
C33	C	0.486296	0.736873	-0.507562
C34	C	0.042774	1.187830	-0.644531
C35	C	0.093329	1.243694	-0.724019
C36	C	0.178990	1.244767	-0.723323
C37	C	0.191202	1.189170	-0.643589
C38	C	0.152310	1.229964	-0.555788
C39	C	0.066766	1.229611	-0.556810
C40	C	0.062812	1.091432	-0.651805
C41	C	0.148824	1.092340	-0.653385
C42	C	0.275087	1.189927	-0.643051
C43	C	-0.041111	1.187076	-0.645064
C44	C	0.809710	1.187008	-0.645020
C45	C	0.892019	1.186468	-0.645490
C46	C	0.644121	1.148745	-0.872635
C47	C	0.655528	1.131827	-0.970056
C48	C	0.655475	1.416649	-0.683724
C49	C	0.671722	1.513896	-0.700641
C50	C	0.535695	1.309392	-1.282648
C51	C	0.524979	1.325293	-1.191117
C52	C	0.557615	1.276928	-1.135847
C53	C	0.600969	1.212659	-1.172117
C54	C	0.611691	1.196762	-1.263657
C55	C	0.633611	1.164298	-1.116857
C56	C	0.676966	1.100029	-1.153127
C57	C	0.687685	1.084135	-1.244658
C58	C	0.655049	1.132500	-1.299928
C59	C	0.622890	1.180195	-1.025317
C60	C	0.698886	1.067565	-1.006327
C61	C	0.709602	1.051664	-1.097857
C62	C	0.590641	1.228041	-0.416310
C63	C	0.579053	1.245130	-0.318918
H64	H	0.659669	0.837140	-0.688081
C65	C	0.719008	0.797164	-0.749841
N66	N	0.731659	0.872875	-0.762983
H67	H	0.436135	0.707848	-0.455335
C68	C	0.816343	0.680090	-0.851216
N69	N	0.867389	0.709608	-0.904362
H70	H	0.509132	1.348769	-1.327656
H71	H	0.663772	1.119557	-1.374461
H72	H	0.722994	1.031810	-1.274187
H73	H	0.725463	1.028183	-0.961326
H74	H	0.744901	0.999336	-1.127401
C75	C	0.575195	1.250883	-0.985430
N76	N	0.539266	1.304127	-0.955388
H77	H	0.548888	1.289878	-1.061319
H78	H	0.080551	1.314386	-0.720604
C79	C	0.050692	1.325489	-0.545889
N80	N	0.038590	1.397707	-0.537664
C81	C	0.450551	0.889565	-0.470338
N82	N	0.412144	0.935756	-0.430349
H83	H	0.771064	0.504132	-0.804077
H84	H	0.208271	1.316262	-0.719517
H85	H	0.467247	0.560745	-0.487715
C86	C	0.546979	0.433485	-0.570779
N87	N	0.534338	0.357772	-0.557646
C88	C	0.215817	1.207777	-0.811972
N89	N	0.243552	1.179914	-0.878746
H90	H	0.046029	1.056958	-0.714161
C91	C	0.073998	1.206403	-0.813366
N92	N	0.059432	1.178314	-0.880664
C93	C	0.477283	1.395978	-1.151226
N94	N	0.441352	1.449219	-1.121179
H95	H	0.174815	1.061841	-0.717936
H96	H	0.032010	1.191571	-0.496413
H97	H	0.158602	1.191619	-0.495376
H98	H	0.181691	1.300628	-0.546960
C99	C	0.158628	1.031912	-0.578759
N100	N	0.166007	0.986402	-0.522540
C101	C	0.016281	1.034970	-0.573308
N102	N	-0.018771	0.992450	-0.514184
