data_functionalizedCrystal
_audit_creation_method	'MofGen! by Chris Wilmer'
_symmetry_space_group_name_H-M	'P1'
_symmetry_Int_Tables_number	1
_symmetry_cell_setting	triclinic
loop_
_symmetry_equiv_pos_as_xyz
  x,y,z
_cell_length_a	19.805405
_cell_length_b	18.215407
_cell_length_c	18.215399
_cell_angle_alpha	89.980167
_cell_angle_beta	90.030610
_cell_angle_gamma	89.973142
loop_
_atom_site_label
_atom_site_type_symbol
_atom_site_fract_x
_atom_site_fract_y
_atom_site_fract_z
Zn1	Zn	-0.269462	-1.125064	0.416102
Zn2	Zn	0.063871	-0.791731	0.749436
Zn3	Zn	0.397205	-0.458397	1.082769
Zn4	Zn	-0.382653	-1.124969	0.293030
Zn5	Zn	-0.049320	-0.791636	0.626364
Zn6	Zn	0.284014	-0.458303	0.959697
Zn7	Zn	-0.269484	-1.001997	0.293050
Zn8	Zn	0.063849	-0.668663	0.626383
Zn9	Zn	0.397182	-0.335330	0.959716
Zn10	Zn	-0.382615	-1.001959	0.416055
Zn11	Zn	-0.049282	-0.668626	0.749388
Zn12	Zn	0.284051	-0.335293	1.082722
O13	O	-0.326054	-1.063497	0.354559
O14	O	0.007280	-0.730164	0.687893
O15	O	0.340613	-0.396831	1.021226
O16	O	-0.284484	-1.228036	0.399788
O17	O	0.048850	-0.894702	0.733121
O18	O	0.382183	-0.561369	1.066455
O19	O	-0.367666	-1.108633	0.190049
O20	O	-0.034333	-0.775299	0.523382
O21	O	0.299001	-0.441966	0.856715
O22	O	-0.174765	-1.018377	0.309401
O23	O	0.158569	-0.685044	0.642734
O24	O	0.491902	-0.351711	0.976067
O25	O	-0.367644	-1.227966	0.309368
O26	O	-0.034311	-0.894633	0.642701
O27	O	0.299022	-0.561299	0.976034
O28	O	-0.174748	-1.108794	0.399807
O29	O	0.158585	-0.775461	0.733140
O30	O	0.491918	-0.442128	1.066474
O31	O	-0.284521	-1.018285	0.190063
O32	O	0.048812	-0.684952	0.523396
O33	O	0.382145	-0.351619	0.856729
O34	O	-0.284485	-0.899008	0.309355
O35	O	0.048849	-0.565674	0.642688
O36	O	0.382182	-0.232341	0.976022
O37	O	-0.367580	-1.018313	0.519046
O38	O	-0.034247	-0.684980	0.852379
O39	O	0.299086	-0.351647	1.185712
O40	O	-0.367602	-0.898980	0.399727
O41	O	-0.034268	-0.565647	0.733060
O42	O	0.299065	-0.232313	1.066393
O43	O	-0.284447	-1.108758	0.519080
O44	O	0.048886	-0.775425	0.852414
O45	O	0.382220	-0.442091	1.185747
O46	O	-0.477365	-1.108596	0.309322
O47	O	-0.144031	-0.775263	0.642655
O48	O	0.189302	-0.441930	0.975989
O49	O	-0.477337	-1.018221	0.399708
O50	O	-0.144004	-0.684888	0.733041
O51	O	0.189330	-0.351555	1.066374
C52	C	-0.326042	-0.872291	0.354538
C53	C	0.007291	-0.538958	0.687872
C54	C	0.340625	-0.205624	1.021205
C55	C	-0.326053	-0.790492	0.354547
C56	C	0.007280	-0.457159	0.687880
C57	C	0.340613	-0.123826	1.021213
C58	C	-0.501910	-1.063415	0.354524
C59	C	-0.168576	-0.730081	0.687857
C60	C	0.164757	-0.396748	1.021190
C61	C	-0.577142	-1.063446	0.354533
C62	C	-0.243808	-0.730113	0.687866
C63	C	0.089525	-0.396780	1.021200
C64	C	-0.326007	-1.063542	0.546512
C65	C	0.007326	-0.730209	0.879846
C66	C	0.340660	-0.396876	1.213179
C67	C	-0.325987	-1.063561	0.628311
C68	C	0.007346	-0.730228	0.961645
C69	C	0.340680	-0.396895	1.294978
C70	C	-0.612478	-1.110550	0.307518
C71	C	-0.279144	-0.777217	0.640852
C72	C	0.054189	-0.443884	0.974185
C73	C	-0.683166	-1.110582	0.307535
C74	C	-0.349833	-0.777248	0.640868
C75	C	-0.016500	-0.443915	0.974201
C76	C	-0.718517	-1.063505	0.354562
C77	C	-0.385184	-0.730171	0.687896
C78	C	-0.051851	-0.396838	1.021229
C79	C	-0.683176	-1.016399	0.401582
C80	C	-0.349843	-0.683065	0.734916
C81	C	-0.016510	-0.349732	1.068249
C82	C	-0.612489	-1.016372	0.401569
C83	C	-0.279156	-0.683038	0.734903
C84	C	0.054178	-0.349705	1.068236
C85	C	-0.968249	-1.016507	0.401637
C86	C	-0.634916	-0.683174	0.734970
C87	C	-0.301583	-0.349841	1.068303
C88	C	-1.038941	-1.016536	0.401645
C89	C	-0.705608	-0.683203	0.734978
C90	C	-0.372275	-0.349870	1.068311
C91	C	-1.038927	-1.110717	0.307602
C92	C	-0.705593	-0.777384	0.640936
C93	C	-0.372260	-0.444050	0.974269
C94	C	-0.968239	-1.110690	0.307589
C95	C	-0.634906	-0.777357	0.640923
C96	C	-0.301573	-0.444023	0.974256
C97	C	-0.932905	-1.063587	0.354611
C98	C	-0.599571	-0.730254	0.687945
C99	C	-0.266238	-0.396921	1.021278
C100	C	-0.856256	-1.063555	0.354594
C101	C	-0.522923	-0.730222	0.687928
C102	C	-0.189589	-0.396888	1.021261
C103	C	-0.795164	-1.063533	0.354577
C104	C	-0.461831	-0.730199	0.687910
C105	C	-0.128498	-0.396866	1.021243
C106	C	-0.149511	-1.063601	0.354611
C107	C	0.183822	-0.730267	0.687945
C108	C	0.517156	-0.396934	1.021278
C109	C	-0.074279	-1.063645	0.354633
C110	C	0.259054	-0.730311	0.687967
C111	C	0.592388	-0.396978	1.021300
C112	C	-0.326066	-1.255450	0.354581
C113	C	0.007268	-0.922117	0.687914
C114	C	0.340601	-0.588784	1.021248
C115	C	-0.326071	-1.337249	0.354590
C116	C	0.007262	-1.003916	0.687923
C117	C	0.340596	-0.670582	1.021257
C118	C	-0.369400	-0.602303	0.401544
C119	C	-0.036067	-0.268970	0.734877
C120	C	0.297266	0.064363	1.068211
C121	C	-0.369403	-0.525444	0.401553
C122	C	-0.036069	-0.192111	0.734887
C123	C	0.297264	0.141222	1.068220
C124	C	-0.282719	-0.525444	0.307591
C125	C	0.050614	-0.192110	0.640924
C126	C	0.383948	0.141223	0.974257
C127	C	-0.282714	-0.602301	0.307586
C128	C	0.050619	-0.268968	0.640919
C129	C	0.383953	0.064366	0.974252
C130	C	-0.326059	-0.640729	0.354561
C131	C	0.007275	-0.307395	0.687895
C132	C	0.340608	0.025938	1.021228
C133	C	-0.326066	-0.487013	0.354575
C134	C	0.007268	-0.153679	0.687909
C135	C	0.340601	0.179654	1.021242
C136	C	-0.326068	-0.403679	0.354585
C137	C	0.007266	-0.070346	0.687918
C138	C	0.340599	0.262988	1.021252
C139	C	-0.326056	-0.724068	0.354553
C140	C	0.007277	-0.390734	0.687886
C141	C	0.340611	-0.057401	1.021220
C142	C	-0.326051	-1.063495	0.163353
C143	C	0.007282	-0.730162	0.496686
C144	C	0.340615	-0.396828	0.830020
C145	C	-0.325880	-1.063619	0.081555
C146	C	0.007453	-0.730285	0.414888
C147	C	0.340786	-0.396952	0.748221
C148	C	-0.282659	-1.110673	0.816524
C149	C	0.050674	-0.777339	1.149858
C150	C	0.384008	-0.444006	1.483191
C151	C	-0.282639	-1.110682	0.893383
C152	C	0.050694	-0.777348	1.226717
C153	C	0.384027	-0.444015	1.560050
C154	C	-0.369210	-1.016502	0.893336
C155	C	-0.035877	-0.683169	1.226669
C156	C	0.297456	-0.349835	1.560003
C157	C	-0.369226	-1.016490	0.816479
C158	C	-0.035893	-0.683157	1.149812
C159	C	0.297440	-0.349823	1.483145
C160	C	-0.325952	-1.063580	0.778075
C161	C	0.007382	-0.730246	1.111408
C162	C	0.340715	-0.396913	1.444742
C163	C	-0.325916	-1.063600	0.931791
C164	C	0.007417	-0.730267	1.265124
C165	C	0.340751	-0.396934	1.598458
C166	C	-0.325895	-1.063609	1.015125
C167	C	0.007438	-0.730276	1.348458
C168	C	0.340772	-0.396943	1.681791
C169	C	-0.325972	-1.063570	0.694736
C170	C	0.007362	-0.730236	1.028069
C171	C	0.340695	-0.396903	1.361402
H172	H	-0.583700	-1.148883	0.269220
H173	H	-0.250366	-0.815549	0.602553
H174	H	0.082967	-0.482216	0.935887
N175	N	-0.235990	-1.161462	0.775102
N176	N	0.097344	-0.828129	1.108435
N177	N	0.430677	-0.494796	1.441768
H178	H	-0.204630	-1.131573	0.743212
H179	H	0.128704	-0.798240	1.076545
H180	H	0.462037	-0.464906	1.409879
H181	H	-0.263561	-1.195534	0.743259
H182	H	0.069773	-0.862201	1.076592
H183	H	0.403106	-0.528867	1.409926
N184	N	-0.415892	-0.965726	0.934760
N185	N	-0.082559	-0.632393	1.268093
N186	N	0.250775	-0.299060	1.601427
H187	H	-0.443320	-0.935890	0.898738
H188	H	-0.109986	-0.602557	1.232071
H189	H	0.223347	-0.269224	1.565404
H190	H	-0.388336	-0.931688	0.966654
H191	H	-0.055002	-0.598355	1.299987
H192	H	0.278331	-0.265022	1.633321
N193	N	-0.415926	-0.965688	0.775014
N194	N	-0.082593	-0.632355	1.108347
N195	N	0.250740	-0.299022	1.441681
H196	H	-0.447302	-0.995569	0.743118
H197	H	-0.113969	-0.662235	1.076452
H198	H	0.219365	-0.328902	1.409785
H199	H	-0.388377	-0.931602	0.743174
H200	H	-0.055043	-0.598268	1.076507
H201	H	0.278290	-0.264935	1.409841
H202	H	-0.404693	-0.633589	0.439797
H203	H	-0.071359	-0.300256	0.773130
H204	H	0.261974	0.033078	1.106463
N205	N	-0.416156	-0.483999	0.452220
N206	N	-0.082823	-0.150666	0.785553
N207	N	0.250510	0.182668	1.118887
H208	H	-0.388695	-0.452138	0.486385
H209	H	-0.055361	-0.118805	0.819718
H210	H	0.277972	0.214529	1.153051
H211	H	-0.443603	-0.520054	0.481925
H212	H	-0.110270	-0.186721	0.815259
H213	H	0.223064	0.146612	1.148592
N214	N	-0.235955	-0.643744	0.256913
N215	N	0.097378	-0.310410	0.590246
N216	N	0.430712	0.022923	0.923579
H217	H	-0.246403	-0.630346	0.204309
H218	H	0.086930	-0.297013	0.537642
H219	H	0.420263	0.036321	0.870976
H220	H	-0.242544	-0.698251	0.264101
H221	H	0.090789	-0.364918	0.597435
H222	H	0.424122	-0.031584	0.930768
N223	N	-0.235982	-0.483994	0.256917
N224	N	0.097352	-0.150660	0.590250
N225	N	0.430685	0.182673	0.923583
H226	H	-0.208523	-0.520001	0.227153
H227	H	0.124810	-0.186667	0.560486
H228	H	0.458143	0.146666	0.893820
H229	H	-0.204694	-0.452128	0.286933
H230	H	0.128639	-0.118795	0.620266
H231	H	0.461972	0.214538	0.953600
N232	N	-0.235938	-1.161466	0.934855
N233	N	0.097395	-0.828133	1.268188
N234	N	0.430729	-0.494800	1.601522
H235	H	-0.208526	-1.191291	0.898861
H236	H	0.124807	-0.857957	1.232195
H237	H	0.458141	-0.524624	1.565528
H238	H	-0.263477	-1.195514	0.966747
H239	H	0.069856	-0.862181	1.300080
H240	H	0.403190	-0.528848	1.633414
N241	N	-0.721280	-1.161386	0.256826
N242	N	-0.387946	-0.828053	0.590160
N243	N	-0.054613	-0.494719	0.923493
H244	H	-0.688159	-1.191201	0.227029
H245	H	-0.354825	-0.857868	0.560362
H246	H	-0.021492	-0.524534	0.893696
H247	H	-0.750654	-1.131458	0.222750
H248	H	-0.417321	-0.798125	0.556083
H249	H	-0.083987	-0.464792	0.889416
N250	N	-0.930109	-1.161468	0.256871
N251	N	-0.596776	-0.828135	0.590205
N252	N	-0.263442	-0.494802	0.923538
H253	H	-0.942451	-1.150080	0.204279
H254	H	-0.609118	-0.816747	0.537613
H255	H	-0.275785	-0.483413	0.870946
H256	H	-0.942380	-1.214027	0.268421
H257	H	-0.609047	-0.880693	0.601754
H258	H	-0.275714	-0.547360	0.935087
H259	H	-1.067722	-0.978202	0.439946
H260	H	-0.734389	-0.644868	0.773279
H261	H	-0.401056	-0.311535	1.106613
N262	N	-1.077037	-1.161521	0.256881
N263	N	-0.743704	-0.828188	0.590215
N264	N	-0.410371	-0.494855	0.923548
H265	H	-1.127182	-1.154399	0.264023
H266	H	-0.793848	-0.821065	0.597357
H267	H	-0.460515	-0.487732	0.930690
H268	H	-1.064634	-1.214071	0.268375
H269	H	-0.731301	-0.880737	0.601708
H270	H	-0.397967	-0.547404	0.935041
H271	H	-0.939485	-0.978153	0.439923
H272	H	-0.606152	-0.644820	0.773256
H273	H	-0.272819	-0.311486	1.106589
H274	H	-0.583719	-0.978016	0.439854
H275	H	-0.250386	-0.644683	0.773188
H276	H	0.082948	-0.311349	1.106521
N277	N	-0.721301	-0.965624	0.452309
N278	N	-0.387968	-0.632291	0.785642
N279	N	-0.054634	-0.298957	1.118975
H280	H	-0.771443	-0.972786	0.445182
H281	H	-0.438110	-0.639452	0.778515
H282	H	-0.104777	-0.306119	1.111849
H283	H	-0.708990	-0.913067	0.440803
H284	H	-0.375657	-0.579734	0.774136
H285	H	-0.042323	-0.246401	1.107469
