data_functionalizedCrystal
_audit_creation_method	'MofGen! by Chris Wilmer'
_symmetry_space_group_name_H-M	'P1'
_symmetry_Int_Tables_number	1
_symmetry_cell_setting	triclinic
loop_
_symmetry_equiv_pos_as_xyz
  x,y,z
_cell_length_a	23.532407
_cell_length_b	10.489741
_cell_length_c	8.965430
_cell_angle_alpha	90.001157
_cell_angle_beta	89.995773
_cell_angle_gamma	96.306074
loop_
_atom_site_label
_atom_site_type_symbol
_atom_site_fract_x
_atom_site_fract_y
_atom_site_fract_z
O1	O	0.080340	-1.691383	-0.123964
O2	O	0.087881	-1.319936	-0.123989
O3	O	0.001253	-1.516860	-0.123949
O4	O	0.166968	-1.494458	-0.124005
O5	O	0.001259	-1.516844	0.124130
O6	O	0.087887	-1.319920	0.124090
O7	O	0.080346	-1.691366	0.124115
Cu8	Cu	0.084117	-1.505641	0.146754
Cu9	Cu	0.084110	-1.505661	-0.146628
O10	O	0.166974	-1.494442	0.124074
C11	C	0.087315	-1.272415	0.000048
C12	C	0.085611	-1.130842	0.000039
C13	C	-0.019964	-1.516282	0.000095
C14	C	-0.083192	-1.514566	0.000106
C15	C	0.080912	-1.738887	0.000075
C16	C	0.082616	-1.880460	0.000073
C17	C	-0.481594	-1.620344	0.000031
C18	C	-0.541005	-1.618751	0.000020
O19	O	-0.577100	-1.716808	-0.000029
N20	N	-0.564407	-1.501680	0.000013
C21	C	-0.528395	-1.386194	0.000003
O22	O	-0.553755	-1.286470	-0.000006
C23	C	-0.468985	-1.387789	0.000003
C24	C	-0.445587	-1.504868	0.000025
C25	C	-0.458195	-1.737414	0.000051
C26	C	-0.398788	-1.739007	0.000066
C27	C	-0.362781	-1.623530	0.000060
C28	C	-0.386180	-1.506460	0.000039
C29	C	-0.432974	-1.272305	-0.000018
C30	C	-0.373561	-1.273909	-0.000018
C31	C	-0.350162	-1.390988	0.000004
C32	C	-0.290766	-1.392576	0.000048
N33	N	-0.267364	-1.509648	0.000054
C34	C	-0.303371	-1.625125	0.000060
C35	C	-0.653160	-1.382854	-0.000002
C36	C	-0.712568	-1.381258	0.000008
C37	C	-0.725174	-1.613816	0.000023
C38	C	-0.665765	-1.615410	0.000023
C39	C	-0.629758	-1.499926	0.000005
C40	C	-0.178612	-1.628461	0.000092
C41	C	-0.119200	-1.630043	0.000112
C42	C	-0.106599	-1.397486	0.000090
C43	C	-0.166006	-1.395903	0.000077
C44	C	-0.202012	-1.511401	0.000073
O45	O	-0.254636	-1.294571	0.000090
O46	O	-0.278003	-1.724833	0.000049
C47	C	0.188191	-1.495021	0.000028
C48	C	0.251419	-1.496736	0.000006
N49	N	0.084121	-1.505637	0.353103
C50	C	0.030491	-1.064535	0.000072
C51	C	0.056526	-0.971550	-0.122250
C52	C	0.056545	-0.971568	0.122337
C53	C	0.111668	-1.039723	-0.122383
C54	C	0.111679	-1.039750	0.122313
C55	C	0.137754	-0.946792	-0.000039
N56	N	0.084101	-1.505676	-0.352977
C57	C	0.124171	-1.414538	0.450390
C58	C	0.135693	-1.529652	0.549807
C59	C	0.072603	-1.390572	0.549813
C60	C	0.095670	-1.620808	0.450331
C61	C	0.032557	-1.481652	0.450328
C62	C	0.044059	-1.596850	0.549701
H63	H	-0.207922	-1.722510	0.000082
O64	O	-0.334728	-1.149342	-0.000030
H65	H	-0.289484	-1.170108	-0.000029
O66	O	0.142523	-1.079554	-0.259531
H67	H	0.186907	-1.031181	-0.259873
O68	O	-0.000817	-1.699025	0.607109
H69	H	-0.032448	-1.653608	0.675243
O70	O	0.197838	-0.879332	-0.000143
H71	H	0.196158	-0.774003	0.000836
H72	H	0.134985	-1.070014	0.225718
O73	O	0.108629	-1.749760	0.392709
H74	H	0.151281	-1.769792	0.433537
O75	O	0.193443	-1.556499	0.607744
H76	H	0.222360	-1.568946	0.512286
O77	O	0.025651	-0.931557	0.259336
H78	H	-0.018860	-0.979206	0.259082
H79	H	0.158070	-1.337569	0.406786
H80	H	-0.011027	-1.461303	0.406598
H81	H	-0.185058	-1.300568	0.000101
H82	H	-0.077271	-1.303468	0.000090
O83	O	0.025632	-0.931497	-0.259212
H84	H	0.055041	-0.864293	-0.326440
O85	O	-0.737804	-1.254982	0.000004
H86	H	-0.702779	-1.174959	-0.000006
H87	H	0.062871	-1.293247	0.593516
H88	H	-0.014820	-1.115731	-0.000066
O89	O	-0.640529	-1.741687	0.000037
H90	H	-0.613760	-1.747982	-0.101073
H91	H	-0.379743	-1.834344	0.000077
O92	O	-0.093961	-1.756325	0.000112
H93	H	-0.128985	-1.836352	0.000092
H94	H	-0.754503	-1.707843	0.000022
O95	O	-0.497026	-1.861978	0.000082
H96	H	-0.488638	-1.918061	-0.101011
O97	O	-0.614323	-1.258289	0.000018
H98	H	-0.640582	-1.176623	0.000032
O99	O	-0.458203	-1.146026	-0.000047
H100	H	-0.423175	-1.066009	-0.000069
