data_functionalizedCrystal
_audit_creation_method	'MofGen! by Chris Wilmer'
_symmetry_space_group_name_H-M	'P1'
_symmetry_Int_Tables_number	1
_symmetry_cell_setting	triclinic
loop_
_symmetry_equiv_pos_as_xyz
  x,y,z
_cell_length_a	15.538191
_cell_length_b	23.532407
_cell_length_c	14.750779
_cell_angle_alpha	102.554207
_cell_angle_beta	97.572172
_cell_angle_gamma	114.939614
loop_
_atom_site_label
_atom_site_type_symbol
_atom_site_fract_x
_atom_site_fract_y
_atom_site_fract_z
O1	O	1.231030	0.168700	-0.079874
O2	O	0.956158	0.102818	-0.079859
O3	O	1.101880	0.220373	-0.079879
O4	O	1.085308	0.051145	-0.079854
O5	O	1.143073	0.253602	0.079766
O6	O	0.997352	0.136047	0.079786
O7	O	1.272223	0.201929	0.079771
Zn8	Zn	1.141328	0.174264	0.105125
Zn9	Zn	1.087054	0.130483	-0.105213
O10	O	1.126502	0.084374	0.079791
C11	C	0.941595	0.112539	-0.000035
C12	C	0.836831	0.092007	-0.000030
C13	C	0.550937	0.295988	-0.000075
C14	C	0.452492	0.276680	-0.000073
C15	C	0.429037	0.168079	-0.000057
C16	C	0.527484	0.187379	-0.000054
C17	C	0.588427	0.251334	-0.000065
C18	C	0.564973	0.142724	-0.000044
C19	C	0.663410	0.162022	-0.000046
C20	C	0.724358	0.225973	-0.000059
C21	C	0.686864	0.270631	-0.000067
C22	C	0.504026	0.078768	-0.000040
C23	C	0.541516	0.034114	-0.000029
C24	C	0.639956	0.053412	-0.000025
C25	C	0.700904	0.117364	-0.000038
C26	C	0.677451	0.008755	-0.000017
C27	C	0.775888	0.028052	-0.000020
C28	C	0.799342	0.136661	-0.000041
C29	C	1.106328	0.046630	-0.000028
C30	C	1.107600	-0.016328	-0.000019
C31	C	1.029311	-0.431354	-0.000064
C32	C	1.030488	-0.490516	-0.000071
O33	O	0.957916	-0.542019	-0.000102
N34	N	1.117122	-0.495530	-0.000075
C35	C	1.202581	-0.441379	-0.000081
O36	O	1.276377	-0.451077	-0.000086
C37	C	1.201401	-0.382220	-0.000081
C38	C	1.114764	-0.377209	-0.000068
C39	C	0.942681	-0.426340	-0.000052
C40	C	0.941505	-0.367182	-0.000044
C41	C	1.026958	-0.313037	-0.000047
C42	C	1.113588	-0.318050	-0.000059
C43	C	1.286857	-0.328072	-0.000094
C44	C	1.285670	-0.268911	-0.000095
C45	C	1.199033	-0.263900	-0.000082
C46	C	1.197865	-0.204747	-0.000054
N47	N	1.111231	-0.199733	-0.000051
C48	C	1.025778	-0.253878	-0.000047
C49	C	1.205052	-0.565620	-0.000083
C50	C	1.206235	-0.624776	-0.000076
C51	C	1.034141	-0.673909	-0.000067
C52	C	1.032961	-0.614750	-0.000068
C53	C	1.118419	-0.560606	-0.000079
C54	C	1.023314	-0.129639	-0.000028
C55	C	1.022146	-0.070473	-0.000016
C56	C	1.194238	-0.021346	-0.000029
C57	C	1.195408	-0.080506	-0.000037
C58	C	1.109937	-0.134654	-0.000039
O59	O	1.270398	-0.153218	-0.000027
O60	O	0.951990	-0.244172	-0.000055
C61	C	1.286786	0.192207	-0.000055
C62	C	1.391549	0.212738	-0.000066
C63	C	1.122053	0.258117	-0.000062
C64	C	1.120780	0.321073	-0.000077
N65	N	1.178376	0.204144	0.248676
N66	N	1.050013	0.100609	-0.248764
C67	C	0.946545	0.017181	0.600526
C68	C	0.972512	0.038117	0.701022
C69	C	1.101575	0.142190	0.700966
C70	C	1.075615	0.121263	0.600469
C71	C	0.998100	0.058758	0.550257
C72	C	1.127170	0.162841	0.550199
C73	C	1.101215	0.141914	0.449711
C74	C	1.023705	0.079411	0.399491
C75	C	0.972145	0.037832	0.449768
C76	C	1.204689	0.225343	0.600414
C77	C	1.256244	0.266921	0.550144
C78	C	1.230285	0.245997	0.449654
C79	C	1.152775	0.183493	0.399434
C80	C	1.281845	0.287575	0.399377
C81	C	1.255891	0.266649	0.298888
C82	C	1.126821	0.162567	0.298945
H83	H	0.951595	-0.066398	-0.000001
O84	O	1.185175	0.209603	0.755134
H85	H	1.253695	0.213494	0.735831
H86	H	1.063693	0.111672	0.258061
O87	O	1.286400	0.037061	-0.000031
H88	H	1.346848	0.023644	-0.000033
H89	H	0.953716	-0.173722	-0.000031
O90	O	0.848059	-0.361781	-0.000038
H91	H	0.788842	-0.409378	-0.000045
H92	H	1.265958	-0.084583	-0.000034
O93	O	0.475777	-0.034863	-0.000018
H94	H	0.518386	-0.062673	-0.000015
O95	O	0.995700	0.056840	0.291106
H96	H	1.059266	0.056745	0.264582
O97	O	0.888538	-0.029584	0.395596
H98	H	0.857046	-0.054984	0.447432
H99	H	0.883417	-0.033714	0.559641
O100	O	1.299685	-0.630170	-0.000084
H101	H	1.321143	-0.642403	0.064984
O102	O	1.339851	0.334333	0.604305
H103	H	1.323264	0.372317	0.585007
H104	H	0.873090	-0.470424	-0.000052
O105	O	1.380305	-0.333464	-0.000113
H106	H	1.366789	-0.383694	-0.000107
O107	O	0.939519	-0.609346	-0.000052
H108	H	0.918070	-0.597106	-0.065116
O109	O	0.941965	-0.732317	-0.000075
H110	H	0.957345	-0.774295	-0.000089
H111	H	0.930524	0.004254	0.741946
O112	O	1.297236	-0.507215	-0.000071
H113	H	1.357671	-0.520645	-0.000061
O114	O	1.377846	-0.210509	-0.000097
H115	H	1.438283	-0.223937	-0.000097
O116	O	1.232694	0.247920	0.708799
H117	H	1.169132	0.248031	0.735318
O118	O	1.365452	0.354988	0.453537
H119	H	1.374837	0.362554	0.531859
H120	H	0.423872	0.063058	-0.000041
O121	O	1.311486	0.311491	0.244658
H122	H	1.369739	0.358473	0.296455
H123	H	0.848967	0.188741	-0.000044
H124	H	0.804508	0.241682	-0.000074
H125	H	0.600563	0.348068	-0.000078
O126	O	0.752614	0.339613	-0.000069
H127	H	0.722568	0.348410	-0.065142
O128	O	0.412055	0.324847	-0.000076
H129	H	0.470975	0.372561	-0.000076
O130	O	0.363309	0.099103	-0.000032
H131	H	0.288563	0.093187	-0.000022
H132	H	0.627814	-0.043319	-0.000018
O133	O	0.816327	-0.020110	-0.000004
H134	H	0.895013	0.004053	-0.000016
