data_functionalizedCrystal
_audit_creation_method	'MofGen! by Chris Wilmer'
_symmetry_space_group_name_H-M	'P1'
_symmetry_Int_Tables_number	1
_symmetry_cell_setting	triclinic
loop_
_symmetry_equiv_pos_as_xyz
  x,y,z
_cell_length_a	19.077105
_cell_length_b	17.637651
_cell_length_c	19.076919
_cell_angle_alpha	99.433464
_cell_angle_beta	89.923776
_cell_angle_gamma	98.499620
loop_
_atom_site_label
_atom_site_type_symbol
_atom_site_fract_x
_atom_site_fract_y
_atom_site_fract_z
Zn1	Zn	0.993412	-0.376382	0.369993
Zn2	Zn	0.976496	-0.501474	0.229080
Zn3	Zn	0.882426	-0.365960	0.249736
Zn4	Zn	0.854398	-0.501005	0.341921
O5	O	0.926683	-0.436205	0.297682
O6	O	1.088714	-0.397534	0.354404
O7	O	0.968667	-0.479332	0.134268
O8	O	0.915957	-0.258475	0.286082
O9	O	1.076286	-0.489438	0.250876
O10	O	0.997498	-0.266132	0.374434
O11	O	0.899554	-0.379771	0.149444
O12	O	0.781161	-0.379316	0.258861
O13	O	0.868189	-0.488639	0.443196
O14	O	0.760570	-0.478533	0.326588
O15	O	0.970321	-0.397079	0.463821
O16	O	0.941491	-0.610280	0.223656
O17	O	0.851786	-0.609935	0.306559
C18	C	0.745573	-0.427743	0.291920
C19	C	0.668089	-0.424142	0.289468
C20	C	0.891780	-0.638337	0.259835
C21	C	0.876910	-0.724814	0.243670
C22	C	0.620975	-0.474180	0.323494
C23	C	0.548173	-0.470786	0.321195
C24	C	0.522485	-0.417359	0.284866
C25	C	0.569605	-0.367316	0.250840
C26	C	0.642407	-0.370706	0.253143
C27	C	0.305902	-0.401669	0.274209
C28	C	0.233094	-0.398284	0.271907
C29	C	0.211666	-0.501754	0.342264
C30	C	0.284470	-0.505142	0.344561
C31	C	0.331584	-0.455097	0.310537
N32	N	0.448069	-0.413891	0.282514
N33	N	0.405999	-0.458562	0.312894
C34	C	1.040085	-1.028866	0.420726
C35	C	1.026091	-1.110122	0.405523
C36	C	0.941246	-1.102255	0.313438
C37	C	0.955235	-1.020996	0.328631
C38	C	1.004654	-0.984308	0.382276
C39	C	0.919805	-0.976439	0.290181
C40	C	0.933790	-0.895187	0.305376
C41	C	0.983205	-0.858493	0.359020
C42	C	1.018640	-0.903056	0.397471
C43	C	0.870382	-1.013129	0.236540
C44	C	0.834951	-0.968571	0.198090
C45	C	0.848940	-0.887318	0.213281
C46	C	0.898356	-0.850623	0.266925
C47	C	0.813506	-0.842754	0.174830
C48	C	0.827491	-0.761502	0.190024
C49	C	0.912341	-0.769372	0.282119
C50	C	1.108500	-0.444701	0.303467
C51	C	1.185980	-0.448321	0.305933
C52	C	0.918016	-0.443969	0.479510
C53	C	0.914322	-0.447278	0.556994
C54	C	0.961741	-0.233286	0.335693
C55	C	0.976681	-0.146813	0.351891
C56	C	0.935366	-0.428417	0.116574
C57	C	0.939233	-0.424896	0.039136
C58	C	0.965759	-0.401164	0.604135
C59	C	0.962281	-0.404269	0.676940
C60	C	0.907368	-0.453493	0.702601
C61	C	0.855926	-0.499608	0.655455
C62	C	0.859402	-0.496498	0.582652
C63	C	0.891267	-0.467902	0.919187
C64	C	0.887796	-0.471010	0.991995
C65	C	0.994151	-0.375669	1.013475
C66	C	0.997624	-0.372567	0.940669
C67	C	0.946180	-0.418679	0.893530
N68	N	0.903812	-0.456670	0.777019
N69	N	0.949733	-0.415498	0.819114
H70	H	0.509814	-0.511533	0.348902
H71	H	0.952589	-0.739499	0.325798
H72	H	0.212184	-0.354768	0.242329
O73	O	0.996665	-0.779559	0.373784
C74	C	0.933661	-0.750100	0.394592
H75	H	0.886021	-0.794572	0.372605
H76	H	0.932151	-0.693839	0.372912
H77	H	0.931862	-0.738069	0.455084
H78	H	0.641883	-0.517689	0.353075
H79	H	0.305378	-0.548650	0.374142
H80	H	1.054937	-1.146399	0.436847
H81	H	0.794712	-0.998454	0.154413
O82	O	0.765446	-0.878487	0.122803
C83	C	0.710398	-0.925075	0.152237
H84	H	0.730332	-0.940608	0.203600
H85	H	0.692593	-0.980584	0.112854
H86	H	0.663755	-0.891709	0.164056
H87	H	0.858990	-1.079289	0.224176
O88	O	0.544727	-0.315454	0.215449
C89	C	0.562886	-0.330205	0.143343
H90	H	0.610654	-0.362505	0.137926
H91	H	0.576557	-0.272787	0.122770
H92	H	0.516132	-0.367251	0.111026
H93	H	1.058888	-0.873184	0.441150
O94	O	0.165806	-0.550280	0.375306
C95	C	0.096039	-0.535848	0.365470
H96	H	0.097546	-0.474336	0.353660
H97	H	0.064968	-0.542156	0.415800
H98	H	0.069188	-0.579382	0.318999
O99	O	1.088088	-0.993344	0.472884
C100	C	1.116379	-1.050093	0.503553
H101	H	1.077744	-1.106806	0.494197
H102	H	1.125191	-1.029280	0.563114
H103	H	1.169079	-1.060080	0.478148
O104	O	0.351561	-0.353024	0.241096
C105	C	0.313276	-0.305130	0.208554
H106	H	0.255999	-0.334477	0.198481
H107	H	0.338367	-0.295361	0.155881
H108	H	0.314503	-0.246825	0.244983
H109	H	0.811212	-0.539684	0.676355
H110	H	0.901007	-1.132138	0.269762
H111	H	0.798639	-0.725223	0.158715
H112	H	1.004168	-0.366720	0.715319
O113	O	1.019133	-0.353280	0.579333
C114	C	1.063795	-0.313259	0.636554
H115	H	1.033229	-0.311449	0.688044
H116	H	1.082825	-0.251411	0.627240
H117	H	1.111445	-0.344552	0.640649
O118	O	1.050996	-0.324681	0.915866
C119	C	1.095661	-0.284659	0.973085
H120	H	1.065098	-0.282845	1.024576
H121	H	1.114692	-0.222812	0.963768
H122	H	1.143310	-0.315954	0.977179
O123	O	0.688236	-0.322214	0.220036
C124	C	0.724843	-0.366464	0.167988
H125	H	0.724398	-0.427020	0.181786
H126	H	0.781953	-0.336747	0.166251
H127	H	0.697780	-0.371408	0.113842
H128	H	0.817510	-0.534041	0.544271
H129	H	1.036033	-0.338126	1.051864
H130	H	0.849385	-0.505462	0.880812
O131	O	0.834384	-0.518844	1.016809
C132	C	0.789732	-0.558892	0.959590
H133	H	0.795297	-0.524697	0.913586
H134	H	0.732375	-0.565520	0.977325
H135	H	0.805417	-0.618841	0.941589
