data_functionalizedCrystal
_audit_creation_method	'MofGen! by Chris Wilmer'
_symmetry_space_group_name_H-M	'P1'
_symmetry_Int_Tables_number	1
_symmetry_cell_setting	triclinic
loop_
_symmetry_equiv_pos_as_xyz
  x,y,z
_cell_length_a	13.033291
_cell_length_b	13.032721
_cell_length_c	13.032492
_cell_angle_alpha	89.084098
_cell_angle_beta	90.894469
_cell_angle_gamma	105.184202
loop_
_atom_site_label
_atom_site_type_symbol
_atom_site_fract_x
_atom_site_fract_y
_atom_site_fract_z
Zn1	Zn	1.480155	-0.127410	-0.795441
Zn2	Zn	1.980155	0.372590	-0.295441
Zn3	Zn	1.474542	-0.322001	-0.644668
Zn4	Zn	1.974542	0.177999	-0.144668
Zn5	Zn	1.323923	-0.171235	-0.606378
Zn6	Zn	1.823923	0.328765	-0.106378
Zn7	Zn	1.279947	-0.327529	-0.795325
Zn8	Zn	1.779947	0.172471	-0.295325
O9	O	1.389642	-0.237044	-0.710453
O10	O	1.889642	0.262956	-0.210453
O11	O	1.626233	-0.132568	-0.791514
O12	O	2.126233	0.367432	-0.291514
O13	O	1.470617	-0.318030	-0.497415
O14	O	1.970617	0.181970	0.002585
O15	O	1.365401	-0.018575	-0.615482
O16	O	1.865401	0.481425	-0.115482
O17	O	1.622109	-0.275534	-0.680742
O18	O	2.122109	0.224466	-0.180742
O19	O	1.480184	0.013624	-0.754386
O20	O	1.980184	0.513624	-0.254386
O21	O	1.359958	-0.207262	-0.469283
O22	O	1.859958	0.292738	0.030717
O23	O	1.171267	-0.212622	-0.615369
O24	O	1.671267	0.287378	-0.115369
O25	O	1.290450	-0.284955	-0.937514
O26	O	1.790450	0.215045	-0.437514
O27	O	1.138958	-0.327451	-0.754187
O28	O	1.638958	0.172549	-0.254187
O29	O	1.437542	-0.137928	-0.937600
O30	O	1.937542	0.362072	-0.437600
O31	O	1.427975	-0.469581	-0.680629
O32	O	1.927975	0.030419	-0.180629
O33	O	1.285007	-0.473642	-0.791315
O34	O	1.785007	0.026358	-0.291315
C35	C	1.117043	-0.275393	-0.680611
C36	C	1.617043	0.224607	-0.180611
C37	C	1.000418	-0.291821	-0.667871
C38	C	1.500418	0.208179	-0.167871
C39	C	0.829903	-0.245465	-0.703945
C40	C	1.329903	0.254535	-0.203945
C41	C	0.950441	-0.228488	-0.717112
C42	C	1.450441	0.271512	-0.217112
C43	C	1.351136	-0.509681	-0.740140
C44	C	1.851136	-0.009681	-0.240140
C45	C	1.334755	-0.626299	-0.752884
C46	C	1.834755	-0.126299	-0.252884
C47	C	1.398241	-0.676234	-0.703853
C48	C	1.898241	-0.176234	-0.203853
C49	C	1.381313	-0.796765	-0.717024
C50	C	1.881313	-0.296765	-0.217024
C51	C	1.663305	-0.198546	-0.740412
C52	C	2.163305	0.301454	-0.240412
C53	C	1.779923	-0.182140	-0.753179
C54	C	2.279923	0.317860	-0.253179
C55	C	1.419521	-0.266718	-0.446484
C56	C	1.919521	0.233282	0.053516
C57	C	1.432519	-0.279124	-0.333548
C58	C	1.932519	0.220876	0.166452
C59	C	1.428324	0.036665	-0.680676
C60	C	1.928324	0.536665	-0.180676
C61	C	1.444808	0.153303	-0.667986
C62	C	1.944808	0.653303	-0.167986
C63	C	1.359716	-0.207169	-0.975452
C64	C	1.859716	0.292831	-0.475452
C65	C	1.346964	-0.194439	-1.088378
C66	C	1.846964	0.305561	-0.588378
C67	C	1.383029	-0.230374	-0.269325
C68	C	1.883029	0.269626	0.230675
C69	C	1.396461	-0.243196	-0.152600
C70	C	1.896461	0.256804	0.347400
H71	H	0.996887	-0.161696	-0.769010
H72	H	1.496887	0.338304	-0.269010
H73	H	1.330719	-0.179141	-0.300757
H74	H	1.830719	0.320859	0.199243
H75	H	1.448783	-0.294423	-0.121172
H76	H	1.948783	0.205577	0.378828
O77	O	1.284401	-0.133486	-0.125903
O78	O	1.784401	0.366514	0.374097
C79	C	1.201590	-0.196528	-0.186240
C80	C	1.701590	0.303472	0.313760
H81	H	1.187722	-0.283567	-0.162332
H82	H	1.687722	0.216433	0.337668
H83	H	1.125703	-0.170434	-0.174560
H84	H	1.625703	0.329566	0.325440
H85	H	1.224378	-0.186561	-0.270616
H86	H	1.724378	0.313439	0.229384
H87	H	1.511701	-0.800220	-0.616258
H88	H	2.011701	-0.300220	-0.116258
O89	O	1.494770	-0.340381	-0.296009
O90	O	1.994770	0.159619	0.203991
C91	C	1.432939	-0.423630	-0.235254
C92	C	1.932939	0.076370	0.264746
H93	H	1.345708	-0.438852	-0.258879
H94	H	1.845708	0.061148	0.241121
H95	H	1.460260	-0.498848	-0.246784
H96	H	1.960260	0.001152	0.253216
H97	H	1.442849	-0.400509	-0.150974
H98	H	1.942849	0.099491	0.349026
H99	H	1.267874	-0.672779	-0.804617
H100	H	1.767874	-0.172779	-0.304617
O101	O	0.774588	-0.325264	-0.642108
O102	O	1.274588	0.174736	-0.142108
C103	C	0.784016	-0.423666	-0.678453
C104	C	1.284016	0.076334	-0.178453
H105	H	0.858893	-0.410370	-0.726382
H106	H	1.358893	0.089630	-0.226382
H107	H	0.789298	-0.478372	-0.610559
H108	H	1.289298	0.021628	-0.110559
H109	H	0.711481	-0.461828	-0.727805
H110	H	1.211481	0.038172	-0.227805
O111	O	0.945112	-0.371626	-0.606028
O112	O	1.445112	0.128374	-0.106028
C113	C	0.954544	-0.470026	-0.642373
C114	C	1.454544	0.029974	-0.142373
H115	H	1.029419	-0.456726	-0.690307
H116	H	1.529419	0.043274	-0.190307
H117	H	0.959835	-0.524730	-0.574480
H118	H	1.459835	-0.024730	-0.074480
H119	H	0.882008	-0.508193	-0.691721
H120	H	1.382008	-0.008193	-0.191721
H121	H	1.465131	-0.629754	-0.652129
H122	H	1.965131	-0.129754	-0.152129
O123	O	0.835188	-0.102519	-0.815232
O124	O	1.335188	0.397481	-0.315232
C125	C	0.793837	-0.117951	-0.916082
C126	C	1.293837	0.382049	-0.416082
H127	H	0.708319	-0.169193	-0.913885
H128	H	1.208319	0.330807	-0.413885
H129	H	0.795731	-0.037652	-0.953129
H130	H	1.295731	0.462348	-0.453129
H131	H	0.844023	-0.159485	-0.962783
H132	H	1.344023	0.340515	-0.462783
O133	O	1.301534	-0.852371	-0.778669
O134	O	1.801534	-0.352371	-0.278669
C135	C	1.302404	-0.960332	-0.778112
C136	C	1.802404	-0.460332	-0.278112
H137	H	1.343611	-0.979184	-0.705113
H138	H	1.843611	-0.479184	-0.205113
H139	H	1.217210	-1.012411	-0.780873
H140	H	1.717210	-0.512411	-0.280873
H141	H	1.347092	-0.976701	-0.847896
H142	H	1.847092	-0.476701	-0.347896
