data_functionalizedCrystal
_audit_creation_method	'MofGen! by Chris Wilmer'
_symmetry_space_group_name_H-M	'P1'
_symmetry_Int_Tables_number	1
_symmetry_cell_setting	triclinic
loop_
_symmetry_equiv_pos_as_xyz
  x,y,z
_cell_length_a	14.971486
_cell_length_b	11.026607
_cell_length_c	14.048226
_cell_angle_alpha	89.996210
_cell_angle_beta	89.998499
_cell_angle_gamma	96.100073
loop_
_atom_site_label
_atom_site_type_symbol
_atom_site_fract_x
_atom_site_fract_y
_atom_site_fract_z
O1	O	1.212292	0.158180	-0.079046
O2	O	0.954927	0.177123	-0.079071
O3	O	1.062279	-0.009032	-0.079057
O4	O	1.104939	0.344336	-0.079060
O5	O	1.062261	-0.009043	0.079264
O6	O	0.954908	0.177112	0.079250
O7	O	1.212274	0.158169	0.079275
Zn8	Zn	1.083588	0.167639	0.104399
Zn9	Zn	1.083612	0.167653	-0.104196
O10	O	1.104921	0.344325	0.079261
C11	C	0.921457	0.176270	0.000086
C12	C	0.821753	0.173732	0.000076
C13	C	0.782051	0.283093	0.000077
C14	C	0.688368	0.280700	0.000091
C15	C	0.634389	0.168945	0.000098
C16	C	0.674098	0.059576	0.000100
C17	C	0.767779	0.061969	0.000093
C18	C	0.478837	0.054594	0.000113
C19	C	0.385150	0.052200	0.000119
C20	C	0.399426	0.273325	0.000111
C21	C	0.493107	0.275718	0.000104
C22	C	0.532809	0.166348	0.000105
C23	C	1.054400	-0.054260	0.000101
C24	C	1.030939	-0.189008	0.000096
C25	C	1.095719	-0.262720	0.000101
C26	C	1.071472	-0.401989	0.000095
C27	C	1.245743	0.159022	0.000116
C28	C	1.345447	0.161561	0.000119
C29	C	1.112800	0.389552	0.000100
C30	C	1.136261	0.524300	0.000100
N31	N	1.083578	0.167628	0.246760
N32	N	1.083628	0.167654	-0.246556
C33	C	1.131138	0.085233	0.296584
C34	C	1.131144	0.085232	0.396242
C35	C	1.083595	0.167634	0.446074
C36	C	1.036029	0.250033	0.396242
C37	C	1.036018	0.250027	0.296587
C38	C	1.036056	0.250042	0.603957
C39	C	1.036068	0.250050	0.703619
C40	C	1.131182	0.085247	0.703612
C41	C	1.131171	0.085241	0.603956
C42	C	1.083607	0.167642	0.554132
H43	H	0.656047	0.369753	0.000090
H44	H	0.511159	-0.034467	0.000115
O45	O	1.183333	-0.215162	0.000234
C46	C	1.226143	-0.254732	0.082244
H47	H	1.187701	-0.342634	0.109580
H48	H	1.297846	-0.272064	0.063806
H49	H	1.227502	-0.181498	0.139660
O50	O	0.989936	0.330237	0.248226
C51	C	1.023809	0.450430	0.272579
H52	H	1.095543	0.451189	0.299964
H53	H	1.023315	0.511318	0.207036
H54	H	0.979962	0.485973	0.330429
O55	O	0.332623	-0.056285	0.000262
C56	C	0.278027	-0.064285	0.082275
H57	H	0.270190	0.031353	0.109599
H58	H	0.209129	-0.112763	0.063845
H59	H	0.310612	-0.117915	0.139697
O60	O	0.983873	-0.449630	-0.000085
C61	C	0.941056	-0.410005	-0.082072
H62	H	0.993430	-0.383498	-0.139376
H63	H	0.890716	-0.486833	-0.109604
H64	H	0.904397	-0.327647	-0.063534
H65	H	0.630141	-0.031417	0.000119
O66	O	1.177376	0.005082	0.555696
C67	C	1.219378	-0.067627	0.621039
H68	H	1.182485	-0.069083	0.692085
H69	H	1.217420	-0.164532	0.592248
H70	H	1.292190	-0.028063	0.631621
O71	O	0.806204	-0.044377	0.000045
C72	C	0.738475	-0.143529	0.000074
H73	H	0.673786	-0.112822	-0.029895
H74	H	0.760551	-0.220159	-0.045892
H75	H	0.726321	-0.177784	0.076030
H76	H	0.997308	0.317122	0.436821
O77	O	1.177304	0.005241	0.752154
C78	C	1.167133	0.022927	0.850798
H79	H	1.103300	0.068128	0.864415
H80	H	1.162297	-0.068974	0.888676
H81	H	1.227576	0.083923	0.879068
H82	H	0.825994	0.374096	0.000070
O83	O	1.177436	0.005161	0.444493
C84	C	1.219393	-0.067578	0.379141
H85	H	1.228394	-0.017814	0.308097
H86	H	1.287876	-0.085909	0.407922
H87	H	1.175840	-0.157826	0.368560
H88	H	0.997347	0.317148	0.744187
H89	H	0.997320	0.317138	0.563393
H90	H	1.209677	-0.435709	0.000035
O91	O	0.943345	-0.236655	-0.000084
C92	C	0.900527	-0.197030	-0.082071
H93	H	0.952902	-0.170522	-0.139375
H94	H	0.850188	-0.273857	-0.109603
H95	H	0.863868	-0.114672	-0.063533
H96	H	1.169863	0.018137	0.256018
H97	H	0.367096	0.362378	0.000115
O98	O	0.545412	0.384380	0.000138
C99	C	0.490284	0.480401	0.000116
H100	H	0.421412	0.446289	0.030096
H101	H	0.522348	0.558412	0.046077
H102	H	0.482514	0.514146	-0.075838
