data_functionalizedCrystal
_audit_creation_method	'MofGen! by Chris Wilmer'
_symmetry_space_group_name_H-M	'P1'
_symmetry_Int_Tables_number	1
_symmetry_cell_setting	triclinic
loop_
_symmetry_equiv_pos_as_xyz
  x,y,z
_cell_length_a	11.792241
_cell_length_b	10.868271
_cell_length_c	11.792241
_cell_angle_alpha	90.005281
_cell_angle_beta	84.193416
_cell_angle_gamma	90.000107
loop_
_atom_site_label
_atom_site_type_symbol
_atom_site_fract_x
_atom_site_fract_y
_atom_site_fract_z
O1	O	1.506908	0.102203	0.155568
O2	O	1.756908	0.352203	0.405568
O3	O	2.006908	0.602203	0.655568
O4	O	2.256908	0.852203	0.905568
O5	O	1.176567	0.102232	0.171601
O6	O	1.426567	0.352232	0.421601
O7	O	1.676567	0.602232	0.671601
O8	O	1.926567	0.852232	0.921601
O9	O	1.349754	0.102208	-0.001586
O10	O	1.599754	0.352208	0.248414
O11	O	1.849754	0.602208	0.498414
O12	O	2.099754	0.852208	0.748414
O13	O	1.333721	0.102227	0.328755
O14	O	1.583721	0.352227	0.578755
O15	O	1.833721	0.602227	0.828755
O16	O	2.083721	0.852227	1.078755
O17	O	1.349740	-0.102436	-0.001592
O18	O	1.599740	0.147564	0.248408
O19	O	1.849740	0.397564	0.498408
O20	O	2.099740	0.647564	0.748408
O21	O	1.176553	-0.102413	0.171595
O22	O	1.426553	0.147587	0.421595
O23	O	1.676553	0.397587	0.671595
O24	O	1.926553	0.647587	0.921595
O25	O	1.506894	-0.102441	0.155562
O26	O	1.756894	0.147559	0.405562
O27	O	2.006894	0.397559	0.655562
O28	O	2.256894	0.647559	0.905562
Zn29	Zn	1.341721	-0.134919	0.163577
Zn30	Zn	1.591721	0.115081	0.413577
Zn31	Zn	1.841721	0.365081	0.663577
Zn32	Zn	2.091721	0.615081	0.913577
Zn33	Zn	1.341740	0.134709	0.163586
Zn34	Zn	1.591740	0.384709	0.413586
Zn35	Zn	1.841740	0.634709	0.663586
Zn36	Zn	2.091740	0.884709	0.913586
O37	O	1.333707	-0.102418	0.328749
O38	O	1.583707	0.147582	0.578749
O39	O	1.833707	0.397582	0.828749
O40	O	2.083707	0.647582	1.078749
C41	C	1.134269	-0.000087	0.170591
C42	C	1.384269	0.249913	0.420591
C43	C	1.634269	0.499913	0.670591
C44	C	1.884269	0.749913	0.920591
C45	C	1.008255	-0.000076	0.167576
C46	C	1.258255	0.249924	0.417576
C47	C	1.508255	0.499924	0.667576
C48	C	1.758255	0.749924	0.917576
N49	N	1.341717	-0.318933	0.163570
N50	N	1.591717	-0.068933	0.413570
N51	N	1.841717	0.181067	0.663570
N52	N	2.091717	0.431067	0.913570
C53	C	0.777543	-0.000112	0.162034
C54	C	1.027543	0.249888	0.412034
C55	C	1.277543	0.499888	0.662034
C56	C	1.527543	0.749888	0.912034
C57	C	0.905928	-0.000092	0.165113
C58	C	1.155928	0.249908	0.415113
C59	C	1.405928	0.499908	0.665113
C60	C	1.655928	0.749908	0.915113
C61	C	1.341734	-0.569939	0.163584
C62	C	1.591734	-0.319939	0.413584
C63	C	1.841734	-0.069939	0.663584
C64	C	2.091734	0.180061	0.913584
C65	C	1.341721	-0.430261	0.163580
C66	C	1.591721	-0.180261	0.413580
C67	C	1.841721	0.069739	0.663580
C68	C	2.091721	0.319739	0.913580
C69	C	1.549192	-0.000120	0.156572
C70	C	1.799192	0.249880	0.406572
C71	C	2.049192	0.499880	0.656572
C72	C	2.299192	0.749880	0.906572
C73	C	1.675206	-0.000123	0.159587
C74	C	1.925206	0.249877	0.409587
C75	C	2.175206	0.499877	0.659587
C76	C	2.425206	0.749877	0.909587
C77	C	1.348740	-0.000114	-0.043880
C78	C	1.598740	0.249886	0.206120
C79	C	1.848740	0.499886	0.456120
C80	C	2.098740	0.749886	0.706120
C81	C	1.345726	-0.000112	-0.169894
C82	C	1.595726	0.249888	0.080106
C83	C	1.845726	0.499888	0.330106
C84	C	2.095726	0.749888	0.580106
N85	N	1.341754	0.318723	0.163584
N86	N	1.591754	0.568723	0.413584
N87	N	1.841754	0.818723	0.663584
N88	N	2.091754	1.068723	0.913584
C89	C	1.340183	-0.000091	-0.400606
C90	C	1.590183	0.249909	-0.150606
C91	C	1.840183	0.499909	0.099394
C92	C	2.090183	0.749909	0.349394
C93	C	1.343262	-0.000102	-0.272221
C94	C	1.593262	0.249898	-0.022221
C95	C	1.843262	0.499898	0.227779
C96	C	2.093262	0.749898	0.477779
C97	C	1.334721	-0.000093	0.371043
C98	C	1.584721	0.249907	0.621043
C99	C	1.834721	0.499907	0.871043
C100	C	2.084721	0.749907	1.121043
C101	C	1.337736	-0.000087	0.497057
C102	C	1.587736	0.249913	0.747057
C103	C	1.837736	0.499913	0.997057
C104	C	2.087736	0.749913	1.247057
