data_functionalizedCrystal
_audit_creation_method	'MofGen! by Chris Wilmer'
_symmetry_space_group_name_H-M	'P1'
_symmetry_Int_Tables_number	1
_symmetry_cell_setting	triclinic
loop_
_symmetry_equiv_pos_as_xyz
  x,y,z
_cell_length_a	14.044191
_cell_length_b	10.540510
_cell_length_c	12.503572
_cell_angle_alpha	93.560801
_cell_angle_beta	86.162165
_cell_angle_gamma	88.852544
loop_
_atom_site_label
_atom_site_type_symbol
_atom_site_fract_x
_atom_site_fract_y
_atom_site_fract_z
O1	O	1.265175	0.299581	-0.089257
O2	O	1.765175	0.799581	0.410743
O3	O	0.989132	0.288519	-0.089271
O4	O	1.489132	0.788519	0.410729
O5	O	1.133466	0.109979	-0.089264
O6	O	1.633466	0.609979	0.410736
O7	O	1.120841	0.478120	-0.089265
O8	O	1.620841	0.978120	0.410735
O9	O	1.122611	0.123431	0.089378
O10	O	1.622611	0.623431	0.589378
O11	O	0.978277	0.301970	0.089370
O12	O	1.478277	0.801970	0.589370
O13	O	1.254320	0.313032	0.089384
O14	O	1.754320	0.813032	0.589384
Cu15	Cu	1.115308	0.308729	0.105688
Cu16	Cu	1.615308	0.808729	0.605688
Cu17	Cu	1.128144	0.292821	-0.105576
Cu18	Cu	1.628144	0.792821	0.394424
O19	O	1.109986	0.491572	0.089376
O20	O	1.609986	0.991572	0.589376
C21	C	0.948358	0.290405	0.000047
C22	C	1.448358	0.790405	0.500047
C23	C	0.843036	0.275972	0.000042
C24	C	1.343036	0.775972	0.500042
C25	C	0.593257	0.351951	0.000052
C26	C	1.093257	0.851951	0.500052
C27	C	0.650201	0.249605	0.000051
C28	C	1.150201	0.749605	0.500051
C29	C	0.757504	0.264279	0.000046
C30	C	1.257504	0.764279	0.500046
C31	C	0.485944	0.337279	0.000057
C32	C	0.985944	0.837279	0.500057
C33	C	1.127098	0.069306	0.000055
C34	C	1.627098	0.569306	0.500055
C35	C	1.124283	-0.071929	0.000048
C36	C	1.624283	0.428071	0.500048
C37	C	1.224527	-0.279213	0.000462
C38	C	1.724527	0.220787	0.500462
C39	C	1.227554	-0.132344	0.000054
C40	C	1.727554	0.367656	0.500054
C41	C	1.077617	-0.129716	-0.101965
C42	C	1.577617	0.370284	0.398035
C43	C	1.075351	-0.276712	-0.102045
C44	C	1.575351	0.223288	0.397955
C45	C	1.060857	-0.261441	0.101103
C46	C	1.560857	0.238559	0.601103
C47	C	1.065673	-0.114504	0.102446
C48	C	1.565673	0.385496	0.602446
C49	C	1.295094	0.311145	0.000063
C50	C	1.795094	0.811145	0.500063
C51	C	1.400417	0.325579	0.000061
C52	C	1.900417	0.825579	0.500061
C53	C	1.116354	0.532245	0.000055
C54	C	1.616354	1.032245	0.500055
C55	C	1.119169	0.673479	0.000055
C56	C	1.619169	1.173479	0.500055
N57	N	1.106286	0.319918	0.254280
N58	N	1.606286	0.819918	0.754280
N59	N	1.137174	0.281623	-0.254168
N60	N	1.637174	0.781623	0.245832
C61	C	1.093014	0.336388	0.473395
C62	C	1.593014	0.836388	0.973395
C63	C	1.150442	0.265157	0.526725
C64	C	1.650442	0.765157	1.026725
C65	C	1.143058	0.274321	0.648648
C66	C	1.643058	0.774321	1.148648
C67	C	1.100398	0.327226	0.351461
C68	C	1.600398	0.827226	0.851461
H69	H	0.618371	0.150958	-0.000024
H70	H	1.118371	0.650958	0.499976
H71	H	1.260315	-0.311590	0.073622
H72	H	1.760315	0.188410	0.573622
N73	N	1.110539	-0.063911	0.202417
N74	N	1.610539	0.436089	0.702417
H75	H	1.072531	-0.091598	0.268010
H76	H	1.572531	0.408402	0.768010
H77	H	1.178245	-0.098268	0.201672
H78	H	1.678245	0.401732	0.701672
N79	N	1.020556	0.426286	0.534205
N80	N	1.520556	0.926286	1.034205
H81	H	1.033367	0.516219	0.514704
H82	H	1.533367	1.016219	1.014704
H83	H	0.954295	0.402593	0.514693
H84	H	1.454295	0.902593	1.014693
H85	H	0.998391	-0.307867	-0.106671
H86	H	1.498391	0.192133	0.393329
N87	N	0.635421	0.482603	0.000028
N88	N	1.135421	0.982603	0.500028
H89	H	0.582470	0.548868	0.000024
H90	H	1.082470	1.048868	0.500024
H91	H	0.672021	0.498122	0.066246
H92	H	1.172021	0.998122	0.566246
H93	H	1.001822	-0.090301	-0.105762
H94	H	1.501822	0.409699	0.394238
N95	N	1.276430	-0.080624	0.096932
N96	N	1.776430	0.419376	0.596932
H97	H	1.296202	-0.153247	0.140286
H98	H	1.796202	0.346753	0.640286
H99	H	1.334773	-0.032878	0.072512
H100	H	1.834773	0.467122	0.572512
H101	H	1.268948	-0.324150	-0.072279
H102	H	1.768948	0.175850	0.427721
H103	H	0.989904	-0.072598	0.108602
H104	H	1.489904	0.427402	0.608602
H105	H	1.205154	0.197293	0.480815
H106	H	1.705154	0.697293	0.980815
N107	N	1.288557	-0.096435	-0.096969
N108	N	1.788557	0.403565	0.403031
H109	H	1.313578	-0.176062	-0.139643
H110	H	1.813578	0.323938	0.360357
H111	H	1.248918	-0.044230	-0.143376
H112	H	1.748918	0.455770	0.356624
N113	N	0.958095	-0.301093	0.102028
N114	N	1.458095	0.198907	0.602028
H115	H	0.929358	-0.274368	0.034756
H116	H	1.429358	0.225632	0.534756
H117	H	0.955175	-0.396495	0.104861
H118	H	1.455175	0.103505	0.604861
N119	N	1.129357	-0.332756	-0.203038
N120	N	1.629357	0.167244	0.296962
H121	H	1.128432	-0.428613	-0.204099
H122	H	1.628432	0.071387	0.295901
H123	H	1.098202	-0.303075	-0.267873
H124	H	1.598202	0.196925	0.232127
H125	H	1.118943	-0.100862	-0.177880
H126	H	1.618943	0.399138	0.322120
H127	H	1.088976	-0.294482	0.178429
H128	H	1.588976	0.205518	0.678429
