data_functionalizedCrystal
_audit_creation_method	'MofGen! by Chris Wilmer'
_symmetry_space_group_name_H-M	'P1'
_symmetry_Int_Tables_number	1
_symmetry_cell_setting	triclinic
loop_
_symmetry_equiv_pos_as_xyz
  x,y,z
_cell_length_a	16.625548
_cell_length_b	16.625545
_cell_length_c	21.395364
_cell_angle_alpha	89.990067
_cell_angle_beta	90.007647
_cell_angle_gamma	89.974895
loop_
_atom_site_label
_atom_site_type_symbol
_atom_site_fract_x
_atom_site_fract_y
_atom_site_fract_z
Zn1	Zn	1.232569	0.321123	0.354270
Zn2	Zn	1.565902	0.654456	0.687604
Zn3	Zn	1.899235	0.987790	1.020937
Zn4	Zn	1.232499	0.455923	0.249497
Zn5	Zn	1.565832	0.789256	0.582830
Zn6	Zn	1.899165	1.122590	0.916164
Zn7	Zn	1.097761	0.321111	0.249507
Zn8	Zn	1.431094	0.654444	0.582841
Zn9	Zn	1.764428	0.987777	0.916174
Zn10	Zn	1.097697	0.455920	0.354237
Zn11	Zn	1.431031	0.789253	0.687571
Zn12	Zn	1.764364	1.122586	1.020904
O13	O	1.165131	0.388519	0.301878
O14	O	1.498465	0.721852	0.635211
O15	O	1.831798	1.055186	0.968545
O16	O	1.345392	0.339011	0.340382
O17	O	1.678725	0.672344	0.673715
O18	O	2.012059	1.005678	1.007048
O19	O	1.214623	0.438036	0.161821
O20	O	1.547956	0.771369	0.495154
O21	O	1.881289	1.104703	0.828487
O22	O	1.115700	0.208280	0.263422
O23	O	1.449033	0.541613	0.596756
O24	O	1.782366	0.874946	0.930089
O25	O	1.345340	0.438048	0.263405
O26	O	1.678674	0.771381	0.596738
O27	O	2.012007	1.104715	0.930072
O28	O	1.214742	0.208289	0.340392
O29	O	1.548076	0.541622	0.673725
O30	O	1.881409	0.874955	1.007058
O31	O	1.115632	0.338990	0.161828
O32	O	1.448965	0.672323	0.495161
O33	O	1.782298	1.005657	0.828495
O34	O	0.984920	0.338987	0.263390
O35	O	1.318254	0.672320	0.596724
O36	O	1.651587	1.005653	0.930057
O37	O	1.115591	0.438042	0.441919
O38	O	1.448924	0.771376	0.775253
O39	O	1.782258	1.104709	1.108586
O40	O	0.984873	0.438030	0.340335
O41	O	1.318207	0.771364	0.673668
O42	O	1.651540	1.104697	1.007002
O43	O	1.214680	0.339008	0.441944
O44	O	1.548014	0.672341	0.775277
O45	O	1.881347	1.005674	1.108611
O46	O	1.214561	0.568755	0.263373
O47	O	1.547894	0.902088	0.596706
O48	O	1.881228	1.235422	0.930040
O49	O	1.115523	0.568753	0.340325
O50	O	1.448856	0.902086	0.673658
O51	O	1.782190	1.235419	1.006992
C52	C	0.955641	0.388507	0.301860
C53	C	1.288974	0.721841	0.635194
C54	C	1.622307	1.055174	0.968527
C55	C	0.866020	0.388522	0.301868
C56	C	1.199353	0.721855	0.635201
C57	C	1.532686	1.055189	0.968534
C58	C	1.165049	0.598010	0.301858
C59	C	1.498383	0.931343	0.635191
C60	C	1.831716	1.264677	0.968525
C61	C	1.165088	0.687631	0.301870
C62	C	1.498421	1.020964	0.635204
C63	C	1.831755	1.354298	0.968537
C64	C	0.537844	0.388527	0.301895
C65	C	0.871177	0.721861	0.635228
C66	C	1.204511	1.055194	0.968561
C67	C	0.629152	0.388524	0.301885
C68	C	0.962486	0.721857	0.635218
C69	C	1.295819	1.055190	0.968552
C70	C	0.701929	0.388525	0.301881
C71	C	1.035262	0.721858	0.635214
C72	C	1.368595	1.055192	0.968547
C73	C	0.793243	0.388520	0.301872
C74	C	1.126576	0.721854	0.635206
C75	C	1.459910	1.055187	0.968539
C76	C	1.165220	1.015807	0.301945
C77	C	1.498553	1.349140	0.635278
C78	C	1.831886	1.682473	0.968612
C79	C	1.165181	0.924498	0.301926
C80	C	1.498514	1.257831	0.635259
C81	C	1.831847	1.591165	0.968593
C82	C	1.165153	0.851722	0.301907
C83	C	1.498487	1.185055	0.635241
C84	C	1.831820	1.518388	0.968574
C85	C	1.165115	0.760407	0.301889
C86	C	1.498449	1.093741	0.635222
C87	C	1.831782	1.427074	0.968556
C88	C	1.375440	0.388531	0.301896
C89	C	1.708774	0.721864	0.635229
C90	C	2.042107	1.055198	0.968563
C91	C	1.465061	0.388536	0.301904
C92	C	1.798395	0.721870	0.635237
C93	C	2.131728	1.055203	0.968570
C94	C	1.165136	0.388526	0.465301
C95	C	1.498470	0.721859	0.798635
C96	C	1.831803	1.055193	1.131968
C97	C	1.165139	0.388529	0.534942
C98	C	1.498472	0.721862	0.868276
C99	C	1.831805	1.055196	1.201609
C100	C	1.165229	1.178210	0.301919
C101	C	1.498562	1.511543	0.635253
C102	C	1.831896	1.844877	0.968586
C103	C	1.165253	1.088589	0.301956
C104	C	1.498586	1.421922	0.635289
C105	C	1.831920	1.755256	0.968622
C106	C	1.216676	0.440085	1.036735
C107	C	1.550009	0.773419	1.370069
C108	C	1.883342	1.106752	1.703402
C109	C	1.216674	0.440091	0.971300
C110	C	1.550007	0.773425	1.304633
C111	C	1.883341	1.106758	1.637966
C112	C	1.165136	0.388524	0.938581
C113	C	1.498470	0.721857	1.271914
C114	C	1.831803	1.055190	1.605247
C115	C	1.113582	0.336961	0.971303
C116	C	1.446915	0.670294	1.304636
C117	C	1.780249	1.003628	1.637969
C118	C	1.113579	0.336962	1.036737
C119	C	1.446913	0.670296	1.370070
C120	C	1.780246	1.003629	1.703403
C121	C	1.158810	0.315876	0.834923
C122	C	1.492143	0.649210	1.168257
C123	C	1.825476	0.982543	1.501590
C124	C	1.158818	0.315874	0.769491
C125	C	1.492151	0.649207	1.102824
C126	C	1.825484	0.982540	1.436157
C127	C	1.165140	0.388520	0.736760
C128	C	1.498473	0.721853	1.070093
C129	C	1.831806	1.055186	1.403427
C130	C	1.171470	0.461171	0.769471
C131	C	1.504803	0.794504	1.102804
C132	C	1.838137	1.127837	1.436137
C133	C	1.171468	0.461172	0.834905
C134	C	1.504801	0.794505	1.168238
C135	C	1.838134	1.127839	1.501571
C136	C	1.165133	0.388517	0.867628
C137	C	1.498466	0.721850	1.200962
C138	C	1.831800	1.055183	1.534295
C139	C	1.216685	0.440089	0.633094
C140	C	1.550018	0.773423	0.966427
C141	C	1.883352	1.106756	1.299760
C142	C	1.216678	0.440096	0.567657
C143	C	1.550011	0.773430	0.900990
C144	C	1.883344	1.106763	1.234324
C145	C	1.113590	0.336959	0.567661
C146	C	1.446923	0.670292	0.900994
C147	C	1.780257	1.003626	1.234328
C148	C	1.113593	0.336959	0.633096
C149	C	1.446926	0.670292	0.966430
C150	C	1.780260	1.003626	1.299763
C151	C	1.165145	0.388523	0.665809
C152	C	1.498478	0.721856	0.999142
C153	C	1.831811	1.055190	1.332475
C154	C	1.165124	0.388530	1.139090
C155	C	1.498457	0.721863	1.472424
C156	C	1.831790	1.055196	1.805757
C157	C	1.165131	0.388526	1.069449
C158	C	1.498465	0.721860	1.402782
C159	C	1.831798	1.055193	1.736116
H160	H	1.258651	0.482075	1.063366
H161	H	1.591984	0.815409	1.396699
H162	H	1.925317	1.148742	1.730032
F163	F	1.271536	0.494970	0.936476
F164	F	1.604869	0.828304	1.269810
F165	F	1.938202	1.161637	1.603143
H166	H	1.071625	0.294974	0.541022
H167	H	1.404959	0.628307	0.874355
H168	H	1.738292	0.961640	1.207688
H169	H	1.153715	0.256711	0.861567
H170	H	1.487048	0.590044	1.194901
H171	H	1.820381	0.923377	1.528234
H172	H	1.071619	0.294975	0.944659
H173	H	1.404952	0.628309	1.277992
H174	H	1.738286	0.961642	1.611325
F175	F	1.178201	0.538490	0.869715
F176	F	1.511534	0.871823	1.203049
F177	F	1.844867	1.205157	1.536382
F178	F	1.178201	0.538492	0.734642
F179	F	1.511534	0.871825	1.067975
F180	F	1.844868	1.205159	1.401309
H181	H	1.071623	0.294971	0.659732
H182	H	1.404956	0.628304	0.993066
H183	H	1.738290	0.961638	1.326399
H184	H	1.258647	0.482089	0.541022
H185	H	1.591980	0.815423	0.874356
H186	H	1.925314	1.148756	1.207689
H187	H	1.153668	0.256717	0.742863
H188	H	1.487001	0.590050	1.076196
H189	H	1.820334	0.923384	1.409529
F190	F	1.058712	0.282088	1.071554
F191	F	1.392046	0.615421	1.404888
F192	F	1.725379	0.948755	1.738221
H193	H	1.258659	0.482078	0.659729
H194	H	1.591993	0.815411	0.993063
H195	H	1.925326	1.148744	1.326396
