data_functionalizedCrystal
_audit_creation_method	'MofGen! by Chris Wilmer'
_symmetry_space_group_name_H-M	'P1'
_symmetry_Int_Tables_number	1
_symmetry_cell_setting	triclinic
loop_
_symmetry_equiv_pos_as_xyz
  x,y,z
_cell_length_a	19.188929
_cell_length_b	19.188930
_cell_length_c	16.053802
_cell_angle_alpha	87.413631
_cell_angle_beta	87.464948
_cell_angle_gamma	96.855224
loop_
_atom_site_label
_atom_site_type_symbol
_atom_site_fract_x
_atom_site_fract_y
_atom_site_fract_z
O1	O	-0.084206	0.929112	-0.069737
O2	O	-0.095942	0.725799	-0.069685
O3	O	0.011579	0.833321	-0.069661
O4	O	-0.191728	0.821591	-0.069761
O5	O	0.005685	0.827402	0.069197
O6	O	-0.101836	0.719881	0.069173
O7	O	-0.090100	0.923194	0.069121
Zn8	Zn	-0.096904	0.820598	0.091193
Zn9	Zn	-0.089138	0.828395	-0.091758
O10	O	-0.197622	0.815672	0.069097
C11	C	-0.098510	0.696828	-0.000249
C12	C	-0.097370	0.619323	-0.000226
C13	C	-0.160459	0.574401	-0.000270
C14	C	-0.159387	0.501578	-0.000279
C15	C	-0.095222	0.473680	-0.000260
C16	C	-0.032125	0.518612	-0.000211
C17	C	-0.033199	0.591433	-0.000194
N18	N	-0.044168	0.367715	-0.047529
N19	N	-0.043152	0.298537	-0.047547
C20	C	-0.091981	0.254274	-0.000310
N21	N	-0.141875	0.281801	0.046936
N22	N	-0.142894	0.350985	0.046950
C23	C	-0.094050	0.394718	-0.000278
C24	C	-0.153912	0.130387	-0.000362
C25	C	-0.152838	0.057563	-0.000366
C26	C	-0.025573	0.074599	-0.000306
C27	C	-0.026650	0.147422	-0.000294
C28	C	-0.090821	0.175311	-0.000326
C29	C	-0.220685	0.819012	-0.000346
C30	C	-0.298188	0.820155	-0.000386
C31	C	-0.343113	0.757062	-0.000353
C32	C	-0.415938	0.758133	-0.000334
C33	C	-0.443835	0.822299	-0.000332
C34	C	-0.398899	0.885400	-0.000369
C35	C	-0.326076	0.884328	-0.000396
N36	N	-0.553811	0.869330	0.046965
N37	N	-0.622990	0.870344	0.046992
C38	C	-0.663247	0.825534	-0.000252
N39	N	-0.631711	0.779660	-0.047515
N40	N	-0.562526	0.778643	-0.047538
C41	C	-0.522798	0.823469	-0.000303
C42	C	-0.787137	0.763598	-0.000200
C43	C	-0.859962	0.764672	-0.000187
C44	C	-0.842922	0.891940	-0.000214
C45	C	-0.770098	0.890865	-0.000236
C46	C	-0.742211	0.826692	-0.000225
C47	C	0.034643	0.829981	-0.000220
C48	C	0.112146	0.828839	-0.000186
C49	C	-0.087533	0.952165	-0.000317
C50	C	-0.088672	1.029670	-0.000345
N51	N	-0.102203	0.815281	0.216052
N52	N	-0.083833	0.833717	-0.216617
C53	C	-0.056469	0.861049	0.259757
C54	C	-0.060182	0.857336	0.347163
C55	C	-0.109634	0.807859	0.390863
C56	C	-0.155371	0.762087	0.347152
C57	C	-0.151653	0.765797	0.259748
C58	C	-0.125853	0.791655	0.652269
C59	C	-0.129568	0.787950	0.739679
C60	C	-0.034378	0.883199	0.739683
C61	C	-0.030668	0.886907	0.652277
C62	C	-0.076402	0.841132	0.608575
N63	N	-0.113433	0.804065	0.480206
N64	N	-0.072600	0.844924	0.519233
H65	H	0.020120	0.495894	-0.000207
H66	H	-0.210763	0.464995	-0.000313
C67	C	-0.216737	0.780387	0.553939
C68	C	-0.176135	0.741349	0.604241
H69	H	-0.247779	0.749328	0.524285
H70	H	-0.243219	0.807924	0.588006
H71	H	-0.186746	0.810374	0.515401
H72	H	-0.206125	0.711365	0.642783
H73	H	-0.149650	0.713800	0.570171
H74	H	-0.865633	0.944188	-0.000273
H75	H	-0.016203	0.901341	0.224182
H76	H	-0.452523	0.706754	-0.000305
C77	C	-0.278738	0.048043	-0.000443
C78	C	-0.222191	0.008181	-0.000415
H79	H	-0.321554	0.017555	-0.000479
H80	H	-0.278570	0.074719	0.047983
H81	H	-0.274445	0.078883	-0.048863
H82	H	-0.226481	-0.022655	0.048008
H83	H	-0.222360	-0.018507	-0.048846
H84	H	-0.421617	0.937645	-0.000383
H85	H	0.009600	0.927195	0.616698
H86	H	0.026674	0.051888	-0.000343
C87	C	0.092703	0.600957	-0.000140
C88	C	0.036154	0.640817	-0.000155
H89	H	0.135519	0.631447	-0.000123
H90	H	0.088423	0.570123	0.048275
H91	H	0.092525	0.574275	-0.048571
H92	H	0.036329	0.667495	0.048279
H93	H	0.040436	0.671663	-0.048575
C94	C	-0.239051	0.698904	-0.000386
C95	C	-0.312458	0.686525	-0.000354
H96	H	-0.220126	0.655357	-0.000384
H97	H	-0.221597	0.726934	-0.048815
H98	H	-0.225646	0.722808	0.048031
H99	H	-0.325863	0.662626	-0.048774
H100	H	-0.329918	0.658484	0.048080
H101	H	-0.206165	0.153096	-0.000376
C102	C	-0.979158	0.709807	-0.000146
C103	C	-0.909349	0.695316	-0.000157
H104	H	-1.009646	0.666988	-0.000134
H105	H	-0.989618	0.734060	0.048270
H106	H	-0.985556	0.738191	-0.048576
H107	H	-0.902950	0.666936	0.048276
H108	H	-0.898885	0.671052	-0.048578
H109	H	0.002857	0.920465	0.775274
H110	H	-0.169841	0.747658	0.775256
C111	C	-0.760573	1.016767	-0.000248
C112	C	-0.720712	0.960219	-0.000257
H113	H	-0.730083	1.059584	-0.000257
H114	H	-0.787302	1.016605	-0.048658
H115	H	-0.791361	1.012467	0.048188
H116	H	-0.689928	0.964516	-0.048697
H117	H	-0.693971	0.960382	0.048158
C118	C	0.099249	0.156944	-0.000247
C119	C	0.042701	0.196806	-0.000259
H120	H	0.142065	0.187434	-0.000228
H121	H	0.094968	0.126109	0.048166
H122	H	0.099071	0.130265	-0.048680
H123	H	0.042877	0.223481	0.048178
H124	H	0.046984	0.227654	-0.048677
H125	H	-0.289497	0.935707	-0.000424
H126	H	-0.764430	0.711345	-0.000187
H127	H	-0.022941	0.894603	0.382746
H128	H	-0.188894	0.728527	0.224165
C129	C	-0.174937	0.662855	0.445498
C130	C	-0.209728	0.707701	0.395190
H131	H	-0.208497	0.629284	0.475157
H132	H	-0.144493	0.639278	0.411434
H133	H	-0.148232	0.689591	0.484032
H134	H	-0.236429	0.680966	0.356652
H135	H	-0.240184	0.731281	0.429256
H136	H	-0.212712	0.597104	-0.000298
