data_functionalizedCrystal
_audit_creation_method	'MofGen! by Chris Wilmer'
_symmetry_space_group_name_H-M	'P1'
_symmetry_Int_Tables_number	1
_symmetry_cell_setting	triclinic
loop_
_symmetry_equiv_pos_as_xyz
  x,y,z
_cell_length_a	16.120484
_cell_length_b	19.077236
_cell_length_c	19.077174
_cell_angle_alpha	85.294282
_cell_angle_beta	95.281307
_cell_angle_gamma	95.329860
loop_
_atom_site_label
_atom_site_type_symbol
_atom_site_fract_x
_atom_site_fract_y
_atom_site_fract_z
Zn1	Zn	-0.302196	1.081296	-0.454395
Zn2	Zn	-0.436761	1.070940	-0.342039
Zn3	Zn	-0.302209	0.958677	-0.331779
Zn4	Zn	-0.447511	0.957388	-0.455585
O5	O	-0.372169	1.017075	-0.395949
O6	O	-0.315542	1.178761	-0.443287
O7	O	-0.414419	1.052253	-0.241843
O8	O	-0.185082	0.979815	-0.343253
O9	O	-0.414407	1.171152	-0.360739
O10	O	-0.185072	1.069903	-0.433338
O11	O	-0.315564	0.969774	-0.234305
O12	O	-0.325987	0.859667	-0.344406
O13	O	-0.432728	0.977619	-0.554262
O14	O	-0.432740	0.858720	-0.435366
O15	O	-0.325966	1.068654	-0.553388
O16	O	-0.555313	1.051004	-0.361892
O17	O	-0.563210	0.967578	-0.445314
C18	C	-0.380532	0.833566	-0.388902
C19	C	-0.384131	0.755060	-0.385905
C20	C	-0.334436	0.722139	-0.427548
C21	C	-0.337813	0.648374	-0.424725
C22	C	-0.390890	0.607531	-0.380263
C23	C	-0.440587	0.640458	-0.338616
C24	C	-0.437205	0.714221	-0.341435
C25	C	-0.406511	0.386497	-0.367211
C26	C	-0.409891	0.312728	-0.364397
C27	C	-0.307116	0.320649	-0.450506
C28	C	-0.303743	0.394414	-0.453324
C29	C	-0.353436	0.427334	-0.411674
N30	N	-0.394345	0.532132	-0.377379
N31	N	-0.349976	0.502732	-0.414555
C32	C	-0.589630	1.008047	-0.404862
C33	C	-0.682660	1.004250	-0.408700
C34	C	-0.852985	0.997323	-0.415724
C35	C	-0.890508	1.036954	-0.376191
C36	C	-0.985283	1.033100	-0.380099
C37	C	-0.758201	1.001177	-0.411817
C38	C	-0.153858	1.026158	-0.387018
C39	C	-0.060827	1.030029	-0.383213
C40	C	-0.380544	1.024148	-0.580168
C41	C	-0.384113	1.027162	-0.658671
C42	C	-0.363774	1.201301	-0.403025
C43	C	-0.360196	1.279807	-0.406040
C44	C	-0.334323	0.985637	-0.691627
C45	C	-0.337683	0.988466	-0.765390
C46	C	-0.390831	1.032824	-0.806195
C47	C	-0.440627	1.074350	-0.773234
C48	C	-0.437270	1.071517	-0.699473
C49	C	-0.406393	1.045899	-1.027217
C50	C	-0.409744	1.048730	-1.100983
C51	C	-0.306801	0.962845	-1.093134
C52	C	-0.303445	0.960019	-1.019372
C53	C	-0.353245	1.001542	-0.986417
N54	N	-0.394265	1.035718	-0.881591
N55	N	-0.349814	0.998644	-0.911022
C56	C	-0.363764	1.010073	-0.212446
C57	C	-0.359953	1.007206	-0.133939
H58	H	-0.297348	0.621573	-0.458636
H59	H	-0.477809	1.105337	-0.672641
C60	C	-0.498970	0.595528	-0.289706
N61	N	-0.542949	0.561688	-0.252868
H62	H	-0.260525	0.427663	-0.489532
C63	C	-0.905741	0.947572	-0.465401
N64	N	-0.945488	0.910096	-0.502814
H65	H	-0.446976	0.413291	-0.333298
C66	C	-0.837750	1.086696	-0.326498
N67	N	-0.798010	1.124158	-0.289067
H68	H	-0.291039	0.949520	-0.658409
H69	H	-0.453117	0.279475	-0.328190
H70	H	-0.446953	1.079702	-1.000395
C71	C	-0.491875	0.750434	-0.295626
N72	N	-0.533052	0.777708	-0.261120
H73	H	-0.297141	0.954649	-0.792219
H74	H	-0.291218	0.755388	-0.463755
C75	C	-0.252443	0.284431	-0.496305
N76	N	-0.211254	0.257152	-0.530798
C77	C	-0.244980	0.911220	-0.974492
N78	N	-0.200942	0.874465	-0.940688
C79	C	-0.252030	0.917167	-1.129390
N80	N	-0.210778	0.882759	-1.156698
C81	C	-0.468216	1.097527	-1.145867
N82	N	-0.512255	1.134279	-1.179674
C83	C	-0.499287	1.122976	-0.818123
N84	N	-0.543539	1.159544	-0.851934
