data_functionalizedCrystal
_audit_creation_method	'MofGen! by Chris Wilmer'
_symmetry_space_group_name_H-M	'P1'
_symmetry_Int_Tables_number	1
_symmetry_cell_setting	triclinic
loop_
_symmetry_equiv_pos_as_xyz
  x,y,z
_cell_length_a	12.827893
_cell_length_b	16.625545
_cell_length_c	12.827885
_cell_angle_alpha	90.033151
_cell_angle_beta	89.980728
_cell_angle_gamma	89.975802
loop_
_atom_site_label
_atom_site_type_symbol
_atom_site_fract_x
_atom_site_fract_y
_atom_site_fract_z
Zn1	Zn	1.597609	0.320958	-0.590820
Zn2	Zn	1.597476	0.455812	-0.416071
Zn3	Zn	1.422850	0.320998	-0.416095
Zn4	Zn	1.422809	0.455752	-0.590771
O5	O	1.510186	0.388380	-0.503439
O6	O	1.743827	0.338855	-0.567650
O7	O	1.574273	0.437971	-0.269838
O8	O	1.446104	0.208160	-0.439303
O9	O	1.743730	0.437932	-0.439262
O10	O	1.574499	0.208131	-0.567673
O11	O	1.445976	0.338923	-0.269855
O12	O	1.276608	0.338865	-0.439255
O13	O	1.446035	0.437830	-0.737014
O14	O	1.276578	0.437869	-0.567590
O15	O	1.574460	0.338797	-0.737050
O16	O	1.574233	0.568637	-0.439215
O17	O	1.445906	0.568593	-0.567567
C18	C	1.238676	0.388365	-0.503420
C19	C	1.122523	0.388378	-0.503437
C20	C	0.950707	0.437457	-0.566859
C21	C	1.070757	0.437445	-0.566843
C22	C	1.510080	0.597871	-0.503406
C23	C	1.510130	0.687492	-0.503426
C24	C	1.510300	1.015668	-0.503551
C25	C	1.510249	0.924359	-0.503519
C26	C	1.510214	0.851583	-0.503488
C27	C	1.510165	0.760268	-0.503458
C28	C	1.782756	0.388395	-0.503459
C29	C	1.898909	0.388402	-0.503467
C30	C	1.510258	0.388302	-0.776010
C31	C	1.510289	0.388269	-0.892163
C32	C	1.510312	1.178071	-0.503508
C33	C	1.510343	1.088450	-0.503569
C34	C	1.573874	0.339221	-1.064010
C35	C	1.573844	0.339254	-0.943959
C36	C	1.510174	0.388400	-0.231929
C37	C	1.510346	0.388206	-0.115777
H38	H	0.906176	0.479467	-0.621138
C39	C	1.647323	0.282595	-0.883820
N40	N	1.702670	0.239919	-0.838520
H41	H	1.115302	0.479439	-0.621119
C42	C	0.959063	0.331648	-0.430133
N43	N	1.004370	0.288897	-0.374898
C44	C	1.436802	0.444926	-0.952295
N45	N	1.381452	0.487600	-0.997595
C46	C	1.647378	0.282524	-1.124199
N47	N	1.702739	0.239816	-1.169533
H48	H	1.077985	0.346375	-0.449167
H49	H	1.455939	0.430171	-1.071220
