data_functionalizedCrystal
_audit_creation_method	'MofGen! by Chris Wilmer'
_symmetry_space_group_name_H-M	'P1'
_symmetry_Int_Tables_number	1
_symmetry_cell_setting	triclinic
loop_
_symmetry_equiv_pos_as_xyz
  x,y,z
_cell_length_a	11.792241
_cell_length_b	13.339070
_cell_length_c	11.804365
_cell_angle_alpha	105.112168
_cell_angle_beta	78.073685
_cell_angle_gamma	99.911355
loop_
_atom_site_label
_atom_site_type_symbol
_atom_site_fract_x
_atom_site_fract_y
_atom_site_fract_z
O1	O	1.566196	0.118585	-0.098903
O2	O	1.240268	0.132895	-0.098930
O3	O	1.365825	-0.021729	-0.098916
O4	O	1.440639	0.273209	-0.098917
O5	O	1.332758	0.018936	0.099136
O6	O	1.207201	0.173560	0.099122
O7	O	1.533128	0.159251	0.099149
Cu8	Cu	1.367145	0.170118	0.117220
Cu9	Cu	1.406251	0.122027	-0.117000
O10	O	1.407571	0.313874	0.099136
C11	C	1.336655	-0.039155	0.000108
C12	C	1.298987	-0.151665	0.000100
C13	C	1.181167	0.152327	0.000093
C14	C	1.054326	0.149634	0.000082
C15	C	1.591877	-0.514847	0.000125
C16	C	1.627270	-0.409137	0.000139
C17	C	1.545202	-0.344764	0.000128
C18	C	1.427736	-0.386111	0.000105
C19	C	1.392337	-0.491829	0.000100
C20	C	1.345663	-0.321746	0.000104
C21	C	1.228196	-0.363093	0.000081
C22	C	1.192804	-0.468801	0.000075
C23	C	1.274871	-0.533174	0.000085
C24	C	1.381061	-0.216028	0.000109
C25	C	1.181521	-0.193010	0.000085
C26	C	1.146128	-0.298720	0.000070
C27	C	0.822084	0.144692	0.000116
C28	C	0.951319	0.147438	0.000098
C29	C	1.592230	0.139817	0.000124
C30	C	1.719072	0.142509	0.000127
C31	C	1.436742	0.331300	0.000109
C32	C	1.474411	0.443808	0.000110
N33	N	1.339648	0.203942	0.281957
N34	N	1.433755	0.088195	-0.281738
C35	C	1.499779	0.006951	0.655924
C36	C	1.520578	-0.018641	0.531264
C37	C	1.475347	0.037002	0.468931
C38	C	1.409314	0.118243	0.531270
C39	C	1.388521	0.143843	0.655942
C40	C	1.364089	0.173894	0.468949
C41	C	1.298056	0.255135	0.531288
C42	C	1.277266	0.280730	0.655948
C43	C	1.322497	0.225087	0.718280
C44	C	1.384882	0.148294	0.344278
C45	C	1.273624	0.285186	0.344296
C46	C	1.252825	0.310778	0.468955
H47	H	1.476703	-0.182374	0.000129
H48	H	1.050484	-0.332400	0.000052
H49	H	1.305559	0.245921	0.819788
H50	H	1.438646	0.082148	0.293533
H51	H	1.246061	-0.619254	0.000069
H52	H	1.574027	-0.258691	0.000140
H53	H	1.097153	-0.502460	0.000065
H54	H	1.574342	-0.084785	0.480513
H55	H	1.114694	-0.140596	0.000082
H56	H	1.223510	0.346889	0.706704
H57	H	1.492284	0.016161	0.367428
H58	H	1.236796	0.330498	0.293545
H59	H	1.199061	0.376927	0.519727
H60	H	1.722911	-0.375480	0.000160
H61	H	1.658682	-0.567265	0.000143
H62	H	1.536607	-0.038341	0.706683
