data_functionalizedCrystal
_audit_creation_method	'MofGen! by Chris Wilmer'
_symmetry_space_group_name_H-M	'P1'
_symmetry_Int_Tables_number	1
_symmetry_cell_setting	triclinic
loop_
_symmetry_equiv_pos_as_xyz
  x,y,z
_cell_length_a	19.121102
_cell_length_b	15.297327
_cell_length_c	15.298259
_cell_angle_alpha	88.343348
_cell_angle_beta	96.832623
_cell_angle_gamma	97.700936
loop_
_atom_site_label
_atom_site_type_symbol
_atom_site_fract_x
_atom_site_fract_y
_atom_site_fract_z
Zn1	Zn	0.949840	-0.304847	-0.614818
Zn2	Zn	1.283173	0.028486	-0.281485
Zn3	Zn	1.616507	0.361820	0.051848
Zn4	Zn	0.943010	-0.476394	-0.493253
Zn5	Zn	1.276343	-0.143061	-0.159920
Zn6	Zn	1.609676	0.190272	0.173414
Zn7	Zn	0.850124	-0.325839	-0.462145
Zn8	Zn	1.183457	0.007494	-0.128811
Zn9	Zn	1.516790	0.340827	0.204522
Zn10	Zn	0.811206	-0.445178	-0.631454
Zn11	Zn	1.144539	-0.111845	-0.298121
Zn12	Zn	1.477872	0.221489	0.035213
O13	O	0.888545	-0.388065	-0.550418
O14	O	1.221878	-0.054731	-0.217084
O15	O	1.555211	0.278602	0.116249
O16	O	1.045826	-0.331882	-0.604749
O17	O	1.379159	0.001451	-0.271416
O18	O	1.712493	0.334785	0.061917
O19	O	0.944117	-0.478272	-0.367394
O20	O	1.277450	-0.144939	-0.034061
O21	O	1.610784	0.188394	0.299272
O22	O	0.882497	-0.201318	-0.462416
O23	O	1.215830	0.132015	-0.129083
O24	O	1.549163	0.465349	0.204250
O25	O	1.040808	-0.457917	-0.515436
O26	O	1.374141	-0.124584	-0.182103
O27	O	1.707474	0.208750	0.151231
O28	O	0.955758	-0.185895	-0.574585
O29	O	1.289091	0.147438	-0.241252
O30	O	1.622425	0.480772	0.092082
O31	O	0.875874	-0.367660	-0.344539
O32	O	1.209207	-0.034327	-0.011206
O33	O	1.542541	0.299006	0.322127
O34	O	0.748069	-0.337391	-0.478547
O35	O	1.081402	-0.004058	-0.145214
O36	O	1.414736	0.329276	0.188119
O37	O	0.816167	-0.404713	-0.750979
O38	O	1.149500	-0.071380	-0.417646
O39	O	1.482834	0.261953	-0.084313
O40	O	0.719476	-0.425069	-0.602938
O41	O	1.052810	-0.091735	-0.269605
O42	O	1.386143	0.241598	0.063729
O43	O	0.918021	-0.301613	-0.738757
O44	O	1.251354	0.031721	-0.405424
O45	O	1.584688	0.365054	-0.072091
O46	O	0.906380	-0.593990	-0.531567
O47	O	1.239713	-0.260657	-0.198233
O48	O	1.573047	0.072676	0.135100
O49	O	0.809544	-0.571056	-0.633102
O50	O	1.142878	-0.237722	-0.299769
O51	O	1.476211	0.095611	0.033564
C52	C	0.708649	-0.380121	-0.539173
C53	C	1.041983	-0.046788	-0.205839
C54	C	1.375316	0.286546	0.127494
C55	C	0.631684	-0.376740	-0.534386
C56	C	0.965017	-0.043406	-0.201053
C57	C	1.298351	0.289927	0.132280
C58	C	0.853015	-0.614085	-0.587536
C59	C	1.186348	-0.280752	-0.254202
C60	C	1.519681	0.052581	0.079131
C61	C	0.837875	-0.710776	-0.603448
C62	C	1.171208	-0.377442	-0.270114
C63	C	1.504541	-0.044109	0.063219
C64	C	0.997004	-1.030947	-0.437005
C65	C	1.330337	-0.697614	-0.103671
C66	C	1.663671	-0.364280	0.229662
C67	C	1.011229	-0.940103	-0.422050
C68	C	1.344562	-0.606769	-0.088717
C69	C	1.677895	-0.273436	0.244617
C70	C	0.967892	-0.882766	-0.467398
C71	C	1.301225	-0.549433	-0.134065
C72	C	1.634558	-0.216100	0.199268
C73	C	0.910327	-0.916284	-0.527704
C74	C	1.243660	-0.582950	-0.194370
C75	C	1.576994	-0.249617	0.138963
C76	C	0.896098	-1.007138	-0.542655
C77	C	1.229431	-0.673804	-0.209322
C78	C	1.562764	-0.340471	0.124012
C79	C	0.866985	-0.858957	-0.573048
C80	C	1.200319	-0.525624	-0.239715
C81	C	1.533652	-0.192290	0.093618
C82	C	0.809421	-0.892474	-0.633354
C83	C	1.142754	-0.559141	-0.300021
C84	C	1.476087	-0.225808	0.033313
C85	C	0.795194	-0.983320	-0.648303
C86	C	1.128527	-0.649986	-0.314969
C87	C	1.461861	-0.316653	0.018364
C88	C	0.838531	-1.040656	-0.602954
C89	C	1.171864	-0.707322	-0.269621
C90	C	1.505198	-0.373989	0.063712
C91	C	0.881215	-0.768103	-0.558097
C92	C	1.214548	-0.434770	-0.224764
C93	C	1.547881	-0.101436	0.108569
C94	C	0.780308	-0.744294	-0.663747
C95	C	1.113642	-0.410960	-0.330414
C96	C	1.446975	-0.077627	0.002919
C97	C	0.766084	-0.835138	-0.678702
C98	C	1.099417	-0.501805	-0.345369
C99	C	1.432750	-0.168471	-0.012035
C100	C	0.580653	-0.420900	-0.596828
C101	C	0.913987	-0.087567	-0.263494
C102	C	1.247320	0.245767	0.069839
C103	C	0.508337	-0.417711	-0.592332
C104	C	0.841671	-0.084377	-0.258999
C105	C	1.175004	0.248956	0.074334
C106	C	0.487053	-0.370366	-0.525392
C107	C	0.820386	-0.037033	-0.192058
C108	C	1.153720	0.296301	0.141275
C109	C	0.538090	-0.326200	-0.462947
C110	C	0.871423	0.007133	-0.129614
C111	C	1.204757	0.340466	0.203720
C112	C	0.610405	-0.329385	-0.467447
C113	C	0.943738	0.003948	-0.134113
C114	C	1.277071	0.337282	0.199220
C115	C	0.269454	-0.358458	-0.508573
C116	C	0.602787	-0.025124	-0.175240
C117	C	0.936120	0.308209	0.158094
C118	C	0.197133	-0.355279	-0.504077
C119	C	0.530466	-0.021945	-0.170743
C120	C	0.863799	0.311388	0.162590
C121	C	0.167385	-0.446788	-0.633463
C122	C	0.500719	-0.113455	-0.300130
C123	C	0.834052	0.219879	0.033203
C124	C	0.239703	-0.449972	-0.637954
C125	C	0.573036	-0.116639	-0.304621
C126	C	0.906369	0.216694	0.028713
C127	C	0.290733	-0.405803	-0.575512
C128	C	0.624066	-0.072470	-0.242179
C129	C	0.957400	0.260864	0.091154
C130	C	0.413135	-0.367107	-0.520794
C131	C	0.746468	-0.033774	-0.187460
C132	C	1.079802	0.299559	0.145873
C133	C	0.364650	-0.409057	-0.580115
C134	C	0.697983	-0.075724	-0.246781
C135	C	1.031317	0.257610	0.086552
C136	C	1.069142	-0.396040	-0.561707
C137	C	1.402476	-0.062707	-0.228374
C138	C	1.735809	0.270627	0.104960
C139	C	1.146102	-0.399439	-0.566518
C140	C	1.479436	-0.066105	-0.233185
C141	C	1.812769	0.267228	0.100149
C142	C	0.863515	-0.347339	-0.777315
C143	C	1.196848	-0.014006	-0.443981
C144	C	1.530181	0.319327	-0.110648
C145	C	0.852849	-0.329985	-0.874005
C146	C	1.186182	0.003349	-0.540671
C147	C	1.519515	0.336682	-0.207338
C148	C	0.924230	-0.161159	-0.513175
C149	C	1.257564	0.172175	-0.179842
C150	C	1.590897	0.505508	0.153492
C151	C	0.939437	-0.064465	-0.497304
C152	C	1.272771	0.268868	-0.163971
C153	C	1.606104	0.602202	0.169362
C154	C	0.964906	-0.511433	-1.194150
C155	C	1.298239	-0.178099	-0.860816
C156	C	1.631573	0.155234	-0.527483
C157	C	0.974923	-0.527744	-1.103305
C158	C	1.308256	-0.194410	-0.769972
C159	C	1.641590	0.138923	-0.436639
C160	C	0.944406	-0.478305	-1.045976
C161	C	1.277739	-0.144972	-0.712642
C162	C	1.611072	0.188362	-0.379309
C163	C	0.903869	-0.412553	-1.079499
C164	C	1.237202	-0.079220	-0.746166
C165	C	1.570535	0.254114	-0.412833
C166	C	0.893846	-0.396245	-1.170353
C167	C	1.227179	-0.062912	-0.837020
C168	C	1.560513	0.270422	-0.503687
C169	C	0.873346	-0.363118	-1.022179
C170	C	1.206679	-0.029784	-0.688846
C171	C	1.540012	0.303549	-0.355513
C172	C	0.832809	-0.297366	-1.055703
C173	C	1.166142	0.035968	-0.722370
C174	C	1.499476	0.369301	-0.389036
C175	C	0.822789	-0.281060	-1.146548
C176	C	1.156122	0.052273	-0.813215
C177	C	1.489455	0.385606	-0.479881
C178	C	0.853306	-0.330499	-1.203878
C179	C	1.186639	0.002835	-0.870544
C180	C	1.519973	0.336168	-0.537211
C181	C	0.883368	-0.379426	-0.931326
C182	C	1.216702	-0.046092	-0.597992
C183	C	1.550035	0.287241	-0.264659
C184	C	0.812308	-0.264238	-0.907529
C185	C	1.145642	0.069095	-0.574196
C186	C	1.478975	0.402428	-0.240862
C187	C	0.802291	-0.247927	-0.998374
C188	C	1.135625	0.085406	-0.665040
C189	C	1.468958	0.418739	-0.331707
C190	C	0.913527	-0.428571	-0.324395
C191	C	1.246860	-0.095237	0.008938
C192	C	1.580194	0.238096	0.342271
C193	C	0.924366	-0.445686	-0.227674
C194	C	1.257699	-0.112353	0.105659
C195	C	1.591033	0.220980	0.438993
H196	H	0.928084	-0.740822	-0.508996
H197	H	1.261417	-0.407489	-0.175663
H198	H	1.594751	-0.074155	0.157671
F199	F	0.983160	-0.786055	-0.451676
F200	F	1.316494	-0.452722	-0.118343
F201	F	1.649827	-0.119388	0.214990
H202	H	0.651954	-0.293420	-0.416604
H203	H	0.985288	0.039914	-0.083271
H204	H	1.318621	0.373247	0.250063
F205	F	0.387304	-0.459442	-0.651356
F206	F	0.720638	-0.126108	-0.318023
F207	F	1.053971	0.207225	0.015310
F208	F	0.779818	-0.211627	-0.846520
F209	F	1.113152	0.121706	-0.513187
F210	F	1.446485	0.455039	-0.179853
H211	H	0.597976	-0.459457	-0.651336
H212	H	0.931309	-0.126123	-0.318002
H213	H	1.264643	0.207210	0.015331
H214	H	1.058097	-0.912816	-0.372949
H215	H	1.391430	-0.579483	-0.039616
H216	H	1.724763	-0.246150	0.293718
F217	F	1.043118	-1.091972	-0.388747
F218	F	1.376451	-0.758638	-0.055414
F219	F	1.709784	-0.425305	0.277920
H220	H	0.466790	-0.453672	-0.643178
H221	H	0.800123	-0.120338	-0.309845
H222	H	1.133457	0.212995	0.023489
F223	F	0.823205	-1.137384	-0.618577
F224	F	1.156538	-0.804051	-0.285244
F225	F	1.489872	-0.470718	0.048090
H226	H	0.748314	-1.010607	-0.697397
H227	H	1.081647	-0.677274	-0.364063
H228	H	1.414981	-0.343941	-0.030730
F229	F	0.704821	-0.870821	-0.742882
F230	F	1.038154	-0.537488	-0.409549
F231	F	1.371487	-0.204154	-0.076215
H232	H	0.769286	-0.194391	-1.025682
H233	H	1.102619	0.138942	-0.692348
H234	H	1.435952	0.472275	-0.359015
F235	F	0.262349	-0.500365	-0.709200
F236	F	0.595682	-0.167032	-0.375867
F237	F	0.929015	0.166301	-0.042533
H238	H	0.745018	-0.697611	-0.700672
H239	H	1.078352	-0.364277	-0.367339
H240	H	1.411685	-0.030944	-0.034005
F241	F	0.955070	-0.495664	-0.949291
F242	F	1.288403	-0.162331	-0.615957
F243	F	1.621737	0.171003	-0.282624
F244	F	0.390476	-0.316721	-0.449552
F245	F	0.723809	0.016613	-0.116219
F246	F	1.057142	0.349946	0.217114
F247	F	0.515436	-0.275806	-0.391708
F248	F	0.848769	0.057527	-0.058375
F249	F	1.182103	0.390861	0.274959
F250	F	0.113071	-0.493794	-0.699912
F251	F	0.446404	-0.160461	-0.366579
F252	F	0.779738	0.172872	-0.033246
H253	H	1.007920	-0.581287	-1.076018
H254	H	1.341253	-0.247954	-0.742685
H255	H	1.674587	0.085380	-0.409351
H256	H	0.989743	-0.551684	-1.240835
H257	H	1.323076	-0.218351	-0.907502
H258	H	1.656410	0.114982	-0.574168
H259	H	0.845154	-0.317220	-1.277851
H260	H	1.178488	0.016113	-0.944518
H261	H	1.511821	0.349447	-0.611185
F262	F	0.174483	-0.304892	-0.432821
F263	F	0.507817	0.028442	-0.099488
F264	F	0.841150	0.361775	0.233845
H265	H	0.310995	-0.322499	-0.457723
H266	H	0.644328	0.010834	-0.124390
H267	H	0.977661	0.344167	0.208944
H268	H	0.916379	-0.432957	-0.904039
H269	H	1.249712	-0.099623	-0.570706
H270	H	1.583045	0.233710	-0.237373
H271	H	0.789773	-0.227529	-1.173841
H272	H	1.123106	0.105805	-0.840507
H273	H	1.456440	0.439138	-0.507174
