data_functionalizedCrystal
_audit_creation_method	'MofGen! by Chris Wilmer'
_symmetry_space_group_name_H-M	'P1'
_symmetry_Int_Tables_number	1
_symmetry_cell_setting	triclinic
loop_
_symmetry_equiv_pos_as_xyz
  x,y,z
_cell_length_a	16.109301
_cell_length_b	16.109301
_cell_length_c	15.186229
_cell_angle_alpha	89.994833
_cell_angle_beta	89.999006
_cell_angle_gamma	83.461532
loop_
_atom_site_label
_atom_site_type_symbol
_atom_site_fract_x
_atom_site_fract_y
_atom_site_fract_z
O1	O	1.103130	0.106867	-0.073183
O2	O	1.603130	0.606867	0.426817
O3	O	0.861069	0.120166	-0.073196
O4	O	1.361069	0.620166	0.426804
O5	O	0.988749	-0.007514	-0.073180
O6	O	1.488749	0.492486	0.426820
O7	O	0.975450	0.234548	-0.073199
O8	O	1.475450	0.734548	0.426801
O9	O	0.988741	-0.007516	0.073277
O10	O	1.488741	0.492484	0.573277
O11	O	0.861060	0.120164	0.073262
O12	O	1.361060	0.620164	0.573262
O13	O	1.103122	0.106865	0.073274
O14	O	1.603122	0.606865	0.573274
Zn15	Zn	0.982090	0.113515	0.096521
Zn16	Zn	1.482090	0.613515	0.596521
Zn17	Zn	0.982101	0.113517	-0.096443
Zn18	Zn	1.482101	0.613517	0.403557
O19	O	0.975441	0.234546	0.073259
O20	O	1.475441	0.734546	0.573259
C21	C	0.830089	0.119627	0.000031
C22	C	1.330089	0.619627	0.500031
C23	C	0.737794	0.118011	0.000027
C24	C	1.237794	0.618011	0.500027
C25	C	0.428796	0.188494	0.000037
C26	C	0.928796	0.688494	0.500037
C27	C	0.515516	0.190020	0.000032
C28	C	1.015516	0.690020	0.500032
C29	C	0.535389	0.038531	0.000031
C30	C	1.035389	0.538531	0.500031
C31	C	0.448671	0.037007	0.000030
C32	C	0.948671	0.537007	0.500030
C33	C	0.395376	0.111991	0.000037
C34	C	0.895376	0.611991	0.500037
C35	C	0.568815	0.115041	0.000033
C36	C	1.068815	0.615041	0.500033
C37	C	0.662841	0.116694	0.000028
C38	C	1.162841	0.616694	0.500028
C39	C	0.301344	0.110338	0.000041
C40	C	0.801344	0.610338	0.500041
C41	C	0.988206	-0.038490	0.000049
C42	C	1.488206	0.461510	0.500049
C43	C	0.986591	-0.130785	0.000050
C44	C	1.486591	0.369215	0.500050
C45	C	1.058599	-0.353058	0.000040
C46	C	1.558599	0.146942	0.500040
C47	C	1.057075	-0.439778	0.000033
C48	C	1.557075	0.060222	0.500033
C49	C	0.905586	-0.419904	0.000028
C50	C	1.405586	0.080096	0.500028
C51	C	0.907111	-0.333185	0.000029
C52	C	1.407111	0.166815	0.500029
C53	C	0.983620	-0.299765	0.000040
C54	C	1.483620	0.200235	0.500040
C55	C	0.980571	-0.473204	0.000031
C56	C	1.480571	0.026796	0.500031
C57	C	0.978918	-0.567230	0.000023
C58	C	1.478918	-0.067230	0.500023
C59	C	0.985273	-0.205733	0.000046
C60	C	1.485273	0.294267	0.500046
C61	C	1.134101	0.107405	0.000045
C62	C	1.634101	0.607405	0.500045
C63	C	1.226396	0.109020	0.000044
C64	C	1.726396	0.609020	0.500044
C65	C	0.975984	0.265522	0.000028
C66	C	1.475984	0.765522	0.500028
C67	C	0.977599	0.357817	0.000021
C68	C	1.477599	0.857817	0.500021
N69	N	0.982088	0.113512	0.228214
N70	N	1.482088	0.613512	0.728214
N71	N	0.982109	0.113512	-0.228135
N72	N	1.482109	0.613512	0.271865
C73	C	1.038644	0.056994	0.453944
C74	C	1.538644	0.556994	0.953944
C75	C	1.038647	0.056992	0.546133
C76	C	1.538647	0.556992	1.046133
C77	C	0.925547	0.170033	0.546128
C78	C	1.425547	0.670033	1.046128
C79	C	0.925541	0.170030	0.453940
C80	C	1.425541	0.670030	0.953940
C81	C	0.982094	0.113512	0.407850
C82	C	1.482094	0.613512	0.907850
C83	C	0.982103	0.113513	0.592228
C84	C	1.482103	0.613513	1.092228
C85	C	0.982105	0.113511	0.692184
C86	C	1.482105	0.613511	1.192184
C87	C	0.982091	0.113512	0.307888
C88	C	1.482091	0.613512	0.807888
H89	H	0.578792	-0.022518	0.000028
H90	H	1.078792	0.477482	0.500028
Br91	Br	0.801758	-0.465266	0.000011
Br92	Br	1.301758	0.034734	0.500011
Br93	Br	1.158837	-0.512102	0.000028
Br94	Br	1.658837	-0.012102	0.500028
Br95	Br	1.162431	-0.307704	0.000055
Br96	Br	1.662431	0.192296	0.500055
Br97	Br	0.805346	-0.260852	0.000017
Br98	Br	1.305346	0.239148	0.500017
H99	H	0.421461	-0.025296	0.000028
H100	H	0.921461	0.474704	0.500028
Br101	Br	0.560868	0.293851	0.000023
Br102	Br	1.060868	0.793851	0.500023
Br103	Br	0.848800	0.246735	0.608682
Br104	Br	1.348800	0.746735	1.108682
H105	H	1.084692	0.010973	0.416419
H106	H	1.584692	0.510973	0.916419
Br107	Br	0.848783	0.246732	0.391378
Br108	Br	1.348783	0.746732	0.891378
Br109	Br	0.356470	0.290258	0.000045
Br110	Br	0.856470	0.790258	0.500045
Br111	Br	1.115392	-0.019717	0.608687
Br112	Br	1.615392	0.480283	1.108687
