data_functionalizedCrystal
_audit_creation_method	'MofGen! by Chris Wilmer'
_symmetry_space_group_name_H-M	'P1'
_symmetry_Int_Tables_number	1
_symmetry_cell_setting	triclinic
loop_
_symmetry_equiv_pos_as_xyz
  x,y,z
_cell_length_a	10.654546
_cell_length_b	10.489741
_cell_length_c	9.130313
_cell_angle_alpha	89.999004
_cell_angle_beta	89.998822
_cell_angle_gamma	84.511329
loop_
_atom_site_label
_atom_site_type_symbol
_atom_site_fract_x
_atom_site_fract_y
_atom_site_fract_z
O1	O	1.667920	0.179135	-0.121831
O2	O	1.302449	0.196209	-0.121826
O3	O	1.493501	0.002070	-0.121820
O4	O	1.476869	0.373274	-0.121837
O5	O	1.493499	0.002075	0.121779
O6	O	1.302447	0.196214	0.121772
O7	O	1.667918	0.179140	0.121768
Cu8	Cu	1.485182	0.187678	0.144013
Cu9	Cu	1.485185	0.187672	-0.144071
O10	O	1.476866	0.373279	0.121762
C11	C	1.255650	0.194959	-0.000026
C12	C	1.116204	0.191211	-0.000025
C13	C	1.050710	0.189435	-0.132817
C14	C	0.919688	0.185903	-0.132829
C15	C	0.919666	0.185919	0.132756
C16	C	1.050685	0.189460	0.132766
C17	C	1.050722	0.189420	-0.286151
C18	C	0.919700	0.185888	-0.286162
C19	C	1.492244	-0.045458	-0.000021
C20	C	1.488485	-0.187086	-0.000024
C21	C	1.366925	-0.255166	-0.000033
C22	C	1.424348	-0.347314	0.120073
C23	C	1.424379	-0.347294	-0.120096
C24	C	1.545958	-0.277369	0.120181
C25	C	1.545973	-0.277339	-0.120096
C26	C	1.603484	-0.369460	0.000040
C27	C	1.714718	0.180390	-0.000035
C28	C	1.854163	0.184138	-0.000046
C29	C	1.478124	0.420808	-0.000040
C30	C	1.481882	0.562435	-0.000047
N31	N	1.485190	0.187681	0.346635
N32	N	1.485188	0.187658	-0.346694
C33	C	1.569809	0.101746	0.423290
C34	C	1.569806	0.101731	0.576627
C35	C	1.400559	0.273597	0.576641
C36	C	1.400558	0.273606	0.423307
C37	C	1.667526	0.002524	0.423284
C38	C	1.667523	0.002509	0.576621
H39	H	0.868031	0.276728	-0.333759
O40	O	0.890256	0.078346	-0.356370
C41	C	0.968234	-0.113961	-0.484452
C42	C	1.001757	0.007758	-0.404951
H43	H	1.058360	-0.171051	-0.523779
H44	H	0.916141	-0.175060	-0.406017
H45	H	0.905361	-0.085827	-0.582512
H46	H	1.064668	-0.020260	-0.306895
H47	H	1.053786	0.068827	-0.483483
O48	O	1.776308	0.039435	0.366331
C49	C	1.958276	-0.018214	0.215110
C50	C	1.835117	-0.060195	0.279502
H51	H	2.005872	-0.098751	0.144920
H52	H	1.936094	0.070883	0.144756
H53	H	2.024086	0.004284	0.308085
H54	H	1.769249	-0.082762	0.186621
H55	H	1.857394	-0.149251	0.349895
O56	O	1.247633	-0.196016	-0.000090
C57	C	1.047974	-0.165938	-0.125447
C58	C	1.183022	-0.233028	-0.125555
H59	H	0.995706	-0.195816	-0.226890
H60	H	0.996293	-0.194519	-0.022991
H61	H	1.051977	-0.057727	-0.126420
H62	H	1.179134	-0.341251	-0.124634
H63	H	1.234650	-0.204344	-0.228002
O64	O	1.112587	0.081117	-0.342805
C65	C	1.313495	-0.031605	-0.403840
C66	C	1.243592	0.091103	-0.339617
H67	H	1.419423	-0.023562	-0.401312
H68	H	1.290887	-0.117773	-0.336055
H69	H	1.281906	-0.044287	-0.521806
H70	H	1.275142	0.103907	-0.221662
H71	H	1.266202	0.177207	-0.407508
H72	H	0.866304	0.184494	0.240870
H73	H	1.104004	0.190921	0.240899
H74	H	1.372912	-0.378298	0.221615
O75	O	1.607344	-0.240850	0.241505
C76	C	1.716161	-0.308064	0.463859
C77	C	1.646702	-0.349603	0.326509
H78	H	1.747978	-0.395964	0.532638
H79	H	1.801967	-0.258166	0.429500
H80	H	1.649873	-0.239282	0.531175
H81	H	1.712890	-0.418425	0.259131
H82	H	1.560881	-0.399429	0.360968
H83	H	1.075584	0.279486	-0.345027
O84	O	1.363188	-0.384185	-0.241389
C85	C	1.356647	-0.388571	-0.505137
C86	C	1.426094	-0.346753	-0.367907
H87	H	1.407463	-0.358301	-0.607461
H88	H	1.355209	-0.497102	-0.504651
H89	H	1.255789	-0.341187	-0.504882
H90	H	1.526982	-0.394047	-0.368071
H91	H	1.427430	-0.238212	-0.368445
O92	O	1.318181	0.356933	0.651059
C93	C	1.100479	0.429652	0.697913
C94	C	1.193634	0.335181	0.613574
H95	H	0.999763	0.412117	0.667614
H96	H	1.114902	0.414882	0.820690
H97	H	1.117821	0.531971	0.667795
H98	H	1.176348	0.232825	0.643569
H99	H	1.179189	0.350063	0.490817
H100	H	1.703520	-0.418934	0.000105
H101	H	1.597365	-0.246322	-0.221643
H102	H	1.331643	0.343570	0.360896
H103	H	1.646037	-0.095520	0.381668
H104	H	1.636966	-0.090142	0.624172
H105	H	1.764045	0.024363	0.618235
