data_functionalizedCrystal
_audit_creation_method	'MofGen! by Chris Wilmer'
_symmetry_space_group_name_H-M	'P1'
_symmetry_Int_Tables_number	1
_symmetry_cell_setting	triclinic
loop_
_symmetry_equiv_pos_as_xyz
  x,y,z
_cell_length_a	18.050591
_cell_length_b	18.050589
_cell_length_c	17.077396
_cell_angle_alpha	89.974523
_cell_angle_beta	89.977811
_cell_angle_gamma	90.024669
loop_
_atom_site_label
_atom_site_type_symbol
_atom_site_fract_x
_atom_site_fract_y
_atom_site_fract_z
Zn1	Zn	1.135310	-0.295724	-0.443967
Zn2	Zn	1.385310	-0.045724	-0.193967
Zn3	Zn	1.635310	0.204276	0.056033
Zn4	Zn	1.885310	0.454276	0.306033
Zn5	Zn	1.135216	-0.419923	-0.312710
Zn6	Zn	1.385216	-0.169923	-0.062710
Zn7	Zn	1.635216	0.080077	0.187290
Zn8	Zn	1.885216	0.330077	0.437290
Zn9	Zn	1.011124	-0.295743	-0.312704
Zn10	Zn	1.261124	-0.045743	-0.062704
Zn11	Zn	1.511124	0.204257	0.187296
Zn12	Zn	1.761124	0.454257	0.437296
Zn13	Zn	1.011078	-0.419869	-0.443922
Zn14	Zn	1.261078	-0.169869	-0.193922
Zn15	Zn	1.511078	0.080131	0.056078
Zn16	Zn	1.761078	0.330131	0.306078
O17	O	1.073182	-0.357815	-0.378326
O18	O	1.323182	-0.107815	-0.128326
O19	O	1.573182	0.142185	0.121674
O20	O	1.823182	0.392185	0.371674
O21	O	1.239222	-0.312213	-0.426577
O22	O	1.489222	-0.062213	-0.176577
O23	O	1.739222	0.187787	0.073423
O24	O	1.989222	0.437787	0.323423
O25	O	1.118735	-0.403481	-0.202862
O26	O	1.368735	-0.153481	0.047138
O27	O	1.618735	0.096519	0.297138
O28	O	1.868735	0.346519	0.547138
O29	O	1.027657	-0.191816	-0.330132
O30	O	1.277657	0.058184	-0.080132
O31	O	1.527657	0.308184	0.169868
O32	O	1.777657	0.558184	0.419868
O33	O	1.239153	-0.403462	-0.330143
O34	O	1.489153	-0.153462	-0.080143
O35	O	1.739153	0.096538	0.169857
O36	O	1.989153	0.346538	0.419857
O37	O	1.118896	-0.191802	-0.426571
O38	O	1.368896	0.058198	-0.176571
O39	O	1.618896	0.308198	0.073429
O40	O	1.868896	0.558198	0.323429
O41	O	1.027565	-0.312247	-0.202858
O42	O	1.277565	-0.062247	0.047142
O43	O	1.527565	0.187753	0.297142
O44	O	1.777565	0.437753	0.547142
O45	O	0.907194	-0.312194	-0.330089
O46	O	1.157194	-0.062194	-0.080089
O47	O	1.407194	0.187806	0.169911
O48	O	1.657194	0.437806	0.419911
O49	O	1.027577	-0.403370	-0.553775
O50	O	1.277577	-0.153370	-0.303775
O51	O	1.527577	0.096630	-0.053775
O52	O	1.777577	0.346630	0.196225
O53	O	0.907159	-0.403389	-0.426494
O54	O	1.157159	-0.153389	-0.176494
O55	O	1.407159	0.096611	0.073506
O56	O	1.657159	0.346611	0.323506
O57	O	1.118851	-0.312161	-0.553808
O58	O	1.368851	-0.062161	-0.303808
O59	O	1.618851	0.187839	-0.053808
O60	O	1.868851	0.437839	0.196192
O61	O	1.118689	-0.523840	-0.330099
O62	O	1.368689	-0.273840	-0.080099
O63	O	1.618689	-0.023840	0.169901
O64	O	1.868689	0.226160	0.419901
O65	O	1.027486	-0.523800	-0.426500
O66	O	1.277486	-0.273800	-0.176500
O67	O	1.527486	-0.023800	0.073500
O68	O	1.777486	0.226200	0.323500
C69	C	0.880230	-0.357788	-0.378287
C70	C	1.130230	-0.107788	-0.128287
C71	C	1.380230	0.142212	0.121713
C72	C	1.630230	0.392212	0.371713
C73	C	0.797684	-0.357795	-0.378288
C74	C	1.047684	-0.107795	-0.128288
C75	C	1.297684	0.142205	0.121712
C76	C	1.547684	0.392205	0.371712
C77	C	0.548856	-0.308152	-0.325987
C78	C	0.798856	-0.058152	-0.075987
C79	C	1.048856	0.191848	0.174013
C80	C	1.298856	0.441848	0.424013
C81	C	0.598290	-0.290063	-0.397624
C82	C	0.848290	-0.040063	-0.147624
C83	C	1.098290	0.209937	0.102376
C84	C	1.348290	0.459937	0.352376
C85	C	0.500564	-0.357833	-0.378353
C86	C	0.750564	-0.107833	-0.128353
C87	C	1.000564	0.142167	0.121647
C88	C	1.250564	0.392167	0.371647
C89	C	0.598211	-0.375869	-0.306688
C90	C	0.848211	-0.125869	-0.056688
C91	C	1.098211	0.124131	0.193312
C92	C	1.348211	0.374131	0.443312
C93	C	0.646549	-0.357813	-0.378317
C94	C	0.896549	-0.107813	-0.128317
C95	C	1.146549	0.142187	0.121683
C96	C	1.396549	0.392187	0.371683
C97	C	0.548911	-0.339708	-0.450028
C98	C	0.798911	-0.089708	-0.200028
C99	C	1.048911	0.160292	0.049972
C100	C	1.298911	0.410292	0.299972
C101	C	0.548827	-0.425546	-0.359043
C102	C	0.798827	-0.175546	-0.109043
C103	C	1.048827	0.074454	0.140957
C104	C	1.298827	0.324454	0.390957
C105	C	0.598240	-0.407482	-0.430730
C106	C	0.848240	-0.157482	-0.180730
C107	C	1.098240	0.092518	0.069270
C108	C	1.348240	0.342518	0.319270
C109	C	0.416465	-0.357843	-0.378372
C110	C	0.666465	-0.107843	-0.128372
C111	C	0.916465	0.142157	0.121628
C112	C	1.166465	0.392157	0.371628
C113	C	0.730645	-0.357803	-0.378306
C114	C	0.980645	-0.107803	-0.128306
C115	C	1.230645	0.142197	0.121694
C116	C	1.480645	0.392197	0.371694
C117	C	1.073092	-0.550767	-0.378313
C118	C	1.323092	-0.300767	-0.128313
C119	C	1.573092	-0.050767	0.121687
C120	C	1.823092	0.199233	0.371687
C121	C	1.073122	-0.633313	-0.378333
C122	C	1.323122	-0.383313	-0.128333
C123	C	1.573122	-0.133313	0.121667
C124	C	1.823122	0.116687	0.371667
C125	C	1.023574	-0.832769	-0.430738
C126	C	1.273574	-0.582769	-0.180738
C127	C	1.523574	-0.332769	0.069262
C128	C	1.773574	-0.082769	0.319262
C129	C	1.005473	-0.882210	-0.359107
C130	C	1.255473	-0.632210	-0.109107
C131	C	1.505473	-0.382210	0.140893
C132	C	1.755473	-0.132210	0.390893
C133	C	1.073195	-0.784443	-0.378344
C134	C	1.323195	-0.534443	-0.128344
C135	C	1.573195	-0.284443	0.121656
C136	C	1.823195	-0.034443	0.371656
C137	C	1.091332	-0.882083	-0.449983
C138	C	1.341332	-0.632083	-0.199983
C139	C	1.591332	-0.382083	0.050017
C140	C	1.841332	-0.132083	0.300017
C141	C	1.073264	-0.930428	-0.378360
C142	C	1.323264	-0.680428	-0.128360
C143	C	1.573264	-0.430428	0.121640
C144	C	1.823264	-0.180428	0.371640
C145	C	1.055059	-0.832797	-0.306675
C146	C	1.305059	-0.582797	-0.056675
C147	C	1.555059	-0.332797	0.193325
C148	C	1.805059	-0.082797	0.443325
C149	C	1.140949	-0.832666	-0.397599
C150	C	1.390949	-0.582666	-0.147599
C151	C	1.640949	-0.332666	0.102401
C152	C	1.890949	-0.082666	0.352401
C153	C	1.122874	-0.882085	-0.325919
C154	C	1.372874	-0.632085	-0.075919
C155	C	1.622874	-0.382085	0.174081
C156	C	1.872874	-0.132085	0.424081
C157	C	1.073153	-0.700345	-0.378335
C158	C	1.323153	-0.450345	-0.128335
C159	C	1.573153	-0.200345	0.121665
C160	C	1.823153	0.049655	0.371665
C161	C	1.073306	-1.014524	-0.378360
C162	C	1.323306	-0.764524	-0.128360
C163	C	1.573306	-0.514524	0.121640
C164	C	1.823306	-0.264524	0.371640
C165	C	1.266888	-0.357841	-0.378366
C166	C	1.516888	-0.107841	-0.128366
C167	C	1.766888	0.142159	0.121634
C168	C	2.016888	0.392159	0.371634
C169	C	1.349433	-0.357853	-0.378383
C170	C	1.599433	-0.107853	-0.128383
C171	C	1.849433	0.142147	0.121617
C172	C	2.099433	0.392147	0.371617
C173	C	1.073219	-0.357757	-0.583070
C174	C	1.323219	-0.107757	-0.333070
C175	C	1.573219	0.142243	-0.083070
C176	C	1.823219	0.392243	0.166930
C177	C	1.073235	-0.357733	-0.670320
C178	C	1.323235	-0.107733	-0.420320
C179	C	1.573235	0.142267	-0.170320
C180	C	1.823235	0.392267	0.079680
C181	C	1.073292	-0.164109	-0.378356
C182	C	1.323292	0.085891	-0.128356
C183	C	1.573292	0.335891	0.121644
C184	C	1.823292	0.585891	0.371644
C185	C	1.073339	-0.081563	-0.378369
C186	C	1.323339	0.168437	-0.128369
C187	C	1.573339	0.418437	0.121631
C188	C	1.823339	0.668437	0.371631
C189	C	1.025778	-0.310221	-0.711307
C190	C	1.275778	-0.060221	-0.461307
C191	C	1.525778	0.189779	-0.211307
C192	C	1.775778	0.439779	0.038693
C193	C	1.025790	-0.310204	-0.793288
C194	C	1.275790	-0.060204	-0.543288
C195	C	1.525790	0.189796	-0.293288
C196	C	1.775790	0.439796	-0.043288
C197	C	1.073264	-0.357696	-0.834280
C198	C	1.323264	-0.107696	-0.584280
C199	C	1.573264	0.142304	-0.334280
C200	C	1.823264	0.392304	-0.084280
C201	C	1.120723	-0.405212	-0.793287
C202	C	1.370723	-0.155212	-0.543287
C203	C	1.620723	0.094788	-0.293287
C204	C	1.870723	0.344788	-0.043287
C205	C	1.120707	-0.405232	-0.711308
C206	C	1.370707	-0.155232	-0.461308
C207	C	1.620707	0.094768	-0.211308
C208	C	1.870707	0.344768	0.038692
C209	C	1.120755	-0.405166	-0.964157
C210	C	1.370755	-0.155166	-0.714157
C211	C	1.620755	0.094834	-0.464157
C212	C	1.870755	0.344834	-0.214157
C213	C	1.120773	-0.405145	-1.046141
C214	C	1.370773	-0.155145	-0.796141
C215	C	1.620773	0.094855	-0.546141
C216	C	1.870773	0.344855	-0.296141
C217	C	1.025838	-0.310138	-1.046137
C218	C	1.275838	-0.060138	-0.796137
C219	C	1.525838	0.189862	-0.546137
C220	C	1.775838	0.439862	-0.296137
C221	C	1.025822	-0.310158	-0.964158
C222	C	1.275822	-0.060158	-0.714158
C223	C	1.525822	0.189842	-0.464158
C224	C	1.775822	0.439842	-0.214158
C225	C	1.073283	-0.357674	-0.923171
C226	C	1.323283	-0.107674	-0.673171
C227	C	1.573283	0.142326	-0.423171
C228	C	1.823283	0.392326	-0.173171
C229	C	1.073188	-0.357818	-0.174378
C230	C	1.323188	-0.107818	0.075622
C231	C	1.573188	0.142182	0.325622
C232	C	1.823188	0.392182	0.575622
C233	C	1.073316	-0.357634	-0.087129
C234	C	1.323316	-0.107634	0.162871
C235	C	1.573316	0.142366	0.412871
C236	C	1.823316	0.392366	0.662871
H237	H	0.620004	-0.232788	-0.413955
H238	H	0.870004	0.017212	-0.163955
H239	H	1.120004	0.267212	0.086045
H240	H	1.370004	0.517212	0.336045
H241	H	1.106645	-0.903733	-0.510561
H242	H	1.356645	-0.653733	-0.260561
H243	H	1.606645	-0.403733	-0.010561
H244	H	1.856645	-0.153733	0.239439
H245	H	1.198201	-0.810889	-0.413904
H246	H	1.448201	-0.560889	-0.163904
H247	H	1.698201	-0.310889	0.086096
H248	H	1.948201	-0.060889	0.336096
H249	H	0.527346	-0.324378	-0.510636
H250	H	0.777346	-0.074378	-0.260636
H251	H	1.027346	0.175622	-0.010636
H252	H	1.277346	0.425622	0.239364
H253	H	0.527085	-0.482802	-0.342700
H254	H	0.777085	-0.232802	-0.092700
H255	H	1.027085	0.017198	0.157300
H256	H	1.277085	0.267198	0.407300
H257	H	0.527174	-0.266116	-0.281773
H258	H	0.777174	-0.016116	-0.031773
H259	H	1.027174	0.233884	0.218227
H260	H	1.277174	0.483884	0.468227
H261	H	0.619785	-0.449487	-0.475050
H262	H	0.869785	-0.199487	-0.225050
H263	H	1.119785	0.050513	0.024950
H264	H	1.369785	0.300513	0.274950
H265	H	0.619868	-0.391132	-0.246097
H266	H	0.869868	-0.141132	0.003903
H267	H	1.119868	0.108868	0.253903
H268	H	1.369868	0.358868	0.503903
H269	H	0.981550	-0.811114	-0.474983
H270	H	1.231550	-0.561114	-0.224983
H271	H	1.481550	-0.311114	0.025017
H272	H	1.731550	-0.061114	0.275017
H273	H	0.987123	-0.271544	-0.677938
H274	H	1.237123	-0.021544	-0.427938
H275	H	1.487123	0.228456	-0.177938
H276	H	1.737123	0.478456	0.072062
H277	H	0.948208	-0.903989	-0.342836
H278	H	1.198208	-0.653989	-0.092836
H279	H	1.448208	-0.403989	0.157164
H280	H	1.698208	-0.153989	0.407164
H281	H	1.039679	-0.811237	-0.246081
H282	H	1.289679	-0.561237	0.003919
H283	H	1.539679	-0.311237	0.253919
H284	H	1.789679	-0.061237	0.503919
H285	H	1.164866	-0.903603	-0.281566
H286	H	1.414866	-0.653603	-0.031566
H287	H	1.664866	-0.403603	0.218434
H288	H	1.914866	-0.153603	0.468434
H289	H	0.987142	-0.271519	-0.826656
H290	H	1.237142	-0.021519	-0.576656
H291	H	1.487142	0.228481	-0.326656
H292	H	1.737142	0.478481	-0.076656
H293	H	0.987168	-0.271483	-0.930785
H294	H	1.237168	-0.021483	-0.680785
H295	H	1.487168	0.228517	-0.430785
H296	H	1.737168	0.478517	-0.180785
H297	H	0.987195	-0.271448	-1.079513
H298	H	1.237195	-0.021448	-0.829513
H299	H	1.487195	0.228552	-0.579513
H300	H	1.737195	0.478552	-0.329513
H301	H	1.159431	-0.443816	-1.079515
H302	H	1.409431	-0.193816	-0.829515
H303	H	1.659431	0.056184	-0.579515
H304	H	1.909431	0.306184	-0.329515
H305	H	1.159410	-0.443852	-0.930787
H306	H	1.409410	-0.193852	-0.680787
H307	H	1.659410	0.056148	-0.430787
H308	H	1.909410	0.306148	-0.180787
H309	H	1.159374	-0.443884	-0.826669
H310	H	1.409374	-0.193884	-0.576669
H311	H	1.659374	0.056116	-0.326669
H312	H	1.909374	0.306116	-0.076669
H313	H	1.159357	-0.443915	-0.677937
H314	H	1.409357	-0.193915	-0.427937
H315	H	1.659357	0.056085	-0.177937
H316	H	1.909357	0.306085	0.072063
