data_functionalizedCrystal
_audit_creation_method	'MofGen! by Chris Wilmer'
_symmetry_space_group_name_H-M	'P1'
_symmetry_Int_Tables_number	1
_symmetry_cell_setting	triclinic
loop_
_symmetry_equiv_pos_as_xyz
  x,y,z
_cell_length_a	8.497365
_cell_length_b	12.759401
_cell_length_c	12.759400
_cell_angle_alpha	89.985155
_cell_angle_beta	90.051021
_cell_angle_gamma	89.968799
loop_
_atom_site_label
_atom_site_type_symbol
_atom_site_fract_x
_atom_site_fract_y
_atom_site_fract_z
Zn1	Zn	-0.891905	1.606387	0.417998
Zn2	Zn	-0.628109	1.606243	0.593777
Zn3	Zn	-0.628138	1.430650	0.418113
Zn4	Zn	-0.891847	1.430678	0.593636
O5	O	-0.760000	1.518490	0.505881
O6	O	-0.856924	1.753389	0.441326
O7	O	-0.407351	1.582878	0.570581
O8	O	-0.663164	1.454011	0.271077
O9	O	-0.663114	1.753283	0.570470
O10	O	-0.856952	1.583124	0.270992
O11	O	-0.407372	1.453871	0.441522
O12	O	-0.663108	1.283633	0.441385
O13	O	-1.112618	1.454058	0.570231
O14	O	-0.856854	1.283653	0.570342
O15	O	-1.112660	1.583151	0.441190
O16	O	-0.663059	1.582905	0.740779
O17	O	-0.856826	1.453918	0.740676
C18	C	-0.759979	1.245522	0.505862
C19	C	-0.760007	1.128746	0.505879
C20	C	-0.860724	1.073922	0.573134
C21	C	-0.860741	0.964197	0.573147
C22	C	-0.659311	0.964131	0.438647
C23	C	-0.659303	1.073853	0.438629
C24	C	-0.977013	1.073959	0.650789
C25	C	-0.977030	0.964235	0.650803
C26	C	-0.759967	1.518427	0.778848
C27	C	-0.760006	1.518497	0.895625
C28	C	-0.350120	1.518414	0.505995
C29	C	-0.171477	1.518563	0.505780
C30	C	-0.760023	1.792523	0.505901
C31	C	-0.760032	1.909299	0.505910
C32	C	-0.760068	1.518581	0.231848
C33	C	-0.760096	1.518620	0.115071
C34	C	-0.659223	1.585735	0.950506
C35	C	-0.659271	1.585799	1.060230
C36	C	-0.860891	1.451379	1.060182
C37	C	-0.860849	1.451320	0.950460
C38	C	-0.542815	1.663338	0.950534
C39	C	-0.542863	1.663402	1.060258
H40	H	-0.933040	1.107967	0.728051
H41	H	-0.942928	1.396580	0.905777
H42	H	-0.942995	1.396687	1.104843
C43	C	-1.242106	1.028916	0.603668
C44	C	-1.142019	1.114234	0.621451
H45	H	-1.343967	1.053783	0.585549
H46	H	-1.248594	0.987561	0.665419
H47	H	-1.201646	0.987552	0.547961
H48	H	-1.182474	1.155594	0.677163
H49	H	-1.135537	1.155607	0.559693
C50	C	-0.614044	1.839808	0.995492
C51	C	-0.587120	1.773148	0.910206
H52	H	-0.641405	1.907595	0.970593
H53	H	-0.521359	1.844273	1.036912
H54	H	-0.697650	1.812770	1.036803
H55	H	-0.503505	1.800182	0.868900
H56	H	-0.679816	1.768686	0.868769
H57	H	-0.420664	1.641647	1.090148
H58	H	-0.944097	0.934434	0.732160
C59	C	-0.569865	1.242017	0.378872
C60	C	-0.548606	1.134118	0.364693
H61	H	-0.501528	1.279220	0.333219
H62	H	-0.546576	1.259978	0.449436
H63	H	-0.675908	1.260031	0.363559
H64	H	-0.442565	1.116103	0.380014
H65	H	-0.571884	1.116151	0.294113
C66	C	-0.283170	1.598240	0.986560
C67	C	-0.386069	1.624010	0.904731
H68	H	-0.186400	1.573967	0.958280
H69	H	-0.328773	1.544755	1.028459
H70	H	-0.264531	1.658529	1.028427
H71	H	-0.404716	1.563719	0.862868
H72	H	-0.340456	1.677500	0.862814
H73	H	-0.577323	0.919424	0.383894
H74	H	-1.093179	0.930254	0.621732
H75	H	-0.586727	1.740713	1.094193
