data_functionalizedCrystal
_audit_creation_method	'MofGen! by Chris Wilmer'
_symmetry_space_group_name_H-M	'P1'
_symmetry_Int_Tables_number	1
_symmetry_cell_setting	triclinic
loop_
_symmetry_equiv_pos_as_xyz
  x,y,z
_cell_length_a	9.065215
_cell_length_b	14.853568
_cell_length_c	8.140239
_cell_angle_alpha	89.999137
_cell_angle_beta	89.999419
_cell_angle_gamma	95.675058
loop_
_atom_site_label
_atom_site_type_symbol
_atom_site_fract_x
_atom_site_fract_y
_atom_site_fract_z
O1	O	1.957775	-0.132181	0.136575
O2	O	1.528274	-0.143027	0.136581
O3	O	1.754497	-0.006459	0.136586
O4	O	1.731552	-0.268749	0.136570
O5	O	1.754497	-0.006452	-0.136641
O6	O	1.528275	-0.143020	-0.136646
O7	O	1.957775	-0.132174	-0.136652
Zn8	Zn	1.743025	-0.137596	-0.180030
Zn9	Zn	1.743024	-0.137605	0.179959
O10	O	1.731553	-0.268742	-0.136657
C11	C	1.473308	-0.141982	-0.000031
C12	C	1.309527	-0.138867	-0.000028
C13	C	1.753457	0.027141	-0.000022
C14	C	1.750341	0.127247	-0.000005
C15	C	1.602788	0.540872	-0.000024
C16	C	1.871546	0.560166	-0.000027
C17	C	1.874476	0.466111	-0.000019
C18	C	1.741560	0.409432	-0.000017
C19	C	1.605714	0.446808	-0.000021
C20	C	2.010319	0.428727	-0.000032
C21	C	2.013255	0.334666	-0.000026
C22	C	1.880337	0.277986	-0.000012
C23	C	1.744486	0.315367	-0.000014
C24	C	1.611570	0.258688	-0.000012
C25	C	1.475717	0.296068	-0.000002
C26	C	1.472797	0.390127	-0.000007
C27	C	1.883257	0.183927	-0.000008
C28	C	1.614495	0.164624	-0.000009
C29	C	2.012741	-0.133219	-0.000036
C30	C	2.176522	-0.136334	-0.000028
C31	C	1.732591	0.697658	-0.000039
C32	C	1.735704	0.597551	-0.000026
N33	N	1.743025	-0.137606	0.425642
N34	N	1.743022	-0.137595	0.574288
H35	H	1.506257	0.118481	0.000000
H36	H	1.367497	0.249908	-0.000012
H37	H	2.118532	0.474882	-0.000049
H38	H	1.362192	0.420571	-0.000001
H39	H	1.492180	0.571311	-0.000010
C40	C	2.032679	0.142809	-0.000020
C41	C	2.071661	0.080802	0.141861
C42	C	2.221093	0.039688	0.141851
C43	C	2.331543	0.060580	-0.000039
C44	C	2.292564	0.122590	-0.141930
C45	C	2.143132	0.163704	-0.141920
H46	H	1.989897	0.065334	0.246905
H47	H	2.249947	-0.006216	0.246889
H48	H	2.442161	0.030144	-0.000046
H49	H	2.374328	0.138058	-0.246975
H50	H	2.114278	0.209609	-0.246958
H51	H	2.123874	0.304240	-0.000031
H52	H	1.979760	0.606319	-0.000042
