data_functionalizedCrystal
_audit_creation_method	'MofGen! by Chris Wilmer'
_symmetry_space_group_name_H-M	'P1'
_symmetry_Int_Tables_number	1
_symmetry_cell_setting	triclinic
loop_
_symmetry_equiv_pos_as_xyz
  x,y,z
_cell_length_a	11.792241
_cell_length_b	11.792241
_cell_length_c	15.186229
_cell_angle_alpha	90.012103
_cell_angle_beta	90.003664
_cell_angle_gamma	84.193416
loop_
_atom_site_label
_atom_site_type_symbol
_atom_site_fract_x
_atom_site_fract_y
_atom_site_fract_z
O1	O	1.506913	0.155579	0.073143
O2	O	1.176572	0.171612	0.073164
O3	O	1.349759	-0.001575	0.073147
O4	O	1.333726	0.328766	0.073160
O5	O	1.349735	-0.001603	-0.073310
O6	O	1.176548	0.171584	-0.073293
O7	O	1.506889	0.155551	-0.073314
Zn8	Zn	1.341715	0.163563	-0.096557
Zn9	Zn	1.341746	0.163600	0.096407
O10	O	1.333702	0.328738	-0.073297
C11	C	1.134269	0.170591	-0.000062
C12	C	1.008255	0.167576	-0.000054
C13	C	0.777543	0.162034	-0.000080
C14	C	0.905928	0.165113	-0.000066
C15	C	1.348740	-0.043880	-0.000081
C16	C	1.345726	-0.169894	-0.000080
C17	C	1.340183	-0.400606	-0.000065
C18	C	1.343262	-0.272221	-0.000073
C19	C	1.549192	0.156572	-0.000086
C20	C	1.675206	0.159587	-0.000088
C21	C	1.334721	0.371043	-0.000067
C22	C	1.337736	0.497057	-0.000062
N23	N	1.341702	0.163537	-0.228249
C24	C	1.272481	0.094286	-0.546200
C25	C	1.272471	0.094269	-0.454010
C26	C	1.410997	0.232871	-0.453956
C27	C	1.411012	0.232881	-0.546144
C28	C	1.341747	0.163590	-0.592264
C29	C	1.341723	0.163564	-0.407886
C30	C	1.341713	0.163547	-0.307930
C31	C	1.341759	0.163606	-0.692226
N32	N	1.341769	0.163617	0.228100
H33	H	1.216082	0.037864	-0.583748
H34	H	1.467389	0.289286	-0.416395
Br35	Br	1.505033	0.326935	-0.608665
H36	H	1.216068	0.037834	-0.416509
