data_functionalizedCrystal
_audit_creation_method	'MofGen! by Chris Wilmer'
_symmetry_space_group_name_H-M	'P1'
_symmetry_Int_Tables_number	1
_symmetry_cell_setting	triclinic
loop_
_symmetry_equiv_pos_as_xyz
  x,y,z
_cell_length_a	6.817900
_cell_length_b	15.300992
_cell_length_c	15.301058
_cell_angle_alpha	94.942046
_cell_angle_beta	104.176278
_cell_angle_gamma	104.175078
loop_
_atom_site_label
_atom_site_type_symbol
_atom_site_fract_x
_atom_site_fract_y
_atom_site_fract_z
V1	V	-4.037881	-0.125380	-0.281419
V2	V	-3.537881	0.374620	0.218581
O3	O	-4.021615	0.005386	-0.275783
O4	O	-3.521615	0.505386	0.224217
O5	O	-3.992753	-0.247992	-0.279763
O6	O	-3.492753	0.252008	0.220237
O7	O	-3.992764	-0.123732	-0.404033
O8	O	-3.492764	0.376268	0.095967
O9	O	-4.021603	-0.119735	-0.150652
O10	O	-3.521603	0.380265	0.349348
V11	V	-4.520659	-0.109706	-0.265746
V12	V	-4.020659	0.390294	0.234254
O13	O	-4.300772	-0.159763	-0.315800
O14	O	-3.800772	0.340237	0.184200
O15	O	-4.707965	-0.075323	-0.231365
O16	O	-4.207965	0.424677	0.268635
O17	O	-4.342580	0.012907	-0.267402
O18	O	-3.842580	0.512907	0.232598
O19	O	-4.654322	-0.240471	-0.271382
O20	O	-4.154322	0.259529	0.228618
O21	O	-4.654333	-0.115350	-0.396513
O22	O	-4.154333	0.384650	0.103487
O23	O	-4.342569	-0.111354	-0.143132
O24	O	-3.842569	0.388646	0.356868
C25	C	-3.838443	-0.277874	-0.275393
C26	C	-3.338443	0.222126	0.224607
C27	C	-3.882855	-0.378113	-0.274856
C28	C	-3.382855	0.121887	0.225144
C29	C	-3.860866	-0.412146	-0.192000
C30	C	-3.360866	0.087854	0.308000
C31	C	-3.902616	-0.506332	-0.191499
C32	C	-3.402616	-0.006332	0.308501
C33	C	-3.966338	-0.566484	-0.273855
C34	C	-3.466338	-0.066484	0.226145
C35	C	-3.988333	-0.532446	-0.356718
C36	C	-3.488333	-0.032446	0.143282
C37	C	-3.946599	-0.438261	-0.357218
C38	C	-3.446599	0.061739	0.142782
C39	C	-4.075313	-0.728754	-0.355668
C40	C	-3.575313	-0.228754	0.144332
C41	C	-4.117047	-0.822945	-0.355168
C42	C	-3.617047	-0.322945	0.144832
C43	C	-4.031330	-0.796825	-0.189949
C44	C	-3.531330	-0.296825	0.310051
C45	C	-3.989596	-0.702641	-0.190450
C46	C	-3.489596	-0.202641	0.309550
C47	C	-4.011590	-0.668609	-0.273313
C48	C	-3.511590	-0.168609	0.226687
C49	C	-3.838456	-0.119366	-0.433911
C50	C	-3.338456	0.380634	0.066089
C51	C	-3.882874	-0.118830	-0.534150
C52	C	-3.382874	0.381170	-0.034150
C53	C	-3.946581	-0.201182	-0.594299
C54	C	-3.446581	0.298818	-0.094299
C55	C	-3.988324	-0.200677	-0.688485
C56	C	-3.488324	0.299323	-0.188485
C57	C	-3.966343	-0.117818	-0.722519
C58	C	-3.466343	0.382182	-0.222519
C59	C	-3.902636	-0.035459	-0.662362
C60	C	-3.402636	0.464541	-0.162362
C61	C	-3.860909	-0.035966	-0.568179
C62	C	-3.360909	0.464034	-0.068179
C63	C	-3.989607	-0.034409	-0.858670
C64	C	-3.489607	0.465591	-0.358670
C65	C	-4.031333	-0.033902	-0.952860
C66	C	-3.531333	0.466098	-0.452860
C67	C	-4.117021	-0.199120	-0.978977
C68	C	-3.617021	0.300880	-0.478977
C69	C	-4.075294	-0.199626	-0.884793
C70	C	-3.575294	0.300374	-0.384793
C71	C	-4.011586	-0.117267	-0.824643
C72	C	-3.511586	0.382733	-0.324643
C73	C	-4.160232	0.042784	-0.271769
C74	C	-3.660232	0.542784	0.228231
C75	C	-4.095059	0.143022	-0.272312
C76	C	-3.595059	0.643022	0.227688
C77	C	-4.160219	-0.115722	-0.113250
C78	C	-3.660219	0.384278	0.386750
C79	C	-4.095040	-0.116254	-0.013009
C80	C	-3.595040	0.383746	0.486991
H81	H	-3.808963	-0.363175	-0.124936
H82	H	-3.308963	0.136825	0.375064
C83	C	-3.878413	-0.543763	-0.100350
C84	C	-3.378413	-0.043763	0.399650
N85	N	-3.860181	-0.571954	-0.031693
N86	N	-3.360181	-0.071954	0.468307
H87	H	-4.168892	-0.266179	-1.027956
H88	H	-3.668892	0.233821	-0.527956
H89	H	-3.937698	-0.653667	-0.123388
H90	H	-3.437698	-0.153667	0.376612
H91	H	-4.013415	-0.824538	-0.122479
H92	H	-3.513415	-0.324538	0.377521
C93	C	-4.187168	-0.889111	-0.445764
C94	C	-3.687168	-0.389111	0.054236
N95	N	-4.239991	-0.938948	-0.514003
N96	N	-3.739991	-0.438948	-0.014003
H97	H	-4.093259	-0.701051	-0.423145
H98	H	-3.593259	-0.201051	0.076855
C99	C	-3.878448	0.055687	-0.699802
C100	C	-3.378448	0.555687	-0.199802
N101	N	-3.860215	0.124341	-0.728001
N102	N	-3.360215	0.624341	-0.228001
H103	H	-4.040234	-0.581429	-0.423773
H104	H	-3.540234	-0.081429	0.076227
H105	H	-4.013487	0.033568	-0.980568
H106	H	-3.513487	0.533568	-0.480568
H107	H	-3.937739	0.032657	-0.809697
H108	H	-3.437739	0.532657	-0.309697
H109	H	-3.809036	0.031094	-0.519205
H110	H	-3.309036	0.531094	-0.019205
C111	C	-3.970769	-0.292335	-0.556872
C112	C	-3.470769	0.207665	-0.056872
N113	N	-3.989000	-0.360995	-0.528685
N114	N	-3.489000	0.139005	-0.028685
C115	C	-4.058342	-0.291270	-0.754645
C116	C	-3.558342	0.208730	-0.254645
N117	N	-4.111062	-0.359508	-0.804476
N118	N	-3.611062	0.140492	-0.304476
H119	H	-4.093182	-0.267097	-0.857086
H120	H	-3.593182	0.232903	-0.357086
H121	H	-3.964527	-0.410555	-0.424689
H122	H	-3.464527	0.089445	0.075311
