data_functionalizedCrystal
_audit_creation_method	'MofGen! by Chris Wilmer'
_symmetry_space_group_name_H-M	'P1'
_symmetry_Int_Tables_number	1
_symmetry_cell_setting	triclinic
loop_
_symmetry_equiv_pos_as_xyz
  x,y,z
_cell_length_a	27.731994
_cell_length_b	27.732048
_cell_length_c	7.681481
_cell_angle_alpha	84.300807
_cell_angle_beta	95.680390
_cell_angle_gamma	82.631595
loop_
_atom_site_label
_atom_site_type_symbol
_atom_site_fract_x
_atom_site_fract_y
_atom_site_fract_z
O1	O	0.636347	0.061997	-0.146200
O2	O	0.495548	0.070771	-0.146262
O3	O	0.570321	-0.004015	-0.146196
O4	O	0.561573	0.136783	-0.146267
O5	O	0.579525	-0.013240	0.146670
O6	O	0.504751	0.061546	0.146604
O7	O	0.645550	0.052771	0.146665
Zn8	Zn	0.576612	0.055694	0.193134
Zn9	Zn	0.564486	0.067849	-0.192730
O10	O	0.570777	0.127557	0.146599
C11	C	0.482142	0.065979	0.000164
C12	C	0.428485	0.065437	0.000142
C13	C	0.100785	0.056990	0.159853
C14	C	-0.100872	0.054928	0.159874
O15	O	-0.122678	0.050364	0.295642
N16	N	-0.131104	0.059701	0.000233
C17	C	-0.110918	0.064986	-0.159425
O18	O	-0.141258	0.068994	-0.295209
C19	C	0.090739	0.067045	-0.159444
C20	C	0.120968	0.062277	0.000208
C21	C	0.131014	0.052222	0.319491
C22	C	0.181425	0.052740	0.319484
C23	C	0.201607	0.058027	0.159839
C24	C	0.171379	0.062795	0.000201
C25	C	0.110925	0.072327	-0.319100
C26	C	0.161343	0.072840	-0.319090
C27	C	0.191571	0.068072	-0.159439
C28	C	0.241972	0.068600	-0.159451
N29	N	0.272204	0.063827	0.000190
C30	C	0.252021	0.058541	0.159835
C31	C	-0.216791	0.063906	-0.159403
C32	C	-0.267205	0.063392	-0.159399
C33	C	-0.257155	0.053333	0.159900
C34	C	-0.206741	0.053850	0.159894
C35	C	-0.186559	0.059133	0.000238
C36	C	0.357888	0.059630	0.159808
C37	C	0.408302	0.060150	0.159787
C38	C	0.398249	0.070207	-0.159511
C39	C	0.347838	0.069689	-0.159491
C40	C	0.327659	0.064398	0.000183
O41	O	0.263812	0.073157	-0.295149
O42	O	0.282371	0.054523	0.295598
C43	C	0.050374	0.056472	0.159860
C44	C	0.020146	0.061240	0.000221
C45	C	0.040328	0.066527	-0.159424
C46	C	-0.030268	0.060727	0.000226
C47	C	-0.050451	0.055440	0.159871
C48	C	-0.020219	0.050667	0.319512
C49	C	0.030192	0.051185	0.319505
C50	C	0.010097	0.071300	-0.319065
C51	C	-0.040314	0.070782	-0.319045
C52	C	-0.060496	0.065495	-0.159400
C53	C	0.574739	-0.026635	0.000242
C54	C	0.574187	-0.080290	0.000256
C55	C	0.614890	-0.419110	0.000184
C56	C	0.612838	-0.620769	0.000158
O57	O	0.650058	-0.652030	0.000097
N58	N	0.568501	-0.639883	0.000141
C59	C	0.524673	-0.608580	0.000118
O60	O	0.486914	-0.629464	0.000084
C61	C	0.526725	-0.406922	0.000131
C62	C	0.571066	-0.387811	0.000166
C63	C	0.659226	-0.399999	0.000217
C64	C	0.659739	-0.349588	0.000233
C65	C	0.615915	-0.318288	0.000215
C66	C	0.571579	-0.337399	0.000182
C67	C	0.482898	-0.375618	0.000095
C68	C	0.483415	-0.325201	0.000094
C69	C	0.527755	-0.306090	0.000129
C70	C	0.528267	-0.255688	0.000180
N71	N	0.572604	-0.236574	0.000198
C72	C	0.616428	-0.267873	0.000216
C73	C	0.523599	-0.714453	0.000114
C74	C	0.523086	-0.764868	0.000114
C75	C	0.611251	-0.777053	0.000152
C76	C	0.611764	-0.726639	0.000164
C77	C	0.567936	-0.695339	0.000132
C78	C	0.617502	-0.162006	0.000251
C79	C	0.618011	-0.111590	0.000274
C80	C	0.529846	-0.099408	0.000227
C81	C	0.529337	-0.149820	0.000213
C82	C	0.573169	-0.181118	0.000219
O83	O	0.491067	-0.224398	0.000221
O84	O	0.654180	-0.246978	0.000210
C85	C	0.614377	-0.469522	0.000168
C86	C	0.570040	-0.488633	0.000134
C87	C	0.526216	-0.457334	0.000117
C88	C	0.569527	-0.539048	0.000134
C89	C	0.613351	-0.570347	0.000152
C90	C	0.657688	-0.551233	0.000169
C91	C	0.658201	-0.500822	0.000185
C92	C	0.481879	-0.476448	0.000099
C93	C	0.481370	-0.526860	0.000085
C94	C	0.525194	-0.558160	0.000102
C95	C	0.658956	0.057564	0.000236
C96	C	0.712613	0.058106	0.000246
C97	C	0.566358	0.150177	0.000158
C98	C	0.566910	0.203833	0.000132
N99	N	0.584891	0.047398	0.456475
N100	N	0.556210	0.076141	-0.456071
H101	H	0.177771	0.077143	-0.449105
H102	H	0.432913	0.056269	0.289800
H103	H	0.653193	-0.187483	0.000248
H104	H	0.446192	-0.450968	0.000081
H105	H	0.614174	0.018061	0.531707
H106	H	0.086321	0.076209	-0.449105
H107	H	0.341464	0.055326	0.289830
O108	O	0.059544	0.046462	0.474638
C109	C	0.056058	0.001400	0.571788
H110	H	0.043313	-0.025070	0.478381
H111	H	0.093432	-0.014601	0.644230
H112	H	0.028612	0.007434	0.671311
H113	H	0.694915	-0.425479	0.000225
H114	H	0.323223	0.073580	-0.289492
O115	O	0.521220	0.111115	0.454393
C116	C	0.474811	0.102253	0.499291
H117	H	0.479163	0.079439	0.633205
H118	H	0.450970	0.138594	0.505396
H119	H	0.456772	0.081562	0.395581
H120	H	0.647870	-0.711082	0.000192
H121	H	0.446791	-0.391169	0.000056
O122	O	0.210777	0.048015	0.474619
C123	C	0.207288	0.002952	0.571760
H124	H	0.194542	-0.023516	0.478345
H125	H	0.244661	-0.013052	0.644203
H126	H	0.179841	0.008986	0.671281
O127	O	0.479992	-0.783396	-0.000214
C128	C	0.448533	-0.762573	-0.151884
H129	H	0.471137	-0.748939	-0.257881
H130	H	0.426596	-0.791353	-0.202812
H131	H	0.422425	-0.730588	-0.117605
H132	H	-0.182132	0.049968	0.289896
O133	O	-0.276774	0.048107	0.314940
C134	C	-0.299853	0.005633	0.324455
H135	H	-0.283459	-0.020623	0.233857
H136	H	-0.294040	-0.012887	0.465649
H137	H	-0.340719	0.016063	0.281555
H138	H	0.414690	0.074513	-0.289490
H139	H	0.114587	0.047916	0.449501
O140	O	0.700306	-0.581576	0.000258
C141	C	0.739553	-0.553902	0.000233
H142	H	0.728746	-0.517927	0.055689
H143	H	0.772906	-0.575419	0.085259
H144	H	0.748744	-0.545981	-0.140266
O145	O	-0.296526	0.068099	-0.314597
C146	C	-0.293061	0.113170	-0.411720
H147	H	-0.256961	0.126077	-0.366322
H148	H	-0.294623	0.108368	-0.557762
H149	H	-0.324795	0.141510	-0.389617
O150	O	-0.197144	0.069105	-0.314394
C151	C	-0.174086	0.111592	-0.324002
H152	H	-0.164096	0.121263	-0.185401
H153	H	-0.139463	0.104666	-0.391598
H154	H	-0.200054	0.143203	-0.402775
H155	H	-0.064923	0.074669	-0.449062
O156	O	-0.039840	0.045445	0.474549
C157	C	-0.062917	0.002970	0.484080
H158	H	-0.046521	-0.023290	0.393498
H159	H	-0.057107	-0.015545	0.625281
H160	H	-0.103783	0.013398	0.441169
H161	H	0.026524	0.075604	-0.449070
H162	H	0.695845	-0.334032	0.000255
O163	O	0.440797	-0.294868	0.000141
C164	C	0.401555	-0.322550	0.000061
H165	H	0.415856	-0.362023	0.055509
H166	H	0.373541	-0.306406	0.085067
H167	H	0.383534	-0.321606	-0.140454
H168	H	0.654120	-0.096033	0.000307
H169	H	0.646934	-0.802547	0.000167
H170	H	0.487908	-0.688973	0.000089
H171	H	0.493233	-0.165382	0.000233
O172	O	0.487320	-0.068927	0.000130
C173	C	0.497287	-0.020336	0.000186
H174	H	0.533502	-0.016945	-0.055227
H175	H	0.466662	0.005402	-0.084863
H176	H	0.499756	-0.010172	0.140688
H177	H	0.694307	-0.485266	0.000214
H178	H	0.445261	-0.542415	0.000071
