data_functionalizedCrystal
_audit_creation_method	'MofGen! by Chris Wilmer'
_symmetry_space_group_name_H-M	'P1'
_symmetry_Int_Tables_number	1
_symmetry_cell_setting	triclinic
loop_
_symmetry_equiv_pos_as_xyz
  x,y,z
_cell_length_a	17.000383
_cell_length_b	17.038272
_cell_length_c	14.750779
_cell_angle_alpha	76.426773
_cell_angle_beta	101.619729
_cell_angle_gamma	83.355929
loop_
_atom_site_label
_atom_site_type_symbol
_atom_site_fract_x
_atom_site_fract_y
_atom_site_fract_z
O1	O	1.041932	0.046134	-0.079892
O2	O	1.541932	0.546134	0.420108
O3	O	0.812115	0.074374	-0.079879
O4	O	1.312115	0.574374	0.420121
O5	O	0.925659	-0.053470	-0.079878
O6	O	1.425659	0.446530	0.420122
O7	O	0.928388	0.173977	-0.079893
O8	O	1.428388	0.673977	0.420107
O9	O	0.957757	-0.089606	0.079773
O10	O	1.457757	0.410394	0.579773
O11	O	0.844212	0.038238	0.079771
O12	O	1.344212	0.538238	0.579771
O13	O	1.074030	0.009998	0.079759
O14	O	1.574030	0.509998	0.579759
Zn15	Zn	0.964217	0.018380	0.105113
Zn16	Zn	1.464217	0.518380	0.605113
Zn17	Zn	0.921927	0.065991	-0.105234
Zn18	Zn	1.421927	0.565991	0.394766
O19	O	0.960485	0.137841	0.079758
O20	O	1.460485	0.637841	0.579758
C21	C	0.798613	0.057822	-0.000052
C22	C	1.298613	0.557822	0.499948
C23	C	0.710561	0.062331	-0.000048
C24	C	1.210561	0.562331	0.499952
C25	C	0.212309	0.091464	-0.000085
C26	C	0.712309	0.591464	0.499915
C27	C	0.295044	0.087220	-0.000084
C28	C	0.795044	0.587220	0.499916
C29	C	0.341053	0.013551	-0.000072
C30	C	0.841053	0.513551	0.499928
C31	C	0.304321	-0.055876	-0.000071
C32	C	0.804321	0.444124	0.499929
C33	C	0.221585	-0.051629	-0.000079
C34	C	0.721585	0.448371	0.499921
C35	C	0.591093	-0.002849	-0.000054
C36	C	1.091093	0.497151	0.499946
C37	C	0.673834	-0.007091	-0.000043
C38	C	1.173834	0.492909	0.499957
C39	C	0.664552	0.136006	-0.000059
C40	C	1.164552	0.636006	0.499941
C41	C	0.581816	0.140245	-0.000061
C42	C	1.081816	0.640245	0.499939
C43	C	0.545090	0.070819	-0.000065
C44	C	1.045090	0.570819	0.499935
C45	C	0.425623	0.009210	-0.000068
C46	C	0.925623	0.509210	0.499932
C47	C	0.460520	0.075162	-0.000075
C48	C	0.960520	0.575162	0.499925
C49	C	0.939223	-0.100496	-0.000052
C50	C	1.439223	0.399504	0.499948
C51	C	0.931810	-0.186781	-0.000052
C52	C	1.431810	0.313219	0.499948
C53	C	0.999868	-0.241555	-0.000055
C54	C	1.499868	0.258445	0.499945
C55	C	0.992897	-0.322627	-0.000064
C56	C	1.492897	0.177373	0.499936
C57	C	0.917868	-0.348924	-0.000063
C58	C	1.417868	0.151076	0.499937
C59	C	0.849804	-0.294142	-0.000063
C60	C	1.349804	0.205858	0.499937
C61	C	0.856775	-0.213071	-0.000061
C62	C	1.356775	0.286929	0.499939
C63	C	0.893240	-0.592992	-0.000075
C64	C	1.393240	-0.092992	0.499925
C65	C	0.886274	-0.674071	-0.000074
C66	C	1.386274	-0.174071	0.499926
C67	C	1.029367	-0.702550	-0.000076
C68	C	1.529367	-0.202550	0.499924
C69	C	1.036333	-0.621477	-0.000068
C70	C	1.536333	-0.121477	0.499932
C71	C	0.968268	-0.566702	-0.000074
C72	C	1.468268	-0.066702	0.499926
C73	C	0.910741	-0.431792	-0.000069
C74	C	1.410741	0.068208	0.499931
C75	C	0.975395	-0.483833	-0.000075
C76	C	1.475395	0.016167	0.499925
C77	C	1.087531	0.026550	-0.000070
C78	C	1.587531	0.526550	0.499930
C79	C	1.175582	0.022042	-0.000081
C80	C	1.675582	0.522042	0.499919
C81	C	0.946921	0.184868	-0.000070
C82	C	1.446921	0.684868	0.499930
C83	C	0.954332	0.271155	-0.000076
C84	C	1.454332	0.771155	0.499924
N85	N	0.993085	-0.014114	0.248669
N86	N	1.493085	0.485886	0.748669
N87	N	0.893065	0.098479	-0.248790
N88	N	1.393065	0.598479	0.251210
C89	C	0.812439	0.189196	0.600485
C90	C	1.312439	0.689196	1.100485
C91	C	0.832674	0.166431	0.700984
C92	C	1.332674	0.666431	1.200984
C93	C	0.933242	0.053263	0.700949
C94	C	1.433242	0.553263	1.200949
C95	C	0.913013	0.076016	0.600447
C96	C	1.413013	0.576016	1.100447
C97	C	0.852612	0.143983	0.550223
C98	C	1.352612	0.643983	1.050223
C99	C	0.953186	0.030804	0.550185
C100	C	1.453186	0.530804	1.050185
C101	C	0.932961	0.053558	0.449693
C102	C	1.432961	0.553558	0.949693
C103	C	0.872564	0.121524	0.399462
C104	C	1.372564	0.621524	0.899462
C105	C	0.832387	0.166738	0.449731
C106	C	1.332387	0.666738	0.949731
C107	C	1.013591	-0.037160	0.600411
C108	C	1.513591	0.462840	1.100411
C109	C	1.053763	-0.082373	0.550149
C110	C	1.553763	0.417627	1.050149
C111	C	1.033535	-0.059622	0.449655
C112	C	1.533535	0.440378	0.949655
C113	C	0.973137	0.008344	0.399424
C114	C	1.473137	0.508344	0.899424
C115	C	1.073711	-0.104836	0.399386
C116	C	1.573711	0.395164	0.899386
C117	C	1.053487	-0.082081	0.298893
C118	C	1.553487	0.417919	0.798893
C119	C	0.952913	0.031098	0.298931
C120	C	1.452913	0.531098	0.798931
H121	H	0.711292	-0.067083	-0.000038
H122	H	1.211292	0.432917	0.499962
H123	H	0.174855	0.151452	-0.000088
H124	H	0.674855	0.651452	0.499912
Cl125	Cl	0.771212	-0.144210	-0.000062
Cl126	Cl	1.271212	0.355790	0.499938
Cl127	Cl	0.544928	-0.090122	-0.000081
Cl128	Cl	1.044928	0.409878	0.499919
Cl129	Cl	1.069712	-0.450772	-0.000081
Cl130	Cl	1.569712	0.049228	0.499919
Cl131	Cl	1.009175	-0.032178	0.764094
Cl132	Cl	1.509175	0.467822	1.264094
Cl133	Cl	0.782164	0.223281	0.764164
Cl134	Cl	1.282164	0.723281	1.264164
Cl135	Cl	0.816420	-0.464857	-0.000073
Cl136	Cl	1.316420	0.035143	0.499927
H137	H	1.048317	-0.367222	-0.000064
H138	H	1.548317	0.132778	0.499936
Cl139	Cl	0.341210	0.174499	-0.000095
Cl140	Cl	0.841210	0.674499	0.499905
H141	H	0.837816	-0.548403	-0.000079
H142	H	1.337816	-0.048403	0.499921
H143	H	0.191683	-0.108160	-0.000077
H144	H	0.691683	0.391840	0.499923
H145	H	0.825177	-0.695481	-0.000058
H146	H	1.325177	-0.195481	0.499942
Cl147	Cl	0.755479	-0.327198	-0.000074
Cl148	Cl	1.255479	0.172802	0.499926
H149	H	0.903722	0.086439	0.258037
H150	H	1.403722	0.586439	0.758037
Cl151	Cl	1.149651	-0.190270	0.462534
Cl152	Cl	1.649651	0.309730	0.962534
Cl153	Cl	1.130652	-0.588418	-0.000100
Cl154	Cl	1.630652	-0.088418	0.499900
Cl155	Cl	0.402678	0.167772	-0.000097
Cl156	Cl	0.902678	0.667772	0.499903
Cl157	Cl	0.362160	-0.148488	-0.000058
Cl158	Cl	0.862160	0.351512	0.499942
Cl159	Cl	0.736495	0.274636	0.537343
Cl160	Cl	1.236495	0.774636	1.037343
H161	H	0.544360	0.200234	-0.000074
H162	H	1.044360	0.700234	0.499926
H163	H	0.856100	0.140052	0.317634
H164	H	1.356100	0.640052	0.817634
Cl165	Cl	0.483472	-0.083402	-0.000042
Cl166	Cl	0.983472	0.416598	0.499958
H167	H	0.783196	0.222079	0.408836
H168	H	1.283196	0.722079	0.908836
Cl169	Cl	1.114928	-0.771414	-0.000072
Cl170	Cl	1.614928	-0.271414	0.499928
Cl171	Cl	1.039018	-0.065759	0.726747
Cl172	Cl	1.539018	0.434241	1.226747
Cl173	Cl	1.103994	-0.138920	0.235705
Cl174	Cl	1.603994	0.361080	0.735705
H175	H	0.694463	0.192529	-0.000057
H176	H	1.194463	0.692529	0.499943
H177	H	1.102945	-0.137711	0.591053
H178	H	1.602945	0.362289	1.091053
H179	H	1.060966	-0.220153	-0.000050
H180	H	1.560966	0.279847	0.499950
