data_functionalizedCrystal
_audit_creation_method	'MofGen! by Chris Wilmer'
_symmetry_space_group_name_H-M	'P1'
_symmetry_Int_Tables_number	1
_symmetry_cell_setting	triclinic
loop_
_symmetry_equiv_pos_as_xyz
  x,y,z
_cell_length_a	27.732048
_cell_length_b	19.288865
_cell_length_c	17.766277
_cell_angle_alpha	89.988397
_cell_angle_beta	89.996131
_cell_angle_gamma	82.889452
loop_
_atom_site_label
_atom_site_type_symbol
_atom_site_fract_x
_atom_site_fract_y
_atom_site_fract_z
O1	O	0.641180	0.082649	-0.062506
O2	O	0.500425	0.095216	-0.062530
O3	O	0.574870	-0.012223	-0.062502
O4	O	0.566735	0.190088	-0.062533
O5	O	0.574856	-0.012228	0.062686
O6	O	0.500412	0.095211	0.062659
O7	O	0.641167	0.082644	0.062683
Cu8	Cu	0.570788	0.088927	0.074102
Cu9	Cu	0.570804	0.088933	-0.073948
O10	O	0.566722	0.190083	0.062655
C11	C	0.574601	-0.038100	0.000094
C12	C	0.573816	-0.115199	0.000101
C13	C	0.482410	0.094950	0.000062
C14	C	0.428753	0.094155	0.000053
C15	C	0.617496	-0.160168	0.000112
C16	C	0.616758	-0.232610	0.000100
C17	C	0.572337	-0.260081	0.000092
C18	C	0.528650	-0.215102	0.000077
C19	C	0.529390	-0.142661	0.000081
C20	C	0.537412	-0.368152	0.043937
C21	C	0.536674	-0.440592	0.043937
C22	C	0.570054	-0.483512	0.000075
C23	C	0.604181	-0.453985	-0.043778
C24	C	0.604920	-0.381544	-0.043774
C25	C	0.571530	-0.338630	0.000087
C26	C	0.612938	-0.607032	0.000072
C27	C	0.612198	-0.679475	0.000055
C28	C	0.524089	-0.661966	0.000039
C29	C	0.524830	-0.589524	0.000048
C30	C	0.569256	-0.562062	0.000068
C31	C	0.090115	0.152644	0.000077
C32	C	-0.111554	0.149697	0.000084
O33	O	-0.142648	0.203181	0.000108
N34	N	-0.130870	0.085990	0.000093
C35	C	-0.099766	0.023015	0.000104
O36	O	-0.120823	-0.031239	0.000119
C37	C	0.101902	0.025963	0.000102
C38	C	0.121215	0.089674	0.000086
C39	C	0.109428	0.216350	0.000062
C40	C	0.159843	0.217086	0.000056
C41	C	0.190943	0.154116	0.000065
C42	C	0.171629	0.090410	0.000080
C43	C	0.133005	-0.037011	0.000119
C44	C	0.183425	-0.036268	0.000121
C45	C	0.202738	0.027443	0.000105
C46	C	0.253144	0.028177	0.000084
N47	N	0.272460	0.091884	0.000075
C48	C	0.241360	0.154853	0.000066
C49	C	-0.205644	0.021472	0.000104
C50	C	-0.256061	0.020735	0.000103
C51	C	-0.267846	0.147417	0.000084
C52	C	-0.217428	0.148153	0.000080
C53	C	-0.186328	0.085179	0.000095
C54	C	0.347234	0.156395	0.000053
C55	C	0.397653	0.157125	0.000044
C56	C	0.409433	0.030444	0.000067
C57	C	0.359018	0.029713	0.000072
C58	C	0.327919	0.092694	0.000067
O59	O	0.284266	-0.025278	0.000068
O60	O	0.262426	0.209100	0.000068
C61	C	0.039701	0.151908	0.000083
C62	C	0.020387	0.088202	0.000098
C63	C	0.051487	0.025232	0.000107
C64	C	-0.030030	0.087465	0.000097
C65	C	-0.061130	0.150435	0.000088
C66	C	-0.041814	0.214142	0.000079
C67	C	0.008600	0.214878	0.000073
C68	C	0.032171	-0.038475	0.000116
C69	C	-0.018244	-0.039206	0.000121
C70	C	-0.049344	0.023764	0.000112
C71	C	0.659181	0.082910	0.000090
C72	C	0.712839	0.083705	0.000093
C73	C	0.566990	0.215961	0.000057
C74	C	0.567776	0.293059	0.000046
N75	N	0.570781	0.088922	0.178232
N76	N	0.570815	0.088933	-0.178079
C77	C	0.603756	0.041371	0.217631
C78	C	0.603758	0.041368	0.296433
C79	C	0.570791	0.088927	0.335832
C80	C	0.537810	0.136482	0.296424
C81	C	0.537805	0.136479	0.217624
C82	C	0.564320	0.152255	0.460660
C83	C	0.564328	0.152259	0.539459
C84	C	0.570804	0.088936	0.578879
C85	C	0.577281	0.025606	0.539490
C86	C	0.577276	0.025603	0.460690
C87	C	0.570793	0.088935	0.421278
C88	C	0.603784	0.041377	0.703724
C89	C	0.603783	0.041373	0.782527
C90	C	0.537837	0.136493	0.782517
C91	C	0.537835	0.136492	0.703715
C92	C	0.570811	0.088934	0.664323
H93	H	0.653672	-0.137813	0.000126
H94	H	0.434764	-0.020825	0.000071
H95	H	0.084111	0.267630	0.000057
O96	O	0.635814	-0.004730	0.334795
C97	C	0.701885	-0.020156	0.423711
C98	C	0.665602	0.032125	0.380332
H99	H	0.725985	0.009621	0.460526
H100	H	0.681126	-0.054643	0.460671
H101	H	0.725428	-0.054159	0.382002
H102	H	0.642050	0.066174	0.421987
H103	H	0.686391	0.066564	0.343361
O104	O	-0.274738	-0.041215	0.000143
C105	C	-0.257715	-0.166787	0.000120
C106	C	-0.236501	-0.096676	0.000087
H107	H	-0.226810	-0.211645	0.000059
H108	H	-0.281007	-0.170352	0.052524
H109	H	-0.281038	-0.170263	-0.052258
H110	H	-0.213155	-0.093152	0.052429
H111	H	-0.213236	-0.093140	-0.052352
H112	H	-0.293177	0.198689	0.000077
H113	H	0.343293	-0.022166	0.000074
H114	H	-0.033963	-0.091091	0.000128
H115	H	0.493818	-0.106047	0.000072
O116	O	-0.175389	-0.039661	0.000011
C117	C	-0.111654	-0.112377	-0.064867
C118	C	-0.145879	-0.043112	-0.064841
H119	H	-0.087794	-0.115197	-0.117302
H120	H	-0.087723	-0.115224	-0.012512
H121	H	-0.134137	-0.158018	-0.064827
H122	H	-0.123435	0.002568	-0.064907
H123	H	-0.169812	-0.040327	-0.117191
H124	H	0.321918	0.207680	0.000052
O125	O	0.637999	-0.352772	-0.086422
C126	C	0.651094	-0.273427	-0.187046
C127	C	0.613583	-0.305946	-0.138785
H128	H	0.631368	-0.235573	-0.229403
H129	H	0.674854	-0.244124	-0.149136
H130	H	0.674835	-0.316557	-0.218362
H131	H	0.589809	-0.262860	-0.107461
H132	H	0.589857	-0.335266	-0.176733
H133	H	0.492482	-0.237473	0.000068
H134	H	0.508885	-0.464627	0.079640
H135	H	0.647770	-0.716089	0.000060
O136	O	-0.198750	0.210103	0.000102
C137	C	-0.215774	0.335675	0.000035
C138	C	-0.236987	0.265564	0.000025
H139	H	-0.246678	0.380533	-0.000044
H140	H	-0.192487	0.339237	0.052440
H141	H	-0.192444	0.339154	-0.052343
H142	H	-0.260338	0.262037	0.052367
H143	H	-0.260247	0.262031	-0.052415
H144	H	0.487920	-0.684331	0.000029
H145	H	0.559057	0.203826	0.571523
O146	O	0.635763	-0.004898	0.665462
C147	C	0.664389	-0.125938	0.641327
C148	C	0.628138	-0.073622	0.684705
H149	H	0.658243	-0.181513	0.656880
H150	H	0.658709	-0.117799	0.578235
H151	H	0.703079	-0.117226	0.656791
H152	H	0.589433	-0.082302	0.669304
H153	H	0.633860	-0.081774	0.747785
O154	O	0.505745	0.182625	0.820745
C155	C	0.421611	0.224187	0.844827
C156	C	0.457904	0.171894	0.801496
H157	H	0.382924	0.215539	0.829268
H158	H	0.427234	0.216023	0.907926
H159	H	0.427811	0.279753	0.829326
H160	H	0.451727	0.116308	0.816934
H161	H	0.452272	0.180120	0.738408
O162	O	0.656079	-0.580318	0.000214
C163	C	0.708034	-0.508678	0.065061
C164	C	0.659164	-0.538894	0.065004
H165	H	0.710540	-0.475168	0.117430
H166	H	0.739147	-0.553241	0.065108
H167	H	0.710580	-0.475217	0.012650
H168	H	0.656571	-0.572347	0.117406
H169	H	0.628075	-0.494298	0.064918
O170	O	0.583484	-0.035873	0.422353
C171	C	0.549533	-0.110797	0.333473
C172	C	0.542455	-0.041142	0.376823
H173	H	0.516363	-0.115086	0.296663
H174	H	0.583286	-0.112859	0.296511
H175	H	0.554180	-0.156038	0.375201
H176	H	0.537788	0.004139	0.335150
H177	H	0.508711	-0.039141	0.413797
H178	H	0.510986	0.175215	0.671634
O179	O	0.416332	0.219078	0.000064
C180	C	0.399313	0.344651	0.000000
C181	C	0.378096	0.274542	-0.000006
H182	H	0.368410	0.389511	-0.000072
H183	H	0.422604	0.348210	0.052400
H184	H	0.422638	0.348129	-0.052382
H185	H	0.354749	0.271016	0.052340
H186	H	0.354833	0.271012	-0.052441
O187	O	0.114333	-0.098962	0.000175
C188	C	0.131365	-0.224533	0.000175
C189	C	0.152574	-0.154418	0.000125
H190	H	0.162272	-0.269388	0.000118
H191	H	0.108075	-0.228093	0.052583
H192	H	0.108040	-0.228021	-0.052200
H193	H	0.175921	-0.150883	0.052464
H194	H	0.175836	-0.150888	-0.052318
O195	O	0.505766	0.182587	0.334777
C196	C	0.439711	0.198026	0.423728
C197	C	0.475984	0.145738	0.380354
H198	H	0.415615	0.168254	0.460575
H199	H	0.460478	0.232513	0.460654
H200	H	0.416162	0.232027	0.382015
H201	H	0.499542	0.111690	0.422012
H202	H	0.455186	0.111299	0.343416
H203	H	0.652330	-0.269231	0.000106
H204	H	0.208745	-0.087550	0.000134
O205	O	0.636543	-0.495684	-0.086483
C206	C	0.647978	-0.579906	-0.187065
C207	C	0.611276	-0.532701	-0.138772
H208	H	0.627563	-0.609858	-0.229341
H209	H	0.672487	-0.546387	-0.218460
H210	H	0.671060	-0.618459	-0.149101
H211	H	0.588162	-0.494141	-0.176681
H212	H	0.586801	-0.566264	-0.107369
O213	O	0.504960	-0.326566	0.086612
C214	C	0.437903	-0.320923	0.173571
C215	C	0.474634	-0.368100	0.125298
H216	H	0.413368	-0.354483	0.204850
H217	H	0.458272	-0.291013	0.215949
H218	H	0.414854	-0.282335	0.135605
H219	H	0.497693	-0.406729	0.163205
H220	H	0.454235	-0.397961	0.082915
O221	O	0.482366	-0.545908	-0.000053
C222	C	0.407306	-0.508737	-0.064942
C223	C	0.455376	-0.558181	-0.064909
H224	H	0.385475	-0.518632	-0.117381
H225	H	0.385398	-0.518683	-0.012591
H226	H	0.415475	-0.452249	-0.064901
H227	H	0.447250	-0.614687	-0.064978
H228	H	0.477269	-0.548174	-0.117256
H229	H	0.024320	0.266758	0.000061
O230	O	0.178519	0.279037	0.000082
C231	C	0.161491	0.404608	0.000030
C232	C	0.140280	0.334495	0.000012
H233	H	0.130584	0.449464	-0.000043
H234	H	0.184778	0.408167	0.052434
H235	H	0.184818	0.408095	-0.052348
H236	H	0.116930	0.330961	0.052355
H237	H	0.117020	0.330966	-0.052427
O238	O	-0.072079	0.275266	-0.000030
C239	C	-0.135829	0.347966	-0.064911
C240	C	-0.101587	0.278715	-0.064878
H241	H	-0.159688	0.350783	-0.117343
H242	H	-0.159760	0.350787	-0.012554
H243	H	-0.113359	0.393620	-0.064883
H244	H	-0.124019	0.233021	-0.064933
H245	H	-0.077654	0.275955	-0.117231
O246	O	0.635802	-0.004897	0.179484
C247	C	0.701231	-0.099212	0.187814
C248	C	0.664959	-0.046861	0.231111
H249	H	0.724820	-0.133144	0.229536
H250	H	0.680463	-0.133758	0.150960
H251	H	0.725286	-0.069450	0.150885
H252	H	0.640894	-0.076566	0.268082
H253	H	0.685757	-0.012316	0.267918
O254	O	0.558050	0.213836	0.422488
C255	C	0.545192	0.339458	0.430774
C256	C	0.552296	0.269774	0.474095
H257	H	0.540528	0.384702	0.472479
H258	H	0.578330	0.343800	0.393897
H259	H	0.511423	0.341457	0.393864
H260	H	0.586048	0.267728	0.511046
H261	H	0.519134	0.265460	0.510925
H262	H	0.510952	0.175202	0.185544
H263	H	0.057489	-0.089753	0.000125
H264	H	0.582554	-0.025958	0.571584
H265	H	0.630634	0.002648	0.814606
