data_functionalizedCrystal
_audit_creation_method	'MofGen! by Chris Wilmer'
_symmetry_space_group_name_H-M	'P1'
_symmetry_Int_Tables_number	1
_symmetry_cell_setting	triclinic
loop_
_symmetry_equiv_pos_as_xyz
  x,y,z
_cell_length_a	12.811438
_cell_length_b	11.892095
_cell_length_c	12.837942
_cell_angle_alpha	94.302569
_cell_angle_beta	90.586849
_cell_angle_gamma	88.501043
loop_
_atom_site_label
_atom_site_type_symbol
_atom_site_fract_x
_atom_site_fract_y
_atom_site_fract_z
O1	O	1.403420	-0.049889	-0.143206
O2	O	1.903420	0.450111	0.356794
O3	O	1.101352	-0.018916	-0.156216
O4	O	1.601352	0.481084	0.343784
O5	O	1.245687	-0.033723	0.001268
O6	O	1.745687	0.466277	0.501268
O7	O	1.259084	-0.035083	-0.300691
O8	O	1.759084	0.464917	0.199309
O9	O	1.233651	-0.220496	-0.011842
O10	O	1.733651	0.279504	0.488158
O11	O	1.089315	-0.205689	-0.169327
O12	O	1.589315	0.294311	0.330673
O13	O	1.391383	-0.236662	-0.156317
O14	O	1.891383	0.263338	0.343683
Zn15	Zn	1.238438	-0.250830	-0.164903
Zn16	Zn	1.738438	0.249170	0.335097
Zn17	Zn	1.254297	-0.004749	-0.147630
Zn18	Zn	1.754297	0.495251	0.352370
O19	O	1.247048	-0.221855	-0.313801
O20	O	1.747048	0.278145	0.186199
C21	C	1.056401	-0.108311	-0.161639
C22	C	1.556401	0.391689	0.338361
C23	C	0.940395	-0.096416	-0.158254
C24	C	1.440395	0.403584	0.341746
C25	C	0.783448	0.022146	-0.146337
C26	C	1.283448	0.522146	0.353663
C27	C	0.892446	0.010980	-0.149516
C28	C	1.392446	0.510980	0.350484
C29	C	0.879338	-0.192652	-0.163810
C30	C	1.379338	0.307348	0.336190
C31	C	0.770340	-0.181485	-0.160630
C32	C	1.270340	0.318515	0.339370
C33	C	0.722398	-0.074083	-0.151895
C34	C	1.222398	0.425917	0.348105
C35	C	0.613397	-0.062917	-0.148723
C36	C	1.113397	0.437083	0.351277
C37	C	0.600292	-0.266547	-0.163009
C38	C	1.100292	0.233453	0.336991
C39	C	0.709290	-0.277714	-0.166188
C40	C	1.209290	0.222286	0.333812
N41	N	1.227623	-0.418774	-0.176691
N42	N	1.727623	0.081226	0.323309
C43	C	1.340373	-0.666989	-0.053747
C44	C	1.840373	-0.166989	0.446253
C45	C	1.332821	-0.784556	-0.061995
C46	C	1.832821	-0.284556	0.438005
C47	C	1.204963	-0.771478	-0.201428
C48	C	1.704963	-0.271478	0.298572
C49	C	1.212515	-0.653910	-0.193180
C50	C	1.712515	-0.153910	0.306820
C51	C	1.280223	-0.601670	-0.119339
C52	C	1.780223	-0.101670	0.380661
C53	C	1.287779	-0.484102	-0.111097
C54	C	1.787779	0.015898	0.388903
C55	C	1.159916	-0.471025	-0.250525
C56	C	1.659916	0.028975	0.249475
C57	C	1.152365	-0.588592	-0.258772
C58	C	1.652365	-0.088592	0.241228
C59	C	1.436334	-0.147265	-0.150893
C60	C	1.936334	0.352735	0.349107
C61	C	1.552340	-0.159153	-0.154278
C62	C	2.052340	0.340847	0.345722
C63	C	1.235144	-0.126645	0.033386
C64	C	1.735144	0.373355	0.533386
C65	C	1.221647	-0.125259	0.148619
C66	C	1.721647	0.374741	0.648619
N67	N	1.265120	0.163195	-0.135834
N68	N	1.765120	0.663195	0.364166
C69	C	1.257591	-0.128931	-0.345919
C70	C	1.757591	0.371069	0.154081
C71	C	1.271089	-0.130310	-0.461152
C72	C	1.771089	0.369690	0.038848
C73	C	1.383906	-0.141873	0.387704
C74	C	1.883906	0.358127	0.887704
C75	C	1.371229	-0.140571	0.495977
C76	C	1.871229	0.359429	0.995977
C77	C	1.183619	-0.121346	0.473439
C78	C	1.683619	0.378654	0.973439
C79	C	1.196295	-0.122648	0.365167
C80	C	1.696295	0.377352	0.865167
C81	C	1.296442	-0.132913	0.322303
C82	C	1.796442	0.367087	0.822303
C83	C	1.309117	-0.134223	0.214028
C84	C	1.809117	0.365777	0.714028
C85	C	1.121508	-0.114990	0.191493
C86	C	1.621508	0.385010	0.691493
C87	C	1.108831	-0.113688	0.299766
C88	C	1.608831	0.386312	0.799766
H89	H	0.748339	-0.365158	-0.173296
H90	H	1.248339	0.134842	0.326704
Br91	Br	0.718378	0.167901	-0.134503
Br92	Br	1.218378	0.667901	0.365497
Br93	Br	1.002798	-0.102849	0.102727
Br94	Br	1.502798	0.397151	0.602727
H95	H	0.550573	-0.344904	-0.167539
H96	H	1.050573	0.155096	0.332461
H97	H	0.574365	0.024536	-0.141615
H98	H	1.074365	0.524536	0.358385
Br99	Br	0.944420	-0.338400	-0.175659
Br100	Br	1.444420	0.161600	0.324341
Br101	Br	1.445027	-0.148166	0.155856
Br102	Br	1.945027	0.351834	0.655856
H103	H	0.942149	0.089339	-0.144990
H104	H	1.442149	0.589339	0.355010
H105	H	1.342914	-0.441569	-0.050974
H106	H	1.842914	0.058431	0.449026
Br107	Br	0.972926	-0.099743	0.357948
Br108	Br	1.472926	0.400257	0.857948
Br109	Br	1.489936	-0.152724	0.584734
Br110	Br	1.989936	0.347276	1.084734
H111	H	1.465448	-0.150242	0.352804
H112	H	1.965448	0.349758	0.852804
Br113	Br	1.432276	-0.596090	0.046450
Br114	Br	1.932276	-0.096090	0.546450
H115	H	1.097235	-0.631139	-0.318890
H116	H	1.597235	-0.131139	0.181110
Br117	Br	1.414451	-0.873200	0.027031
Br118	Br	1.914451	-0.373200	0.527031
H119	H	1.149829	-0.814026	-0.261541
H120	H	1.649829	-0.314026	0.238459
Br121	Br	1.078291	-0.382369	-0.339555
Br122	Br	1.578291	0.117631	0.160445
H123	H	1.102085	-0.112976	0.508359
H124	H	1.602085	0.387024	1.008359
