data_functionalizedCrystal
_audit_creation_method	'MofGen! by Chris Wilmer'
_symmetry_space_group_name_H-M	'P1'
_symmetry_Int_Tables_number	1
_symmetry_cell_setting	triclinic
loop_
_symmetry_equiv_pos_as_xyz
  x,y,z
_cell_length_a	18.215407
_cell_length_b	12.759399
_cell_length_c	18.215399
_cell_angle_alpha	90.021345
_cell_angle_beta	89.982187
_cell_angle_gamma	89.989956
loop_
_atom_site_label
_atom_site_type_symbol
_atom_site_fract_x
_atom_site_fract_y
_atom_site_fract_z
Zn1	Zn	1.125120	0.418431	-0.416110
Zn2	Zn	1.125048	0.594128	-0.293058
Zn3	Zn	1.002052	0.418447	-0.293062
Zn4	Zn	1.002038	0.594052	-0.416087
O5	O	1.063565	0.506264	-0.354579
O6	O	1.228095	0.441763	-0.399795
O7	O	1.108709	0.570863	-0.190074
O8	O	1.018413	0.271424	-0.309395
O9	O	1.228042	0.570847	-0.309389
O10	O	1.108830	0.271412	-0.399798
O11	O	1.018344	0.441790	-0.190077
O12	O	0.899066	0.441716	-0.309373
O13	O	1.018389	0.570716	-0.519074
O14	O	0.899056	0.570732	-0.399760
O15	O	1.108817	0.441689	-0.519091
O16	O	1.108695	0.741139	-0.309367
O17	O	1.018320	0.741083	-0.399756
C18	C	0.872358	0.506218	-0.354565
C19	C	0.790560	0.506224	-0.354576
C20	C	0.525524	0.439180	-0.401728
C21	C	0.602382	0.439163	-0.401726
C22	C	0.602347	0.573383	-0.307446
C23	C	0.525490	0.573405	-0.307452
C24	C	0.487080	0.506297	-0.354593
C25	C	0.640796	0.506258	-0.354584
C26	C	0.724130	0.506241	-0.354581
C27	C	0.403741	0.506316	-0.354597
C28	C	1.063518	0.779232	-0.354574
C29	C	1.063566	0.896008	-0.354597
C30	C	1.110675	0.950865	-0.307586
C31	C	1.110720	1.060589	-0.307613
C32	C	1.016538	1.060590	-0.401665
C33	C	1.016498	0.950868	-0.401641
C34	C	1.157743	0.896005	-0.260542
C35	C	1.204856	0.950862	-0.213526
C36	C	1.204900	1.060586	-0.213553
C37	C	1.157831	1.115453	-0.260596
C38	C	1.255518	0.506312	-0.354594
C39	C	1.337316	0.506332	-0.354600
C40	C	1.063609	0.506192	-0.546532
C41	C	1.063629	0.506161	-0.628331
C42	C	1.063629	1.232231	-0.354610
C43	C	1.063649	1.115454	-0.354648
C44	C	1.110731	0.438914	-0.816535
C45	C	1.110740	0.438883	-0.893394
C46	C	1.016578	0.573246	-0.893365
C47	C	1.016566	0.573271	-0.816508
C48	C	1.063647	0.506106	-0.778095
C49	C	1.063668	0.506051	-0.931811
C50	C	1.063677	0.506018	-1.015145
C51	C	1.063637	0.506137	-0.694756
C52	C	1.063562	0.506261	-0.163373
C53	C	1.063686	0.505996	-0.081574
H54	H	0.633680	0.384510	-0.440110
F55	F	1.160836	0.367428	-0.775656
H56	H	1.149079	0.384166	-0.924689
F57	F	1.255047	1.118965	-0.163522
H58	H	0.978216	1.105272	-0.439964
H59	H	0.494188	0.628065	-0.269068
H60	H	1.157711	0.806662	-0.260513
F61	F	0.966359	0.892483	-0.451677
H62	H	1.157877	1.204798	-0.260620
F63	F	0.484648	0.367760	-0.451901
H64	H	0.978248	0.627932	-0.924650
H65	H	1.243183	0.906183	-0.175230
F66	F	0.643232	0.644797	-0.257277
F67	F	0.966447	0.644785	-0.775594
