data_functionalizedCrystal
_audit_creation_method	'MofGen! by Chris Wilmer'
_symmetry_space_group_name_H-M	'P1'
_symmetry_Int_Tables_number	1
_symmetry_cell_setting	triclinic
loop_
_symmetry_equiv_pos_as_xyz
  x,y,z
_cell_length_a	11.792241
_cell_length_b	19.288864
_cell_length_c	17.766277
_cell_angle_alpha	90.023209
_cell_angle_beta	89.993523
_cell_angle_gamma	96.335169
loop_
_atom_site_label
_atom_site_type_symbol
_atom_site_fract_x
_atom_site_fract_y
_atom_site_fract_z
O1	O	0.141582	-0.922157	-0.062836
O2	O	0.160681	-0.720005	-0.062785
O3	O	-0.014113	-0.825987	-0.062806
O4	O	0.316377	-0.816176	-0.062814
O5	O	-0.014122	-0.825968	0.062382
O6	O	0.160673	-0.719986	0.062404
O7	O	0.141573	-0.922139	0.062352
Cu8	Cu	0.151122	-0.821061	0.073809
Cu9	Cu	0.151133	-0.821083	-0.074241
O10	O	0.316368	-0.816157	0.062374
C11	C	-0.056399	-0.825361	-0.000212
C12	C	-0.182385	-0.823517	-0.000212
C13	C	0.142192	-0.948028	-0.000250
C14	C	0.144037	-1.025142	-0.000275
C15	C	0.160063	-0.694116	-0.000184
C16	C	0.158218	-0.617002	-0.000164
C17	C	-0.413045	-0.820125	-0.000224
C18	C	-0.284689	-0.822009	-0.000218
C19	C	0.358654	-0.816783	-0.000222
C20	C	0.484640	-0.818627	-0.000226
N21	N	0.151114	-0.821050	0.177939
C22	C	0.260779	-0.572888	-0.000178
C23	C	0.259046	-0.500431	-0.000187
C24	C	0.154746	-0.472091	-0.000196
C25	C	0.052171	-0.516215	-0.000177
C26	C	0.053907	-0.588670	-0.000161
C27	C	0.072757	-0.363370	-0.044078
C28	C	0.071025	-0.290916	-0.044099
C29	C	0.149387	-0.248615	-0.000241
C30	C	0.229499	-0.278776	0.043627
C31	C	0.231235	-0.351232	0.043643
C32	C	0.152852	-0.393526	-0.000212
C33	C	0.250076	-0.125935	-0.000263
C34	C	0.248339	-0.053477	-0.000267
C35	C	0.041460	-0.069262	-0.000265
C36	C	0.043201	-0.141718	-0.000254
C37	C	0.147512	-0.170050	-0.000257
N38	N	0.151132	-0.821099	-0.178371
C39	C	0.073753	-0.867994	0.217316
C40	C	0.073748	-0.867998	0.296118
C41	C	0.151123	-0.821065	0.335540
C42	C	0.228490	-0.774112	0.296153
C43	C	0.228486	-0.774105	0.217353
C44	C	0.254534	-0.812354	0.460377
C45	C	0.254540	-0.812366	0.539175
C46	C	0.151137	-0.821084	0.578586
C47	C	0.047723	-0.829804	0.539188
C48	C	0.047719	-0.829797	0.460388
C49	C	0.151136	-0.821067	0.420985
C50	C	0.073764	-0.868035	0.703409
C51	C	0.073757	-0.868034	0.782213
C52	C	0.228509	-0.774151	0.782246
C53	C	0.228506	-0.774148	0.703444
C54	C	0.151135	-0.821094	0.664030
H55	H	0.345717	-0.595951	-0.000182
H56	H	0.338745	-0.805270	0.571247
C57	C	0.371868	-0.451897	-0.000214
H58	H	0.434238	-0.479148	-0.000220
H59	H	0.375500	-0.423274	0.043431
H60	H	0.375474	-0.423336	-0.043886
H61	H	0.010754	-0.906259	0.814274
H62	H	0.291505	-0.735934	0.814342
H63	H	0.293308	-0.244336	0.079341
C64	C	-0.011346	-0.919640	0.339446
H65	H	-0.000264	-0.912917	0.392021
H66	H	0.000793	-0.966037	0.326505
H67	H	-0.087071	-0.911815	0.326548
H68	H	-0.029614	-0.624588	-0.000150
H69	H	0.338743	-0.805242	0.428295
C70	C	-0.062560	-0.485047	-0.000188
H71	H	-0.123396	-0.521700	-0.000172
H72	H	-0.067536	-0.457135	-0.043851
H73	H	-0.067537	-0.457086	0.043466
C74	C	-0.011364	-0.919625	0.173966
H75	H	-0.057446	-0.947580	0.208708
H76	H	0.029336	-0.948686	0.143202
H77	H	-0.058514	-0.894456	0.143249
H78	H	0.296462	-0.375786	0.079364
H79	H	0.335012	-0.149004	-0.000255
C80	C	0.313604	-0.722489	0.339513
H81	H	0.302536	-0.729221	0.392084
H82	H	0.301472	-0.676088	0.326628
H83	H	0.389323	-0.730317	0.326584
C84	C	-0.066029	-0.839398	0.582525
H85	H	-0.127614	-0.844597	0.547776
H86	H	-0.072169	-0.799694	0.613288
H87	H	-0.068485	-0.879839	0.613242
C88	C	-0.066024	-0.839377	0.417050
H89	H	-0.127609	-0.844666	0.451800
H90	H	-0.068422	-0.879749	0.386203
H91	H	-0.072219	-0.799614	0.386418
C92	C	-0.069615	-0.190248	-0.000249
H93	H	-0.053644	-0.237459	-0.000234
H94	H	-0.112396	-0.181640	-0.043907
H95	H	-0.112402	-0.181593	0.043411
C96	C	0.313596	-0.722473	0.174032
H97	H	0.302511	-0.729190	0.121457
H98	H	0.389311	-0.730300	0.186938
H99	H	0.301460	-0.676070	0.186968
C100	C	-0.011352	-0.919661	0.660048
H101	H	-0.000267	-0.912939	0.607477
H102	H	-0.087066	-0.911833	0.672974
H103	H	0.000782	-0.966065	0.672936
C104	C	-0.017097	-0.257745	-0.092347
H105	H	-0.063533	-0.293314	-0.118453
H106	H	0.021455	-0.226506	-0.127625
H107	H	-0.063599	-0.232960	-0.060723
C108	C	0.313617	-0.722516	0.660127
H109	H	0.359706	-0.694568	0.694889
H110	H	0.272912	-0.693450	0.629405
H111	H	0.360760	-0.747681	0.629371
H112	H	0.331860	-0.017560	-0.000274
H113	H	0.008943	-0.397806	-0.079797
C114	C	-0.073268	-0.038097	-0.000279
H115	H	-0.059615	0.011374	-0.000296
H116	H	-0.115494	-0.053189	0.043377
H117	H	-0.115472	-0.053238	-0.043940
