data_functionalizedCrystal
_audit_creation_method	'MofGen! by Chris Wilmer'
_symmetry_space_group_name_H-M	'P1'
_symmetry_Int_Tables_number	1
_symmetry_cell_setting	triclinic
loop_
_symmetry_equiv_pos_as_xyz
  x,y,z
_cell_length_a	8.559649
_cell_length_b	15.944551
_cell_length_c	7.681481
_cell_angle_alpha	84.256492
_cell_angle_beta	94.913240
_cell_angle_gamma	76.638701
loop_
_atom_site_label
_atom_site_type_symbol
_atom_site_fract_x
_atom_site_fract_y
_atom_site_fract_z
O1	O	2.105021	-0.019570	-0.146399
O2	O	1.639821	0.023810	-0.146411
O3	O	1.885126	-0.120976	-0.146389
O4	O	1.859716	0.125215	-0.146421
O5	O	1.915319	-0.138833	0.146471
O6	O	1.670014	0.005953	0.146450
O7	O	2.135214	-0.037427	0.146461
Zn8	Zn	1.907408	-0.018572	0.192953
Zn9	Zn	1.867627	0.004955	-0.192903
O10	O	1.889909	0.107359	0.146439
C11	C	1.595387	0.018169	0.000018
C12	C	1.418008	0.027954	0.000014
C13	C	1.899168	-0.161130	0.000042
C14	C	1.896006	-0.254172	0.000042
C15	C	1.736394	-0.458726	0.000014
C16	C	1.825398	-0.533331	0.144414
C17	C	1.890284	-0.424528	0.000029
C18	C	1.795667	-0.515712	-0.144323
C19	C	1.884744	-0.589082	0.000008
C20	C	1.979342	-0.497915	0.144548
C21	C	1.949576	-0.480280	-0.144319
C22	C	2.038696	-0.554877	0.000116
C23	C	1.893471	-0.329732	0.000042
C24	C	1.881571	-0.683878	0.000007
C25	C	2.179647	-0.031786	0.000028
C26	C	2.357025	-0.041570	0.000021
C27	C	1.875866	0.147513	0.000005
C28	C	1.879027	0.240556	-0.000008
N29	N	1.934569	-0.034630	0.456290
N30	N	1.840479	0.021005	-0.456240
H31	H	1.334507	0.094969	-0.000004
H32	H	1.440515	-0.108579	0.000021
H33	H	1.608675	-0.417184	0.000155
C34	C	1.754477	-0.564887	0.309325
C35	C	1.580822	-0.521209	0.341042
C36	C	1.509889	-0.552760	0.505945
C37	C	1.612612	-0.627989	0.639130
C38	C	1.786277	-0.671671	0.607416
C39	C	1.857210	-0.640121	0.442514
H40	H	1.504771	-0.465516	0.242447
H41	H	1.381330	-0.520423	0.529420
H42	H	1.560103	-0.651345	0.761200
H43	H	1.862328	-0.727364	0.706011
H44	H	1.985770	-0.672458	0.419039
H45	H	2.030633	-0.091415	0.531504
C46	C	1.710713	0.097720	0.442173
C47	C	1.601334	0.161997	0.543342
C48	C	1.471566	0.238714	0.441742
C49	C	1.451177	0.251153	0.238974
C50	C	1.560559	0.186874	0.137795
C51	C	1.690327	0.110158	0.239394
H52	H	1.616424	0.152790	0.693453
H53	H	1.390594	0.286297	0.516643
H54	H	1.355115	0.307943	0.163764
H55	H	1.545469	0.196081	-0.012317
H56	H	1.771299	0.062574	0.164493
H57	H	2.056976	-0.489573	0.266760
H58	H	2.166550	-0.596291	0.000200
H59	H	2.002022	-0.456903	-0.266401
H60	H	1.717971	-0.524143	-0.266411
