data_functionalizedCrystal
_audit_creation_method	'MofGen! by Chris Wilmer'
_symmetry_space_group_name_H-M	'P1'
_symmetry_Int_Tables_number	1
_symmetry_cell_setting	triclinic
loop_
_symmetry_equiv_pos_as_xyz
  x,y,z
_cell_length_a	17.699083
_cell_length_b	16.992695
_cell_length_c	16.776229
_cell_angle_alpha	90.006741
_cell_angle_beta	90.001114
_cell_angle_gamma	86.975619
loop_
_atom_site_label
_atom_site_type_symbol
_atom_site_fract_x
_atom_site_fract_y
_atom_site_fract_z
O1	O	1.010251	0.099146	0.066177
O2	O	1.343585	0.432479	0.399510
O3	O	1.676918	0.765812	0.732843
O4	O	0.790676	0.112045	0.066203
O5	O	1.124009	0.445378	0.399536
O6	O	1.457343	0.778711	0.732869
O7	O	0.899583	-0.008546	0.066184
O8	O	1.232917	0.324787	0.399517
O9	O	1.566250	0.658121	0.732850
O10	O	0.901344	0.219736	0.066196
O11	O	1.234677	0.553069	0.399529
O12	O	1.568011	0.886403	0.732863
O13	O	0.899568	-0.008553	-0.066393
O14	O	1.232901	0.324780	0.266940
O15	O	1.566234	0.658113	0.600274
O16	O	0.790660	0.112037	-0.066374
O17	O	1.123994	0.445371	0.266960
O18	O	1.457327	0.778704	0.600293
O19	O	1.010235	0.099138	-0.066400
O20	O	1.343569	0.432472	0.266934
O21	O	1.676902	0.765805	0.600267
Zn22	Zn	0.900445	0.105587	-0.087436
Zn23	Zn	1.233779	0.438920	0.245897
Zn24	Zn	1.567112	0.772253	0.579231
Zn25	Zn	0.900466	0.105596	0.087239
Zn26	Zn	1.233800	0.438930	0.420572
Zn27	Zn	1.567133	0.772263	0.753906
O28	O	0.901328	0.219729	-0.066381
O29	O	1.234661	0.553062	0.266953
O30	O	1.567995	0.886395	0.600286
C31	C	0.762442	0.111579	-0.000082
C32	C	1.095776	0.444912	0.333251
C33	C	1.429109	0.778245	0.666585
C34	C	0.678338	0.110192	-0.000072
C35	C	1.011671	0.443525	0.333261
C36	C	1.345005	0.776859	0.666594
C37	C	0.634124	0.180976	-0.000069
C38	C	0.967457	0.514310	0.333265
C39	C	1.300791	0.847643	0.666598
C40	C	0.555099	0.179669	-0.000079
C41	C	0.888433	0.513002	0.333254
C42	C	1.221766	0.846335	0.666588
C43	C	0.520290	0.107576	-0.000087
C44	C	0.853623	0.440910	0.333246
C45	C	1.186957	0.774243	0.666579
C46	C	0.564510	0.036787	-0.000093
C47	C	0.897843	0.370120	0.333240
C48	C	1.231176	0.703453	0.666573
C49	C	0.643533	0.038095	-0.000089
C50	C	0.976866	0.371428	0.333245
C51	C	1.310200	0.704762	0.666578
C52	C	0.245818	0.031509	-0.000113
C53	C	0.579151	0.364842	0.333220
C54	C	0.912485	0.698175	0.666553
C55	C	0.166789	0.030206	-0.000116
C56	C	0.500122	0.363539	0.333218
C57	C	0.833456	0.696872	0.666551
C58	C	0.157384	0.173082	-0.000104
C59	C	0.490718	0.506416	0.333230
C60	C	0.824051	0.839749	0.666563
C61	C	0.236408	0.174391	-0.000099
C62	C	0.569741	0.507724	0.333234
C63	C	0.903074	0.841057	0.666568
C64	C	0.280621	0.103602	-0.000109
C65	C	0.613954	0.436935	0.333224
C66	C	0.947287	0.770268	0.666557
C67	C	0.366308	0.105020	-0.000099
C68	C	0.699641	0.438354	0.333234
C69	C	1.032975	0.771687	0.666567
C70	C	0.434604	0.106157	-0.000091
C71	C	0.767937	0.439490	0.333242
C72	C	1.101271	0.772823	0.666575
C73	C	0.897311	-0.037758	-0.000104
C74	C	1.230644	0.295576	0.333229
C75	C	1.563977	0.628909	0.666562
C76	C	0.890554	-0.124789	-0.000103
C77	C	1.223887	0.208544	0.333230
C78	C	1.557220	0.541878	0.666563
C79	C	0.955751	-0.175154	-0.000112
C80	C	1.289085	0.158180	0.333221
C81	C	1.622418	0.491513	0.666555
C82	C	0.949398	-0.256928	-0.000104
C83	C	1.282731	0.076405	0.333230
C84	C	1.616064	0.409738	0.666563
C85	C	0.877846	-0.288336	-0.000092
C86	C	1.211179	0.044997	0.333241
C87	C	1.544512	0.378330	0.666574
C88	C	0.812643	-0.237965	-0.000081
C89	C	1.145977	0.095368	0.333252
C90	C	1.479310	0.428701	0.666585
C91	C	0.818998	-0.156192	-0.000084
C92	C	1.152331	0.177141	0.333249
C93	C	1.485664	0.510474	0.666583
C94	C	0.851510	-0.531884	-0.000078
C95	C	1.184843	-0.198551	0.333255
C96	C	1.518176	0.134783	0.666588
C97	C	0.845160	-0.613663	-0.000078
C98	C	1.178494	-0.280330	0.333255
C99	C	1.511827	0.053003	0.666589
C100	C	0.981915	-0.632621	-0.000099
C101	C	1.315249	-0.299287	0.333235
C102	C	1.648582	0.034046	0.666568
C103	C	0.988263	-0.550845	-0.000106
C104	C	1.321597	-0.217512	0.333227
C105	C	1.654930	0.115821	0.666560
C106	C	0.923061	-0.500481	-0.000091
C107	C	1.256394	-0.167148	0.333242
C108	C	1.589728	0.166185	0.666576
N109	N	0.871350	-0.371923	-0.000086
N110	N	1.204683	-0.038590	0.333247
N111	N	1.538016	0.294744	0.666580
N112	N	0.929558	-0.416897	-0.000091
N113	N	1.262891	-0.083563	0.333242
N114	N	1.596224	0.249770	0.666575
C115	C	1.038469	0.099604	-0.000113
C116	C	1.371803	0.432937	0.333220
C117	C	1.705136	0.766271	0.666554
C118	C	1.122574	0.100991	-0.000118
C119	C	1.455907	0.434324	0.333216
C120	C	1.789240	0.767657	0.666549
C121	C	0.903601	0.248941	-0.000091
C122	C	1.236934	0.582274	0.333242
C123	C	1.570267	0.915607	0.666576
C124	C	0.910358	0.335972	-0.000087
C125	C	1.243691	0.669305	0.333247
C126	C	1.577025	1.002639	0.666580
N127	N	0.900437	0.105579	-0.206647
N128	N	1.233770	0.438913	0.126686
N129	N	1.567103	0.772246	0.460019
C130	C	0.948678	0.052204	-0.248373
C131	C	1.282011	0.385537	0.084960
C132	C	1.615344	0.718870	0.418294
C133	C	0.948682	0.052203	-0.331825
C134	C	1.282015	0.385536	0.001508
C135	C	1.615349	0.718870	0.334841
C136	C	0.900448	0.105582	-0.373550
C137	C	1.233781	0.438916	-0.040217
C138	C	1.567115	0.772249	0.293116
C139	C	0.852202	0.158961	-0.331819
C140	C	1.185535	0.492294	0.001515
C141	C	1.518868	0.825627	0.334848
C142	C	0.852194	0.158957	-0.248368
C143	C	1.185527	0.492290	0.084965
C144	C	1.518861	0.825624	0.418299
C145	C	0.852230	0.158976	-0.668366
C146	C	1.185563	0.492309	-0.335033
C147	C	1.518897	0.825643	-0.001699
C148	C	0.852243	0.158977	-0.751822
C149	C	1.185576	0.492311	-0.418489
C150	C	1.518909	0.825644	-0.085156
C151	C	0.948718	0.052222	-0.751823
C152	C	1.282051	0.385556	-0.418490
C153	C	1.615384	0.718889	-0.085156
C154	C	0.948710	0.052219	-0.668372
C155	C	1.282044	0.385552	-0.335039
C156	C	1.615377	0.718885	-0.001706
C157	C	0.900461	0.105594	-0.626648
C158	C	1.233795	0.438927	-0.293315
C159	C	1.567128	0.772260	0.040018
C160	C	0.900456	0.105593	-0.536160
C161	C	1.233790	0.438926	-0.202827
C162	C	1.567123	0.772259	0.130507
C163	C	0.900456	0.105588	-0.464037
C164	C	1.233790	0.438921	-0.130704
C165	C	1.567123	0.772254	0.202630
N166	N	0.900481	0.105597	0.206450
N167	N	1.233814	0.438931	0.539784
N168	N	1.567147	0.772264	0.873117
H169	H	0.121377	0.230722	-0.000100
H170	H	0.454710	0.564056	0.333234
H171	H	0.788043	0.897389	0.666567
H172	H	0.988002	0.008759	-0.785804
H173	H	1.321336	0.342092	-0.452470
H174	H	1.654669	0.675425	-0.119137
H175	H	0.812945	0.202437	-0.634401
H176	H	1.146279	0.535770	-0.301067
H177	H	1.479612	0.869104	0.032266
H178	H	0.281807	-0.026132	-0.000122
H179	H	0.615140	0.307201	0.333211
H180	H	0.948474	0.640534	0.666544
H181	H	0.786891	-0.639232	-0.000082
H182	H	1.120225	-0.305899	0.333252
H183	H	1.453558	0.027435	0.666585
Br184	Br	0.119548	-0.067641	-0.000125
Br185	Br	0.452881	0.265693	0.333209
Br186	Br	0.786215	0.599026	0.666542
H187	H	0.812962	0.202447	-0.785794
H188	H	1.146296	0.535780	-0.452460
H189	H	1.479629	0.869113	-0.119127
Br190	Br	0.786734	0.231400	-0.388442
Br191	Br	1.120067	0.564734	-0.055109
Br192	Br	1.453400	0.898067	0.278224
Br193	Br	0.495097	0.275737	-0.000072
Br194	Br	0.828430	0.609071	0.333262
Br195	Br	1.161764	0.942404	0.666595
Br196	Br	0.703539	-0.057973	-0.000101
Br197	Br	1.036872	0.275361	0.333233
Br198	Br	1.370206	0.608694	0.666566
H199	H	0.754384	-0.263544	-0.000067
H200	H	1.087717	0.069789	0.333266
H201	H	1.421051	0.403122	0.666599
H202	H	0.812910	0.202420	-0.214396
H203	H	1.146244	0.535753	0.118937
H204	H	1.479577	0.869086	0.452271
H205	H	0.798417	-0.490887	-0.000066
H206	H	1.131750	-0.157554	0.333267
H207	H	1.465083	0.175780	0.666601
H208	H	0.264745	0.233096	-0.000089
H209	H	0.598078	0.566429	0.333245
H210	H	0.931412	0.899762	0.666578
Br211	Br	1.014150	-0.020239	-0.388456
Br212	Br	1.347483	0.313094	-0.055122
Br213	Br	1.680817	0.646428	0.278211
Br214	Br	0.681357	0.278821	-0.000049
Br215	Br	1.014691	0.612155	0.333284
Br216	Br	1.348024	0.945488	0.666617
Br217	Br	0.517270	-0.061055	-0.000113
Br218	Br	0.850603	0.272279	0.333221
Br219	Br	1.183936	0.605612	0.666554
H220	H	1.002489	-0.297933	-0.000112
H221	H	1.335822	0.035401	0.333221
H222	H	1.669155	0.368734	0.666554
Br223	Br	1.052862	-0.132537	-0.000139
Br224	Br	1.386196	0.200796	0.333195
Br225	Br	1.719529	0.534130	0.666528
Br226	Br	1.085373	-0.508226	-0.000096
Br227	Br	1.418707	-0.174892	0.333238
Br228	Br	1.752040	0.158441	0.666571
Br229	Br	1.070400	-0.700975	-0.000119
Br230	Br	1.403733	-0.367642	0.333214
Br231	Br	1.737066	-0.034308	0.666547
Br232	Br	1.014148	-0.020238	-0.191755
Br233	Br	1.347481	0.313095	0.141578
Br234	Br	1.680814	0.646428	0.474912
H235	H	0.765906	-0.115186	-0.000077
H236	H	1.099240	0.218148	0.333256
H237	H	1.432573	0.551481	0.666590
Br238	Br	1.014176	-0.020222	-0.611748
Br239	Br	1.347510	0.313111	-0.278415
Br240	Br	1.680843	0.646444	0.054919
