data_functionalizedCrystal
_audit_creation_method	'MofGen! by Chris Wilmer'
_symmetry_space_group_name_H-M	'P1'
_symmetry_Int_Tables_number	1
_symmetry_cell_setting	triclinic
loop_
_symmetry_equiv_pos_as_xyz
  x,y,z
_cell_length_a	12.759395
_cell_length_b	18.050589
_cell_length_c	12.759387
_cell_angle_alpha	89.970013
_cell_angle_beta	89.980569
_cell_angle_gamma	90.028066
loop_
_atom_site_label
_atom_site_type_symbol
_atom_site_fract_x
_atom_site_fract_y
_atom_site_fract_z
Zn1	Zn	1.606170	-0.295623	-0.593981
Zn2	Zn	2.106170	0.204377	-0.093981
Zn3	Zn	1.606019	-0.419832	-0.418304
Zn4	Zn	2.106019	0.080168	0.081696
Zn5	Zn	1.430468	-0.295660	-0.418321
Zn6	Zn	1.930468	0.204340	0.081679
Zn7	Zn	1.430419	-0.419776	-0.593946
Zn8	Zn	1.930419	0.080224	-0.093946
O9	O	1.518269	-0.357723	-0.506138
O10	O	2.018269	0.142277	-0.006138
O11	O	1.753171	-0.312108	-0.570684
O12	O	2.253171	0.187892	-0.070684
O13	O	1.582689	-0.403400	-0.271285
O14	O	2.082689	0.096600	0.228715
O15	O	1.453859	-0.191731	-0.441644
O16	O	1.953859	0.308269	0.058356
O17	O	1.753060	-0.403364	-0.441615
O18	O	2.253060	0.096636	0.058385
O19	O	1.582946	-0.191704	-0.570701
O20	O	2.082946	0.308296	-0.070701
O21	O	1.453713	-0.312171	-0.271297
O22	O	1.953713	0.187829	0.228703
O23	O	1.283441	-0.312116	-0.441611
O24	O	1.783441	0.187884	0.058389
O25	O	1.453775	-0.403268	-0.740972
O26	O	1.953775	0.096732	-0.240972
O27	O	1.283404	-0.403303	-0.570642
O28	O	1.783404	0.096697	-0.070642
O29	O	1.582899	-0.312053	-0.740997
O30	O	2.082899	0.187947	-0.240997
O31	O	1.582642	-0.523749	-0.441581
O32	O	2.082642	-0.023749	0.058419
O33	O	1.453629	-0.523708	-0.570625
O34	O	1.953629	-0.023708	-0.070625
C35	C	1.245302	-0.357708	-0.506125
C36	C	1.745302	0.142292	-0.006125
C37	C	1.128525	-0.357720	-0.506144
C38	C	1.628525	0.142280	-0.006144
C39	C	1.518142	-0.550675	-0.506120
C40	C	2.018142	-0.050675	-0.006120
C41	C	1.518184	-0.633221	-0.506148
C42	C	2.018184	-0.133221	-0.006148
C43	C	1.128621	-0.262849	-0.640761
C44	C	1.628621	0.237151	-0.140761
C45	C	1.073808	-0.215422	-0.708078
C46	C	1.573808	0.284578	-0.208078
C47	C	0.964087	-0.215435	-0.708091
C48	C	1.464087	0.284565	-0.208091
C49	C	0.909175	-0.262879	-0.640778
C50	C	1.409175	0.237121	-0.140778
C51	C	0.963988	-0.310305	-0.573461
C52	C	1.463988	0.189695	-0.073461
C53	C	1.073712	-0.310288	-0.573457
C54	C	1.573712	0.189712	-0.073457
C55	C	0.963892	-0.405171	-0.438840
C56	C	1.463892	0.094829	0.061160
C57	C	1.073614	-0.405163	-0.438831
C58	C	1.573614	0.094837	0.061169
C59	C	0.908981	-0.452614	-0.371527
C60	C	1.408981	0.047386	0.128473
C61	C	0.963793	-0.500046	-0.304214
C62	C	1.463793	-0.000046	0.195786
C63	C	1.073522	-0.500031	-0.304204
C64	C	1.573522	-0.000031	0.195796
C65	C	1.128426	-0.452589	-0.371514
C66	C	1.628426	0.047411	0.128486
C67	C	1.448096	-0.832676	-0.576298
C68	C	1.948096	-0.332676	-0.076298
C69	C	1.422480	-0.882124	-0.480429
C70	C	1.922480	-0.382124	0.019571
C71	C	1.518287	-0.784351	-0.506162
C72	C	2.018287	-0.284351	-0.006162
C73	C	1.543955	-0.881985	-0.602041
C74	C	2.043955	-0.381985	-0.102041
C75	C	1.518385	-0.930336	-0.506183
C76	C	2.018385	-0.430336	-0.006183
C77	C	1.492621	-0.832712	-0.410243
C78	C	1.992621	-0.332712	0.089757
C79	C	1.614141	-0.832569	-0.531919
C80	C	2.114141	-0.332569	-0.031919
C81	C	1.588561	-0.881994	-0.435985
C82	C	2.088561	-0.381994	0.064015
C83	C	1.518228	-0.700253	-0.506151
C84	C	2.018228	-0.200253	-0.006151
C85	C	1.518444	-1.014433	-0.506184
C86	C	2.018444	-0.514433	-0.006184
C87	C	1.792302	-0.357738	-0.506151
C88	C	2.292302	0.142262	-0.006151
C89	C	1.909079	-0.357745	-0.506157
C90	C	2.409079	0.142255	-0.006157
C91	C	1.518348	-0.357650	-0.780171
C92	C	2.018348	0.142350	-0.280171
C93	C	1.518382	-0.357619	-0.896948
C94	C	2.018382	0.142381	-0.396948
C95	C	1.518425	-0.164017	-0.506178
C96	C	2.018425	0.335983	-0.006178
C97	C	1.518491	-0.081471	-0.506196
C98	C	2.018491	0.418529	-0.006196
C99	C	1.652848	-0.262644	-0.896995
C100	C	2.152848	0.237356	-0.396995
C101	C	1.720095	-0.215145	-0.951879
C102	C	2.220095	0.284855	-0.451879
C103	C	1.720121	-0.215118	-1.061600
C104	C	2.220121	0.284882	-0.561600
C105	C	1.652889	-0.262593	-1.116440
C106	C	2.152889	0.237407	-0.616440
C107	C	1.585642	-0.310092	-1.061556
C108	C	2.085642	0.189908	-0.561556
C109	C	1.585626	-0.310116	-0.951832
C110	C	2.085626	0.189884	-0.451832
C111	C	1.451173	-0.405062	-1.061510
C112	C	1.951173	0.094938	-0.561510
C113	C	1.451151	-0.405094	-0.951788
C114	C	1.951151	0.094906	-0.451788
C115	C	1.383942	-0.452537	-1.116350
C116	C	1.883942	0.047463	-0.616350
C117	C	1.316698	-0.500041	-1.061466
C118	C	1.816698	-0.000041	-0.561466
C119	C	1.316676	-0.500067	-0.951738
C120	C	1.816676	-0.000067	-0.451738
C121	C	1.383904	-0.452593	-0.896905
C122	C	1.883904	0.047407	-0.396905
C123	C	1.518250	-0.357742	-0.233170
C124	C	2.018250	0.142258	0.266830
C125	C	1.518420	-0.357564	-0.116394
C126	C	2.018420	0.142436	0.383606
H127	H	1.217962	-0.262830	-0.640753
H128	H	1.717962	0.237170	-0.140753
O129	O	1.246769	-0.452565	-0.371507
O130	O	1.746769	0.047435	0.128493
H131	H	1.275696	-0.508590	-0.392601
H132	H	1.775696	-0.008590	0.107399
H133	H	1.652907	-0.262561	-1.205782
H134	H	2.152907	0.237439	-0.705782
H135	H	1.341466	-0.903907	-0.458663
H136	H	1.841466	-0.403907	0.041337
H137	H	1.383897	-0.452612	-0.807563
H138	H	1.883897	0.047388	-0.307563
O139	O	1.572671	-0.910653	-0.709432
O140	O	2.072671	-0.410653	-0.209432
H141	H	1.514238	-0.890900	-0.767482
H142	H	2.014238	-0.390900	-0.267482
O143	O	1.652821	-0.262678	-0.778652
O144	O	2.152821	0.237322	-0.278652
H145	H	1.710862	-0.221685	-0.749739
H146	H	2.210862	0.278315	-0.249739
H147	H	1.470856	-0.811157	-0.329145
H148	H	1.970856	-0.311157	0.170855
H149	H	1.118529	-0.176794	-0.762881
H150	H	1.618529	0.323206	-0.262881
H151	H	1.774831	-0.176491	-0.907216
H152	H	2.274831	0.323509	-0.407216
O153	O	1.792652	-0.163892	-1.120807
O154	O	2.292652	0.336108	-0.620807
H155	H	1.839402	-0.130887	-1.064246
H156	H	2.339402	0.369113	-0.564246
H157	H	0.919458	-0.176812	-0.762900
H158	H	1.419458	0.323188	-0.262900
H159	H	0.819639	-0.452620	-0.371540
H160	H	1.319639	0.047380	0.128460
H161	H	0.919076	-0.538667	-0.249409
H162	H	1.419076	-0.038667	0.250591
H163	H	1.118144	-0.538649	-0.249383
H164	H	1.618144	-0.038649	0.250617
H165	H	1.388650	-0.811020	-0.635525
H166	H	1.888650	-0.311020	-0.135525
H167	H	1.261904	-0.538738	-0.907058
H168	H	1.761904	-0.038738	-0.407058
O169	O	0.790832	-0.262886	-0.640775
O170	O	1.290832	0.237114	-0.140775
H171	H	0.761917	-0.277972	-0.719978
H172	H	1.261917	0.222028	-0.219978
O173	O	1.667249	-0.910505	-0.357353
O174	O	2.167249	-0.410505	0.142647
H175	H	1.645737	-0.890664	-0.277886
H176	H	2.145737	-0.390664	0.222114
H177	H	1.383963	-0.452509	-1.205692
H178	H	1.883963	0.047491	-0.705692
O179	O	1.721453	-0.803798	-0.560889
O180	O	2.221453	-0.303798	-0.060889
H181	H	1.720727	-0.742314	-0.559923
H182	H	2.220727	-0.242314	-0.059923
H183	H	1.261958	-0.538687	-1.106126
H184	H	1.761958	-0.038687	-0.606126
