data_functionalizedCrystal
_audit_creation_method	'MofGen! by Chris Wilmer'
_symmetry_space_group_name_H-M	'P1'
_symmetry_Int_Tables_number	1
_symmetry_cell_setting	triclinic
loop_
_symmetry_equiv_pos_as_xyz
  x,y,z
_cell_length_a	27.732048
_cell_length_b	10.654541
_cell_length_c	9.130307
_cell_angle_alpha	90.000178
_cell_angle_beta	89.991788
_cell_angle_gamma	96.436708
loop_
_atom_site_label
_atom_site_type_symbol
_atom_site_fract_x
_atom_site_fract_y
_atom_site_fract_z
O1	O	0.067880	-1.664985	-0.121772
O2	O	0.074349	-1.299234	-0.121787
O3	O	0.000788	-1.493469	-0.121751
O4	O	0.141440	-1.470750	-0.121808
O5	O	0.000787	-1.493463	0.121848
O6	O	0.074348	-1.299228	0.121812
O7	O	0.067879	-1.664979	0.121827
Cu8	Cu	0.071113	-1.482103	0.144062
Cu9	Cu	0.071114	-1.482110	-0.144022
O10	O	0.141439	-1.470744	0.121791
C11	C	0.073873	-1.252453	0.000011
C12	C	0.072453	-1.113069	0.000007
C13	C	-0.017222	-1.492989	0.000052
C14	C	-0.070886	-1.491553	0.000064
C15	C	0.068354	-1.711760	0.000025
C16	C	0.069774	-1.851144	0.000020
C17	C	-0.409043	-1.597293	-0.000007
C18	C	-0.610736	-1.591965	-0.000027
O19	O	-0.641390	-1.688656	-0.000088
N20	N	-0.630576	-1.476791	-0.000031
C21	C	-0.599990	-1.362942	-0.000038
O22	O	-0.621494	-1.264858	-0.000056
C23	C	-0.398299	-1.368271	-0.000028
C24	C	-0.378461	-1.483452	-0.000010
C25	C	-0.389205	-1.712464	0.000010
C26	C	-0.338785	-1.713795	0.000023
C27	C	-0.308203	-1.599954	0.000020
C28	C	-0.328041	-1.484783	0.000003
C29	C	-0.367713	-1.254423	-0.000046
C30	C	-0.317288	-1.255766	-0.000047
C31	C	-0.297450	-1.370947	-0.000029
C32	C	-0.247038	-1.372273	0.000013
N33	N	-0.227198	-1.487446	0.000016
C34	C	-0.257780	-1.601287	0.000019
C35	C	-0.705882	-1.360152	-0.000041
C36	C	-0.756305	-1.358819	-0.000041
C37	C	-0.767046	-1.587843	-0.000032
C38	C	-0.716623	-1.589174	-0.000022
C39	C	-0.686041	-1.475325	-0.000037
C40	C	-0.151893	-1.604073	0.000048
C41	C	-0.101468	-1.605394	0.000068
C42	C	-0.090731	-1.376371	0.000052
C43	C	-0.141151	-1.375050	0.000040
C44	C	-0.171732	-1.488911	0.000034
O45	O	-0.216356	-1.275633	0.000057
O46	O	-0.236267	-1.699357	0.000005
C47	C	-0.459463	-1.595962	-0.000020
C48	C	-0.479301	-1.480790	-0.000036
C49	C	-0.448719	-1.366950	-0.000040
C50	C	-0.529724	-1.479458	-0.000036
C51	C	-0.560306	-1.593298	-0.000033
C52	C	-0.540466	-1.708472	-0.000030
C53	C	-0.490045	-1.709803	-0.000017
C54	C	-0.468560	-1.251777	-0.000043
C55	C	-0.518981	-1.250455	-0.000054
C56	C	-0.549563	-1.364296	-0.000051
C57	C	0.159450	-1.471224	-0.000016
C58	C	0.213113	-1.472660	-0.000037
N59	N	0.071112	-1.482107	0.346685
C60	C	0.160415	-1.081401	-0.000047
C61	C	0.203726	-1.000086	-0.000079
C62	C	0.202389	-0.869124	-0.000080
C63	C	0.157735	-0.819476	-0.000044
C64	C	0.114423	-0.900791	-0.000012
C65	C	0.115766	-1.031754	-0.000015
C66	C	0.026463	-0.932459	0.000053
C67	C	0.027799	-1.063421	0.000043
C68	C	-0.018191	-0.882811	0.000089
C69	C	-0.061504	-0.964126	0.000111
C70	C	-0.060164	-1.095095	0.000110
C71	C	-0.015512	-1.144736	0.000076
N72	N	0.071111	-1.482116	-0.346645
C73	C	0.005994	-1.654171	0.346706
C74	C	-0.026564	-1.740211	0.423384
C75	C	-0.026565	-1.740224	0.576717
C76	C	0.005996	-1.654184	0.653377
C77	C	0.038554	-1.568144	0.576699
C78	C	0.038551	-1.568143	0.423362
C79	C	0.103669	-1.396076	0.576678
C80	C	0.103673	-1.396067	0.423344
C81	C	0.136229	-1.310037	0.653337
C82	C	0.168790	-1.224000	0.576660
C83	C	0.168790	-1.223992	0.423317
C84	C	0.136230	-1.310027	0.346667
H85	H	-0.085319	-1.699192	0.000086
H86	H	-0.053078	-1.810280	0.639148
H87	H	0.005995	-1.654180	0.221854
Cl88	Cl	-0.166091	-1.230250	0.000045
H89	H	0.237657	-0.802916	-0.000096
Cl90	Cl	-0.067497	-1.848366	0.327010
Cl91	Cl	-0.805502	-1.730956	-0.000036
Cl92	Cl	0.156055	-0.654836	-0.000020
H93	H	-0.176787	-1.696790	0.000037
Cl94	Cl	-0.313854	-1.858602	0.000004
H95	H	0.240082	-1.040524	-0.000105
H96	H	0.195296	-1.153948	0.639085
Cl97	Cl	-0.019873	-0.718172	0.000095
Cl98	Cl	-0.691690	-1.733977	-0.000001
H99	H	-0.097857	-0.923691	0.000139
Cl100	Cl	0.136228	-1.310044	0.846101
Cl101	Cl	-0.667443	-1.217012	-0.000058
H102	H	-0.383856	-1.160631	-0.000070
H103	H	-0.535127	-1.156654	-0.000056
H104	H	-0.292390	-1.163054	-0.000062
H105	H	0.195300	-1.153923	0.360894
H106	H	-0.014417	-1.251370	0.000058
H107	H	0.005989	-1.654189	0.778229
H108	H	0.136229	-1.310033	0.221815
H109	H	-0.414100	-1.805172	0.000007
Cl110	Cl	-0.052276	-1.233265	0.000044
Cl111	Cl	-0.465114	-1.854609	-0.000007
Cl112	Cl	-0.578921	-1.851584	-0.000019
Cl113	Cl	-0.781237	-1.214015	-0.000035
Cl114	Cl	-0.114617	-1.197310	0.000162
H115	H	-0.443664	-1.159072	-0.000049
H116	H	0.161508	-1.188035	-0.000078
