data_functionalizedCrystal
_audit_creation_method	'MofGen! by Chris Wilmer'
_symmetry_space_group_name_H-M	'P1'
_symmetry_Int_Tables_number	1
_symmetry_cell_setting	triclinic
loop_
_symmetry_equiv_pos_as_xyz
  x,y,z
_cell_length_a	12.784890
_cell_length_b	12.837942
_cell_length_c	8.140239
_cell_angle_alpha	89.996939
_cell_angle_beta	89.998296
_cell_angle_gamma	83.967749
loop_
_atom_site_label
_atom_site_type_symbol
_atom_site_fract_x
_atom_site_fract_y
_atom_site_fract_z
O1	O	1.410967	0.006425	-0.136563
O2	O	1.910967	0.506425	0.363437
O3	O	1.105967	0.050420	-0.136577
O4	O	1.605967	0.550420	0.363423
O5	O	1.251704	-0.121871	-0.136560
O6	O	1.751704	0.378129	0.363440
O7	O	1.265230	0.178716	-0.136580
O8	O	1.765230	0.678716	0.363420
O9	O	1.251695	-0.121872	0.136667
O10	O	1.751695	0.378128	0.636667
O11	O	1.105958	0.050419	0.136650
O12	O	1.605958	0.550419	0.636650
O13	O	1.410958	0.006424	0.136664
O14	O	1.910958	0.506424	0.636664
Zn15	Zn	1.258456	0.028421	0.180038
Zn16	Zn	1.758456	0.528421	0.680038
Zn17	Zn	1.258468	0.028423	-0.179951
Zn18	Zn	1.758468	0.528423	0.320049
O19	O	1.265221	0.178715	0.136647
O20	O	1.765221	0.678715	0.636647
C21	C	1.066653	0.053280	0.000035
C22	C	1.566653	0.553280	0.500035
C23	C	0.949521	0.061794	0.000030
C24	C	1.449521	0.561794	0.500030
C25	C	1.247130	-0.160080	0.000052
C26	C	1.747130	0.339920	0.500052
C27	C	1.233502	-0.273929	0.000049
C28	C	1.733502	0.226071	0.500049
C29	C	0.781351	0.168495	0.000021
C30	C	1.281351	0.668495	0.500021
C31	C	0.891407	0.160502	0.000021
C32	C	1.391407	0.660502	0.500021
C33	C	0.897572	-0.028928	0.000033
C34	C	1.397572	0.471072	0.500033
C35	C	0.787516	-0.020935	0.000032
C36	C	1.287516	0.479065	0.500032
C37	C	0.729410	0.077780	0.000029
C38	C	1.229410	0.577780	0.500029
C39	C	0.619353	0.085771	0.000040
C40	C	1.119353	0.585771	0.500040
C41	C	0.625519	-0.103657	0.000040
C42	C	1.125519	0.396343	0.500040
C43	C	0.735575	-0.111650	0.000041
C44	C	1.235575	0.388350	0.500041
C45	C	1.397334	-0.529655	0.000022
C46	C	1.897334	-0.029655	0.500022
C47	C	1.384534	-0.636627	0.000019
C48	C	1.884534	-0.136627	0.500019
C49	C	1.195104	-0.594847	0.000027
C50	C	1.695104	-0.094847	0.500027
C51	C	1.207904	-0.487875	0.000031
C52	C	1.707904	0.012125	0.500031
C53	C	1.309022	-0.455284	0.000031
C54	C	1.809022	0.044716	0.500031
C55	C	1.321821	-0.348309	0.000046
C56	C	1.821821	0.151691	0.500046
C57	C	1.132391	-0.306531	0.000042
C58	C	1.632391	0.193469	0.500042
C59	C	1.119592	-0.413503	0.000039
C60	C	1.619592	0.086497	0.500039
C61	C	1.450272	0.003563	0.000049
C62	C	1.950272	0.503563	0.500049
C63	C	1.567404	-0.004950	0.000043
C64	C	2.067404	0.495050	0.500043
C65	C	1.269795	0.216924	0.000031
C66	C	1.769795	0.716924	0.500031
C67	C	1.283422	0.330772	0.000024
C68	C	1.783422	0.830772	0.500024
N69	N	1.258456	0.028419	0.425720
N70	N	1.758456	0.528419	0.925720
N71	N	1.258476	0.028416	-0.425633
N72	N	1.758476	0.528416	0.074367
H73	H	0.572044	0.166150	0.000045
H74	H	1.072044	0.666150	0.500045
H75	H	0.933693	0.234372	0.000018
H76	H	1.433693	0.734372	0.500018
Cl77	Cl	1.524450	-0.488679	0.000063
Cl78	Cl	2.024450	0.011321	0.500063
H79	H	1.404156	-0.321777	0.000052
H80	H	1.904156	0.178223	0.500052
H81	H	1.456447	-0.697179	0.000007
H82	H	1.956447	-0.197179	0.500007
H83	H	1.112778	-0.621402	0.000010
H84	H	1.612778	-0.121402	0.500010
Cl85	Cl	0.970637	-0.153015	0.000033
Cl86	Cl	1.470637	0.346985	0.500033
H87	H	1.037264	-0.440054	0.000033
H88	H	1.537264	0.059946	0.500033
H89	H	1.060481	-0.245964	0.000062
H90	H	1.560481	0.254036	0.500062
Cl91	Cl	0.708300	0.292589	0.000045
Cl92	Cl	1.208300	0.792589	0.500045
H93	H	0.782900	-0.192020	0.000038
H94	H	1.282900	0.307980	0.500038
H95	H	0.583217	-0.177525	-0.000084
H96	H	1.083217	0.322475	0.499916
