data_functionalizedCrystal
_audit_creation_method	'MofGen! by Chris Wilmer'
_symmetry_space_group_name_H-M	'P1'
_symmetry_Int_Tables_number	1
_symmetry_cell_setting	triclinic
loop_
_symmetry_equiv_pos_as_xyz
  x,y,z
_cell_length_a	8.597339
_cell_length_b	8.559649
_cell_length_c	12.996460
_cell_angle_alpha	89.995945
_cell_angle_beta	97.699272
_cell_angle_gamma	77.626154
loop_
_atom_site_label
_atom_site_type_symbol
_atom_site_fract_x
_atom_site_fract_y
_atom_site_fract_z
O1	O	-2.053702	-0.238075	-0.096471
O2	O	-1.594575	-0.256329	-0.055774
O3	O	-1.864588	-0.015232	-0.079709
O4	O	-1.783689	-0.479171	-0.072536
O5	O	-1.864586	-0.015216	-0.250843
O6	O	-1.594573	-0.256313	-0.226908
O7	O	-2.053700	-0.238059	-0.267605
Cu8	Cu	-1.824136	-0.247184	-0.262882
Cu9	Cu	-1.824139	-0.247203	-0.060497
O10	O	-1.783687	-0.479155	-0.243670
C11	C	-1.536340	-0.254359	-0.136179
C12	C	-1.362823	-0.248494	-0.120798
C13	C	-1.870718	0.044210	-0.165817
C14	C	-1.888967	0.221304	-0.167429
C15	C	-1.111937	-0.240021	-0.187203
C16	C	-1.285459	-0.245866	-0.202592
C17	C	-1.777557	-0.538597	-0.157559
C18	C	-1.759308	-0.715692	-0.155941
N19	N	-1.824146	-0.247170	-0.405230
N20	N	-1.824143	-0.247205	0.081850
C21	C	-1.824137	-0.247190	0.501665
C22	C	-1.824133	-0.247199	0.384860
C23	C	-1.824139	-0.247197	0.291761
C24	C	-1.824137	-0.247207	0.174949
H25	H	-1.351978	-0.248104	-0.284397
C26	C	-1.590478	0.174148	-0.140970
N27	N	-1.463313	0.091166	-0.129691
H28	H	-1.296314	-0.246244	-0.038999
C29	C	-2.057805	0.331471	-0.182401
N30	N	-2.184972	0.414450	-0.193676
