data_functionalizedCrystal
_audit_creation_method	'MofGen! by Chris Wilmer'
_symmetry_space_group_name_H-M	'P1'
_symmetry_Int_Tables_number	1
_symmetry_cell_setting	triclinic
loop_
_symmetry_equiv_pos_as_xyz
  x,y,z
_cell_length_a	11.792241
_cell_length_b	14.044190
_cell_length_c	10.868271
_cell_angle_alpha	89.990065
_cell_angle_beta	89.999893
_cell_angle_gamma	88.692597
loop_
_atom_site_label
_atom_site_type_symbol
_atom_site_fract_x
_atom_site_fract_y
_atom_site_fract_z
O1	O	1.519115	0.129987	-0.102217
O2	O	2.019115	0.629987	0.397783
O3	O	1.190032	0.143384	-0.102247
O4	O	1.690032	0.643384	0.397753
O5	O	1.349630	-0.001325	-0.102208
O6	O	1.849630	0.498675	0.397792
O7	O	1.359517	0.274696	-0.102256
O8	O	1.859517	0.774696	0.397744
O9	O	1.349615	-0.001331	0.102436
O10	O	1.849615	0.498669	0.602436
O11	O	1.190017	0.143378	0.102398
O12	O	1.690017	0.643378	0.602398
O13	O	1.519100	0.129981	0.102428
O14	O	2.019100	0.629981	0.602428
Zn15	Zn	1.354556	0.136679	0.134904
Zn16	Zn	1.854556	0.636679	0.634904
Zn17	Zn	1.354576	0.136686	-0.134724
Zn18	Zn	1.854576	0.636686	0.365276
O19	O	1.359502	0.274690	0.102389
O20	O	1.859502	0.774690	0.602389
C21	C	1.147655	0.142539	0.000072
C22	C	1.647655	0.642539	0.500072
C23	C	1.021404	0.140021	0.000061
C24	C	1.521404	0.640021	0.500061
C25	C	1.345297	-0.036664	0.000117
C26	C	1.845297	0.463336	0.500117
C27	C	1.332395	-0.141957	0.000127
C28	C	1.832395	0.358043	0.500127
C29	C	0.790257	0.135389	0.000097
C30	C	1.290257	0.635389	0.500097
C31	C	0.918884	0.137962	0.000078
C32	C	1.418884	0.637962	0.500078
C33	C	1.400312	-0.391894	0.000085
C34	C	1.900312	0.108106	0.500085
C35	C	1.308825	-0.334735	0.000085
C36	C	1.808825	0.165265	0.500085
C37	C	1.321943	-0.227463	0.000108
C38	C	1.821943	0.272537	0.500108
C39	C	1.387197	-0.499176	0.000062
C40	C	1.887197	0.000824	0.500062
C41	C	1.561478	0.130826	0.000106
C42	C	2.061478	0.630826	0.500106
C43	C	1.687728	0.133344	0.000109
C44	C	2.187728	0.633344	0.500109
C45	C	1.363835	0.310029	0.000061
C46	C	1.863835	0.810029	0.500061
C47	C	1.376737	0.415322	0.000043
C48	C	1.876737	0.915322	0.500043
N49	N	1.354551	0.136673	0.318919
N50	N	1.854551	0.636673	0.818919
N51	N	1.354589	0.136684	-0.318738
N52	N	1.854589	0.636684	0.181262
C53	C	1.354570	0.136684	0.569925
C54	C	1.854570	0.636684	1.069925
C55	C	1.354556	0.136681	0.430247
C56	C	1.854556	0.636681	0.930247
H57	H	1.220649	-0.366364	0.000070
H58	H	1.720649	0.133636	0.500070
H59	H	1.488481	-0.360267	0.000106
H60	H	1.988481	0.139733	0.500106
