data_functionalizedCrystal
_audit_creation_method	'MofGen! by Chris Wilmer'
_symmetry_space_group_name_H-M	'P1'
_symmetry_Int_Tables_number	1
_symmetry_cell_setting	triclinic
loop_
_symmetry_equiv_pos_as_xyz
  x,y,z
_cell_length_a	29.839134
_cell_length_b	12.645330
_cell_length_c	12.645323
_cell_angle_alpha	90.024870
_cell_angle_beta	90.036278
_cell_angle_gamma	90.010060
loop_
_atom_site_label
_atom_site_type_symbol
_atom_site_fract_x
_atom_site_fract_y
_atom_site_fract_z
Zn1	Zn	-0.686839	0.422247	-0.599831
Zn2	Zn	-0.186839	0.922247	-0.099831
Zn3	Zn	-0.686789	0.599535	-0.422571
Zn4	Zn	-0.186789	1.099535	0.077429
Zn5	Zn	-0.611709	0.422262	-0.422533
Zn6	Zn	-0.111709	0.922262	0.077467
Zn7	Zn	-0.611701	0.599445	-0.599744
Zn8	Zn	-0.111701	1.099445	-0.099744
O9	O	-0.649259	0.510872	-0.511170
O10	O	-0.149259	1.010872	-0.011170
O11	O	-0.749700	0.445795	-0.576369
O12	O	-0.249700	0.945795	-0.076369
O13	O	-0.676812	0.576063	-0.274219
O14	O	-0.176812	1.076063	0.225781
O15	O	-0.621699	0.273913	-0.446073
O16	O	-0.121699	0.773913	0.053927
O17	O	-0.749663	0.576048	-0.446137
O18	O	-0.249663	1.076048	0.053863
O19	O	-0.676897	0.273901	-0.576332
O20	O	-0.176897	0.773901	-0.076332
O21	O	-0.621650	0.445822	-0.274191
O22	O	-0.121650	0.945822	0.225809
O23	O	-0.548840	0.445735	-0.445989
O24	O	-0.048840	0.945735	0.054011
O25	O	-0.621686	0.575895	-0.748103
O26	O	-0.121686	1.075895	-0.248103
O27	O	-0.548835	0.575910	-0.576185
O28	O	-0.048835	1.075910	-0.076185
O29	O	-0.676890	0.445708	-0.748167
O30	O	-0.176890	0.945708	-0.248167
O31	O	-0.676804	0.747870	-0.446053
O32	O	-0.176804	1.247870	0.053947
O33	O	-0.621637	0.747804	-0.576221
O34	O	-0.121637	1.247804	-0.076221
C35	C	-0.532537	0.510815	-0.511074
C36	C	-0.032537	1.010815	-0.011074
C37	C	-0.482602	0.510816	-0.511058
C38	C	0.017398	1.010816	-0.011058
C39	C	-0.649227	0.786302	-0.511155
C40	C	-0.149227	1.286302	-0.011155
C41	C	-0.649254	0.904132	-0.511184
C42	C	-0.149254	1.404132	-0.011184
C43	C	-0.126006	0.442981	-0.443478
C44	C	0.373994	0.942981	0.056522
C45	C	-0.313679	0.442954	-0.443427
C46	C	0.186321	0.942954	0.056573
O47	O	-0.337935	0.385194	-0.385892
O48	O	0.162065	0.885194	0.114108
N49	N	-0.337157	0.510831	-0.511101
N50	N	0.162843	1.010831	-0.011101
C51	C	-0.313715	0.578715	-0.578797
C52	C	0.186285	1.078715	-0.078797
O53	O	-0.337991	0.636440	-0.636365
O54	O	0.162009	1.136440	-0.136365
C55	C	-0.126042	0.578736	-0.578853
C56	C	0.373958	1.078736	-0.078853
C57	C	-0.102566	0.510862	-0.511167
C58	C	0.397434	1.010862	-0.011167
C59	C	-0.102530	0.375112	-0.375798
C60	C	0.397470	0.875112	0.124202
C61	C	-0.055614	0.375124	-0.375807
C62	C	0.444386	0.875124	0.124193
C63	C	-0.032175	0.443004	-0.443497
C64	C	0.467825	0.943004	0.056503
C65	C	-0.055651	0.510873	-0.511176
C66	C	0.444349	1.010873	-0.011176
C67	C	-0.102601	0.646613	-0.646554
C68	C	0.397399	1.146613	-0.146554
C69	C	-0.055680	0.646610	-0.646564
C70	C	0.444320	1.146610	-0.146564
C71	C	-0.032204	0.578737	-0.578878
C72	C	0.467796	1.078737	-0.078878
C73	C	0.014704	0.578765	-0.578875
C74	C	0.514704	1.078765	-0.078875
N75	N	0.038182	0.510889	-0.511201
N76	N	0.538182	1.010889	-0.011201
C77	C	0.014743	0.443008	-0.443512
C78	C	0.514743	0.943008	0.056488
C79	C	-0.412245	0.578701	-0.578762
C80	C	0.087755	1.078701	-0.078762
C81	C	-0.459163	0.578697	-0.578747
C82	C	0.040837	1.078697	-0.078747
C83	C	-0.459124	0.442935	-0.443378
C84	C	0.040876	0.942935	0.056622
C85	C	-0.412205	0.442945	-0.443388
C86	C	0.087795	0.942945	0.056612
C87	C	-0.388767	0.510824	-0.511088
C88	C	0.111233	1.010824	-0.011088
C89	C	0.113269	0.443038	-0.443536
C90	C	0.613269	0.943038	0.056464
C91	C	0.160189	0.443059	-0.443548
C92	C	0.660189	0.943059	0.056452
C93	C	0.160145	0.578816	-0.578921
C94	C	0.660145	1.078816	-0.078921
C95	C	0.113230	0.578800	-0.578905
C96	C	0.613230	1.078800	-0.078905
C97	C	0.089793	0.510902	-0.511209
C98	C	0.589793	1.010902	-0.011209
O99	O	0.038989	0.636487	-0.636387
O100	O	0.538989	1.136487	-0.136387
O101	O	0.039027	0.385275	-0.385969
O102	O	0.539027	0.885275	0.114031
C103	C	-0.172921	0.442970	-0.443468
C104	C	0.327079	0.942970	0.056532
C105	C	-0.196397	0.510839	-0.511148
C106	C	0.303603	1.010839	-0.011148
C107	C	-0.172958	0.578719	-0.578837
C108	C	0.327042	1.078719	-0.078837
C109	C	-0.243315	0.510835	-0.511133
C110	C	0.256685	1.010835	-0.011133
C111	C	-0.266754	0.442955	-0.443444
C112	C	0.233246	0.942955	0.056556
C113	C	-0.243276	0.375078	-0.375770
C114	C	0.256724	0.875078	0.124230
C115	C	-0.196360	0.375089	-0.375779
C116	C	0.303640	0.875089	0.124221
C117	C	-0.196436	0.646596	-0.646511
C118	C	0.303564	1.146596	-0.146511
C119	C	-0.243352	0.646580	-0.646496
C120	C	0.256648	1.146580	-0.146496
C121	C	-0.266791	0.578700	-0.578807
C122	C	0.233209	1.078700	-0.078807
C123	C	-0.649292	0.510790	-0.787675
C124	C	-0.149292	1.010790	-0.287675
C125	C	-0.649307	0.510755	-0.905506
C126	C	-0.149307	1.010755	-0.405506
C127	C	0.233562	0.510926	-0.511249
C128	C	0.733562	1.010926	-0.011249
C129	C	0.183628	0.510939	-0.511237
C130	C	0.683628	1.010939	-0.011237
C131	C	-0.649305	0.234367	-0.511208
C132	C	-0.149305	0.734367	-0.011208
C133	C	-0.649324	0.116537	-0.511224
C134	C	-0.149324	0.616537	-0.011224
C135	C	-0.614691	1.071699	-0.593326
C136	C	-0.114691	1.571699	-0.093326
C137	C	-0.614514	0.949139	-0.593062
C138	C	-0.114514	1.449139	-0.093062
C139	C	-0.636436	0.948722	-0.399455
C140	C	-0.136436	1.448722	0.100545
C141	C	-0.636225	1.071320	-0.399954
C142	C	-0.136225	1.571320	0.100046
C143	C	-0.696845	1.071236	-0.539866
C144	C	-0.196845	1.571236	-0.039866
C145	C	-0.696553	0.948629	-0.542309
C146	C	-0.196553	1.448629	-0.042309
C147	C	-0.614471	0.592270	-1.073030
C148	C	-0.114471	1.092270	-0.573030
C149	C	-0.614562	0.592673	-0.950470
C150	C	-0.114562	1.092673	-0.450470
C151	C	-0.696643	0.541089	-0.950052
C152	C	-0.196643	1.041089	-0.450052
C153	C	-0.696452	0.541600	-1.072650
C154	C	-0.196452	1.041600	-0.572650
C155	C	-0.637254	0.398452	-1.072697
C156	C	-0.137254	0.898452	-0.572697
C157	C	-0.636197	0.399124	-0.950090
C158	C	-0.136197	0.899124	-0.450090
C159	C	-0.649252	0.510877	-0.235740
C160	C	-0.149252	1.010877	0.264260
C161	C	-0.649325	0.510614	-0.117911
C162	C	-0.149325	1.010614	0.382089
H163	H	0.179301	0.387786	-0.388427
H164	H	0.679301	0.887786	0.111573
Cl165	Cl	-0.714897	1.118859	-0.663519
Cl166	Cl	-0.214897	1.618859	-0.163519
Cl167	Cl	-0.626955	1.117116	-0.721657
Cl168	Cl	-0.126955	1.617116	-0.221657
H169	H	-0.723715	0.917987	-0.486867
H170	H	-0.223715	1.417987	0.013133
Cl171	Cl	-0.711479	0.903629	-0.669261
Cl172	Cl	-0.211479	1.403629	-0.169261
H173	H	0.094192	0.387744	-0.388416
H174	H	0.594192	0.887744	0.111584
H175	H	-0.707051	0.622222	-0.919369
H176	H	-0.207051	1.122222	-0.419369
H177	H	0.094115	0.634076	-0.634012
H178	H	0.594115	1.134076	-0.134012
H179	H	-0.036504	0.319854	-0.320691
H180	H	0.463496	0.819854	0.179309
Cl181	Cl	-0.488670	0.664043	-0.663827
Cl182	Cl	0.011330	1.164043	-0.163827
H183	H	-0.603337	0.370805	-1.103582
H184	H	-0.103337	0.870805	-0.603582
Cl185	Cl	-0.673474	1.117126	-0.302278
Cl186	Cl	-0.173474	1.617126	0.197722
Cl187	Cl	-0.131988	0.289763	-0.290693
Cl188	Cl	0.368012	0.789763	0.209307
Cl189	Cl	-0.166855	0.289754	-0.290687
Cl190	Cl	0.333145	0.789754	0.209313
H191	H	-0.393094	0.387672	-0.388276
H192	H	0.106906	0.887672	0.111724
Cl193	Cl	-0.560640	1.119412	-0.564424
Cl194	Cl	-0.060640	1.619412	-0.064424
Cl195	Cl	-0.488599	0.357599	-0.358284
Cl196	Cl	0.011401	0.857599	0.141716
Cl197	Cl	-0.626894	0.902583	-0.720970
Cl198	Cl	-0.126894	1.402583	-0.220970
H199	H	-0.601487	1.100001	-0.375694
H200	H	-0.101487	1.600001	0.124306
H201	H	-0.660861	0.919571	-0.336610
H202	H	-0.160861	1.419571	0.163390
Cl203	Cl	-0.560121	0.903978	-0.563767
Cl204	Cl	-0.060121	1.403978	-0.063767
H205	H	-0.393166	0.633980	-0.633894
H206	H	0.106834	1.133980	-0.133894
H207	H	-0.723302	0.484708	-1.102344
H208	H	-0.223302	0.984708	-0.602344
H209	H	-0.602060	0.918100	-0.374757
H210	H	-0.102060	1.418100	0.125243
H211	H	-0.121707	0.701884	-0.701671
H212	H	0.378293	1.201884	-0.201671
H213	H	-0.601362	0.376249	-0.920971
H214	H	-0.101362	0.876249	-0.420971
H215	H	-0.722647	1.100232	-0.480068
H216	H	-0.222647	1.600232	0.019932
H217	H	-0.579265	0.573469	-1.102483
H218	H	-0.079265	1.073469	-0.602483
Cl219	Cl	-0.560368	0.563360	-0.903959
Cl220	Cl	-0.060368	1.063360	-0.403959
Cl221	Cl	-0.737815	0.452173	-0.905097
Cl222	Cl	-0.237815	0.952173	-0.405097
H223	H	-0.622362	0.674900	-1.103853
H224	H	-0.122362	1.174900	-0.603853
H225	H	-0.622531	0.675824	-0.921160
H226	H	-0.122531	1.175824	-0.421160
Cl227	Cl	-0.712248	0.668190	-1.116837
Cl228	Cl	-0.212248	1.168190	-0.616837
Cl229	Cl	-0.672533	0.300224	-0.902851
Cl230	Cl	-0.172533	0.800224	-0.402851
H231	H	-0.662640	0.337614	-1.101724
H232	H	-0.162640	0.837614	-0.601724
H233	H	0.179238	0.634087	-0.634028
H234	H	0.679238	1.134087	-0.134028
Cl235	Cl	-0.026217	0.731948	-0.731680
Cl236	Cl	0.473783	1.231948	-0.231680
Cl237	Cl	-0.166977	0.731943	-0.731614
Cl238	Cl	0.333023	1.231943	-0.231614
H239	H	-0.262368	0.319811	-0.320652
H240	H	0.237632	0.819811	0.179348
H241	H	-0.262462	0.701861	-0.701612
H242	H	0.237538	1.201861	-0.201612
