data_functionalizedCrystal
_audit_creation_method	'MofGen! by Chris Wilmer'
_symmetry_space_group_name_H-M	'P1'
_symmetry_Int_Tables_number	1
_symmetry_cell_setting	triclinic
loop_
_symmetry_equiv_pos_as_xyz
  x,y,z
_cell_length_a	29.839131
_cell_length_b	29.839134
_cell_length_c	16.120297
_cell_angle_alpha	92.867078
_cell_angle_beta	87.132273
_cell_angle_gamma	89.963233
loop_
_atom_site_label
_atom_site_type_symbol
_atom_site_fract_x
_atom_site_fract_y
_atom_site_fract_z
Zn1	Zn	-0.191806	-0.673862	0.471613
Zn2	Zn	-0.263124	-0.677595	0.332195
Zn3	Zn	-0.188003	-0.602546	0.332191
Zn4	Zn	-0.266901	-0.598695	0.471531
O5	O	-0.227458	-0.638175	0.401883
O6	O	-0.201277	-0.737224	0.453155
O7	O	-0.249986	-0.670814	0.215533
O8	O	-0.125641	-0.612056	0.350717
O9	O	-0.253674	-0.739966	0.350726
O10	O	-0.128435	-0.664451	0.453150
O11	O	-0.194795	-0.615675	0.215530
O12	O	-0.198458	-0.539169	0.350638
O13	O	-0.260112	-0.605492	0.588204
O14	O	-0.256424	-0.536340	0.453011
O15	O	-0.204940	-0.660717	0.588263
O16	O	-0.326491	-0.667080	0.350647
O17	O	-0.329266	-0.609112	0.453016
C18	C	-0.227438	-0.521454	0.401816
C19	C	-0.227441	-0.471520	0.401807
C20	C	-0.344180	-0.638095	0.401841
C21	C	-0.394115	-0.638101	0.401851
C22	C	-0.257686	-0.160413	0.455097
C23	C	-0.257701	0.027261	0.455123
O24	O	-0.283391	0.052769	0.500409
N25	N	-0.227481	0.049268	0.401907
C26	C	-0.197254	0.024354	0.348685
O27	O	-0.171548	0.047379	0.303428
C28	C	-0.197238	-0.163319	0.348663
C29	C	-0.227462	-0.185324	0.401876
C30	C	-0.287907	-0.182418	0.508306
C31	C	-0.287905	-0.229334	0.508296
C32	C	-0.257681	-0.254244	0.455076
C33	C	-0.227459	-0.232239	0.401866
C34	C	-0.167009	-0.188232	0.295445
C35	C	-0.167006	-0.235153	0.295446
C36	C	-0.197231	-0.257158	0.348659
C37	C	-0.197233	-0.304066	0.348635
N38	N	-0.227452	-0.326073	0.401851
C39	C	-0.257676	-0.301162	0.455071
C40	C	-0.197266	0.122885	0.348699
C41	C	-0.197270	0.169803	0.348703
C42	C	-0.257716	0.172707	0.455143
C43	C	-0.257713	0.125788	0.455134
C44	C	-0.227485	0.100878	0.401915
C45	C	-0.257669	-0.399689	0.455045
C46	C	-0.257665	-0.446609	0.455027
C47	C	-0.197218	-0.449508	0.348591
C48	C	-0.197223	-0.402592	0.348605
C49	C	-0.227450	-0.377684	0.401839
O50	O	-0.171552	-0.329602	0.303380
O51	O	-0.283372	-0.324195	0.500334
C52	C	-0.257688	-0.113497	0.455107
C53	C	-0.227467	-0.091492	0.401897
C54	C	-0.197243	-0.116403	0.348677
C55	C	-0.227471	-0.044574	0.401901
C56	C	-0.257695	-0.019664	0.455122
C57	C	-0.287914	-0.041671	0.508338
C58	C	-0.287912	-0.088587	0.508327
C59	C	-0.167024	-0.094395	0.295461
C60	C	-0.167029	-0.047480	0.295475
C61	C	-0.197253	-0.022569	0.348695
C62	C	-0.702303	-0.668409	0.348657
C63	C	-0.889977	-0.668463	0.348689
O64	O	-0.913004	-0.694168	0.303429
N65	N	-0.914902	-0.638266	0.401945
C66	C	-0.892906	-0.608055	0.455201
O67	O	-0.918413	-0.582375	0.500506
C68	C	-0.705233	-0.608003	0.455173
C69	C	-0.680310	-0.638199	0.401907
C70	C	-0.677381	-0.698602	0.295396
C71	C	-0.630465	-0.698587	0.295385
C72	C	-0.608472	-0.668377	0.348635
C73	C	-0.633394	-0.638184	0.401896
C74	C	-0.683238	-0.577795	0.508432
C75	C	-0.636316	-0.577785	0.508422
C76	C	-0.611394	-0.607981	0.455156
C77	C	-0.564486	-0.607959	0.455135
N78	N	-0.539561	-0.638156	0.401879
C79	C	-0.561554	-0.668365	0.348629
C80	C	-0.991437	-0.608084	0.455212
C81	C	-1.038355	-0.608097	0.455218
C82	C	-1.035423	-0.668505	0.348706
C83	C	-0.988504	-0.668490	0.348697
C84	C	-0.966512	-0.638281	0.401955
C85	C	-0.463027	-0.668330	0.348610
C86	C	-0.416108	-0.668310	0.348601
C87	C	-0.419044	-0.607903	0.455116
C88	C	-0.465959	-0.607921	0.455121
C89	C	-0.487950	-0.638138	0.401866
O90	O	-0.541429	-0.582270	0.500378
O91	O	-0.536040	-0.694048	0.303344
C92	C	-0.749219	-0.668424	0.348667
C93	C	-0.774142	-0.638230	0.401928
C94	C	-0.752149	-0.608021	0.455178
C95	C	-0.821060	-0.638243	0.401935
C96	C	-0.843053	-0.668452	0.348685
C97	C	-0.818128	-0.698649	0.295428
C98	C	-0.771212	-0.698634	0.295417
C99	C	-0.777074	-0.577824	0.508435
C100	C	-0.823989	-0.577842	0.508441
C101	C	-0.845982	-0.608051	0.455190
C102	C	-0.110282	-0.638267	0.401942
C103	C	-0.060348	-0.638306	0.401968
C104	C	-0.233372	-0.632259	0.619328
C105	C	-0.235891	-0.629738	0.711991
C106	C	-0.227480	0.244649	0.401936
C107	C	-0.227494	0.194714	0.401923
C108	C	-0.221536	-0.644093	0.185283
C109	C	-0.218889	-0.646702	0.092621
C110	C	-0.240482	-0.625118	0.881646
C111	C	-0.214300	-0.651319	0.922971
C112	C	-0.216854	-0.648749	1.017373
C113	C	-0.237928	-0.627688	0.787235
H114	H	-0.282279	-0.464523	0.498361
O115	O	-0.961622	-0.701064	0.291261
H116	H	-0.968867	-0.695176	0.225814
H117	H	-0.264814	-0.600759	0.917162
H118	H	-0.282282	-0.379414	0.498395
O119	O	-0.320497	-0.253065	0.565703
H120	H	-0.341507	-0.227855	0.602714
O121	O	-0.134403	-0.262015	0.238035
H122	H	-0.112588	-0.282393	0.275417
O123	O	-0.320506	-0.112318	0.565730
H124	H	-0.341517	-0.087108	0.602740
O125	O	-0.164632	-0.378866	0.291183
H126	H	-0.183555	-0.358631	0.248701
O127	O	-1.065230	-0.575522	0.512663
H128	H	-1.085614	-0.553699	0.475308
H129	H	-0.282324	0.107874	0.498466
O130	O	-0.320557	-0.155556	0.565616
H131	H	-0.341587	-0.178748	0.602571
H132	H	-0.610175	-0.723176	0.252014
O133	O	-0.290313	0.199578	0.512555
H134	H	-0.285232	0.235899	0.503618
O135	O	-0.164674	0.193536	0.291305
H136	H	-0.143655	0.168327	0.254307
O137	O	-0.164671	0.096019	0.291275
H138	H	-0.143667	0.119209	0.254265
H139	H	-0.142398	-0.170324	0.252111
H140	H	-0.189966	-0.675681	0.887453
H141	H	-0.172612	-0.469799	0.305258
H142	H	-0.618413	-0.553186	0.551794
O143	O	-0.389229	-0.700886	0.291156
H144	H	-0.352908	-0.695802	0.300087
H145	H	-0.312525	-0.021380	0.551669
H146	H	-0.480926	-0.692936	0.305246
H147	H	-0.759171	-0.553224	0.551799
O148	O	-0.134427	-0.023747	0.238079
H149	H	-0.113408	-0.048956	0.201081
H150	H	-0.142411	-0.114673	0.252122
H151	H	-0.695282	-0.723205	0.252033
O152	O	-1.059148	-0.701097	0.291285
H153	H	-1.095959	-0.696034	0.300252
H154	H	-0.703522	-0.553204	0.551803
O155	O	-0.967724	-0.575488	0.512644
H156	H	-0.978495	-0.581377	0.578092
O157	O	-0.492845	-0.575353	0.512568
H158	H	-0.469667	-0.554346	0.549596
H159	H	-0.750923	-0.723222	0.252043
O160	O	-0.395320	-0.575320	0.512549
H161	H	-0.375075	-0.594252	0.555001
O162	O	-0.841853	-0.731242	0.238009
H163	H	-0.878665	-0.726181	0.246981
H164	H	-0.844278	-0.553248	0.551815
