data_functionalizedCrystal
_audit_creation_method	'MofGen! by Chris Wilmer'
_symmetry_space_group_name_H-M	'P1'
_symmetry_Int_Tables_number	1
_symmetry_cell_setting	triclinic
loop_
_symmetry_equiv_pos_as_xyz
  x,y,z
_cell_length_a	12.759400
_cell_length_b	18.101398
_cell_length_c	12.759393
_cell_angle_alpha	90.030814
_cell_angle_beta	89.969553
_cell_angle_gamma	89.991659
loop_
_atom_site_label
_atom_site_type_symbol
_atom_site_fract_x
_atom_site_fract_y
_atom_site_fract_z
Zn1	Zn	-0.418339	-1.132233	-0.594335
Zn2	Zn	-0.594058	-1.132162	-0.418658
Zn3	Zn	-0.418379	-1.008386	-0.418636
Zn4	Zn	-0.593962	-1.008381	-0.594262
O5	O	-0.506185	-1.070291	-0.506473
O6	O	-0.441672	-1.235856	-0.571070
O7	O	-0.570811	-1.115715	-0.271634
O8	O	-0.271353	-1.024846	-0.441964
O9	O	-0.570772	-1.235804	-0.442002
O10	O	-0.271324	-1.115836	-0.571049
O11	O	-0.441740	-1.024777	-0.271618
O12	O	-0.441647	-0.904753	-0.441894
O13	O	-0.570609	-1.024838	-0.741293
O14	O	-0.570647	-0.904749	-0.570925
O15	O	-0.441579	-1.115832	-0.741346
O16	O	-0.741067	-1.115710	-0.441931
O17	O	-0.740996	-1.024769	-0.570947
C18	C	-0.506142	-0.877880	-0.506400
C19	C	-0.506149	-0.795566	-0.506394
C20	C	-0.506161	-0.644858	-0.506428
C21	C	-0.424879	-0.613481	-0.425378
C22	C	-0.424568	-0.527863	-0.425637
C23	C	-0.506172	-0.496475	-0.506461
C24	C	-0.476607	-0.527612	-0.617309
C25	C	-0.476010	-0.613257	-0.616822
C26	C	-0.617216	-0.613277	-0.477605
C27	C	-0.616626	-0.527626	-0.475183
C28	C	-0.506181	-0.412616	-0.506486
C29	C	-0.506150	-0.728717	-0.506411
C30	C	-0.779152	-1.070252	-0.506456
C31	C	-0.895929	-1.070303	-0.506484
C32	C	-0.950696	-1.117658	-0.573754
C33	C	-1.060420	-1.117692	-0.573779
C34	C	-1.060600	-1.023015	-0.439257
C35	C	-0.950878	-1.022977	-0.439237
C36	C	-0.950593	-1.172321	-0.651416
C37	C	-1.060317	-1.172355	-0.651442
C38	C	-0.232151	-1.070350	-0.506513
C39	C	-0.115375	-1.070375	-0.506529
C40	C	-0.506079	-1.070342	-0.780506
C41	C	-0.506034	-1.070365	-0.897283
C42	C	-0.506213	-0.263453	-0.506526
C43	C	-0.506184	-0.345767	-0.506496
C44	C	-0.438842	-1.117751	-0.952175
C45	C	-0.438804	-1.117769	-1.061899
C46	C	-0.573159	-1.023011	-1.061830
C47	C	-0.573190	-1.022990	-0.952108
C48	C	-0.361276	-1.172461	-0.952215
C49	C	-0.361238	-1.172479	-1.061939
C50	C	-0.506214	-1.070282	-0.233505
C51	C	-0.505964	-1.070403	-0.116729
H52	H	-0.443119	-0.634024	-0.342929
H53	H	-0.343054	-0.635011	-0.444268
H54	H	-0.396337	-0.506175	-0.642099
F55	F	-0.317011	-0.501091	-0.450646
H56	H	-0.394844	-0.633244	-0.641185
F57	F	-0.644690	-0.972545	-0.893692
F58	F	-0.254927	-1.152403	-0.913309
H59	H	-0.283926	-1.151956	-1.095979
F60	F	-1.104754	-1.145500	-0.752451
H61	H	-0.390451	-1.226930	-0.918196
H62	H	-0.906288	-0.984411	-0.384471
H63	H	-0.383037	-1.229836	-1.091736
H64	H	-0.443015	-0.506807	-0.343458
F65	F	-0.551625	-0.501047	-0.698425
F66	F	-0.645781	-0.501021	-0.368553
F67	F	-0.550057	-0.640395	-0.698484
F68	F	-0.652506	-0.641460	-0.373721
F69	F	-0.644627	-0.972595	-1.120188
F70	F	-0.911611	-1.152193	-0.757734
F71	F	-0.699971	-0.499723	-0.546695
H72	H	-0.916532	-1.226802	-0.622344
F73	F	-1.119090	-0.972649	-0.367694
H74	H	-1.090060	-1.229731	-0.629745
F75	F	-0.696370	-0.639817	-0.554744
