data_functionalizedCrystal
_audit_creation_method	'MofGen! by Chris Wilmer'
_symmetry_space_group_name_H-M	'P1'
_symmetry_Int_Tables_number	1
_symmetry_cell_setting	triclinic
loop_
_symmetry_equiv_pos_as_xyz
  x,y,z
_cell_length_a	10.654569
_cell_length_b	9.130313
_cell_length_c	10.654550
_cell_angle_alpha	90.004369
_cell_angle_beta	95.511198
_cell_angle_gamma	90.000313
loop_
_atom_site_label
_atom_site_type_symbol
_atom_site_fract_x
_atom_site_fract_y
_atom_site_fract_z
O1	O	-1.667826	0.121670	0.176512
O2	O	-1.302350	0.121701	0.193293
O3	O	-1.493491	0.121675	0.002164
O4	O	-1.476685	0.121695	0.367641
O5	O	-1.493478	-0.121924	0.002158
O6	O	-1.302337	-0.121898	0.193288
O7	O	-1.667812	-0.121929	0.176506
Cu8	Cu	-1.485073	-0.144156	0.184897
Cu9	Cu	-1.485089	0.143928	0.184903
O10	O	-1.476672	-0.121904	0.367636
C11	C	-1.255546	-0.000095	0.192053
C12	C	-1.116104	-0.000083	0.188352
C13	C	-1.050591	0.132699	0.186619
C14	C	-0.919567	0.132691	0.183162
C15	C	-0.919583	-0.132894	0.183165
C16	C	-1.050603	-0.132884	0.186631
C17	C	-0.731527	0.292216	0.251876
C18	C	-0.666012	0.425005	0.250122
C19	C	-0.717504	0.542243	0.177783
C20	C	-0.834513	0.526697	0.107168
C21	C	-0.900023	0.393905	0.108911
C22	C	-0.848529	0.276673	0.181279
C23	C	-1.238647	-0.292400	0.117907
C24	C	-1.304160	-0.425193	0.119641
C25	C	-1.252671	-0.542443	0.191972
C26	C	-1.135661	-0.526911	0.262568
C27	C	-1.070147	-0.394118	0.260835
C28	C	-1.121645	-0.276868	0.188506
N29	N	-1.485072	-0.346779	0.184891
C30	C	-1.569738	-0.423442	0.100295
C31	C	-1.569750	-0.576779	0.100295
C32	C	-1.400426	-0.576776	0.269499
C33	C	-1.400409	-0.423442	0.269491
C34	C	-0.714617	-0.000123	0.177742
C35	C	-0.854061	-0.000102	0.181429
C36	C	-1.492250	-0.000123	-0.044637
C37	C	-1.488558	-0.000121	-0.184080
N38	N	-1.485101	0.346550	0.184899
C39	C	-1.601099	-0.000130	-0.263558
C40	C	-1.597623	-0.000112	-0.394579
C41	C	-1.369055	-0.000081	-0.366632
C42	C	-1.372533	-0.000089	-0.235613
C43	C	-1.477912	-0.000102	0.414437
C44	C	-1.481604	-0.000095	0.553880
H45	H	-0.664157	0.650366	0.176364
H46	H	-0.876424	0.622164	0.048256
H47	H	-1.280883	-0.000077	-0.170898
C48	C	-0.551727	0.419501	0.455581
C49	C	-0.537407	0.442098	0.327754
H50	H	-0.472332	0.430065	0.503502
H51	H	-0.583368	0.323649	0.466969
H52	H	-0.609177	0.489486	0.482967
H53	H	-0.479963	0.372106	0.300366
H54	H	-0.505748	0.537964	0.316360
H55	H	-0.689597	0.196766	0.310799
H56	H	-1.103917	0.240835	0.188027
H57	H	-1.638674	-0.361027	0.031406
H58	H	-0.866236	-0.241016	0.181761
H59	H	-1.331497	-0.639210	0.338380
H60	H	-1.638691	-0.639194	0.031408
H61	H	-1.331457	-0.361018	0.338380
H62	H	-1.306021	-0.650573	0.193369
C63	C	-1.826677	-0.000130	-0.304348
C64	C	-1.728632	-0.000138	-0.206912
H65	H	-1.905411	-0.000121	-0.269377
H66	H	-1.820568	-0.085073	-0.354872
H67	H	-1.820554	0.084825	-0.354863
H68	H	-1.734749	-0.085099	-0.156402
H69	H	-1.734745	0.084813	-0.156367
H70	H	-0.974844	-0.381500	0.318279
C71	C	-1.726330	0.125116	-0.558103
C72	C	-1.721333	-0.000120	-0.481939
H73	H	-1.802712	0.125115	-0.612027
H74	H	-1.656748	0.125121	-0.607547
H75	H	-1.722939	0.210048	-0.506383
H76	H	-1.724715	-0.085052	-0.533659
H77	H	-1.790934	-0.000139	-0.432490
C78	C	-1.262234	-0.000075	-0.555066
C79	C	-1.241524	-0.000068	-0.423282
H80	H	-1.183498	-0.000080	-0.590034
H81	H	-1.308614	0.084865	-0.582265
H82	H	-1.308619	-0.085032	-0.582271
H83	H	-1.195147	0.084895	-0.396076
H84	H	-1.195124	-0.085017	-0.396071
H85	H	-1.280586	-0.196926	0.059012
C86	C	-1.059933	0.507700	-0.032680
C87	C	-1.028589	0.376771	0.031229
H88	H	-1.139299	0.497115	-0.080650
H89	H	-0.997269	0.530073	-0.087397
H90	H	-1.064510	0.584702	0.026671
H91	H	-1.024003	0.299770	-0.028122
H92	H	-1.091270	0.354380	0.085951
C93	C	-1.161269	-0.775623	0.328704
C94	C	-1.079055	-0.655791	0.342084
H95	H	-1.126325	-0.855187	0.377796
H96	H	-1.173055	-0.803790	0.242558
H97	H	-1.240179	-0.749163	0.356703
H98	H	-1.000147	-0.682248	0.314075
H99	H	-1.067253	-0.627621	0.428247
H100	H	-1.399442	-0.437828	0.062160
