data_functionalizedCrystal
_audit_creation_method	'MofGen! by Chris Wilmer'
_symmetry_space_group_name_H-M	'P1'
_symmetry_Int_Tables_number	1
_symmetry_cell_setting	triclinic
loop_
_symmetry_equiv_pos_as_xyz
  x,y,z
_cell_length_a	18.215407
_cell_length_b	12.759399
_cell_length_c	18.215399
_cell_angle_alpha	90.024962
_cell_angle_beta	89.980167
_cell_angle_gamma	89.984436
loop_
_atom_site_label
_atom_site_type_symbol
_atom_site_fract_x
_atom_site_fract_y
_atom_site_fract_z
Zn1	Zn	1.125122	0.418265	-0.416131
Zn2	Zn	1.625122	0.918265	0.083869
Zn3	Zn	1.125051	0.593962	-0.293071
Zn4	Zn	1.625051	1.093962	0.206929
Zn5	Zn	1.002054	0.418299	-0.293079
Zn6	Zn	1.502054	0.918299	0.206921
Zn7	Zn	1.002041	0.593903	-0.416096
Zn8	Zn	1.502041	1.093903	0.083904
O9	O	1.063567	0.506107	-0.354594
O10	O	1.563567	1.006107	0.145406
O11	O	1.228097	0.441581	-0.399819
O12	O	1.728097	0.941581	0.100181
O13	O	1.108711	0.570699	-0.190088
O14	O	1.608711	1.070699	0.309912
O15	O	1.018415	0.271273	-0.309419
O16	O	1.518415	0.771273	0.190581
O17	O	1.228045	0.570665	-0.309407
O18	O	1.728045	1.070665	0.190593
O19	O	1.108832	0.271248	-0.399826
O20	O	1.608832	0.771248	0.100174
O21	O	1.018346	0.441640	-0.190093
O22	O	1.518346	0.941640	0.309907
O23	O	0.899068	0.441583	-0.309385
O24	O	1.399068	0.941583	0.190615
O25	O	1.018392	0.570566	-0.519085
O26	O	1.518392	1.070566	-0.019085
O27	O	0.899059	0.570599	-0.399766
O28	O	1.399059	1.070599	0.100234
O29	O	1.108819	0.441525	-0.519111
O30	O	1.608819	0.941525	-0.019111
O31	O	1.108699	0.740975	-0.309373
O32	O	1.608699	1.240975	0.190627
O33	O	1.018324	0.740932	-0.399759
O34	O	1.518324	1.240932	0.100241
C35	C	1.063522	0.779075	-0.354578
C36	C	1.563522	1.279075	0.145422
C37	C	1.063570	0.895851	-0.354595
C38	C	1.563570	1.395851	0.145405
C39	C	0.872361	0.506089	-0.354573
C40	C	1.372361	1.006089	0.145427
C41	C	0.790562	0.506107	-0.354582
C42	C	1.290562	1.006107	0.145418
C43	C	1.063612	0.506035	-0.546547
C44	C	1.563612	1.006035	-0.046547
C45	C	1.063631	0.506004	-0.628346
C46	C	1.563631	1.006004	-0.128346
C47	C	0.602382	0.573391	-0.401584
C48	C	1.102382	1.073391	0.098416
C49	C	0.525524	0.573394	-0.401593
C50	C	1.025524	1.073394	0.098407
C51	C	0.525504	0.438842	-0.307621
C52	C	1.025504	0.938842	0.192379
C53	C	0.602361	0.438835	-0.307616
C54	C	1.102361	0.938835	0.192384
C55	C	0.640799	0.506115	-0.354596
C56	C	1.140799	1.006115	0.145404
C57	C	0.487083	0.506126	-0.354610
C58	C	0.987083	1.006126	0.145390
C59	C	0.403749	0.506129	-0.354620
C60	C	0.903749	1.006129	0.145380
C61	C	0.724138	0.506111	-0.354588
C62	C	1.224138	1.006111	0.145412
C63	C	1.255520	0.506126	-0.354616
C64	C	1.755520	1.006126	0.145384
C65	C	1.337319	0.506134	-0.354625
C66	C	1.837319	1.006134	0.145375
C67	C	1.063633	0.232074	-0.354627
C68	C	1.563633	0.732074	0.145373
C69	C	1.063660	0.115297	-0.354641
C70	C	1.563660	0.615297	0.145359
C71	C	1.110682	0.950701	-0.307585
C72	C	1.610682	1.450701	0.192415
C73	C	1.110729	1.060425	-0.307609
C74	C	1.610729	1.560425	0.192391
C75	C	1.016546	1.060440	-0.401657
C76	C	1.516546	1.560440	0.098343
C77	C	1.016503	0.950718	-0.401635
C78	C	1.516503	1.450718	0.098365
C79	C	1.110733	0.438749	-0.816555
C80	C	1.610733	0.938749	-0.316555
C81	C	1.110742	0.438719	-0.893414
C82	C	1.610742	0.938719	-0.393414
C83	C	1.016581	0.573096	-0.893376
C84	C	1.516581	1.073096	-0.393376
C85	C	1.016569	0.573120	-0.816518
C86	C	1.516569	1.073120	-0.316518
C87	C	1.063649	0.505949	-0.778110
C88	C	1.563649	1.005949	-0.278110
C89	C	1.063670	0.505894	-0.931826
C90	C	1.563670	1.005894	-0.431826
C91	C	1.063679	0.505861	-1.015160
C92	C	1.563679	1.005861	-0.515160
C93	C	1.063639	0.505980	-0.694771
C94	C	1.563639	1.005980	-0.194771
C95	C	1.063565	0.506103	-0.163388
C96	C	1.563565	1.006103	0.336612
C97	C	1.063688	0.505838	-0.081590
C98	C	1.563688	1.005838	0.418410
H99	H	0.633676	0.628172	-0.439840
H100	H	1.133676	1.128172	0.060160
C101	C	0.964768	1.120804	-0.453390
C102	C	1.464768	1.620804	0.046610
N103	N	0.925763	1.166269	-0.492354
N104	N	1.425763	1.666269	0.007646
C105	C	1.162540	0.364796	-0.935700
C106	C	1.662540	0.864796	-0.435700
N107	N	1.201556	0.309115	-0.967549
N108	N	1.701556	0.809115	-0.467549
H109	H	0.978252	0.627787	-0.924657
H110	H	1.478252	1.127787	-0.424657
H111	H	0.978139	0.906057	-0.439920
H112	H	1.478139	1.406057	0.060080
H113	H	0.978223	0.627841	-0.785215
H114	H	1.478223	1.127841	-0.285215
C115	C	0.483269	0.647413	-0.453276
C116	C	0.983269	1.147413	0.046724
N117	N	0.451444	0.703170	-0.492204
N118	N	0.951444	1.203170	0.007796
H119	H	0.633641	0.384044	-0.269353
H120	H	1.133641	0.884044	0.230647
C121	C	0.483216	0.364844	-0.255941
C122	C	0.983216	0.864844	0.244059
N123	N	0.451365	0.309109	-0.217014
N124	N	0.951365	0.809109	0.282986
H125	H	1.149008	0.906030	-0.269283
H126	H	1.649008	1.406030	0.230717
H127	H	1.149094	1.105078	-0.269330
H128	H	1.649094	1.605078	0.230670
C129	C	1.162516	0.364849	-0.774308
C130	C	1.662516	0.864849	-0.274308
N131	N	1.201519	0.309182	-0.742490
N132	N	1.701519	0.809182	-0.242490
