data_functionalizedCrystal
_audit_creation_method	'MofGen! by Chris Wilmer'
_symmetry_space_group_name_H-M	'P1'
_symmetry_Int_Tables_number	1
_symmetry_cell_setting	triclinic
loop_
_symmetry_equiv_pos_as_xyz
  x,y,z
_cell_length_a	15.995350
_cell_length_b	14.044220
_cell_length_c	13.101039
_cell_angle_alpha	86.332523
_cell_angle_beta	86.648674
_cell_angle_gamma	91.659374
loop_
_atom_site_label
_atom_site_type_symbol
_atom_site_fract_x
_atom_site_fract_y
_atom_site_fract_z
O1	O	1.124319	-0.116957	-0.085064
O2	O	0.881672	-0.132043	-0.085100
O3	O	0.999353	0.013484	-0.085072
O4	O	1.006638	-0.262484	-0.085091
O5	O	0.990911	0.003025	0.085356
O6	O	0.873230	-0.142501	0.085328
O7	O	1.115877	-0.127416	0.085364
Zn8	Zn	0.993213	-0.136619	0.112405
Zn9	Zn	1.004336	-0.122840	-0.112141
O10	O	0.998196	-0.272943	0.085336
C11	C	0.846210	-0.136648	0.000110
C12	C	0.753121	-0.134777	0.000097
C13	C	1.151339	-0.122811	0.000152
C14	C	1.244429	-0.124681	0.000159
C15	C	0.991943	0.043569	0.000142
C16	C	0.982432	0.148795	0.000142
C17	C	1.582680	-0.131394	0.000117
C18	C	1.542968	-0.235060	0.000495
C19	C	1.446157	-0.233167	0.000122
C20	C	1.414870	-0.128064	0.000138
C21	C	1.456933	-0.070971	-0.097182
C22	C	1.553768	-0.073569	-0.097275
C23	C	1.544399	-0.083322	0.096534
C24	C	1.447392	-0.083427	0.097831
C25	C	1.320031	-0.126177	0.000147
C26	C	1.677519	-0.133278	0.000102
C27	C	1.005606	-0.303028	0.000120
C28	C	1.015117	-0.408253	0.000114
N29	N	0.985628	-0.146023	0.265652
C30	C	0.965045	0.341457	0.000124
C31	C	1.032501	0.399090	0.000131
C32	C	1.022826	0.506294	0.000121
C33	C	0.974718	0.234243	0.000134
N34	N	1.011927	-0.113428	-0.265388
C35	C	0.975309	-0.158826	0.474692
C36	C	1.022244	-0.100629	0.525579
C37	C	1.016502	-0.107752	0.641896
C38	C	0.981050	-0.151703	0.358364
H39	H	1.417292	-0.277636	0.069881
O40	O	1.567057	-0.295622	0.092920
H41	H	1.607596	-0.252489	0.139575
O42	O	1.118626	0.357811	0.000162
H43	H	1.112810	0.278864	0.000179
O44	O	1.081185	-0.027546	0.467576
H45	H	1.114679	0.013992	0.522799
O46	O	1.430817	0.031604	-0.101965
H47	H	1.487142	0.079502	-0.100897
H48	H	0.900034	0.372627	0.000112
O49	O	0.916386	-0.231923	0.532685
H50	H	0.870276	-0.195041	0.581582
O51	O	1.577524	-0.284039	-0.091458
H52	H	1.646553	-0.288239	-0.088746
O53	O	1.417800	-0.281153	-0.092389
H54	H	1.473262	-0.305784	-0.137047
O55	O	1.427601	-0.112112	-0.193127
H56	H	1.383088	-0.173198	-0.171743
O57	O	1.589248	0.027580	-0.103124
H58	H	1.658610	0.026484	-0.103225
H59	H	1.578444	-0.106384	-0.170030
H60	H	1.563831	-0.121733	0.170292
H61	H	1.426017	-0.007141	0.103717
O62	O	1.410234	-0.138726	0.193207
H63	H	1.368768	-0.197753	0.171137
O64	O	1.578871	0.017840	0.097428
H65	H	1.623054	0.033847	0.029576
