data_functionalizedCrystal
_audit_creation_method	'MofGen! by Chris Wilmer'
_symmetry_space_group_name_H-M	'P1'
_symmetry_Int_Tables_number	1
_symmetry_cell_setting	triclinic
loop_
_symmetry_equiv_pos_as_xyz
  x,y,z
_cell_length_a	25.639243
_cell_length_b	25.639240
_cell_length_c	25.639233
_cell_angle_alpha	90.025929
_cell_angle_beta	90.015962
_cell_angle_gamma	90.035481
loop_
_atom_site_label
_atom_site_type_symbol
_atom_site_fract_x
_atom_site_fract_y
_atom_site_fract_z
Zn1	Zn	0.799247	-0.208176	0.295630
Zn2	Zn	0.799179	-0.295595	0.208183
Zn3	Zn	0.711823	-0.208180	0.208203
Zn4	Zn	0.711777	-0.295587	0.295582
O5	O	0.755506	-0.251885	0.251900
O6	O	0.872403	-0.219775	0.284041
O7	O	0.787582	-0.284004	0.135020
O8	O	0.723467	-0.135014	0.219829
O9	O	0.872353	-0.284001	0.219794
O10	O	0.787697	-0.135012	0.284061
O11	O	0.723402	-0.219781	0.135035
O12	O	0.638652	-0.219772	0.219783
O13	O	0.723389	-0.283987	0.368754
O14	O	0.638618	-0.283990	0.283980
O15	O	0.787653	-0.219767	0.368789
O16	O	0.787538	-0.368759	0.219749
O17	O	0.723324	-0.368753	0.283960
C18	C	0.619664	-0.251881	0.251879
C19	C	0.561550	-0.251892	0.251882
C20	C	0.201207	-0.218495	0.285409
C21	C	0.146603	-0.218494	0.285412
O22	O	0.118383	-0.190088	0.313891
N23	N	0.119267	-0.251883	0.251914
C24	C	0.146539	-0.285271	0.218407
O25	O	0.118274	-0.313670	0.189914
C26	C	0.201142	-0.285268	0.218401
C27	C	0.228475	-0.251881	0.251905
C28	C	0.228540	-0.185109	0.318909
C29	C	0.283140	-0.185111	0.318907
C30	C	0.310408	-0.218497	0.285403
C31	C	0.283076	-0.251882	0.251903
C32	C	0.228413	-0.318653	0.184892
C33	C	0.283020	-0.318647	0.184889
C34	C	0.310353	-0.285260	0.218393
C35	C	0.364944	-0.285270	0.218396
N36	N	0.392279	-0.251881	0.251894
C37	C	0.365011	-0.218494	0.285398
C38	C	0.031869	-0.285273	0.218420
C39	C	-0.022734	-0.285279	0.218428
C40	C	-0.022667	-0.218501	0.285432
C41	C	0.031937	-0.218498	0.285427
C42	C	0.059204	-0.251884	0.251918
C43	C	0.479676	-0.218500	0.285390
C44	C	0.534282	-0.218506	0.285386
C45	C	0.534210	-0.285281	0.218380
C46	C	0.479609	-0.285278	0.218385
C47	C	0.452344	-0.251883	0.251892
O48	O	0.393198	-0.313659	0.189930
O49	O	0.393283	-0.190095	0.313881
C50	C	0.755433	-0.387727	0.251859
C51	C	0.755449	-0.445841	0.251859
C52	C	0.788967	-0.806164	0.285405
C53	C	0.788983	-0.860769	0.285416
O54	O	0.817394	-0.888972	0.313897
N55	N	0.755579	-0.888124	0.251950
C56	C	0.722154	-0.860871	0.218475
O57	O	0.693742	-0.889153	0.190011
C58	C	0.722136	-0.806268	0.218467
C59	C	0.755546	-0.778916	0.251932
C60	C	0.822374	-0.778812	0.318867
C61	C	0.822359	-0.724212	0.318856
C62	C	0.788938	-0.696963	0.285383
C63	C	0.755531	-0.724315	0.251920
C64	C	0.688708	-0.779017	0.184996
C65	C	0.688693	-0.724410	0.184991
C66	C	0.722103	-0.697058	0.218455
C67	C	0.722095	-0.642466	0.218435
N68	N	0.755499	-0.615112	0.251901
C69	C	0.788920	-0.642360	0.285375
C70	C	0.722193	-0.975542	0.218494
C71	C	0.722213	-1.030144	0.218499
C72	C	0.789041	-1.030038	0.285441
C73	C	0.789024	-0.975435	0.285433
C74	C	0.755597	-0.948187	0.251960
C75	C	0.788887	-0.527695	0.285348
C76	C	0.788870	-0.473090	0.285332
C77	C	0.722040	-0.473201	0.218392
C78	C	0.722058	-0.527801	0.218406
C79	C	0.755483	-0.555047	0.251888
O80	O	0.693697	-0.614229	0.189971
O81	O	0.817322	-0.614072	0.313839
C82	C	0.891879	-0.251888	0.251921
C83	C	0.949993	-0.251890	0.251930
C84	C	0.755523	-0.251875	0.388273
C85	C	0.755530	-0.251871	0.446387
C86	C	0.755595	-0.115511	0.251952
C87	C	0.755633	-0.057397	0.251975
C88	C	0.755520	-0.251856	0.116057
C89	C	0.755614	-0.251713	0.057943
C90	C	0.789035	-0.218333	0.806774
C91	C	0.789041	-0.218318	0.861378
O92	O	0.817486	-0.189864	0.889635
N93	N	0.755588	-0.251749	0.888669
C94	C	0.722122	-0.285192	0.861354
O95	O	0.693668	-0.313626	0.889581
C96	C	0.722114	-0.285204	0.806750
C97	C	0.755573	-0.251775	0.779462
C98	C	0.822491	-0.184906	0.779485
C99	C	0.822485	-0.184921	0.724884
C100	C	0.789023	-0.218363	0.697572
C101	C	0.755567	-0.251790	0.724861
C102	C	0.688646	-0.318644	0.779436
C103	C	0.688640	-0.318653	0.724828
C104	C	0.722099	-0.285223	0.697540
C105	C	0.722099	-0.285247	0.642949
N106	N	0.755552	-0.251817	0.615657
C107	C	0.789014	-0.218375	0.642969
C108	C	0.722143	-0.285165	0.976024
C109	C	0.722154	-0.285157	1.030627
C110	C	0.789072	-0.218282	1.030647
C111	C	0.789063	-0.218293	0.976044
C112	C	0.755596	-0.251735	0.948733
C113	C	0.789000	-0.218410	0.528304
C114	C	0.788992	-0.218429	0.473699
C115	C	0.722072	-0.285302	0.473683
C116	C	0.722081	-0.285285	0.528283
C117	C	0.755547	-0.251834	0.555593
O118	O	0.693668	-0.313686	0.614657
O119	O	0.817459	-0.189941	0.614735
H120	H	-0.044983	-0.312472	0.191152
H121	H	0.694974	-0.953360	0.191232
N122	N	0.686063	-0.321211	1.060054
H123	H	0.691140	-0.316131	1.098791
H124	H	0.694173	-0.358555	1.050504
H125	H	0.206344	-0.157919	0.346192
N126	N	0.061278	-0.321291	0.182285
H127	H	0.083937	-0.300010	0.158092
H128	H	0.035641	-0.342435	0.161103
N129	N	0.825152	-0.182238	0.946616
H130	H	0.849365	-0.203493	0.923961
H131	H	0.846316	-0.161064	0.972243
N132	N	0.686029	-0.557305	0.182308
H133	H	0.707301	-0.579957	0.158104
H134	H	0.664866	-0.531721	0.161135
N135	N	0.652674	-0.808509	0.148900
H136	H	0.631500	-0.782954	0.127699
H137	H	0.628469	-0.831172	0.170163
N138	N	0.652642	-0.695018	0.148888
H139	H	0.615282	-0.704550	0.156975
H140	H	0.660834	-0.704550	0.111555
N141	N	0.061415	-0.182489	0.321563
H142	H	0.035850	-0.161342	0.342787
H143	H	0.084075	-0.158257	0.300327
H144	H	0.694830	-0.451006	0.191137
N145	N	0.825164	-0.182211	1.060110
H146	H	0.820089	-0.187277	1.098841
H147	H	0.817049	-0.144871	1.050575
N148	N	0.686179	-1.059640	0.182403
H149	H	0.691256	-1.098367	0.187484
H150	H	0.694341	-1.050110	0.145069
H151	H	0.816241	-0.191207	0.451483
N152	N	0.686000	-0.321336	0.557730
H153	H	0.694091	-0.358699	0.548230
H154	H	0.648662	-0.313171	0.548211
N155	N	0.825091	-0.182330	0.557754
H156	H	0.846282	-0.161159	0.532175
H157	H	0.849278	-0.203604	0.580410
H158	H	0.849730	-0.157699	0.702671
N159	N	0.198942	-0.354662	0.148753
H160	H	0.224510	-0.375805	0.127529
H161	H	0.176294	-0.333341	0.124600
H162	H	0.556534	-0.191317	0.312670
H163	H	0.694830	-0.312531	0.451436
N164	N	0.858579	-0.148828	0.808938
H165	H	0.879767	-0.127656	0.783357
H166	H	0.882769	-0.170101	0.831592
H167	H	-0.044878	-0.191315	0.312711
N168	N	0.686040	-0.321233	0.946569
H169	H	0.664850	-0.342405	0.972147
H170	H	0.707296	-0.345438	0.923908
H171	H	0.816254	-1.052233	0.312698
N172	N	0.652541	-0.354726	0.695378
H173	H	0.673767	-0.378965	0.672722
H174	H	0.628328	-0.333448	0.672754
N175	N	0.858411	-0.808197	0.354988
H176	H	0.879564	-0.782576	0.376185
H177	H	0.882637	-0.830847	0.333745
N178	N	0.652557	-0.354700	0.808859
H179	H	0.631359	-0.375881	0.783264
H180	H	0.628377	-0.333410	0.831514
H181	H	0.457354	-0.312470	0.191110
N182	N	0.824901	-0.443587	0.321431
H183	H	0.849141	-0.420924	0.300205
H184	H	0.846038	-0.469169	0.342633
H185	H	0.457483	-0.191305	0.312673
N186	N	0.563625	-0.321285	0.182240
H187	H	0.554108	-0.358657	0.190283
H188	H	0.602353	-0.316170	0.187340
N189	N	0.312616	-0.149098	0.355041
H190	H	0.287050	-0.127950	0.376262
H191	H	0.335277	-0.124868	0.333805
H192	H	0.816101	-0.549872	0.312616
H193	H	0.849563	-0.701945	0.346107
N194	N	0.312430	-0.354655	0.148745
H195	H	0.286826	-0.375803	0.127523
H196	H	0.335077	-0.378885	0.169976
H197	H	0.816228	-0.953168	0.312683
