data_functionalizedCrystal
_audit_creation_method	'MofGen! by Chris Wilmer'
_symmetry_space_group_name_H-M	'P1'
_symmetry_Int_Tables_number	1
_symmetry_cell_setting	triclinic
loop_
_symmetry_equiv_pos_as_xyz
  x,y,z
_cell_length_a	19.288864
_cell_length_b	9.482944
_cell_length_c	19.288865
_cell_angle_alpha	100.460747
_cell_angle_beta	83.136245
_cell_angle_gamma	100.516125
loop_
_atom_site_label
_atom_site_type_symbol
_atom_site_fract_x
_atom_site_fract_y
_atom_site_fract_z
O1	O	0.931067	0.121386	0.096311
O2	O	0.728798	0.121289	0.107992
O3	O	0.835775	0.121312	0.001019
O4	O	0.824090	0.121364	0.203284
O5	O	0.816406	-0.120495	-0.018234
O6	O	0.709430	-0.120518	0.088739
O7	O	0.911698	-0.120421	0.077058
Cu8	Cu	0.808795	-0.142548	0.081140
Cu9	Cu	0.831701	0.143417	0.103910
O10	O	0.804722	-0.120443	0.184031
C11	C	0.693236	0.000373	0.097988
C12	C	0.616130	0.000334	0.096856
N13	N	0.792690	-0.343681	0.065125
C14	C	0.571437	0.000373	0.159627
C15	C	0.498991	0.000389	0.158568
C16	C	0.471244	0.000395	0.094736
C17	C	0.515946	0.000348	0.031956
C18	C	0.588389	0.000317	0.033016
C19	C	0.369770	0.085147	0.051305
C20	C	0.297329	0.085186	0.050249
C21	C	0.247805	0.000482	0.091463
C22	C	0.270731	-0.084242	0.133748
C23	C	0.343174	-0.084273	0.134809
C24	C	0.392692	0.000427	0.093580
C25	C	0.124557	0.000536	0.153090
C26	C	0.052110	0.000543	0.152027
C27	C	0.069068	0.000516	0.025415
C28	C	0.141512	0.000495	0.026478
C29	C	0.169253	0.000512	0.090318
C30	C	0.826946	-0.415854	0.099185
C31	C	0.813551	-0.583282	0.085854
C32	C	0.947260	0.000499	0.087062
C33	C	1.024367	0.000547	0.088195
C34	C	0.825714	0.000404	-0.034484
C35	C	0.824584	0.000390	-0.111589
N36	N	0.847812	0.344549	0.119919
C37	C	0.887354	0.000413	-0.156283
C38	C	0.886295	0.000436	-0.228729
C39	C	0.822460	0.000406	-0.256479
C40	C	0.759683	0.000391	-0.211774
C41	C	0.760745	0.000383	-0.139329
C42	C	0.765494	-0.084318	-0.371512
C43	C	0.764434	-0.084319	-0.443956
C44	C	0.819183	0.000437	-0.479922
C45	C	0.875002	0.085175	-0.443436
C46	C	0.876064	0.085167	-0.370992
C47	C	0.821302	0.000416	-0.335032
C48	C	0.880809	0.000487	-0.603170
C49	C	0.879748	0.000518	-0.675616
C50	C	0.753133	0.000459	-0.658660
C51	C	0.754197	0.000442	-0.586215
C52	C	0.818036	0.000449	-0.558475
C53	C	0.814783	0.000468	0.219534
C54	C	0.815913	0.000491	0.296640
H55	H	0.594018	0.000390	0.211611
C56	C	0.955341	0.000451	-0.277905
H57	H	0.945565	0.000462	-0.325023
H58	H	0.974768	-0.083866	-0.276237
H59	H	0.988285	0.084791	-0.262797
H60	H	0.709628	0.000364	-0.102938
C61	C	0.948799	0.000541	-0.724780
H62	H	0.986967	0.000529	-0.697882
H63	H	0.957777	0.084869	-0.746672
H64	H	0.944254	-0.083789	-0.760115
C65	C	0.449821	0.000454	0.227620
H66	H	0.476719	0.000472	0.265793
H67	H	0.414432	-0.083848	0.223133
H68	H	0.427989	0.084809	0.236542
C69	C	0.879960	-0.331894	0.151914
H70	H	0.882003	-0.230378	0.153961
H71	H	0.925526	-0.356728	0.136794
H72	H	0.865046	-0.356765	0.197525
C73	C	0.637555	0.000292	-0.036033
H74	H	0.610658	0.000305	-0.074202
H75	H	0.659401	-0.084037	-0.044967
H76	H	0.672935	0.084620	-0.031533
C77	C	0.739669	-0.427634	0.012401
H78	H	0.719917	-0.360642	-0.007242
H79	H	0.702958	-0.487037	0.036324
H80	H	0.763429	-0.487000	-0.024416
H81	H	0.718981	-0.153309	-0.473656
H82	H	0.939337	0.000424	-0.133702
H83	H	0.361838	-0.153263	0.169236
C84	C	0.682917	0.000431	-0.689176
H85	H	0.691273	0.000433	-0.738724
H86	H	0.663834	0.084740	-0.667097
H87	H	0.650326	-0.083918	-0.680545
C88	C	0.760528	-0.667230	0.033128
H89	H	0.740776	-0.600237	0.013485
H90	H	0.723817	-0.726632	0.057050
H91	H	0.784288	-0.726596	-0.003689
C92	C	0.937453	0.178387	-0.330858
H93	H	0.969907	0.228877	-0.362647
H94	H	0.961022	0.117328	-0.311218
H95	H	0.919300	0.246494	-0.293953
C96	C	0.216267	-0.177427	0.179087
H97	H	0.240297	-0.227879	0.204424
H98	H	0.185755	-0.245544	0.149236
H99	H	0.189155	-0.116328	0.211586
C100	C	0.951029	0.000511	-0.572651
H101	H	0.988264	0.000549	-0.609647
H102	H	0.947322	-0.083817	-0.551467
H103	H	0.960828	0.084840	-0.538019
H104	H	0.887060	-0.593297	0.158951
H105	H	0.046484	0.000611	-0.026551
H106	H	0.919583	0.154192	-0.472717
H107	H	0.703083	0.000415	-0.549824
H108	H	0.720909	-0.153344	-0.342236
H109	H	0.707709	0.000370	-0.234372
H110	H	0.147143	0.000529	0.205070
H111	H	0.015720	0.000566	0.203144
C112	C	0.190679	0.000475	-0.042569
H113	H	0.163781	0.000493	-0.080737
H114	H	0.212522	-0.083858	-0.051503
H115	H	0.226061	0.084800	-0.038069
H116	H	0.410089	0.154132	0.017742
C117	C	0.272112	0.178384	0.003744
H118	H	0.221876	0.166289	0.009022
H119	H	0.287744	0.148582	-0.044411
H120	H	0.291154	0.277795	0.017941
C121	C	0.485428	0.000363	-0.038256
H122	H	0.435883	0.000403	-0.029896
H123	H	0.494009	-0.083970	-0.070809
H124	H	0.507559	0.084687	-0.057375
