data_functionalizedCrystal
_audit_creation_method	'MofGen! by Chris Wilmer'
_symmetry_space_group_name_H-M	'P1'
_symmetry_Int_Tables_number	1
_symmetry_cell_setting	triclinic
loop_
_symmetry_equiv_pos_as_xyz
  x,y,z
_cell_length_a	23.532407
_cell_length_b	23.532407
_cell_length_c	22.010155
_cell_angle_alpha	89.999577
_cell_angle_beta	89.996931
_cell_angle_gamma	82.848678
loop_
_atom_site_label
_atom_site_type_symbol
_atom_site_fract_x
_atom_site_fract_y
_atom_site_fract_z
O1	O	0.755264	0.069127	-0.050455
O2	O	1.088597	0.402460	0.282878
O3	O	1.421930	0.735794	0.616211
O4	O	0.589400	0.079130	-0.050474
O5	O	0.922734	0.412463	0.282859
O6	O	1.256067	0.745797	0.616193
O7	O	0.677334	-0.008803	-0.050453
O8	O	1.010667	0.324530	0.282880
O9	O	1.344000	0.657863	0.616214
O10	O	0.667330	0.157060	-0.050476
O11	O	1.000664	0.490393	0.282857
O12	O	1.333997	0.823727	0.616190
O13	O	0.677318	-0.008790	0.050597
O14	O	1.010651	0.324543	0.383931
O15	O	1.343984	0.657877	0.717264
O16	O	0.589384	0.079143	0.050576
O17	O	0.922718	0.412477	0.383910
O18	O	1.256051	0.745810	0.717243
O19	O	0.755248	0.069140	0.050595
O20	O	1.088581	0.402473	0.383928
O21	O	1.421914	0.735807	0.717262
Cu22	Cu	0.672315	0.074143	0.059812
Cu23	Cu	1.005648	0.407476	0.393146
Cu24	Cu	1.338981	0.740810	0.726479
Cu25	Cu	0.672333	0.074127	-0.059691
Cu26	Cu	1.005667	0.407461	0.273642
Cu27	Cu	1.339000	0.740794	0.606975
O28	O	0.667314	0.157073	0.050574
O29	O	1.000648	0.490407	0.383907
O30	O	1.333981	0.823740	0.717241
C31	C	0.568176	0.078882	0.000049
C32	C	0.901510	0.412215	0.333382
C33	C	1.234843	0.745549	0.666715
C34	C	0.504959	0.078116	0.000042
C35	C	0.838293	0.411449	0.333375
C36	C	1.171626	0.744783	0.666709
C37	C	0.105856	0.125350	0.000063
C38	C	0.439190	0.458683	0.333396
C39	C	0.772523	0.792016	0.666730
C40	C	0.046456	0.124638	0.000067
C41	C	0.379789	0.457971	0.333400
C42	C	0.713123	0.791305	0.666733
O43	O	0.009711	0.168424	0.000083
O44	O	0.343045	0.501757	0.333416
O45	O	0.676378	0.835091	0.666749
N46	N	0.023830	0.072362	0.000073
N47	N	0.357163	0.405695	0.333407
N48	N	0.690496	0.739028	0.666740
C49	C	0.060607	0.020794	0.000082
C50	C	0.393941	0.354127	0.333415
C51	C	0.727274	0.687460	0.666749
O52	O	0.035908	-0.023737	0.000088
O53	O	0.369241	0.309596	0.333422
O54	O	0.702574	0.642930	0.666755
C55	C	0.120006	0.021506	0.000082
C56	C	0.453340	0.354839	0.333416
C57	C	0.786673	0.688172	0.666749
C58	C	0.142629	0.073785	0.000070
C59	C	0.475962	0.407119	0.333403
C60	C	0.809296	0.740452	0.666737
C61	C	0.128479	0.177625	0.000051
C62	C	0.461813	0.510958	0.333385
C63	C	0.795146	0.844292	0.666718
C64	C	0.187876	0.178336	0.000046
C65	C	0.521209	0.511670	0.333380
C66	C	0.854542	0.845003	0.666713
C67	C	0.224649	0.126772	0.000053
C68	C	0.557982	0.460105	0.333386
C69	C	0.891315	0.793439	0.666720
C70	C	0.202025	0.074497	0.000065
C71	C	0.535359	0.407830	0.333398
C72	C	0.868692	0.741163	0.666732
C73	C	0.156783	-0.030062	0.000096
C74	C	0.490116	0.303271	0.333429
C75	C	0.823450	0.636605	0.666762
C76	C	0.216185	-0.029345	0.000097
C77	C	0.549519	0.303988	0.333430
C78	C	0.882852	0.637321	0.666763
C79	C	0.238808	0.022934	0.000084
C80	C	0.572141	0.356268	0.333417
C81	C	0.905475	0.689601	0.666751
C82	C	0.298194	0.023643	0.000067
C83	C	0.631528	0.356977	0.333400
C84	C	0.964861	0.690310	0.666734
N85	N	0.320820	0.075920	0.000061
N86	N	0.654154	0.409253	0.333394
N87	N	0.987487	0.742586	0.666727
C88	C	0.284048	0.127484	0.000054
C89	C	0.617381	0.460817	0.333387
C90	C	0.950714	0.794151	0.666720
C91	C	-0.064135	0.019302	0.000082
C92	C	0.269198	0.352635	0.333415
C93	C	0.602532	0.685969	0.666749
C94	C	-0.123533	0.018589	0.000077
C95	C	0.209800	0.351923	0.333410
C96	C	0.543134	0.685256	0.666744
C97	C	-0.137680	0.122434	0.000063
C98	C	0.195653	0.455768	0.333396
C99	C	0.528986	0.789101	0.666730
C100	C	-0.078281	0.123146	0.000064
C101	C	0.255052	0.456480	0.333397
C102	C	0.588385	0.789813	0.666730
C103	C	-0.041509	0.071578	0.000076
C104	C	0.291824	0.404912	0.333409
C105	C	0.625158	0.738245	0.666742
C106	C	0.408784	0.128974	0.000043
C107	C	0.742118	0.462307	0.333376
C108	C	1.075451	0.795640	0.666709
C109	C	0.468186	0.129680	0.000035
C110	C	0.801520	0.463014	0.333369
C111	C	1.134853	0.796347	0.666702
C112	C	0.482329	0.025836	0.000052
C113	C	0.815662	0.359169	0.333386
C114	C	1.148995	0.692503	0.666719
C115	C	0.422932	0.025129	0.000057
C116	C	0.756265	0.358462	0.333390
C117	C	1.089598	0.691796	0.666723
C118	C	0.386160	0.076702	0.000054
C119	C	0.719494	0.410036	0.333387
C120	C	1.052827	0.743369	0.666721
O121	O	0.334974	-0.020119	0.000054
O122	O	0.668307	0.313214	0.333387
O123	O	1.001640	0.646547	0.666720
O124	O	0.308755	0.172007	0.000055
O125	O	0.642089	0.505340	0.333389
O126	O	0.975422	0.838674	0.666722
C127	C	0.677071	-0.030013	0.000074
C128	C	1.010404	0.303321	0.333407
C129	C	1.343738	0.636654	0.666740
C130	C	0.676305	-0.093230	0.000078
C131	C	1.009638	0.240104	0.333412
C132	C	1.342972	0.573437	0.666745
C133	C	0.723539	-0.492333	0.000050
C134	C	1.056872	-0.158999	0.333384
C135	C	1.390205	0.174334	0.666717
C136	C	0.722827	-0.551733	0.000046
C137	C	1.056160	-0.218400	0.333379
C138	C	1.389494	0.114934	0.666712
O139	O	0.766613	-0.588478	0.000028
O140	O	1.099946	-0.255144	0.333361
O141	O	1.433280	0.078189	0.666695
N142	N	0.670551	-0.574359	0.000040
N143	N	1.003884	-0.241026	0.333373
N144	N	1.337217	0.092307	0.666707
C145	C	0.618983	-0.537582	0.000033
C146	C	0.952316	-0.204248	0.333366
C147	C	1.285649	0.129085	0.666700
O148	O	0.574452	-0.562281	0.000027
O149	O	0.907785	-0.228948	0.333361
O150	O	1.241119	0.104385	0.666694
C151	C	0.619695	-0.478182	0.000033
C152	C	0.953028	-0.144849	0.333367
C153	C	1.286361	0.188484	0.666700
C154	C	0.671974	-0.455560	0.000045
C155	C	1.005308	-0.122227	0.333378
C156	C	1.338641	0.211107	0.666712
C157	C	0.775814	-0.469710	0.000061
C158	C	1.109147	-0.136376	0.333394
C159	C	1.442481	0.196957	0.666728
C160	C	0.776525	-0.410313	0.000067
C161	C	1.109859	-0.076980	0.333400
C162	C	1.443192	0.256353	0.666734
C163	C	0.724961	-0.373540	0.000062
C164	C	1.058294	-0.040207	0.333395
C165	C	1.391628	0.293126	0.666729
C166	C	0.672685	-0.396164	0.000051
C167	C	1.006019	-0.062830	0.333384
C168	C	1.339352	0.270503	0.666718
C169	C	0.568127	-0.441406	0.000022
C170	C	0.901460	-0.108073	0.333356
C171	C	1.234794	0.225261	0.666689
C172	C	0.568844	-0.382004	0.000022
C173	C	0.902177	-0.048670	0.333355
C174	C	1.235510	0.284663	0.666689
C175	C	0.621123	-0.359381	0.000034
C176	C	0.954457	-0.026048	0.333367
C177	C	1.287790	0.307286	0.666700
C178	C	0.621832	-0.299995	0.000052
C179	C	0.955166	0.033339	0.333385
C180	C	1.288499	0.366672	0.666718
N181	N	0.674109	-0.277368	0.000057
N182	N	1.007442	0.055965	0.333390
N183	N	1.340775	0.389298	0.666724
C184	C	0.725673	-0.314141	0.000062
C185	C	1.059006	0.019192	0.333396
C186	C	1.392340	0.352525	0.666729
C187	C	0.617491	-0.662324	0.000031
C188	C	0.950824	-0.328991	0.333365
C189	C	1.284158	0.004343	0.666698
C190	C	0.616778	-0.721722	0.000035
C191	C	0.950112	-0.388389	0.333369
C192	C	1.283445	-0.055055	0.666702
C193	C	0.720623	-0.735869	0.000047
C194	C	1.053957	-0.402536	0.333380
C195	C	1.387290	-0.069203	0.666713
C196	C	0.721335	-0.676470	0.000047
C197	C	1.054669	-0.343137	0.333380
C198	C	1.388002	-0.009804	0.666714
C199	C	0.669767	-0.639698	0.000037
C200	C	1.003101	-0.306365	0.333370
C201	C	1.336434	0.026969	0.666703
C202	C	0.727163	-0.189405	0.000075
C203	C	1.060496	0.143929	0.333408
C204	C	1.393829	0.477262	0.666742
C205	C	0.727869	-0.130003	0.000083
C206	C	1.061203	0.203331	0.333417
C207	C	1.394536	0.536664	0.666750
C208	C	0.624025	-0.115860	0.000069
C209	C	0.957358	0.217473	0.333402
C210	C	1.290692	0.550806	0.666736
C211	C	0.623318	-0.175257	0.000064
C212	C	0.956651	0.158076	0.333397
C213	C	1.289985	0.491409	0.666730
C214	C	0.674891	-0.212029	0.000065
C215	C	1.008225	0.121305	0.333398
C216	C	1.341558	0.454638	0.666731
O217	O	0.578070	-0.263215	0.000067
O218	O	0.911403	0.070118	0.333400
O219	O	1.244736	0.403451	0.666733
O220	O	0.770196	-0.289433	0.000060
O221	O	1.103529	0.043900	0.333393
O222	O	1.436863	0.377233	0.666727
C223	C	0.776472	0.069388	0.000071
C224	C	1.109805	0.402722	0.333404
C225	C	1.443138	0.736055	0.666737
C226	C	0.839689	0.070154	0.000073
C227	C	1.173022	0.403487	0.333407
C228	C	1.506355	0.736821	0.666740
C229	C	0.667577	0.178283	0.000046
C230	C	1.000910	0.511616	0.333379
C231	C	1.334244	0.844949	0.666712
C232	C	0.668343	0.241500	0.000037
C233	C	1.001676	0.574833	0.333371
C234	C	1.335010	0.908167	0.666704
N235	N	0.672305	0.074153	0.143865
N236	N	1.005639	0.407487	0.477198
N237	N	1.338972	0.740820	0.810531
N238	N	0.672347	0.074112	-0.143744
N239	N	1.005680	0.407445	0.189589
N240	N	1.339014	0.740779	0.522923
C241	C	0.711273	0.035196	0.563653
C242	C	1.044606	0.368529	0.896987
C243	C	1.377939	0.701863	1.230320
C244	C	0.711275	0.035192	0.627261
C245	C	1.044609	0.368525	0.960594
C246	C	1.377942	0.701859	1.293928
O247	O	0.744384	0.002076	0.660160
O248	O	1.077717	0.335410	0.993494
O249	O	1.411050	0.668743	1.326827
N250	N	0.672333	0.074115	0.659072
N251	N	1.005667	0.407449	0.992405
N252	N	1.339000	0.740782	1.325739
C253	C	0.633382	0.113041	0.627272
C254	C	0.966715	0.446375	0.960605
C255	C	1.300049	0.779708	1.293938
O256	O	0.600259	0.146148	0.660170
O257	O	0.933592	0.479481	0.993503
O258	O	1.266925	0.812815	1.326837
C259	C	0.633377	0.113042	0.563665
C260	C	0.966711	0.446375	0.896999
C261	C	1.300044	0.779709	1.230332
C262	C	0.672326	0.074120	0.531858
C263	C	1.005659	0.407453	0.865191
C264	C	1.338992	0.740787	1.198524
C265	C	0.750217	-0.003723	0.531846
C266	C	1.083551	0.329610	0.865179
C267	C	1.416884	0.662943	1.198513
C268	C	0.750215	-0.003719	0.468243
C269	C	1.083549	0.329615	0.801576
C270	C	1.416882	0.662948	1.134909
C271	C	0.711268	0.035205	0.436447
C272	C	1.044602	0.368539	0.769780
C273	C	1.377935	0.701872	1.103114
C274	C	0.672324	0.074125	0.468255
C275	C	1.005657	0.407458	0.801588
C276	C	1.338990	0.740791	1.134921
C277	C	0.594424	0.151965	0.531866
C278	C	0.927757	0.485298	0.865200
C279	C	1.261091	0.818632	1.198533
C280	C	0.594422	0.151962	0.468256
C281	C	0.927755	0.485295	0.801589
C282	C	1.261089	0.818629	1.134922
C283	C	0.633370	0.113040	0.436448
C284	C	0.966704	0.446373	0.769781
C285	C	1.300037	0.779707	1.103115
C286	C	0.633374	0.113054	0.372856
C287	C	0.966708	0.446387	0.706189
C288	C	1.300041	0.779720	1.039522
N289	N	0.672317	0.074130	0.341045
N290	N	1.005650	0.407464	0.674378
N291	N	1.338983	0.740797	1.007712
C292	C	0.711263	0.035206	0.372841
C293	C	1.044597	0.368540	0.706174
C294	C	1.377930	0.701873	1.039507
C295	C	0.633395	0.113036	0.760850
C296	C	0.966728	0.446369	1.094183
C297	C	1.300061	0.779703	1.427516
C298	C	0.633402	0.113039	0.824455
C299	C	0.966735	0.446372	1.157788
C300	C	1.300069	0.779705	1.491122
C301	C	0.711294	0.035188	0.824440
C302	C	1.044628	0.368522	1.157773
C303	C	1.377961	0.701855	1.491106
C304	C	0.711290	0.035189	0.760833
C305	C	1.044623	0.368522	1.094167
C306	C	1.377956	0.701856	1.427500
C307	C	0.672337	0.074113	0.729039
C308	C	1.005670	0.407446	1.062372
C309	C	1.339003	0.740779	1.395705
C310	C	0.711256	0.035220	0.239269
C311	C	1.044590	0.368553	0.572603
C312	C	1.377923	0.701886	0.905936
C313	C	0.711252	0.035229	0.175660
C314	C	1.044586	0.368563	0.508994
C315	C	1.377919	0.701896	0.842327
C316	C	0.633358	0.113077	0.175681
C317	C	0.966691	0.446411	0.509014
C318	C	1.300025	0.779744	0.842348
C319	C	0.633364	0.113070	0.239284
C320	C	0.966697	0.446403	0.572618
C321	C	1.300031	0.779736	0.905951
C322	C	0.672315	0.074136	0.271077
C323	C	1.005649	0.407469	0.604410
C324	C	1.338982	0.740803	0.937744
O325	O	0.600282	0.146151	0.339916
O326	O	0.933615	0.479484	0.673249
O327	O	1.266948	0.812818	1.006583
O328	O	0.744376	0.002100	0.339935
O329	O	1.077710	0.335433	0.673268
O330	O	1.411043	0.668767	1.006601
H331	H	0.246123	-0.071339	0.000107
H332	H	0.579457	0.261994	0.333440
H333	H	0.912790	0.595327	0.666773
N334	N	0.492579	0.186073	0.000025
N335	N	0.825913	0.519407	0.333358
N336	N	1.159246	0.852740	0.666692
H337	H	0.516909	0.188691	0.037481
H338	H	0.850242	0.522024	0.370815
H339	H	1.183575	0.855357	0.704148
H340	H	0.516879	0.188648	-0.037462
H341	H	0.850212	0.521982	0.295871
H342	H	1.183546	0.855315	0.629205
N343	N	0.591350	0.155057	0.141384
N344	N	0.924683	0.488391	0.474717
N345	N	1.258016	0.821724	0.808050
H346	H	0.612964	0.180165	0.114989
H347	H	0.946297	0.513498	0.448322
H348	H	1.279630	0.846832	0.781656
H349	H	0.566272	0.133374	0.115032
H350	H	0.899606	0.466708	0.448366
H351	H	1.232939	0.800041	0.781699
H352	H	0.562700	0.183658	0.442372
H353	H	0.896033	0.516991	0.775705
H354	H	1.229367	0.850325	1.109038
N355	N	0.776239	-0.775541	0.000051
N356	N	1.109572	-0.442208	0.333385
N357	N	1.442906	-0.108874	0.666718
H358	H	0.778260	-0.800499	-0.037410
H359	H	1.111593	-0.467165	0.295923
H360	H	1.444927	-0.133832	0.629257
H361	H	0.809436	-0.752161	0.000080
H362	H	1.142770	-0.418827	0.333413
H363	H	1.476103	-0.085494	0.666746
H364	H	0.378851	0.170970	0.000042
H365	H	0.712185	0.504303	0.333376
H366	H	1.045518	0.837637	0.666709
H367	H	0.574207	-0.740136	0.000036
H368	H	0.907540	-0.406802	0.333370
H369	H	1.240874	-0.073469	0.666703
N370	N	0.792237	-0.045704	0.566130
N371	N	1.125570	0.287630	0.899463
N372	N	1.458903	0.620963	1.232797
H373	H	0.770635	-0.070821	0.592526
H374	H	1.103968	0.262513	0.925860
H375	H	1.437301	0.595846	1.259193
H376	H	0.816892	-0.070312	0.536278
H377	H	1.150225	0.263021	0.869611
H378	H	1.483559	0.596354	1.202944
N379	N	0.561870	-0.622660	0.000038
N380	N	0.895204	-0.289327	0.333372
N381	N	1.228537	0.044006	0.666705
H382	H	0.559849	-0.597697	-0.037419
H383	H	0.893182	-0.264364	0.295914
H384	H	1.226516	0.068970	0.629248
H385	H	0.528679	-0.646049	0.000061
H386	H	0.862013	-0.312715	0.333394
H387	H	1.195346	0.020618	0.666728
H388	H	0.582043	-0.085909	0.000067
H389	H	0.915376	0.247424	0.333400
H390	H	1.248709	0.580757	0.666734
H391	H	0.743006	0.003493	0.850339
H392	H	1.076340	0.336827	1.183673
H393	H	1.409673	0.670160	1.517006
H394	H	-0.034198	-0.022693	0.000086
H395	H	0.299136	0.310640	0.333420
H396	H	0.632469	0.643973	0.666753
N397	N	0.511742	-0.465802	0.000002
N398	N	0.845075	-0.132469	0.333335
N399	N	1.178409	0.200864	0.666668
H400	H	0.509118	-0.490132	0.037458
H401	H	0.842451	-0.156799	0.370791
H402	H	1.175784	0.176534	0.704125
H403	H	0.479220	-0.433458	-0.000029
H404	H	0.812553	-0.100125	0.333304
H405	H	1.145886	0.233208	0.666638
H406	H	0.819097	-0.391900	0.000074
H407	H	1.152430	-0.058567	0.333407
H408	H	1.485763	0.274767	0.666741
H409	H	0.601692	0.144738	0.850348
H410	H	0.935026	0.478072	1.183681
H411	H	1.268359	0.811405	1.517015
H412	H	0.098544	0.219617	0.000048
H413	H	0.431877	0.552951	0.333381
H414	H	0.765211	0.886284	0.666714
H415	H	0.742971	0.003534	0.149765
H416	H	1.076304	0.336868	0.483098
H417	H	1.409638	0.670201	0.816431
N418	N	0.591365	0.155052	0.273601
N419	N	0.924699	0.488385	0.606935
N420	N	1.258032	0.821719	0.940268
H421	H	0.597694	0.195441	0.262537
H422	H	0.931027	0.528775	0.595870
H423	H	1.264361	0.862108	0.929203
H424	H	0.551002	0.148651	0.262521
H425	H	0.884335	0.481985	0.595855
H426	H	1.217669	0.815318	0.929188
H427	H	0.763906	-0.658056	0.000056
H428	H	1.097239	-0.324722	0.333389
H429	H	1.430573	0.008611	0.666723
H430	H	0.743004	0.003495	0.734939
H431	H	1.076338	0.336828	1.068273
H432	H	1.409671	0.670162	1.401606
N433	N	0.132392	-0.086450	0.000112
N434	N	0.465726	0.246883	0.333445
N435	N	0.799059	0.580217	0.666778
H436	H	0.164709	-0.119002	0.000121
H437	H	0.498042	0.214331	0.333454
H438	H	0.831376	0.547665	0.666788
H439	H	0.108057	-0.089001	0.037576
H440	H	0.441390	0.244332	0.370909
H441	H	0.774723	0.577666	0.704243
N442	N	0.212272	0.234724	0.000030
N443	N	0.545605	0.568057	0.333363
N444	N	0.878938	0.901390	0.666696
H445	H	0.179956	0.267277	0.000026
H446	H	0.513289	0.600610	0.333359
H447	H	0.846623	0.933943	0.666692
H448	H	0.236607	0.237292	0.037488
H449	H	0.569940	0.570625	0.370822
H450	H	0.903273	0.903959	0.704155
N451	N	-0.147930	-0.037797	0.000079
N452	N	0.185403	0.295536	0.333413
N453	N	0.518737	0.628869	0.666746
H454	H	-0.115616	-0.070352	0.000083
H455	H	0.217717	0.262981	0.333416
H456	H	0.551050	0.596315	0.666749
H457	H	-0.172266	-0.040353	0.037542
H458	H	0.161067	0.292980	0.370876
H459	H	0.494400	0.626314	0.704209
H460	H	0.769159	-0.219337	0.000073
H461	H	1.102492	0.113996	0.333407
H462	H	1.435826	0.447329	0.666740
N463	N	-0.053880	0.179531	0.000058
N464	N	0.279453	0.512864	0.333392
N465	N	0.612786	0.846198	0.666725
H466	H	-0.029548	0.182138	-0.037401
H467	H	0.303786	0.515472	0.295933
H468	H	0.637119	0.848805	0.629266
H469	H	-0.086224	0.212054	0.000076
H470	H	0.247110	0.545388	0.333409
H471	H	0.580443	0.878721	0.666742
H472	H	0.601676	0.144737	0.734966
H473	H	0.935009	0.478070	1.068299
H474	H	1.268343	0.811404	1.401632
N475	N	0.784261	-0.105606	0.000098
N476	N	1.117594	0.227727	0.333432
N477	N	1.450927	0.561060	0.666765
H478	H	0.806842	-0.119035	-0.037359
H479	H	1.140175	0.214299	0.295974
H480	H	1.473508	0.547632	0.629307
H481	H	0.776844	-0.062401	0.000126
H482	H	1.110177	0.270932	0.333460
H483	H	1.443511	0.604266	0.666793
N484	N	0.831434	-0.509367	0.000067
N485	N	1.164768	-0.176033	0.333401
N486	N	1.498101	0.157300	0.666734
H487	H	0.864653	-0.486012	0.000075
H488	H	1.197987	-0.152679	0.333408
H489	H	1.531320	0.180654	0.666741
H490	H	0.833396	-0.534317	0.037530
H491	H	1.166729	-0.200984	0.370863
H492	H	1.500063	0.132350	0.704197
H493	H	0.742973	0.003516	0.265148
H494	H	1.076307	0.336849	0.598481
H495	H	1.409640	0.670182	0.931814
H496	H	0.562708	0.183658	0.557755
H497	H	0.896042	0.516992	0.891089
H498	H	1.229375	0.850325	1.224422
H499	H	-0.167632	0.164421	0.000060
H500	H	0.165701	0.497754	0.333394
H501	H	0.499035	0.831087	0.666727
H502	H	0.404512	-0.017441	0.000058
H503	H	0.737845	0.315892	0.333391
H504	H	1.071178	0.649225	0.666725
N505	N	0.513223	-0.342342	0.000008
N506	N	0.846556	-0.009009	0.333342
N507	N	1.179889	0.324325	0.666675
H508	H	0.480000	-0.365691	0.000000
H509	H	0.813333	-0.032358	0.333334
H510	H	1.146666	0.300976	0.666667
H511	H	0.511246	-0.317390	0.037470
H512	H	0.844579	0.015943	0.370803
H513	H	1.177912	0.349277	0.704137
H514	H	0.580748	-0.193677	0.000071
H515	H	0.914081	0.139656	0.333404
H516	H	1.247414	0.472989	0.666738
H517	H	0.512280	-0.016146	0.000056
H518	H	0.845613	0.317187	0.333389
H519	H	1.178946	0.650520	0.666722
H520	H	0.781929	-0.035414	0.442349
H521	H	1.115262	0.297919	0.775682
H522	H	1.448595	0.631253	1.109015
