data_functionalizedCrystal
_audit_creation_method	'MofGen! by Chris Wilmer'
_symmetry_space_group_name_H-M	'P1'
_symmetry_Int_Tables_number	1
_symmetry_cell_setting	triclinic
loop_
_symmetry_equiv_pos_as_xyz
  x,y,z
_cell_length_a	21.295419
_cell_length_b	29.839131
_cell_length_c	21.295411
_cell_angle_alpha	90.020364
_cell_angle_beta	90.024539
_cell_angle_gamma	90.056221
loop_
_atom_site_label
_atom_site_type_symbol
_atom_site_fract_x
_atom_site_fract_y
_atom_site_fract_z
Zn1	Zn	0.962308	-0.178727	0.355917
Zn2	Zn	1.295641	0.154606	0.689250
Zn3	Zn	1.628974	0.487940	1.022583
Zn4	Zn	0.962190	-0.253843	0.250644
Zn5	Zn	1.295524	0.079491	0.583978
Zn6	Zn	1.628857	0.412824	0.917311
Zn7	Zn	0.857031	-0.178747	0.250662
Zn8	Zn	1.190364	0.154586	0.583995
Zn9	Zn	1.523698	0.487920	0.917328
Zn10	Zn	0.856980	-0.253850	0.355876
Zn11	Zn	1.190314	0.079483	0.689210
Zn12	Zn	1.523647	0.412816	1.022543
O13	O	0.909627	-0.216292	0.303275
O14	O	1.242961	0.117042	0.636608
O15	O	1.576294	0.450375	0.969941
O16	O	1.050382	-0.188680	0.341962
O17	O	1.383715	0.144653	0.675295
O18	O	1.717048	0.477987	1.008628
O19	O	0.948213	-0.243886	0.162557
O20	O	1.281546	0.089447	0.495891
O21	O	1.614879	0.422781	0.829224
O22	O	0.871067	-0.115877	0.264648
O23	O	1.204400	0.217456	0.597982
O24	O	1.537733	0.550790	0.931315
O25	O	1.050295	-0.243867	0.264619
O26	O	1.383629	0.089466	0.597952
O27	O	1.716962	0.422800	0.931285
O28	O	0.948413	-0.115863	0.341979
O29	O	1.281746	0.217471	0.675312
O30	O	1.615080	0.550804	1.008645
O31	O	0.870953	-0.188714	0.162570
O32	O	1.204286	0.144620	0.495903
O33	O	1.537619	0.477953	0.829237
O34	O	0.768935	-0.188721	0.264609
O35	O	1.102268	0.144612	0.597942
O36	O	1.435602	0.477946	0.931276
O37	O	0.870980	-0.243880	0.443971
O38	O	1.204314	0.089453	0.777304
O39	O	1.537647	0.422787	1.110638
O40	O	0.768898	-0.243899	0.341910
O41	O	1.102231	0.089434	0.675243
O42	O	1.435564	0.422768	1.008576
O43	O	0.948364	-0.188687	0.444001
O44	O	1.281697	0.144646	0.777334
O45	O	1.615031	0.477979	1.110667
O46	O	0.948163	-0.316711	0.264579
O47	O	1.281497	0.016623	0.597913
O48	O	1.614830	0.349956	0.931246
O49	O	0.870866	-0.316716	0.341893
O50	O	1.204200	0.016617	0.675226
O51	O	1.537533	0.349950	1.008559
C52	C	0.746076	-0.216313	0.303257
C53	C	1.079409	0.117020	0.636590
C54	C	1.412742	0.450353	0.969924
C55	C	0.676108	-0.216333	0.303264
C56	C	1.009441	0.117000	0.636598
C57	C	1.342774	0.450333	0.969931
C58	C	0.643308	-0.187644	0.343599
C59	C	0.976642	0.145689	0.676933
C60	C	1.309975	0.479022	1.010266
C61	C	0.577566	-0.187632	0.343602
C62	C	0.910899	0.145701	0.676935
C63	C	1.244233	0.479034	1.010268
C64	C	0.544625	-0.216317	0.303276
C65	C	0.877958	0.117016	0.636609
C66	C	1.211292	0.450349	0.969943
C67	C	0.577432	-0.245008	0.262933
C68	C	0.910766	0.088325	0.596267
C69	C	1.244099	0.421659	0.929600
C70	C	0.643173	-0.245016	0.262928
C71	C	0.976507	0.088317	0.596261
C72	C	1.309840	0.421650	0.929594
N73	N	0.441339	-0.255624	0.298357
N74	N	0.774673	0.077709	0.631691
N75	N	1.108006	0.411042	0.965024
N76	N	0.378888	-0.255616	0.298367
N77	N	0.712221	0.077718	0.631700
N78	N	1.045554	0.411051	0.965033
C79	C	0.346550	-0.216294	0.303290
C80	C	0.679884	0.117039	0.636623
C81	C	1.013217	0.450373	0.969957
N82	N	0.379024	-0.176981	0.308216
N83	N	0.712357	0.156353	0.641549
N84	N	1.045690	0.489686	0.974883
N85	N	0.441481	-0.176990	0.308210
N86	N	0.774814	0.156343	0.641543
N87	N	1.108148	0.489676	0.974877
C88	C	0.473340	-0.216311	0.303277
C89	C	0.806673	0.117022	0.636611
C90	C	1.140006	0.450355	0.969944
C91	C	0.242466	-0.187590	0.343629
C92	C	0.575799	0.145744	0.676963
C93	C	0.909132	0.479077	1.010296
C94	C	0.176722	-0.187577	0.343627
C95	C	0.510055	0.145757	0.676961
C96	C	0.843389	0.479090	1.010294
C97	C	0.176590	-0.244957	0.262962
C98	C	0.509923	0.088377	0.596296
C99	C	0.843256	0.421710	0.929629
C100	C	0.242332	-0.244965	0.262961
C101	C	0.575665	0.088368	0.596294
C102	C	0.908999	0.421701	0.929628
C103	C	0.275266	-0.216282	0.303298
C104	C	0.608599	0.117051	0.636631
C105	C	0.941933	0.450384	0.969965
C106	C	0.909514	-0.333014	0.303244
C107	C	1.242847	0.000319	0.636577
C108	C	1.576180	0.333652	0.969910
C109	C	0.909523	-0.382949	0.303251
C110	C	1.242856	-0.049615	0.636585
C111	C	1.576189	0.283718	0.969918
C112	C	0.949949	-0.692577	0.263077
C113	C	1.283283	-0.359243	0.596410
C114	C	1.616616	-0.025910	0.929743
C115	C	0.950027	-0.880250	0.263101
C116	C	1.283360	-0.546916	0.596434
C117	C	1.616694	-0.213583	0.929768
O118	O	0.984309	-0.904501	0.228919
O119	O	1.317642	-0.571168	0.562252
O120	O	1.650975	-0.237834	0.895586
N121	N	0.909758	-0.903734	0.303322
N122	N	1.243091	-0.570400	0.636656
N123	N	1.576425	-0.237067	0.969989
C124	C	0.869469	-0.880297	0.343543
C125	C	1.202803	-0.546963	0.676877
C126	C	1.536136	-0.213630	1.010210
O127	O	0.835225	-0.904578	0.377759
O128	O	1.168558	-0.571244	0.711092
O129	O	1.501891	-0.237911	1.044426
C130	C	0.869395	-0.692625	0.343521
C131	C	1.202729	-0.359291	0.676855
C132	C	1.536062	-0.025958	1.010188
C133	C	0.909663	-0.669143	0.303293
C134	C	1.242996	-0.335810	0.636626
C135	C	1.576329	-0.002476	0.969960
C136	C	0.990214	-0.669095	0.222852
C137	C	1.323547	-0.335761	0.556185
C138	C	1.656880	-0.002428	0.889519
C139	C	0.990191	-0.622179	0.222844
C140	C	1.323525	-0.288846	0.556177
C141	C	1.656858	0.044487	0.889510
C142	C	0.949905	-0.598746	0.263060
C143	C	1.283238	-0.265412	0.596394
C144	C	1.616571	0.067921	0.929727
C145	C	0.909640	-0.622227	0.303285
C146	C	1.242974	-0.288894	0.636618
C147	C	1.576307	0.044439	0.969952
C148	C	0.829111	-0.669188	0.383745
C149	C	1.162444	-0.335855	0.717078
C150	C	1.495777	-0.002522	1.050412
C151	C	0.829097	-0.622267	0.383737
C152	C	1.162430	-0.288934	0.717071
C153	C	1.495764	0.044399	1.050404
C154	C	0.869364	-0.598786	0.343509
C155	C	1.202697	-0.265452	0.676842
C156	C	1.536031	0.067881	1.010176
C157	C	0.869331	-0.551878	0.343493
C158	C	1.202665	-0.218545	0.676827
C159	C	1.535998	0.114788	1.010160
N160	N	0.909600	-0.528394	0.303272
N161	N	1.242934	-0.195061	0.636605
N162	N	1.576267	0.138273	0.969939
C163	C	0.949887	-0.551828	0.263056
C164	C	1.283220	-0.218494	0.596389
C165	C	1.616554	0.114839	0.929722
C166	C	0.869510	-0.978827	0.343551
C167	C	1.202844	-0.645494	0.676884
C168	C	1.536177	-0.312161	1.010218
C169	C	0.869528	-1.025745	0.343556
C170	C	1.202861	-0.692412	0.676889
C171	C	1.536195	-0.359079	1.010222
C172	C	0.950086	-1.025695	0.263114
C173	C	1.283420	-0.692361	0.596447
C174	C	1.616753	-0.359028	0.929781
C175	C	0.950065	-0.978776	0.263107
C176	C	1.283398	-0.645443	0.596440
C177	C	1.616732	-0.312109	0.929773
C178	C	0.909779	-0.955343	0.303330
C179	C	1.243113	-0.622010	0.636663
C180	C	1.576446	-0.288677	0.969996
C181	C	0.949837	-0.453302	0.263041
C182	C	1.283170	-0.119969	0.596374
C183	C	1.616504	0.213365	0.929708
C184	C	0.949809	-0.406382	0.263035
C185	C	1.283143	-0.073049	0.596368
C186	C	1.616476	0.260284	0.929701
C187	C	0.869253	-0.406437	0.343478
C188	C	1.202587	-0.073104	0.676812
C189	C	1.535920	0.260230	1.010145
C190	C	0.869279	-0.453352	0.343483
C191	C	1.202612	-0.120019	0.676816
C192	C	1.535945	0.213314	1.010149
C193	C	0.909575	-0.476784	0.303262
C194	C	1.242909	-0.143450	0.636595
C195	C	1.576242	0.189883	0.969929
O196	O	0.835072	-0.527598	0.377662
O197	O	1.168406	-0.194264	0.710996
O198	O	1.501739	0.139069	1.044329
O199	O	0.984137	-0.527539	0.228855
O200	O	1.317470	-0.194205	0.562188
O201	O	1.650803	0.139128	0.895521
C202	C	0.949971	-0.739492	0.263085
C203	C	1.283305	-0.406159	0.596418
C204	C	1.616638	-0.072825	0.929751
C205	C	0.909707	-0.762974	0.303309
C206	C	1.243040	-0.429640	0.636643
C207	C	1.576374	-0.096307	0.969976
C208	C	0.869420	-0.739540	0.343526
C209	C	1.202754	-0.406207	0.676859
C210	C	1.536087	-0.072873	1.010192
C211	C	0.909725	-0.809892	0.303314
C212	C	1.243058	-0.476558	0.636647
C213	C	1.576391	-0.143225	0.969981
C214	C	0.950011	-0.833325	0.263098
C215	C	1.283345	-0.499992	0.596431
C216	C	1.616678	-0.166659	0.929764
C217	C	0.990280	-0.809841	0.222876
C218	C	1.323614	-0.476508	0.556210
C219	C	1.656947	-0.143174	0.889543
C220	C	0.990258	-0.762926	0.222868
C221	C	1.323591	-0.429592	0.556202
C222	C	1.656925	-0.096259	0.889535
C223	C	0.829151	-0.763024	0.383747
C224	C	1.162485	-0.429691	0.717080
C225	C	1.495818	-0.096358	1.050414
C226	C	0.829176	-0.809940	0.383751
C227	C	1.162510	-0.476606	0.717085
C228	C	1.495843	-0.143273	1.050418
C229	C	0.869463	-0.833373	0.343535
C230	C	1.202796	-0.500040	0.676868
C231	C	1.536130	-0.166707	1.010202
C232	C	1.073818	-0.216270	0.303293
C233	C	1.407151	0.117063	0.636626
C234	C	1.740484	0.450396	0.969960
C235	C	1.143786	-0.216261	0.303301
C236	C	1.477119	0.117072	0.636634
C237	C	1.810452	0.450405	0.969967
C238	C	0.909680	-0.216282	0.467465
C239	C	1.243013	0.117051	0.800798
C240	C	1.576346	0.450384	1.134132
C241	C	0.909702	-0.216278	0.537433
C242	C	1.243035	0.117055	0.870767
C243	C	1.576369	0.450388	1.204100
C244	C	0.909759	-0.099113	0.303320
C245	C	1.243092	0.234220	0.636653
C246	C	1.576425	0.567553	0.969987
C247	C	0.909815	-0.049179	0.303339
C248	C	1.243148	0.284154	0.636672
C249	C	1.576481	0.617488	0.970006
C250	C	0.909612	-0.216269	0.139723
C251	C	1.242945	0.117065	0.473057
C252	C	1.576278	0.450398	0.806390
C253	C	0.909711	-0.216146	0.069755
C254	C	1.243045	0.117187	0.403089
C255	C	1.576378	0.450520	0.736422
C256	C	0.949994	-0.187538	0.570316
C257	C	1.283327	0.145795	0.903650
C258	C	1.616660	0.479129	1.236983
C259	C	0.949993	-0.187519	0.636059
C260	C	1.283326	0.145815	0.969392
C261	C	1.616660	0.479148	1.302726
C262	C	0.909707	-0.216247	0.668916
C263	C	1.243040	0.117086	1.002249
C264	C	1.576373	0.450419	1.335582
C265	C	0.869407	-0.244989	0.636025
C266	C	1.202740	0.088344	0.969358
C267	C	1.536074	0.421677	1.302691
C268	C	0.869405	-0.245005	0.570283
C269	C	1.202738	0.088329	0.903617
C270	C	1.536071	0.421662	1.236950
N271	N	0.904840	-0.255549	0.772132
N272	N	1.238173	0.077785	1.105466
N273	N	1.571506	0.411118	1.438799
N274	N	0.904846	-0.255533	0.834584
N275	N	1.238179	0.077801	1.167917
N276	N	1.571512	0.411134	1.501251
C277	C	0.909711	-0.216202	0.866991
C278	C	1.243044	0.117132	1.200324
C279	C	1.576377	0.450465	1.533657
N280	N	0.914582	-0.176886	0.834587
N281	N	1.247915	0.156447	1.167920
N282	N	1.581249	0.489780	1.501253
N283	N	0.914579	-0.176903	0.772129
N284	N	1.247913	0.156430	1.105463
N285	N	1.581246	0.489764	1.438796
C286	C	0.909705	-0.216233	0.740201
C287	C	1.243038	0.117100	1.073535
C288	C	1.576371	0.450433	1.406868
C289	C	0.950004	-0.187438	0.971159
C290	C	1.283337	0.145895	1.304493
C291	C	1.616671	0.479229	1.637826
C292	C	0.949999	-0.187418	1.036903
C293	C	1.283332	0.145916	1.370236
C294	C	1.616665	0.479249	1.703570
C295	C	0.869416	-0.244893	1.036868
C296	C	1.202749	0.088441	1.370201
C297	C	1.536083	0.421774	1.703534
C298	C	0.869418	-0.244909	0.971125
C299	C	1.202751	0.088425	1.304458
C300	C	1.536085	0.421758	1.637792
C301	C	0.909715	-0.216182	0.938275
C302	C	1.243049	0.117151	1.271608
C303	C	1.576382	0.450485	1.604942
H304	H	0.669878	-0.268379	0.230081
H305	H	1.003212	0.064954	0.563415
H306	H	1.336545	0.398288	0.896748
N307	N	0.991149	-0.158086	0.937598
N308	N	1.324482	0.175248	1.270931
N309	N	1.657815	0.508581	1.604265
N310	N	0.969028	-0.129471	0.900906
N311	N	1.302361	0.203862	1.234239
N312	N	1.635695	0.537196	1.567572
H313	H	0.998085	-0.108740	0.877204
H314	H	1.331419	0.224594	1.210537
H315	H	1.664752	0.557927	1.543870
N316	N	0.991143	-0.158155	0.669660
N317	N	1.324476	0.175179	1.002993
N318	N	1.657810	0.508512	1.336326
N319	N	0.987017	-0.116702	0.662323
N320	N	1.320350	0.216631	0.995656
N321	N	1.653684	0.549965	1.328990
H322	H	1.016078	-0.095963	0.686053
H323	H	1.349412	0.237370	1.019386
H324	H	1.682745	0.570704	1.352720
N325	N	0.991160	-0.158194	0.536772
N326	N	1.324494	0.175140	0.870105
N327	N	1.657827	0.508473	1.203438
N328	N	1.027134	-0.132535	0.566145
N329	N	1.360467	0.200799	0.899478
N330	N	1.693800	0.534132	1.232812
H331	H	1.056209	-0.111810	0.542454
H332	H	1.389542	0.221524	0.875787
H333	H	1.722875	0.554857	1.209120
N334	N	0.991190	-0.954786	0.222015
N335	N	1.324523	-0.621453	0.555349
N336	N	1.657857	-0.288119	0.888682
N337	N	0.969053	-0.928638	0.181878
N338	N	1.302386	-0.595305	0.515211
N339	N	1.635719	-0.261971	0.848545
H340	H	0.998098	-0.911696	0.152855
H341	H	1.331432	-0.578363	0.486189
H342	H	1.664765	-0.245030	0.819522
N343	N	0.676946	-0.158335	0.384787
N344	N	1.010279	0.174998	0.718120
N345	N	1.343613	0.508332	1.051454
N346	N	0.713660	-0.129686	0.362708
N347	N	1.046993	0.203648	0.696041
N348	N	1.380327	0.536981	1.029374
H349	H	0.737417	-0.108984	0.391795
H350	H	1.070751	0.224349	0.725129
H351	H	1.404084	0.557683	1.058462
N352	N	0.276113	-0.158282	0.384814
N353	N	0.609447	0.175052	0.718147
N354	N	0.942780	0.508385	1.051481
N355	N	0.312833	-0.129637	0.362732
N356	N	0.646166	0.203696	0.696065
N357	N	0.979500	0.537029	1.029398
H358	H	0.336596	-0.108937	0.391817
H359	H	0.669929	0.224396	0.725150
H360	H	1.003263	0.557729	1.058484
H361	H	0.836604	-0.268379	0.662781
H362	H	1.169937	0.064954	0.996114
H363	H	1.503270	0.398288	1.329448
N364	N	0.275830	-0.274275	0.221757
N365	N	0.609163	0.059059	0.555090
N366	N	0.942496	0.392392	0.888423
N367	N	0.246414	-0.299883	0.185752
N368	N	0.579747	0.033450	0.519085
N369	N	0.913080	0.366784	0.852418
H370	H	0.270071	-0.320583	0.156647
H371	H	0.603404	0.012750	0.489981
H372	H	0.936737	0.346083	0.823314
H373	H	0.836591	-0.268408	0.543510
H374	H	1.169924	0.064925	0.876844
H375	H	1.503258	0.398259	1.210177
H376	H	0.982652	-0.472374	0.230291
H377	H	1.315985	-0.139041	0.563624
H378	H	1.649318	0.194292	0.896958
N379	N	1.031329	-0.598204	0.181748
N380	N	1.364662	-0.264871	0.515081
N381	N	1.697995	0.068463	0.848415
N382	N	1.067294	-0.619140	0.145848
N383	N	1.400627	-0.285807	0.479181
N384	N	1.733960	0.047526	0.812515
H385	H	1.096351	-0.602211	0.116823
H386	H	1.429684	-0.268877	0.450156
H387	H	1.763017	0.064456	0.783489
H388	H	0.796346	-0.743948	0.416497
H389	H	1.129679	-0.410615	0.749830
H390	H	1.463013	-0.077282	1.083164
H391	H	0.982889	-1.044782	0.230368
H392	H	1.316223	-0.711449	0.563702
H393	H	1.649556	-0.378116	0.897035
N394	N	0.990944	-0.382404	0.221933
N395	N	1.324277	-0.049071	0.555266
N396	N	1.657610	0.284263	0.888600
N397	N	1.026910	-0.403336	0.186030
N398	N	1.360244	-0.070003	0.519363
N399	N	1.693577	0.263330	0.852696
H400	H	1.055961	-0.386403	0.157002
H401	H	1.389295	-0.053070	0.490335
H402	H	1.722628	0.280263	0.823669
N403	N	0.991158	-0.158053	1.070485
N404	N	1.324491	0.175281	1.403818
N405	N	1.657824	0.508614	1.737152
N406	N	1.027130	-0.132407	1.041144
N407	N	1.360464	0.200926	1.374477
N408	N	1.693797	0.534259	1.707810
H409	H	1.056200	-0.111667	1.064861
H410	H	1.389533	0.221666	1.398194
H411	H	1.722867	0.554999	1.731527
N412	N	0.828262	-0.274232	1.070432
N413	N	1.161595	0.059102	1.403765
N414	N	1.494929	0.392435	1.737098
N415	N	0.828265	-0.274212	1.129128
N416	N	1.161599	0.059121	1.462462
N417	N	1.494932	0.392454	1.795795
H418	H	0.799197	-0.294932	1.152837
H419	H	1.132530	0.038401	1.486170
H420	H	1.465864	0.371735	1.819503
H421	H	0.836732	-1.044860	0.376308
H422	H	1.170066	-0.711527	0.709641
H423	H	1.503399	-0.378193	1.042974
N424	N	0.143226	-0.158260	0.384825
N425	N	0.476559	0.175074	0.718158
N426	N	0.809893	0.508407	1.051491
N427	N	0.172642	-0.132651	0.420829
N428	N	0.505976	0.200682	0.754163
N429	N	0.839309	0.534015	1.087496
H430	H	0.148986	-0.111944	0.449924
H431	H	0.482319	0.221390	0.783258
H432	H	0.815652	0.554723	1.116591
N433	N	0.828135	-0.477343	0.384559
N434	N	1.161468	-0.144010	0.717892
N435	N	1.494801	0.189324	1.051225
N436	N	0.770048	-0.472162	0.380325
N437	N	1.103381	-0.138829	0.713658
N438	N	1.436715	0.194505	1.046992
H439	H	0.740991	-0.489103	0.409338
H440	H	1.074325	-0.155770	0.742671
H441	H	1.407658	0.177563	1.076005
N442	N	0.544063	-0.158332	0.384820
N443	N	0.877396	0.175002	0.718154
N444	N	1.210729	0.508335	1.051487
N445	N	0.573476	-0.132730	0.420838
N446	N	0.906809	0.200603	0.754171
N447	N	1.240142	0.533937	1.087504
H448	H	0.549816	-0.112040	0.449954
H449	H	0.883150	0.221293	0.783288
H450	H	1.216483	0.554627	1.116621
N451	N	0.543778	-0.274303	0.221741
N452	N	0.877111	0.059030	0.555074
N453	N	1.210444	0.392363	0.888408
N454	N	0.485081	-0.274292	0.221751
N455	N	0.818414	0.059041	0.555085
N456	N	1.151747	0.392374	0.888418
H457	H	0.461311	-0.294981	0.192656
H458	H	0.794645	0.038352	0.525989
H459	H	1.127978	0.371685	0.859322
H460	H	0.836612	-0.268315	0.944351
H461	H	1.169945	0.065019	1.277685
H462	H	1.503278	0.398352	1.611018
N463	N	0.142951	-0.274250	0.221758
N464	N	0.476285	0.059083	0.555091
N465	N	0.809618	0.392416	0.888424
N466	N	0.106277	-0.258394	0.181686
N467	N	0.439611	0.074939	0.515019
N468	N	0.772944	0.408273	0.848353
H469	H	0.082518	-0.279082	0.152580
H470	H	0.415852	0.054252	0.485914
H471	H	0.749185	0.387585	0.819247
N472	N	1.031376	-0.693020	0.181767
N473	N	1.364710	-0.359687	0.515101
N474	N	1.698043	-0.026353	0.848434
N475	N	1.067321	-0.672039	0.145861
N476	N	1.400655	-0.338706	0.479194
N477	N	1.733988	-0.005373	0.812528
H478	H	1.096393	-0.688933	0.116839
H479	H	1.429727	-0.355600	0.450173
H480	H	1.763060	-0.022267	0.783506
N481	N	0.828353	-0.954902	0.384645
N482	N	1.161687	-0.621568	0.717979
N483	N	1.495020	-0.288235	1.051312
N484	N	0.792405	-0.975881	0.420550
N485	N	1.125738	-0.642547	0.753884
N486	N	1.459072	-0.309214	1.087217
H487	H	0.763335	-0.958985	0.449573
H488	H	1.096669	-0.625652	0.782906
H489	H	1.430002	-0.292319	1.116240
H490	H	0.796318	-0.688299	0.416500
H491	H	1.129651	-0.354966	0.749834
H492	H	1.462984	-0.021633	1.083167
H493	H	0.836451	-0.387350	0.376220
H494	H	1.169784	-0.054017	0.709554
H495	H	1.503117	0.279317	1.042887
N496	N	0.787944	-0.598339	0.424833
N497	N	1.121278	-0.265006	0.758167
N498	N	1.454611	0.068327	1.091500
N499	N	0.752000	-0.619314	0.460746
N500	N	1.085333	-0.285981	0.794080
N501	N	1.418666	0.047352	1.127413
H502	H	0.722935	-0.602416	0.489770
H503	H	1.056268	-0.269083	0.823104
H504	H	1.389602	0.064250	1.156437
N505	N	1.031384	-0.738946	0.181766
N506	N	1.364717	-0.405613	0.515099
N507	N	1.698051	-0.072279	0.848432
N508	N	1.027234	-0.744217	0.123678
N509	N	1.360567	-0.410884	0.457012
N510	N	1.693901	-0.077550	0.790345
H511	H	1.056281	-0.727285	0.094646
H512	H	1.389614	-0.393952	0.427979
H513	H	1.722948	-0.060618	0.761312
N514	N	1.031423	-0.833784	0.181787
N515	N	1.364756	-0.500450	0.515120
N516	N	1.698090	-0.167117	0.848453
N517	N	1.009301	-0.859999	0.141661
N518	N	1.342635	-0.526665	0.474994
N519	N	1.675968	-0.193332	0.808327
H520	H	1.038358	-0.876910	0.112644
H521	H	1.371691	-0.543577	0.445977
H522	H	1.705024	-0.210244	0.779310
N523	N	0.788032	-0.833916	0.424846
N524	N	1.121365	-0.500582	0.758179
N525	N	1.454699	-0.167249	1.091512
N526	N	0.752067	-0.812982	0.460749
N527	N	1.085401	-0.479648	0.794082
N528	N	1.418734	-0.146315	1.127415
H529	H	0.723012	-0.829913	0.489774
H530	H	1.056345	-0.496579	0.823107
H531	H	1.389679	-0.163246	1.156441
