data_functionalizedCrystal
_audit_creation_method	'MofGen! by Chris Wilmer'
_symmetry_space_group_name_H-M	'P1'
_symmetry_Int_Tables_number	1
_symmetry_cell_setting	triclinic
loop_
_symmetry_equiv_pos_as_xyz
  x,y,z
_cell_length_a	21.606444
_cell_length_b	18.426585
_cell_length_c	21.606444
_cell_angle_alpha	90.001433
_cell_angle_beta	59.991153
_cell_angle_gamma	60.004303
loop_
_atom_site_label
_atom_site_type_symbol
_atom_site_fract_x
_atom_site_fract_y
_atom_site_fract_z
Zr1	Zr	0.677539	0.699110	-0.081351
O2	O	0.806669	0.583229	-0.180197
O3	O	0.548408	0.734634	-0.051035
O4	O	0.677544	0.734627	-0.180179
O5	O	0.677529	0.583242	0.050801
O6	O	0.677548	0.854053	-0.180181
O7	O	0.677533	0.583236	-0.051053
O8	O	0.446548	0.854065	0.050834
O9	O	0.908529	0.583230	-0.180214
O10	O	0.601525	0.838911	-0.038125
O11	O	0.601518	0.749789	0.037889
O12	O	0.753559	0.749781	-0.114161
O13	O	0.753552	0.660659	-0.038147
Zr14	Zr	0.677538	0.889590	0.081090
Zr15	Zr	0.677545	0.889581	-0.081355
Zr16	Zr	0.677532	0.699120	0.081094
Zr17	Zr	0.839994	0.699111	-0.081378
Zr18	Zr	0.515083	0.889589	0.081117
O19	O	0.806669	0.854067	0.050774
O20	O	0.806679	0.854053	-0.180203
O21	O	0.806659	0.583243	0.050779
O22	O	0.548408	1.005472	0.179936
O23	O	0.548418	1.005458	-0.051041
O24	O	0.548398	0.734647	0.179942
O25	O	0.677548	1.005459	-0.051062
O26	O	0.677533	0.854074	0.179918
O27	O	0.677529	0.734648	0.179920
O28	O	0.677544	1.005465	0.050792
O29	O	0.908534	0.734628	-0.180218
O30	O	0.446543	0.854073	0.179956
O31	O	0.446548	1.005471	0.179953
O32	O	0.446554	1.005463	0.050831
O33	O	0.908523	0.583237	-0.051092
O34	O	0.908529	0.734636	-0.051095
O35	O	0.601518	0.838920	0.113900
O36	O	0.601525	0.928041	0.037886
O37	O	0.753559	0.838912	-0.038151
O38	O	0.753552	0.749790	0.037864
C39	C	0.474332	0.794349	-0.000097
C40	C	0.405365	0.794349	-0.000085
C41	C	0.429100	0.728550	-0.056212
C42	C	0.364311	0.728552	-0.056228
C43	C	0.275787	0.794350	-0.000113
C44	C	0.252053	0.860155	0.056017
C45	C	0.316841	0.860156	0.056029
C46	C	-0.009234	0.860155	0.055969
C47	C	-0.074023	0.860148	0.055954
C48	C	0.038236	0.728551	-0.056287
C49	C	0.103024	0.728552	-0.056275
C50	C	0.079284	0.794359	-0.000148
C51	C	0.149537	0.794357	-0.000133
C52	C	0.205536	0.794350	-0.000125
C53	C	0.677530	0.556101	-0.000125
C54	C	0.677527	0.475241	-0.000124
C55	C	0.677553	0.179126	-0.000137
C56	C	0.677550	0.261512	-0.000135
C57	C	0.677540	0.327181	-0.000131
C58	C	0.677536	0.409572	-0.000128
C59	C	0.880745	0.794352	-0.000165
C60	C	0.949712	0.794352	-0.000176
C61	C	0.677547	0.794338	-0.203325
C62	C	0.677550	0.794334	-0.272288
C63	C	0.677547	1.032600	-0.000136
C64	C	0.677550	1.113460	-0.000138
C65	C	0.756910	0.747809	-0.344376
C66	C	0.756907	0.747817	-0.409171
C67	C	0.677544	0.794345	-0.401876
C68	C	0.598179	0.840876	-0.329779
C69	C	0.598182	0.840873	-0.264986
C70	C	0.598163	0.840890	-0.591082
C71	C	0.598166	0.840887	-0.655883
C72	C	0.756889	0.747834	-0.735267
C73	C	0.756892	0.747831	-0.670474
C74	C	0.677527	0.794365	-0.598384
C75	C	0.677531	0.794358	-0.528126
C76	C	0.677540	0.794348	-0.472132
C77	C	0.677530	0.794362	0.203064
C78	C	0.677527	0.794367	0.272026
C79	C	0.474340	1.032599	-0.000102
C80	C	0.405377	1.113458	-0.000092
C81	C	0.474323	0.794361	0.203098
C82	C	0.405354	0.794365	0.272072
C83	C	0.474332	1.032611	0.203093
C84	C	0.405365	1.113474	0.272065
C85	C	0.880745	0.556090	-0.203354
C86	C	0.949712	0.475227	-0.272326
C87	C	0.880737	0.556102	-0.000159
C88	C	0.949700	0.475243	-0.000169
C89	C	0.880754	0.794340	-0.203359
C90	C	0.949723	0.794336	-0.272333
C91	C	0.372991	1.104905	-0.039771
C92	C	0.308201	1.180874	-0.039777
C93	C	0.275794	1.265394	-0.000099
C94	C	0.308187	1.273945	0.039581
C95	C	0.372980	1.197978	0.039582
C96	C	0.372965	0.840892	0.344146
C97	C	0.308170	0.840892	0.408961
C98	C	0.275760	0.794370	0.401699
C99	C	0.308155	0.747837	0.329617
C100	C	0.372954	0.747832	0.264804
C101	C	0.372981	1.197977	0.264776
C102	C	0.308189	1.273964	0.329577
C103	C	0.275777	1.265446	0.401665
C104	C	0.308168	1.180934	0.408953
C105	C	0.372963	1.104949	0.344153
C106	C	0.982104	0.390724	-0.265037
C107	C	1.046916	0.314737	-0.329838
C108	C	1.079331	0.323255	-0.401926
C109	C	1.046937	0.407766	-0.409214
C110	C	0.982130	0.483751	-0.344414
C111	C	0.982093	0.483796	0.039503
C112	C	1.046900	0.407827	0.039491
C113	C	1.079310	0.323307	-0.000189
C114	C	1.046914	0.314755	-0.039866
C115	C	0.982112	0.390723	-0.039858
C116	C	0.982112	0.840867	-0.265047
C117	C	1.046908	0.840881	-0.329849
C118	C	1.079318	0.794358	-0.401937
C119	C	1.046922	0.747825	-0.409221
C120	C	0.982124	0.747817	-0.344420
H121	H	0.057560	0.674971	-0.101991
Cl122	Cl	0.194297	0.794386	0.483187
Cl123	Cl	0.267489	1.170103	-0.089661
Cl124	Cl	0.498407	0.899371	-0.320608
Cl125	Cl	0.856687	0.689311	-0.353557
Cl126	Cl	0.413658	0.689341	0.174199
Cl127	Cl	0.941368	0.590041	0.089389
H128	H	0.399345	0.878776	0.350073
Cl129	Cl	0.267411	1.170241	0.499584
Cl130	Cl	0.413661	0.998720	0.353329
Cl131	Cl	0.941381	0.899362	-0.174431
Cl132	Cl	0.394155	0.645827	-0.126788
H133	H	0.281758	0.709960	0.323716
H134	H	1.132101	0.261375	-0.454684
H135	H	1.073277	0.878772	-0.323903
H136	H	0.501178	0.674961	-0.101899
Cl137	Cl	1.087663	0.208494	-0.089743
Cl138	Cl	1.087684	0.689333	-0.499851
H139	H	0.955740	0.383747	-0.072162
Cl140	Cl	0.413719	1.208709	0.174159
Cl141	Cl	0.214310	0.645828	-0.126819
Cl142	Cl	0.941422	0.689304	-0.353592
Cl143	Cl	0.267455	0.899399	0.499569
Cl144	Cl	0.856679	0.689323	-0.499797
H145	H	1.073281	0.245931	-0.323890
Cl146	Cl	0.856667	0.689323	-0.679651
H147	H	0.955757	0.552555	-0.350358
Cl148	Cl	-0.185314	0.942873	0.126504
Cl149	Cl	0.194337	1.360889	-0.000106
H150	H	1.073266	0.414807	0.071804
Cl151	Cl	1.087693	0.418459	-0.499845
Cl152	Cl	0.267479	1.380196	0.320398
H153	H	0.399340	1.204954	0.071898
Cl154	Cl	0.194317	1.360980	0.483122
Cl155	Cl	0.941367	0.379992	-0.174420
Cl156	Cl	0.498388	0.899386	-0.646707
H157	H	1.132081	0.794372	-0.454696
H158	H	-0.028574	0.913740	0.101671
Cl159	Cl	0.140765	0.942875	0.126560
Cl160	Cl	0.287001	0.942881	0.126588
H161	H	0.281792	1.342772	0.071885
H162	H	0.821512	0.709945	-0.793973
Cl163	Cl	0.498411	0.899374	-0.174358
Cl164	Cl	0.498390	0.899352	-0.500463
H165	H	1.132075	0.261456	-0.000189
H166	H	0.399376	1.036091	-0.072091
