data_functionalizedCrystal
_audit_creation_method	'MofGen! by Chris Wilmer'
_symmetry_space_group_name_H-M	'P1'
_symmetry_Int_Tables_number	1
_symmetry_cell_setting	triclinic
loop_
_symmetry_equiv_pos_as_xyz
  x,y,z
_cell_length_a	16.992694
_cell_length_b	14.421503
_cell_length_c	16.992695
_cell_angle_alpha	89.995710
_cell_angle_beta	90.668223
_cell_angle_gamma	90.002529
loop_
_atom_site_label
_atom_site_type_symbol
_atom_site_fract_x
_atom_site_fract_y
_atom_site_fract_z
O1	O	1.050855	0.076996	0.166906
O2	O	1.550855	0.576996	0.666906
O3	O	0.822455	0.077024	0.165075
O4	O	1.322455	0.577024	0.665075
O5	O	0.935739	0.077003	0.051790
O6	O	1.435739	0.577003	0.551790
O7	O	0.937570	0.077017	0.280190
O8	O	1.437570	0.577017	0.780190
O9	O	0.935720	-0.077221	0.051807
O10	O	1.435720	0.422779	0.551807
O11	O	0.822436	-0.077200	0.165092
O12	O	1.322436	0.422800	0.665092
O13	O	1.050836	-0.077227	0.166923
O14	O	1.550836	0.422773	0.666923
Cu15	Cu	0.936634	-0.091295	0.166009
Cu16	Cu	1.436634	0.408705	0.666009
Cu17	Cu	0.936656	0.091092	0.165989
Cu18	Cu	1.436656	0.591092	0.665989
O19	O	0.937551	-0.077206	0.280207
O20	O	1.437551	0.422794	0.780207
C21	C	0.793085	-0.000085	0.162727
C22	C	1.293085	0.499915	0.662727
C23	C	0.705600	-0.000074	0.155699
C24	C	1.205600	0.499926	0.655699
N25	N	0.936624	-0.219577	0.166022
N26	N	1.436624	0.280423	0.666022
C27	C	0.659610	-0.000071	0.223517
C28	C	1.159610	0.499929	0.723517
C29	C	0.577409	-0.000084	0.216908
C30	C	1.077409	0.499916	0.716908
C31	C	0.541201	-0.000094	0.142480
C32	C	1.041201	0.499906	0.642480
C33	C	0.587198	-0.000101	0.074657
C34	C	1.087198	0.499899	0.574657
C35	C	0.669397	-0.000094	0.081267
C36	C	1.169397	0.499906	0.581267
C37	C	0.295886	-0.000121	0.115086
C38	C	0.795886	0.499879	0.615086
C39	C	0.213681	-0.000125	0.108481
C40	C	0.713681	0.499875	0.608481
C41	C	0.203898	-0.000110	0.250732
C42	C	0.703898	0.499890	0.750732
C43	C	0.286099	-0.000098	0.257336
C44	C	0.786099	0.499902	0.757336
C45	C	0.332089	-0.000109	0.189512
C46	C	0.832089	0.499891	0.689512
N47	N	0.457178	-0.000105	0.135723
N48	N	0.957178	0.499895	0.635723
N49	N	0.416110	-0.000105	0.196270
N50	N	0.916110	0.499895	0.696270
C51	C	0.884230	-0.469221	0.218379
C52	C	1.384230	0.030779	0.718379
C53	C	0.956318	-0.531031	0.238115
C54	C	1.456318	-0.031031	0.738115
C55	C	0.936642	-0.408738	0.166005
C56	C	1.436642	0.091262	0.666005
C57	C	0.864574	-0.531022	0.146289
C58	C	1.364574	-0.031022	0.646289
C59	C	0.936653	-0.591459	0.165989
C60	C	1.436653	-0.091459	0.665989
C61	C	1.008768	-0.469187	0.185778
C62	C	1.508768	0.030813	0.685778
C63	C	0.916975	-0.469173	0.093918
C64	C	1.416975	0.030827	0.593918
C65	C	0.989113	-0.530955	0.113627
C66	C	1.489113	-0.030955	0.613627
C67	C	0.936635	-0.303477	0.166016
C68	C	1.436635	0.196523	0.666016
C69	C	0.936669	-0.696718	0.165978
C70	C	1.436669	-0.196718	0.665978
C71	C	1.080205	-0.000117	0.169270
C72	C	1.580205	0.499883	0.669270
C73	C	1.167690	-0.000121	0.176299
C74	C	1.667690	0.499879	0.676299
C75	C	0.933374	-0.000109	0.022439
C76	C	1.433374	0.499891	0.522439
C77	C	0.926345	-0.000108	-0.065046
C78	C	1.426345	0.499892	0.434954
N79	N	0.936672	0.219373	0.165969
N80	N	1.436672	0.719373	0.665969
C81	C	0.994163	-0.000117	-0.111037
C82	C	1.494163	0.499883	0.388963
C83	C	0.987554	-0.000107	-0.193238
C84	C	1.487554	0.499893	0.306762
C85	C	0.913127	-0.000095	-0.229446
C86	C	1.413127	0.499905	0.270554
C87	C	0.845303	-0.000083	-0.183449
C88	C	1.345303	0.499917	0.316551
C89	C	0.851913	-0.000086	-0.101250
C90	C	1.351913	0.499914	0.398750
C91	C	0.885732	-0.000079	-0.474760
C92	C	1.385732	0.499921	0.025240
C93	C	0.879127	-0.000079	-0.556966
C94	C	1.379127	0.499921	-0.056966
C95	C	1.021379	-0.000101	-0.566749
C96	C	1.521379	0.499899	-0.066749
C97	C	1.027982	-0.000109	-0.484547
C98	C	1.527982	0.499891	0.015453
C99	C	0.960159	-0.000093	-0.438558
C100	C	1.460159	0.499907	0.061442
N101	N	0.906369	-0.000088	-0.313468
N102	N	1.406369	0.499912	0.186532
N103	N	0.966917	-0.000093	-0.354537
N104	N	1.466917	0.499907	0.145463
C105	C	0.939917	-0.000093	0.309559
C106	C	1.439917	0.499907	0.809559
C107	C	0.946945	-0.000088	0.397044
C108	C	1.446945	0.499912	0.897044
H109	H	0.689084	-0.000062	0.284124
H110	H	1.189084	0.499938	0.784124
H111	H	0.557710	-0.000122	0.014056
H112	H	1.057710	0.499878	0.514056
F113	F	0.154947	-0.000100	0.322909
F114	F	0.654947	0.499900	0.822909
H115	H	1.042779	-0.000116	-0.230680
H116	H	1.542779	0.499884	0.269320
F117	F	1.047118	-0.566168	0.055727
F118	F	1.547118	-0.066168	0.555727
H119	H	0.839957	-0.442115	0.262712
H120	H	1.339957	0.057885	0.762712
H121	H	0.184203	-0.000132	0.047870
H122	H	0.684203	0.499868	0.547870
H123	H	0.972962	-0.558201	0.299071
H124	H	1.472962	-0.058201	0.799071
F125	F	0.895192	-0.433629	0.014266
F126	F	1.395192	0.066371	0.514266
H127	H	1.088589	-0.000119	-0.455073
H128	H	1.588589	0.499881	0.044927
H129	H	1.076596	-0.000113	-0.604202
H130	H	1.576596	0.499887	-0.104202
H131	H	0.803622	-0.558186	0.129620
H132	H	1.303622	-0.058186	0.629620
F133	F	0.718344	-0.000101	0.009085
F134	F	1.218344	0.499899	0.509085
H135	H	0.315574	-0.000079	0.317942
H136	H	0.815574	0.499921	0.817942
F137	F	0.528465	-0.000076	0.289090
F138	F	1.028465	0.499924	0.789090
F139	F	0.766091	-0.000060	-0.221987
F140	F	1.266091	0.499940	0.278013
F141	F	0.813548	-0.000059	-0.425825
F142	F	1.313548	0.499941	0.074175
H143	H	0.333322	-0.000131	0.059859
H144	H	0.833322	0.499869	0.559859
H145	H	1.069737	-0.442140	0.202520
H146	H	1.569737	0.057860	0.702520
H147	H	1.054770	-0.000132	-0.081563
H148	H	1.554770	0.499868	0.418437
F149	F	0.799908	-0.000071	-0.595499
F150	F	1.299908	0.499929	-0.095499
F151	F	0.779732	-0.000074	-0.052303
F152	F	1.279732	0.499926	0.447697
