data_functionalizedCrystal
_audit_creation_method	'MofGen! by Chris Wilmer'
_symmetry_space_group_name_H-M	'P1'
_symmetry_Int_Tables_number	1
_symmetry_cell_setting	triclinic
loop_
_symmetry_equiv_pos_as_xyz
  x,y,z
_cell_length_a	10.654545
_cell_length_b	10.654550
_cell_length_c	9.730223
_cell_angle_alpha	89.998718
_cell_angle_beta	90.003032
_cell_angle_gamma	84.484005
loop_
_atom_site_label
_atom_site_type_symbol
_atom_site_fract_x
_atom_site_fract_y
_atom_site_fract_z
O1	O	1.667843	0.176369	0.114262
O2	O	1.302364	0.193181	0.114266
O3	O	1.493506	0.002036	0.114270
O4	O	1.476700	0.367514	0.114259
O5	O	1.493493	0.002036	-0.114310
O6	O	1.302350	0.193181	-0.114314
O7	O	1.667829	0.176369	-0.114318
Zn8	Zn	1.485088	0.184775	-0.150608
Zn9	Zn	1.485106	0.184775	0.150556
O10	O	1.476687	0.367514	-0.114321
C11	C	1.255559	0.191948	-0.000023
C12	C	1.116115	0.188258	-0.000020
C13	C	1.050603	0.186521	-0.124620
C14	C	0.919584	0.183034	-0.124620
C15	C	0.919599	0.183025	0.124590
C16	C	1.050618	0.186504	0.124589
C17	C	1.492266	-0.044762	-0.000016
C18	C	1.488574	-0.184206	-0.000003
C19	C	1.714634	0.177602	-0.000026
C20	C	1.854078	0.181292	-0.000019
N21	N	1.485084	0.184774	-0.356144
C22	C	1.477927	0.414312	-0.000033
C23	C	1.481619	0.553755	-0.000037
C24	C	1.369078	0.633243	-0.000032
C25	C	1.372554	0.764264	-0.000010
C26	C	1.601124	0.736297	-0.000003
C27	C	1.597646	0.605279	-0.000015
C28	C	1.561916	0.261655	-0.428068
C29	C	1.561937	0.261648	-0.571951
C30	C	1.408284	0.107876	-0.571973
C31	C	1.408271	0.107878	-0.428093
N32	N	1.485118	0.184766	0.356093
H33	H	0.866250	0.181620	-0.226082
N34	N	1.726260	0.791872	-0.000005
H35	H	1.775607	0.762957	-0.084744
H36	H	1.775525	0.762937	0.084782
N37	N	1.121251	0.188413	-0.259013
H38	H	1.059863	0.186782	-0.337945
H39	H	1.185122	0.112139	-0.264443
H40	H	1.345704	0.045265	-0.369530
H41	H	0.866255	0.181598	0.226043
H42	H	1.103959	0.187915	0.226059
H43	H	1.624463	0.324269	-0.369492
H44	H	1.274601	0.591298	-0.000054
H45	H	1.280911	0.828978	-0.000004
H46	H	1.345743	0.045271	-0.630571
N47	N	1.719036	0.519533	-0.000015
H48	H	1.793066	0.572052	-0.000011
H49	H	1.722565	0.464571	-0.084757
N50	N	1.644836	0.344538	-0.649529
H51	H	1.693502	0.393238	-0.582112
H52	H	1.590643	0.405431	-0.709258
