data_functionalizedCrystal
_audit_creation_method	'MofGen! by Chris Wilmer'
_symmetry_space_group_name_H-M	'P1'
_symmetry_Int_Tables_number	1
_symmetry_cell_setting	triclinic
loop_
_symmetry_equiv_pos_as_xyz
  x,y,z
_cell_length_a	17.699104
_cell_length_b	19.188924
_cell_length_c	16.776229
_cell_angle_alpha	89.991401
_cell_angle_beta	89.991556
_cell_angle_gamma	83.216741
loop_
_atom_site_label
_atom_site_type_symbol
_atom_site_fract_x
_atom_site_fract_y
_atom_site_fract_z
O1	O	1.003950	0.088364	-0.066308
O2	O	1.503950	0.588364	0.433692
O3	O	0.783559	0.099836	-0.066306
O4	O	1.283559	0.599836	0.433694
O5	O	0.900117	-0.007549	-0.066298
O6	O	1.400117	0.492451	0.433702
O7	O	0.887392	0.195748	-0.066317
O8	O	1.387392	0.695748	0.433683
O9	O	0.900101	-0.007555	0.066279
O10	O	1.400101	0.492445	0.566279
O11	O	0.783542	0.099830	0.066270
O12	O	1.283542	0.599830	0.566270
O13	O	1.003934	0.088357	0.066269
O14	O	1.503934	0.588357	0.566269
Zn15	Zn	0.893736	0.094093	0.087319
Zn16	Zn	1.393736	0.594093	0.587319
Zn17	Zn	0.893757	0.094101	-0.087357
Zn18	Zn	1.393757	0.594101	0.412643
O19	O	0.887375	0.195742	0.066260
O20	O	1.387375	0.695742	0.566260
C21	C	0.755354	0.099419	-0.000018
C22	C	1.255354	0.599419	0.499982
C23	C	0.671339	0.098178	-0.000017
C24	C	1.171339	0.598178	0.499983
C25	C	0.899698	-0.033563	-0.000009
C26	C	1.399698	0.466437	0.499991
C27	C	0.898463	-0.111070	-0.000007
C28	C	1.398463	0.388930	0.499993
C29	C	0.146393	0.154214	-0.000031
C30	C	0.646393	0.654214	0.499969
C31	C	0.225335	0.155376	-0.000033
C32	C	0.725335	0.655376	0.499967
C33	C	0.274037	0.092337	-0.000027
C34	C	0.774037	0.592337	0.499973
C35	C	0.243793	0.028133	-0.000027
C36	C	0.743793	0.528133	0.499973
C37	C	0.164853	0.026972	-0.000030
C38	C	0.664853	0.526972	0.499970
C39	C	0.562153	0.032812	-0.000014
C40	C	1.062153	0.532812	0.499986
C41	C	0.641099	0.033978	-0.000009
C42	C	1.141099	0.533978	0.499991
C43	C	0.622635	0.161216	-0.000017
C44	C	1.122635	0.661216	0.499983
C45	C	0.543694	0.160056	-0.000021
C46	C	1.043694	0.660056	0.499979
C47	C	0.513458	0.095852	-0.000025
C48	C	1.013458	0.595852	0.499975
C49	C	0.427860	0.094593	-0.000023
C50	C	0.927860	0.594593	0.499977
C51	C	0.359634	0.093595	-0.000022
C52	C	0.859634	0.593595	0.499978
C53	C	0.897896	-0.147466	-0.072274
C54	C	1.397896	0.352534	0.427726
C55	C	0.896726	-0.220290	-0.072280
C56	C	1.396726	0.279710	0.427720
C57	C	0.896137	-0.256717	-0.000015
C58	C	1.396137	0.243283	0.499985
C59	C	0.896700	-0.220311	0.072262
C60	C	1.396700	0.279689	0.572262
C61	C	0.897863	-0.147488	0.072266
C62	C	1.397863	0.352512	0.572266
N63	N	0.937375	-0.376334	0.053771
N64	N	1.437375	0.123666	0.553771
N65	N	0.936272	-0.445513	0.053762
N66	N	1.436272	0.054487	0.553762
C67	C	0.892632	-0.476130	-0.000022
C68	C	1.392632	0.023870	0.499978
N69	N	0.850146	-0.434955	-0.053810
N70	N	1.350146	0.065045	0.446190
N71	N	0.851253	-0.365770	-0.053803
N72	N	1.351253	0.134230	0.446197
C73	C	0.894876	-0.335682	-0.000011
C74	C	1.394876	0.164318	0.499989
C75	C	0.890794	-0.591490	-0.072302
C76	C	1.390794	-0.091490	0.427698
C77	C	0.889619	-0.664315	-0.072305
C78	C	1.389619	-0.164315	0.427695
C79	C	0.889601	-0.664336	0.072240
C80	C	1.389601	-0.164336	0.572240
C81	C	0.890769	-0.591512	0.072241
C82	C	1.390769	-0.091512	0.572241
C83	C	0.891369	-0.555094	-0.000032
C84	C	1.391369	-0.055094	0.499968
C85	C	1.032138	0.088774	-0.000022
C86	C	1.532138	0.588774	0.499978
C87	C	1.116154	0.090015	-0.000028
C88	C	1.616154	0.590015	0.499972
C89	C	0.887795	0.221757	-0.000031
C90	C	1.387795	0.721757	0.499969
C91	C	0.889029	0.299263	-0.000038
C92	C	1.389029	0.799263	0.499962
N93	N	0.893726	0.094086	0.206530
N94	N	1.393726	0.594086	0.706530
C95	C	0.945354	0.046556	0.248251
C96	C	1.445354	0.546556	0.748251
C97	C	0.945357	0.046556	0.331703
C98	C	1.445357	0.546556	0.831703
C99	C	0.893737	0.094090	0.373433
C100	C	1.393737	0.594090	0.873433
C101	C	0.842104	0.141622	0.331706
C102	C	1.342104	0.641622	0.831706
C103	C	0.842097	0.141619	0.248255
C104	C	1.342097	0.641619	0.748255
C105	C	0.842129	0.141637	0.668253
C106	C	1.342129	0.641637	1.168253
C107	C	0.842141	0.141638	0.751710
C108	C	1.342141	0.641638	1.251710
C109	C	0.945389	0.046574	0.751701
C110	C	1.445389	0.546574	1.251701
C111	C	0.945382	0.046570	0.668250
C112	C	1.445382	0.546570	1.168250
C113	C	0.893747	0.094100	0.626531
C114	C	1.393747	0.594100	1.126531
C115	C	0.893743	0.094099	0.536042
C116	C	1.393743	0.594099	1.036042
C117	C	0.893744	0.094095	0.463920
C118	C	1.393744	0.594095	0.963920
N119	N	0.893765	0.094104	0.793432
N120	N	1.393765	0.594104	1.293432
H121	H	0.106744	0.205548	-0.000029
H122	H	0.606744	0.705548	0.499971
H123	H	0.140234	-0.025306	-0.000029
H124	H	0.640234	0.474694	0.499971
N125	N	0.491186	0.228059	-0.000020
N126	N	0.991186	0.728059	0.499980
H127	H	0.458026	0.230430	-0.049165
H128	H	0.958026	0.730430	0.450835
H129	H	0.458067	0.230377	0.049160
H130	H	0.958067	0.730377	0.549160
H131	H	0.987431	0.007870	0.785678
H132	H	1.487431	0.507870	1.285678
H133	H	0.537544	-0.019466	-0.000015
H134	H	1.037544	0.480534	0.499985
H135	H	0.987392	0.007852	0.214280
H136	H	1.487392	0.507852	0.714280
H137	H	0.647263	0.213495	-0.000018
H138	H	1.147263	0.713495	0.499982
N139	N	0.786408	0.192883	0.203258
N140	N	1.286408	0.692883	0.703258
H141	H	0.794955	0.242430	0.217764
H142	H	1.294955	0.742430	0.717764
H143	H	0.794261	0.185606	0.144075
H144	H	1.294261	0.685606	0.644075
H145	H	0.987396	0.007853	0.365672
H146	H	1.487396	0.507853	0.865672
N147	N	0.786441	0.192909	0.623273
N148	N	1.286441	0.692909	1.123273
H149	H	0.815251	0.223793	0.588635
H150	H	1.315251	0.723793	1.088635
H151	H	0.753026	0.166219	0.588712
H152	H	1.253026	0.666219	1.088712
N153	N	0.693634	-0.034015	-0.000012
N154	N	1.193634	0.465985	0.499988
H155	H	0.726787	-0.036373	0.049137
H156	H	1.226787	0.463627	0.549137
H157	H	0.662451	-0.074827	-0.000048
H158	H	1.162451	0.425173	0.499952
H159	H	0.283453	-0.023195	-0.000027
H160	H	0.783453	0.476805	0.499973
H161	H	0.800102	0.180347	0.785685
H162	H	1.300102	0.680347	1.285685
H163	H	0.889116	-0.693994	0.131081
H164	H	1.389116	-0.193994	0.631081
N165	N	0.898556	-0.108198	-0.150229
N166	N	1.398556	0.391802	0.349771
H167	H	0.945954	-0.083731	-0.153440
H168	H	1.445954	0.416269	0.346560
H169	H	0.897997	-0.142360	-0.195957
H170	H	1.397997	0.357640	0.304043
N171	N	0.896108	-0.259557	-0.150229
N172	N	1.396108	0.240443	0.349771
H173	H	0.896662	-0.225436	-0.196012
H174	H	1.396662	0.274564	0.303988
H175	H	0.942535	-0.295510	-0.153374
H176	H	1.442535	0.204490	0.346626
N177	N	0.896071	-0.259596	0.150207
N178	N	1.396071	0.240404	0.650207
H179	H	0.895253	-0.311253	0.139240
H180	H	1.395253	0.188747	0.639240
H181	H	0.943180	-0.252605	0.181762
H182	H	1.443180	0.247395	0.681762
H183	H	0.891237	-0.561879	0.131090
H184	H	1.391237	-0.061879	0.631090
H185	H	0.898322	-0.117854	0.131117
H186	H	1.398322	0.382146	0.631117
N187	N	0.891438	-0.552204	-0.150248
N188	N	1.391438	-0.052204	0.349752
H189	H	0.890895	-0.586314	-0.196032
H190	H	1.390895	-0.086314	0.303968
H191	H	0.845015	-0.516248	-0.153394
H192	H	1.345015	-0.016248	0.346606
H193	H	0.889153	-0.693947	-0.131156
H194	H	1.389153	-0.193947	0.368844
H195	H	0.987419	0.007866	0.634276
H196	H	1.487419	0.507866	1.134276
H197	H	0.249951	0.207653	-0.000043
H198	H	0.749951	0.707653	0.499957
N199	N	0.786420	0.192887	0.376710
N200	N	1.286420	0.692887	0.876710
H201	H	0.794258	0.185679	0.435907
H202	H	1.294258	0.685679	0.935907
H203	H	0.794991	0.242409	0.362108
H204	H	1.294991	0.742409	0.862108
