data_functionalizedCrystal
_audit_creation_method	'MofGen! by Chris Wilmer'
_symmetry_space_group_name_H-M	'P1'
_symmetry_Int_Tables_number	1
_symmetry_cell_setting	triclinic
loop_
_symmetry_equiv_pos_as_xyz
  x,y,z
_cell_length_a	12.594516
_cell_length_b	18.050591
_cell_length_c	12.594509
_cell_angle_alpha	89.982793
_cell_angle_beta	90.027068
_cell_angle_gamma	89.981932
loop_
_atom_site_label
_atom_site_type_symbol
_atom_site_fract_x
_atom_site_fract_y
_atom_site_fract_z
Zn1	Zn	-0.423713	-1.135389	0.601752
Zn2	Zn	-0.601723	-1.135308	0.423777
Zn3	Zn	-0.423759	-1.011195	0.423793
Zn4	Zn	-0.601650	-1.011178	0.601720
O5	O	-0.512711	-1.073268	0.512760
O6	O	-0.447338	-1.239303	0.578149
O7	O	-0.578166	-1.118818	0.274833
O8	O	-0.274807	-1.027711	0.447420
O9	O	-0.578122	-1.239244	0.447392
O10	O	-0.274773	-1.118955	0.578165
O11	O	-0.447416	-1.027632	0.274845
O12	O	-0.447345	-0.907268	0.447389
O13	O	-0.577996	-1.027682	0.750670
O14	O	-0.578040	-0.907256	0.578111
O15	O	-0.447267	-1.118939	0.750693
O16	O	-0.750659	-1.118801	0.447361
O17	O	-0.750605	-1.027603	0.578095
C18	C	-0.512690	-0.880316	0.512749
C19	C	-0.512707	-0.797770	0.512769
C20	C	-0.583933	-0.548959	0.583755
C21	C	-0.609847	-0.598325	0.486607
C22	C	-0.512748	-0.500649	0.512763
C23	C	-0.486864	-0.598365	0.609909
C24	C	-0.512731	-0.646634	0.512771
C25	C	-0.538713	-0.548928	0.415563
C26	C	-0.415684	-0.548964	0.538931
C27	C	-0.441562	-0.598308	0.441715
C28	C	-0.512761	-0.416551	0.512760
C29	C	-0.512718	-0.730731	0.512764
C30	C	-0.789252	-1.073212	0.512746
C31	C	-0.907558	-1.073256	0.512775
C32	C	-1.047584	-1.023694	0.583845
C33	C	-0.976672	-1.091398	0.609952
C34	C	-0.976897	-1.005558	0.486715
C35	C	-1.047432	-1.141118	0.538972
C36	C	-1.047663	-1.055232	0.415690
C37	C	-0.976784	-1.122983	0.441760
C38	C	-0.235090	-1.073344	0.512798
C39	C	-0.116785	-1.073376	0.512814
C40	C	-0.512618	-1.073317	0.790381
C41	C	-0.512578	-1.073339	0.908687
C42	C	-0.512740	-0.266973	0.512769
C43	C	-0.512769	-0.349519	0.512764
C44	C	-0.512727	-1.073261	0.236219
C45	C	-0.512467	-1.073384	0.117914
C46	C	-0.583641	-1.023719	0.977927
C47	C	-0.609648	-1.091483	1.048711
C48	C	-0.486508	-1.005628	1.048702
C49	C	-0.538636	-1.141138	0.977913
C50	C	-0.415450	-1.055237	0.977897
C51	C	-0.441420	-1.123047	1.048649
H52	H	-0.560698	-0.527304	0.333389
C53	C	-1.088416	-1.217553	0.568695
C54	C	-1.051547	-1.236426	0.670053
C55	C	-1.089269	-1.306834	0.697466
H56	H	-1.163835	-1.217212	0.568648
H57	H	-1.063574	-1.252858	0.518585
H58	H	-1.076394	-1.201130	0.720150
H59	H	-0.976132	-1.236784	0.670125
H60	H	-1.064428	-1.342139	0.647356
H61	H	-1.164688	-1.306486	0.697414
H62	H	-1.064252	-1.319652	0.766235
C63	C	-0.935529	-1.178877	0.361500
C64	C	-0.874510	-1.142222	0.284875
C65	C	-0.836501	-1.193687	0.210919
H66	H	-0.892911	-1.214682	0.396749
H67	H	-0.993765	-1.202840	0.328044
H68	H	-0.816282	-1.118271	0.318327
H69	H	-0.917106	-1.106421	0.249599
H70	H	-0.894737	-1.217650	0.177464
H71	H	-0.793886	-1.229489	0.246178
H72	H	-0.795103	-1.168823	0.158915
C73	C	-0.568318	-1.217483	0.936576
C74	C	-0.660444	-1.212189	0.874770
C75	C	-0.687831	-1.282501	0.836684
H76	H	-0.511964	-1.236434	0.894471
H77	H	-0.580778	-1.249820	0.994780
H78	H	-0.647979	-1.179863	0.816574
H79	H	-0.716818	-1.193251	0.916853
H80	H	-0.700290	-1.314838	0.894888
H81	H	-0.631470	-1.301446	0.794583
H82	H	-0.750345	-1.278919	0.794752
H83	H	-0.464503	-0.948347	1.079798
H84	H	-0.691739	-1.106818	1.079816
H85	H	-0.381356	-0.619839	0.381613
C86	C	-1.089255	-0.967821	0.663922
C87	C	-1.200411	-0.968132	0.662223
C88	C	-1.238838	-0.916669	0.735966
H89	H	-1.065059	-0.980727	0.732939
H90	H	-1.064128	-0.919787	0.646066
H91	H	-1.225528	-1.016155	0.680086
H92	H	-1.224636	-0.955217	0.593224
H93	H	-1.213711	-0.868635	0.718110
H94	H	-1.214635	-0.929580	0.804978
H95	H	-1.314260	-0.916868	0.734817
C96	C	-0.719362	-0.627198	0.457289
C97	C	-0.793581	-0.602214	0.531873
C98	C	-0.894476	-0.628800	0.504914
H99	H	-0.738374	-0.609559	0.388803
H100	H	-0.718447	-0.679827	0.456914
H101	H	-0.794499	-0.549596	0.532237
H102	H	-0.774604	-0.619851	0.600364
H103	H	-0.893561	-0.681429	0.504538
H104	H	-0.913477	-0.611159	0.436427
H105	H	-0.944844	-0.611858	0.555519
C106	C	-1.089223	-1.034654	0.306262
C107	C	-1.053575	-0.963626	0.279365
C108	C	-1.091853	-0.944633	0.178576
H109	H	-1.063955	-1.069340	0.255503
H110	H	-1.164649	-1.035252	0.306904
H111	H	-0.978164	-0.963034	0.278715
H112	H	-1.078841	-0.928925	0.330098
H113	H	-1.167279	-0.945231	0.179218
H114	H	-1.066582	-0.979323	0.127825
H115	H	-1.067679	-0.896436	0.160317
H116	H	-0.644185	-0.527291	0.643712
C117	C	-0.935749	-0.929084	0.457423
C118	C	-0.971658	-0.877361	0.532054
C119	C	-0.933800	-0.806902	0.505099
H120	H	-0.860333	-0.929584	0.456992
H121	H	-0.961147	-0.915869	0.388945
H122	H	-0.946255	-0.890572	0.600514
H123	H	-1.047070	-0.876838	0.532495
H124	H	-0.959198	-0.793687	0.436621
H125	H	-0.858385	-0.807410	0.504669
H126	H	-0.958166	-0.771798	0.555726
C127	C	-0.664059	-0.967909	0.936571
C128	C	-0.765551	-0.987236	0.972434
C129	C	-0.839661	-0.935851	0.934346
H130	H	-0.646397	-0.919886	0.961826
H131	H	-0.663160	-0.967976	0.861142
H132	H	-0.766448	-0.987162	1.047847
H133	H	-0.783247	-1.035250	0.947182
H134	H	-0.838762	-0.935918	0.858918
H135	H	-0.821988	-0.887831	0.959603
H136	H	-0.908532	-0.948961	0.958666
H137	H	-0.333631	-0.527265	0.561096
H138	H	-0.464978	-0.620080	0.692061
H139	H	-0.381276	-1.165076	1.079506
C140	C	-0.305989	-1.034916	0.936319
C141	C	-0.266124	-1.093435	0.875230
C142	C	-0.165285	-1.074738	0.836920
H143	H	-0.310955	-0.991636	0.893682
H144	H	-0.259652	-1.025829	0.994417
H145	H	-0.312449	-1.102513	0.817140
H146	H	-0.261132	-1.136722	0.917844
H147	H	-0.118949	-1.065651	0.895018
H148	H	-0.170261	-1.031456	0.794287
H149	H	-0.138220	-1.114442	0.795475
H150	H	-0.945493	-1.106699	0.692072
