data_functionalizedCrystal
_audit_creation_method	'MofGen! by Chris Wilmer'
_symmetry_space_group_name_H-M	'P1'
_symmetry_Int_Tables_number	1
_symmetry_cell_setting	triclinic
loop_
_symmetry_equiv_pos_as_xyz
  x,y,z
_cell_length_a	6.817900
_cell_length_b	16.418049
_cell_length_c	14.858572
_cell_angle_alpha	95.075873
_cell_angle_beta	104.524003
_cell_angle_gamma	103.389670
loop_
_atom_site_label
_atom_site_type_symbol
_atom_site_fract_x
_atom_site_fract_y
_atom_site_fract_z
V1	V	-4.037872	-0.116414	-0.290289
V2	V	-3.704539	0.216920	0.043044
V3	V	-3.371206	0.550253	0.376378
O4	O	-4.025632	0.005052	-0.284426
O5	O	-3.692299	0.338385	0.048907
O6	O	-3.358965	0.671718	0.382240
O7	O	-3.988873	-0.230307	-0.288628
O8	O	-3.655540	0.103026	0.044705
O9	O	-3.322207	0.436359	0.378039
O10	O	-3.994518	-0.114861	-0.416746
O11	O	-3.661185	0.218472	-0.083413
O12	O	-3.327852	0.551806	0.249920
O13	O	-4.019948	-0.111194	-0.155421
O14	O	-3.686614	0.222140	0.177913
O15	O	-3.353281	0.555473	0.511246
V16	V	-4.520924	-0.101857	-0.274118
V17	V	-4.187591	0.231476	0.059215
V18	V	-3.854257	0.564810	0.392548
O19	O	-4.300165	-0.148345	-0.325761
O20	O	-3.966831	0.184988	0.007572
O21	O	-3.633498	0.518321	0.340906
O22	O	-4.708829	-0.069925	-0.238647
O23	O	-4.375496	0.263408	0.094687
O24	O	-4.042163	0.596741	0.428020
O25	O	-4.346717	0.012037	-0.275780
O26	O	-4.013383	0.345370	0.057554
O27	O	-3.680050	0.678703	0.390887
O28	O	-4.650562	-0.223322	-0.279981
O29	O	-4.317228	0.110011	0.053352
O30	O	-3.983895	0.443344	0.386685
O31	O	-4.656246	-0.107077	-0.408987
O32	O	-4.322912	0.226256	-0.075653
O33	O	-3.989579	0.559590	0.257680
O34	O	-4.341072	-0.103410	-0.147661
O35	O	-4.007738	0.229924	0.185672
O36	O	-3.674405	0.563257	0.519006
C37	C	-3.833565	-0.258065	-0.284132
C38	C	-3.500232	0.075269	0.049201
C39	C	-3.166898	0.408602	0.382535
C40	C	-3.874823	-0.351175	-0.283617
C41	C	-3.541490	-0.017842	0.049717
C42	C	-3.208156	0.315491	0.383050
C43	C	-4.151994	-0.569671	-0.287100
C44	C	-3.818661	-0.236338	0.046233
C45	C	-3.485328	0.096995	0.379566
C46	C	-4.190749	-0.657160	-0.286624
C47	C	-3.857416	-0.323826	0.046709
C48	C	-3.524083	0.009507	0.380042
C49	C	-3.826160	-0.648599	-0.277313
C50	C	-3.492827	-0.315265	0.056020
C51	C	-3.159494	0.018068	0.389354
C52	C	-3.787412	-0.561113	-0.277796
C53	C	-3.454078	-0.227779	0.055537
C54	C	-3.120745	0.105554	0.388871
C55	C	-3.950333	-0.521651	-0.282685
C56	C	-3.617000	-0.188318	0.050648
C57	C	-3.283667	0.145016	0.383982
C58	C	-4.027837	-0.696625	-0.281726
C59	C	-3.694504	-0.363292	0.051607
C60	C	-3.361170	-0.029958	0.384941
C61	C	-4.069856	-0.791484	-0.281210
C62	C	-3.736522	-0.458151	0.052123
C63	C	-3.403189	-0.124817	0.385457
C64	C	-3.908314	-0.426786	-0.283203
C65	C	-3.574980	-0.093453	0.050130
C66	C	-3.241647	0.239880	0.383464
C67	C	-3.840765	-0.110800	-0.447559
C68	C	-3.507432	0.222533	-0.114225
C69	C	-3.174098	0.555866	0.219108
C70	C	-3.886598	-0.110285	-0.550940
C71	C	-3.553264	0.223049	-0.217607
C72	C	-3.219931	0.556382	0.115726
C73	C	-4.054347	-0.108399	-0.929503
C74	C	-3.721014	0.224934	-0.596170
C75	C	-3.387680	0.558267	-0.262836
C76	C	-4.007666	-0.108924	-0.824175
C77	C	-3.674332	0.224409	-0.490842
C78	C	-3.340999	0.557743	-0.157509
C79	C	-3.970474	-0.109343	-0.740225
C80	C	-3.637141	0.223991	-0.406892
C81	C	-3.303807	0.557324	-0.073559
C82	C	-3.923790	-0.109866	-0.634890
C83	C	-3.590456	0.223468	-0.301557
C84	C	-3.257123	0.556801	0.031776
C85	C	-4.165367	0.039789	-0.280273
C86	C	-3.832033	0.373123	0.053060
C87	C	-3.498700	0.706456	0.386394
C88	C	-4.103347	0.132900	-0.280794
C89	C	-3.770014	0.466233	0.052539
C90	C	-3.436681	0.799566	0.385872
C91	C	-4.158167	-0.107473	-0.116844
C92	C	-3.824834	0.225860	0.216489
C93	C	-3.491500	0.559194	0.549823
C94	C	-4.091573	-0.107985	-0.013461
C95	C	-3.758239	0.225349	0.319872
C96	C	-3.424906	0.558682	0.653205
H97	H	-4.284658	-0.537544	-0.291080
H98	H	-3.951324	-0.204211	0.042253
H99	H	-3.617991	0.129123	0.375586
H100	H	-4.354959	-0.696255	-0.290222
H101	H	-4.021626	-0.362921	0.043112
H102	H	-3.688293	-0.029588	0.376445
F103	F	-3.572768	-0.510003	-0.273101
F104	F	-3.239435	-0.176670	0.060232
F105	F	-2.906102	0.156663	0.393565
H106	H	-3.693520	-0.680739	-0.273331
H107	H	-3.360187	-0.347406	0.060003
H108	H	-3.026853	-0.014072	0.393336
