data_functionalizedCrystal
_audit_creation_method	'MofGen! by Chris Wilmer'
_symmetry_space_group_name_H-M	'P1'
_symmetry_Int_Tables_number	1
_symmetry_cell_setting	triclinic
loop_
_symmetry_equiv_pos_as_xyz
  x,y,z
_cell_length_a	16.625548
_cell_length_b	12.594516
_cell_length_c	16.625539
_cell_angle_alpha	89.976673
_cell_angle_beta	89.979432
_cell_angle_gamma	90.017121
loop_
_atom_site_label
_atom_site_type_symbol
_atom_site_fract_x
_atom_site_fract_y
_atom_site_fract_z
Zn1	Zn	1.232716	-0.423710	-0.455937
Zn2	Zn	1.232635	-0.601711	-0.321116
Zn3	Zn	1.097878	-0.423750	-0.321118
Zn4	Zn	1.097864	-0.601650	-0.455906
O5	O	1.165273	-0.512705	-0.388519
O6	O	1.345538	-0.447331	-0.438065
O7	O	1.214731	-0.578147	-0.208284
O8	O	1.115805	-0.274799	-0.339016
O9	O	1.345478	-0.578108	-0.339013
O10	O	1.214870	-0.274769	-0.438067
O11	O	1.115726	-0.447400	-0.208285
O12	O	0.985044	-0.447341	-0.338985
O13	O	1.115780	-0.578003	-0.568743
O14	O	0.985033	-0.578043	-0.438014
O15	O	1.214856	-0.447271	-0.568766
O16	O	1.214717	-0.750649	-0.338983
O17	O	1.115701	-0.750604	-0.438012
C18	C	0.955782	-0.512690	-0.388497
C19	C	0.866161	-0.512709	-0.388506
C20	C	0.537986	-0.512716	-0.388541
C21	C	0.629294	-0.512711	-0.388529
C22	C	0.702071	-0.512713	-0.388523
C23	C	0.793385	-0.512707	-0.388512
C24	C	1.165220	-0.789246	-0.388511
C25	C	1.165272	-0.907552	-0.388535
C26	C	1.111412	-0.976819	-0.442359
C27	C	1.091767	-1.047680	-0.368785
C28	C	1.184990	-1.047490	-0.462122
C29	C	1.145588	-0.976855	-0.314921
C30	C	1.238845	-0.976658	-0.408308
C31	C	1.219228	-1.047487	-0.334683
C32	C	1.375582	-0.512721	-0.388542
C33	C	1.465203	-0.512728	-0.388552
C34	C	1.165326	-0.512626	-0.598828
C35	C	1.165348	-0.512592	-0.688449
C36	C	1.165348	-0.235085	-0.388545
C37	C	1.165380	-0.116779	-0.388556
C38	C	1.165385	-0.512473	-1.016625
C39	C	1.165373	-0.512510	-0.925317
C40	C	1.165367	-0.512534	-0.852540
C41	C	1.165354	-0.512568	-0.761226
C42	C	1.165267	-0.512708	-0.179028
C43	C	1.165401	-0.512442	-0.089408
H44	H	1.065783	-0.945789	-0.487811
C45	C	1.322825	-0.934519	-0.430910
H46	H	1.336723	-0.958671	-0.483227
H47	H	1.361237	-0.959793	-0.393205
H48	H	1.322323	-0.859097	-0.430258
C49	C	1.123017	-0.935127	-0.230839
H50	H	1.113663	-0.993394	-0.195750
H51	H	1.075674	-0.893198	-0.234508
H52	H	1.165800	-0.893054	-0.210380
C53	C	1.007781	-1.089828	-0.346196
H54	H	0.969535	-1.065640	-0.384483
H55	H	0.993440	-1.064604	-0.294298
H56	H	1.008552	-1.165250	-0.345891
C57	C	1.280819	-1.089153	-0.273139
H58	H	1.266718	-1.064838	-0.220920
H59	H	1.332887	-1.063761	-0.286732
H60	H	1.280832	-1.164578	-0.273786
C61	C	1.207466	-1.089404	-0.546177
H62	H	1.169106	-1.065194	-0.584343
H63	H	1.207827	-1.164821	-0.545467
H64	H	1.259326	-1.064030	-0.560585
