data_functionalizedCrystal
_audit_creation_method	'MofGen! by Chris Wilmer'
_symmetry_space_group_name_H-M	'P1'
_symmetry_Int_Tables_number	1
_symmetry_cell_setting	triclinic
loop_
_symmetry_equiv_pos_as_xyz
  x,y,z
_cell_length_a	10.654545
_cell_length_b	10.654551
_cell_length_c	9.130313
_cell_angle_alpha	89.998309
_cell_angle_beta	89.996934
_cell_angle_gamma	84.484220
loop_
_atom_site_label
_atom_site_type_symbol
_atom_site_fract_x
_atom_site_fract_y
_atom_site_fract_z
O1	O	1.667843	0.176372	-0.121775
O2	O	1.302364	0.193184	-0.121780
O3	O	1.493506	0.002038	-0.121778
O4	O	1.476701	0.367517	-0.121777
O5	O	1.493493	0.002033	0.121821
O6	O	1.302351	0.193178	0.121819
O7	O	1.667830	0.176366	0.121824
Cu8	Cu	1.485089	0.184771	0.144064
Cu9	Cu	1.485105	0.184778	-0.144020
O10	O	1.476688	0.367511	0.121822
C11	C	1.255560	0.191948	0.000019
C12	C	1.116116	0.188258	0.000016
C13	C	1.050604	0.186518	0.132803
C14	C	0.919585	0.183030	0.132803
C15	C	0.919600	0.183028	-0.132782
C16	C	1.050618	0.186507	-0.132780
C17	C	1.492265	-0.044762	0.000018
C18	C	1.488573	-0.184206	0.000008
C19	C	1.486848	-0.249714	-0.132775
C20	C	1.483368	-0.380735	-0.132768
C21	C	1.483343	-0.380726	0.132817
C22	C	1.486814	-0.249707	0.132808
C23	C	1.486868	-0.249721	-0.286109
C24	C	1.483387	-0.380741	-0.286102
C25	C	1.714635	0.177602	0.000022
C26	C	1.854078	0.181292	0.000015
C27	C	1.477929	0.414312	0.000023
C28	C	1.481622	0.553755	0.000023
N29	N	1.485088	0.184766	0.346687
N30	N	1.485117	0.184774	-0.346642
C31	C	1.569754	0.100163	0.423339
C32	C	1.569766	0.100163	0.576676
C33	C	1.400441	0.269381	0.576694
C34	C	1.400424	0.269374	0.423360
H35	H	0.866255	0.181603	-0.240900
O36	O	1.309142	0.360649	0.659389
H37	H	1.323386	0.346453	0.778891
H38	H	1.638708	0.031270	0.639083
H39	H	0.866251	0.181614	0.240931
H40	H	1.103960	0.187920	-0.240918
H41	H	1.570182	-0.427033	-0.344973
H42	H	1.638691	0.031269	0.360915
O43	O	1.481461	-0.451391	0.276037
H44	H	1.396669	-0.415802	0.339706
O45	O	1.309106	0.360632	0.340667
H46	H	1.250250	0.419480	0.419740
O47	O	1.488677	-0.179045	0.276022
H48	H	1.486888	-0.246609	0.368362
O49	O	1.371913	-0.188398	-0.364093
H50	H	1.316550	-0.123732	-0.287623
H51	H	1.103929	0.187944	0.240935
H52	H	1.391793	-0.410306	-0.333695
O53	O	1.608192	-0.210537	-0.349137
H54	H	1.669705	-0.295719	-0.382553
