data_functionalizedCrystal
_audit_creation_method	'MofGen! by Chris Wilmer'
_symmetry_space_group_name_H-M	'P1'
_symmetry_Int_Tables_number	1
_symmetry_cell_setting	triclinic
loop_
_symmetry_equiv_pos_as_xyz
  x,y,z
_cell_length_a	19.188931
_cell_length_b	15.072220
_cell_length_c	15.995350
_cell_angle_alpha	89.992853
_cell_angle_beta	83.318758
_cell_angle_gamma	89.997490
loop_
_atom_site_label
_atom_site_type_symbol
_atom_site_fract_x
_atom_site_fract_y
_atom_site_fract_z
O1	O	-0.926409	0.073748	-0.104543
O2	O	-0.426409	0.573748	0.395457
O3	O	-0.723134	0.073756	-0.118614
O4	O	-0.223134	0.573756	0.381386
O5	O	-0.830328	0.073751	0.010329
O6	O	-0.330328	0.573751	0.510329
O7	O	-0.819215	0.073753	-0.233486
O8	O	-0.319215	0.573753	0.266514
O9	O	-0.830321	-0.073814	0.010345
O10	O	-0.330321	0.426186	0.510345
O11	O	-0.723127	-0.073809	-0.118599
O12	O	-0.223127	0.426191	0.381401
O13	O	-0.926402	-0.073817	-0.104527
O14	O	-0.426402	0.426183	0.395473
Zn15	Zn	-0.824764	-0.097243	-0.111561
Zn16	Zn	-0.324764	0.402757	0.388439
Zn17	Zn	-0.824773	0.097181	-0.111581
Zn18	Zn	-0.324773	0.597181	0.388419
O19	O	-0.819208	-0.073812	-0.233471
O20	O	-0.319208	0.426188	0.266529
C21	C	-0.697118	-0.000026	-0.118151
C22	C	-0.197118	0.499974	0.381849
C23	C	-0.619610	-0.000023	-0.116782
C24	C	-0.119610	0.499977	0.383218
N25	N	-0.824762	-0.229931	-0.111546
N26	N	-0.324762	0.270069	0.388454
C27	C	-0.829866	-0.000030	0.041530
C28	C	-0.329866	0.499970	0.541530
C29	C	-0.828488	-0.000025	0.134476
C30	C	-0.328488	0.499975	0.634476
C31	C	-0.066334	0.080406	-0.107025
C32	C	0.433666	0.580406	0.392975
C33	C	-0.139161	0.080409	-0.108306
C34	C	0.360839	0.580409	0.391694
C35	C	-0.175576	-0.000028	-0.108942
C36	C	0.324424	0.499972	0.391058
C37	C	-0.139160	-0.080475	-0.108275
C38	C	0.360840	0.419525	0.391725
C39	C	-0.066334	-0.080476	-0.106986
C40	C	0.433666	0.419524	0.393014
N41	N	-0.284720	-0.059901	-0.158605
N42	N	0.215280	0.440099	0.341395
N43	N	-0.353901	-0.059895	-0.159831
N44	N	0.146099	0.440105	0.340169
C45	C	-0.394995	-0.000030	-0.112824
C46	C	0.105005	0.499970	0.387176
N47	N	-0.364294	0.059842	-0.064554
N48	N	0.135706	0.559842	0.435446
N49	N	-0.295106	0.059838	-0.063331
N50	N	0.204894	0.559838	0.436669
C51	C	-0.254543	-0.000036	-0.110339
C52	C	0.245457	0.499964	0.389661
C53	C	-0.510371	0.080416	-0.114873
C54	C	-0.010371	0.580416	0.385127
C55	C	-0.583201	0.080416	-0.116148
C56	C	-0.083201	0.580416	0.383852
C57	C	-0.583197	-0.080471	-0.116126
C58	C	-0.083197	0.419529	0.383874
C59	C	-0.510369	-0.080469	-0.114842
C60	C	-0.010369	0.419531	0.385158
C61	C	-0.473961	-0.000023	-0.114219
C62	C	0.026039	0.499977	0.385781
C63	C	0.047582	-0.000034	-0.104992
C64	C	0.547582	0.499966	0.395008
C65	C	-0.029926	-0.000030	-0.106364
C66	C	0.470074	0.499970	0.393636
C67	C	-0.824774	-0.589133	-0.111575
C68	C	-0.324774	-0.089133	0.388425
C69	C	-0.882317	-0.551501	-0.042808
C70	C	-0.382317	-0.051501	0.457192
C71	C	-0.882167	-0.448675	-0.042556
C72	C	-0.382167	0.051325	0.457444
C73	C	-0.824769	-0.410929	-0.111560
C74	C	-0.324769	0.089071	0.388440
C75	C	-0.751925	-0.448269	-0.092746
C76	C	-0.251925	0.051731	0.407254
C77	C	-0.752265	-0.551127	-0.092261
C78	C	-0.252265	-0.051127	0.407739
C79	C	-0.839417	-0.551210	-0.199359
C80	C	-0.339417	-0.051210	0.300641
C81	C	-0.841071	-0.448345	-0.198765
C82	C	-0.341071	0.051655	0.301235
C83	C	-0.824761	-0.310215	-0.111554
C84	C	-0.324761	0.189785	0.388446
C85	C	-0.824776	-0.689846	-0.111579
C86	C	-0.324776	-0.189846	0.388421
N87	N	-0.824780	0.229870	-0.111589
N88	N	-0.324780	0.729870	0.388411
C89	C	-0.819671	-0.000030	-0.264672
C90	C	-0.319671	0.499970	0.235328
C91	C	-0.821048	-0.000029	-0.357617
C92	C	-0.321048	0.499971	0.142383
C93	C	-0.823541	-0.000028	0.472205
C94	C	-0.323541	0.499972	0.972205
C95	C	-0.747200	0.000306	0.424492
C96	C	-0.247200	0.500306	0.924492
C97	C	-0.748577	-0.000027	0.327807
C98	C	-0.248577	0.499973	0.827807
C99	C	-0.825995	-0.000026	0.304653
C100	C	-0.325995	0.499974	0.804653
C101	C	-0.863646	-0.084293	0.345878
C102	C	-0.363646	0.415707	0.845878
C103	C	-0.861728	-0.084363	0.442506
C104	C	-0.361728	0.415637	0.942506
C105	C	-0.863313	0.083446	0.442853
C106	C	-0.363313	0.583446	0.942853
C107	C	-0.863295	0.084559	0.345907
C108	C	-0.363295	0.584559	0.845907
C109	C	-0.827386	-0.000028	0.209961
C110	C	-0.327386	0.499972	0.709961
C111	C	-0.822153	-0.000032	0.566898
C112	C	-0.322153	0.499968	1.066898
H113	H	-0.036695	0.145911	-0.106515
H114	H	0.463305	0.645911	0.393485
Cl115	Cl	-0.702882	0.093234	0.283744
Cl116	Cl	-0.202882	0.593234	0.783744
H117	H	-0.917777	-0.088186	0.474960
H118	H	-0.417777	0.411814	0.974960
Cl119	Cl	-0.923800	-0.410657	-0.220825
Cl120	Cl	-0.423800	0.089343	0.279175
Cl121	Cl	-0.966203	-0.589677	-0.059761
Cl122	Cl	-0.466203	-0.089677	0.440239
Cl123	Cl	-0.951459	-0.089136	0.324393
Cl124	Cl	-0.451459	0.410864	0.824393
H125	H	-0.873097	-0.577360	0.021974
H126	H	-0.373097	-0.077360	0.521974
Cl127	Cl	-0.020561	-0.181605	-0.106158
Cl128	Cl	0.479439	0.318395	0.393842
Cl129	Cl	-0.731506	-0.408516	0.004958
Cl130	Cl	-0.231506	0.091484	0.504958
Cl131	Cl	-0.780554	-0.408676	-0.281443
Cl132	Cl	-0.280554	0.091324	0.218557
H133	H	-0.872810	-0.424078	0.022596
H134	H	-0.372810	0.075922	0.522596
H135	H	-0.708159	-0.576022	-0.140456
H136	H	-0.208159	-0.076022	0.359544
Cl137	Cl	-0.184941	0.181537	-0.109140
Cl138	Cl	0.315059	0.681537	0.390860
H139	H	-0.838356	0.147315	0.463294
H140	H	-0.338356	0.647315	0.963294
Cl141	Cl	-0.823264	-0.181113	0.301926
Cl142	Cl	-0.323264	0.318887	0.801926
H143	H	-0.936315	-0.423429	-0.053720
H144	H	-0.436315	0.076571	0.446280
H145	H	-0.739359	-0.575127	-0.028248
H146	H	-0.239359	-0.075127	0.471752
Cl147	Cl	-0.628970	-0.181594	-0.116911
Cl148	Cl	-0.128970	0.318406	0.383089
H149	H	-0.168813	-0.145968	-0.108791
H150	H	0.331187	0.354032	0.391209
Cl151	Cl	-0.700163	-0.092195	0.454938
Cl152	Cl	-0.200163	0.407805	0.954938
Cl153	Cl	-0.700090	0.093605	0.452919
Cl154	Cl	-0.200090	0.593605	0.952919
H155	H	-0.718777	-0.060533	0.299839
H156	H	-0.218777	0.439467	0.799839
Cl157	Cl	-0.821144	0.180821	0.303184
Cl158	Cl	-0.321144	0.680821	0.803184
Cl159	Cl	-0.950460	0.092422	0.322505
Cl160	Cl	-0.450460	0.592422	0.822505
Cl161	Cl	-0.464597	0.181545	-0.114084
Cl162	Cl	0.035403	0.681545	0.385916
H163	H	-0.797455	-0.575550	-0.250531
H164	H	-0.297455	-0.075550	0.249469
H165	H	-0.834267	-0.147354	0.460714
H166	H	-0.334267	0.352646	0.960714
Cl167	Cl	-0.950213	0.084324	0.492208
Cl168	Cl	-0.450213	0.584324	0.992208
H169	H	-0.612844	0.145919	-0.116680
H170	H	-0.112844	0.645919	0.383320
Cl171	Cl	-0.464595	-0.181595	-0.114024
Cl172	Cl	0.035405	0.318405	0.385976
Cl173	Cl	-0.684217	-0.410523	-0.168030
Cl174	Cl	-0.184217	0.089477	0.331970
Cl175	Cl	-0.919679	-0.591241	-0.227375
Cl176	Cl	-0.419679	-0.091241	0.272625
