data_functionalizedCrystal
_audit_creation_method	'MofGen! by Chris Wilmer'
_symmetry_space_group_name_H-M	'P1'
_symmetry_Int_Tables_number	1
_symmetry_cell_setting	triclinic
loop_
_symmetry_equiv_pos_as_xyz
  x,y,z
_cell_length_a	18.050589
_cell_length_b	16.625548
_cell_length_c	16.625539
_cell_angle_alpha	89.979432
_cell_angle_beta	89.975176
_cell_angle_gamma	90.029289
loop_
_atom_site_label
_atom_site_type_symbol
_atom_site_fract_x
_atom_site_fract_y
_atom_site_fract_z
Zn1	Zn	-0.295637	1.232648	-0.455929
Zn2	Zn	-0.045637	1.482648	-0.205929
Zn3	Zn	0.204363	1.732648	0.044071
Zn4	Zn	0.454363	1.982648	0.294071
Zn5	Zn	-0.419835	1.232538	-0.321104
Zn6	Zn	-0.169835	1.482538	-0.071104
Zn7	Zn	0.080165	1.732538	0.178896
Zn8	Zn	0.330165	1.982538	0.428896
Zn9	Zn	-0.295665	1.097810	-0.321109
Zn10	Zn	-0.045665	1.347810	-0.071109
Zn11	Zn	0.204335	1.597810	0.178891
Zn12	Zn	0.454335	1.847810	0.428891
Zn13	Zn	-0.419792	1.097767	-0.455894
Zn14	Zn	-0.169792	1.347767	-0.205894
Zn15	Zn	0.080208	1.597767	0.044106
Zn16	Zn	0.330208	1.847767	0.294106
O17	O	-0.357732	1.165191	-0.388509
O18	O	-0.107732	1.415191	-0.138509
O19	O	0.142268	1.665191	0.111491
O20	O	0.392268	1.915191	0.361491
O21	O	-0.312118	1.345466	-0.438056
O22	O	-0.062118	1.595466	-0.188056
O23	O	0.187882	1.845466	0.061944
O24	O	0.437882	2.095466	0.311944
O25	O	-0.403393	1.214638	-0.208272
O26	O	-0.153393	1.464638	0.041728
O27	O	0.096607	1.714638	0.291728
O28	O	0.346607	1.964638	0.541728
O29	O	-0.191737	1.115761	-0.339010
O30	O	0.058263	1.365761	-0.089010
O31	O	0.308263	1.615761	0.160990
O32	O	0.558263	1.865761	0.410990
O33	O	-0.403366	1.345385	-0.339001
O34	O	-0.153366	1.595385	-0.089001
O35	O	0.096634	1.845385	0.160999
O36	O	0.346634	2.095385	0.410999
O37	O	-0.191716	1.214826	-0.438061
O38	O	0.058284	1.464826	-0.188061
O39	O	0.308284	1.714826	0.061939
O40	O	0.558284	1.964826	0.311939
O41	O	-0.312166	1.115654	-0.208276
O42	O	-0.062166	1.365654	0.041724
O43	O	0.187834	1.615654	0.291724
O44	O	0.437834	1.865654	0.541724
O45	O	-0.312125	0.984972	-0.338976
O46	O	-0.062125	1.234972	-0.088976
O47	O	0.187875	1.484972	0.161024
O48	O	0.437875	1.734972	0.411024
O49	O	-0.403293	1.115687	-0.568731
O50	O	-0.153293	1.365687	-0.318731
O51	O	0.096707	1.615687	-0.068731
O52	O	0.346707	1.865687	0.181269
O53	O	-0.403320	0.984940	-0.438002
O54	O	-0.153320	1.234940	-0.188002
O55	O	0.096680	1.484940	0.061998
O56	O	0.346680	1.734940	0.311998
O57	O	-0.312077	1.214784	-0.568757
O58	O	-0.062077	1.464784	-0.318757
O59	O	0.187923	1.714784	-0.068757
O60	O	0.437923	1.964784	0.181243
O61	O	-0.523754	1.214596	-0.338968
O62	O	-0.273754	1.464596	-0.088968
O63	O	-0.023754	1.714596	0.161032
O64	O	0.226246	1.964596	0.411032
O65	O	-0.523722	1.115580	-0.437997
O66	O	-0.273722	1.365580	-0.187997
O67	O	-0.023722	1.615580	0.062003
O68	O	0.226278	1.865580	0.312003
C69	C	-0.357722	0.955700	-0.388487
C70	C	-0.107722	1.205700	-0.138487
C71	C	0.142278	1.455700	0.111513
C72	C	0.392278	1.705700	0.361513
C73	C	-0.357735	0.866079	-0.388496
C74	C	-0.107735	1.116079	-0.138496
C75	C	0.142265	1.366079	0.111504
C76	C	0.392265	1.616079	0.361504
C77	C	-0.550684	1.165093	-0.388496
C78	C	-0.300684	1.415093	-0.138496
C79	C	-0.050684	1.665093	0.111504
C80	C	0.199316	1.915093	0.361504
C81	C	-0.633230	1.165126	-0.388517
C82	C	-0.383230	1.415126	-0.138517
C83	C	-0.133230	1.665126	0.111483
C84	C	0.116770	1.915126	0.361483
C85	C	-0.357740	0.537903	-0.388531
C86	C	-0.107740	0.787903	-0.138531
C87	C	0.142260	1.037903	0.111469
C88	C	0.392260	1.287903	0.361469
C89	C	-0.357736	0.629212	-0.388518
C90	C	-0.107736	0.879212	-0.138518
C91	C	0.142264	1.129212	0.111482
C92	C	0.392264	1.379212	0.361482
C93	C	-0.357738	0.701988	-0.388513
C94	C	-0.107738	0.951988	-0.138513
C95	C	0.142262	1.201988	0.111487
C96	C	0.392262	1.451988	0.361487
C97	C	-0.357734	0.793302	-0.388502
C98	C	-0.107734	1.043302	-0.138502
C99	C	0.142266	1.293302	0.111498
C100	C	0.392266	1.543302	0.361498
C101	C	-0.832691	1.111334	-0.442350
C102	C	-0.582691	1.361334	-0.192350
C103	C	-0.332691	1.611334	0.057650
C104	C	-0.082691	1.861334	0.307650
C105	C	-0.882133	1.091677	-0.368775
C106	C	-0.632133	1.341677	-0.118775
C107	C	-0.382133	1.591677	0.131225
C108	C	-0.132133	1.841677	0.381225
C109	C	-0.784360	1.165205	-0.388528
C110	C	-0.534360	1.415205	-0.138528
C111	C	-0.284360	1.665205	0.111472
C112	C	-0.034360	1.915205	0.361472
C113	C	-0.882000	1.184901	-0.462112
C114	C	-0.632000	1.434901	-0.212112
C115	C	-0.382000	1.684901	0.037888
C116	C	-0.132000	1.934901	0.287888
C117	C	-0.930346	1.165280	-0.388544
C118	C	-0.680346	1.415280	-0.138544
C119	C	-0.430346	1.665280	0.111456
C120	C	-0.180346	1.915280	0.361456
C121	C	-0.832715	1.145510	-0.314913
C122	C	-0.582715	1.395510	-0.064913
C123	C	-0.332715	1.645510	0.185087
C124	C	-0.082715	1.895510	0.435087
C125	C	-0.832578	1.238767	-0.408300
C126	C	-0.582578	1.488767	-0.158300
C127	C	-0.332578	1.738767	0.091700
C128	C	-0.082578	1.988767	0.341700
C129	C	-0.881998	1.219139	-0.334673
C130	C	-0.631998	1.469139	-0.084673
C131	C	-0.381998	1.719139	0.165327
C132	C	-0.131998	1.969139	0.415327
C133	C	-0.700262	1.165160	-0.388519
C134	C	-0.450262	1.415160	-0.138519
C135	C	-0.200262	1.665160	0.111481
C136	C	0.049738	1.915160	0.361481
C137	C	-1.014442	1.165325	-0.388544
C138	C	-0.764442	1.415325	-0.138544
C139	C	-0.514442	1.665325	0.111456
C140	C	-0.264442	1.915325	0.361456
C141	C	-0.164027	1.165310	-0.388540
C142	C	0.085973	1.415310	-0.138540
C143	C	0.335973	1.665310	0.111460
C144	C	0.585973	1.915310	0.361460
C145	C	-0.081481	1.165361	-0.388553
C146	C	0.168519	1.415361	-0.138553
C147	C	0.418519	1.665361	0.111447
C148	C	0.668519	1.915361	0.361447
C149	C	-0.357677	1.165243	-0.598818
C150	C	-0.107677	1.415243	-0.348818
C151	C	0.142323	1.665243	-0.098818
C152	C	0.392323	1.915243	0.151182
C153	C	-0.357653	1.165266	-0.688439
C154	C	-0.107653	1.415266	-0.438439
C155	C	0.142347	1.665266	-0.188439
C156	C	0.392347	1.915266	0.061561
C157	C	-0.357743	1.375500	-0.388532
C158	C	-0.107743	1.625500	-0.138532
C159	C	0.142257	1.875500	0.111468
C160	C	0.392257	2.125500	0.361468
C161	C	-0.357748	1.465121	-0.388542
C162	C	-0.107748	1.715121	-0.138542
C163	C	0.142252	1.965121	0.111458
C164	C	0.392252	2.215121	0.361458
C165	C	-0.357570	1.165303	-1.016615
C166	C	-0.107570	1.415303	-0.766615
C167	C	0.142430	1.665303	-0.516615
C168	C	0.392430	1.915303	-0.266615
C169	C	-0.357596	1.165290	-0.925307
C170	C	-0.107596	1.415290	-0.675307
C171	C	0.142404	1.665290	-0.425307
C172	C	0.392404	1.915290	-0.175307
C173	C	-0.357612	1.165285	-0.852530
C174	C	-0.107612	1.415285	-0.602530
C175	C	0.142388	1.665285	-0.352530
C176	C	0.392388	1.915285	-0.102530
C177	C	-0.357637	1.165271	-0.761216
C178	C	-0.107637	1.415271	-0.511216
C179	C	0.142363	1.665271	-0.261216
C180	C	0.392363	1.915271	-0.011216
C181	C	-0.357734	1.165185	-0.179018
C182	C	-0.107734	1.415185	0.070982
C183	C	0.142266	1.665185	0.320982
C184	C	0.392266	1.915185	0.570982
C185	C	-0.357548	1.165319	-0.089398
C186	C	-0.107548	1.415319	0.160602
C187	C	0.142452	1.665319	0.410602
C188	C	0.392452	1.915319	0.660602
H189	H	-0.903916	1.029503	-0.352066
H190	H	-0.653916	1.279503	-0.102066
H191	H	-0.403916	1.529503	0.147934
H192	H	-0.153916	1.779503	0.397934
F193	F	-0.804390	1.051703	-0.501760
F194	F	-0.554390	1.301703	-0.251760
F195	F	-0.304390	1.551703	-0.001760
F196	F	-0.054390	1.801703	0.248240
F197	F	-0.804539	1.123682	-0.233559
F198	F	-0.554539	1.373682	0.016441
F199	F	-0.304539	1.623682	0.266441
F200	F	-0.054539	1.873682	0.516441
F201	F	-0.910119	1.278729	-0.275123
F202	F	-0.660119	1.528729	-0.025123
F203	F	-0.410119	1.778729	0.224877
F204	F	-0.160119	2.028729	0.474877
F205	F	-0.804107	1.320016	-0.430184
F206	F	-0.554107	1.570016	-0.180184
F207	F	-0.304107	1.820016	0.069816
F208	F	-0.054107	2.070016	0.319816
F209	F	-0.910300	1.206636	-0.543440
F210	F	-0.660300	1.456636	-0.293440
F211	F	-0.410300	1.706636	-0.043440
F212	F	-0.160300	1.956636	0.206560
