data_functionalizedCrystal
_audit_creation_method	'MofGen! by Chris Wilmer'
_symmetry_space_group_name_H-M	'P1'
_symmetry_Int_Tables_number	1
_symmetry_cell_setting	triclinic
loop_
_symmetry_equiv_pos_as_xyz
  x,y,z
_cell_length_a	6.817900
_cell_length_b	17.253917
_cell_length_c	12.908943
_cell_angle_alpha	99.378202
_cell_angle_beta	100.860631
_cell_angle_gamma	102.659311
loop_
_atom_site_label
_atom_site_type_symbol
_atom_site_fract_x
_atom_site_fract_y
_atom_site_fract_z
V1	V	-3.996243	-0.110260	-0.338594
O2	O	-3.984308	0.006331	-0.321856
O3	O	-3.947997	-0.219620	-0.346178
O4	O	-3.934520	-0.108110	-0.481751
O5	O	-3.997879	-0.105950	-0.185345
V6	V	-4.481578	-0.096368	-0.319062
O7	O	-4.253528	-0.140733	-0.381440
O8	O	-4.674490	-0.065894	-0.276216
O9	O	-4.306617	0.012993	-0.311478
O10	O	-4.610910	-0.212959	-0.335800
O11	O	-4.597339	-0.100677	-0.472311
O12	O	-4.320095	-0.098517	-0.175906
C13	C	-3.793467	-0.246294	-0.343391
C14	C	-3.835218	-0.335694	-0.350546
C15	C	-3.823554	-0.366505	-0.256363
C16	C	-3.862804	-0.450507	-0.263090
C17	C	-3.913702	-0.503697	-0.363999
C18	C	-3.925371	-0.472881	-0.458188
C19	C	-3.886137	-0.388880	-0.451461
C20	C	-4.034411	-0.756122	-0.394578
C21	C	-4.073640	-0.840127	-0.401297
C22	C	-4.011073	-0.817748	-0.206198
C23	C	-3.971829	-0.733747	-0.199480
C24	C	-3.983512	-0.702939	-0.293669
N25	N	-3.953815	-0.589560	-0.370876
N26	N	-3.943413	-0.617077	-0.286791
C27	C	-3.776274	-0.104051	-0.516326
C28	C	-3.807092	-0.103018	-0.633422
C29	C	-4.228266	-0.109056	-0.864911
C30	C	-4.257232	-0.108085	-0.974934
C31	C	-3.893991	-0.100100	-0.963490
C32	C	-3.865025	-0.101070	-0.853467
C33	C	-4.032171	-0.105550	-0.804183
C34	C	-4.003205	-0.106526	-0.694160
C35	C	-3.639963	-0.098535	-0.682716
C36	C	-3.668929	-0.097564	-0.792739
C37	C	-4.124490	0.039662	-0.314263
C38	C	-4.061976	0.129062	-0.307115
C39	C	-4.141683	-0.102579	-0.141325
C40	C	-4.090103	-0.103608	-0.024228
H41	H	-4.001569	-0.842842	-0.129515
C42	C	-4.129646	-0.898636	-0.512310
N43	N	-4.171828	-0.942704	-0.595921
H44	H	-3.757915	-0.096447	-1.003635
H45	H	-3.895657	-0.363797	-0.528155
H46	H	-3.532850	-0.093915	-0.832881
H47	H	-4.043901	-0.731048	-0.471273
H48	H	-4.364368	-0.112712	-0.824786
C49	C	-3.424241	-0.094677	-0.615905
N50	N	-3.261764	-0.091773	-0.565582
H51	H	-3.853308	-0.475589	-0.186397
C52	C	-3.767565	-0.308003	-0.145355
N53	N	-3.725403	-0.263942	-0.061740
C54	C	-3.915825	-0.675243	-0.088472
N55	N	-3.873630	-0.631178	-0.004858
C56	C	-3.981341	-0.531392	-0.569189
N57	N	-4.023482	-0.575461	-0.652796
H58	H	-4.139307	-0.110177	-0.654035
C59	C	-4.472950	-0.111943	-1.041732
N60	N	-4.635436	-0.114848	-1.092045
