data_functionalizedCrystal
_audit_creation_method	'MofGen! by Chris Wilmer'
_symmetry_space_group_name_H-M	'P1'
_symmetry_Int_Tables_number	1
_symmetry_cell_setting	triclinic
loop_
_symmetry_equiv_pos_as_xyz
  x,y,z
_cell_length_a	19.121063
_cell_length_b	18.050591
_cell_length_c	18.050582
_cell_angle_alpha	89.977259
_cell_angle_beta	87.584968
_cell_angle_gamma	87.537236
loop_
_atom_site_label
_atom_site_type_symbol
_atom_site_fract_x
_atom_site_fract_y
_atom_site_fract_z
Zn1	Zn	-0.279781	-1.122674	0.432668
Zn2	Zn	0.220219	-0.622674	0.932668
Zn3	Zn	-0.397225	-1.117288	0.313767
Zn4	Zn	0.102775	-0.617288	0.813767
Zn5	Zn	-0.279779	-0.998493	0.308475
Zn6	Zn	0.220221	-0.498493	0.808475
Zn7	Zn	-0.397183	-0.993146	0.437896
Zn8	Zn	0.102817	-0.493146	0.937896
O9	O	-0.338492	-1.057900	0.373201
O10	O	0.161508	-0.557900	0.873201
O11	O	-0.295379	-1.225883	0.416922
O12	O	0.204621	-0.725883	0.916922
O13	O	-0.381662	-1.101513	0.209141
O14	O	0.118338	-0.601513	0.709141
O15	O	-0.181495	-1.019458	0.320546
O16	O	0.318505	-0.519458	0.820546
O17	O	-0.381665	-1.221926	0.329566
O18	O	0.118335	-0.721926	0.829566
O19	O	-0.181497	-1.110693	0.411790
O20	O	0.318503	-0.610693	0.911790
O21	O	-0.295375	-1.014235	0.205253
O22	O	0.204625	-0.514235	0.705253
O23	O	-0.295334	-0.893860	0.325616
O24	O	0.204666	-0.393860	0.825616
O25	O	-0.381593	-1.010345	0.541127
O26	O	0.118407	-0.510345	1.041127
O27	O	-0.381590	-0.889932	0.420702
O28	O	0.118410	-0.389932	0.920702
O29	O	-0.295338	-1.105508	0.537285
O30	O	0.204662	-0.605508	1.037285
O31	O	-0.495504	-1.096328	0.334636
O32	O	0.004496	-0.596328	0.834636
O33	O	-0.495473	-1.005122	0.425833
O34	O	0.004527	-0.505122	0.925833
C35	C	-0.338458	-0.864950	0.373153
C36	C	0.161542	-0.364950	0.873153
C37	C	-0.338460	-0.782404	0.373150
C38	C	0.161540	-0.282404	0.873150
C39	C	-0.520973	-1.049581	0.381392
C40	C	-0.020973	-0.549581	0.881392
C41	C	-0.599039	-1.046090	0.384921
C42	C	-0.099039	-0.546090	0.884921
C43	C	-0.291493	-0.535696	0.321544
C44	C	0.208507	-0.035696	0.821544
C45	C	-0.274396	-0.585899	0.388553
C46	C	0.225604	-0.085899	0.888553
C47	C	-0.338481	-0.485283	0.373196
C48	C	0.161519	0.014717	0.873196
C49	C	-0.355535	-0.582163	0.306167
C50	C	0.144465	-0.082163	0.806167
C51	C	-0.338469	-0.631268	0.373170
C52	C	0.161531	-0.131268	0.873170
C53	C	-0.321351	-0.534400	0.440240
C54	C	0.178649	-0.034400	0.940240
C55	C	-0.402520	-0.530659	0.357810
C56	C	0.097480	-0.030659	0.857810
C57	C	-0.385447	-0.580838	0.424866
C58	C	0.114553	-0.080838	0.924866
C59	C	-0.338486	-0.401184	0.373210
C60	C	0.161514	0.098816	0.873210
C61	C	-0.338464	-0.715365	0.373163
C62	C	0.161536	-0.215365	0.873163
C63	C	-0.635707	-1.091972	0.339137
C64	C	-0.135707	-0.591972	0.839137
C65	C	-0.709058	-1.088693	0.342460
C66	C	-0.209058	-0.588693	0.842460
C67	C	-0.745740	-1.039527	0.391565
C68	C	-0.245740	-0.539527	0.891565
C69	C	-0.709066	-0.993642	0.437354
C70	C	-0.209066	-0.493642	0.937354
C71	C	-0.635716	-0.996926	0.434034
C72	C	-0.135716	-0.496926	0.934034
C73	C	-0.967210	-1.027239	0.403966
C74	C	-0.467210	-0.527239	0.903966
C75	C	-1.040565	-1.023958	0.407282
C76	C	-0.540565	-0.523958	0.907282
C77	C	-1.040552	-1.119010	0.312388
C78	C	-0.540552	-0.619010	0.812388
C79	C	-0.967200	-1.122286	0.309069
C80	C	-0.467200	-0.622286	0.809069
C81	C	-0.930533	-1.076404	0.354861
C82	C	-0.430533	-0.576404	0.854861
C83	C	-0.820717	-1.036172	0.394961
C84	C	-0.320717	-0.536172	0.894961
C85	C	-0.855558	-1.079763	0.351468
C86	C	-0.355558	-0.579763	0.851468
C87	C	-0.155299	-1.066273	0.364994
C88	C	0.344701	-0.566273	0.864994
C89	C	-0.077233	-1.069841	0.361497
C90	C	0.422767	-0.569841	0.861497
C91	C	-0.338461	-1.057931	0.566906
C92	C	0.161539	-0.557931	1.066906
C93	C	-0.338448	-1.057944	0.649451
C94	C	0.161552	-0.557944	1.149451
C95	C	-0.338515	-0.251605	0.373237
C96	C	0.161485	0.248395	0.873237
C97	C	-0.338492	-0.334152	0.373217
C98	C	0.161508	0.165848	0.873217
C99	C	-0.338473	-1.057915	0.180248
C100	C	0.161527	-0.557915	0.680248
C101	C	-0.338288	-1.058055	0.097695
C102	C	0.161712	-0.558055	0.597695
C103	C	-0.385289	-1.006235	0.850988
C104	C	0.114711	-0.506235	1.350988
C105	C	-0.402464	-1.073216	0.901162
C106	C	0.097536	-0.573216	1.401162
C107	C	-0.338394	-1.057983	0.800579
C108	C	0.161606	-0.557983	1.300579
C109	C	-0.321199	-0.991041	0.897486
C110	C	0.178801	-0.491041	1.397486
C111	C	-0.338344	-1.058015	0.946562
C112	C	0.161656	-0.558015	1.446562
C113	C	-0.355603	-1.124998	0.849667
C114	C	0.144397	-0.624998	1.349667
C115	C	-0.274308	-1.042778	0.845985
C116	C	0.225692	-0.542778	1.345985
C117	C	-0.291459	-1.109807	0.896136
C118	C	0.208541	-0.609807	1.396136
C119	C	-0.338425	-1.057964	0.716482
C120	C	0.161575	-0.557964	1.216482
C121	C	-0.338313	-1.058042	1.030657
C122	C	0.161687	-0.558042	1.530657
H123	H	-0.251732	-0.515809	0.277925
H124	H	0.248268	-0.015809	0.777925
C125	C	-1.080913	-0.969879	0.461305
C126	C	-0.580913	-0.469879	0.961305
H127	H	-1.048571	-0.943029	0.488108
H128	H	-0.548571	-0.443029	0.988108
H129	H	-1.109565	-0.936255	0.434163
H130	H	-0.609565	-0.436255	0.934163
H131	H	-1.109489	-0.996998	0.494984
H132	H	-0.609489	-0.496998	0.994984
C133	C	-0.926856	-1.176374	0.255059
C134	C	-0.426856	-0.676374	0.755059
H135	H	-0.959200	-1.203236	0.228271
H136	H	-0.459200	-0.703236	0.728271
H137	H	-0.898278	-1.149268	0.221378
H138	H	-0.398278	-0.649268	0.721378
H139	H	-0.898206	-1.209997	0.282212
H140	H	-0.398206	-0.709997	0.782212
C141	C	-0.201147	-1.025352	0.813345
C142	C	0.298853	-0.525352	1.313345
H143	H	-0.189015	-0.977734	0.829671
H144	H	0.310985	-0.477734	1.329671
H145	H	-0.167699	-1.061637	0.829479
H146	H	0.332301	-0.561637	1.329479
H147	H	-0.201595	-1.025917	0.760741
H148	H	0.298405	-0.525917	1.260741
C149	C	-0.439117	-0.607536	0.483918
C150	C	0.060883	-0.107536	0.983918
H151	H	-0.473420	-0.634937	0.460646
H152	H	0.026580	-0.134937	0.960646
H153	H	-0.415832	-0.638248	0.518724
H154	H	0.084168	-0.138248	1.018724
H155	H	-0.461218	-0.565890	0.508808
H156	H	0.038782	-0.065890	1.008808
H157	H	-0.306858	-0.513486	0.496928
H158	H	0.193142	-0.013486	0.996928
C159	C	-0.375311	-1.201513	0.821392
C160	C	0.124689	-0.701513	1.321392
H161	H	-0.383494	-1.233463	0.862396
H162	H	0.116506	-0.733463	1.362396
H163	H	-0.416538	-1.196199	0.793951
H164	H	0.083462	-0.696199	1.293951
H165	H	-0.338048	-1.222086	0.790392
H166	H	0.161952	-0.722086	1.290392
H167	H	-0.605862	-0.959564	0.471317
H168	H	-0.105862	-0.459564	0.971317
H169	H	-1.070414	-1.156366	0.275108
H170	H	-0.570414	-0.656366	0.775108
H171	H	-0.424998	-0.962510	0.831098
H172	H	0.075002	-0.462510	1.331098
C173	C	-0.475662	-0.497980	0.340208
C174	C	0.024338	0.002020	0.840208
H175	H	-0.487716	-0.514286	0.292549
H176	H	0.012284	-0.014286	0.792549
H177	H	-0.509155	-0.514111	0.376403
H178	H	-0.009155	-0.014111	0.876403
H179	H	-0.475235	-0.445375	0.340795
H180	H	0.024765	0.054625	0.840795
C181	C	-0.926885	-0.976758	0.454323
C182	C	-0.426885	-0.476758	0.954323
H183	H	-0.959238	-0.946999	0.484033
H184	H	-0.459238	-0.446999	0.984033
H185	H	-0.898230	-1.006418	0.485419
H186	H	-0.398230	-0.506418	0.985419
H187	H	-0.898313	-0.945697	0.424576
H188	H	-0.398313	-0.445697	0.924576
C189	C	-0.237860	-1.169004	0.922832
C190	C	0.262140	-0.669004	1.422832
H191	H	-0.250171	-1.216520	0.906391
H192	H	0.249829	-0.716520	1.406391
H193	H	-0.192490	-1.158597	0.903125
H194	H	0.307510	-0.658597	1.403125
H195	H	-0.237863	-1.168426	0.975459
H196	H	0.262137	-0.668426	1.475459
H197	H	-0.220232	-0.610054	0.401570
H198	H	0.279768	-0.110054	0.901570
C199	C	-0.375035	-0.610538	0.229607
C200	C	0.124965	-0.110538	0.729607
H201	H	-0.341608	-0.595127	0.192979
H202	H	0.158392	-0.095127	0.692979
H203	H	-0.375313	-0.663146	0.230269
H204	H	0.124687	-0.163146	0.730269
H205	H	-0.420211	-0.590828	0.218334
H206	H	0.079789	-0.090828	0.718334
H207	H	-0.738938	-0.953613	0.477339
H208	H	-0.238938	-0.453613	0.977339
H209	H	-0.605846	-1.132006	0.299148
H210	H	-0.105846	-0.632006	0.799148
C211	C	-0.749391	-1.139161	0.292094
C212	C	-0.249391	-0.639161	0.792094
H213	H	-0.717039	-1.168905	0.262367
H214	H	-0.217039	-0.668905	0.762367
H215	H	-0.777967	-1.170225	0.321826
H216	H	-0.277967	-0.670225	0.821826
H217	H	-0.778042	-1.109484	0.261002
H218	H	-0.278042	-0.609484	0.761002
H219	H	-0.306676	-0.934415	0.918518
H220	H	0.193324	-0.434415	1.418518
C221	C	-0.475645	-1.090614	0.933781
C222	C	0.024355	-0.590614	1.433781
H223	H	-0.508930	-1.053790	0.918380
H224	H	-0.008930	-0.553790	1.418380
H225	H	-0.488167	-1.137824	0.916717
H226	H	0.011833	-0.637824	1.416717
H227	H	-0.474989	-1.090943	0.986377
H228	H	0.025011	-0.590943	1.486377
H229	H	-0.825690	-1.119797	0.311490
H230	H	-0.325690	-0.619797	0.811490
H231	H	-0.850591	-0.996140	0.434941
H232	H	-0.350591	-0.496140	0.934941
