data_functionalizedCrystal
_audit_creation_method	'MofGen! by Chris Wilmer'
_symmetry_space_group_name_H-M	'P1'
_symmetry_Int_Tables_number	1
_symmetry_cell_setting	triclinic
loop_
_symmetry_equiv_pos_as_xyz
  x,y,z
_cell_length_a	6.817900
_cell_length_b	16.417825
_cell_length_c	11.102228
_cell_angle_alpha	93.887652
_cell_angle_beta	108.604565
_cell_angle_gamma	103.385495
loop_
_atom_site_label
_atom_site_type_symbol
_atom_site_fract_x
_atom_site_fract_y
_atom_site_fract_z
V1	V	-4.084993	-0.115887	-0.396702
O2	O	-4.071824	0.005567	-0.388692
O3	O	-4.035703	-0.229783	-0.394429
O4	O	-4.062176	-0.114105	-0.569516
O5	O	-4.045167	-0.110911	-0.212393
V6	V	-4.565422	-0.101360	-0.374603
O7	O	-4.353040	-0.147754	-0.445176
O8	O	-4.747572	-0.069493	-0.326129
O9	O	-4.391506	0.012536	-0.376876
O10	O	-4.695988	-0.222814	-0.382613
O11	O	-4.722645	-0.106335	-0.558912
O12	O	-4.365032	-0.103142	-0.201789
C13	C	-3.879659	-0.257548	-0.388285
C14	C	-3.920815	-0.350660	-0.387579
C15	C	-3.958127	-0.552923	-0.269549
C16	C	-3.996822	-0.640413	-0.268895
C17	C	-4.111669	-0.664324	-0.501771
C18	C	-4.072989	-0.576836	-0.502423
C19	C	-3.996207	-0.521138	-0.386308
C20	C	-4.073582	-0.696115	-0.385002
C21	C	-4.115537	-0.790975	-0.384294
C22	C	-3.954253	-0.426272	-0.387015
C23	C	-3.913427	-0.109989	-0.611624
C24	C	-3.976049	-0.109286	-0.752903
C25	C	-4.048079	-0.185658	-0.837721
C26	C	-4.106931	-0.184996	-0.970468
C27	C	-4.021708	-0.031582	-0.933566
C28	C	-3.962871	-0.032245	-0.800822
C29	C	-4.356191	-0.278930	-1.178218
C30	C	-4.428190	-0.355305	-1.263040
C31	C	-4.329040	-0.420556	-1.232077
C32	C	-4.157845	-0.409433	-1.116292
C33	C	-4.085830	-0.333056	-1.031476
C34	C	-4.185028	-0.267809	-1.062440
C35	C	-3.713596	0.061684	-0.593070
C36	C	-3.641566	0.138062	-0.508251
C37	C	-3.740698	0.203321	-0.539209
C38	C	-3.911860	0.192207	-0.654995
C39	C	-3.983891	0.115829	-0.739814
C40	C	-3.884758	0.050570	-0.708847
C41	C	-4.210891	0.040297	-0.383017
C42	C	-4.148974	0.133408	-0.383731
C43	C	-4.177122	-0.107261	-0.159675
C44	C	-4.093738	-0.107960	-0.018394
H45	H	-3.946439	-0.323999	-0.937210
H46	H	-3.632864	0.008547	-0.567851
H47	H	-4.104012	-0.550958	-0.597509
O48	O	-3.959661	-0.671388	-0.155551
C49	C	-3.762682	-0.752206	-0.013580
C50	C	-3.804581	-0.717193	-0.141995
H51	H	-3.637266	-0.789232	-0.002566
H52	H	-3.918383	-0.795889	-0.012329
H53	H	-3.701273	-0.697360	0.069273
H54	H	-3.865928	-0.771985	-0.224919
H55	H	-3.648831	-0.673487	-0.143135
O56	O	-3.883665	-0.498938	-0.156648
C57	C	-3.773765	-0.484458	0.074403
C58	C	-3.858124	-0.545688	-0.053367
H59	H	-3.753047	-0.522229	0.157940
H60	H	-3.893323	-0.446192	0.075112
H61	H	-3.612314	-0.439608	0.084746
H62	H	-4.019542	-0.590589	-0.063792
H63	H	-3.738424	-0.583892	-0.054019
H64	H	-4.174185	-0.709684	-0.596307
H65	H	-4.058814	-0.248389	-0.798711
H66	H	-4.077102	-0.462566	-1.091100
H67	H	-4.387668	-0.482742	-1.301150
O68	O	-4.594581	-0.365987	-1.375426
C69	C	-4.855076	-0.304231	-1.512055
C70	C	-4.666711	-0.292026	-1.384722
H71	H	-4.913420	-0.244438	-1.519625
H72	H	-4.992031	-0.360240	-1.514689
H73	H	-4.799118	-0.317036	-1.596167
H74	H	-4.722467	-0.279187	-1.300539
H75	H	-4.529799	-0.236036	-1.382200
H76	H	-4.436960	-0.225806	-1.203433
H77	H	-3.502170	0.147112	-0.413980
O78	O	-4.008931	0.043179	-0.980328
C79	C	-4.061906	0.112192	-1.168475
C80	C	-4.076443	0.027465	-1.115693
H81	H	-4.116522	0.099515	-1.277925
H82	H	-3.888784	0.153110	-1.128383
H83	H	-4.169798	0.146678	-1.138183
H84	H	-3.968666	-0.007092	-1.145965
H85	H	-4.249625	-0.013391	-1.155779
O86	O	-4.150262	0.105153	-0.852206
C87	C	-4.410706	0.166927	-0.988843
C88	C	-4.222348	0.179124	-0.861509
H89	H	-4.469014	0.226728	-0.996419
H90	H	-4.547684	0.110928	-0.991475
H91	H	-4.354754	0.154108	-1.072954
H92	H	-4.278097	0.191976	-0.777328
H93	H	-4.085412	0.235103	-0.858990
H94	H	-3.992580	0.245346	-0.680203
O95	O	-3.670521	0.277449	-0.456644
C96	C	-3.418760	0.357373	-0.254447
C97	C	-3.498034	0.273377	-0.347814
H98	H	-3.279264	0.354115	-0.166449
H99	H	-3.555402	0.368488	-0.223072
H100	H	-3.362835	0.411729	-0.304754
H101	H	-3.553932	0.218969	-0.297592
H102	H	-3.361331	0.262335	-0.379188
