data_functionalizedCrystal
_audit_creation_method	'MofGen! by Chris Wilmer'
_symmetry_space_group_name_H-M	'P1'
_symmetry_Int_Tables_number	1
_symmetry_cell_setting	triclinic
loop_
_symmetry_equiv_pos_as_xyz
  x,y,z
_cell_length_a	11.169417
_cell_length_b	14.908520
_cell_length_c	14.906780
_cell_angle_alpha	90.089039
_cell_angle_beta	86.676873
_cell_angle_gamma	93.321403
loop_
_atom_site_label
_atom_site_type_symbol
_atom_site_fract_x
_atom_site_fract_y
_atom_site_fract_z
Zn1	Zn	1.850392	-0.327930	-0.529071
Zn2	Zn	2.350392	0.172070	-0.029071
Zn3	Zn	1.827113	-0.487161	-0.387359
Zn4	Zn	2.327113	0.012839	0.112641
Zn5	Zn	1.637427	-0.336833	-0.378710
Zn6	Zn	2.137427	0.163167	0.121290
Zn7	Zn	1.638769	-0.478240	-0.537703
Zn8	Zn	2.138769	0.021760	-0.037703
O9	O	1.738425	-0.407541	-0.458211
O10	O	2.238425	0.092459	0.041789
O11	O	2.015254	-0.349059	-0.510280
O12	O	2.515254	0.150941	-0.010280
O13	O	1.791647	-0.474678	-0.260365
O14	O	2.291647	0.025322	0.239635
O15	O	1.674858	-0.209833	-0.391423
O16	O	2.174858	0.290167	0.108577
O17	O	1.998151	-0.466046	-0.406164
O18	O	2.498151	0.033954	0.093836
O19	O	1.831322	-0.203292	-0.501893
O20	O	2.331322	0.296708	-0.001893
O21	O	1.652285	-0.364233	-0.254010
O22	O	2.152285	0.135767	0.245990
O23	O	1.469655	-0.355583	-0.399794
O24	O	1.969655	0.144417	0.100206
O25	O	1.677145	-0.450842	-0.662405
O26	O	2.177145	0.049158	-0.162405
O27	O	1.470641	-0.459475	-0.516606
O28	O	1.970641	0.040525	-0.016606
O29	O	1.832624	-0.340410	-0.656063
O30	O	2.332624	0.159590	-0.156063
O31	O	1.792948	-0.611796	-0.414534
O32	O	2.292948	-0.111796	0.085466
O33	O	1.654573	-0.605242	-0.524992
O34	O	2.154573	-0.105242	-0.024992
C35	C	1.426601	-0.407528	-0.458198
C36	C	1.926601	0.092472	0.041802
C37	C	1.293201	-0.407543	-0.458216
C38	C	1.793201	0.092457	0.041784
C39	C	1.721414	-0.641141	-0.471658
C40	C	2.221414	-0.141141	0.028342
C41	C	1.714249	-0.741074	-0.477441
C42	C	2.214249	-0.241074	0.022559
C43	C	1.845041	-0.935618	-0.373381
C44	C	2.345041	-0.435618	0.126619
C45	C	1.838313	-1.029514	-0.378811
C46	C	2.338313	-0.529514	0.121189
C47	C	1.694071	-1.022765	-0.493737
C48	C	2.194071	-0.522765	0.006263
C49	C	1.700799	-0.928869	-0.488306
C50	C	2.200799	-0.428869	0.011694
C51	C	1.776286	-0.885299	-0.428125
C52	C	2.276286	-0.385299	0.071875
C53	C	1.783007	-0.791401	-0.422690
C54	C	2.283007	-0.291401	0.077310
C55	C	1.638772	-0.784653	-0.537620
C56	C	2.138772	-0.284653	-0.037620
C57	C	1.632044	-0.878550	-0.543050
C58	C	2.132044	-0.378550	-0.043050
C59	C	2.051467	-0.407554	-0.458224
C60	C	2.551467	0.092446	0.041776
C61	C	2.184867	-0.407560	-0.458229
C62	C	2.684867	0.092440	0.041771
C63	C	1.757631	-0.393638	-0.692777
C64	C	2.257631	0.106362	-0.192777
C65	C	1.765815	-0.387713	-0.792735
C66	C	2.265815	0.112287	-0.292735
C67	C	1.755537	-0.173027	-0.444731
C68	C	2.255537	0.326973	0.055269
C69	C	1.762829	-0.073092	-0.438986
C70	C	2.262829	0.426908	0.061014
C71	C	1.719368	-0.421325	-0.224553
C72	C	2.219368	0.078675	0.275447
C73	C	1.711435	-0.426996	-0.124581
C74	C	2.211435	0.073004	0.375419
C75	C	1.857436	-0.321802	0.069438
C76	C	2.357436	0.178198	0.569438
C77	C	1.849986	-0.327128	0.163371
C78	C	2.349986	0.172872	0.663371
C79	C	1.689091	-0.442978	0.157219
C80	C	2.189091	0.057022	0.657219
C81	C	1.696541	-0.437652	0.063286
C82	C	2.196541	0.062348	0.563286
C83	C	1.780715	-0.377061	0.019399
C84	C	2.280715	0.122939	0.519399
C85	C	1.788159	-0.371731	-0.074535
C86	C	2.288159	0.128269	0.425465
C87	C	1.627270	-0.487585	-0.080686
C88	C	2.127270	0.012415	0.419314
C89	C	1.619820	-0.492911	0.013247
C90	C	2.119820	0.007089	0.513247
H91	H	1.844468	-0.755927	-0.373686
H92	H	2.344468	-0.255927	0.126314
H93	H	1.551291	-0.542245	0.048993
H94	H	2.051291	-0.042245	0.548993
F95	F	1.911495	-1.083065	-0.320547
F96	F	2.411495	-0.583065	0.179453
H97	H	1.925962	-0.272457	0.033705
H98	H	2.425962	0.227543	0.533705
H99	H	1.856692	-0.322391	-0.110266
H100	H	2.356692	0.177609	0.389734
H101	H	1.570589	-0.914037	-0.592050
H102	H	2.070589	-0.414037	-0.092050
F103	F	1.545605	-0.546394	-0.133947
F104	F	2.045605	-0.046394	0.366053
H105	H	1.632622	-1.058256	-0.542739
H106	H	2.132622	-0.558256	-0.042739
H107	H	1.906496	-0.900143	-0.324373
H108	H	2.406496	-0.400143	0.175627
H109	H	1.582783	-0.743673	-0.582194
H110	H	2.082783	-0.243673	-0.082194
H111	H	1.912461	-0.282131	0.204110
H112	H	2.412461	0.217869	0.704110
H113	H	1.620569	-0.492315	0.192968
H114	H	2.120569	0.007685	0.692968
