data_functionalizedCrystal
_audit_creation_method	'MofGen! by Chris Wilmer'
_symmetry_space_group_name_H-M	'P1'
_symmetry_Int_Tables_number	1
_symmetry_cell_setting	triclinic
loop_
_symmetry_equiv_pos_as_xyz
  x,y,z
_cell_length_a	8.559649
_cell_length_b	11.295483
_cell_length_c	8.597278
_cell_angle_alpha	93.510899
_cell_angle_beta	77.625102
_cell_angle_gamma	93.526526
loop_
_atom_site_label
_atom_site_type_symbol
_atom_site_fract_x
_atom_site_fract_y
_atom_site_fract_z
O1	O	2.129169	0.092420	-0.064197
O2	O	1.666106	0.100624	0.015722
O3	O	1.904280	0.073252	-0.251022
O4	O	1.890996	0.119792	0.202547
O5	O	1.883360	-0.122398	-0.227626
O6	O	1.645186	-0.095026	0.039119
O7	O	2.108249	-0.103230	-0.040800
Cu8	Cu	1.874808	-0.116992	0.001296
Cu9	Cu	1.899548	0.114386	-0.026374
O10	O	1.870076	-0.075858	0.225944
C11	C	1.596279	0.003421	0.033477
C12	C	1.419382	0.005273	0.051505
N13	N	1.857418	-0.279732	0.020754
C14	C	2.042127	-0.550239	-0.186007
C15	C	2.028997	-0.673392	-0.171292
C16	C	1.818022	-0.649196	0.064891
C17	C	1.831152	-0.526042	0.050176
C18	C	1.943210	-0.476568	-0.075276
C19	C	1.956346	-0.353411	-0.089983
C20	C	1.745364	-0.329218	0.146193
C21	C	1.732234	-0.452372	0.160907
C22	C	2.178077	-0.006025	-0.058555
C23	C	2.354975	-0.007869	-0.076584
C24	C	1.891228	-0.030474	-0.296853
C25	C	1.883485	-0.048055	-0.468271
N26	N	1.916950	0.277124	-0.045846
C27	C	1.883128	0.027870	0.271775
C28	C	1.890872	0.045460	0.443192
H29	H	1.435165	-0.020530	-0.200039
H30	H	1.903105	0.138983	-0.501458
F31	F	1.612975	-0.505037	0.294412
F32	F	1.314564	0.021842	0.212881
H33	H	2.133380	-0.509955	-0.288146
F34	F	2.075611	-0.300760	-0.223494
H35	H	2.109544	-0.733373	-0.261462
F36	F	1.698754	-0.701865	0.198385
F37	F	1.640092	-0.250800	0.264053
F38	F	1.867467	-0.170291	-0.540598
