data_functionalizedCrystal
_audit_creation_method	'MofGen! by Chris Wilmer'
_symmetry_space_group_name_H-M	'P1'
_symmetry_Int_Tables_number	1
_symmetry_cell_setting	triclinic
loop_
_symmetry_equiv_pos_as_xyz
  x,y,z
_cell_length_a	16.974800
_cell_length_b	16.974813
_cell_length_c	16.053802
_cell_angle_alpha	88.912550
_cell_angle_beta	91.074188
_cell_angle_gamma	83.627081
loop_
_atom_site_label
_atom_site_type_symbol
_atom_site_fract_x
_atom_site_fract_y
_atom_site_fract_z
O1	O	1.049294	0.100467	-0.005291
O2	O	0.819858	0.112532	-0.021616
O3	O	0.940601	-0.008219	-0.005291
O4	O	0.928550	0.221219	-0.021616
O5	O	0.933955	-0.001600	0.132671
O6	O	0.813212	0.119151	0.116346
O7	O	1.042647	0.107086	0.132671
Zn8	Zn	0.926874	0.114170	0.146413
Zn9	Zn	0.935631	0.105449	-0.035358
O10	O	0.921904	0.227838	0.116347
C11	C	0.787171	0.115262	0.045419
C12	C	0.699674	0.113524	0.039622
C13	C	0.654950	0.116314	0.112104
C14	C	0.572739	0.114668	0.106660
C15	C	0.535254	0.110239	0.028733
C16	C	0.579984	0.107446	-0.043754
C17	C	0.662194	0.109086	-0.038309
C18	C	0.289772	0.104942	0.004384
C19	C	0.207556	0.103305	-0.001056
C20	C	0.200317	0.110525	0.149359
C21	C	0.282528	0.112169	0.154797
C22	C	0.327252	0.109373	0.082310
N23	N	0.451221	0.108559	0.023167
N24	N	0.411284	0.111047	0.087878
C25	C	0.936696	-0.034274	0.065634
C26	C	0.934953	-0.121771	0.071426
C27	C	0.937759	-0.166481	-0.001056
C28	C	0.936116	-0.248693	0.004388
C29	C	0.931673	-0.286195	0.082315
C30	C	0.928864	-0.241479	0.154802
C31	C	0.930502	-0.159267	0.149357
C32	C	0.926382	-0.531683	0.106664
C33	C	0.924747	-0.613900	0.112104
C34	C	0.931997	-0.621109	-0.038310
C35	C	0.933639	-0.538897	-0.043748
C36	C	0.930826	-0.494187	0.028738
N37	N	0.929996	-0.370229	0.087882
N38	N	0.932498	-0.410154	0.023170
C39	C	1.075335	0.104357	0.065634
C40	C	1.162832	0.106095	0.071426
C41	C	0.925809	0.253893	0.045420
C42	C	0.927553	0.341390	0.039623
N43	N	0.920904	0.120121	0.270468
N44	N	0.941608	0.099491	-0.159411
C45	C	0.972299	0.068760	0.321108
C46	C	0.968130	0.072930	0.407951
C47	C	0.912569	0.128466	0.444152
C48	C	0.861169	0.179830	0.393505
C49	C	0.865335	0.175655	0.306664
C50	C	0.894373	0.146680	0.703101
C51	C	0.890212	0.150853	0.789948
C52	C	0.997173	0.043951	0.804388
C53	C	1.001337	0.039784	0.717544
C54	C	0.949934	0.091145	0.666905
N55	N	0.908308	0.132732	0.532920
N56	N	0.954192	0.086875	0.578140
H57	H	0.326177	0.102662	-0.054639
H58	H	0.815926	0.225047	0.422985
N59	N	0.938493	-0.498491	-0.127811
H60	H	0.988168	-0.470862	-0.129665
H61	H	0.940008	-0.539364	-0.172825
H62	H	0.928206	-0.122864	0.208378
N63	N	0.152076	0.113529	0.227534
H64	H	0.170371	0.066003	0.264573
H65	H	0.159379	0.163720	0.258158
N66	N	1.032231	0.008864	0.282065
H67	H	1.064155	-0.023041	0.327327
H68	H	1.003715	-0.027793	0.246362
H69	H	0.925242	-0.272018	0.218251
H70	H	0.536330	0.116927	0.165683
H71	H	0.177037	0.099700	-0.064516
H72	H	0.549457	0.103834	-0.107203
N73	N	0.809898	0.231048	0.252041
H74	H	0.774068	0.266864	0.288150
H75	H	0.841867	0.264241	0.215678
H76	H	0.934285	-0.657520	-0.097325
H77	H	0.698607	0.106816	-0.097331
N78	N	0.939175	-0.296956	-0.073761
H79	H	0.987476	-0.337504	-0.071075
H80	H	0.889820	-0.324902	-0.078534
N81	N	0.695377	0.121099	0.196154
H82	H	0.654567	0.122616	0.241244
H83	H	0.735618	0.073124	0.205416
H84	H	0.921125	-0.644431	0.175565
N85	N	0.942558	-0.126037	-0.085106
H86	H	0.944085	-0.166839	-0.130196
H87	H	0.894582	-0.085797	-0.094367
H88	H	1.046580	-0.005438	0.688072
N89	N	0.923361	-0.483467	0.184843
H90	H	0.872683	-0.489915	0.214949
H91	H	0.970343	-0.502513	0.222325
N92	N	0.830289	0.210755	0.829006
H93	H	0.840205	0.265991	0.810721
H94	H	0.775082	0.200735	0.810750
N95	N	1.023590	0.017560	0.462571
H96	H	1.059433	-0.018242	0.426460
H97	H	1.056752	0.049592	0.498884
N98	N	1.052612	-0.011443	0.859005
H99	H	1.041545	-0.000374	0.919512
H100	H	1.044118	-0.068109	0.846991
N101	N	0.838929	0.202070	0.648489
H102	H	0.803102	0.237885	0.684603
H103	H	0.870895	0.235265	0.612124
H104	H	0.313043	0.115773	0.218253
