data_functionalizedCrystal
_audit_creation_method	'MofGen! by Chris Wilmer'
_symmetry_space_group_name_H-M	'P1'
_symmetry_Int_Tables_number	1
_symmetry_cell_setting	triclinic
loop_
_symmetry_equiv_pos_as_xyz
  x,y,z
_cell_length_a	19.805407
_cell_length_b	21.295417
_cell_length_c	19.805399
_cell_angle_alpha	90.029796
_cell_angle_beta	90.019573
_cell_angle_gamma	90.029702
loop_
_atom_site_label
_atom_site_type_symbol
_atom_site_fract_x
_atom_site_fract_y
_atom_site_fract_z
Zn1	Zn	1.034720	-0.250624	0.382709
Zn2	Zn	1.034629	-0.355893	0.269517
Zn3	Zn	0.921535	-0.250641	0.269534
Zn4	Zn	0.921492	-0.355859	0.382663
O5	O	0.978094	-0.303254	0.326106
O6	O	1.129425	-0.264595	0.367706
O7	O	1.019606	-0.341952	0.174802
O8	O	0.936605	-0.162549	0.284573
O9	O	1.129357	-0.341935	0.284544
O10	O	1.019762	-0.162537	0.367723
O11	O	0.936517	-0.264624	0.174815
O12	O	0.826813	-0.264592	0.284529
O13	O	0.936532	-0.341878	0.477386
O14	O	0.826781	-0.341895	0.367644
O15	O	1.019721	-0.264562	0.477420
O16	O	1.019564	-0.443977	0.284499
O17	O	0.936443	-0.443953	0.367628
C18	C	0.802238	-0.303242	0.326084
C19	C	0.727006	-0.303252	0.326091
C20	C	0.978008	-0.466806	0.326071
C21	C	0.978033	-0.536774	0.326079
C22	C	0.691663	-0.343564	0.369299
C23	C	0.620975	-0.343566	0.369308
C24	C	0.585630	-0.303257	0.326106
C25	C	0.620978	-0.262940	0.282895
C26	C	0.691665	-0.262936	0.282890
C27	C	0.335905	-0.262954	0.282918
C28	C	0.265213	-0.262962	0.282925
C29	C	0.265214	-0.343583	0.369336
C30	C	0.335901	-0.343579	0.369331
C31	C	0.371243	-0.303261	0.326123
C32	C	0.447891	-0.303259	0.326114
C33	C	0.508983	-0.303261	0.326111
C34	C	1.021308	-0.569577	0.369406
C35	C	1.021331	-0.635319	0.369423
C36	C	0.978087	-0.668256	0.326101
C37	C	0.934804	-0.635446	0.282771
C38	C	0.934777	-0.569704	0.282760
N39	N	0.972976	-0.771518	0.266865
N40	N	0.973006	-0.833969	0.266877
C41	C	0.978167	-0.866331	0.326131
N42	N	0.983309	-0.833882	0.385374
N43	N	0.983283	-0.771425	0.385362
C44	C	0.978112	-0.739542	0.326108
C45	C	1.021470	-0.970419	0.369480
C46	C	1.021489	-1.036163	0.369498
C47	C	0.934965	-1.036288	0.282840
C48	C	0.934942	-0.970546	0.282828
C49	C	0.978198	-0.937615	0.326147
C50	C	1.154637	-0.303267	0.326128
C51	C	1.229869	-0.303272	0.326138
C52	C	0.978132	-0.303214	0.502649
C53	C	0.978148	-0.303198	0.577881
C54	C	0.978199	-0.139064	0.326155
C55	C	0.978244	-0.069096	0.326176
C56	C	0.978095	-0.303248	0.150250
C57	C	0.978210	-0.303088	0.075018
C58	C	1.021465	-0.262937	0.613243
C59	C	1.021472	-0.262919	0.683932
C60	C	0.978165	-0.303165	0.719256
C61	C	0.934843	-0.343427	0.683888
C62	C	0.934833	-0.343441	0.613201
C63	C	0.934881	-0.343368	0.968962
C64	C	0.934896	-0.343352	1.039654
C65	C	1.021520	-0.262846	1.039692
C66	C	1.021510	-0.262860	0.969005
C67	C	0.978186	-0.303120	0.933644
C68	C	0.978178	-0.303138	0.856995
C69	C	0.978176	-0.303150	0.795903
H70	H	0.720435	-0.376390	0.404477
H71	H	0.899536	-0.542996	0.247478
Cl72	Cl	1.075915	-0.212343	0.568843
Cl73	Cl	0.880373	-0.394055	0.568745
Cl74	Cl	1.075889	-1.077402	0.423979
H75	H	1.056747	-0.230136	0.712721
H76	H	0.236437	-0.230134	0.247744
H77	H	0.899614	-0.376159	0.940179
H78	H	0.899707	-0.943836	0.247544
H79	H	1.056565	-0.662032	0.404713
H80	H	1.056778	-0.230090	0.940248
Cl81	Cl	1.075983	-0.212230	1.084151
Cl82	Cl	0.880598	-1.077689	0.228379
Cl83	Cl	0.880397	-0.394020	0.728296
Cl84	Cl	0.880447	-0.393950	1.084061
H85	H	0.236430	-0.376410	0.404521
Cl86	Cl	0.576545	-0.212262	0.228588
Cl87	Cl	0.380330	-0.394257	0.423642
H88	H	0.592201	-0.376392	0.404492
Cl89	Cl	1.075844	-0.929018	0.423940
Cl90	Cl	0.880436	-0.676851	0.228313
Cl91	Cl	0.380325	-0.212266	0.228602
Cl92	Cl	0.736097	-0.212254	0.228570
Cl93	Cl	1.075682	-0.528182	0.423869
