data_functionalizedCrystal
_audit_creation_method	'MofGen! by Chris Wilmer'
_symmetry_space_group_name_H-M	'P1'
_symmetry_Int_Tables_number	1
_symmetry_cell_setting	triclinic
loop_
_symmetry_equiv_pos_as_xyz
  x,y,z
_cell_length_a	6.817900
_cell_length_b	9.514088
_cell_length_c	9.514072
_cell_angle_alpha	83.785444
_cell_angle_beta	118.843421
_cell_angle_gamma	118.843545
loop_
_atom_site_label
_atom_site_type_symbol
_atom_site_fract_x
_atom_site_fract_y
_atom_site_fract_z
V1	V	-4.303761	-0.502017	-0.225059
O2	O	-4.198339	-0.491166	0.007885
O3	O	-4.337695	-0.499829	-0.443436
O4	O	-4.337705	-0.720396	-0.222882
O5	O	-4.198329	-0.269072	-0.214195
V6	V	-4.766051	-0.474004	-0.197044
O7	O	-4.611597	-0.563467	-0.286511
O8	O	-4.908413	-0.412554	-0.135592
O9	O	-4.508911	-0.476192	0.021333
O10	O	-4.988870	-0.484855	-0.429988
O11	O	-4.988881	-0.706949	-0.207908
O12	O	-4.508901	-0.255625	-0.199220
C13	C	-4.200061	-0.492231	-0.496631
C14	C	-4.309641	-0.491898	-0.675166
C15	C	-4.200071	-0.773584	-0.215291
C16	C	-4.309652	-0.952118	-0.214957
C17	C	-4.309889	-0.483786	0.074520
C18	C	-4.179551	-0.484130	0.253053
C19	C	-4.309876	-0.202429	-0.206816
C20	C	-4.179530	-0.023893	-0.207143
H21	H	-3.984287	-0.477655	-0.671806
H22	H	-4.504903	-0.498349	-0.750312
H23	H	-4.504905	-1.027262	-0.221395
F24	F	-3.924353	-0.925693	-0.198752
