data_functionalizedCrystal
_audit_creation_method	'MofGen! by Chris Wilmer'
_symmetry_space_group_name_H-M	'P1'
_symmetry_Int_Tables_number	1
_symmetry_cell_setting	triclinic
loop_
_symmetry_equiv_pos_as_xyz
  x,y,z
_cell_length_a	19.188931
_cell_length_b	19.188930
_cell_length_c	18.266242
_cell_angle_alpha	90.011475
_cell_angle_beta	89.992492
_cell_angle_gamma	96.855219
loop_
_atom_site_label
_atom_site_type_symbol
_atom_site_fract_x
_atom_site_fract_y
_atom_site_fract_z
O1	O	0.926149	-0.087169	-0.060863
O2	O	1.426149	0.412831	0.439137
O3	O	0.722838	-0.098903	-0.060871
O4	O	1.222838	0.401097	0.439129
O5	O	0.830361	0.008620	-0.060852
O6	O	1.330361	0.508620	0.439148
O7	O	0.818626	-0.194691	-0.060881
O8	O	1.318626	0.305309	0.439119
O9	O	0.830343	0.008625	0.060910
O10	O	1.330343	0.508625	0.560910
O11	O	0.722820	-0.098897	0.060891
O12	O	1.222820	0.401103	0.560891
O13	O	0.926131	-0.087163	0.060899
O14	O	1.426131	0.412837	0.560899
Zn15	Zn	0.824473	-0.093029	0.080227
Zn16	Zn	1.324473	0.406971	0.580227
Zn17	Zn	0.824496	-0.093037	-0.080199
Zn18	Zn	1.324496	0.406963	0.419801
O19	O	0.818608	-0.194686	0.060880
O20	O	1.318608	0.305314	0.560880
C21	C	0.696818	-0.098520	0.000009
C22	C	1.196818	0.401480	0.500009
C23	C	0.619313	-0.097380	0.000006
C24	C	1.119313	0.402620	0.500006
C25	C	0.829972	0.034634	0.000031
C26	C	1.329972	0.534634	0.500031
C27	C	0.828831	0.112138	0.000037
C28	C	1.328831	0.612138	0.500037
C29	C	0.952151	-0.087546	0.000017
C30	C	1.452151	0.412454	0.500017
C31	C	1.029656	-0.088687	0.000015
C32	C	1.529656	0.411313	0.500015
C33	C	1.074580	-0.025596	0.000018
C34	C	1.574580	0.474404	0.500018
C35	C	1.147403	-0.026667	0.000022
C36	C	1.647403	0.473333	0.500022
C37	C	1.175300	-0.090834	0.000009
C38	C	1.675300	0.409166	0.500009
C39	C	1.130366	-0.153933	0.000010
C40	C	1.630366	0.346067	0.500010
C41	C	1.057544	-0.152859	0.000014
C42	C	1.557544	0.347141	0.500014
N43	N	1.283301	-0.139883	-0.041448
N44	N	1.783301	0.360117	0.458552
N45	N	1.352479	-0.140898	-0.041453
N46	N	1.852479	0.359102	0.458547
C47	C	1.394709	-0.094072	0.000001
C48	C	1.894709	0.405928	0.500001
N49	N	1.365147	-0.046181	0.041451
N50	N	1.865147	0.453819	0.541451
N51	N	1.295963	-0.045163	0.041452
N52	N	1.795963	0.454837	0.541452
C53	C	1.254262	-0.092005	0.000006
C54	C	1.754262	0.407995	0.500006
C55	C	1.518597	-0.032139	0.000010
C56	C	2.018597	0.467861	0.500010
C57	C	1.591422	-0.033213	0.000018
C58	C	2.091422	0.466787	0.500018
C59	C	1.574383	-0.160480	-0.000001
C60	C	2.074383	0.339520	0.499999
C61	C	1.501560	-0.159404	-0.000002
C62	C	2.001560	0.340596	0.499998
C63	C	1.473671	-0.095231	-0.000000
C64	C	1.973671	0.404769	0.500000
C65	C	0.818997	-0.220700	-0.000004
C66	C	1.318997	0.279300	0.499996
C67	C	0.820138	-0.298204	-0.000015
C68	C	1.320138	0.201796	0.499985
N69	N	0.824461	-0.093024	0.189714
N70	N	1.324461	0.406976	0.689714
C71	C	0.891922	0.157062	0.000043
C72	C	1.391922	0.657062	0.500043
C73	C	0.890850	0.229886	0.000031
C74	C	1.390850	0.729886	0.500031
C75	C	0.826684	0.257782	0.000028
C76	C	1.326684	0.757782	0.500028
C77	C	0.763585	0.212849	0.000018
C78	C	1.263585	0.712849	0.500018
C79	C	0.764658	0.140026	0.000022
C80	C	1.264658	0.640026	0.500022
N81	N	0.777630	0.365789	0.041464
N82	N	1.277630	0.865789	0.541464
N83	N	0.776615	0.434968	0.041461
N84	N	1.276615	0.934968	0.541461
C85	C	0.823446	0.477191	0.000013
C86	C	1.323446	0.977191	0.500013
N87	N	0.871341	0.447624	-0.041423
N88	N	1.371341	0.947624	0.458577
N89	N	0.872359	0.378439	-0.041417
N90	N	1.372359	0.878439	0.458583
C91	C	0.825513	0.336745	0.000023
C92	C	1.325513	0.836745	0.500023
C93	C	0.885379	0.601079	0.000005
C94	C	1.385379	1.101079	0.500005
C95	C	0.884305	0.673904	-0.000011
C96	C	1.384305	1.173904	0.499989
C97	C	0.757038	0.656865	-0.000017
C98	C	1.257038	1.156865	0.499983
C99	C	0.758114	0.584042	-0.000008
C100	C	1.258114	1.084042	0.499992
C101	C	0.822286	0.556154	0.000007
C102	C	1.322286	1.056154	0.500007
N103	N	0.824513	-0.093037	-0.189686
N104	N	1.324513	0.406963	0.310314
C105	C	0.872088	-0.045436	0.228031
C106	C	1.372088	0.454564	0.728031
C107	C	0.872092	-0.045433	0.304676
C108	C	1.372092	0.454567	0.804676
C109	C	0.824477	-0.093030	0.343001
C110	C	1.324477	0.406970	0.843001
C111	C	0.776841	-0.140621	0.304675
C112	C	1.276841	0.359379	0.804675
C113	C	0.776834	-0.140618	0.228031
C114	C	1.276834	0.359382	0.728031
N115	N	0.815401	-0.154837	0.463325
N116	N	1.315401	0.345163	0.963325
N117	N	0.815413	-0.154837	0.536133
N118	N	1.315413	0.345163	1.036133
C119	C	0.824496	-0.093040	0.573924
C120	C	1.324496	0.406960	1.073924
N121	N	0.833582	-0.031239	0.536156
N122	N	1.333582	0.468761	1.036156
N123	N	0.833574	-0.031240	0.463341
N124	N	1.333574	0.468760	0.963341
C125	C	0.824480	-0.093038	0.426108
C126	C	1.324480	0.406962	0.926108
C127	C	0.872130	-0.045444	0.695348
C128	C	1.372130	0.454556	1.195348
C129	C	0.872130	-0.045440	0.771994
C130	C	1.372130	0.454560	1.271994
C131	C	0.776882	-0.140634	0.771991
C132	C	1.276882	0.359366	1.271991
C133	C	0.776879	-0.140632	0.695346
C134	C	1.276879	0.359368	1.195346
C135	C	0.824507	-0.093038	0.657029
C136	C	1.324507	0.406962	1.157029
H137	H	1.183987	0.024710	0.000022
H138	H	1.683987	0.524710	0.500022
O139	O	0.730694	-0.186842	0.809324
O140	O	1.230694	0.313158	1.309324
C141	C	0.740897	-0.176627	0.885189
C142	C	1.240897	0.323373	1.385189
H143	H	0.796487	-0.150397	0.895652
H144	H	1.296487	0.349603	1.395652
H145	H	0.732965	-0.229522	0.914307
H146	H	1.232965	0.270478	1.414307
H147	H	0.701492	-0.141703	0.906955
H148	H	1.201492	0.358297	1.406955
O149	O	0.694663	0.683873	0.000076
O150	O	1.194663	1.183873	0.500076
C151	C	0.656211	0.660928	0.063146
C152	C	1.156211	1.160928	0.563146
H153	H	0.675079	0.610482	0.084177
H154	H	1.175079	1.110482	0.584177
H155	H	0.598039	0.650641	0.048959
H156	H	1.098039	1.150641	0.548959
H157	H	0.664421	0.703106	0.107300
H158	H	1.164421	1.203106	0.607300
O159	O	0.918319	0.000867	0.658130
O160	O	1.418319	0.500867	1.158130
C161	C	0.907222	0.069972	0.676854
C162	C	1.407222	0.569972	1.176854
H163	H	0.851336	0.070202	0.697951
H164	H	1.351336	0.570202	1.197951
H165	H	0.915352	0.105004	0.626435
H166	H	1.415352	0.605004	1.126435
H167	H	0.946005	0.090589	0.721317
H168	H	1.446005	0.590589	1.221317
O169	O	1.458016	-0.220755	-0.000046
O170	O	1.958016	0.279245	0.499954
C171	C	1.498251	-0.277622	-0.000038
C172	C	1.998251	0.222378	0.499962
H173	H	1.552660	-0.259734	-0.023088
H174	H	2.052660	0.240266	0.476912
H175	H	1.471256	-0.321816	-0.035394
H176	H	1.971256	0.178184	0.464606
H177	H	1.503371	-0.297299	0.058375
H178	H	2.003371	0.202701	0.558375
O179	O	0.947774	0.574099	-0.000026
O180	O	1.447774	1.074099	0.499974
C181	C	1.003232	0.629371	-0.000015
C182	C	1.503232	1.129371	0.499985
H183	H	0.983814	0.678778	-0.023069
H184	H	1.483814	1.178778	0.476931
H185	H	1.048047	0.614279	-0.035368
H186	H	1.548047	1.114279	0.464632
H187	H	1.022681	0.639749	0.058398
H188	H	1.522681	1.139749	0.558398
O189	O	1.013930	-0.214168	-0.000124
O190	O	1.513930	0.285832	0.499876
C191	C	1.026564	-0.253151	-0.063182
C192	C	1.526564	0.246849	0.436818
H193	H	1.051574	-0.216217	-0.107252
H194	H	1.551574	0.283783	0.392748
H195	H	0.974812	-0.281309	-0.084355
H196	H	1.474812	0.218691	0.415645
H197	H	1.063520	-0.293450	-0.048929
H198	H	1.563520	0.206550	0.451071
O199	O	1.635133	0.028032	-0.000077
O200	O	2.135133	0.528032	0.499923
C201	C	1.677762	0.031218	-0.063147
C202	C	2.177762	0.531218	0.436853
H203	H	1.681279	-0.024193	-0.084173
H204	H	2.181279	0.475807	0.415827
H205	H	1.732573	0.057398	-0.048964
H206	H	2.232573	0.557398	0.451036
H207	H	1.653904	0.063025	-0.107305
H208	H	2.153904	0.563025	0.392695
O209	O	1.157494	-0.216246	-0.000135
O210	O	1.657494	0.283754	0.499865
C211	C	1.199124	-0.220671	-0.063193
C212	C	1.699124	0.279329	0.436807
H213	H	1.182014	-0.184240	-0.107262
H214	H	1.682014	0.315760	0.392738
H215	H	1.192416	-0.276962	-0.084369
H216	H	1.692416	0.223038	0.415631
H217	H	1.256603	-0.204390	-0.048938
H218	H	1.756603	0.295610	0.451062
O219	O	0.954318	0.130089	0.000020
O220	O	1.454318	0.630089	0.500020
C221	C	1.009774	0.185362	0.000042
C222	C	1.509774	0.685362	0.500042
H223	H	0.990358	0.234769	-0.023015
H224	H	1.490358	0.734769	0.476985
H225	H	1.054596	0.170273	-0.035302
H226	H	1.554596	0.670273	0.464698
H227	H	1.029213	0.195739	0.058459
H228	H	1.529213	0.695739	0.558459
H229	H	0.935683	0.710481	-0.000010
H230	H	1.435683	1.210481	0.499990
O231	O	1.601589	-0.222751	-0.000057
O232	O	2.101589	0.277249	0.499943
C233	C	1.675498	-0.210171	-0.000044
C234	C	2.175498	0.289829	0.499956
H235	H	1.692765	-0.155628	-0.023077
H236	H	2.192765	0.344372	0.476923
H237	H	1.697734	-0.251212	-0.035413
H238	H	2.197734	0.248788	0.464587
H239	H	1.695758	-0.213501	0.058368
H240	H	2.195758	0.286499	0.558368
O241	O	0.952120	0.273565	-0.000087
O242	O	1.452120	0.773565	0.499913
C243	C	0.955314	0.316200	-0.063139
C244	C	1.455314	0.816200	0.436861
H245	H	0.919544	0.289411	-0.107223
H246	H	1.419544	0.789411	0.392777
H247	H	1.011586	0.324562	-0.084294
H248	H	1.511586	0.824562	0.415706
H249	H	0.937396	0.369102	-0.048885
H250	H	1.437396	0.869102	0.451115
H251	H	0.738100	-0.179386	0.664146
H252	H	1.238100	0.320614	1.164146
O253	O	0.696780	0.540471	-0.000102
O254	O	1.196780	1.040471	0.499898
C255	C	0.657824	0.553056	-0.063175
C256	C	1.157824	1.053056	0.436825
H257	H	0.675141	0.608347	-0.084203
H258	H	1.175141	1.108347	0.415797
H259	H	0.599574	0.547760	-0.048994
H260	H	1.099574	1.047760	0.451006
H261	H	0.667254	0.513241	-0.107330
H262	H	1.167254	1.013241	0.392670
O263	O	1.491617	0.030256	0.000050
O264	O	1.991617	0.530256	0.500050
C265	C	1.546889	0.085715	0.000041
C266	C	2.046889	0.585715	0.500041
H267	H	1.596298	0.066297	0.023093
H268	H	2.096298	0.566297	0.523093
H269	H	1.531800	0.130530	0.035397
H270	H	2.031800	0.630530	0.535397
H271	H	1.557262	0.105162	-0.058371
H272	H	2.057262	0.605162	0.441629
H273	H	0.713280	0.103449	0.000018
H274	H	1.213280	0.603449	0.500018
O275	O	0.730543	-0.186918	0.190920
O276	O	1.230543	0.313082	0.690920
C277	C	0.688501	-0.228915	0.241177
C278	C	1.188501	0.271085	0.741177
H279	H	0.717125	-0.229634	0.295806
H280	H	1.217125	0.270366	0.795806
H281	H	0.677675	-0.284701	0.219021
H282	H	1.177675	0.215299	0.719021
H283	H	0.636708	-0.206371	0.249343
H284	H	1.136708	0.293629	0.749343
O285	O	0.918329	0.000764	0.809331
O286	O	1.418329	0.500764	1.309331
C287	C	0.908134	-0.009451	0.885196
C288	C	1.408134	0.490549	1.385196
H289	H	0.852545	-0.035679	0.895670
H290	H	1.352545	0.464321	1.395670
H291	H	0.916073	0.043444	0.914335
H292	H	1.416073	0.543444	1.414335
H293	H	0.947540	-0.044377	0.906930
H294	H	1.447540	0.455623	1.406930
O295	O	1.047606	0.036800	0.000061
O296	O	1.547606	0.536800	0.500061
C297	C	1.102879	0.092257	0.000047
C298	C	1.602879	0.592257	0.500047
H299	H	1.152291	0.072836	0.023091
H300	H	1.652291	0.572836	0.523091
H301	H	1.087797	0.137072	0.035408
H302	H	1.587797	0.637072	0.535408
H303	H	1.113246	0.111706	-0.058365
H304	H	1.613246	0.611706	0.441635
H305	H	0.738071	-0.179374	0.335883
H306	H	1.238071	0.320626	0.835883
O307	O	0.701298	0.240027	-0.000082
O308	O	1.201298	0.740027	0.499918
C309	C	0.696873	0.281615	-0.063154
C310	C	1.196873	0.781615	0.436846
H311	H	0.751963	0.299915	-0.084174
H312	H	1.251963	0.799915	0.415826
H313	H	0.669186	0.329221	-0.048974
H314	H	1.169186	0.829221	0.451026
H315	H	0.665893	0.249338	-0.107314
H316	H	1.165893	0.749338	0.392686
O317	O	0.918373	0.000868	0.190925
O318	O	1.418373	0.500868	0.690925
C319	C	0.960423	0.042860	0.241187
C320	C	1.460423	0.542860	0.741187
H321	H	0.931807	0.043573	0.295829
H322	H	1.431807	0.543573	0.795829
H323	H	0.971245	0.098648	0.219057
H324	H	1.471245	0.598648	0.719057
H325	H	1.012217	0.020315	0.249317
H326	H	1.512217	0.520315	0.749317
H327	H	0.910877	-0.006680	0.335880
H328	H	1.410877	0.493320	0.835880
