data_functionalizedCrystal
_audit_creation_method	'MofGen! by Chris Wilmer'
_symmetry_space_group_name_H-M	'P1'
_symmetry_Int_Tables_number	1
_symmetry_cell_setting	triclinic
loop_
_symmetry_equiv_pos_as_xyz
  x,y,z
_cell_length_a	16.959455
_cell_length_b	16.120484
_cell_length_c	16.120704
_cell_angle_alpha	84.364775
_cell_angle_beta	87.109401
_cell_angle_gamma	92.922454
loop_
_atom_site_label
_atom_site_type_symbol
_atom_site_fract_x
_atom_site_fract_y
_atom_site_fract_z
Zn1	Zn	1.167603	-0.356997	0.489446
Zn2	Zn	1.167531	-0.489637	0.356753
Zn3	Zn	1.042509	-0.349874	0.349691
Zn4	Zn	1.028327	-0.496723	0.496481
O5	O	1.101492	-0.423308	0.423093
O6	O	1.278203	-0.374608	0.471855
O7	O	1.156851	-0.465150	0.238852
O8	O	1.065069	-0.233851	0.362330
O9	O	1.278150	-0.472058	0.374367
O10	O	1.156975	-0.239085	0.465007
O11	O	1.064998	-0.362467	0.233663
O12	O	0.930018	-0.369338	0.369151
O13	O	1.040897	-0.484135	0.612513
O14	O	0.919599	-0.477227	0.476998
O15	O	1.143223	-0.381479	0.607344
O16	O	1.143099	-0.607544	0.381189
O17	O	1.040827	-0.612750	0.483846
C18	C	0.896128	-0.423279	0.423072
C19	C	0.808271	-0.423288	0.423084
C20	C	1.090437	-0.640476	0.434065
C21	C	1.085778	-0.733383	0.438787
C22	C	0.442192	-0.367091	0.367047
C23	C	0.431390	-0.479595	0.479190
C24	C	0.513937	-0.479583	0.479185
C25	C	0.560615	-0.423325	0.423108
C26	C	0.524746	-0.367079	0.367037
C27	C	0.549812	-0.535833	0.535248
C28	C	0.632364	-0.535824	0.535244
C29	C	0.679043	-0.479561	0.479171
C30	C	0.643170	-0.423312	0.423099
C31	C	0.689847	-0.367055	0.367023
C32	C	0.653975	-0.310801	0.310954
C33	C	0.571425	-0.310816	0.310964
C34	C	0.761593	-0.479546	0.479161
C35	C	0.772402	-0.367042	0.367014
C36	C	1.077276	-0.903486	0.447426
C37	C	1.125850	-0.942289	0.398773
C38	C	1.121119	-1.036940	0.403580
C39	C	1.082005	-0.808827	0.442620
C40	C	1.307658	-0.423337	0.423114
C41	C	1.395514	-0.423349	0.423123
C42	C	1.090486	-0.434392	0.641104
C43	C	1.085796	-0.439115	0.734007
C44	C	1.112612	-0.205292	0.412096
C45	C	1.117350	-0.112387	0.407409
C46	C	1.125748	-0.399001	0.942936
C47	C	1.077208	-0.447705	0.904095
C48	C	1.081988	-0.442924	0.809449
C49	C	1.120970	-0.403781	1.037590
C50	C	1.112454	-0.412293	1.205931
C51	C	1.117158	-0.407593	1.113029
H52	H	0.810402	-0.321225	0.321354
H53	H	0.790797	-0.525349	0.524809
C54	C	0.532428	-0.249880	0.250003
C55	C	0.485351	-0.294403	0.198732
C56	C	0.449417	-0.238298	0.142560
H57	H	0.500400	-0.215130	0.280113
H58	H	0.572021	-0.216378	0.216555
H59	H	0.445764	-0.327892	0.232175
H60	H	0.517360	-0.329150	0.168603
H61	H	0.489010	-0.204795	0.109113
H62	H	0.417394	-0.203551	0.172677
H63	H	0.417478	-0.268498	0.107761
H64	H	1.032058	-0.492986	0.941923
C65	C	1.185976	-0.338541	0.892649
C66	C	1.229814	-0.294531	0.947081
C67	C	1.285297	-0.238824	0.900776
H68	H	1.220540	-0.368749	0.860217
H69	H	1.159306	-0.300386	0.856755
H70	H	1.256483	-0.332681	0.982961
H71	H	1.195272	-0.264306	0.979514
H72	H	1.258627	-0.200669	0.864882
H73	H	1.319855	-0.269038	0.868346
H74	H	1.315043	-0.208951	0.937701
H75	H	0.412981	-0.321289	0.321399
C76	C	0.704795	-0.249760	0.250164
C77	C	0.784764	-0.261785	0.262172
C78	C	0.831605	-0.205564	0.206197
H79	H	0.693576	-0.258992	0.194562
H80	H	0.693550	-0.194227	0.259662
H81	H	0.796005	-0.317305	0.252668
H82	H	0.796007	-0.252546	0.317762
H83	H	0.820360	-0.150032	0.215695
H84	H	0.820379	-0.214801	0.150598
H85	H	0.885869	-0.213710	0.214342
H86	H	1.032141	-0.941348	0.492684
C87	C	0.380578	-0.540581	0.540033
C88	C	0.300607	-0.528542	0.528051
C89	C	0.253773	-0.584701	0.584095
H90	H	0.391779	-0.596131	0.530601
H91	H	0.391848	-0.531280	0.595615
H92	H	0.289342	-0.537849	0.472482
H93	H	0.289382	-0.473003	0.537490
H94	H	0.265043	-0.575400	0.639677
H95	H	0.264981	-0.640247	0.574659
H96	H	0.199508	-0.576534	0.575979
C97	C	0.499224	-0.596855	0.596267
C98	C	0.516078	-0.582990	0.678077
C99	C	0.469491	-0.639189	0.734315
H100	H	0.444905	-0.588851	0.588357
H101	H	0.510521	-0.652392	0.586840
H102	H	0.504775	-0.527467	0.687501
H103	H	0.570388	-0.591001	0.686014
H104	H	0.480788	-0.694726	0.724888
H105	H	0.415175	-0.631181	0.726397
H106	H	0.480925	-0.629795	0.789829
H107	H	0.661564	-0.581628	0.580900
H108	H	1.170987	-0.904424	0.353511
