data_functionalizedCrystal
_audit_creation_method	'MofGen! by Chris Wilmer'
_symmetry_space_group_name_H-M	'P1'
_symmetry_Int_Tables_number	1
_symmetry_cell_setting	triclinic
loop_
_symmetry_equiv_pos_as_xyz
  x,y,z
_cell_length_a	10.489741
_cell_length_b	11.026607
_cell_length_c	10.065875
_cell_angle_alpha	79.268236
_cell_angle_beta	81.160533
_cell_angle_gamma	83.437405
loop_
_atom_site_label
_atom_site_type_symbol
_atom_site_fract_x
_atom_site_fract_y
_atom_site_fract_z
O1	O	1.746394	-0.153833	-0.113555
O2	O	1.378739	-0.169938	-0.113544
O3	O	1.532095	0.015033	-0.113544
O4	O	1.593038	-0.338804	-0.113555
O5	O	1.502885	-0.020381	0.113445
O6	O	1.349529	-0.205352	0.113445
O7	O	1.717184	-0.189247	0.113434
Zn8	Zn	1.528719	-0.202923	0.149479
Zn9	Zn	1.567204	-0.156263	-0.149589
O10	O	1.563828	-0.374218	0.113433
C11	C	1.506248	0.042635	-0.000050
C12	C	1.472733	0.177643	-0.000054
C13	C	1.316335	-0.186429	-0.000048
C14	C	1.173904	-0.182791	-0.000043
C15	C	1.779589	-0.172756	-0.000065
C16	C	1.922020	-0.176392	-0.000079
C17	C	2.016048	-0.294086	-0.000068
C18	C	2.110346	-0.221029	-0.111979
C19	C	2.081507	-0.255917	0.111814
C20	C	2.014455	-0.103273	-0.112082
C21	C	1.985597	-0.138193	0.111812
C22	C	2.079853	-0.065047	-0.000126
C23	C	1.589676	-0.401820	-0.000063
C24	C	1.623191	-0.536826	-0.000068
N25	N	1.502463	-0.234766	0.353584
C26	C	1.565274	0.250640	-0.000059
C27	C	1.530637	0.390178	-0.000063
N28	N	1.593469	-0.124410	-0.353694
C29	C	1.558059	-0.167334	0.421363
C30	C	1.537864	-0.191851	0.578530
H31	H	1.987700	-0.390833	-0.000185
F32	F	1.335660	0.230976	-0.000063
H33	H	2.164497	-0.256068	-0.206593
F34	F	1.760275	0.409852	-0.000078
F35	F	1.420696	-0.333945	0.429815
H36	H	1.425762	0.430981	-0.000069
F37	F	1.639541	-0.067933	0.345132
F38	F	1.975791	-0.018916	-0.235889
H39	H	1.475304	-0.267733	0.636851
H40	H	1.931427	-0.103200	0.206434
F41	F	2.116617	0.061556	-0.000195
H42	H	1.656017	-0.048519	0.587985
F43	F	2.120410	-0.340326	0.235481
H44	H	1.670142	0.209832	-0.000054
