data_functionalizedCrystal
_audit_creation_method	'MofGen! by Chris Wilmer'
_symmetry_space_group_name_H-M	'P1'
_symmetry_Int_Tables_number	1
_symmetry_cell_setting	triclinic
loop_
_symmetry_equiv_pos_as_xyz
  x,y,z
_cell_length_a	10.540539
_cell_length_b	10.540535
_cell_length_c	7.088929
_cell_angle_alpha	96.268851
_cell_angle_beta	96.284388
_cell_angle_gamma	95.475433
loop_
_atom_site_label
_atom_site_type_symbol
_atom_site_fract_x
_atom_site_fract_y
_atom_site_fract_z
O1	O	0.191796	-1.672986	0.158874
O2	O	0.208660	-1.303571	0.158900
O3	O	0.015521	-1.496707	0.158884
O4	O	0.384935	-1.479850	0.158890
O5	O	-0.010349	-1.522517	-0.159093
O6	O	0.182790	-1.329381	-0.159077
O7	O	0.165926	-1.698797	-0.159103
Cu8	Cu	0.171996	-1.516445	-0.188124
Cu9	Cu	0.202590	-1.485922	0.187921
O10	O	0.359065	-1.505660	-0.159087
C11	C	-0.044717	-1.508347	-0.000101
C12	C	-0.185664	-1.504565	-0.000090
C13	C	0.194462	-1.269172	-0.000085
C14	C	0.190683	-1.128223	-0.000075
C15	C	0.180124	-1.733194	-0.000114
C16	C	0.183904	-1.874143	-0.000111
C17	C	-0.369030	-1.359588	0.000633
C18	C	-0.222470	-1.363480	-0.000083
C19	C	-0.262096	-1.587200	-0.181676
C20	C	-0.408653	-1.582397	-0.181828
C21	C	-0.379752	-1.555915	0.179771
C22	C	-0.232575	-1.557020	0.182172
C23	C	0.419303	-1.494019	-0.000098
C24	C	0.560251	-1.497801	-0.000096
C25	C	0.049668	-1.091553	-0.000085
C26	C	0.045630	-0.945013	-0.000826
C27	C	0.240307	-0.933599	-0.181324
C28	C	0.243297	-1.080375	-0.181457
C29	C	0.274769	-1.050907	0.180155
C30	C	0.268439	-0.904369	0.182518
N31	N	0.150477	-1.537923	-0.452614
N32	N	0.224099	-1.464454	0.452411
H33	H	-0.387034	-1.293287	0.130852
O34	O	0.374422	-0.871514	-0.189601
H35	H	0.437575	-0.886771	-0.059991
H36	H	0.300393	-1.388312	-0.465937
O37	O	-0.034859	-1.163057	-0.171965
H38	H	0.002825	-1.137169	-0.304501
O39	O	-0.460651	-1.530519	-0.361607
H40	H	-0.412523	-1.432541	-0.364772
O41	O	0.161048	-0.907266	-0.360666
H42	H	0.081463	-0.851881	-0.321194
H43	H	-0.457294	-1.684532	-0.190073
O44	O	-0.152009	-1.278705	0.172329
H45	H	-0.094040	-1.337314	0.262015
O46	O	-0.406696	-1.480635	0.362090
H47	H	-0.463157	-1.400951	0.326531
H48	H	-0.409770	-1.314594	-0.128848
H49	H	-0.020369	-0.927167	-0.131496
O50	O	0.231278	-1.092352	0.362164
H51	H	0.311750	-1.130165	0.445292
H52	H	0.074187	-1.614080	-0.534276
H53	H	0.378663	-1.072950	0.181909
H54	H	-0.191320	-1.320265	-0.130460
O55	O	0.214331	-0.852056	0.360120
H56	H	0.127127	-0.805432	0.318493
H57	H	-0.240294	-1.691356	-0.188434
O58	O	-0.008107	-1.133172	0.171993
H59	H	-0.095160	-1.201722	0.123679
O60	O	-0.220239	-1.539269	-0.360677
H61	H	-0.145056	-1.456641	-0.320771
O62	O	-0.163870	-1.476866	0.360120
H63	H	-0.197558	-1.514548	0.488295
O64	O	-0.199323	-1.692096	0.196703
H65	H	-0.246188	-1.756193	0.068356
O66	O	-0.442180	-1.690763	0.181411
H67	H	-0.515583	-1.716325	0.054817
H68	H	0.184185	-1.131584	-0.317438
H69	H	0.346041	-1.104035	-0.189199
H70	H	0.000556	-0.905133	0.129049
O71	O	0.403318	-0.838211	0.197742
H72	H	0.412251	-0.782511	0.074822
