data_functionalizedCrystal
_audit_creation_method	'MofGen! by Chris Wilmer'
_symmetry_space_group_name_H-M	'P1'
_symmetry_Int_Tables_number	1
_symmetry_cell_setting	triclinic
loop_
_symmetry_equiv_pos_as_xyz
  x,y,z
_cell_length_a	21.395362
_cell_length_b	16.959454
_cell_length_c	21.395356
_cell_angle_alpha	89.977834
_cell_angle_beta	89.957023
_cell_angle_gamma	90.035955
loop_
_atom_site_label
_atom_site_type_symbol
_atom_site_fract_x
_atom_site_fract_y
_atom_site_fract_z
Zn1	Zn	0.957900	-0.314366	-0.354610
Zn2	Zn	1.291233	0.018967	-0.021276
Zn3	Zn	1.624566	0.352300	0.312057
Zn4	Zn	0.957824	-0.446548	-0.249842
Zn5	Zn	1.291157	-0.113215	0.083491
Zn6	Zn	1.624490	0.220118	0.416824
Zn7	Zn	0.853117	-0.314424	-0.249811
Zn8	Zn	1.186450	0.018909	0.083522
Zn9	Zn	1.519783	0.352242	0.416856
Zn10	Zn	0.853103	-0.446544	-0.354547
Zn11	Zn	1.186437	-0.113210	-0.021214
Zn12	Zn	1.519770	0.220123	0.312120
O13	O	0.905486	-0.380471	-0.302202
O14	O	1.238819	-0.047137	0.031131
O15	O	1.572152	0.286196	0.364464
O16	O	1.045568	-0.331878	-0.340751
O17	O	1.378901	0.001455	-0.007418
O18	O	1.712234	0.334788	0.325915
O19	O	0.943907	-0.429048	-0.162160
O20	O	1.277241	-0.095715	0.171173
O21	O	1.610574	0.237618	0.504507
O22	O	0.867054	-0.203806	-0.263726
O23	O	1.200387	0.129527	0.069608
O24	O	1.533720	0.462861	0.402941
O25	O	1.045512	-0.428992	-0.263779
O26	O	1.378845	-0.095659	0.069554
O27	O	1.712178	0.237675	0.402887
O28	O	0.944038	-0.203763	-0.340721
O29	O	1.277371	0.129570	-0.007388
O30	O	1.610704	0.462903	0.325946
O31	O	0.866980	-0.331977	-0.162137
O32	O	1.200313	0.001356	0.171196
O33	O	1.533646	0.334689	0.504530
O34	O	0.765437	-0.331973	-0.263665
O35	O	1.098770	0.001361	0.069668
O36	O	1.432104	0.334694	0.403002
O37	O	0.867031	-0.428984	-0.442233
O38	O	1.200365	-0.095650	-0.108900
O39	O	1.533698	0.237683	0.224433
O40	O	0.765427	-0.429040	-0.340614
O41	O	1.098761	-0.095707	-0.007281
O42	O	1.432094	0.237627	0.326052
O43	O	0.944025	-0.331874	-0.442279
O44	O	1.277358	0.001460	-0.108946
O45	O	1.610691	0.334793	0.224387
O46	O	0.943895	-0.557159	-0.263718
O47	O	1.277228	-0.223825	0.069615
O48	O	1.610561	0.109508	0.402948
O49	O	0.866957	-0.557155	-0.340645
O50	O	1.200291	-0.223822	-0.007311
O51	O	1.533624	0.109512	0.326022
C52	C	0.742698	-0.380513	-0.302130
C53	C	1.076031	-0.047179	0.031204
C54	C	1.409365	0.286154	0.364537
C55	C	0.673057	-0.380549	-0.302114
C56	C	1.006390	-0.047216	0.031220
C57	C	1.339724	0.286117	0.364553
C58	C	0.640355	-0.431159	-0.342121
C59	C	0.973688	-0.097826	-0.008788
C60	C	1.307022	0.235507	0.324546
C61	C	0.574920	-0.431140	-0.342149
C62	C	0.908253	-0.097807	-0.008816
C63	C	1.241586	0.235527	0.324518
C64	C	0.542189	-0.380519	-0.302158
C65	C	0.875522	-0.047186	0.031175
C66	C	1.208855	0.286148	0.364509
C67	C	0.574898	-0.329899	-0.262148
C68	C	0.908232	0.003434	0.071185
C69	C	1.241565	0.336767	0.404519
C70	C	0.640332	-0.329914	-0.262126
C71	C	0.973666	0.003419	0.071208
C72	C	1.306999	0.336752	0.404541
C73	C	0.438464	-0.374163	-0.245752
C74	C	0.771797	-0.040829	0.087581
C75	C	1.105131	0.292504	0.420914
C76	C	0.373031	-0.374153	-0.245774
C77	C	0.706364	-0.040820	0.087560
C78	C	1.039698	0.292514	0.420893
C79	C	0.340368	-0.380467	-0.302227
C80	C	0.673701	-0.047134	0.031106
C81	C	1.007035	0.286199	0.364439
C82	C	0.373146	-0.386808	-0.358661
C83	C	0.706479	-0.053475	-0.025328
C84	C	1.039813	0.279859	0.308005
C85	C	0.438580	-0.386823	-0.358639
C86	C	0.771913	-0.053490	-0.025306
C87	C	1.105247	0.279843	0.308028
C88	C	0.471236	-0.380496	-0.302178
C89	C	0.804570	-0.047163	0.031155
C90	C	1.137903	0.286170	0.364488
C91	C	0.236714	-0.431059	-0.342268
C92	C	0.570047	-0.097726	-0.008935
C93	C	0.903380	0.235608	0.324398
C94	C	0.171277	-0.431034	-0.342297
C95	C	0.504610	-0.097701	-0.008964
C96	C	0.837944	0.235633	0.324369
C97	C	0.171257	-0.329797	-0.262291
C98	C	0.504590	0.003536	0.071042
C99	C	0.837923	0.336869	0.404376
C100	C	0.236692	-0.329818	-0.262267
C101	C	0.570025	0.003515	0.071066
C102	C	0.903359	0.336848	0.404399
C103	C	0.269417	-0.380453	-0.302255
C104	C	0.602750	-0.047120	0.031078
C105	C	0.936083	0.286213	0.364411
C106	C	0.905433	-0.585837	-0.302192
C107	C	1.238767	-0.252504	0.031142
C108	C	1.572100	0.080830	0.364475
C109	C	0.905468	-0.673694	-0.302208
C110	C	1.238802	-0.340360	0.031125
C111	C	1.572135	-0.007027	0.364458
C112	C	0.865483	-1.045197	-0.342254
C113	C	1.198816	-0.711864	-0.008920
C114	C	1.532149	-0.378531	0.324413
C115	C	0.945664	-1.045141	-0.262215
C116	C	1.278997	-0.711808	0.071118
C117	C	1.612330	-0.378474	0.404452
C118	C	0.945642	-0.962595	-0.262209
C119	C	1.278975	-0.629262	0.071124
C120	C	1.612308	-0.295928	0.404457
C121	C	0.905539	-0.921346	-0.302226
C122	C	1.238872	-0.588013	0.031108
C123	C	1.572206	-0.254680	0.364441
C124	C	0.865458	-0.962644	-0.342248
C125	C	1.198792	-0.629310	-0.008914
C126	C	1.532125	-0.295977	0.324419
C127	C	0.985717	-0.921292	-0.222184
C128	C	1.319051	-0.587958	0.111150
C129	C	1.652384	-0.254625	0.444483
C130	C	0.985696	-0.838741	-0.222176
C131	C	1.319030	-0.505407	0.111158
C132	C	1.652363	-0.172074	0.444491
C133	C	0.945596	-0.797491	-0.262196
C134	C	1.278930	-0.464157	0.071138
C135	C	1.612263	-0.130824	0.404471
C136	C	0.905515	-0.838793	-0.302220
C137	C	1.238848	-0.505460	0.031114
C138	C	1.572181	-0.172126	0.364447
C139	C	0.865412	-0.797544	-0.342236
C140	C	1.198745	-0.464211	-0.008903
C141	C	1.532079	-0.130878	0.324431
C142	C	0.825333	-0.838845	-0.382264
C143	C	1.158666	-0.505512	-0.048931
C144	C	1.491999	-0.172178	0.284403
C145	C	0.825358	-0.921394	-0.382268
C146	C	1.158692	-0.588060	-0.048934
C147	C	1.492025	-0.254727	0.284399
C148	C	0.945571	-0.714942	-0.262192
C149	C	1.278904	-0.381609	0.071141
C150	C	1.612238	-0.048276	0.404475
C151	C	0.865387	-0.714991	-0.342230
C152	C	1.198721	-0.381657	-0.008897
C153	C	1.532054	-0.048324	0.324436
C154	C	1.068909	-0.380429	-0.302276
C155	C	1.402242	-0.047096	0.031058
C156	C	1.735576	0.286237	0.364391
C157	C	1.138550	-0.380412	-0.302307
C158	C	1.471884	-0.047078	0.031026
C159	C	1.805217	0.286255	0.364360
C160	C	0.905535	-0.380422	-0.465626
C161	C	1.238868	-0.047088	-0.132292
C162	C	1.572202	0.286245	0.201041
C163	C	0.905556	-0.380401	-0.535267
C164	C	1.238889	-0.047067	-0.201934
C165	C	1.572223	0.286266	0.131400
C166	C	0.905556	-0.174302	-0.302227
C167	C	1.238889	0.159031	0.031106
C168	C	1.572222	0.492364	0.364440
C169	C	0.905585	-0.086446	-0.302237
C170	C	1.238919	0.246887	0.031096
C171	C	1.572252	0.580221	0.364429
C172	C	0.865511	-0.329850	-0.567958
C173	C	1.198844	0.003483	-0.234625
C174	C	1.532177	0.336816	0.098708
C175	C	0.865508	-0.329836	-0.633394
C176	C	1.198842	0.003498	-0.300060
C177	C	1.532175	0.336831	0.033273
C178	C	0.905563	-0.380363	-0.666135
C179	C	1.238896	-0.047030	-0.332802
C180	C	1.572230	0.286303	0.000531
C181	C	0.945611	-0.430924	-0.633436
C182	C	1.278945	-0.097590	-0.300103
C183	C	1.612278	0.235743	0.033230
C184	C	0.945608	-0.430942	-0.568002
C185	C	1.278941	-0.097609	-0.234669
C186	C	1.612275	0.235724	0.098665
C187	C	0.962016	-0.386558	-0.769841
C188	C	1.295349	-0.053225	-0.436508
C189	C	1.628683	0.280109	-0.103175
C190	C	0.962020	-0.386533	-0.835274
C191	C	1.295354	-0.053200	-0.501941
C192	C	1.628687	0.280133	-0.168608
C193	C	0.905573	-0.380310	-0.867956
C194	C	1.238907	-0.046977	-0.534623
C195	C	1.572240	0.286357	-0.201290
C196	C	0.849120	-0.374094	-0.835197
C197	C	1.182453	-0.040761	-0.501864
C198	C	1.515787	0.292573	-0.168531
C199	C	0.849117	-0.374113	-0.769763
C200	C	1.182450	-0.040779	-0.436430
C201	C	1.515783	0.292554	-0.103096
C202	C	0.905571	-0.380349	-0.737088
C203	C	1.238904	-0.047015	-0.403755
C204	C	1.572238	0.286318	-0.070421
C205	C	0.865522	-0.329741	-0.971600
C206	C	1.198855	0.003593	-0.638267
C207	C	1.532189	0.336926	-0.304934
C208	C	0.865519	-0.329732	-1.037037
C209	C	1.198852	0.003602	-0.703704
C210	C	1.532186	0.336935	-0.370370
C211	C	0.945627	-0.430815	-1.037078
C212	C	1.278961	-0.097482	-0.703745
C213	C	1.612294	0.235851	-0.370411
C214	C	0.945625	-0.430829	-0.971643
C215	C	1.278958	-0.097495	-0.638309
C216	C	1.612292	0.235838	-0.304976
C217	C	0.905573	-0.380287	-0.938908
C218	C	1.238907	-0.046954	-0.605574
C219	C	1.572240	0.286380	-0.272241
C220	C	0.905473	-0.380462	-0.139415
C221	C	1.238806	-0.047129	0.193918
C222	C	1.572139	0.286204	0.527252
C223	C	0.905573	-0.380261	-0.069774
C224	C	1.238907	-0.046927	0.263559
C225	C	1.572240	0.286406	0.596893
H226	H	0.144608	-0.288577	-0.229733
H227	H	0.477941	0.044756	0.103601
H228	H	0.811274	0.378090	0.436934
C229	C	0.538937	-0.486814	-0.386155
C230	C	0.872271	-0.153481	-0.052822
C231	C	1.205604	0.179852	0.280512
H232	H	0.495280	-0.479549	-0.380443
H233	H	0.828614	-0.146216	-0.047109
H234	H	1.161947	0.187117	0.286224
H235	H	0.549616	-0.539909	-0.376907
H236	H	0.882950	-0.206576	-0.043574
H237	H	1.216283	0.126757	0.289759
H238	H	0.549711	-0.475320	-0.428269
H239	H	0.883045	-0.141986	-0.094935
H240	H	1.216378	0.191347	0.238398
C241	C	0.337226	-0.393751	-0.420764
C242	C	0.670559	-0.060418	-0.087431
C243	C	1.003892	0.272915	0.245903
H244	H	0.293561	-0.392825	-0.412698
H245	H	0.626895	-0.059491	-0.079365
H246	H	0.960228	0.273842	0.253969
H247	H	0.347938	-0.441907	-0.440731
H248	H	0.681271	-0.108573	-0.107398
H249	H	1.014604	0.224760	0.225936
H250	H	0.348010	-0.350794	-0.447172
H251	H	0.681343	-0.017460	-0.113838
H252	H	1.014676	0.315873	0.219495
C253	C	0.336981	-0.367177	-0.183700
C254	C	0.670314	-0.033844	0.149633
C255	C	1.003648	0.299489	0.482966
H256	H	0.365804	-0.363404	-0.150076
H257	H	0.699137	-0.030070	0.183257
H258	H	1.032471	0.303263	0.516590
H259	H	0.311420	-0.412461	-0.178135
H260	H	0.644753	-0.079127	0.155199
H261	H	0.978087	0.254206	0.488532
H262	H	0.311486	-0.321349	-0.184590
H263	H	0.644820	0.011984	0.148743
H264	H	0.978153	0.345317	0.482076
C265	C	0.781270	-0.966825	-0.426286
C266	C	1.114603	-0.633492	-0.092953
C267	C	1.447936	-0.300158	0.240381
H268	H	0.787023	-1.021895	-0.420551
H269	H	1.120356	-0.688562	-0.087218
H270	H	1.453689	-0.355229	0.246116
H271	H	0.790408	-0.953266	-0.468396
H272	H	1.123742	-0.619933	-0.135063
H273	H	1.457075	-0.286600	0.198270
H274	H	0.739172	-0.953352	-0.417055
H275	H	1.072505	-0.620019	-0.083721
H276	H	1.405838	-0.286685	0.249612
H277	H	0.832853	-1.078828	-0.374845
H278	H	1.166186	-0.745495	-0.041512
H279	H	1.499520	-0.412161	0.291822
H280	H	0.978310	-1.078731	-0.229632
H281	H	1.311643	-0.745397	0.103701
H282	H	1.644976	-0.412064	0.437035
H283	H	0.832904	-0.288570	-1.063653
H284	H	1.166238	0.044764	-0.730320
H285	H	1.499571	0.378097	-0.396986
H286	H	0.666958	-0.288699	-0.229547
H287	H	1.000291	0.044634	0.103787
H288	H	1.333624	0.377967	0.437120
C289	C	0.821453	-0.274167	-0.935589
C290	C	1.154787	0.059166	-0.602256
C291	C	1.488120	0.392500	-0.268922
H292	H	0.797593	-0.244070	-0.964433
H293	H	1.130926	0.089264	-0.631100
H294	H	1.464260	0.422597	-0.297767
H295	H	0.845422	-0.239723	-0.910081
H296	H	1.178756	0.093611	-0.576748
H297	H	1.512089	0.426944	-0.243414
H298	H	0.794145	-0.304433	-0.910044
H299	H	1.127478	0.028900	-0.576711
H300	H	1.460811	0.362233	-0.243377
H301	H	0.465053	-0.369017	-0.199778
H302	H	0.798386	-0.035684	0.133555
H303	H	1.131719	0.297649	0.466889
C304	C	0.821274	-0.669623	-0.386250
C305	C	1.154608	-0.336290	-0.052917
C306	C	1.487941	-0.002957	0.280417
H307	H	0.797408	-0.706045	-0.410085
H308	H	1.130742	-0.372712	-0.076751
H309	H	1.464075	-0.039378	0.256582
H310	H	0.845218	-0.637371	-0.413575
H311	H	1.178552	-0.304038	-0.080242
H312	H	1.511885	0.029295	0.253091
H313	H	0.793973	-0.637474	-0.362243
H314	H	1.127306	-0.304140	-0.028909
H315	H	1.460639	0.029193	0.304424
H316	H	1.018362	-0.954882	-0.189600
H317	H	1.351695	-0.621549	0.143733
H318	H	1.685029	-0.288216	0.477067
H319	H	0.978242	-0.471954	-1.063736
H320	H	1.311575	-0.138621	-0.730402
H321	H	1.644909	0.194712	-0.397069
C322	C	0.787023	-0.367289	-0.733730
C323	C	1.120356	-0.033956	-0.400397
C324	C	1.453690	0.299377	-0.067064
H325	H	0.753403	-0.363586	-0.762561
H326	H	1.086736	-0.030253	-0.429228
H327	H	1.420069	0.303081	-0.095895
H328	H	0.787848	-0.321481	-0.708207
H329	H	1.121181	0.011852	-0.374874
H330	H	1.454515	0.345185	-0.041541
H331	H	0.781505	-0.412607	-0.708198
H332	H	1.114839	-0.079274	-0.374865
H333	H	1.448172	0.254059	-0.041532
C334	C	0.781223	-0.793470	-0.426282
C335	C	1.114556	-0.460137	-0.092948
C336	C	1.447890	-0.126803	0.240385
H337	H	0.757354	-0.829885	-0.450120
H338	H	1.090688	-0.496552	-0.116787
H339	H	1.424021	-0.163218	0.216546
H340	H	0.805170	-0.761217	-0.453604
H341	H	1.138503	-0.427884	-0.120270
H342	H	1.471836	-0.094550	0.213063
H343	H	0.753923	-0.761320	-0.402272
H344	H	1.087256	-0.427987	-0.068939
H345	H	1.420589	-0.094653	0.264395
C346	C	1.029771	-0.793313	-0.178140
C347	C	1.363104	-0.459980	0.155193
C348	C	1.696437	-0.126647	0.488526
H349	H	1.024009	-0.738242	-0.183861
H350	H	1.357342	-0.404909	0.149472
H351	H	1.690675	-0.071576	0.482805
H352	H	1.071871	-0.806778	-0.187351
H353	H	1.405204	-0.473445	0.145982
H354	H	1.738538	-0.140112	0.479315
H355	H	1.020610	-0.806885	-0.136034
H356	H	1.353944	-0.473551	0.197300
H357	H	1.687277	-0.140218	0.530633
H358	H	0.978200	-0.681319	-0.229599
H359	H	1.311533	-0.347986	0.103734
H360	H	1.644866	-0.014652	0.437068
H361	H	0.832895	-0.288698	-0.541310
H362	H	1.166228	0.044635	-0.207976
H363	H	1.499561	0.377968	0.125357
C364	C	0.676349	-0.486847	-0.386113
C365	C	1.009682	-0.153513	-0.052779
C366	C	1.343015	0.179820	0.280554
H367	H	0.647497	-0.516980	-0.409948
H368	H	0.980830	-0.183647	-0.076615
H369	H	1.314164	0.149686	0.256718
H370	H	0.701829	-0.521253	-0.362094
H371	H	1.035162	-0.187920	-0.028760
H372	H	1.368496	0.145414	0.304573
H373	H	0.701920	-0.456654	-0.413448
H374	H	1.035254	-0.123321	-0.080115
H375	H	1.368587	0.210012	0.253219
C376	C	0.821462	-0.274224	-0.669365
C377	C	1.154796	0.059110	-0.336031
C378	C	1.488129	0.392443	-0.002698
H379	H	0.827200	-0.281455	-0.713023
H380	H	1.160534	0.051879	-0.379690
H381	H	1.493867	0.385212	-0.046357
H382	H	0.830655	-0.221118	-0.658653
H383	H	1.163988	0.112215	-0.325320
H384	H	1.497321	0.445549	0.008013
H385	H	0.779355	-0.285802	-0.658614
H386	H	1.112689	0.047531	-0.325281
H387	H	1.446022	0.380865	0.008052
C388	C	0.787023	-0.367271	-0.871138
C389	C	1.120357	-0.033937	-0.537805
C390	C	1.453690	0.299396	-0.204472
H391	H	0.795107	-0.368165	-0.914800
H392	H	1.128440	-0.034832	-0.581467
H393	H	1.461774	0.298502	-0.248133
H394	H	0.766993	-0.319164	-0.860415
H395	H	1.100326	0.014169	-0.527082
H396	H	1.433659	0.347503	-0.193748
H397	H	0.760664	-0.410291	-0.860381
H398	H	1.093998	-0.076958	-0.527048
H399	H	1.427331	0.256375	-0.193714
H400	H	1.007986	-0.391619	-0.743237
H401	H	1.341319	-0.058286	-0.409904
H402	H	1.674652	0.275047	-0.076570
H403	H	0.548244	-0.288682	-0.229588
H404	H	0.881578	0.044652	0.103745
H405	H	1.214911	0.377985	0.437078
C406	C	0.989684	-0.486425	-0.935680
C407	C	1.323017	-0.153092	-0.602347
C408	C	1.656350	0.180242	-0.269014
H409	H	1.013543	-0.516511	-0.964550
H410	H	1.346876	-0.183178	-0.631217
H411	H	1.680210	0.150155	-0.297883
H412	H	0.965706	-0.520879	-0.910131
H413	H	1.299039	-0.187545	-0.576798
H414	H	1.632373	0.145788	-0.243465
H415	H	1.016994	-0.456181	-0.910180
H416	H	1.350327	-0.122847	-0.576847
H417	H	1.683660	0.210486	-0.243514
C418	C	1.024113	-0.393372	-0.871306
C419	C	1.357447	-0.060038	-0.537973
C420	C	1.690780	0.273295	-0.204640
H421	H	1.016033	-0.392460	-0.914957
H422	H	1.349366	-0.059126	-0.581623
H423	H	1.682700	0.274207	-0.248290
H424	H	1.044127	-0.441492	-0.860591
H425	H	1.377460	-0.108159	-0.527258
H426	H	1.710793	0.225174	-0.193925
H427	H	1.050486	-0.350368	-0.860606
H428	H	1.383820	-0.017035	-0.527272
H429	H	1.717153	0.316298	-0.193939
H430	H	0.978224	-0.472064	-0.660099
H431	H	1.311557	-0.138730	-0.326765
H432	H	1.644891	0.194603	0.006568
C433	C	0.474637	-0.393794	-0.420709
C434	C	0.807970	-0.060461	-0.087376
C435	C	1.141303	0.272872	0.245958
H436	H	0.518284	-0.392905	-0.412607
H437	H	0.851617	-0.059572	-0.079274
H438	H	1.184950	0.273761	0.254060
H439	H	0.463972	-0.350839	-0.447129
H440	H	0.797306	-0.017506	-0.113796
H441	H	1.130639	0.315827	0.219538
H442	H	0.463905	-0.441952	-0.440680
H443	H	0.797238	-0.108618	-0.107347
H444	H	1.130572	0.224715	0.225987
C445	C	0.272713	-0.486745	-0.386259
C446	C	0.606047	-0.153412	-0.052926
C447	C	0.939380	0.179921	0.280408
H448	H	0.243863	-0.516876	-0.410098
H449	H	0.577196	-0.183543	-0.076764
H450	H	0.910529	0.149790	0.256569
H451	H	0.298190	-0.521154	-0.362238
H452	H	0.631523	-0.187821	-0.028904
H453	H	0.964857	0.145513	0.304429
H454	H	0.298289	-0.456554	-0.413591
H455	H	0.631622	-0.123221	-0.080258
H456	H	0.964955	0.210113	0.253076
C457	C	0.135305	-0.486719	-0.386299
C458	C	0.468638	-0.153386	-0.052966
C459	C	0.801972	0.179948	0.280368
H460	H	0.164169	-0.516884	-0.410102
H461	H	0.497502	-0.183550	-0.076769
H462	H	0.830835	0.149783	0.256564
H463	H	0.109825	-0.456536	-0.413654
H464	H	0.443158	-0.123203	-0.080321
H465	H	0.776491	0.210130	0.253012
H466	H	0.109735	-0.521108	-0.362279
H467	H	0.443068	-0.187775	-0.028946
H468	H	0.776401	0.145558	0.304388
C469	C	0.272669	-0.274154	-0.218256
C470	C	0.606002	0.059180	0.115078
C471	C	0.939335	0.392513	0.448411
H472	H	0.316326	-0.281408	-0.223973
H473	H	0.649660	0.051925	0.109360
H474	H	0.982993	0.385259	0.442694
H475	H	0.261892	-0.285647	-0.176146
H476	H	0.595226	0.047687	0.157188
H477	H	0.928559	0.381020	0.490521
H478	H	0.261989	-0.221055	-0.227506
H479	H	0.595323	0.112278	0.105828
H480	H	0.928656	0.445611	0.439161
C481	C	0.989664	-0.486546	-0.532040
C482	C	1.322997	-0.153212	-0.198707
C483	C	1.656330	0.180121	0.134626
H484	H	1.013522	-0.516635	-0.560909
H485	H	1.346855	-0.183302	-0.227576
H486	H	1.680188	0.150032	0.105757
H487	H	0.965685	-0.520996	-0.506490
H488	H	1.299018	-0.187663	-0.173157
H489	H	1.632351	0.145670	0.160177
H490	H	1.016976	-0.456302	-0.506541
H491	H	1.350309	-0.122969	-0.173208
H492	H	1.683642	0.210365	0.160126
