data_functionalizedCrystal
_audit_creation_method	'MofGen! by Chris Wilmer'
_symmetry_space_group_name_H-M	'P1'
_symmetry_Int_Tables_number	1
_symmetry_cell_setting	triclinic
loop_
_symmetry_equiv_pos_as_xyz
  x,y,z
_cell_length_a	12.811438
_cell_length_b	12.837942
_cell_length_c	11.295483
_cell_angle_alpha	85.469583
_cell_angle_beta	99.539201
_cell_angle_gamma	89.411773
loop_
_atom_site_label
_atom_site_type_symbol
_atom_site_fract_x
_atom_site_fract_y
_atom_site_fract_z
O1	O	-1.422915	-0.121946	-0.252675
O2	O	-0.922915	0.378054	0.247325
O3	O	-1.116720	-0.139455	-0.219614
O4	O	-0.616720	0.360545	0.280386
O5	O	-1.263028	0.020180	-0.235404
O6	O	-0.763028	0.520180	0.264596
O7	O	-1.276608	-0.281580	-0.236885
O8	O	-0.776608	0.218420	0.263115
O9	O	-1.250175	0.006180	-0.035966
O10	O	-0.750175	0.506180	0.464034
O11	O	-1.103868	-0.153455	-0.020176
O12	O	-0.603868	0.346545	0.479824
O13	O	-1.410062	-0.135945	-0.053237
O14	O	-0.910062	0.364055	0.446763
Cu15	Cu	-1.255791	-0.145978	-0.018496
Cu16	Cu	-0.755791	0.354022	0.481504
Cu17	Cu	-1.270991	-0.129422	-0.254355
Cu18	Cu	-0.770991	0.370578	0.245645
O19	O	-1.263755	-0.295580	-0.037447
O20	O	-0.763755	0.204420	0.462553
C21	C	-1.070830	-0.145903	-0.115634
C22	C	-0.570830	0.354097	0.384366
C23	C	-0.953240	-0.144245	-0.102937
C24	C	-0.453240	0.355755	0.397063
C25	C	-1.455952	-0.129497	-0.157220
C26	C	-0.955952	0.370503	0.342780
C27	C	-1.573543	-0.131154	-0.169925
C28	C	-1.073543	0.368846	0.330075
C29	C	-0.780496	-0.149540	0.023666
C30	C	-0.280496	0.350460	0.523666
C31	C	-0.890983	-0.151099	0.011742
C32	C	-0.390983	0.348901	0.511742
C33	C	-0.905004	-0.135836	-0.205698
C34	C	-0.405004	0.364164	0.294302
C35	C	-0.794517	-0.134278	-0.193773
C36	C	-0.294517	0.365722	0.306227
C37	C	-0.732267	-0.141129	-0.079087
C38	C	-0.232267	0.358871	0.420913
C39	C	-0.621779	-0.139563	-0.067164
C40	C	-0.121779	0.360437	0.432836
C41	C	-0.635802	-0.124308	-0.284602
C42	C	-0.135802	0.375692	0.215398
C43	C	-0.746288	-0.125867	-0.296526
C44	C	-0.246288	0.374133	0.203474
C45	C	-1.252014	0.051785	-0.135190
C46	C	-0.752014	0.551785	0.364810
C47	C	-1.238333	0.166817	-0.133715
C48	C	-0.738333	0.666817	0.366285
N49	N	-1.245108	-0.157622	0.147393
N50	N	-0.745108	0.342378	0.647393
C51	C	-1.274769	-0.327185	-0.137663
C52	C	-0.774769	0.172815	0.362337
C53	C	-1.288450	-0.442217	-0.139146
C54	C	-0.788450	0.057783	0.360854
C55	C	-1.402808	0.408320	-0.151499
C56	C	-0.902808	0.908320	0.348501
C57	C	-1.389958	0.516403	-0.150114
C58	C	-0.889958	1.016403	0.349886
C59	C	-1.199785	0.491071	-0.129567
C60	C	-0.699785	0.991071	0.370433
C61	C	-1.212635	0.382987	-0.130953
C62	C	-0.712635	0.882987	0.369047
C63	C	-1.314149	0.341616	-0.141917
C64	C	-0.814149	0.841616	0.358083
C65	C	-1.326998	0.233530	-0.143294
C66	C	-0.826998	0.733530	0.356706
C67	C	-1.136826	0.208200	-0.122756
C68	C	-0.636826	0.708200	0.377244
C69	C	-1.123977	0.316284	-0.121371
C70	C	-0.623977	0.816284	0.378629
N71	N	-1.281682	-0.117770	-0.420245
N72	N	-0.781682	0.382230	0.079755
C73	C	-1.358578	-0.033892	0.384436
C74	C	-0.858578	0.466108	0.884436
C75	C	-1.350513	-0.042699	0.509970
C76	C	-0.850513	0.457301	1.009970
C77	C	-1.220908	-0.184037	0.523998
C78	C	-0.720908	0.315963	1.023998
C79	C	-1.228973	-0.175230	0.398464
C80	C	-0.728973	0.324770	0.898464
C81	C	-1.297812	-0.100156	0.328687
C82	C	-0.797812	0.399844	0.828687
C83	C	-1.305882	-0.091355	0.203150
C84	C	-0.805882	0.408645	0.703150
C85	C	-1.176272	-0.232688	0.217181
C86	C	-0.676272	0.267312	0.717181
C87	C	-1.168207	-0.241494	0.342715
C88	C	-0.668207	0.258506	0.842715
H89	H	-0.729811	-0.155125	0.117048
H90	H	-0.229811	0.344875	0.617048
H91	H	-1.041326	0.349984	-0.112449
H92	H	-0.541326	0.849984	0.387551
H93	H	-1.112157	-0.302616	0.399542
H94	H	-0.612157	0.197384	0.899542
C95	C	-1.109439	-0.305593	0.155853
C96	C	-0.609439	0.194407	0.655853
H97	H	-1.124100	-0.289599	0.071096
H98	H	-0.624100	0.210401	0.571096
H99	H	-1.126583	-0.376160	0.174440
H100	H	-0.626583	0.123840	0.674440
H101	H	-1.036402	-0.295984	0.184177
H102	H	-0.536402	0.204016	0.684177
C103	C	-0.973490	-0.128297	-0.331837
C104	C	-0.473490	0.371703	0.168163
H105	H	-1.046198	-0.130424	-0.324217
H106	H	-0.546198	0.369576	0.175783
H107	H	-0.956290	-0.185320	-0.374352
H108	H	-0.456290	0.314680	0.125648
H109	H	-0.960244	-0.064476	-0.374757
H110	H	-0.460244	0.435524	0.125243
H111	H	-1.414637	0.027229	0.327622
H112	H	-0.914637	0.527229	0.827622
C113	C	-0.814768	-0.118325	-0.422670
C114	C	-0.314768	0.381675	0.077330
H115	H	-0.887478	-0.120450	-0.415057
H116	H	-0.387478	0.379550	0.084943
H117	H	-0.797567	-0.175347	-0.465184
H118	H	-0.297567	0.324653	0.034816
H119	H	-0.801517	-0.054504	-0.465586
H120	H	-0.301517	0.445496	0.034414
C121	C	-0.553306	-0.147105	0.058983
C122	C	-0.053306	0.352895	0.558983
H123	H	-0.597857	-0.152349	0.118470
H124	H	-0.097857	0.347651	0.618470
H125	H	-0.511887	-0.086398	0.067952
H126	H	-0.011887	0.413602	0.567952
H127	H	-0.507941	-0.207241	0.068359
H128	H	-0.007941	0.292759	0.568359
H129	H	-0.930246	-0.157951	0.095414
H130	H	-0.430246	0.342049	0.595414
C131	C	-1.487479	0.589779	-0.160655
C132	C	-0.987479	1.089779	0.339345
H133	H	-1.465291	0.660077	-0.158271
H134	H	-0.965291	1.160077	0.341729
H135	H	-1.524180	0.572394	-0.095559
H136	H	-1.024180	1.072394	0.404441
H137	H	-1.533127	0.582146	-0.234663
H138	H	-1.033127	1.082146	0.265337
H139	H	-0.596523	-0.117462	-0.368271
H140	H	-0.096523	0.382538	0.131729
H141	H	-1.409655	0.199847	-0.152217
H142	H	-0.909655	0.699847	0.347783
H143	H	-1.485464	0.374634	-0.160415
H144	H	-0.985464	0.874634	0.339585
H145	H	-1.117138	0.524776	-0.120653
H146	H	-0.617138	1.024776	0.379347
H147	H	-1.064633	0.153876	-0.114945
H148	H	-0.564633	0.653876	0.385055
C149	C	-1.381595	-0.008775	0.126398
C150	C	-0.881595	0.491225	0.626398
H151	H	-1.416621	0.029435	0.177585
H152	H	-0.916621	0.529435	0.677585
H153	H	-1.432520	-0.042488	0.072254
H154	H	-0.932520	0.457512	0.572254
H155	H	-1.342344	0.037693	0.082019
H156	H	-0.842344	0.537693	0.582019
H157	H	-1.399994	0.011261	0.555357
H158	H	-0.899994	0.511261	1.055357
H159	H	-1.164854	-0.245153	0.580827
H160	H	-0.664854	0.254847	1.080827
