data_functionalizedCrystal
_audit_creation_method	'MofGen! by Chris Wilmer'
_symmetry_space_group_name_H-M	'P1'
_symmetry_Int_Tables_number	1
_symmetry_cell_setting	triclinic
loop_
_symmetry_equiv_pos_as_xyz
  x,y,z
_cell_length_a	6.817900
_cell_length_b	11.353959
_cell_length_c	19.453114
_cell_angle_alpha	106.015338
_cell_angle_beta	101.709288
_cell_angle_gamma	107.526623
loop_
_atom_site_label
_atom_site_type_symbol
_atom_site_fract_x
_atom_site_fract_y
_atom_site_fract_z
V1	V	-4.045505	-0.182404	-0.241307
O2	O	-3.993180	0.007363	-0.213930
O3	O	-4.034865	-0.360329	-0.261569
O4	O	-3.987955	-0.180214	-0.336552
O5	O	-4.040415	-0.173999	-0.138428
V6	V	-4.525425	-0.159633	-0.226340
O7	O	-4.314665	-0.232355	-0.274138
O8	O	-4.706462	-0.109683	-0.193508
O9	O	-4.312859	0.018291	-0.206078
O10	O	-4.695147	-0.349401	-0.253717
O11	O	-4.647912	-0.168039	-0.329219
O12	O	-4.359769	-0.161824	-0.131095
C13	C	-3.889348	-0.403684	-0.263417
C14	C	-3.961874	-0.549143	-0.280618
C15	C	-3.957676	-0.595856	-0.224940
C16	C	-4.032635	-0.746196	-0.242718
C17	C	-3.829508	-0.173927	-0.359064
C18	C	-3.863988	-0.173314	-0.437071
C19	C	-4.063363	-0.179593	-0.478096
C20	C	-4.095761	-0.179017	-0.551392
C21	C	-3.928787	-0.172187	-0.583666
C22	C	-3.729380	-0.165899	-0.542630
C23	C	-3.696981	-0.166462	-0.469332
N24	N	-3.883709	-0.241290	-0.710906
N25	N	-3.914501	-0.240758	-0.780537
C26	C	-4.026392	-0.170486	-0.804506
N27	N	-4.106367	-0.100784	-0.756219
N28	N	-4.075581	-0.101322	-0.686583
C29	C	-3.963898	-0.171574	-0.663144
C30	C	-4.260908	-0.176139	-0.925007
C31	C	-4.293295	-0.175554	-0.998303
C32	C	-3.926916	-0.162449	-0.989542
C33	C	-3.894528	-0.163021	-0.916245
C34	C	-4.061535	-0.169872	-0.883983
C35	C	-4.121719	0.061639	-0.204229
C36	C	-4.028431	0.207098	-0.187032
C37	C	-4.181559	-0.168114	-0.108580
C38	C	-4.126316	-0.168722	-0.030571
H39	H	-4.199354	-0.185167	-0.451833
H40	H	-4.020970	-0.620452	-0.341447
H41	H	-3.732184	-0.157921	-0.882844
H42	H	-4.258125	-0.184137	-0.584803
C43	C	-3.545664	-0.158303	-0.578115
N44	N	-3.407265	-0.152547	-0.604835
C45	C	-3.743253	-0.154963	-1.025044
N46	N	-3.604919	-0.149331	-1.051789
C47	C	-3.877845	-0.499527	-0.142761
N48	N	-3.817710	-0.426972	-0.080861
C49	C	-3.477653	-0.159569	-0.424206
N50	N	-3.312455	-0.154384	-0.390217
H51	H	-4.091731	-0.817501	-0.303551
H52	H	-4.455648	-0.180658	-1.031703
C53	C	-3.948607	-0.696580	-0.104848
N54	N	-3.888481	-0.624028	-0.042948
C55	C	-4.444608	-0.183658	-0.889514
N56	N	-4.582971	-0.189319	-0.862782
