data_functionalizedCrystal
_audit_creation_method	'MofGen! by Chris Wilmer'
_symmetry_space_group_name_H-M	'P1'
_symmetry_Int_Tables_number	1
_symmetry_cell_setting	triclinic
loop_
_symmetry_equiv_pos_as_xyz
  x,y,z
_cell_length_a	12.759401
_cell_length_b	21.295417
_cell_length_c	12.759393
_cell_angle_alpha	89.962952
_cell_angle_beta	89.980198
_cell_angle_gamma	90.028788
loop_
_atom_site_label
_atom_site_type_symbol
_atom_site_fract_x
_atom_site_fract_y
_atom_site_fract_z
Zn1	Zn	1.606157	-0.250594	-0.593940
Zn2	Zn	2.106157	0.249406	-0.093940
Zn3	Zn	1.606002	-0.355876	-0.418240
Zn4	Zn	2.106002	0.144124	0.081760
Zn5	Zn	1.430456	-0.250623	-0.418279
Zn6	Zn	1.930456	0.249377	0.081721
Zn7	Zn	1.430401	-0.355828	-0.593881
Zn8	Zn	1.930401	0.144172	-0.093881
O9	O	1.518254	-0.303230	-0.506085
O10	O	2.018254	0.196770	-0.006085
O11	O	1.753157	-0.264568	-0.570642
O12	O	2.253157	0.235432	-0.070642
O13	O	1.582673	-0.341947	-0.271224
O14	O	2.082673	0.158053	0.228776
O15	O	1.453850	-0.162530	-0.441622
O16	O	1.953850	0.337470	0.058378
O17	O	1.753043	-0.341918	-0.441556
O18	O	2.253043	0.158082	0.058444
O19	O	1.582937	-0.162509	-0.570680
O20	O	2.082937	0.337491	-0.070680
O21	O	1.453700	-0.264618	-0.271253
O22	O	1.953700	0.235382	0.228747
O23	O	1.283427	-0.264571	-0.441564
O24	O	1.783427	0.235429	0.058436
O25	O	1.453758	-0.341836	-0.740910
O26	O	1.953758	0.158164	-0.240910
O27	O	1.283388	-0.341864	-0.570578
O28	O	1.783388	0.158136	-0.070578
O29	O	1.582885	-0.264521	-0.740954
O30	O	2.082885	0.235479	-0.240954
O31	O	1.582621	-0.443959	-0.441499
O32	O	2.082621	0.056041	0.058501
O33	O	1.453608	-0.443924	-0.570541
O34	O	1.953608	0.056076	-0.070541
C35	C	1.245287	-0.303216	-0.506070
C36	C	1.745287	0.196784	-0.006070
C37	C	1.128510	-0.303225	-0.506088
C38	C	1.628510	0.196775	-0.006088
C39	C	0.963971	-0.263036	-0.573414
C40	C	1.463971	0.236964	-0.073414
C41	C	1.073695	-0.263023	-0.573407
C42	C	1.573695	0.236977	-0.073407
C43	C	1.073595	-0.343445	-0.438779
C44	C	1.573595	0.156555	0.061221
C45	C	0.963873	-0.343460	-0.438792
C46	C	1.463873	0.156540	0.061208
C47	C	1.518120	-0.466782	-0.506032
C48	C	2.018120	0.033218	-0.006032
C49	C	1.518159	-0.536750	-0.506044
C50	C	2.018159	-0.036750	-0.006044
C51	C	1.585336	-0.569548	-0.573293
C52	C	2.085336	-0.069548	-0.073293
C53	C	1.585373	-0.635291	-0.573319
C54	C	2.085373	-0.135291	-0.073319
C55	C	1.518244	-0.668233	-0.506078
C56	C	2.018244	-0.168233	-0.006078
C57	C	1.451054	-0.635426	-0.438824
C58	C	1.951054	-0.135426	0.061176
C59	C	1.451011	-0.569685	-0.438808
C60	C	1.951011	-0.069685	0.061192
N61	N	1.510303	-0.771501	-0.414131
N62	N	2.010303	-0.271501	0.085869
N63	N	1.510350	-0.833952	-0.414150
N64	N	2.010350	-0.333952	0.085850
C65	C	1.518367	-0.866307	-0.506125
C66	C	2.018367	-0.366307	-0.006125
N67	N	1.526356	-0.833852	-0.598083
N68	N	2.026356	-0.333852	-0.098083
N69	N	1.526315	-0.771394	-0.598063
N70	N	2.026315	-0.271394	-0.098063
C71	C	1.518282	-0.739518	-0.506088
C72	C	2.018282	-0.239518	-0.006088
C73	C	1.585588	-0.970391	-0.573407
C74	C	2.085588	-0.470391	-0.073407
C75	C	1.585617	-1.036135	-0.573435
C76	C	2.085617	-0.536135	-0.073435
C77	C	1.451304	-1.036269	-0.438931
C78	C	1.951304	-0.536269	0.061069
C79	C	1.451268	-0.970526	-0.438913
C80	C	1.951268	-0.470526	0.061087
C81	C	1.518416	-0.937591	-0.506149
C82	C	2.018416	-0.437591	-0.006149
C83	C	1.792287	-0.303245	-0.506101
C84	C	2.292287	0.196755	-0.006101
C85	C	1.909064	-0.303252	-0.506108
C86	C	2.409064	0.196748	-0.006108
C87	C	1.518333	-0.303170	-0.780119
C88	C	2.018333	0.196830	-0.280119
C89	C	1.518366	-0.303144	-0.896895
C90	C	2.018366	0.196856	-0.396895
C91	C	1.518417	-0.139040	-0.506162
C92	C	2.018417	0.360960	-0.006162
C93	C	1.518486	-0.069072	-0.506194
C94	C	2.018486	0.430928	-0.006194
C95	C	1.585607	-0.262880	-0.951782
C96	C	2.085607	0.237120	-0.451782
C97	C	1.585625	-0.262853	-1.061506
C98	C	2.085625	0.237147	-0.561506
C99	C	1.451157	-0.343359	-1.061448
C100	C	1.951157	0.156641	-0.561448
C101	C	1.451135	-0.343383	-0.951726
C102	C	1.951135	0.156617	-0.451726
C103	C	1.518236	-0.303245	-0.233118
C104	C	2.018236	0.196755	0.266882
C105	C	1.518406	-0.303093	-0.116342
C106	C	2.018406	0.196907	0.383658
H107	H	0.919348	-0.230295	-0.628227
H108	H	1.419348	0.269705	-0.128227
O109	O	1.378654	-0.386762	-1.120590
O110	O	1.878654	0.113238	-0.620590
H111	H	1.296205	-0.375958	-1.099529
H112	H	1.796205	0.124042	-0.599529
O113	O	1.132920	-0.219641	-0.645990
O114	O	1.632920	0.280359	-0.145990
H115	H	1.076370	-0.191681	-0.692790
H116	H	1.576370	0.308319	-0.192790
O117	O	1.132709	-0.386804	-0.366161
O118	O	1.632709	0.113196	0.133839
H119	H	1.218231	-0.380031	-0.377448
H120	H	1.718231	0.119969	0.122552
O121	O	1.657839	-0.670679	-0.645845
O122	O	2.157839	-0.170679	-0.145845
H123	H	1.704528	-0.636732	-0.692589
H124	H	2.204528	-0.136732	-0.192589
H125	H	0.919167	-0.376213	-0.383983
H126	H	1.419167	0.123787	0.116017
O127	O	1.378577	-0.386794	-0.892514
O128	O	1.878577	0.113206	-0.392514
H129	H	1.331831	-0.414771	-0.949072
H130	H	1.831831	0.085229	-0.449072
H131	H	1.640260	-0.943574	-0.628159
H132	H	2.140260	-0.443574	-0.128159
O133	O	1.657774	-0.534024	-0.645790
O134	O	2.157774	-0.034024	-0.145790
H135	H	1.704497	-0.567880	-0.692554
H136	H	2.204497	-0.067880	-0.192554
H137	H	1.640378	-0.230065	-1.106190
H138	H	2.140378	0.269935	-0.606190
H139	H	1.396395	-0.662251	-0.384079
H140	H	1.896395	-0.162251	0.115921
H141	H	1.396306	-0.542980	-0.384045
H142	H	1.896306	-0.042980	0.115955
H143	H	1.640321	-1.062838	-0.628201
H144	H	2.140321	-0.562838	-0.128201
H145	H	1.396639	-1.063089	-0.384189
H146	H	1.896639	-0.563089	0.115811
O147	O	1.378833	-0.935144	-0.366361
O148	O	1.878833	-0.435144	0.133639
H149	H	1.332168	-0.969093	-0.319597
H150	H	1.832168	-0.469093	0.180403
H151	H	1.640348	-0.230113	-0.907142
H152	H	2.140348	0.269887	-0.407142
