data_functionalizedCrystal
_audit_creation_method	'MofGen! by Chris Wilmer'
_symmetry_space_group_name_H-M	'P1'
_symmetry_Int_Tables_number	1
_symmetry_cell_setting	triclinic
loop_
_symmetry_equiv_pos_as_xyz
  x,y,z
_cell_length_a	16.959455
_cell_length_b	12.645330
_cell_length_c	16.959447
_cell_angle_alpha	89.971796
_cell_angle_beta	89.979626
_cell_angle_gamma	90.009666
loop_
_atom_site_label
_atom_site_type_symbol
_atom_site_fract_x
_atom_site_fract_y
_atom_site_fract_z
Zn1	Zn	1.208425	-0.422103	-0.447048
Zn2	Zn	1.208364	-0.599394	-0.314874
Zn3	Zn	1.076253	-0.422136	-0.314871
Zn4	Zn	1.076235	-0.599315	-0.446999
O5	O	1.142319	-0.510737	-0.380948
O6	O	1.319028	-0.445640	-0.429537
O7	O	1.190822	-0.575928	-0.204263
O8	O	1.093819	-0.273784	-0.332424
O9	O	1.318983	-0.575895	-0.332429
O10	O	1.190925	-0.273760	-0.429534
O11	O	1.093760	-0.445697	-0.204261
O12	O	0.965640	-0.445620	-0.332377
O13	O	1.093788	-0.575761	-0.557616
O14	O	0.965626	-0.575793	-0.429450
O15	O	1.190907	-0.445563	-0.557652
O16	O	1.190804	-0.747731	-0.332382
O17	O	1.093729	-0.747673	-0.429453
C18	C	0.936953	-0.510702	-0.380908
C19	C	0.849096	-0.510713	-0.380910
C20	C	0.477587	-0.578494	-0.330359
C21	C	0.477655	-0.443068	-0.431634
C22	C	0.560200	-0.443051	-0.431615
C23	C	0.601443	-0.510757	-0.380968
C24	C	0.560141	-0.578481	-0.330339
C25	C	0.601509	-0.375336	-0.482248
C26	C	0.684060	-0.375317	-0.482231
C27	C	0.725305	-0.443018	-0.431579
C28	C	0.683997	-0.510744	-0.380948
C29	C	0.725240	-0.578450	-0.330301
C30	C	0.683933	-0.646171	-0.279666
C31	C	0.601385	-0.646182	-0.279688
C32	C	0.807853	-0.443007	-0.431557
C33	C	0.807793	-0.578437	-0.330282
C34	C	1.142280	-0.786167	-0.380929
C35	C	1.142335	-0.903997	-0.380948
C36	C	1.203307	-1.071553	-0.319756
C37	C	1.203505	-0.948993	-0.319906
C38	C	1.164917	-0.948378	-0.464269
C39	C	1.165401	-1.070976	-0.463944
C40	C	1.058757	-1.071319	-0.359639
C41	C	1.059158	-0.948715	-0.357771
C42	C	1.348487	-0.510773	-0.380989
C43	C	1.436344	-0.510788	-0.381006
C44	C	1.142352	-0.510649	-0.587116
C45	C	1.142366	-0.510612	-0.674973
C46	C	1.142380	-0.234232	-0.380984
C47	C	1.142407	-0.116402	-0.381000
C48	C	1.091895	-0.578288	-1.046433
C49	C	1.193026	-0.442712	-1.046465
C50	C	1.193005	-0.442735	-0.963919
C51	C	1.142429	-0.510536	-0.922626
C52	C	1.091874	-0.578315	-0.963879
C53	C	1.243565	-0.374965	-0.922660
C54	C	1.243546	-0.374986	-0.840109
C55	C	1.192966	-0.442782	-0.798815
C56	C	1.142408	-0.510563	-0.840073
C57	C	1.091832	-0.578364	-0.798780
C58	C	1.041270	-0.646140	-0.840036
C59	C	1.041293	-0.646111	-0.922585
C60	C	1.192942	-0.442811	-0.716266
C61	C	1.091811	-0.578391	-0.716226
C62	C	1.142332	-0.510748	-0.175582
C63	C	1.142471	-0.510487	-0.087726
H64	H	0.567923	-0.320220	-0.523487
Cl65	Cl	1.098514	-0.903388	-0.536610
Cl66	Cl	1.259802	-1.115008	-0.491875
Cl67	Cl	0.735981	-0.290182	-0.545884
Cl68	Cl	0.977695	-0.731378	-0.788115
Cl69	Cl	1.307147	-0.289743	-0.974575
H70	H	1.225370	-0.917594	-0.482663
Cl71	Cl	1.099884	-1.116779	-0.536790
Cl72	Cl	1.299161	-0.903587	-0.341726
H73	H	1.234207	-0.387518	-1.080091
H74	H	0.567746	-0.701317	-0.238463
Cl75	Cl	0.735792	-0.731291	-0.216003
Cl76	Cl	1.027048	-1.119194	-0.267467
Cl77	Cl	1.028221	-0.663626	-0.664321
Cl78	Cl	1.032862	-0.903940	-0.263104
Cl79	Cl	0.977740	-0.731313	-0.974454
H80	H	1.284717	-0.319798	-0.806525
Cl81	Cl	0.425805	-0.357968	-0.495310
H82	H	1.011335	-0.918096	-0.399106
H83	H	0.443952	-0.633628	-0.289130
Cl84	Cl	1.256506	-0.357621	-0.664405
Cl85	Cl	1.028332	-0.663485	-1.098295
Cl86	Cl	0.859635	-0.663553	-0.266603
Cl87	Cl	0.859778	-0.357885	-0.495211
H88	H	1.189356	-1.101107	-0.257794
Cl89	Cl	1.181642	-0.902667	-0.224532
H90	H	1.264931	-1.102287	-0.333727
Cl91	Cl	0.988700	-1.116100	-0.428504
