data_functionalizedCrystal
_audit_creation_method	'MofGen! by Chris Wilmer'
_symmetry_space_group_name_H-M	'P1'
_symmetry_Int_Tables_number	1
_symmetry_cell_setting	triclinic
loop_
_symmetry_equiv_pos_as_xyz
  x,y,z
_cell_length_a	16.109301
_cell_length_b	15.500227
_cell_length_c	16.109302
_cell_angle_alpha	87.172562
_cell_angle_beta	83.461772
_cell_angle_gamma	92.840942
loop_
_atom_site_label
_atom_site_type_symbol
_atom_site_fract_x
_atom_site_fract_y
_atom_site_fract_z
O1	O	1.106998	0.071889	0.103009
O2	O	1.606998	0.571889	0.603009
O3	O	0.864937	0.071903	0.116308
O4	O	1.364937	0.571903	0.616308
O5	O	0.992616	0.071890	-0.011372
O6	O	1.492616	0.571890	0.488628
O7	O	0.979319	0.071902	0.230689
O8	O	1.479319	0.571902	0.730689
O9	O	0.984868	-0.071998	-0.003655
O10	O	1.484868	0.428002	0.496345
O11	O	0.857189	-0.071985	0.124025
O12	O	1.357189	0.428015	0.624025
O13	O	1.099250	-0.071999	0.110727
O14	O	1.599250	0.428001	0.610727
Cu15	Cu	0.977512	-0.085130	0.118081
Cu16	Cu	1.477512	0.414870	0.618081
Cu17	Cu	0.986675	0.085034	0.108954
Cu18	Cu	1.486675	0.585034	0.608954
O19	O	0.971571	-0.071986	0.238407
O20	O	1.471571	0.428014	0.738407
C21	C	0.830088	-0.000040	0.119628
C22	C	1.330088	0.499960	0.619628
C23	C	0.737793	-0.000034	0.118012
C24	C	1.237793	0.499966	0.618012
N25	N	0.971073	-0.204814	0.124500
N26	N	1.471073	0.295186	0.624500
C27	C	0.515521	-0.000041	0.190020
C28	C	1.015521	0.499959	0.690020
C29	C	0.428800	-0.000047	0.188497
C30	C	0.928800	0.499953	0.688497
C31	C	0.448673	-0.000050	0.037008
C32	C	0.948673	0.499950	0.537008
C33	C	0.535392	-0.000051	0.038533
C34	C	1.035392	0.499949	0.538533
C35	C	0.568813	-0.000042	0.115041
C36	C	1.068813	0.499958	0.615041
C37	C	0.395374	-0.000047	0.111993
C38	C	0.895374	0.499953	0.611993
C39	C	0.301347	-0.000053	0.110340
C40	C	0.801347	0.499947	0.610340
C41	C	0.662845	-0.000037	0.116695
C42	C	1.162845	0.499963	0.616695
C43	C	1.025194	-0.250096	0.070417
C44	C	1.525194	0.249904	0.570417
C45	C	1.020333	-0.340669	0.075279
C46	C	1.520333	0.159331	0.575279
C47	C	0.961353	-0.385958	0.134228
C48	C	1.461353	0.114042	0.634228
C49	C	0.907227	-0.340669	0.188313
C50	C	1.407227	0.159331	0.688313
C51	C	0.912085	-0.250099	0.183447
C52	C	1.412085	0.249901	0.683447
C53	C	0.943852	-0.659423	0.151747
C54	C	1.443852	-0.159423	0.651747
C55	C	0.938999	-0.750000	0.156611
C56	C	1.438999	-0.250000	0.656611
C57	C	1.052104	-0.749993	0.043575
C58	C	1.552104	-0.249993	0.543575
C59	C	1.056961	-0.659421	0.038717
C60	C	1.556961	-0.159421	0.538717
C61	C	1.002831	-0.614140	0.092799
C62	C	1.502831	-0.114140	0.592799
C63	C	0.956384	-0.478537	0.139202
C64	C	1.456384	0.021463	0.639202
C65	C	1.007797	-0.521562	0.087821
C66	C	1.507797	-0.021562	0.587821
C67	C	1.134099	-0.000055	0.107407
C68	C	1.634099	0.499945	0.607407
C69	C	1.226394	-0.000054	0.109022
C70	C	1.726394	0.499946	0.609022
C71	C	0.988203	-0.000053	-0.038488
C72	C	1.488203	0.499947	0.461512
C73	C	0.986588	-0.000052	-0.130783
C74	C	1.486588	0.499948	0.369217
N75	N	0.993120	0.204718	0.102528
N76	N	1.493120	0.704718	0.602528
C77	C	0.975984	-0.000041	0.265523
C78	C	1.475984	0.499959	0.765523
C79	C	0.977599	-0.000037	0.357818
C80	C	1.477599	0.499963	0.857818
C81	C	0.985557	0.078391	0.565952
C82	C	1.485557	0.578391	1.065952
C83	C	0.987084	0.078389	0.652672
C84	C	1.487084	0.578389	1.152672
C85	C	0.978632	-0.078486	0.661076
C86	C	1.478632	0.421514	1.161076
C87	C	0.977112	-0.078483	0.574357
C88	C	1.477112	0.421517	1.074357
C89	C	0.980570	-0.000042	0.526797
C90	C	1.480570	0.499958	1.026797
C91	C	0.983617	-0.000047	0.700237
C92	C	1.483617	0.499953	1.200237
C93	C	0.985272	-0.000049	0.794263
C94	C	1.485272	0.499951	1.294263
C95	C	0.978917	-0.000039	0.432765
C96	C	1.478917	0.499961	0.932765
H97	H	0.542729	-0.000040	0.252319
H98	H	1.042729	0.499960	0.752319
H99	H	0.991146	0.142257	0.684548
H100	H	1.491146	0.642257	1.184548
F101	F	0.886246	-0.611239	0.209306
F102	F	1.386246	-0.111239	0.709306
H103	H	0.578785	-0.000054	-0.022527
H104	H	1.078785	0.499946	0.477473
H105	H	1.055815	-0.484686	0.039822
H106	H	1.555815	0.015314	0.539822
F107	F	0.893616	-0.526742	0.201941
F108	F	1.393616	-0.026742	0.701941
F109	F	0.971808	-0.161966	0.532682
F110	F	1.471808	0.338034	1.032682
F111	F	0.372085	-0.000047	0.268300
F112	F	0.872085	0.499953	0.768300
F113	F	0.413096	-0.000056	-0.044413
F114	F	0.913096	0.499944	0.455587
F115	F	0.876222	-0.798194	0.219358
F116	F	1.376222	-0.298194	0.719358
F117	F	1.109707	-0.798189	-0.013981
F118	F	1.609707	-0.298189	0.486019
H119	H	1.073225	-0.213228	0.022418
H120	H	1.573225	0.286772	0.522418
F121	F	1.077933	-0.388862	0.017718
F122	F	1.577933	0.111138	0.517718
H123	H	0.975815	-0.142349	0.699809
H124	H	1.475815	0.357651	1.199809
F125	F	1.119734	-0.611222	-0.024022
F126	F	1.619734	-0.111222	0.475978
H127	H	0.859200	-0.377548	0.236309
H128	H	1.359200	0.122452	0.736309
F129	F	0.854479	-0.201907	0.241007
F130	F	1.354479	0.298093	0.741007
H131	H	0.988372	0.142262	0.527232
H132	H	1.488372	0.642262	1.027232
