data_functionalizedCrystal
_audit_creation_method	'MofGen! by Chris Wilmer'
_symmetry_space_group_name_H-M	'P1'
_symmetry_Int_Tables_number	1
_symmetry_cell_setting	triclinic
loop_
_symmetry_equiv_pos_as_xyz
  x,y,z
_cell_length_a	12.645330
_cell_length_b	12.759401
_cell_length_c	12.759393
_cell_angle_alpha	89.980387
_cell_angle_beta	89.969952
_cell_angle_gamma	90.017923
loop_
_atom_site_label
_atom_site_type_symbol
_atom_site_fract_x
_atom_site_fract_y
_atom_site_fract_z
Zn1	Zn	-0.421970	1.606234	-0.594024
Zn2	Zn	-0.599274	1.606119	-0.418349
Zn3	Zn	-0.422026	1.430536	-0.418360
Zn4	Zn	-0.599193	1.430515	-0.593987
O5	O	-0.510616	1.518351	-0.506180
O6	O	-0.445501	1.753239	-0.570731
O7	O	-0.575819	1.582788	-0.271329
O8	O	-0.273671	1.453899	-0.441682
O9	O	-0.575765	1.753155	-0.441663
O10	O	-0.273630	1.582983	-0.570742
O11	O	-0.445596	1.453788	-0.271337
O12	O	-0.445517	1.283512	-0.441646
O13	O	-0.575627	1.453864	-0.741013
O14	O	-0.575681	1.283497	-0.570678
O15	O	-0.445422	1.582964	-0.741040
O16	O	-0.747611	1.582768	-0.441627
O17	O	-0.747551	1.453753	-0.570668
C18	C	-0.510597	1.245383	-0.506160
C19	C	-0.510614	1.128607	-0.506177
C20	C	-0.578334	1.073704	-0.438879
C21	C	-0.578352	0.963980	-0.438897
C22	C	-0.442921	0.964071	-0.573513
C23	C	-0.442909	1.073793	-0.573500
C24	C	-0.656521	1.073651	-0.361157
C25	C	-0.656539	0.963927	-0.361175
C26	C	-0.786046	1.518274	-0.506165
C27	C	-0.903876	1.518337	-0.506194
C28	C	-1.071446	1.437509	-0.587623
C29	C	-0.948887	1.437095	-0.587362
C30	C	-0.948480	1.488364	-0.395472
C31	C	-1.071078	1.487871	-0.395966
C32	C	-1.070962	1.629634	-0.534588
C33	C	-0.948355	1.628952	-0.537009
C34	C	-0.234111	1.518456	-0.506217
C35	C	-0.116281	1.518501	-0.506233
C36	C	-0.510509	1.518424	-0.780213
C37	C	-0.510463	1.518456	-0.896990
C38	C	-0.510636	1.792384	-0.506200
C39	C	-0.510644	1.909161	-0.506209
C40	C	-0.442659	1.585687	-0.951868
C41	C	-0.442621	1.585712	-1.061592
C42	C	-0.578200	1.451271	-1.061550
C43	C	-0.578232	1.451242	-0.951828
C44	C	-0.364387	1.663309	-0.951893
C45	C	-0.364349	1.663334	-1.061617
C46	C	-0.510646	1.518338	-0.233212
C47	C	-0.510393	1.518510	-0.116436
H48	H	-0.634453	0.934114	-0.279846
H49	H	-0.919327	1.545485	-0.333173
H50	H	-0.386338	1.744703	-1.091397
O51	O	-0.908920	1.461854	-0.696127
H52	H	-0.977159	1.474235	-0.749386
O53	O	-1.109612	1.709519	-0.456140
H54	H	-1.082536	1.687089	-0.376498
H55	H	-1.100850	1.456090	-0.669993
H56	H	-0.738648	1.103421	-0.382804
O57	O	-0.907764	1.713097	-0.464205
H58	H	-0.940654	1.790103	-0.488158
H59	H	-0.917871	1.407972	-0.371017
H60	H	-0.734575	0.929896	-0.390189
O61	O	-1.111790	1.665857	-0.639722
H62	H	-1.164845	1.605046	-0.672941
O63	O	-0.909719	1.658918	-0.644935
H64	H	-0.859043	1.595304	-0.676506
O65	O	-0.651286	1.378777	-1.120702
H66	H	-0.734497	1.396745	-1.099625
H67	H	-1.100741	1.544302	-0.333256
H68	H	-0.633441	1.396492	-0.907151
H69	H	-0.282289	1.641544	-0.922134
O70	O	-0.369877	1.133005	-0.646098
H71	H	-0.381248	1.218511	-0.634789
O72	O	-0.403352	1.765663	-0.906795
H73	H	-0.423980	1.819953	-0.971620
O74	O	-1.112357	1.329048	-0.563060
H75	H	-1.164483	1.332576	-0.493133
O76	O	-0.261016	1.624798	-1.106722
H77	H	-0.246288	1.543372	-1.079807
O78	O	-0.369887	0.904952	-0.646113
H79	H	-0.381265	0.819431	-0.634813
O80	O	-0.617481	1.118682	-0.258813
H81	H	-0.535309	1.091785	-0.244339
O82	O	-0.910149	1.327972	-0.562452
H83	H	-0.978982	1.275292	-0.550538
O84	O	-1.109101	1.380262	-0.364158
H85	H	-1.039922	1.329064	-0.348574
