data_functionalizedCrystal
_audit_creation_method	'MofGen! by Chris Wilmer'
_symmetry_space_group_name_H-M	'P1'
_symmetry_Int_Tables_number	1
_symmetry_cell_setting	triclinic
loop_
_symmetry_equiv_pos_as_xyz
  x,y,z
_cell_length_a	10.967926
_cell_length_b	11.792241
_cell_length_c	10.065875
_cell_angle_alpha	98.849501
_cell_angle_beta	93.120479
_cell_angle_gamma	84.458031
loop_
_atom_site_label
_atom_site_type_symbol
_atom_site_fract_x
_atom_site_fract_y
_atom_site_fract_z
O1	O	1.614181	0.197973	0.266151
O2	O	1.947514	0.531306	0.599484
O3	O	2.280847	0.864640	0.932818
O4	O	1.264158	0.201215	0.183825
O5	O	1.597491	0.534548	0.517158
O6	O	1.930824	0.867881	0.850492
O7	O	1.447662	0.034735	0.226995
O8	O	1.780995	0.368068	0.560328
O9	O	2.114328	0.701402	0.893662
O10	O	1.430677	0.364453	0.222981
O11	O	1.764010	0.697786	0.556314
O12	O	2.097343	1.031119	0.889648
O13	O	1.412671	0.066614	0.445752
O14	O	1.746004	0.399947	0.779085
O15	O	2.079338	0.733280	1.112419
O16	O	1.229167	0.233093	0.402582
O17	O	1.562500	0.566427	0.735915
O18	O	1.895833	0.899760	1.069249
O19	O	1.579190	0.229852	0.484908
O20	O	1.912523	0.563185	0.818241
O21	O	2.245856	0.896518	1.151575
Zn22	Zn	1.398623	0.236534	0.478477
Zn23	Zn	1.731956	0.569867	0.811811
Zn24	Zn	2.065289	0.903201	1.145144
Zn25	Zn	1.444725	0.194532	0.190256
Zn26	Zn	1.778058	0.527866	0.523589
Zn27	Zn	2.111391	0.861199	0.856922
O28	O	1.395686	0.396331	0.441738
O29	O	1.729019	0.729665	0.775071
O30	O	2.062352	1.062998	1.108405
C31	C	1.201852	0.214509	0.282664
C32	C	1.535185	0.547843	0.615997
C33	C	1.868518	0.881176	0.949331
C34	C	1.068330	0.206616	0.251260
C35	C	1.401663	0.539949	0.584593
C36	C	1.734997	0.873282	0.917927
C37	C	0.990675	0.219610	0.350581
C38	C	1.324009	0.552944	0.683915
C39	C	1.657342	0.886277	1.017248
C40	C	0.852673	0.211452	0.318126
C41	C	1.186006	0.544785	0.651459
C42	C	1.519340	0.878119	0.984793
C43	C	1.429099	0.008344	0.336122
C44	C	1.762433	0.341678	0.669456
C45	C	2.095766	0.675011	1.002789
C46	C	1.425905	-0.117786	0.335370
C47	C	1.759239	0.215547	0.668703
C48	C	2.092572	0.548880	1.002036
C49	C	1.420036	-0.348716	0.333966
C50	C	1.753369	-0.015383	0.667300
C51	C	2.086702	0.317950	1.000633
C52	C	1.423297	-0.220210	0.334746
C53	C	1.756631	0.113123	0.668079
C54	C	2.089964	0.446457	1.001413
C55	C	1.641496	0.216557	0.386066
C56	C	1.974830	0.549890	0.719399
C57	C	2.308163	0.883223	1.052733
C58	C	1.775019	0.224449	0.417462
C59	C	2.108353	0.557782	0.750795
C60	C	2.441686	0.891116	1.084128
C61	C	1.414249	0.422722	0.332608
C62	C	1.747582	0.756055	0.665941
C63	C	2.080915	1.089388	0.999275
C64	C	1.417444	0.548851	0.333352
C65	C	1.750777	0.882184	0.666685
C66	C	2.084110	1.215518	1.000019
N67	N	1.367168	0.265199	0.675183
N68	N	1.700501	0.598532	1.008517
N69	N	2.033835	0.931865	1.341850
N70	N	1.476189	0.165859	-0.006448
N71	N	1.809522	0.499192	0.326886
N72	N	2.142855	0.832526	0.660219
C73	C	1.433773	0.204498	0.758631
C74	C	1.767106	0.537831	1.091964
C75	C	2.100440	0.871165	1.425298
C76	C	1.409574	0.226568	0.910106
C77	C	1.742907	0.559902	1.243439
C78	C	2.076241	0.893235	1.576772
H79	H	0.816996	0.194283	0.209058
H80	H	1.150329	0.527616	0.542392
H81	H	1.483662	0.860950	0.875725
H82	H	1.334626	0.294876	0.950795
H83	H	1.667960	0.628209	1.284128
H84	H	2.001293	0.961543	1.617461
C85	C	1.577459	0.073604	0.938603
C86	C	1.910793	0.406937	1.271936
C87	C	2.244126	0.740270	1.605269
H88	H	1.580459	0.070887	0.844008
H89	H	1.913792	0.404221	1.177342
H90	H	2.247126	0.737554	1.510675
H91	H	1.560139	0.000573	0.957871
H92	H	1.893472	0.333906	1.291204
H93	H	2.226806	0.667240	1.624537
H94	H	1.654276	0.092461	0.980019
H95	H	1.987609	0.425794	1.313352
H96	H	2.320943	0.759128	1.646685
H97	H	0.810696	0.241611	0.526530
H98	H	1.144029	0.574945	0.859864
H99	H	1.477363	0.908278	1.193197
H100	H	1.032646	0.189447	0.142200
H101	H	1.365980	0.522781	0.475533
H102	H	1.699313	0.856114	0.808866
C103	C	1.265933	0.357479	0.730150
C104	C	1.599267	0.690812	1.063483
C105	C	1.932600	1.024145	1.396816
H106	H	1.262956	0.360212	0.824748
H107	H	1.596289	0.693546	1.158082
H108	H	1.929622	1.026879	1.491415
H109	H	1.189105	0.338666	0.688749
H110	H	1.522439	0.671999	1.022082
H111	H	1.855772	1.005333	1.355415
H112	H	1.283300	0.430501	0.710877
H113	H	1.616634	0.763835	1.044211
H114	H	1.949967	1.097168	1.377544
H115	H	1.508707	0.136186	0.717935
H116	H	1.842041	0.469519	1.051269
H117	H	2.175374	0.802853	1.384602
H118	H	1.026360	0.236769	0.459642
H119	H	1.359693	0.570102	0.792975
H120	H	1.693027	0.903436	1.126309
