data_functionalizedCrystal
_audit_creation_method	'MofGen! by Chris Wilmer'
_symmetry_space_group_name_H-M	'P1'
_symmetry_Int_Tables_number	1
_symmetry_cell_setting	triclinic
loop_
_symmetry_equiv_pos_as_xyz
  x,y,z
_cell_length_a	14.519709
_cell_length_b	19.288865
_cell_length_c	18.366186
_cell_angle_alpha	89.992400
_cell_angle_beta	89.992822
_cell_angle_gamma	83.408196
loop_
_atom_site_label
_atom_site_type_symbol
_atom_site_fract_x
_atom_site_fract_y
_atom_site_fract_z
O1	O	0.115045	0.921767	-0.060526
O2	O	0.615045	1.421767	0.439474
O3	O	0.130564	0.719562	-0.060533
O4	O	0.630564	1.219562	0.439467
O5	O	-0.011468	0.826025	-0.060523
O6	O	0.488532	1.326025	0.439477
O7	O	0.257077	0.815303	-0.060537
O8	O	0.757077	1.315303	0.439463
O9	O	-0.011475	0.826007	0.060576
O10	O	0.488525	1.326007	0.560576
O11	O	0.130557	0.719544	0.060566
O12	O	0.630557	1.219544	0.560566
O13	O	0.115038	0.921749	0.060573
O14	O	0.615038	1.421749	0.560573
Zn15	Zn	0.122797	0.820643	0.079797
Zn16	Zn	0.622797	1.320643	0.579797
Zn17	Zn	0.122806	0.820667	-0.079757
Zn18	Zn	0.622806	1.320667	0.420243
O19	O	0.257070	0.815285	0.060563
O20	O	0.757070	1.315285	0.560563
C21	C	-0.045828	0.825517	0.000027
C22	C	0.454172	1.325517	0.500027
C23	C	-0.148200	0.824019	0.000027
C24	C	0.351800	1.324019	0.500027
C25	C	0.115541	0.947636	0.000023
C26	C	0.615541	1.447636	0.500023
C27	C	0.117040	1.024745	0.000020
C28	C	0.617040	1.524745	0.500020
C29	C	0.130061	0.693675	0.000015
C30	C	0.630061	1.193675	0.500015
C31	C	0.128562	0.616566	0.000013
C32	C	0.628562	1.116566	0.500013
C33	C	-0.523061	0.818507	0.000008
C34	C	-0.023061	1.318507	0.500008
C35	C	-0.418762	0.820037	0.000013
C36	C	0.081238	1.320037	0.500013
C37	C	-0.335633	0.821263	0.000018
C38	C	0.164367	1.321263	0.500018
C39	C	-0.231329	0.822794	0.000022
C40	C	0.268671	1.322794	0.500022
C41	C	0.291430	0.815794	0.000011
C42	C	0.791430	1.315794	0.500011
C43	C	0.393802	0.817291	0.000006
C44	C	0.893802	1.317291	0.500006
N45	N	0.122790	0.820632	0.188688
N46	N	0.622790	1.320632	0.688688
C47	C	0.033702	1.069141	0.000018
C48	C	0.533702	1.569141	0.500018
C49	C	0.035110	1.141593	0.000022
C50	C	0.535110	1.641593	0.500022
C51	C	0.119861	1.169646	0.000014
C52	C	0.619861	1.669646	0.500014
C53	C	0.203210	1.125240	0.000020
C54	C	0.703210	1.625240	0.500020
C55	C	0.201799	1.052789	0.000023
C56	C	0.701799	1.552789	0.500023
C57	C	0.186488	1.278169	-0.042420
C58	C	0.686488	1.778169	0.457580
C59	C	0.187895	1.350618	-0.042427
C60	C	0.687895	1.850618	0.457573
C61	C	0.124216	1.393107	0.000008
C62	C	0.624216	1.893107	0.500008
C63	C	0.059113	1.363139	0.042441
C64	C	0.559113	1.863139	0.542441
C65	C	0.057703	1.290688	0.042444
C66	C	0.557703	1.790688	0.542444
C67	C	0.121400	1.248205	0.000011
C68	C	0.621400	1.748205	0.500011
C69	C	0.042399	1.516065	0.000011
C70	C	0.542399	2.016065	0.500011
C71	C	0.043811	1.588518	0.000020
C72	C	0.543811	2.088518	0.500020
C73	C	0.211913	1.572163	0.000011
C74	C	0.711913	2.072163	0.500011
C75	C	0.210499	1.499711	0.000009
C76	C	0.710499	1.999711	0.500009
C77	C	0.125739	1.471667	0.000006
C78	C	0.625739	1.971667	0.500006
N79	N	0.122805	0.820684	-0.188648
N80	N	0.622805	1.320684	0.311352
C81	C	0.059929	0.867790	0.226793
C82	C	0.559929	1.367790	0.726793
C83	C	0.059925	0.867794	0.303021
C84	C	0.559925	1.367794	0.803021
C85	C	0.122797	0.820647	0.341140
C86	C	0.622797	1.320647	0.841140
C87	C	0.185663	0.773481	0.303026
C88	C	0.685663	1.273481	0.803026
C89	C	0.185659	0.773473	0.226800
C90	C	0.685659	1.273473	0.726800
C91	C	0.206826	0.811652	0.461896
C92	C	0.706826	1.311652	0.961896
C93	C	0.206831	0.811664	0.538121
C94	C	0.706831	1.311664	1.038121
C95	C	0.122809	0.820667	0.576248
C96	C	0.622809	1.320667	1.076248
C97	C	0.038778	0.829672	0.538140
C98	C	0.538778	1.329672	1.038140
C99	C	0.038775	0.829665	0.461914
C100	C	0.538775	1.329665	0.961914
C101	C	0.122808	0.820650	0.423795
C102	C	0.622808	1.320650	0.923795
C103	C	0.059938	0.867832	0.697008
C104	C	0.559938	1.367832	1.197008
C105	C	0.059933	0.867832	0.773237
C106	C	0.559933	1.367832	1.273237
C107	C	0.185679	0.773522	0.773241
C108	C	0.685679	1.273522	1.273241
C109	C	0.185677	0.773519	0.697014
C110	C	0.685677	1.273519	1.197014
C111	C	0.122807	0.820678	0.658901
C112	C	0.622807	1.320678	1.158901
H113	H	-0.035316	1.046313	0.000018
H114	H	0.464684	1.546313	0.500018
N115	N	-0.007863	0.918701	0.814343
N116	N	0.492137	1.418701	1.314343
H117	H	0.027292	0.949487	0.845957
H118	H	0.527292	1.449487	1.345957
H119	H	-0.048594	0.892068	0.845940
H120	H	0.451406	1.392068	1.345940
N121	N	0.297459	0.801948	0.579218
N122	N	0.797459	1.301948	1.079218
H123	H	0.299610	0.758961	0.610856
H124	H	0.799610	1.258961	1.110856
H125	H	0.302745	0.844174	0.610790
H126	H	0.802745	1.344174	1.110790
H127	H	0.272215	1.148085	0.000015
H128	H	0.772215	1.648085	0.500015
N129	N	-0.054779	1.189490	0.000021
N130	N	0.445221	1.689490	0.500021
H131	H	-0.108686	1.160730	0.000021
H132	H	0.391314	1.660730	0.500021
H133	H	-0.057843	1.219908	-0.044874
H134	H	0.442157	1.719908	0.455126
H135	H	0.269665	1.016641	0.000026
H136	H	0.769665	1.516641	0.500026
H137	H	0.008734	0.906197	0.334051
H138	H	0.508734	1.406197	0.834051
N139	N	0.297455	0.801942	0.420777
N140	N	0.797455	1.301942	0.920777
H141	H	0.350686	0.796246	0.456483
H142	H	0.850686	1.296246	0.956483
H143	H	0.302690	0.844141	0.389141
H144	H	0.802690	1.344141	0.889141
N145	N	-0.051849	0.839374	0.420811
N146	N	0.448151	1.339374	0.920811
H147	H	-0.105080	0.845080	0.456525
H148	H	0.394920	1.345080	0.956525
H149	H	-0.057090	0.797170	0.389196
H150	H	0.442910	1.297170	0.889196
H151	H	0.008743	0.906230	0.665976
H152	H	0.508743	1.406230	1.165976
N153	N	0.303329	1.602403	-0.000006
N154	N	0.803329	2.102403	0.499994
H155	H	0.339828	1.586215	0.044883
H156	H	0.839828	2.086215	0.544883
H157	H	0.291508	1.655033	-0.000036
H158	H	0.791508	2.155033	0.499964
H159	H	0.236868	0.735132	0.804278
H160	H	0.736868	1.235132	1.304278
H161	H	0.236868	0.735122	0.665987
H162	H	0.736868	1.235122	1.165987
N163	N	-0.051857	0.839400	0.579246
N164	N	0.448143	1.339400	1.079246
H165	H	-0.090190	0.800753	0.565993
H166	H	0.409810	1.300753	1.065993
H167	H	-0.086910	0.885952	0.565946
H168	H	0.413090	1.385952	1.065946
N169	N	0.253472	0.722626	0.344136
N170	N	0.753472	1.222626	0.844136
H171	H	0.243938	0.729787	0.398208
H172	H	0.743938	1.229787	0.898208
H173	H	0.318870	0.730723	0.330800
H174	H	0.818870	1.230723	0.830800
N175	N	-0.007880	0.918649	0.185686
N176	N	0.492120	1.418649	0.685686
H177	H	-0.047705	0.948524	0.221397
H178	H	0.452295	1.448524	0.721397
H179	H	-0.048566	0.892008	0.154073
H180	H	0.451434	1.392008	0.654073
N181	N	0.253459	0.722606	0.185696
N182	N	0.753459	1.222606	0.685696
H183	H	0.293287	0.692736	0.221408
H184	H	0.793287	1.192736	0.721408
H185	H	0.294141	0.749240	0.154057
H186	H	0.794141	1.249240	0.654057
H187	H	0.004696	1.266291	0.076997
H188	H	0.504696	1.766291	0.576997
H189	H	-0.026618	1.493230	0.000012
H190	H	0.473382	1.993230	0.500012
N191	N	-0.009581	1.408955	0.088211
N192	N	0.490419	1.908955	0.588211
H193	H	0.001190	1.459399	0.081774
H194	H	0.501190	1.959399	0.581774
H195	H	-0.001211	1.395445	0.141130
H196	H	0.498789	1.895445	0.641130
H197	H	0.278362	1.463563	0.000006
H198	H	0.778362	1.963563	0.500006
N199	N	-0.046080	1.636407	0.000029
N200	N	0.453920	2.136407	0.500029
H201	H	-0.099984	1.607644	0.000028
H202	H	0.400016	2.107644	0.500028
H203	H	-0.049152	1.666832	-0.044862
H204	H	0.450848	2.166832	0.455138
H205	H	0.240898	1.375013	-0.076985
H206	H	0.740898	1.875013	0.423015
N207	N	0.255183	1.232344	-0.088184
N208	N	0.755183	1.732344	0.411816
H209	H	0.296633	1.262320	-0.115068
H210	H	0.796633	1.762320	0.384932
H211	H	0.220669	1.205585	-0.124421
H212	H	0.720669	1.705585	0.375579
