data_functionalizedCrystal
_audit_creation_method	'MofGen! by Chris Wilmer'
_symmetry_space_group_name_H-M	'P1'
_symmetry_Int_Tables_number	1
_symmetry_cell_setting	triclinic
loop_
_symmetry_equiv_pos_as_xyz
  x,y,z
_cell_length_a	25.639239
_cell_length_b	16.120566
_cell_length_c	25.639234
_cell_angle_alpha	87.081989
_cell_angle_beta	90.024584
_cell_angle_gamma	92.865350
loop_
_atom_site_label
_atom_site_type_symbol
_atom_site_fract_x
_atom_site_fract_y
_atom_site_fract_z
Zn1	Zn	-0.248762	-1.274427	0.336140
Zn2	Zn	0.251238	-0.774427	0.836140
Zn3	Zn	-0.336186	-1.274294	0.248700
Zn4	Zn	0.163814	-0.774294	0.748700
Zn5	Zn	-0.244331	-1.135016	0.244284
Zn6	Zn	0.255669	-0.635016	0.744284
Zn7	Zn	-0.331727	-1.134940	0.331672
Zn8	Zn	0.168273	-0.634940	0.831672
O9	O	-0.290252	-1.204669	0.290199
O10	O	0.209748	-0.704669	0.790199
O11	O	-0.264079	-1.391074	0.328258
O12	O	0.235921	-0.891074	0.828258
O13	O	-0.324013	-1.255794	0.174948
O14	O	0.175987	-0.755794	0.674948
O15	O	-0.171757	-1.153597	0.256491
O16	O	0.328243	-0.653597	0.756491
O17	O	-0.328309	-1.390975	0.264016
O18	O	0.171691	-0.890975	0.764016
O19	O	-0.175012	-1.256022	0.323977
O20	O	0.324988	-0.756022	0.823977
O21	O	-0.256528	-1.153467	0.171704
O22	O	0.243472	-0.653467	0.671704
O23	O	-0.252205	-1.018342	0.252159
O24	O	0.247795	-0.518342	0.752159
O25	O	-0.320710	-1.153468	0.405431
O26	O	0.179290	-0.653468	0.905431
O27	O	-0.316414	-1.018286	0.316363
O28	O	0.183586	-0.518286	0.816363
O29	O	-0.259756	-1.255948	0.408713
O30	O	0.240244	-0.755948	0.908713
O31	O	-0.408757	-1.255720	0.259684
O32	O	0.091243	-0.755720	0.759684
O33	O	-0.405481	-1.153338	0.320644
O34	O	0.094519	-0.653338	0.820644
C35	C	-0.283345	-0.988064	0.283298
C36	C	0.216655	-0.488064	0.783298
C37	C	-0.280403	-0.895400	0.280357
C38	C	0.219597	-0.395400	0.780357
C39	C	-0.275019	-0.725741	0.274994
C40	C	0.224981	-0.225741	0.774994
C41	C	-0.305529	-0.684438	0.305408
C42	C	0.194471	-0.184438	0.805408
C43	C	-0.302534	-0.590034	0.302424
C44	C	0.197466	-0.090034	0.802424
C45	C	-0.278014	-0.820153	0.277978
C46	C	0.221986	-0.320153	0.777978
C47	C	-0.426090	-1.204529	0.290171
C48	C	0.073910	-0.704529	0.790171
C49	C	-0.484204	-1.204545	0.290178
C50	C	0.015796	-0.704545	0.790178
C51	C	-0.846269	-1.258119	0.258519
C52	C	-0.346269	-0.758119	0.758519
C53	C	-0.900874	-1.258151	0.258527
C54	C	-0.400874	-0.758151	0.758527
O55	O	-0.930553	-1.303556	0.231578
O56	O	-0.430553	-0.803556	0.731578
N57	N	-0.926495	-1.204816	0.290238
N58	N	-0.426495	-0.704816	0.790238
C59	C	-0.897508	-1.151451	0.321948
C60	C	-0.397508	-0.651451	0.821948
O61	O	-0.924315	-1.106088	0.348922
O62	O	-0.424315	-0.606088	0.848922
C63	C	-0.842904	-1.151423	0.321942
C64	C	-0.342904	-0.651423	0.821942
C65	C	-0.817286	-1.204756	0.290225
C66	C	-0.317286	-0.704756	0.790225
C67	C	-0.820650	-1.311448	0.226804
C68	C	-0.320650	-0.811448	0.726804
C69	C	-0.766049	-1.311415	0.226796
C70	C	-0.266049	-0.811415	0.726796
C71	C	-0.737066	-1.258052	0.258501
C72	C	-0.237066	-0.758052	0.758501
C73	C	-0.762684	-1.204723	0.290216
C74	C	-0.262684	-0.704723	0.790216
C75	C	-0.813919	-1.098063	0.353654
C76	C	-0.313919	-0.598063	0.853654
C77	C	-0.759311	-1.098040	0.353646
C78	C	-0.259311	-0.598040	0.853646
C79	C	-0.733692	-1.151373	0.321929
C80	C	-0.233692	-0.651373	0.821929
C81	C	-0.679100	-1.151326	0.321913
C82	C	-0.179100	-0.651326	0.821913
N83	N	-0.653478	-1.204661	0.290202
N84	N	-0.153478	-0.704661	0.790202
C85	C	-0.682461	-1.258024	0.258496
C86	C	-0.182461	-0.758024	0.758496
C87	C	-1.012181	-1.151514	0.321958
C88	C	-0.512181	-0.651514	0.821958
C89	C	-1.066784	-1.151536	0.321961
C90	C	-0.566784	-0.651536	0.821961
C91	C	-1.070146	-1.258238	0.258541
C92	C	-0.570146	-0.758238	0.758541
C93	C	-1.015542	-1.258211	0.258535
C94	C	-0.515542	-0.758211	0.758535
C95	C	-0.986560	-1.204849	0.290246
C96	C	-0.486560	-0.704849	0.790246
C97	C	-0.567794	-1.257949	0.258480
C98	C	-0.067794	-0.757949	0.758480
C99	C	-0.513187	-1.257908	0.258472
C100	C	-0.013187	-0.757908	0.758472
C101	C	-0.509830	-1.151210	0.321895
C102	C	-0.009830	-0.651210	0.821895
C103	C	-0.564432	-1.151247	0.321900
C104	C	-0.064432	-0.651247	0.821900
C105	C	-0.593413	-1.204624	0.290191
C106	C	-0.093413	-0.704624	0.790191
O107	O	-0.649387	-1.105947	0.348850
O108	O	-0.149387	-0.605947	0.848850
O109	O	-0.655648	-1.303387	0.231531
O110	O	-0.155648	-0.803387	0.731531
C111	C	-0.153884	-1.204833	0.290240
C112	C	0.346116	-0.704833	0.790240
C113	C	-0.095772	-1.204903	0.290257
C114	C	0.404228	-0.704903	0.790257
C115	C	-0.290230	-1.204715	0.426573
C116	C	0.209770	-0.704715	0.926573
C117	C	-0.290221	-1.204734	0.484688
C118	C	0.209779	-0.704734	0.984688
C119	C	-0.297187	-0.422120	0.297119
C120	C	0.202813	0.077880	0.797119
C121	C	-0.300147	-0.514785	0.300046
C122	C	0.199853	-0.014785	0.800046
C123	C	-0.290237	-1.204672	0.154357
C124	C	0.209763	-0.704672	0.654357
C125	C	-0.290104	-1.204815	0.096247
C126	C	0.209896	-0.704815	0.596247
C127	C	-0.325318	-1.258037	0.737564
C128	C	0.174682	-0.758037	1.237564
C129	C	-0.325329	-1.258029	0.682959
C130	C	0.174671	-0.758029	1.182959
O131	O	-0.355226	-1.303310	0.656152
O132	O	0.144774	-0.803310	1.156152
N133	N	-0.290196	-1.204752	0.653963
N134	N	0.209804	-0.704752	1.153963
C135	C	-0.255054	-1.151475	0.679573
C136	C	0.244946	-0.651475	1.179573
O137	O	-0.225172	-1.106158	0.649895
O138	O	0.274828	-0.606158	1.149895
C139	C	-0.255046	-1.151480	0.734177
C140	C	0.244954	-0.651480	1.234177
C141	C	-0.290178	-1.204766	0.763171
C142	C	0.209822	-0.704766	1.263171
C143	C	-0.360447	-1.311318	0.766558
C144	C	0.139553	-0.811318	1.266558
C145	C	-0.360435	-1.311328	0.821159
C146	C	0.139565	-0.811328	1.321159
C147	C	-0.325295	-1.258057	0.846766
C148	C	0.174705	-0.758057	1.346766
C149	C	-0.290166	-1.204776	0.817772
C150	C	0.209834	-0.704776	1.317772
C151	C	-0.219907	-1.098199	0.759786
C152	C	0.280093	-0.598199	1.259786
C153	C	-0.219903	-1.098208	0.814394
C154	C	0.280097	-0.598208	1.314394
C155	C	-0.255034	-1.151494	0.843388
C156	C	0.244966	-0.651494	1.343388
C157	C	-0.255015	-1.151514	0.897979
C158	C	0.244985	-0.651514	1.397979
N159	N	-0.290147	-1.204790	0.926976
N160	N	0.209853	-0.704790	1.426976
C161	C	-0.325287	-1.258062	0.901369
C162	C	0.174713	-0.758062	1.401369
C163	C	-0.255074	-1.151467	0.564902
C164	C	0.244926	-0.651467	1.064902
C165	C	-0.255078	-1.151465	0.510300
C166	C	0.244922	-0.651465	1.010300
C167	C	-0.325354	-1.258018	0.513690
C168	C	0.174646	-0.758018	1.013690
C169	C	-0.325346	-1.258023	0.568293
C170	C	0.174654	-0.758023	1.068293
C171	C	-0.290206	-1.204743	0.593899
C172	C	0.209794	-0.704743	1.093899
C173	C	-0.325260	-1.258079	1.016035
C174	C	0.174740	-0.758079	1.516035
C175	C	-0.325244	-1.258086	1.070640
C176	C	0.174756	-0.758086	1.570640
C177	C	-0.254971	-1.151530	1.067246
C178	C	0.245029	-0.651530	1.567246
C179	C	-0.254985	-1.151526	1.012645
C180	C	0.245015	-0.651526	1.512645
C181	C	-0.290134	-1.204803	0.987041
C182	C	0.209866	-0.704803	1.487041
O183	O	-0.225134	-1.106253	0.924822
O184	O	0.274866	-0.606253	1.424822
O185	O	-0.355169	-1.303364	0.931053
O186	O	0.144831	-0.803364	1.431053
H187	H	-0.333899	-0.719978	0.333688
H188	H	0.166101	-0.219978	0.833688
N189	N	-0.237453	-0.678674	0.237524
N190	N	0.262547	-0.178674	0.737524
H191	H	-0.240620	-0.616930	0.240672
H192	H	0.259380	-0.116930	0.740672
H193	H	-0.246025	-0.693813	0.200642
H194	H	0.253975	-0.193813	0.700642
N195	N	-0.485556	-1.315436	0.224263
N196	N	0.014444	-0.815436	0.724263
H197	H	-0.512206	-1.349248	0.204182
H198	H	-0.012206	-0.849248	0.704182
H199	H	-0.464092	-1.353982	0.246792
H200	H	0.035908	-0.853982	0.746792
N201	N	-0.599047	-1.315518	0.224281
N202	N	-0.099047	-0.815518	0.724281
H203	H	-0.574525	-1.349291	0.204190
H204	H	-0.074525	-0.849291	0.704190
H205	H	-0.620658	-1.281621	0.198989
H206	H	-0.120658	-0.781621	0.698989
N207	N	-0.738421	-1.368951	0.192594
N208	N	-0.238421	-0.868951	0.692594
H209	H	-0.765074	-1.402761	0.172516
H210	H	-0.265074	-0.902761	0.672516
H211	H	-0.716962	-1.407498	0.215128
H212	H	-0.216962	-0.907498	0.715128
N213	N	-0.363143	-1.315559	1.101907
N214	N	0.136857	-0.815559	1.601907
H215	H	-0.386286	-1.281652	1.123474
H216	H	0.113714	-0.781652	1.623474
H217	H	-0.343090	-1.354217	1.125771
H218	H	0.156910	-0.854217	1.625771
H219	H	-0.191287	-1.054821	0.835239
H220	H	0.308713	-0.554821	1.335239
H221	H	-0.844243	-1.354907	0.200985
H222	H	-0.344243	-0.854907	0.700985
H223	H	-0.389065	-1.354699	0.745715
H224	H	0.110935	-0.854699	1.245715
N225	N	-0.987912	-1.315736	0.224328
N226	N	-0.487912	-0.815736	0.724328
H227	H	-1.014564	-1.349541	0.204244
H228	H	-0.514564	-0.849541	0.704244
H229	H	-0.966452	-1.354288	0.246856
H230	H	-0.466452	-0.854288	0.746856
N231	N	-1.101411	-1.315796	0.224342
N232	N	-0.601411	-0.815796	0.724342
H233	H	-1.139890	-1.307718	0.229162
H234	H	-0.639890	-0.807718	0.729162
H235	H	-1.093722	-1.375325	0.234406
H236	H	-0.593722	-0.875325	0.734406
N237	N	-1.094412	-1.093999	0.356161
N238	N	-0.594412	-0.593999	0.856161
H239	H	-1.067761	-1.060190	0.376242
H240	H	-0.567761	-0.560190	0.876242
H241	H	-1.118112	-1.127918	0.381461
H242	H	-0.618112	-0.627918	0.881461
H243	H	-0.988586	-1.108053	0.347779
H244	H	-0.488586	-0.608053	0.847779
N245	N	-0.841541	-1.040535	0.387861
N246	N	-0.341541	-0.540535	0.887861
H247	H	-0.814887	-1.006733	0.407944
H248	H	-0.314887	-0.506733	0.907944
H249	H	-0.865241	-1.074456	0.413160
H250	H	-0.365241	-0.574456	0.913160
N251	N	-0.728052	-1.040487	0.387851
N252	N	-0.228052	-0.540487	0.887851
H253	H	-0.752571	-1.006709	0.407943
H254	H	-0.252571	-0.506709	0.907943
H255	H	-0.704206	-1.001909	0.365319
H256	H	-0.204206	-0.501909	0.865319
N257	N	-0.592067	-1.093717	0.356103
N258	N	-0.092067	-0.593717	0.856103
H259	H	-0.565419	-1.059905	0.376185
H260	H	-0.065419	-0.559905	0.876185
H261	H	-0.615764	-1.127645	0.381402
H262	H	-0.115764	-0.627645	0.881402
N263	N	-0.363237	-1.315494	0.599563
N264	N	0.136763	-0.815494	1.099563
H265	H	-0.385497	-1.349239	0.575051
H266	H	0.114503	-0.849239	1.075051
H267	H	-0.386350	-1.281534	0.621125
H268	H	0.113650	-0.781534	1.121125
N269	N	-0.363256	-1.315476	0.486064
N270	N	0.136744	-0.815476	0.986064
H271	H	-0.357978	-1.307292	0.447071
H272	H	0.142022	-0.807292	0.947071
H273	H	-0.400180	-1.302536	0.495239
H274	H	0.099820	-0.802536	0.995239
N275	N	-0.478565	-1.093651	0.356087
N276	N	0.021435	-0.593651	0.856087
H277	H	-0.440087	-1.101729	0.351267
H278	H	0.059913	-0.601729	0.851267
H279	H	-0.488490	-1.106597	0.393849
H280	H	0.011510	-0.606597	0.893849
N281	N	-0.217084	-1.094060	1.094874
N282	N	0.282916	-0.594060	1.594874
H283	H	-0.193931	-1.127959	1.118626
H284	H	0.306069	-0.627959	1.618626
H285	H	-0.237152	-1.055431	1.116253
H286	H	0.262848	-0.555431	1.616253
H287	H	-0.353879	-1.301467	0.995195
H288	H	0.146121	-0.801467	1.495195
N289	N	-0.398330	-1.368795	0.852427
N290	N	0.101670	-0.868795	1.352427
H291	H	-0.420592	-1.402534	0.827912
H292	H	0.079408	-0.902534	1.327912
H293	H	-0.421440	-1.334832	0.873989
H294	H	0.078560	-0.834832	1.373989
H295	H	-0.226465	-1.108084	0.486698
H296	H	0.273535	-0.608084	0.986698
N297	N	-0.217168	-1.094002	0.592518
N298	N	0.282832	-0.594002	1.092518
H299	H	-0.194915	-1.060255	0.565860
H300	H	0.305085	-0.560255	1.065860
H301	H	-0.194050	-1.127967	0.616265
H302	H	0.305950	-0.627967	1.116265
H303	H	-0.191300	-1.054806	0.736188
H304	H	0.308700	-0.554806	1.236188
N305	N	-0.217091	-1.094062	0.981369
N306	N	0.282909	-0.594062	1.481369
H307	H	-0.194827	-1.060319	1.005879
H308	H	0.305173	-0.560319	1.505879
H309	H	-0.237149	-1.055449	0.957480
H310	H	0.262851	-0.555449	1.457480
