data_functionalizedCrystal
_audit_creation_method	'MofGen! by Chris Wilmer'
_symmetry_space_group_name_H-M	'P1'
_symmetry_Int_Tables_number	1
_symmetry_cell_setting	triclinic
loop_
_symmetry_equiv_pos_as_xyz
  x,y,z
_cell_length_a	16.992694
_cell_length_b	10.489741
_cell_length_c	15.455313
_cell_angle_alpha	92.692689
_cell_angle_beta	87.142206
_cell_angle_gamma	87.603699
loop_
_atom_site_label
_atom_site_type_symbol
_atom_site_fract_x
_atom_site_fract_y
_atom_site_fract_z
O1	O	1.045321	0.265388	-0.072021
O2	O	0.817021	0.262418	-0.072047
O3	O	0.936366	0.078758	-0.072028
O4	O	0.925976	0.449049	-0.072040
O5	O	0.929541	0.089214	0.072233
O6	O	0.810196	0.272874	0.072214
O7	O	1.038496	0.275845	0.072240
Cu8	Cu	0.923723	0.275314	0.085399
Cu9	Cu	0.931794	0.262948	-0.085206
O10	O	0.919151	0.459505	0.072221
C11	C	0.784374	0.263826	0.000081
C12	C	0.697266	0.252430	0.000071
C13	C	0.647647	0.362380	0.000068
C14	C	0.565799	0.351666	0.000081
C15	C	0.533573	0.231001	0.000089
C16	C	0.583198	0.121044	0.000095
C17	C	0.665044	0.131759	0.000089
C18	C	0.289723	0.186590	0.000114
C19	C	0.207871	0.175882	0.000117
C20	C	0.190477	0.406505	0.000105
C21	C	0.272325	0.417210	0.000094
C22	C	0.321944	0.307253	0.000104
N23	N	0.449911	0.220047	0.000099
N24	N	0.405603	0.318209	0.000100
C25	C	0.932168	0.036386	0.000102
C26	C	0.929821	-0.105448	0.000100
C27	C	0.853885	-0.180195	0.000085
C28	C	0.886392	-0.264041	0.071217
C29	C	0.893138	-0.274324	-0.071013
C30	C	0.962356	-0.187422	0.071291
C31	C	0.969095	-0.197700	-0.071003
C32	C	1.001656	-0.281512	0.000146
C33	C	1.071143	0.274436	0.000111
C34	C	1.158251	0.285832	0.000115
C35	C	0.923349	0.501877	0.000090
C36	C	0.925697	0.643710	0.000086
N37	N	0.918052	0.284011	0.205394
N38	N	0.937472	0.254242	-0.205201
C39	C	0.968772	0.206019	0.250796
C40	C	0.964490	0.212608	0.341603
C41	C	0.909492	0.297199	0.387007
C42	C	0.858766	0.375195	0.341598
C43	C	0.863045	0.368597	0.250793
C44	C	0.891025	0.325640	0.658585
C45	C	0.886752	0.332234	0.749397
C46	C	0.992475	0.169646	0.749396
C47	C	0.996751	0.163062	0.658589
C48	C	0.946023	0.241053	0.613188
N49	N	0.905116	0.303939	0.479826
N50	N	0.950396	0.234305	0.520370
H51	H	0.150069	0.496026	0.000099
H52	H	0.181636	0.077618	0.000124
H53	H	0.673878	0.460638	0.000060
H54	H	0.791448	-0.135971	0.000150
H55	H	0.863844	-0.312443	-0.131155
H56	H	0.991610	-0.149433	0.131495
C57	C	1.069442	0.051274	0.332481
C58	C	1.020256	0.126897	0.391509
H59	H	1.103875	-0.001633	0.363292
H60	H	1.038203	-0.000580	0.297079
H61	H	1.099615	0.104753	0.297048
H62	H	0.990078	0.073417	0.426938
H63	H	1.051498	0.178756	0.426926
H64	H	0.841963	0.401123	0.786361
H65	H	0.298558	0.515467	0.000076
H66	H	0.705444	0.042227	0.000090
H67	H	0.851416	-0.293490	0.131347
C68	C	1.122042	-0.296743	0.074747
C69	C	1.086008	-0.340907	0.000207
H70	H	1.174114	-0.333421	0.074788
H71	H	1.123964	-0.206350	0.075220
H72	H	1.092491	-0.320528	0.124787
H73	H	1.115556	-0.317113	-0.049833
H74	H	1.084091	-0.431320	-0.000274
H75	H	0.556953	0.022797	0.000114
H76	H	1.041535	0.094182	0.621623
H77	H	1.013560	0.137142	0.213834
C78	C	0.805270	0.457511	0.480796
C79	C	0.798312	0.468182	0.391504
H80	H	0.767952	0.514928	0.511602
H81	H	0.795568	0.372552	0.495686
H82	H	0.857009	0.477840	0.495657
H83	H	0.746575	0.447844	0.376642
H84	H	0.808009	0.553160	0.376608
C85	C	0.298683	-0.042444	0.000121
C86	C	0.344257	0.065725	0.000118
H87	H	0.332355	-0.117062	0.000118
H88	H	0.264026	-0.038175	0.050425
H89	H	0.268771	-0.045461	-0.050189
H90	H	0.374165	0.068748	0.050432
H91	H	0.378928	0.061456	-0.050192
H92	H	0.525401	0.441198	0.000077
C93	C	0.979918	-0.201693	-0.226599
C94	C	1.016272	-0.157886	-0.152178
H95	H	1.009037	-0.177103	-0.276717
H96	H	0.978368	-0.292150	-0.227472
H97	H	0.927696	-0.165515	-0.226084
H98	H	1.068493	-0.194072	-0.152690
H99	H	1.017831	-0.067411	-0.151305
H100	H	1.033774	0.106148	0.786369
C101	C	0.786101	0.487023	0.667721
C102	C	0.835271	0.411378	0.608689
H103	H	0.751684	0.539962	0.636912
H104	H	0.755917	0.433569	0.703147
H105	H	0.817358	0.538857	0.703129
H106	H	0.804014	0.359537	0.573285
H107	H	0.865458	0.464839	0.573248
H108	H	0.821742	0.432106	0.213827
