data_functionalizedCrystal
_audit_creation_method	'MofGen! by Chris Wilmer'
_symmetry_space_group_name_H-M	'P1'
_symmetry_Int_Tables_number	1
_symmetry_cell_setting	triclinic
loop_
_symmetry_equiv_pos_as_xyz
  x,y,z
_cell_length_a	19.188930
_cell_length_b	19.188905
_cell_length_c	17.666332
_cell_angle_alpha	90.016479
_cell_angle_beta	90.011603
_cell_angle_gamma	83.139668
loop_
_atom_site_label
_atom_site_type_symbol
_atom_site_fract_x
_atom_site_fract_y
_atom_site_fract_z
O1	O	-0.087086	-0.926161	-0.063081
O2	O	0.412914	-0.426161	0.436919
O3	O	-0.098838	-0.722847	-0.063057
O4	O	0.401162	-0.222847	0.436943
O5	O	0.008694	-0.830371	-0.063055
O6	O	0.508694	-0.330371	0.436945
O7	O	-0.194618	-0.818637	-0.063083
O8	O	0.305382	-0.318637	0.436917
O9	O	0.008700	-0.830352	0.062842
O10	O	0.508700	-0.330352	0.562842
O11	O	-0.098832	-0.722828	0.062840
O12	O	0.401168	-0.222828	0.562840
O13	O	-0.087080	-0.926142	0.062815
O14	O	0.412920	-0.426142	0.562815
Cu15	Cu	-0.092956	-0.824483	0.074323
Cu16	Cu	0.407044	-0.324483	0.574323
Cu17	Cu	-0.092962	-0.824506	-0.074565
Cu18	Cu	0.407038	-0.324506	0.425435
O19	O	-0.194612	-0.818618	0.062814
O20	O	0.305388	-0.318618	0.562814
C21	C	0.034708	-0.829982	-0.000104
C22	C	0.534708	-0.329982	0.499896
C23	C	0.112213	-0.828841	-0.000098
C24	C	0.612213	-0.328841	0.499902
C25	C	-0.098458	-0.696826	-0.000105
C26	C	0.401542	-0.196826	0.499895
C27	C	-0.097324	-0.619321	-0.000095
C28	C	0.402676	-0.119321	0.499905
C29	C	-0.087460	-0.952163	-0.000138
C30	C	0.412540	-0.452163	0.499862
C31	C	-0.088594	-1.029668	-0.000153
C32	C	0.411406	-0.529668	0.499847
C33	C	-0.220626	-0.819007	-0.000139
C34	C	0.279374	-0.319007	0.499861
C35	C	-0.298131	-0.820148	-0.000150
C36	C	0.201869	-0.320148	0.499850
C37	C	0.157142	-0.891933	-0.000102
C38	C	0.657142	-0.391933	0.499898
C39	C	0.229966	-0.890861	-0.000114
C40	C	0.729966	-0.390861	0.499886
C41	C	0.257857	-0.826694	-0.000107
C42	C	0.757857	-0.326694	0.499893
C43	C	0.212917	-0.763594	-0.000107
C44	C	0.712917	-0.263594	0.499893
C45	C	0.140095	-0.764668	-0.000102
C46	C	0.640095	-0.264668	0.499898
N47	N	0.365859	-0.777640	0.042744
N48	N	0.865859	-0.277640	0.542744
N49	N	0.435038	-0.776624	0.042742
N50	N	0.935038	-0.276624	0.542742
C51	C	0.477265	-0.823456	-0.000122
C52	C	0.977265	-0.323456	0.499878
N53	N	0.447702	-0.871352	-0.042973
N54	N	0.947702	-0.371352	0.457027
N55	N	0.378517	-0.872369	-0.042967
N56	N	0.878517	-0.372369	0.457033
C57	C	0.336819	-0.825523	-0.000112
C58	C	0.836819	-0.325523	0.499888
C59	C	0.601159	-0.885390	-0.000140
C60	C	1.101159	-0.385390	0.499860
C61	C	0.673984	-0.884315	-0.000156
C62	C	1.173984	-0.384315	0.499844
C63	C	0.656933	-0.757047	-0.000142
C64	C	1.156933	-0.257047	0.499858
C65	C	0.584110	-0.758123	-0.000133
C66	C	1.084110	-0.258123	0.499867
C67	C	0.556228	-0.822296	-0.000128
C68	C	1.056228	-0.322296	0.499872
C69	C	-0.096782	-0.582939	-0.068723
C70	C	0.403218	-0.082939	0.431277
C71	C	-0.095709	-0.510116	-0.068732
C72	C	0.404291	-0.010116	0.431268
C73	C	-0.095164	-0.473678	-0.000110
C74	C	0.404836	0.026322	0.499890
C75	C	-0.095709	-0.510068	0.068528
C76	C	0.404291	-0.010068	0.568528
C77	C	-0.096789	-0.582889	0.068535
C78	C	0.403211	-0.082889	0.568535
N79	N	-0.053733	-0.364650	0.050966
N80	N	0.446267	0.135350	0.550966
N81	N	-0.052705	-0.295473	0.050954
N82	N	0.447295	0.204527	0.550954
C83	C	-0.091911	-0.254272	-0.000127
C84	C	0.408089	0.245728	0.499873
N85	N	-0.132174	-0.284861	-0.051208
N86	N	0.367826	0.215139	0.448792
N87	N	-0.133199	-0.354045	-0.051199
N88	N	0.366801	0.145955	0.448801
C89	C	-0.093993	-0.394716	-0.000110
C90	C	0.406007	0.105284	0.499890
C91	C	-0.090207	-0.138926	-0.068770
C92	C	0.409793	0.361074	0.431230
C93	C	-0.089138	-0.066101	-0.068777
C94	C	0.410862	0.433899	0.431223
C95	C	-0.089131	-0.066055	0.068485
C96	C	0.410869	0.433945	0.568485
C97	C	-0.090207	-0.138879	0.068490
C98	C	0.409793	0.361121	0.568490
C99	C	-0.090742	-0.175310	-0.000140
C100	C	0.409258	0.324690	0.499860
N101	N	-0.092950	-0.824473	0.179042
N102	N	0.407050	-0.324473	0.679042
N103	N	-0.092962	-0.824522	-0.179284
N104	N	0.407038	-0.324522	0.320716
C105	C	-0.045358	-0.872100	0.218653
C106	C	0.454642	-0.372100	0.718653
C107	C	-0.045355	-0.872104	0.297901
C108	C	0.454645	-0.372104	0.797901
C109	C	-0.092956	-0.824488	0.337535
C110	C	0.407044	-0.324488	0.837535
C111	C	-0.140552	-0.776852	0.297915
C112	C	0.359448	-0.276852	0.797915
C113	C	-0.140549	-0.776844	0.218668
C114	C	0.359451	-0.276844	0.718668
N115	N	-0.154764	-0.815411	0.461945
N116	N	0.345236	-0.315411	0.961945
N117	N	-0.154764	-0.815422	0.537226
N118	N	0.345236	-0.315422	1.037226
C119	C	-0.092966	-0.824506	0.576299
C120	C	0.407034	-0.324506	1.076299
N121	N	-0.031164	-0.833592	0.537247
N122	N	0.468836	-0.333592	1.037247
N123	N	-0.031165	-0.833584	0.461960
N124	N	0.468835	-0.333584	0.961960
C125	C	-0.092964	-0.824490	0.423464
C126	C	0.407036	-0.324490	0.923464
C127	C	-0.045366	-0.872140	0.701838
C128	C	0.454634	-0.372140	1.201838
C129	C	-0.045361	-0.872139	0.781087
C130	C	0.454639	-0.372139	1.281087
C131	C	-0.140564	-0.776890	0.781100
C132	C	0.359436	-0.276890	1.281100
C133	C	-0.140562	-0.776888	0.701852
C134	C	0.359438	-0.276888	1.201852
C135	C	-0.092964	-0.824516	0.662226
C136	C	0.407036	-0.324516	1.162226
H137	H	0.134445	-0.944187	-0.000101
H138	H	0.634445	-0.444187	0.499899
H139	H	-0.006598	-0.910889	0.330157
H140	H	0.493402	-0.410889	0.830157
O141	O	-0.090780	-0.178223	-0.142791
O142	O	0.409220	0.321777	0.357209
H143	H	-0.091607	-0.234976	-0.131257
H144	H	0.408393	0.265024	0.368743
O145	O	0.005987	-0.923464	0.175919
O146	O	0.505987	-0.423464	0.675919
H147	H	-0.023314	-0.957307	0.139796
H148	H	0.476686	-0.457307	0.639796
H149	H	-0.097218	-0.612597	-0.124607
H150	H	0.402782	-0.112597	0.375393
O151	O	0.535648	-0.690071	-0.000109
O152	O	1.035648	-0.190071	0.499891
H153	H	0.545528	-0.659353	-0.051414
H154	H	1.045528	-0.159353	0.448586
H155	H	-0.088691	-0.036388	0.124360
H156	H	0.411309	0.463612	0.624360
O157	O	0.687003	-0.687835	-0.000130
O158	O	1.187003	-0.187835	0.499870
H159	H	0.745190	-0.697687	-0.000129
H160	H	1.245190	-0.197687	0.499871
O161	O	0.005991	-0.923479	0.659083
O162	O	0.505991	-0.423479	1.159083
H163	H	-0.023297	-0.957326	0.622950
H164	H	0.476703	-0.457326	1.122950
O165	O	0.005977	-0.923511	0.823810
O166	O	0.505977	-0.423511	1.323810
H167	H	-0.002013	-0.915509	0.885573
H168	H	0.497987	-0.415509	1.385573
O169	O	-0.095123	-0.470768	0.142542
O170	O	0.404877	0.029232	0.642542
H171	H	-0.095687	-0.508303	0.190267
H172	H	0.404313	-0.008303	0.690267
H173	H	-0.179308	-0.738081	0.330189
H174	H	0.320692	-0.238081	0.830189
O175	O	-0.191888	-0.725479	0.175938
O176	O	0.308112	-0.225479	0.675938
H177	H	-0.224991	-0.692369	0.216808
H178	H	0.275009	-0.192369	0.716808
O179	O	0.091632	-0.696614	-0.000084
O180	O	0.591632	-0.196614	0.499916
H181	H	0.101509	-0.665897	-0.051391
H182	H	0.601509	-0.165897	0.448609
H183	H	0.578456	-0.937644	-0.000139
H184	H	1.078456	-0.437644	0.499861
O185	O	-0.095111	-0.470863	-0.142755
O186	O	0.404889	0.029137	0.357245
H187	H	-0.095657	-0.508432	-0.190475
H188	H	0.404343	-0.008432	0.309525
O189	O	0.242993	-0.694383	-0.000090
O190	O	0.742993	-0.194383	0.499910
H191	H	0.301179	-0.704235	-0.000084
H192	H	0.801179	-0.204235	0.499916
H193	H	-0.088702	-0.036479	-0.124664
H194	H	0.411298	0.463521	0.375336
O195	O	0.278440	-0.958911	-0.000108
O196	O	0.778440	-0.458911	0.499892
H197	H	0.246817	-1.003714	-0.000098
H198	H	0.746817	-0.503714	0.499902
O199	O	0.722450	-0.952367	-0.000154
O200	O	1.222450	-0.452367	0.499846
H201	H	0.690823	-0.997168	-0.000141
H202	H	1.190823	-0.497168	0.499859
O203	O	-0.097383	-0.622135	0.142558
O204	O	0.402617	-0.122135	0.642558
H205	H	-0.096826	-0.584567	0.190277
H206	H	0.403174	-0.084567	0.690277
H207	H	-0.090643	-0.168501	0.124374
H208	H	0.409357	0.331499	0.624374
O209	O	-0.191909	-0.725532	0.823835
O210	O	0.308091	-0.225532	1.323835
H211	H	-0.183919	-0.733540	0.885595
H212	H	0.316081	-0.233540	1.385595
H213	H	-0.179319	-0.738108	0.669599
H214	H	0.320681	-0.238108	1.169599
