data_functionalizedCrystal
_audit_creation_method	'MofGen! by Chris Wilmer'
_symmetry_space_group_name_H-M	'P1'
_symmetry_Int_Tables_number	1
_symmetry_cell_setting	triclinic
loop_
_symmetry_equiv_pos_as_xyz
  x,y,z
_cell_length_a	16.959455
_cell_length_b	25.639239
_cell_length_c	16.959447
_cell_angle_alpha	89.968198
_cell_angle_beta	89.982031
_cell_angle_gamma	90.035633
loop_
_atom_site_label
_atom_site_type_symbol
_atom_site_fract_x
_atom_site_fract_y
_atom_site_fract_z
Zn1	Zn	1.208310	-0.208190	-0.446894
Zn2	Zn	1.708310	0.291810	0.053106
Zn3	Zn	1.208181	-0.295628	-0.314709
Zn4	Zn	1.708181	0.204372	0.185291
Zn5	Zn	1.076130	-0.208204	-0.314731
Zn6	Zn	1.576130	0.291796	0.185269
Zn7	Zn	1.076060	-0.295591	-0.446847
Zn8	Zn	1.576060	0.204409	0.053153
O9	O	1.142170	-0.251903	-0.380795
O10	O	1.642170	0.248097	0.119205
O11	O	1.318904	-0.219798	-0.429369
O12	O	1.818904	0.280202	0.070631
O13	O	1.190640	-0.284053	-0.204101
O14	O	1.690640	0.215947	0.295899
O15	O	1.093747	-0.135037	-0.332291
O16	O	1.593747	0.364963	0.167709
O17	O	1.318809	-0.284039	-0.332253
O18	O	1.818809	0.215961	0.167747
O19	O	1.190859	-0.135026	-0.429391
O20	O	1.690859	0.364974	0.070609
O21	O	1.093622	-0.219823	-0.204117
O22	O	1.593622	0.280177	0.295883
O23	O	0.965510	-0.219787	-0.332247
O24	O	1.465510	0.280213	0.167753
O25	O	1.093628	-0.283976	-0.557464
O26	O	1.593628	0.216024	-0.057464
O27	O	0.965459	-0.283990	-0.429312
O28	O	1.465459	0.216010	0.070688
O29	O	1.190791	-0.219762	-0.557498
O30	O	1.690791	0.280238	-0.057498
O31	O	1.190572	-0.368789	-0.332208
O32	O	1.690572	0.131211	0.167792
O33	O	1.093503	-0.368761	-0.429290
O34	O	1.593503	0.131239	0.070710
C35	C	0.936804	-0.251886	-0.380777
C36	C	1.436804	0.248114	0.119223
C37	C	0.848947	-0.251891	-0.380788
C38	C	1.348947	0.248109	0.119212
C39	C	0.477474	-0.218445	-0.330359
C40	C	0.977474	0.281555	0.169641
C41	C	0.477470	-0.285404	-0.431277
C42	C	0.977470	0.214596	0.068723
C43	C	0.560015	-0.285397	-0.431272
C44	C	1.060015	0.214603	0.068728
C45	C	0.601294	-0.251914	-0.380809
C46	C	1.101294	0.248086	0.119191
C47	C	0.560028	-0.218438	-0.330351
C48	C	1.060028	0.281562	0.169649
C49	C	0.601288	-0.318875	-0.481723
C50	C	1.101288	0.181125	0.018277
C51	C	0.683839	-0.318870	-0.481720
C52	C	1.183839	0.181130	0.018280
C53	C	0.725120	-0.285384	-0.431260
C54	C	1.225120	0.214616	0.068740
C55	C	0.683848	-0.251906	-0.380801
C56	C	1.183848	0.248094	0.119199
C57	C	0.725127	-0.218423	-0.330338
C58	C	1.225127	0.281577	0.169662
C59	C	0.683857	-0.184943	-0.279882
C60	C	1.183857	0.315057	0.220118
C61	C	0.601308	-0.184952	-0.279891
C62	C	1.101308	0.315048	0.220109
C63	C	0.807668	-0.285374	-0.431251
C64	C	1.307668	0.214626	0.068749
C65	C	0.807681	-0.218416	-0.330330
C66	C	1.307681	0.281584	0.169670
C67	C	1.142037	-0.387746	-0.380759
C68	C	1.642037	0.112254	0.119241
C69	C	1.142053	-0.445860	-0.380770
C70	C	1.642053	0.054140	0.119230
C71	C	1.192846	-0.806225	-0.330331
C72	C	1.692846	-0.306225	0.169669
C73	C	1.192876	-0.860829	-0.330341
C74	C	1.692876	-0.360829	0.169659
O75	O	1.235925	-0.889067	-0.287417
O76	O	1.735925	-0.389067	0.212583
N77	N	1.142309	-0.888142	-0.380847
N78	N	1.642309	-0.388142	0.119153
C79	C	1.091714	-0.860849	-0.431352
C80	C	1.591714	-0.360849	0.068648
O81	O	1.048706	-0.889095	-0.474313
O82	O	1.548706	-0.389095	0.025687
C83	C	1.091688	-0.806245	-0.431345
C84	C	1.591688	-0.306245	0.068655
C85	C	1.142253	-0.778935	-0.380830
C86	C	1.642253	-0.278935	0.119170
C87	C	1.243407	-0.778914	-0.279820
C88	C	1.743407	-0.278914	0.220180
C89	C	1.243375	-0.724313	-0.279809
C90	C	1.743375	-0.224313	0.220191
C91	C	1.192782	-0.697024	-0.330308
C92	C	1.692782	-0.197024	0.169692
C93	C	1.142221	-0.724334	-0.380818
C94	C	1.642221	-0.224334	0.119182
C95	C	1.041097	-0.778953	-0.481853
C96	C	1.541097	-0.278953	0.018147
C97	C	1.041075	-0.724346	-0.481842
C98	C	1.541075	-0.224346	0.018158
C99	C	1.091640	-0.697035	-0.431326
C100	C	1.591640	-0.197035	0.068674
C101	C	1.091595	-0.642444	-0.431306
C102	C	1.591595	-0.142444	0.068694
N103	N	1.142163	-0.615130	-0.380800
N104	N	1.642163	-0.115130	0.119200
C105	C	1.192756	-0.642420	-0.330301
C106	C	1.692756	-0.142420	0.169699
C107	C	1.091773	-0.975519	-0.431364
C108	C	1.591773	-0.475519	0.068636
C109	C	1.091795	-1.030122	-0.431368
C110	C	1.591795	-0.530122	0.068632
C111	C	1.192959	-1.030098	-0.330358
C112	C	1.692959	-0.530098	0.169642
C113	C	1.192933	-0.975495	-0.330351
C114	C	1.692933	-0.475495	0.169649
C115	C	1.142341	-0.948206	-0.380858
C116	C	1.642341	-0.448206	0.119142
C117	C	1.192685	-0.527755	-0.330280
C118	C	1.692685	-0.027755	0.169720
C119	C	1.192646	-0.473150	-0.330271
C120	C	1.692646	0.026850	0.169729
C121	C	1.091485	-0.473178	-0.431283
C122	C	1.591485	0.026822	0.068717
C123	C	1.091521	-0.527779	-0.431290
C124	C	1.591521	-0.027779	0.068710
C125	C	1.142127	-0.555066	-0.380786
C126	C	1.642127	-0.055066	0.119214
O127	O	1.048572	-0.614171	-0.474211
O128	O	1.548572	-0.114171	0.025789
O129	O	1.235764	-0.614167	-0.287355
O130	O	1.735764	-0.114167	0.212645
C131	C	1.348338	-0.251921	-0.380814
C132	C	1.848338	0.248079	0.119186
C133	C	1.436195	-0.251929	-0.380822
C134	C	1.936195	0.248071	0.119178
C135	C	1.142216	-0.251863	-0.586963
C136	C	1.642216	0.248137	-0.086963
C137	C	1.142236	-0.251846	-0.674820
C138	C	1.642236	0.248154	-0.174820
C139	C	1.142325	-0.115530	-0.380849
C140	C	1.642325	0.384470	0.119151
C141	C	1.142391	-0.057416	-0.380872
C142	C	1.642391	0.442584	0.119128
C143	C	1.192758	-0.285279	-0.716087
C144	C	1.692758	0.214721	-0.216087
C145	C	1.091727	-0.218400	-0.716107
C146	C	1.591727	0.281600	-0.216107
C147	C	1.091741	-0.218384	-0.798653
C148	C	1.591741	0.281616	-0.298653
C149	C	1.142263	-0.251817	-0.839920
C150	C	1.642263	0.248183	-0.339920
C151	C	1.192772	-0.285266	-0.798641
C152	C	1.692772	0.214734	-0.298641
C153	C	1.041227	-0.184940	-0.839938
C154	C	1.541227	0.315060	-0.339938
C155	C	1.041238	-0.184924	-0.922489
C156	C	1.541238	0.315076	-0.422489
C157	C	1.091765	-0.218355	-0.963757
C158	C	1.591765	0.281645	-0.463757
C159	C	1.142277	-0.251804	-0.922473
C160	C	1.642277	0.248196	-0.422473
C161	C	1.192799	-0.285237	-0.963740
C162	C	1.692799	0.214763	-0.463740
C163	C	1.243315	-0.318684	-0.922458
C164	C	1.743315	0.181316	-0.422458
C165	C	1.243299	-0.318696	-0.839909
C166	C	1.743299	0.181304	-0.339909
C167	C	1.091781	-0.218343	-1.046306
C168	C	1.591781	0.281657	-0.546306
C169	C	1.192813	-0.285224	-1.046294
C170	C	1.692813	0.214776	-0.546294
C171	C	1.142170	-0.251906	-0.175429
C172	C	1.642170	0.248094	0.324571
C173	C	1.142304	-0.251776	-0.087573
C174	C	1.642304	0.248224	0.412427
H175	H	0.567699	-0.157695	-0.238812
H176	H	1.067699	0.342305	0.261188
F177	F	0.987464	-0.149335	-0.966417
F178	F	1.487464	0.350665	-0.466417
F179	F	1.037645	-0.444125	-0.485027
F180	F	1.537645	0.055875	0.014973
F181	F	0.987228	-0.695306	-0.535601
F182	F	1.487228	-0.195306	-0.035601
H183	H	0.717477	-0.157683	-0.238791
H184	H	1.217477	0.342317	0.261209
H185	H	1.050650	-0.191111	-1.079914
H186	H	1.550650	0.308889	-0.579914
H187	H	1.050349	-0.550016	-0.472426
H188	H	1.550349	-0.050016	0.027574
F189	F	1.246751	-0.946434	-0.276587
F190	F	1.746751	-0.446434	0.223413
F191	F	1.246591	-0.320806	-1.090207
F192	F	1.746591	0.179194	-0.590207
H193	H	0.443868	-0.191185	-0.289281
H194	H	0.943868	0.308815	0.210719
F195	F	0.851607	-0.182775	-0.276623
F196	F	1.351607	0.317225	0.223377
H197	H	1.284426	-0.345928	-0.806290
H198	H	1.784426	0.154072	-0.306290
H199	H	1.284448	-0.345907	-0.956068
H200	H	1.784448	0.154093	-0.456068
F201	F	0.433535	-0.321046	-0.484965
F202	F	0.933535	0.178954	0.015035
H203	H	0.999917	-0.801180	-0.522984
H204	H	1.499917	-0.301180	-0.022984
F205	F	1.246523	-0.320871	-0.672152
F206	F	1.746523	0.179129	-0.172152
F207	F	1.246804	-1.059152	-0.276611
F208	F	1.746804	-0.559152	0.223389
F209	F	0.557353	-0.354521	-0.535405
F210	F	1.057353	0.145479	-0.035405
H211	H	1.050589	-0.191183	-0.682502
H212	H	1.550589	0.308817	-0.182502
H213	H	1.000089	-0.157725	-0.806332
H214	H	1.500089	0.342275	-0.306332
H215	H	0.717435	-0.346131	-0.522805
H216	H	1.217435	0.153869	-0.022805
H217	H	1.050568	-0.953303	-0.472491
H218	H	1.550568	-0.453303	0.027509
F219	F	1.246466	-0.444087	-0.276503
F220	F	1.746466	0.055913	0.223497
F221	F	0.851588	-0.321007	-0.484941
F222	F	1.351588	0.178993	0.015059
H223	H	1.284552	-0.702080	-0.238678
H224	H	1.784552	-0.202080	0.261322
F225	F	1.297262	-0.807950	-0.226069
F226	F	1.797262	-0.307950	0.273931
F227	F	1.246545	-0.556789	-0.276528
F228	F	1.746545	-0.056789	0.223472
F229	F	1.037968	-1.059182	-0.485124
F230	F	1.537968	-0.559182	0.014876
