data_functionalizedCrystal
_audit_creation_method	'MofGen! by Chris Wilmer'
_symmetry_space_group_name_H-M	'P1'
_symmetry_Int_Tables_number	1
_symmetry_cell_setting	triclinic
loop_
_symmetry_equiv_pos_as_xyz
  x,y,z
_cell_length_a	17.699077
_cell_length_b	15.625429
_cell_length_c	16.176319
_cell_angle_alpha	71.916053
_cell_angle_beta	89.993140
_cell_angle_gamma	83.780415
loop_
_atom_site_label
_atom_site_type_symbol
_atom_site_fract_x
_atom_site_fract_y
_atom_site_fract_z
O1	O	1.004378	0.113983	-0.102900
O2	O	1.504378	0.613983	0.397100
O3	O	0.784038	0.128821	-0.107351
O4	O	1.284038	0.628821	0.392649
O5	O	0.900093	-0.009850	-0.065780
O6	O	1.400093	0.490150	0.434220
O7	O	0.888323	0.252653	-0.144471
O8	O	1.388323	0.752653	0.355529
O9	O	0.900077	-0.009859	0.071716
O10	O	1.400077	0.490141	0.571716
O11	O	0.784022	0.128812	0.030145
O12	O	1.284022	0.628812	0.530145
O13	O	1.004362	0.113974	0.034596
O14	O	1.504362	0.613974	0.534596
Cu15	Cu	0.894190	0.121392	0.044925
Cu16	Cu	1.394190	0.621392	0.544925
Cu17	Cu	0.894209	0.121402	-0.117680
Cu18	Cu	1.394209	0.621402	0.382320
O19	O	0.888307	0.252644	-0.006975
O20	O	1.388307	0.752644	0.493025
C21	C	0.755831	0.128286	-0.038445
C22	C	1.255831	0.628286	0.461555
C23	C	0.671809	0.126693	-0.037969
C24	C	1.171809	0.626693	0.462031
C25	C	0.632331	0.125938	0.037206
C26	C	1.132331	0.625938	0.537206
C27	C	0.553384	0.124428	0.037660
C28	C	1.053384	0.624428	0.537660
C29	C	0.513916	0.123679	-0.037064
C30	C	1.013916	0.623679	0.462936
C31	C	0.553400	0.124431	-0.112244
C32	C	1.053400	0.624431	0.387756
C33	C	0.632346	0.125935	-0.112695
C34	C	1.132346	0.625935	0.387305
C35	C	0.235021	0.118364	-0.110427
C36	C	0.735021	0.618364	0.389573
C37	C	0.156070	0.116863	-0.109971
C38	C	0.656070	0.616863	0.390029
C39	C	0.156059	0.116857	0.039928
C40	C	0.656059	0.616857	0.539928
C41	C	0.235005	0.118361	0.039477
C42	C	0.735005	0.618361	0.539477
C43	C	0.274483	0.119108	-0.035701
C44	C	0.774483	0.619108	0.464299
C45	C	0.360085	0.120745	-0.036191
C46	C	0.860085	0.620745	0.463809
C47	C	0.428314	0.122049	-0.036576
C48	C	0.928314	0.622049	0.463424
C49	C	0.899551	-0.043441	0.013035
C50	C	1.399551	0.456559	0.513035
C51	C	0.897952	-0.143518	0.043030
C52	C	1.397952	0.356482	0.543030
C53	C	0.892716	-0.472638	-0.233034
C54	C	1.392716	0.027362	0.266966
C55	C	0.891211	-0.566676	-0.204824
C56	C	1.391211	-0.066676	0.295176
C57	C	0.891193	-0.566672	-0.054935
C58	C	1.391193	-0.066672	0.445065
C59	C	0.892703	-0.472633	-0.083133
C60	C	1.392703	0.027367	0.416867
C61	C	0.893463	-0.425623	-0.172184
C62	C	1.393463	0.074377	0.327816
C63	C	0.893450	-0.425618	-0.022283
C64	C	1.393450	0.074382	0.477717
C65	C	0.894955	-0.331587	-0.050479
C66	C	1.394955	0.168413	0.449521
C67	C	0.895714	-0.284570	-0.139526
C68	C	1.395714	0.215430	0.360474
C69	C	0.894969	-0.331592	-0.200380
C70	C	1.394969	0.168408	0.299620
C71	C	0.892684	-0.472628	0.066767
C72	C	1.392684	0.027372	0.566767
C73	C	0.893431	-0.425613	0.127618
C74	C	1.393431	0.074387	0.627618
C75	C	0.894942	-0.331581	0.099422
C76	C	1.394942	0.168419	0.599422
C77	C	0.895700	-0.284565	0.010375
C78	C	1.395700	0.215435	0.510375
C79	C	0.895687	-0.284559	0.160276
C80	C	1.395687	0.215441	0.660276
C81	C	0.897192	-0.190528	0.132080
C82	C	1.397192	0.309472	0.632080
C83	C	0.897205	-0.190533	-0.017821
C84	C	1.397205	0.309467	0.482179
C85	C	1.032568	0.114509	-0.034312
C86	C	1.532568	0.614509	0.465688
C87	C	1.116591	0.116101	-0.034793
C88	C	1.616591	0.616101	0.465207
C89	C	0.888848	0.286235	-0.085791
C90	C	1.388848	0.786235	0.414209
C91	C	0.890447	0.386313	-0.115792
C92	C	1.390447	0.886313	0.384208
N93	N	0.894183	0.121384	0.159293
N94	N	1.394183	0.621384	0.659293
N95	N	0.894223	0.121403	-0.232045
N96	N	1.394223	0.621403	0.267955
C97	C	0.945587	0.060006	0.220957
C98	C	1.445587	0.560006	0.720957
C99	C	0.945591	0.060005	0.307504
C100	C	1.445591	0.560005	0.807504
C101	C	0.894193	0.121387	0.332384
C102	C	1.394193	0.621387	0.832384
C103	C	0.842783	0.182768	0.270713
C104	C	1.342783	0.682768	0.770713
C105	C	0.842776	0.182764	0.184168
C106	C	1.342776	0.682764	0.684168
C107	C	0.842809	0.182785	0.619736
C108	C	1.342809	0.682785	1.119736
C109	C	0.842821	0.182787	0.706287
C110	C	1.342821	0.682787	1.206287
C111	C	0.945624	0.060026	0.743072
C112	C	1.445624	0.560026	1.243072
C113	C	0.945617	0.060022	0.656528
C114	C	1.445617	0.560022	1.156528
C115	C	0.894205	0.121399	0.594865
C116	C	1.394205	0.621399	1.094865
C117	C	0.894200	0.121399	0.501021
C118	C	1.394200	0.621399	1.001021
C119	C	0.894201	0.121393	0.426225
C120	C	1.394201	0.621393	0.926225
H121	H	0.267135	0.118975	0.100323
H122	H	0.767135	0.618975	0.600323
Br123	Br	0.892389	-0.489418	0.248468
Br124	Br	1.392389	0.010582	0.748468
H125	H	0.521260	0.123815	-0.173084
H126	H	1.021260	0.623815	0.326916
H127	H	0.664488	0.126552	-0.173910
H128	H	1.164488	0.626552	0.326090
H129	H	0.123908	0.116244	0.101142
H130	H	0.623908	0.616244	0.601142
Br131	Br	0.288588	0.119378	-0.212454
Br132	Br	0.788588	0.619378	0.287546
Br133	Br	1.015377	-0.023280	0.622764
Br134	Br	1.515377	0.476720	1.122764
Br135	Br	0.898208	-0.126716	0.214663
Br136	Br	1.398208	0.373284	0.714663
Br137	Br	1.015399	-0.023276	0.826762
Br138	Br	1.515399	0.476724	1.326762
H139	H	0.123937	0.116252	-0.170824
H140	H	0.623937	0.616252	0.329176
Br141	Br	0.890152	-0.630477	0.065914
Br142	Br	1.390152	-0.130477	0.565914
H143	H	0.521246	0.123798	0.098879
H144	H	1.021246	0.623798	0.598879
Br145	Br	0.773063	0.266098	0.740051
Br146	Br	1.273063	0.766098	1.240051
H147	H	0.664459	0.126556	0.098053
H148	H	1.164459	0.626556	0.598053
H149	H	0.800930	0.232744	0.290975
H150	H	1.300930	0.732744	0.790975
Br151	Br	0.897758	-0.156955	-0.177796
Br152	Br	1.397758	0.343045	0.322204
H153	H	0.897831	-0.152257	-0.090334
H154	H	1.397831	0.347743	0.409666
H155	H	0.987444	0.010025	0.200706
H156	H	1.487444	0.510025	0.700706
H157	H	0.895595	-0.293315	-0.272893
H158	H	1.395595	0.206685	0.227107
H159	H	0.893342	-0.434362	-0.305548
H160	H	1.393342	0.065638	0.194452
Br161	Br	0.890189	-0.630479	-0.287417
Br162	Br	1.390189	-0.130479	0.212583
H163	H	0.891450	-0.549193	0.089721
H164	H	1.391450	-0.049193	0.589721
Br165	Br	0.894635	-0.348366	0.281125
Br166	Br	1.394635	0.151634	0.781125
Br167	Br	1.015353	-0.023298	0.391196
Br168	Br	1.515353	0.476702	0.891196
Br169	Br	0.773039	0.266082	0.536056
Br170	Br	1.273039	0.766082	1.036056
Br171	Br	0.773004	0.266061	0.100481
Br172	Br	1.273004	0.766061	0.600481
