data_functionalizedCrystal
_audit_creation_method	'MofGen! by Chris Wilmer'
_symmetry_space_group_name_H-M	'P1'
_symmetry_Int_Tables_number	1
_symmetry_cell_setting	triclinic
loop_
_symmetry_equiv_pos_as_xyz
  x,y,z
_cell_length_a	34.490303
_cell_length_b	34.489386
_cell_length_c	34.485816
_cell_angle_alpha	60.004462
_cell_angle_beta	60.008900
_cell_angle_gamma	59.994399
loop_
_atom_site_label
_atom_site_type_symbol
_atom_site_fract_x
_atom_site_fract_y
_atom_site_fract_z
O1	O	0.053846	-0.566517	0.473678
O2	O	0.553846	-0.066517	0.973678
O3	O	0.020329	-0.441078	0.381663
O4	O	0.520329	0.058922	0.881663
O5	O	0.099768	-0.520436	0.381578
O6	O	0.599768	-0.020436	0.881578
O7	O	-0.025592	-0.487159	0.473762
O8	O	0.474408	0.012841	0.973762
O9	O	0.126127	-0.494082	0.407849
O10	O	0.626127	0.005918	0.907849
O11	O	0.046689	-0.414724	0.407933
O12	O	0.546689	0.085276	0.907933
O13	O	0.080206	-0.540163	0.499949
O14	O	0.580206	-0.040163	0.999949
Zn15	Zn	0.067632	-0.473259	0.458112
Zn16	Zn	0.567632	0.026741	0.958112
Zn17	Zn	0.032903	-0.507982	0.423499
Zn18	Zn	0.532903	-0.007982	0.923499
O19	O	0.000767	-0.460805	0.500033
O20	O	0.500767	0.039195	1.000033
N21	N	0.091336	-0.449565	0.481736
N22	N	0.591336	0.050435	0.981736
N23	N	0.009203	-0.531680	0.399875
N24	N	0.509203	-0.031680	0.899875
C25	C	0.142510	-0.268211	0.532817
C26	C	0.642510	0.231789	1.032817
C27	C	0.142641	-0.398441	0.662987
C28	C	0.642641	0.101559	1.162987
C29	C	0.142524	-0.398421	0.532817
C30	C	0.642524	0.101579	1.032817
C31	C	0.272762	-0.398394	0.532723
C32	C	0.772762	0.101606	1.032723
C33	C	0.156853	-0.311177	0.547124
C34	C	0.656853	0.188823	1.047124
C35	C	0.156928	-0.384109	0.620020
C36	C	0.656928	0.115891	1.120020
C37	C	0.229794	-0.384081	0.547073
C38	C	0.729794	0.115919	1.047073
C39	C	0.156863	-0.384097	0.547124
C40	C	0.656863	0.115903	1.047124
C41	C	0.124253	-0.213522	0.514606
C42	C	0.624253	0.286478	1.014606
C43	C	0.124277	-0.416652	0.514606
C44	C	0.624277	0.083348	1.014606
C45	C	0.175110	-0.365866	0.565335
C46	C	0.675110	0.134134	1.065335
C47	C	0.352285	-0.384669	0.490824
C48	C	0.852285	0.115331	0.990824
C49	C	0.401998	-0.401229	0.474223
C50	C	0.901998	0.098771	0.974223
C51	C	0.402027	-0.481671	0.504898
C52	C	0.902027	0.018329	1.004898
C53	C	0.352316	-0.465109	0.521500
C54	C	0.852316	0.034891	1.021500
C55	C	0.136220	-0.188652	0.465734
C56	C	0.636220	0.311348	0.965734
C57	C	0.119621	-0.138936	0.449181
C58	C	0.619621	0.361064	0.949181
C59	C	0.079092	-0.138961	0.530374
C60	C	0.579092	0.361039	1.030374
C61	C	0.095691	-0.188678	0.546927
C62	C	0.595691	0.311322	1.046927
C63	C	0.075398	-0.404656	0.526651
C64	C	0.575398	0.095344	1.026651
C65	C	0.058814	-0.421229	0.510091
C66	C	0.558814	0.078771	1.010091
C67	C	0.139984	-0.461794	0.469452
C68	C	0.639984	0.038206	0.969452
C69	C	0.156570	-0.445221	0.486007
C70	C	0.656570	0.054779	0.986007
C71	C	0.075593	-0.404694	0.742565
C72	C	0.575593	0.095306	1.242565
C73	C	0.059066	-0.421281	0.792280
C74	C	0.559066	0.078719	1.292280
C75	C	0.140274	-0.461856	0.792215
C76	C	0.640274	0.038144	1.292215
C77	C	0.156800	-0.445269	0.742499
C78	C	0.656800	0.054731	1.242499
C79	C	0.124458	-0.416687	0.717675
C80	C	0.624458	0.083313	1.217675
C81	C	0.327446	-0.416608	0.514460
C82	C	0.827446	0.083392	1.014460
C83	C	-0.023585	-0.564792	0.161919
C84	C	0.476415	-0.064792	0.661919
C85	C	-0.023910	-0.769260	0.366530
C86	C	0.476090	-0.269260	0.866530
C87	C	-0.023880	-0.564780	0.366623
C88	C	0.476120	-0.064780	0.866623
C89	C	-0.228325	-0.564561	0.366222
C90	C	0.271675	-0.064561	0.866222
C91	C	-0.129610	-0.597564	0.333467
C92	C	0.370390	-0.097564	0.833467
C93	C	-0.056729	-0.597644	0.333613
C94	C	0.443271	-0.097644	0.833613
C95	C	-0.074925	-0.615849	0.315324
C96	C	0.425075	-0.115849	0.815324
C97	C	-0.088689	-0.695351	0.357144
C98	C	0.411311	-0.195351	0.857144
C99	C	-0.072155	-0.745068	0.373736
C100	C	0.427845	-0.245068	0.873736
C101	C	0.008283	-0.745150	0.343188
C102	C	0.508283	-0.245150	0.843188
C103	C	-0.008252	-0.695435	0.326596
C104	C	0.491748	-0.195435	0.826596
C105	C	-0.154529	-0.609541	0.382326
C106	C	0.345471	-0.109541	0.882326
C107	C	-0.204241	-0.592916	0.398818
C108	C	0.295759	-0.092916	0.898818
C109	C	-0.204114	-0.552341	0.317588
C110	C	0.295886	-0.052341	0.817588
C111	C	-0.154401	-0.568966	0.301096
C112	C	0.345599	-0.068966	0.801096
C113	C	-0.068707	-0.548770	0.321590
C114	C	0.431293	-0.048770	0.821590
C115	C	-0.052166	-0.532225	0.338221
C116	C	0.447834	-0.032225	0.838221
C117	C	-0.011669	-0.613425	0.378886
C118	C	0.488331	-0.113425	0.878886
C119	C	-0.028210	-0.629972	0.362261
C120	C	0.471790	-0.129972	0.862261
C121	C	-0.068581	-0.548777	0.235758
C122	C	0.431419	-0.048777	0.735758
C123	C	-0.051939	-0.532234	0.186043
C124	C	0.448061	-0.032234	0.686043
C125	C	-0.011379	-0.613438	0.186090
C126	C	0.488621	-0.113438	0.686090
C127	C	-0.028020	-0.629981	0.235806
C128	C	0.471980	-0.129981	0.735806
C129	C	-0.056622	-0.597649	0.260639
C130	C	0.443378	-0.097649	0.760639
C131	C	-0.056739	-0.670537	0.333576
C132	C	0.443261	-0.170537	0.833576
C133	C	-0.005614	-0.545951	0.107238
C134	C	0.494386	-0.045951	0.607238
C135	C	-0.006360	-0.823943	0.385033
C136	C	0.493640	-0.323943	0.885033
C137	C	-0.005995	-0.545937	0.384582
C138	C	0.494005	-0.045937	0.884582
C139	C	-0.283006	-0.545971	0.383725
C140	C	0.216994	-0.045971	0.883725
N141	N	0.426163	-0.449489	0.481488
N142	N	0.926163	0.050511	0.981488
O143	O	0.588601	-0.457377	0.364497
O144	O	1.088601	0.042623	0.864497
O145	O	0.588789	-0.549696	0.489801
O146	O	1.088789	-0.049696	0.989801
O147	O	0.588709	-0.549485	0.410335
O148	O	1.088709	-0.049485	0.910335
O149	O	0.588681	-0.457588	0.443963
O150	O	1.088681	0.042412	0.943963
O151	O	0.509731	-0.523223	0.436741
O152	O	1.009731	-0.023223	0.936741
O153	O	0.509811	-0.523434	0.516207
O154	O	1.009811	-0.023434	1.016207
O155	O	0.509624	-0.431115	0.390903
O156	O	1.009624	0.068885	0.890903
Zn157	Zn	0.497178	-0.473105	0.457747
Zn158	Zn	0.997178	0.026895	0.957747
Zn159	Zn	0.601234	-0.507706	0.422956
Zn160	Zn	1.101234	-0.007706	0.922956
O161	O	0.509704	-0.431326	0.470368
O162	O	1.009704	0.068674	0.970368
N163	N	0.672250	-0.531322	0.399211
N164	N	1.172250	-0.031322	0.899211
N165	N	0.091303	-0.114798	0.481730
N166	N	0.591303	0.385202	0.981730
O167	O	-0.025603	0.047729	0.473733
O168	O	0.474397	0.547729	0.973733
O169	O	0.099703	0.047764	0.381394
O170	O	0.599703	0.547764	0.881394
O171	O	0.020199	0.047731	0.381655
O172	O	0.520199	0.547731	0.881655
O173	O	0.053901	0.047761	0.473472
O174	O	0.553901	0.547761	0.973472
O175	O	0.046564	-0.031252	0.407974
O176	O	0.546564	0.468748	0.907974
O177	O	0.126068	-0.031219	0.407713
O178	O	0.626068	0.468781	0.907713
O179	O	0.000762	-0.031254	0.500052
O180	O	0.500762	0.468746	1.000052
Zn181	Zn	0.067601	-0.043777	0.458061
Zn182	Zn	0.567601	0.456223	0.958061
Zn183	Zn	0.032864	0.060287	0.423385
Zn184	Zn	0.532864	0.560287	0.923385
O185	O	0.080266	-0.031222	0.499791
O186	O	0.580266	0.468778	0.999791
N187	N	0.009156	0.131307	0.399717
N188	N	0.509156	0.631307	0.899717
N189	N	0.091635	-0.449614	0.816396
N190	N	0.591635	0.050386	1.316396
O191	O	0.083664	-0.566502	0.978913
O192	O	0.583664	-0.066502	1.478913
O193	O	-0.008637	-0.441152	0.978954
O194	O	0.491363	0.058848	1.478954
O195	O	-0.008421	-0.520640	0.978930
O196	O	0.491579	-0.020640	1.478930
O197	O	0.083448	-0.487013	0.978936
O198	O	0.583448	0.012987	1.478936
O199	O	0.017877	-0.494296	0.899950
O200	O	0.517877	0.005704	1.399950
O201	O	0.017661	-0.414807	0.899974
O202	O	0.517661	0.085193	1.399974
O203	O	0.109961	-0.540157	0.899933
O204	O	0.609961	-0.040157	1.399933
Zn205	Zn	0.067986	-0.473299	0.887414
Zn206	Zn	0.567986	0.026701	1.387414
Zn207	Zn	0.033338	-0.508010	0.991473
Zn208	Zn	0.533338	-0.008010	1.491473
O209	O	0.109746	-0.460669	0.899956
O210	O	0.609746	0.039331	1.399956
N211	N	0.009689	-0.531700	1.062491
N212	N	0.509689	-0.031700	1.562491
C213	C	0.030367	-0.412095	0.382120
C214	C	0.530367	0.087905	0.882120
C215	C	0.128741	-0.510370	0.382016
C216	C	0.628741	-0.010370	0.882016
C217	C	0.070168	-0.569147	0.499490
C218	C	0.570168	-0.069147	0.999490
C219	C	-0.028207	-0.470871	0.499595
C220	C	0.471793	0.029129	0.999595
C221	C	0.549323	-0.549278	0.518791
C222	C	1.049323	-0.049278	1.018791
C223	C	0.549225	-0.549017	0.420381
C224	C	1.049225	-0.049017	0.920381
C225	C	0.549087	-0.431532	0.361914
C226	C	1.049087	0.068468	0.861914
C227	C	0.549188	-0.431794	0.460322
C228	C	1.049188	0.068206	0.960322
C229	C	0.128638	0.008374	0.381806
C230	C	0.628638	0.508374	0.881806
C231	C	0.030215	0.008236	0.382161
C232	C	0.530215	0.508236	0.882161
C233	C	-0.028206	0.008233	0.499608
C234	C	0.471794	0.508233	0.999608
C235	C	0.070250	0.008272	0.499285
C236	C	0.570250	0.508272	0.999285
C237	C	-0.008199	-0.412187	0.939469
C238	C	0.491801	0.087813	1.439469
C239	C	-0.007927	-0.510619	0.939425
C240	C	0.492073	-0.010619	1.439425
C241	C	0.109523	-0.569121	0.939417
C242	C	0.609523	-0.069121	1.439417
C243	C	0.109257	-0.470684	0.939444
C244	C	0.609257	0.029316	1.439444
H245	H	0.019274	-0.411508	0.812539
H246	H	0.519274	0.088492	1.312539
O247	O	0.021692	0.008161	0.347726
O248	O	0.521692	0.508161	0.847726
C249	C	0.044499	-0.032788	0.295957
C250	C	0.544499	0.467212	0.795957
C251	C	0.054206	-0.032753	0.334946
C252	C	0.554206	0.467247	0.834946
H253	H	0.070774	-0.065868	0.285620
H254	H	0.570774	0.434132	0.785620
H255	H	0.048751	0.000245	0.263518
H256	H	0.548751	0.500245	0.763518
H257	H	0.006759	-0.032779	0.309896
H258	H	0.506759	0.467221	0.809896
H259	H	0.091944	-0.032779	0.321052
H260	H	0.591944	0.467221	0.821052
H261	H	0.049923	-0.065783	0.367378
H262	H	0.549923	0.434217	0.867378
H263	H	0.549027	-0.402547	0.325928
H264	H	1.049027	0.097453	0.825928
O265	O	0.549156	-0.397397	0.468988
O266	O	1.049156	0.102603	0.968988
C267	C	0.549233	-0.375683	0.525382
C268	C	1.049233	0.124317	1.025382
C269	C	0.549258	-0.414675	0.515635
C270	C	1.049258	0.085325	1.015635
H271	H	0.549325	-0.389641	0.563092
H272	H	1.049325	0.110359	1.063092
H273	H	0.516144	-0.343286	0.521205
H274	H	1.016144	0.156714	1.021205
H275	H	0.582248	-0.365264	0.499046
H276	H	1.082248	0.134736	0.999046
H277	H	0.516265	-0.425134	0.541963
H278	H	1.016265	0.074866	1.041963
H279	H	0.582369	-0.447046	0.519796
H280	H	1.082369	0.052954	1.019796
H281	H	-0.036776	-0.517804	0.939391
H282	H	0.463224	-0.017804	1.439391
O283	O	0.144038	-0.612101	0.939421
O284	O	0.644038	-0.112101	1.439421
C285	C	0.166131	-0.690321	0.939361
C286	C	0.666131	-0.190321	1.439361
C287	C	0.126998	-0.641673	0.939370
C288	C	0.626998	-0.141673	1.439370
H289	H	0.152373	-0.714240	0.939309
H290	H	0.652373	-0.214240	1.439309
H291	H	0.176498	-0.707415	0.972419
H292	H	0.676498	-0.207415	1.472419
H293	H	0.198511	-0.685308	0.906313
H294	H	0.698511	-0.185308	1.406313
H295	H	0.094594	-0.646644	0.972396
H296	H	0.594594	-0.146644	1.472396
H297	H	0.116672	-0.624596	0.906290
H298	H	0.616672	-0.124596	1.406290
H299	H	0.196371	-0.454985	0.476195
H300	H	0.696371	0.045015	0.976195
O301	O	0.143646	-0.462017	0.939418
O302	O	0.643646	0.037983	1.439418
C303	C	0.165356	-0.405605	0.939454
C304	C	0.665356	0.094395	1.439454
C305	C	0.126372	-0.415353	0.939473
C306	C	0.626372	0.084647	1.439473
H307	H	0.151401	-0.367881	0.939509
H308	H	0.651401	0.132119	1.439509
H309	H	0.197759	-0.409815	0.906386
H310	H	0.697759	0.090185	1.406386
H311	H	0.175760	-0.431920	0.972492
H312	H	0.675760	0.068080	1.472492
H313	H	0.115928	-0.389047	0.906458
H314	H	0.615928	0.110953	1.406458
H315	H	0.093995	-0.411160	0.972563
H316	H	0.593995	0.088840	1.472563
H317	H	0.049253	-0.381417	0.722357
H318	H	0.549253	0.118583	1.222357
O319	O	0.171498	0.008671	0.347179
O320	O	0.671498	0.508671	0.847179
C321	C	0.249608	0.009060	0.324941
C322	C	0.749608	0.509060	0.824941
C323	C	0.201088	0.008735	0.364194
C324	C	0.701088	0.508735	0.864194
H325	H	0.273548	0.009102	0.338686
H326	H	0.773548	0.509102	0.838686
H327	H	0.244435	0.042195	0.292661
H328	H	0.744435	0.542195	0.792661
H329	H	0.266773	-0.023913	0.314424
H330	H	0.766773	0.476087	0.814424
H331	H	0.183897	0.041685	0.374750
H332	H	0.683897	0.541685	0.874750
H333	H	0.206292	-0.024421	0.396448
H334	H	0.706292	0.475579	0.896448
H335	H	-0.037176	-0.376187	0.939482
H336	H	0.462824	0.123813	1.439482
O337	O	0.171695	-0.518749	0.347463
O338	O	0.671695	-0.018749	0.847463
C339	C	0.241445	-0.495726	0.295547
C340	C	0.741445	0.004274	0.795547
C341	C	0.192805	-0.486178	0.334669
C342	C	0.692805	0.013822	0.834669
H343	H	0.258531	-0.469404	0.285198
H344	H	0.758531	0.030596	0.785198
H345	H	0.236482	-0.491417	0.263146
H346	H	0.736482	0.008583	0.763146
H347	H	0.265347	-0.533453	0.309361
H348	H	0.765347	-0.033453	0.809361
H349	H	0.168877	-0.448452	0.320899
H350	H	0.668877	0.051548	0.820899
H351	H	0.197804	-0.490518	0.367063
H352	H	0.697804	0.009482	0.867063
O353	O	0.171755	-0.489630	0.816256
O354	O	0.671755	0.010370	1.316256
C355	C	0.254047	-0.528106	0.810945
C356	C	0.754047	-0.028106	1.310945
C357	C	0.218448	-0.496650	0.783660
C358	C	0.718448	0.003350	1.283660
H359	H	0.291806	-0.533783	0.784603
H360	H	0.791806	-0.033783	1.284603
H361	H	0.248376	-0.563892	0.834201
H362	H	0.748376	-0.063892	1.334201
H363	H	0.248310	-0.509900	0.834235
H364	H	0.748310	-0.009900	1.334235
H365	H	0.224164	-0.514814	0.760344
H366	H	0.724164	-0.014814	1.260344
H367	H	0.224127	-0.460866	0.760434
H368	H	0.724127	0.039134	1.260434
O369	O	-0.096425	-0.517303	0.293786
O370	O	0.403575	-0.017303	0.793786
C371	C	-0.134827	-0.435015	0.255185
C372	C	0.365173	0.064985	0.755185
C373	C	-0.103443	-0.470599	0.286687
C374	C	0.396557	0.029401	0.786687
H375	H	-0.140503	-0.397248	0.249427
H376	H	0.359497	0.102752	0.749427
H377	H	-0.170616	-0.440667	0.273333
H378	H	0.329384	0.059333	0.773333
H379	H	-0.116567	-0.440790	0.219441
H380	H	0.383433	0.059210	0.719441
H381	H	-0.121662	-0.464846	0.322436
H382	H	0.378338	0.035154	0.822436
H383	H	-0.067656	-0.464938	0.268501
H384	H	0.432344	0.035062	0.768501
H385	H	0.196592	-0.455039	0.722237
H386	H	0.696592	0.044961	1.222237
H387	H	-0.064213	-0.463781	0.528541
H388	H	0.435787	0.036219	1.028541
O389	O	-0.071172	0.008251	0.534130
O390	O	0.428828	0.508251	1.034130
C391	C	-0.149400	0.008213	0.556252
C392	C	0.350600	0.508213	1.056252
C393	C	-0.100765	0.008198	0.517112
C394	C	0.399235	0.508198	1.017112
H395	H	-0.173336	0.008160	0.542510
H396	H	0.326664	0.508160	1.042510
H397	H	-0.166478	0.041280	0.566595
H398	H	0.333522	0.541280	1.066595
H399	H	-0.144376	-0.024828	0.588643
H400	H	0.355624	0.475172	1.088643
H401	H	-0.105747	0.041217	0.484695
H402	H	0.394253	0.541217	0.984695
H403	H	-0.083704	-0.024891	0.506809
H404	H	0.416296	0.475109	1.006809
O405	O	0.078946	0.008252	0.533658
O406	O	0.578946	0.508252	1.033658
C407	C	0.135389	0.008289	0.555331
C408	C	0.635389	0.508289	1.055331
C409	C	0.125607	0.008306	0.516364
C410	C	0.625607	0.508306	1.016364
H411	H	0.173110	0.008343	0.541360
H412	H	0.673110	0.508343	1.041360
H413	H	0.131200	-0.024779	0.587742
H414	H	0.631200	0.475221	1.087742
H415	H	0.109080	0.041329	0.565731
H416	H	0.609080	0.541329	1.065731
H417	H	0.151907	-0.024712	0.505924
H418	H	0.651907	0.475288	1.005924
H419	H	0.129780	0.041396	0.483979
H420	H	0.629780	0.541396	0.983979
O421	O	0.078779	-0.612168	0.533911
O422	O	0.578779	-0.112168	1.033911
C423	C	0.135149	-0.690334	0.555750
C424	C	0.635149	-0.190334	1.055750
C425	C	0.125457	-0.641638	0.516724
C426	C	0.625457	-0.141638	1.016724
H427	H	0.172891	-0.714170	0.541872
H428	H	0.672891	-0.214170	1.041872
H429	H	0.108866	-0.707485	0.566144
H430	H	0.608866	-0.207485	1.066144
H431	H	0.130873	-0.685381	0.588142
H432	H	0.630873	-0.185381	1.088142
H433	H	0.129739	-0.646549	0.484306
H434	H	0.629739	-0.146549	0.984306
H435	H	0.151739	-0.624503	0.506370
H436	H	0.651739	-0.124503	1.006370
H437	H	0.549371	-0.578259	0.554780
H438	H	1.049371	-0.078259	1.054780
O439	O	0.043964	-0.376889	0.554407
O440	O	0.543964	0.123111	1.054407
C441	C	-0.038298	-0.338420	0.592987
C442	C	0.461702	0.161580	1.092987
C443	C	-0.002751	-0.369861	0.561540
C444	C	0.497249	0.130139	1.061540
H445	H	-0.076075	-0.332737	0.598772
H446	H	0.423925	0.167263	1.098772
H447	H	-0.032622	-0.302636	0.574778
H448	H	0.467378	0.197364	1.074778
H449	H	-0.032509	-0.356642	0.628722
H450	H	0.467491	0.143358	1.128722
H451	H	-0.008519	-0.351681	0.525800
H452	H	0.491481	0.148319	1.025800
H453	H	-0.008436	-0.405644	0.579786
H454	H	0.491564	0.094356	1.079786
H455	H	0.549237	-0.577886	0.413185
H456	H	1.049237	-0.077886	0.913185
H457	H	0.166284	-0.485062	0.446169
H458	H	0.666284	0.014938	0.946169
O459	O	0.011337	-0.409522	0.521709
O460	O	0.511337	0.090478	1.021709
C461	C	-0.054530	-0.371297	0.493205
C462	C	0.445470	0.128703	0.993205
C463	C	-0.000759	-0.384516	0.479981
C464	C	0.499241	0.115484	0.979981
H465	H	-0.064325	-0.351086	0.459475
H466	H	0.435675	0.148914	0.959475
H467	H	-0.074785	-0.348009	0.516470
H468	H	0.425215	0.151991	1.016470
H469	H	-0.064282	-0.405046	0.513462
H470	H	0.435718	0.094954	1.013462
H471	H	0.009037	-0.350793	0.459706
H472	H	0.509037	0.149207	0.959706
H473	H	0.019466	-0.407823	0.456738
H474	H	0.519466	0.092177	0.956738
O475	O	0.328262	-0.496198	0.544433
O476	O	0.828262	0.003802	1.044433
C477	C	0.333545	-0.577739	0.573129
C478	C	0.833545	-0.077739	1.073129
C479	C	0.360844	-0.542579	0.547140
C480	C	0.860844	-0.042579	1.047140
H481	H	0.359876	-0.615246	0.575334
H482	H	0.859876	-0.115246	1.075334
H483	H	0.310259	-0.567800	0.552824
H484	H	0.810259	-0.067800	1.052824
H485	H	0.310284	-0.576200	0.610502
H486	H	0.810284	-0.076200	1.110502
H487	H	0.384131	-0.544099	0.509767
H488	H	0.884131	-0.044099	1.009767
H489	H	0.384100	-0.552529	0.567481
H490	H	0.884100	-0.052529	1.067481
H491	H	0.422274	-0.521162	0.510626
H492	H	0.922274	-0.021162	1.010626
H493	H	0.332037	-0.345175	0.485091
H494	H	0.832037	0.154825	0.985091
O495	O	0.426109	-0.370174	0.451188
O496	O	0.926109	0.129826	0.951188
C497	C	0.441243	-0.301237	0.384193
C498	C	0.941243	0.198763	0.884193
C499	C	0.413916	-0.336379	0.410229
C500	C	0.913916	0.163621	0.910229
H501	H	0.431388	-0.273899	0.351077
H502	H	0.931388	0.226101	0.851077
H503	H	0.481052	-0.321378	0.373497
H504	H	0.981052	0.178622	0.873497
H505	H	0.431496	-0.282398	0.408753
H506	H	0.931496	0.217602	0.908753
H507	H	0.423624	-0.355228	0.385696
H508	H	0.923624	0.144772	0.885696
H509	H	0.374115	-0.316213	0.420932
H510	H	0.874115	0.183787	0.920932
O511	O	0.163942	-0.212710	0.434273
O512	O	0.663942	0.287290	0.934273
C513	C	0.202407	-0.207438	0.351992
C514	C	0.702407	0.292562	0.851992
C515	C	0.171000	-0.180131	0.387569
C516	C	0.671000	0.319869	0.887569
H517	H	0.208132	-0.181109	0.314224
H518	H	0.708132	0.318891	0.814224
H519	H	0.184202	-0.230708	0.357700
H520	H	0.684202	0.269292	0.857700
H521	H	0.238171	-0.230717	0.357719
H522	H	0.738171	0.269283	0.857719
H523	H	0.135231	-0.156825	0.381863
H524	H	0.635231	0.343175	0.881863
H525	H	0.189242	-0.156890	0.381852
H526	H	0.689242	0.343110	0.881852
O527	O	0.051407	-0.114880	0.561816
O528	O	0.551407	0.385120	1.061816
C529	C	0.045128	-0.099662	0.626099
C530	C	0.545128	0.400338	1.126099
C531	C	0.076528	-0.126969	0.590522
C532	C	0.576528	0.373031	1.090522
H533	H	0.065430	-0.109418	0.649311
H534	H	0.565430	0.390582	1.149311
H535	H	0.011413	-0.109463	0.649433
H536	H	0.511413	0.390537	1.149433
H537	H	0.035305	-0.059858	0.605865
H538	H	0.535305	0.440142	1.105865
H539	H	0.086387	-0.166779	0.610718
H540	H	0.586387	0.333221	1.110718
H541	H	0.110221	-0.117128	0.567189
H542	H	0.610221	0.382872	1.067189
O543	O	0.084122	-0.212908	0.594385
O544	O	0.584122	0.287092	1.094385
C545	C	0.091815	-0.289509	0.655873
C546	C	0.591815	0.210491	1.155873
C547	C	0.104927	-0.262126	0.602113
C548	C	0.604927	0.237874	1.102113
H549	H	0.108639	-0.329307	0.662138
H550	H	0.608639	0.170693	1.162138
H551	H	0.051572	-0.279802	0.672711
H552	H	0.551572	0.220198	1.172711
H553	H	0.105556	-0.279685	0.672573
H554	H	0.605556	0.220315	1.172573
H555	H	0.091218	-0.271936	0.585372
H556	H	0.591218	0.228064	1.085372
H557	H	0.145173	-0.271836	0.585310
H558	H	0.645173	0.228164	1.085310
O559	O	-0.063646	-0.484752	0.161900
O560	O	0.436354	0.015248	0.661900
C561	C	-0.126626	-0.410252	0.146613
C562	C	0.373374	0.089748	0.646613
C563	C	-0.113432	-0.464019	0.173976
C564	C	0.386568	0.035981	0.673976
H565	H	-0.166878	-0.393472	0.156374
H566	H	0.333122	0.106528	0.656374
H567	H	-0.109858	-0.403949	0.106809
H568	H	0.390142	0.096051	0.606809
H569	H	-0.112904	-0.393525	0.156425
H570	H	0.387096	0.106475	0.656425
H571	H	-0.127151	-0.480782	0.164204
H572	H	0.372849	0.019218	0.664204
H573	H	-0.130193	-0.470289	0.213773
H574	H	0.369807	0.029711	0.713773
O575	O	0.016410	-0.644911	0.162045
O576	O	0.516410	-0.144911	0.662045
C577	C	0.054849	-0.727203	0.167346
C578	C	0.554849	-0.227203	0.667346
C579	C	0.023383	-0.691611	0.194636
C580	C	0.523383	-0.191611	0.694636
H581	H	0.060489	-0.764967	0.193684
H582	H	0.560489	-0.264967	0.693684
H583	H	0.090648	-0.721557	0.144139
H584	H	0.590648	-0.221557	0.644139
H585	H	0.036676	-0.721428	0.144006
H586	H	0.536676	-0.221428	0.644006
H587	H	0.041515	-0.697364	0.218002
H588	H	0.541515	-0.197364	0.718002
H589	H	-0.012414	-0.697265	0.217813
H590	H	0.487586	-0.197265	0.717813
H591	H	0.129365	-0.118686	0.409385
H592	H	0.629365	0.381314	0.909385
H593	H	-0.091873	-0.522445	0.255974
H594	H	0.408127	-0.022445	0.755974
H595	H	-0.018278	-0.669778	0.256062
H596	H	0.481722	-0.169778	0.756062
H597	H	0.011557	-0.639751	0.402207
H598	H	0.511557	-0.139751	0.902207
O599	O	-0.063771	-0.484763	0.326606
O600	O	0.436229	0.015237	0.826606
C601	C	-0.056209	-0.423288	0.334178
C602	C	0.443791	0.076712	0.834178
C603	C	-0.043039	-0.477048	0.347376
C604	C	0.456961	0.022952	0.847376
H605	H	-0.039445	-0.417033	0.350956
H606	H	0.460555	0.082967	0.850956
H607	H	-0.096459	-0.406468	0.347850
H608	H	0.403541	0.093532	0.847850
H609	H	-0.042445	-0.406561	0.293923
H610	H	0.457555	0.093439	0.793923
H611	H	-0.056772	-0.493816	0.387626
H612	H	0.443228	0.006184	0.887626
H613	H	-0.002787	-0.493833	0.333670
H614	H	0.497213	0.006167	0.833670
O615	O	-0.016595	-0.677457	0.374003
O616	O	0.483405	-0.177457	0.874003
C617	C	-0.020505	-0.751899	0.437006
C618	C	0.479495	-0.251899	0.937006
C619	C	-0.033681	-0.698134	0.423787
C620	C	0.466319	-0.198134	0.923787
H621	H	-0.034321	-0.768632	0.477255
H622	H	0.465679	-0.268632	0.977255
H623	H	0.019748	-0.768724	0.423376
H624	H	0.519748	-0.268724	0.923376
H625	H	-0.037217	-0.758140	0.420164
H626	H	0.462783	-0.258140	0.920164
H627	H	-0.017001	-0.691851	0.440624
H628	H	0.482999	-0.191851	0.940624
H629	H	-0.073938	-0.681336	0.437407
H630	H	0.426062	-0.181336	0.937407
O631	O	0.022848	-0.671402	0.303730
O632	O	0.522848	-0.171402	0.803730
C633	C	0.104381	-0.676733	0.275158
C634	C	0.604381	-0.176733	0.775158
C635	C	0.069211	-0.704008	0.301073
C636	C	0.569211	-0.204008	0.801073
H637	H	0.141874	-0.703083	0.272993
H638	H	0.641874	-0.203083	0.772993
H639	H	0.094417	-0.653466	0.295491
H640	H	0.594417	-0.153466	0.795491
H641	H	0.102888	-0.653453	0.237770
H642	H	0.602888	-0.153453	0.737770
H643	H	0.070685	-0.727314	0.338461
H644	H	0.570685	-0.227314	0.838461
H645	H	0.079186	-0.727245	0.280703
H646	H	0.579186	-0.227245	0.780703
O647	O	0.055365	-0.769413	0.336470
O648	O	0.555365	-0.269413	0.836470
C649	C	0.116489	-0.846042	0.348470
C650	C	0.616489	-0.346042	0.848470
C651	C	0.063157	-0.818625	0.356121
C652	C	0.563157	-0.318625	0.856121
H653	H	0.122807	-0.885835	0.364344
H654	H	0.622807	-0.385835	0.864344
H655	H	0.128822	-0.836319	0.366560
H656	H	0.628822	-0.336319	0.866560
H657	H	0.137329	-0.836265	0.308806
H658	H	0.637329	-0.336265	0.808806
H659	H	0.042280	-0.828387	0.395773
H660	H	0.542280	-0.328387	0.895773
H661	H	0.050862	-0.828351	0.337999
H662	H	0.550862	-0.328351	0.837999
O663	O	-0.103266	-0.769100	0.396695
O664	O	0.396734	-0.269100	0.896695
C665	C	-0.184810	-0.763774	0.425349
C666	C	0.315190	-0.263774	0.925349
C667	C	-0.149624	-0.736497	0.399314
C668	C	0.350376	-0.236497	0.899314
H669	H	-0.222297	-0.737426	0.427466
H670	H	0.277703	-0.237426	0.927466
H671	H	-0.183340	-0.786996	0.462753
H672	H	0.316660	-0.286996	0.962753
H673	H	-0.174833	-0.787099	0.405071
H674	H	0.325167	-0.287099	0.905071
H675	H	-0.159578	-0.713146	0.419552
H676	H	0.340422	-0.213146	0.919552
H677	H	-0.151100	-0.713304	0.361908
H678	H	0.348900	-0.213304	0.861908
H679	H	-0.128170	-0.675084	0.362831
H680	H	0.371830	-0.175084	0.862831
O681	O	-0.130520	-0.637298	0.413833
O682	O	0.369480	-0.137298	0.913833
C683	C	-0.135894	-0.675808	0.496145
C684	C	0.364106	-0.175808	0.996145
C685	C	-0.163142	-0.644360	0.460514
C686	C	0.336858	-0.144360	0.960514
H687	H	-0.162257	-0.681535	0.533893
H688	H	0.337743	-0.181535	1.033893
H689	H	-0.112629	-0.657631	0.490500
H690	H	0.387371	-0.157631	0.990500
H691	H	-0.112616	-0.711571	0.490415
H692	H	0.387384	-0.211571	0.990415
H693	H	-0.186445	-0.608591	0.466222
H694	H	0.313555	-0.108591	0.966222
H695	H	-0.186377	-0.662574	0.466167
H696	H	0.313623	-0.162574	0.966167
H697	H	-0.224299	-0.529059	0.291228
H698	H	0.275701	-0.029059	0.791228
O699	O	-0.228524	-0.604488	0.446267
O700	O	0.271476	-0.104488	0.946267
C701	C	-0.305167	-0.596886	0.507673
C702	C	0.194833	-0.096886	1.007673
C703	C	-0.277728	-0.583735	0.453926
C704	C	0.222272	-0.083735	0.953926
H705	H	-0.344953	-0.580123	0.513883
H706	H	0.155047	-0.080123	1.013883
H707	H	-0.295457	-0.583165	0.524492
H708	H	0.204543	-0.083165	1.024492
H709	H	-0.295400	-0.637141	0.524436
H710	H	0.204600	-0.137141	1.024436
H711	H	-0.287480	-0.543486	0.437123
H712	H	0.212520	-0.043486	0.937123
H713	H	-0.287440	-0.597490	0.437142
H714	H	0.212560	-0.097490	0.937142
O715	O	-0.130212	-0.557391	0.253627
O716	O	0.369788	-0.057391	0.753627
C717	C	-0.114915	-0.561175	0.179132
C718	C	0.385085	-0.061175	0.679132
C719	C	-0.142330	-0.574322	0.232885
C720	C	0.357670	-0.074322	0.732885
H721	H	-0.124710	-0.574849	0.162345
H722	H	0.375290	-0.074849	0.662345
H723	H	-0.075121	-0.577984	0.172879
H724	H	0.424879	-0.077984	0.672879
H725	H	-0.124644	-0.520922	0.162374
H726	H	0.375356	-0.020922	0.662374
H727	H	-0.132641	-0.614568	0.249679
H728	H	0.367359	-0.114568	0.749679
H729	H	-0.182118	-0.557480	0.239104
H730	H	0.317882	-0.057480	0.739104
H731	H	0.023205	-0.376060	0.353221
H732	H	0.523205	0.123940	0.853221
