data_functionalizedCrystal
_audit_creation_method	'MofGen! by Chris Wilmer'
_symmetry_space_group_name_H-M	'P1'
_symmetry_Int_Tables_number	1
_symmetry_cell_setting	triclinic
loop_
_symmetry_equiv_pos_as_xyz
  x,y,z
_cell_length_a	10.654550
_cell_length_b	19.188924
_cell_length_c	9.130313
_cell_angle_alpha	89.993420
_cell_angle_beta	89.999724
_cell_angle_gamma	83.813448
loop_
_atom_site_label
_atom_site_type_symbol
_atom_site_fract_x
_atom_site_fract_y
_atom_site_fract_z
O1	O	1.665760	0.098062	-0.121698
O2	O	1.300083	0.107405	-0.121725
O3	O	1.493479	0.001147	-0.121693
O4	O	1.472365	0.204320	-0.121729
O5	O	1.493466	0.001143	0.121906
O6	O	1.300070	0.107402	0.121874
O7	O	1.665747	0.098059	0.121901
Cu8	Cu	1.482907	0.102730	0.144130
Cu9	Cu	1.482923	0.102734	-0.143954
O10	O	1.472351	0.204317	0.121869
C11	C	1.253293	0.106717	0.000071
C12	C	1.113894	0.104665	0.000061
C13	C	1.492790	-0.024870	0.000107
C14	C	1.490742	-0.102389	0.000111
C15	C	1.033082	0.167228	0.000054
C16	C	0.902102	0.165296	0.000080
C17	C	0.932759	0.038231	0.000114
C18	C	1.063737	0.040164	0.000098
C19	C	1.489793	-0.138792	-0.132675
C20	C	1.487851	-0.211628	-0.132686
C21	C	1.486882	-0.248058	0.000096
C22	C	1.487824	-0.211646	0.132900
C23	C	1.489754	-0.138811	0.132907
N24	N	1.555310	-0.367275	0.098928
N25	N	1.553480	-0.436466	0.098912
C26	C	1.481066	-0.467506	0.000082
N27	N	1.410567	-0.426743	-0.098754
N28	N	1.412403	-0.357546	-0.098742
C29	C	1.484789	-0.327036	0.000103
C30	C	1.478009	-0.582885	-0.132726
C31	C	1.476059	-0.655722	-0.132732
C32	C	1.476045	-0.655739	0.132858
C33	C	1.477983	-0.582904	0.132860
C34	C	1.478970	-0.546481	0.000064
C35	C	1.712537	0.098747	0.000102
C36	C	1.851937	0.100799	0.000102
C37	C	1.473040	0.230334	0.000065
C38	C	1.475089	0.307853	0.000052
N39	N	1.482906	0.102727	0.346753
N40	N	1.482935	0.102731	-0.346577
C41	C	1.568570	0.055696	0.423419
C42	C	1.568582	0.055696	0.576755
C43	C	1.397262	0.149765	0.576747
C44	C	1.397245	0.149761	0.423413
H45	H	1.073915	0.219749	0.000035
C46	C	0.835635	0.272997	-0.125185
C47	C	0.813271	0.234067	0.000061
H48	H	0.780788	0.315453	-0.125197
H49	H	0.920809	0.283375	-0.125191
H50	H	0.820453	0.246566	-0.210109
H51	H	0.828463	0.260496	0.084987
H52	H	0.728077	0.223690	0.000081
H53	H	1.327520	0.188059	0.639179
H54	H	1.487070	-0.241272	-0.240820
C55	C	0.918564	-0.070668	0.125368
C56	C	0.877622	-0.032666	0.000138
H57	H	0.884520	-0.114436	0.125380
H58	H	1.008124	-0.078468	0.125353
H59	H	0.890795	-0.044876	0.210303
H60	H	0.905399	-0.058456	-0.084798
H61	H	0.788043	-0.024868	0.000139
C62	C	1.227906	0.242753	0.438794
C63	C	1.303079	0.201464	0.339130
H64	H	1.169779	0.274672	0.386757
H65	H	1.182908	0.213460	0.498616
H66	H	1.280051	0.268140	0.498584
H67	H	1.250933	0.176073	0.279347
H68	H	1.348079	0.230761	0.279283
H69	H	1.487032	-0.241312	0.241012
H70	H	1.129538	-0.010785	0.000108
H71	H	1.490594	-0.109141	-0.240808
H72	H	1.638335	0.017398	0.639173
H73	H	1.490521	-0.109171	0.241041
C74	C	1.477812	-0.590180	-0.395248
C75	C	1.479074	-0.542843	-0.278690
H76	H	1.478461	-0.565459	-0.485359
H77	H	1.550267	-0.623559	-0.389728
H78	H	1.403838	-0.613617	-0.389718
H79	H	1.553054	-0.519410	-0.284215
H80	H	1.406612	-0.509451	-0.284214
H81	H	1.475280	-0.685360	-0.240867
C82	C	1.367495	-0.670831	0.359203
C83	C	1.474967	-0.695768	0.278827
H84	H	1.366822	-0.695547	0.449319
H85	H	1.368797	-0.622249	0.378193
H86	H	1.293980	-0.677798	0.304614
H87	H	1.548483	-0.688796	0.333411
H88	H	1.473676	-0.744362	0.259841
H89	H	1.478766	-0.553264	0.240989
H90	H	1.638318	0.017397	0.361005
