data_functionalizedCrystal
_audit_creation_method	'MofGen! by Chris Wilmer'
_symmetry_space_group_name_H-M	'P1'
_symmetry_Int_Tables_number	1
_symmetry_cell_setting	triclinic
loop_
_symmetry_equiv_pos_as_xyz
  x,y,z
_cell_length_a	10.489741
_cell_length_b	10.489741
_cell_length_c	18.366186
_cell_angle_alpha	89.994090
_cell_angle_beta	89.993662
_cell_angle_gamma	84.539174
loop_
_atom_site_label
_atom_site_type_symbol
_atom_site_fract_x
_atom_site_fract_y
_atom_site_fract_z
O1	O	1.694062	0.179970	-0.060504
O2	O	1.322866	0.196863	-0.060515
O3	O	1.516910	0.002818	-0.060505
O4	O	1.500018	0.374014	-0.060514
O5	O	1.516877	0.002808	0.060594
O6	O	1.322833	0.196853	0.060584
O7	O	1.694029	0.179960	0.060595
Zn8	Zn	1.508425	0.188405	0.079817
Zn9	Zn	1.508469	0.188418	-0.079737
O10	O	1.499984	0.374004	0.060585
C11	C	1.275318	0.195582	0.000033
C12	C	1.133688	0.191765	0.000029
C13	C	1.065548	0.068300	0.000038
C14	C	0.973438	0.126628	-0.059670
C15	C	0.973439	0.126648	0.059725
C16	C	1.043443	0.250144	-0.059729
C17	C	1.043454	0.250146	0.059719
C18	C	0.951371	0.308564	-0.000004
C19	C	1.515618	-0.044718	0.000044
C20	C	1.511801	-0.186348	0.000043
C21	C	1.388336	-0.254488	0.000033
C22	C	1.446643	-0.346615	0.059744
C23	C	1.446705	-0.346580	-0.059651
C24	C	1.570159	-0.276610	0.059802
C25	C	1.570204	-0.276565	-0.059646
C26	C	1.628600	-0.368665	0.000078
C27	C	1.741577	0.181241	0.000045
C28	C	1.883206	0.185058	0.000045
C29	C	1.501277	0.421541	0.000034
C30	C	1.505094	0.563170	0.000031
N31	N	1.508405	0.188395	0.188708
N32	N	1.508500	0.188418	-0.188628
C33	C	1.594356	0.102515	0.226813
C34	C	1.594364	0.102509	0.303041
C35	C	1.508433	0.188406	0.341161
C36	C	1.422465	0.274292	0.303046
C37	C	1.422451	0.274287	0.226820
C38	C	1.492788	0.304426	0.461918
C39	C	1.492811	0.304433	0.538143
C40	C	1.508469	0.188422	0.576268
C41	C	1.524132	0.072399	0.538159
C42	C	1.524118	0.072394	0.461933
C43	C	1.508438	0.188421	0.423815
C44	C	1.594435	0.102529	0.697028
C45	C	1.594434	0.102522	0.773257
C46	C	1.422541	0.274316	0.773262
C47	C	1.422535	0.274312	0.697034
C48	C	1.508489	0.188420	0.658922
H49	H	1.286824	-0.204837	0.000091
O50	O	1.477761	0.417051	0.424803
C51	C	1.586139	0.428397	0.380711
H52	H	1.636167	0.329132	0.369299
H53	H	1.554926	0.476497	0.327105
H54	H	1.654960	0.488736	0.410072
O55	O	1.384399	-0.383321	-0.119930
C56	C	1.343225	-0.274500	-0.161833
H57	H	1.404881	-0.193740	-0.148580
H58	H	1.352654	-0.299178	-0.222162
H59	H	1.238849	-0.242588	-0.148645
O60	O	0.892455	0.429794	-0.000171
C61	C	0.928183	0.494405	-0.063199
H62	H	0.960788	0.421480	-0.107000
H63	H	0.842697	0.559442	-0.084038
H64	H	1.009951	0.554538	-0.049528
H65	H	1.352551	0.344248	0.666007
H66	H	1.622414	-0.245516	-0.110126
H67	H	1.622340	-0.245782	0.110339
O68	O	0.936369	0.064528	-0.119946
C69	C	0.852228	0.148292	-0.161571
H70	H	0.868677	0.251587	-0.148224
H71	H	0.870918	0.129642	-0.221961
H72	H	0.749052	0.131382	-0.148187
O73	O	1.384516	-0.383716	0.120014
C74	C	1.468262	-0.467877	0.161639
H75	H	1.571563	-0.451413	0.148301
H76	H	1.449578	-0.449223	0.222029
H77	H	1.451366	-0.571046	0.148245
H78	H	1.730204	-0.418089	0.000115
O79	O	1.338939	0.357557	0.340154
C80	C	1.259616	0.288473	0.384251
H81	H	1.309513	0.189154	0.395672
H82	H	1.239936	0.341523	0.437851
H83	H	1.165259	0.278880	0.354889
O84	O	1.339185	0.357707	0.810395
C85	C	1.357600	0.339271	0.885846
H86	H	1.458577	0.292591	0.896250
H87	H	1.344289	0.435736	0.914811
H88	H	1.284824	0.274584	0.907489
H89	H	1.074486	0.302340	0.110199
O90	O	1.678118	0.019305	0.659992
C91	C	1.757402	0.088454	0.615908
H92	H	1.760359	0.189090	0.638873
H93	H	1.858348	0.037482	0.615081
H94	H	1.717614	0.094706	0.558123
O95	O	0.936634	0.064131	0.119926
C96	C	0.995296	-0.062514	0.119687
H97	H	1.085456	-0.067801	0.084733
H98	H	1.021891	-0.092855	0.177755
H99	H	0.925977	-0.129293	0.096382
H100	H	1.664422	0.032581	0.804283
H101	H	1.536867	-0.022076	0.430908
H102	H	1.480066	0.398906	0.569165
O103	O	1.339010	0.357601	0.189689
C104	C	1.357455	0.339207	0.114236
H105	H	1.404197	0.238254	0.103827
H106	H	1.260988	0.352460	0.085272
H107	H	1.422093	0.412030	0.092596
O108	O	1.124946	-0.052733	-0.000123
C109	C	1.202879	-0.070463	-0.062540
H110	H	1.228382	0.026491	-0.083055
H111	H	1.294323	-0.132949	-0.048185
H112	H	1.148952	-0.119268	-0.106850
H113	H	1.074285	0.302348	-0.110265
O114	O	1.677886	0.018951	0.189905
C115	C	1.753773	-0.056830	0.239890
H116	H	1.701474	-0.058774	0.294234
H117	H	1.772299	-0.158515	0.217875
H118	H	1.848907	-0.014482	0.247979
H119	H	1.664359	0.032573	0.334071
H120	H	1.536882	-0.022069	0.569199
