data_functionalizedCrystal
_audit_creation_method	'MofGen! by Chris Wilmer'
_symmetry_space_group_name_H-M	'P1'
_symmetry_Int_Tables_number	1
_symmetry_cell_setting	triclinic
loop_
_symmetry_equiv_pos_as_xyz
  x,y,z
_cell_length_a	19.188930
_cell_length_b	14.044220
_cell_length_c	12.503572
_cell_angle_alpha	93.835250
_cell_angle_beta	93.506241
_cell_angle_gamma	91.833170
loop_
_atom_site_label
_atom_site_type_symbol
_atom_site_fract_x
_atom_site_fract_y
_atom_site_fract_z
O1	O	0.164589	-1.262485	-0.089229
O2	O	0.158515	-0.986542	-0.089255
O3	O	0.060411	-1.132475	-0.089220
O4	O	0.262693	-1.116552	-0.089264
O5	O	0.067803	-1.121500	0.089419
O6	O	0.165907	-0.975567	0.089384
O7	O	0.171980	-1.251510	0.089411
Cu8	Cu	0.169618	-1.112536	0.105709
Cu9	Cu	0.160877	-1.125516	-0.105553
O10	O	0.270084	-1.105577	0.089376
C11	C	0.159553	-0.945752	0.000061
C12	C	0.151624	-0.840559	0.000052
C13	C	0.038063	-1.126472	0.000102
C14	C	-0.039541	-1.124923	0.000112
N15	N	0.175766	-1.103414	0.254299
C16	C	-0.078939	-1.210552	0.000125
C17	C	-0.151857	-1.209099	0.000108
C18	C	-0.185374	-1.122010	0.000098
C19	C	-0.145968	-1.036370	0.000079
C20	C	-0.073051	-1.037826	0.000086
N21	N	-0.295160	-1.051706	0.060886
N22	N	-0.364427	-1.050328	0.060882
C23	C	-0.405067	-1.117616	0.000076
N24	N	-0.373823	-1.186348	-0.060712
N25	N	-0.304548	-1.187729	-0.060704
C26	C	-0.264440	-1.120421	0.000091
C27	C	-0.523532	-1.201676	0.000069
C28	C	-0.596451	-1.200219	0.000045
C29	C	-0.590560	-1.027487	0.000028
C30	C	-0.517642	-1.028947	0.000041
C31	C	-0.484132	-1.116043	0.000067
C32	C	0.292433	-1.111580	0.000051
C33	C	0.370037	-1.113129	0.000034
C34	C	0.170943	-1.292301	0.000092
C35	C	0.178872	-1.397493	0.000094
C36	C	0.137129	-0.647956	0.000077
C37	C	0.193363	-0.590090	0.000069
C38	C	0.185298	-0.482920	0.000083
C39	C	0.145193	-0.755137	0.000063
N40	N	0.154724	-1.134645	-0.254143
C41	C	0.184816	-1.089995	0.473411
C42	C	0.145676	-1.148061	0.526752
C43	C	0.150712	-1.140595	0.648673
C44	C	0.179782	-1.097461	0.351478
H45	H	-0.051660	-1.281473	0.000142
O46	O	0.229212	-1.023962	0.528278
C47	C	0.190886	-0.961623	0.593324
H48	H	0.139263	-0.998459	0.610036
H49	H	0.180089	-0.894187	0.550075
C50	C	0.296744	-0.889621	0.679694
C51	C	0.233342	-0.934867	0.700229
H52	H	0.322933	-0.873113	0.745637
H53	H	0.322565	-0.931617	0.635870
H54	H	0.287737	-0.833429	0.643651
H55	H	0.242349	-0.991064	0.736258
H56	H	0.207523	-0.892880	0.744062
H57	H	-0.173262	-0.965462	0.000069
H58	H	0.108386	-1.203381	0.480852
H59	H	0.247564	-0.621038	0.000052
H60	H	0.082933	-0.617011	0.000094
O61	O	-0.634655	-1.283476	-0.000087
C62	C	-0.622453	-1.342053	-0.092604
H63	H	-0.569945	-1.320449	-0.123445
H64	H	-0.665754	-1.333250	-0.157400
C65	C	-0.686052	-1.473649	-0.026597
C66	C	-0.621558	-1.447120	-0.064471
H67	H	-0.685503	-1.538460	-0.009246
H68	H	-0.694275	-1.434184	0.035732
H69	H	-0.722129	-1.466305	-0.080600
H70	H	-0.585484	-1.454452	-0.010464
H71	H	-0.613329	-1.486588	-0.126791
H72	H	-0.040973	-0.968095	0.000075
H73	H	-0.183941	-1.278831	0.000114
O74	O	-0.490901	-1.286225	-0.000063
C75	C	-0.452726	-1.297925	-0.092588
H76	H	-0.440520	-1.225052	-0.123435
H77	H	-0.484950	-1.343962	-0.157375
C78	C	-0.398978	-1.436457	-0.026583
C79	C	-0.383981	-1.346953	-0.064464
H80	H	-0.356574	-1.466703	-0.009238
H81	H	-0.424699	-1.428578	0.035751
H82	H	-0.425833	-1.474809	-0.080579
H83	H	-0.357134	-1.308598	-0.010464
H84	H	-0.358254	-1.354826	-0.126789
H85	H	-0.617849	-0.956578	0.000015
H86	H	-0.485563	-0.959218	0.000036
