data_functionalizedCrystal
_audit_creation_method	'MofGen! by Chris Wilmer'
_symmetry_space_group_name_H-M	'P1'
_symmetry_Int_Tables_number	1
_symmetry_cell_setting	triclinic
loop_
_symmetry_equiv_pos_as_xyz
  x,y,z
_cell_length_a	16.120530
_cell_length_b	16.120484
_cell_length_c	16.120256
_cell_angle_alpha	84.383827
_cell_angle_beta	89.871735
_cell_angle_gamma	90.167327
loop_
_atom_site_label
_atom_site_type_symbol
_atom_site_fract_x
_atom_site_fract_y
_atom_site_fract_z
Zn1	Zn	1.224986	-0.422281	0.554816
Zn2	Zn	1.724986	0.077719	1.054816
Zn3	Zn	1.224882	-0.554961	0.422121
Zn4	Zn	1.724882	-0.054961	0.922121
Zn5	Zn	1.093725	-0.408193	0.408058
Zn6	Zn	1.593725	0.091807	0.908058
Zn7	Zn	1.078879	-0.554198	0.554054
Zn8	Zn	1.578879	-0.054198	1.054054
O9	O	1.155618	-0.484908	0.484762
O10	O	1.655618	0.015092	0.984762
O11	O	1.341008	-0.446097	0.543418
O12	O	1.841008	0.053903	1.043418
O13	O	1.213653	-0.529915	0.303622
O14	O	1.713653	-0.029915	0.803622
O15	O	1.117394	-0.293431	0.421960
O16	O	1.617394	0.206569	0.921960
O17	O	1.340931	-0.543577	0.445927
O18	O	1.840931	-0.043577	0.945927
O19	O	1.213831	-0.303782	0.529783
O20	O	1.713831	0.196218	1.029783
O21	O	1.117293	-0.422085	0.293290
O22	O	1.617293	0.077915	0.793290
O23	O	0.975720	-0.421345	0.421221
O24	O	1.475720	0.078655	0.921221
O25	O	1.092090	-0.542275	0.670788
O26	O	1.592090	-0.042275	1.170788
O27	O	0.964812	-0.528614	0.528483
O28	O	1.464812	-0.028614	1.028483
O29	O	1.199435	-0.445357	0.671349
O30	O	1.699435	0.054643	1.171349
O31	O	1.199257	-0.671491	0.445188
O32	O	1.699257	-0.171491	0.945188
O33	O	1.091989	-0.670930	0.542119
O34	O	1.591989	-0.170930	1.042119
C35	C	0.940179	-0.473368	0.473243
C36	C	1.440179	0.026632	0.973243
C37	C	0.848012	-0.468453	0.468336
C38	C	1.348012	0.031547	0.968336
C39	C	1.144022	-0.701453	0.495116
C40	C	1.644022	-0.201453	0.995116
C41	C	1.139136	-0.794098	0.499577
C42	C	1.639136	-0.294098	0.999577
C43	C	0.679260	-0.459459	0.459384
C44	C	1.179260	0.040541	0.959384
C45	C	0.632809	-0.510422	0.510204
C46	C	1.132809	-0.010422	1.010204
C47	C	0.538910	-0.505418	0.505223
C48	C	1.038910	-0.005418	1.005223
C49	C	0.773168	-0.464462	0.464364
C50	C	1.273168	0.035538	0.964364
C51	C	1.130219	-0.963721	0.507739
C52	C	1.630219	-0.463721	1.007739
C53	C	1.181165	-1.005263	0.461807
C54	C	1.681165	-0.505263	0.961807
C55	C	1.176203	-1.099648	0.466348
C56	C	1.676203	-0.599648	0.966348
C57	C	1.135179	-0.869328	0.503199
C58	C	1.635179	-0.369328	1.003199
C59	C	1.371898	-0.496494	0.496326
C60	C	1.871898	0.003506	0.996326
C61	C	1.464063	-0.501431	0.501254
C62	C	1.964063	-0.001431	1.001254
C63	C	1.144118	-0.495303	0.702156
C64	C	1.644118	0.004697	1.202156
C65	C	1.139217	-0.499732	0.794796
C66	C	1.639217	0.000268	1.294796
C67	C	1.167280	-0.267520	0.474388
C68	C	1.667280	0.232480	0.974388
C69	C	1.172250	-0.174881	0.469967
C70	C	1.672250	0.325119	0.969967
C71	C	1.167124	-0.474497	0.268214
C72	C	1.667124	0.025503	0.768214
C73	C	1.172198	-0.469841	0.175572
C74	C	1.672198	0.030159	0.675572
C75	C	1.181174	-0.461788	1.005960
C76	C	1.681174	0.038212	1.505960
C77	C	1.130244	-0.507783	0.964402
C78	C	1.630244	-0.007783	1.464402
C79	C	1.135238	-0.503302	0.870024
C80	C	1.635238	-0.003302	1.370024
C81	C	1.176181	-0.466268	1.100346
C82	C	1.676181	0.033732	1.600346
H83	H	0.648510	-0.412073	0.412137
H84	H	1.148510	0.087927	0.912137
H85	H	1.228507	-0.969944	0.419071
H86	H	1.728507	-0.469944	0.919071
C87	C	1.073698	-1.097020	0.558800
C88	C	1.573698	-0.597020	1.058800
C89	C	1.066303	-1.011394	0.565419
C90	C	1.566303	-0.511394	1.065419
H91	H	1.034234	-1.126456	0.594403
H92	H	1.534234	-0.626456	1.094403
H93	H	1.128016	-1.114741	0.574698
H94	H	1.628016	-0.614741	1.074698
H95	H	1.063845	-1.107934	0.502809
H96	H	1.563845	-0.607934	1.002809
H97	H	1.076162	-1.000478	0.621409
H98	H	1.576162	-0.500478	1.121409
H99	H	1.011972	-0.993667	0.549526
H100	H	1.511972	-0.493667	1.049526
C101	C	0.613154	-0.620561	0.620014
C102	C	1.113154	-0.120561	1.120014
C103	C	0.674316	-0.574404	0.573988
C104	C	1.174316	-0.074404	1.073988
H105	H	0.638783	-0.660056	0.659391
H106	H	1.138783	-0.160056	1.159391
H107	H	0.579579	-0.648875	0.583410
H108	H	1.079579	-0.148875	1.083410
H109	H	0.579628	-0.584054	0.648468
H110	H	1.079628	-0.084054	1.148468
H111	H	0.707838	-0.610911	0.545530
H112	H	1.207838	-0.110911	1.045530
H113	H	0.707905	-0.546089	0.610598
H114	H	1.207905	-0.046089	1.110598
H115	H	1.082887	-0.550521	0.999702
H116	H	1.582887	-0.050521	1.499702
C117	C	1.237740	-0.410781	0.872689
C118	C	1.737740	0.089219	1.372689
C119	C	1.245105	-0.404098	0.958313
C120	C	1.745105	0.095902	1.458313
H121	H	1.277214	-0.375172	0.843269
H122	H	1.777214	0.124828	1.343269
H123	H	1.183428	-0.394928	0.854905
H124	H	1.683428	0.105072	1.354905
H125	H	1.247599	-0.466776	0.861823
H126	H	1.747599	0.033224	1.361823
H127	H	1.235240	-0.348104	0.969180
H128	H	1.735240	0.151896	1.469180
H129	H	1.299429	-0.419947	0.976103
H130	H	1.799429	0.080053	1.476103
