data_functionalizedCrystal
_audit_creation_method	'MofGen! by Chris Wilmer'
_symmetry_space_group_name_H-M	'P1'
_symmetry_Int_Tables_number	1
_symmetry_cell_setting	triclinic
loop_
_symmetry_equiv_pos_as_xyz
  x,y,z
_cell_length_a	27.732064
_cell_length_b	27.732048
_cell_length_c	26.809956
_cell_angle_alpha	89.999364
_cell_angle_beta	89.998878
_cell_angle_gamma	82.646040
loop_
_atom_site_label
_atom_site_type_symbol
_atom_site_fract_x
_atom_site_fract_y
_atom_site_fract_z
O1	O	0.640926	0.057548	-0.041396
O2	O	0.500133	0.066285	-0.041417
O3	O	0.574902	-0.008480	-0.041396
O4	O	0.566157	0.132313	-0.041417
O5	O	0.574888	-0.008468	0.041563
O6	O	0.500119	0.066297	0.041542
O7	O	0.640912	0.057560	0.041563
Zn8	Zn	0.570513	0.061930	0.054724
Zn9	Zn	0.570532	0.061915	-0.054578
O10	O	0.566143	0.132325	0.041543
C11	C	0.482120	0.066106	0.000060
C12	C	0.428465	0.065551	0.000052
C13	C	0.051392	0.017583	0.000087
C14	C	0.253053	0.019630	0.000074
O15	O	0.284305	-0.017591	0.000098
N16	N	0.272180	0.063964	0.000066
C17	C	0.240889	0.107790	0.000064
O18	O	0.261785	0.145546	0.000061
C19	C	0.039230	0.105743	0.000080
C20	C	0.020105	0.061406	0.000084
C21	C	0.032267	-0.026750	0.000092
C22	C	-0.018145	-0.027261	0.000092
C23	C	-0.049432	0.016561	0.000089
C24	C	-0.030307	0.060895	0.000085
C25	C	0.007940	0.149568	0.000082
C26	C	-0.042478	0.149053	0.000087
C27	C	-0.061602	0.104716	0.000091
C28	C	-0.112006	0.104206	0.000082
N29	N	-0.131134	0.059872	0.000090
C30	C	-0.099846	0.016049	0.000094
C31	C	0.346763	0.108861	0.000054
C32	C	0.397178	0.109373	0.000049
C33	C	0.409338	0.021213	0.000060
C34	C	0.358923	0.020701	0.000062
C35	C	0.327636	0.064527	0.000062
C36	C	-0.205716	0.014979	0.000095
C37	C	-0.256133	0.014472	0.000093
C38	C	-0.268289	0.102632	0.000084
C39	C	-0.217876	0.103140	0.000083
C40	C	-0.186590	0.059309	0.000090
O41	O	-0.143287	0.141407	0.000063
O42	O	-0.120752	-0.021701	0.000107
C43	C	0.101804	0.018094	0.000087
C44	C	0.120930	0.062428	0.000083
C45	C	0.089642	0.106250	0.000079
C46	C	0.171344	0.062940	0.000078
C47	C	0.202631	0.019117	0.000081
C48	C	0.183504	-0.025217	0.000090
C49	C	0.133092	-0.025728	0.000090
C50	C	0.108770	0.150585	0.000071
C51	C	0.159183	0.151092	0.000069
C52	C	0.190470	0.107270	0.000073
C53	C	0.574712	-0.026481	0.000085
C54	C	0.574159	-0.080136	0.000089
C55	C	0.614862	-0.418948	0.000069
C56	C	0.612811	-0.620608	0.000062
O57	O	0.650032	-0.651862	0.000046
N58	N	0.568476	-0.639735	0.000056
C59	C	0.524651	-0.608442	0.000048
O60	O	0.486895	-0.629338	0.000037
C61	C	0.526703	-0.406784	0.000052
C62	C	0.571040	-0.387660	0.000063
C63	C	0.659196	-0.399824	0.000080
C64	C	0.659709	-0.349412	0.000084
C65	C	0.615887	-0.318124	0.000078
C66	C	0.571553	-0.337248	0.000067
C67	C	0.482878	-0.375493	0.000040
C68	C	0.483395	-0.325075	0.000040
C69	C	0.527733	-0.305952	0.000051
C70	C	0.528243	-0.255548	0.000066
N71	N	0.572578	-0.236422	0.000072
C72	C	0.616400	-0.267710	0.000078
C73	C	0.523577	-0.714317	0.000047
C74	C	0.523064	-0.764731	0.000047
C75	C	0.611225	-0.776893	0.000060
C76	C	0.611737	-0.726478	0.000064
C77	C	0.567912	-0.695190	0.000053
C78	C	0.617472	-0.161841	0.000088
C79	C	0.617981	-0.111424	0.000095
C80	C	0.529821	-0.099266	0.000079
C81	C	0.529312	-0.149679	0.000075
C82	C	0.573142	-0.180965	0.000078
O83	O	0.491043	-0.224267	0.000076
O84	O	0.654151	-0.246805	0.000078
C85	C	0.614350	-0.469360	0.000065
C86	C	0.570016	-0.488484	0.000054
C87	C	0.526194	-0.457196	0.000048
C88	C	0.569503	-0.538899	0.000054
C89	C	0.613325	-0.570187	0.000060
C90	C	0.657660	-0.551060	0.000066
C91	C	0.658172	-0.500648	0.000071
C92	C	0.481859	-0.476323	0.000041
C93	C	0.481351	-0.526735	0.000037
C94	C	0.525172	-0.558023	0.000044
C95	C	0.658925	0.057739	0.000085
C96	C	0.712580	0.058295	0.000090
C97	C	0.566333	0.150326	0.000060
C98	C	0.566886	0.203981	0.000053
N99	N	0.570504	0.061940	0.129320
N100	N	0.570545	0.061901	-0.129174
C101	C	0.603635	0.028817	0.473955
C102	C	0.603647	0.028810	0.682833
O103	O	0.631796	0.000651	0.709845
N104	N	0.570534	0.061904	0.708947
C105	C	0.537415	0.095001	0.682839
O106	O	0.509248	0.123147	0.709843
C107	C	0.537402	0.095006	0.473962
C108	C	0.570519	0.061912	0.447851
C109	C	0.636750	-0.004274	0.447844
C110	C	0.636748	-0.004270	0.395628
C111	C	0.603632	0.028825	0.369523
C112	C	0.570518	0.061916	0.395634
C113	C	0.504280	0.128100	0.447855
C114	C	0.504279	0.128097	0.395632
C115	C	0.537397	0.095004	0.369521
C116	C	0.537400	0.095015	0.317313
N117	N	0.570512	0.061921	0.291199
C118	C	0.603628	0.028826	0.317304
C119	C	0.537425	0.094997	0.792502
C120	C	0.537429	0.094996	0.844721
C121	C	0.603660	0.028804	0.844712
C122	C	0.603658	0.028808	0.792492
C123	C	0.570537	0.061902	0.766388
C124	C	0.603623	0.028837	0.207646
C125	C	0.603620	0.028845	0.155425
C126	C	0.537387	0.095035	0.155439
C127	C	0.537392	0.095029	0.207655
C128	C	0.570512	0.061926	0.233757
O129	O	0.509262	0.123156	0.290269
O130	O	0.631784	0.000677	0.290290
C131	C	0.603637	0.028813	0.526172
C132	C	0.570522	0.061904	0.552283
C133	C	0.537406	0.095000	0.526178
C134	C	0.570526	0.061904	0.604502
C135	C	0.603642	0.028809	0.630607
C136	C	0.636754	-0.004286	0.604493
C137	C	0.636753	-0.004282	0.552277
C138	C	0.504294	0.128094	0.552293
C139	C	0.504298	0.128088	0.604509
C140	C	0.537414	0.094993	0.630614
H141	H	-0.180248	-0.020712	0.000100
F142	F	0.469046	0.163320	0.524516
F143	F	0.475874	-0.785078	0.000044
H144	H	0.695813	-0.333847	0.000092
F145	F	0.671999	-0.039502	0.475620
H146	H	0.510426	0.121982	0.134176
F147	F	0.638905	-0.006418	0.872504
F148	F	0.638873	-0.006395	0.235418
F149	F	0.672001	-0.039505	0.524493
H150	H	-0.067950	0.184742	0.000090
H151	H	0.510466	0.121949	0.865977
F152	F	0.313471	0.155510	0.000051
H153	H	0.654087	-0.095857	0.000105
F154	F	0.638906	-0.006415	0.764707
F155	F	-0.197522	0.150328	0.000073
H156	H	0.653163	-0.187309	0.000089
H157	H	0.663714	-0.031219	0.374371
F158	F	-0.276483	-0.032719	0.000094
F159	F	-0.038492	-0.074451	0.000092
H160	H	0.646906	-0.802377	0.000065
H161	H	0.057737	-0.062438	0.000096
F162	F	0.338574	-0.026488	0.000067
F163	F	0.672000	-0.039507	0.632285
F164	F	0.216811	-0.071856	0.000091
F165	F	0.028282	0.196759	0.000078
H166	H	0.434821	-0.014469	0.000061
F167	F	0.075478	0.197229	0.000066
F168	F	0.179530	0.198285	0.000062
H169	H	0.412744	0.145477	0.000039
F170	F	0.705842	-0.433117	0.000086
F171	F	-0.301595	0.149269	0.000078
H172	H	0.694276	-0.485083	0.000080
H173	H	0.117526	-0.061832	0.000093
F174	F	0.469050	0.163315	0.632294
H175	H	0.647841	-0.710911	0.000072
F176	F	0.476930	-0.681023	0.000036
H177	H	0.446774	-0.391054	0.000028
H178	H	0.510453	0.121948	0.771252
H179	H	0.447706	-0.299603	0.000031
H180	H	0.477313	0.155047	0.469107
F181	F	0.435215	-0.443029	0.000033
F182	F	0.704298	-0.584368	0.000076
F183	F	0.482123	-0.170032	0.000072
H184	H	0.630590	0.001896	0.134167
F185	F	0.483185	-0.065958	0.000073
H186	H	0.445243	-0.542300	0.000033
H187	H	0.477306	0.155047	0.374381
F188	F	0.502149	0.130256	0.235444
