data_functionalizedCrystal
_audit_creation_method	'MofGen! by Chris Wilmer'
_symmetry_space_group_name_H-M	'P1'
_symmetry_Int_Tables_number	1
_symmetry_cell_setting	triclinic
loop_
_symmetry_equiv_pos_as_xyz
  x,y,z
_cell_length_a	19.188928
_cell_length_b	17.666332
_cell_length_c	19.188930
_cell_angle_alpha	90.010342
_cell_angle_beta	96.855705
_cell_angle_gamma	89.974047
loop_
_atom_site_label
_atom_site_type_symbol
_atom_site_fract_x
_atom_site_fract_y
_atom_site_fract_z
O1	O	-0.926151	0.063250	0.087160
O2	O	-0.592817	0.396583	0.420493
O3	O	-0.259484	0.729916	0.753826
O4	O	-0.722839	0.063188	0.098896
O5	O	-0.389506	0.396521	0.432229
O6	O	-0.056173	0.729855	0.765562
O7	O	-0.830362	0.063206	-0.008628
O8	O	-0.497029	0.396539	0.324705
O9	O	-0.163695	0.729872	0.658039
O10	O	-0.818628	0.063232	0.194683
O11	O	-0.485295	0.396565	0.528017
O12	O	-0.151961	0.729898	0.861350
O13	O	-0.830343	-0.062691	-0.008631
O14	O	-0.497010	0.270642	0.324702
O15	O	-0.163677	0.603976	0.658036
O16	O	-0.722820	-0.062709	0.098893
O17	O	-0.389487	0.270625	0.432226
O18	O	-0.056154	0.603958	0.765559
O19	O	-0.926132	-0.062647	0.087157
O20	O	-0.592799	0.270686	0.420490
O21	O	-0.259465	0.604020	0.753823
Cu22	Cu	-0.824474	-0.074173	0.093024
Cu23	Cu	-0.491141	0.259160	0.426358
Cu24	Cu	-0.157808	0.592493	0.759691
Cu25	Cu	-0.824497	0.074714	0.093028
Cu26	Cu	-0.491163	0.408048	0.426361
Cu27	Cu	-0.157830	0.741381	0.759695
O28	O	-0.818609	-0.062665	0.194680
O29	O	-0.485276	0.270668	0.528014
O30	O	-0.151942	0.604002	0.861347
C31	C	-0.696819	0.000232	0.098514
C32	C	-0.363485	0.333565	0.431848
C33	C	-0.030152	0.666898	0.765181
C34	C	-0.619314	0.000207	0.097374
C35	C	-0.285981	0.333541	0.430708
C36	C	0.047353	0.666874	0.764041
N37	N	-0.824464	-0.178893	0.093021
N38	N	-0.491130	0.154441	0.426355
N39	N	-0.157797	0.487774	0.759688
C40	C	-0.574390	0.000225	0.160465
C41	C	-0.241057	0.333558	0.493799
C42	C	0.092277	0.666892	0.827132
C43	C	-0.501566	0.000229	0.159394
C44	C	-0.168233	0.333563	0.492728
C45	C	0.165100	0.666896	0.826061
C46	C	-0.473670	0.000231	0.095229
C47	C	-0.140336	0.333564	0.428562
C48	C	0.192997	0.666898	0.761895
C49	C	-0.518603	0.000209	0.032129
C50	C	-0.185270	0.333542	0.365462
C51	C	0.148063	0.666876	0.698796
C52	C	-0.591426	0.000197	0.033202
C53	C	-0.258092	0.333531	0.366535
C54	C	0.075241	0.666864	0.699869
N55	N	-0.365696	0.043098	0.046184
N56	N	-0.032362	0.376431	0.379517
N57	N	0.300971	0.709764	0.712850
N58	N	-0.296517	0.043110	0.045169
N59	N	0.036816	0.376444	0.378502
N60	N	0.370150	0.709777	0.711835
C61	C	-0.254261	0.000265	0.091992
C62	C	0.079073	0.333599	0.425326
C63	C	0.412406	0.666932	0.758659
N64	N	-0.283795	-0.042584	0.139880
N65	N	0.049538	0.290750	0.473213
N66	N	0.382872	0.624083	0.806546
N67	N	-0.352980	-0.042593	0.140897
N68	N	-0.019647	0.290740	0.474230
N69	N	0.313687	0.624073	0.807563
C70	C	-0.394707	0.000244	0.094058
C71	C	-0.061374	0.333577	0.427391
C72	C	0.271960	0.666910	0.760725
C73	C	-0.130372	0.000287	0.153927
C74	C	0.202961	0.333620	0.487260
C75	C	0.536294	0.666953	0.820593
C76	C	-0.057547	0.000286	0.152853
C77	C	0.275786	0.333620	0.486186
C78	C	0.609119	0.666953	0.819520
C79	C	-0.074586	0.000274	0.025586
C80	C	0.258747	0.333607	0.358919
C81	C	0.592080	0.666940	0.692252
C82	C	-0.147409	0.000266	0.026661
C83	C	0.185924	0.333600	0.359995
C84	C	0.519257	0.666933	0.693328
C85	C	-0.175298	0.000276	0.090834
C86	C	0.158036	0.333610	0.424167
C87	C	0.491369	0.666943	0.757500
C88	C	0.047848	0.000298	0.087540
C89	C	0.381181	0.333631	0.420873
C90	C	0.714515	0.666964	0.754207
C91	C	-0.029656	0.000287	0.088686
C92	C	0.303678	0.333620	0.422020
C93	C	0.637011	0.666953	0.755353
C94	C	-0.866673	-0.218477	0.135266
C95	C	-0.533339	0.114856	0.468600
C96	C	-0.200006	0.448190	0.801933
C97	C	-0.866684	-0.297724	0.135264
C98	C	-0.533351	0.035609	0.468598
C99	C	-0.200017	0.368942	0.801931
C100	C	-0.824473	-0.337385	0.093025
C101	C	-0.491140	-0.004052	0.426359
C102	C	-0.157806	0.329282	0.759692
C103	C	-0.782261	-0.297791	0.050772
C104	C	-0.448928	0.035542	0.384105
C105	C	-0.115595	0.368875	0.717438
C106	C	-0.782257	-0.218545	0.050770
C107	C	-0.448923	0.114788	0.384103
C108	C	-0.115590	0.448121	0.717436
N109	N	-0.763325	-0.461844	0.091306
N110	N	-0.429991	-0.128510	0.424639
N111	N	-0.096658	0.204823	0.757972
N112	N	-0.763331	-0.537124	0.091312
N113	N	-0.429998	-0.203791	0.424645
N114	N	-0.096664	0.129543	0.757978
C115	C	-0.824486	-0.576149	0.093028
C116	C	-0.491152	-0.242816	0.426361
C117	C	-0.157819	0.090518	0.759694
N118	N	-0.885635	-0.537049	0.094751
N119	N	-0.552301	-0.203716	0.428085
N120	N	-0.218968	0.129617	0.761418
N121	N	-0.885628	-0.461762	0.094749
N122	N	-0.552294	-0.128429	0.428082
N123	N	-0.218961	0.204905	0.761416
C124	C	-0.824474	-0.423314	0.093022
C125	C	-0.491140	-0.089981	0.426356
C126	C	-0.157807	0.243353	0.759689
C127	C	-0.866711	-0.701662	0.135273
C128	C	-0.533377	-0.368329	0.468606
C129	C	-0.200044	-0.034996	0.801939
C130	C	-0.866723	-0.780911	0.135266
C131	C	-0.533390	-0.447578	0.468599
C132	C	-0.200057	-0.114245	0.801932
C133	C	-0.782294	-0.780977	0.050777
C134	C	-0.448961	-0.447643	0.384110
C135	C	-0.115628	-0.114310	0.717444
C136	C	-0.782288	-0.701729	0.050780
C137	C	-0.448955	-0.368396	0.384113
C138	C	-0.115621	-0.035062	0.717447
C139	C	-0.824495	-0.662077	0.093032
C140	C	-0.491162	-0.328743	0.426365
C141	C	-0.157828	0.004590	0.759698
C142	C	-0.829973	0.000255	-0.034641
C143	C	-0.496639	0.333588	0.298693
C144	C	-0.163306	0.666922	0.632026
C145	C	-0.828832	0.000248	-0.112145
C146	C	-0.495499	0.333582	0.221188
C147	C	-0.162165	0.666915	0.554522
N148	N	-0.824513	0.179434	0.093025
N149	N	-0.491180	0.512767	0.426359
N150	N	-0.157846	0.846100	0.759692
C151	C	-0.891923	0.000264	-0.157070
C152	C	-0.558590	0.333597	0.176264
C153	C	-0.225256	0.666930	0.509597
C154	C	-0.890851	0.000276	-0.229893
C155	C	-0.557518	0.333609	0.103440
C156	C	-0.224185	0.666942	0.436773
C157	C	-0.826685	0.000257	-0.257789
C158	C	-0.493352	0.333590	0.075544
C159	C	-0.160018	0.666923	0.408877
C160	C	-0.763586	0.000245	-0.212855
C161	C	-0.430252	0.333579	0.120478
C162	C	-0.096919	0.666912	0.453812
C163	C	-0.764659	0.000241	-0.140033
C164	C	-0.431326	0.333575	0.193300
C165	C	-0.097993	0.666908	0.526634
N166	N	-0.777631	-0.042603	-0.365795
N167	N	-0.444298	0.290730	-0.032462
N168	N	-0.110965	0.624063	0.300872
N169	N	-0.776616	-0.042601	-0.434974
N170	N	-0.443282	0.290732	-0.101640
N171	N	-0.109949	0.624066	0.231693
C172	C	-0.823447	0.000271	-0.477198
C173	C	-0.490114	0.333604	-0.143865
C174	C	-0.156780	0.666938	0.189469
N175	N	-0.871342	0.043131	-0.447632
N176	N	-0.538009	0.376464	-0.114299
N177	N	-0.204676	0.709798	0.219035
N178	N	-0.872360	0.043125	-0.378447
N179	N	-0.539027	0.376458	-0.045114
N180	N	-0.205693	0.709792	0.288219
C181	C	-0.825514	0.000262	-0.336752
C182	C	-0.492181	0.333595	-0.003419
C183	C	-0.158847	0.666928	0.329915
C184	C	-0.885380	0.000300	-0.601087
C185	C	-0.552047	0.333634	-0.267754
C186	C	-0.218714	0.666967	0.065580
C187	C	-0.884306	0.000317	-0.673912
C188	C	-0.550973	0.333650	-0.340578
C189	C	-0.217639	0.666984	-0.007245
C190	C	-0.757039	0.000279	-0.656872
C191	C	-0.423705	0.333612	-0.323538
C192	C	-0.090372	0.666946	0.009795
C193	C	-0.758115	0.000270	-0.584049
C194	C	-0.424781	0.333604	-0.250715
C195	C	-0.091448	0.666937	0.082618
C196	C	-0.822287	0.000277	-0.556161
C197	C	-0.488954	0.333611	-0.222828
C198	C	-0.155621	0.666944	0.110506
C199	C	-0.818998	0.000287	0.220693
C200	C	-0.485665	0.333621	0.554026
C201	C	-0.152332	0.666954	0.887359
C202	C	-0.820139	0.000299	0.298197
C203	C	-0.486806	0.333633	0.631531
C204	C	-0.153472	0.666966	0.964864
H205	H	-0.597092	0.000235	0.212720
H206	H	-0.263758	0.333568	0.546053
H207	H	0.069575	0.666901	0.879386
Cl208	Cl	-0.647905	0.000176	-0.046120
Cl209	Cl	-0.314572	0.333509	0.287214
Cl210	Cl	0.018762	0.666842	0.620547
H211	H	-0.020970	0.000296	0.204232
H212	H	0.312363	0.333630	0.537565
H213	H	0.645697	0.666963	0.870898
H214	H	-0.153080	0.000284	0.206180
H215	H	0.180253	0.333617	0.539513
H216	H	0.513587	0.666950	0.872846
H217	H	-0.713281	0.000228	-0.103455
H218	H	-0.379948	0.333562	0.229879
H219	H	-0.046615	0.666895	0.563212
H220	H	-0.747914	-0.669499	0.016382
H221	H	-0.414581	-0.336166	0.349716
H222	H	-0.081247	-0.002833	0.683049
H223	H	-0.747894	-0.330088	0.016380
H224	H	-0.414561	0.003245	0.349713
H225	H	-0.081227	0.336579	0.683046
H226	H	-0.495885	0.000221	-0.020115
H227	H	-0.162552	0.333554	0.313218
H228	H	0.170781	0.666888	0.646551
Cl229	Cl	-0.729185	-0.168780	-0.002339
Cl230	Cl	-0.395852	0.164554	0.330995
Cl231	Cl	-0.062518	0.497887	0.664328
H232	H	-0.901044	-0.186197	0.169668
H233	H	-0.567710	0.147137	0.503001
H234	H	-0.234377	0.480470	0.836335
Cl235	Cl	-0.972597	0.000294	-0.122014
Cl236	Cl	-0.639264	0.333627	0.211319
Cl237	Cl	-0.305930	0.666961	0.544652
H238	H	-0.901079	-0.669376	0.169676
H239	H	-0.567745	-0.336042	0.503009
H240	H	-0.234412	-0.002709	0.836343
Cl241	Cl	-0.919795	-0.830675	0.188375
Cl242	Cl	-0.586461	-0.497342	0.521709
Cl243	Cl	-0.253128	-0.164008	0.855042
Cl244	Cl	-0.970172	0.000296	-0.286380
Cl245	Cl	-0.636838	0.333629	0.046953
Cl246	Cl	-0.303505	0.666962	0.380286
Cl247	Cl	-0.729237	-0.830828	-0.002332
Cl248	Cl	-0.395903	-0.497495	0.331001
Cl249	Cl	-0.062570	-0.164161	0.664334
Cl250	Cl	-0.682920	0.000228	-0.247923
Cl251	Cl	-0.349586	0.333561	0.085410
Cl252	Cl	-0.016253	0.666894	0.418743
H253	H	-0.464982	0.000242	0.210773
H254	H	-0.131649	0.333575	0.544106
H255	H	0.201685	0.666908	0.877439
Cl256	Cl	-0.966053	0.000305	-0.566024
Cl257	Cl	-0.632719	0.333638	-0.232691
Cl258	Cl	-0.299386	0.666972	0.100642
Cl259	Cl	-0.039523	0.000267	-0.055081
Cl260	Cl	0.293810	0.333600	0.278252
Cl261	Cl	0.627144	0.666933	0.611586
Cl262	Cl	-0.963628	0.000341	-0.730390
Cl263	Cl	-0.630295	0.333675	-0.397057
Cl264	Cl	-0.296961	0.667008	-0.063723
Cl265	Cl	-0.919751	-0.347498	0.188376
Cl266	Cl	-0.586418	-0.014165	0.521709
Cl267	Cl	-0.253085	0.319169	0.855043
Cl268	Cl	-0.678796	0.000247	-0.527569
Cl269	Cl	-0.345462	0.333581	-0.194236
Cl270	Cl	-0.012129	0.666914	0.139098
H271	H	-0.704793	0.000267	-0.679584
H272	H	-0.371460	0.333601	-0.346251
H273	H	-0.038127	0.666934	-0.012917
H274	H	-0.183988	0.000256	-0.024715
H275	H	0.149346	0.333589	0.308619
H276	H	0.482679	0.666923	0.641952
