data_functionalizedCrystal
_audit_creation_method	'MofGen! by Chris Wilmer'
_symmetry_space_group_name_H-M	'P1'
_symmetry_Int_Tables_number	1
_symmetry_cell_setting	triclinic
loop_
_symmetry_equiv_pos_as_xyz
  x,y,z
_cell_length_a	25.639239
_cell_length_b	19.077312
_cell_length_c	19.076919
_cell_angle_alpha	94.668947
_cell_angle_beta	92.268407
_cell_angle_gamma	87.744840
loop_
_atom_site_label
_atom_site_type_symbol
_atom_site_fract_x
_atom_site_fract_y
_atom_site_fract_z
Zn1	Zn	-0.250395	1.061567	-0.355259
Zn2	Zn	-0.334449	1.066194	-0.237374
Zn3	Zn	-0.243662	0.948427	-0.242127
Zn4	Zn	-0.334427	0.943626	-0.359957
O5	O	-0.290733	1.004954	-0.298679
O6	O	-0.264371	1.160826	-0.335666
O7	O	-0.319597	1.054518	-0.139357
O8	O	-0.171393	0.963509	-0.257156
O9	O	-0.326125	1.164225	-0.249057
O10	O	-0.176339	1.046632	-0.340274
O11	O	-0.252896	0.967995	-0.142849
O12	O	-0.252875	0.849145	-0.261712
O13	O	-0.326089	0.955325	-0.457981
O14	O	-0.319560	0.845618	-0.348282
O15	O	-0.264350	1.041976	-0.454529
O16	O	-0.407608	1.049862	-0.253612
O17	O	-0.407592	0.959812	-0.343673
C18	C	-0.285485	0.821804	-0.306023
C19	C	-0.283253	0.743451	-0.309181
C20	C	-0.267203	0.302216	-0.331841
C21	C	-0.269310	0.375837	-0.328870
C22	C	-0.302458	0.414411	-0.282218
C23	C	-0.333506	0.379361	-0.238540
C24	C	-0.331401	0.305741	-0.241516
C25	C	-0.312196	0.634781	-0.268479
C26	C	-0.314297	0.708405	-0.265505
C27	C	-0.250102	0.704877	-0.355836
C28	C	-0.247998	0.631256	-0.358804
C29	C	-0.279047	0.596211	-0.315129
N30	N	-0.304611	0.489664	-0.279178
N31	N	-0.276897	0.520960	-0.318174
C32	C	-0.426571	1.004836	-0.298651
C33	C	-0.484686	1.004850	-0.298661
C34	C	-0.845054	1.051957	-0.251856
C35	C	-0.899659	1.051984	-0.251865
O36	O	-0.927896	1.091916	-0.212039
N37	N	-0.926977	1.005076	-0.298721
C38	C	-0.899687	0.958142	-0.345576
O39	O	-0.927937	0.918245	-0.385432
C40	C	-0.845083	0.958119	-0.345571
C41	C	-0.817767	1.005026	-0.298707
C42	C	-0.817739	1.098861	-0.204997
C43	C	-0.763137	1.098833	-0.204988
C44	C	-0.735851	1.051901	-0.251838
C45	C	-0.763166	1.004998	-0.298698
C46	C	-0.817794	0.911189	-0.392430
C47	C	-0.763186	0.911170	-0.392420
C48	C	-0.735871	0.958077	-0.345556
C49	C	-0.681278	0.958038	-0.345539
N50	N	-0.653960	1.004947	-0.298683
C51	C	-0.681247	1.051878	-0.251833
C52	C	-1.014359	0.958194	-0.345585
C53	C	-1.068962	0.958213	-0.345588
C54	C	-1.068931	1.052057	-0.251877
C55	C	-1.014327	1.052034	-0.251871
C56	C	-0.987042	1.005103	-0.298729
C57	C	-0.566579	1.051816	-0.251817
C58	C	-0.511973	1.051781	-0.251810
C59	C	-0.512009	0.957941	-0.345523
C60	C	-0.566610	0.957972	-0.345528
C61	C	-0.593894	1.004915	-0.298672
O62	O	-0.653007	0.918129	-0.385346
O63	O	-0.652990	1.091775	-0.211990
C64	C	-0.154365	1.005090	-0.298721
C65	C	-0.096254	1.005148	-0.298739
C66	C	-0.295968	0.997599	-0.482549
C67	C	-0.298199	0.994465	-0.560903
C68	C	-0.296002	1.188818	-0.291307
C69	C	-0.298247	1.267171	-0.288165
C70	C	-0.267105	1.038105	-0.595918
C71	C	-0.269199	1.035151	-0.669540
C72	C	-0.302390	0.988561	-0.708146
C73	C	-0.333485	0.944916	-0.673126
C74	C	-0.331388	0.947867	-0.599505
C75	C	-0.312106	0.974896	-0.928523
C76	C	-0.314202	0.971951	-1.002149
C77	C	-0.249914	1.062185	-0.998558
C78	C	-0.247822	1.065135	-0.924935
C79	C	-0.278916	1.021487	-0.889922
N80	N	-0.304532	0.985543	-0.783400
N81	N	-0.276770	1.024503	-0.814669
C82	C	-0.285482	1.012320	-0.115523
C83	C	-0.283107	1.015591	-0.037164
H84	H	-0.221007	0.599853	-0.396796
O85	O	-0.364918	0.900789	-0.561734
H86	H	-0.388351	0.867897	-0.600946
H87	H	-0.243880	1.070689	-0.698046
H88	H	-0.240207	0.270814	-0.369826
H89	H	-0.224824	0.733418	-0.391394
O90	O	-0.984929	0.907566	-0.396120
H91	H	-0.958160	0.872985	-0.365970
O92	O	-0.847158	1.149490	-0.154458
H93	H	-0.873921	1.184088	-0.184597
H94	H	-1.091197	0.920011	-0.383743
H95	H	-0.244032	0.404368	-0.364438
H96	H	-0.240079	1.076046	-0.564490
O97	O	-0.984872	1.102639	-0.201333
H98	H	-0.961887	1.137203	-0.231479
H99	H	-0.220796	1.103075	-0.893507
H100	H	-0.840024	0.872989	-0.430588
O101	O	-0.733755	0.860542	-0.442952
H102	H	-0.761926	0.827927	-0.475531
H103	H	-0.224599	1.097720	-1.027074
H104	H	-0.341231	0.934009	-1.033580
O105	O	-0.345677	0.596993	-0.221360
H106	H	-0.387470	0.610619	-0.232768
H107	H	-0.360498	0.410774	-0.200558
H108	H	-0.341292	0.739811	-0.227514
O109	O	-0.345613	0.927786	-0.890763
H110	H	-0.369037	0.894887	-0.929979
H111	H	-0.360508	0.906979	-0.704565
H112	H	-0.356682	0.277208	-0.205952
H113	H	-0.489734	1.089979	-0.213645
H114	H	-0.588787	1.090043	-0.213664
H115	H	-0.740900	1.137031	-0.166829
O116	O	-0.596077	0.907380	-0.396070
H117	H	-0.567927	0.874743	-0.428649
O118	O	-1.098366	1.102692	-0.201354
H119	H	-1.140925	1.094832	-0.209244
O120	O	-0.482574	0.907325	-0.396058
H121	H	-0.440017	0.915197	-0.388180
