data_functionalizedCrystal
_audit_creation_method	'MofGen! by Chris Wilmer'
_symmetry_space_group_name_H-M	'P1'
_symmetry_Int_Tables_number	1
_symmetry_cell_setting	triclinic
loop_
_symmetry_equiv_pos_as_xyz
  x,y,z
_cell_length_a	12.645331
_cell_length_b	16.120531
_cell_length_c	16.120704
_cell_angle_alpha	95.631373
_cell_angle_beta	87.106233
_cell_angle_gamma	87.067505
loop_
_atom_site_label
_atom_site_type_symbol
_atom_site_fract_x
_atom_site_fract_y
_atom_site_fract_z
Zn1	Zn	1.565904	0.356918	0.489348
Zn2	Zn	1.565788	0.489557	0.356647
Zn3	Zn	1.398133	0.349803	0.349602
Zn4	Zn	1.379090	0.496652	0.496384
O5	O	1.477229	0.423232	0.422995
O6	O	1.714235	0.374521	0.471749
O7	O	1.551468	0.465071	0.238748
O8	O	1.428406	0.233779	0.362246
O9	O	1.714150	0.471970	0.374255
O10	O	1.551667	0.239007	0.464917
O11	O	1.428293	0.362394	0.233572
O12	O	1.247260	0.369274	0.369068
O13	O	1.395951	0.484063	0.612415
O14	O	1.233270	0.477164	0.476909
O15	O	1.533203	0.381401	0.607246
O16	O	1.533004	0.607465	0.381077
O17	O	1.395838	0.612678	0.483741
C18	C	1.201800	0.423218	0.422988
C19	C	1.083968	0.423232	0.423006
C20	C	1.030320	0.491211	0.490759
C21	C	0.907755	0.491467	0.490581
C22	C	0.920419	0.442249	0.336000
C23	C	1.042960	0.442725	0.336396
C24	C	1.043274	0.336061	0.441481
C25	C	0.920503	0.336648	0.443448
C26	C	1.462370	0.640401	0.433955
C27	C	1.456108	0.733308	0.438672
C28	C	1.444680	0.903411	0.447301
C29	C	1.509820	0.942211	0.398643
C30	C	1.503462	1.036862	0.403444
C31	C	1.451037	0.808752	0.442501
C32	C	1.753732	0.423248	0.423003
C33	C	1.871562	0.423254	0.423006
C34	C	1.462466	0.434317	0.641006
C35	C	1.456175	0.439041	0.733910
C36	C	1.492137	1.205216	0.411995
C37	C	1.498396	1.112308	0.407269
C38	C	1.509764	0.398925	0.942838
C39	C	1.444656	0.447631	0.903998
C40	C	1.451067	0.442850	0.809352
C41	C	1.503354	0.403705	1.037492
C42	C	1.491931	0.412217	1.205834
C43	C	1.498241	0.407517	1.112932
H44	H	1.056358	0.480072	0.555614
H45	H	1.068450	0.506301	0.320271
N46	N	1.368710	0.950894	0.504071
N47	N	1.307450	0.914474	0.549816
H48	H	1.253792	0.948016	0.589908
H49	H	1.570363	0.904343	0.353379
H50	H	1.384095	0.492916	0.941826
H51	H	0.896295	0.283690	0.397377
N52	N	0.878122	0.521102	0.315295
N53	N	0.907283	0.547675	0.248025
H54	H	0.877412	0.603368	0.233404
N55	N	0.880060	0.318542	0.523746
N56	N	0.942170	0.308039	0.580196
H57	H	0.913607	0.295250	0.636908
H58	H	1.078760	0.285472	0.392083
N59	N	1.585718	0.342105	0.895389
N60	N	1.555309	0.286426	0.843955
H61	H	1.608952	0.246298	0.810435
N62	N	0.865738	0.477282	0.571684
N63	N	0.882566	0.526787	0.633651
H64	H	0.852900	0.516774	0.690936
N65	N	1.064674	0.571899	0.476028
N66	N	1.128497	0.579556	0.415847
H67	H	1.152767	0.636541	0.405442
H68	H	0.874976	0.556159	0.478671
H69	H	1.079085	0.395086	0.284423
H70	H	1.071386	0.317817	0.503623
N71	N	0.891975	0.381792	0.271181
N72	N	0.835241	0.323894	0.288429
H73	H	0.815150	0.281194	0.242653
