data_functionalizedCrystal
_audit_creation_method	'MofGen! by Chris Wilmer'
_symmetry_space_group_name_H-M	'P1'
_symmetry_Int_Tables_number	1
_symmetry_cell_setting	triclinic
loop_
_symmetry_equiv_pos_as_xyz
  x,y,z
_cell_length_a	6.817900
_cell_length_b	16.306099
_cell_length_c	16.305550
_cell_angle_alpha	95.377095
_cell_angle_beta	103.455250
_cell_angle_gamma	103.465342
loop_
_atom_site_label
_atom_site_type_symbol
_atom_site_fract_x
_atom_site_fract_y
_atom_site_fract_z
V1	V	-4.026242	-0.117433	-0.263339
O2	O	-4.013841	0.004911	-0.258011
O3	O	-3.977690	-0.232145	-0.261841
O4	O	-3.977649	-0.115948	-0.378053
O5	O	-4.013883	-0.112091	-0.140996
V6	V	-4.509915	-0.102761	-0.248669
O7	O	-4.287172	-0.149616	-0.295519
O8	O	-4.699183	-0.070578	-0.216489
O9	O	-4.335261	0.011951	-0.250167
O10	O	-4.639713	-0.225104	-0.253997
O11	O	-4.639671	-0.108103	-0.371013
O12	O	-4.335303	-0.104246	-0.133956
C13	C	-3.822660	-0.260099	-0.257765
C14	C	-3.864249	-0.353879	-0.257305
C15	C	-3.940317	-0.525576	-0.256434
C16	C	-4.176204	-0.566502	-0.261357
C17	C	-4.219361	-0.663995	-0.260545
C18	C	-4.015214	-0.694623	-0.255578
C19	C	-3.847661	-0.643781	-0.172400
C20	C	-3.805831	-0.546231	-0.172859
C21	C	-3.886227	-0.571637	-0.334028
C22	C	-3.934127	-0.669482	-0.334692
C23	C	-4.057530	-0.790160	-0.255091
C24	C	-3.897992	-0.430037	-0.256915
C25	C	-3.822606	-0.111877	-0.406003
C26	C	-3.864158	-0.111422	-0.499784
C27	C	-4.015245	-0.109659	-0.840524
C28	C	-3.779197	-0.104424	-0.799582
C29	C	-3.736003	-0.105247	-0.702089
C30	C	-3.940287	-0.110533	-0.671479
C31	C	-4.107318	-0.193849	-0.722324
C32	C	-4.149182	-0.193378	-0.819872
C33	C	-4.070002	-0.032243	-0.794478
C34	C	-4.022073	-0.031584	-0.696634
C35	C	-3.897938	-0.111030	-0.575942
C36	C	-4.057604	-0.109168	-0.936062
C37	C	-4.153633	0.039901	-0.254241
C38	C	-4.091283	0.133680	-0.254707
C39	C	-4.153687	-0.108319	-0.106001
C40	C	-4.091374	-0.108770	-0.012220
H41	H	-4.346231	-0.699173	-0.320337
C42	C	-4.308412	-0.685797	-0.184357
N43	N	-4.375479	-0.702216	-0.126968
H44	H	-4.220813	-0.534831	-0.205603
H45	H	-3.632090	-0.518234	-0.165792
C46	C	-3.635784	-0.023196	-0.816211
N47	N	-3.527759	0.037958	-0.828791
H48	H	-3.734105	-0.160044	-0.831240
C49	C	-3.946517	0.053041	-0.812310
N50	N	-3.853487	0.117274	-0.825741
H51	H	-3.978047	-0.558432	-0.397064
C52	C	-4.220900	-0.030120	-0.667692
N53	N	-4.370618	-0.029004	-0.645862
C54	C	-3.565079	-0.024328	-0.654561
N55	N	-3.436319	0.036620	-0.618766
H56	H	-4.055571	-0.704012	-0.396217
C57	C	-3.921861	-0.666265	-0.093046
N58	N	-3.977762	-0.683199	-0.033279
C59	C	-4.302447	-0.036417	-0.830723
N60	N	-4.477523	-0.039566	-0.858028
H61	H	-4.260474	-0.200731	-0.703429
H62	H	-3.669576	-0.161508	-0.685944
C63	C	-4.320122	-0.550001	-0.342506
N64	N	-4.428522	-0.537566	-0.403630
C65	C	-3.853978	-0.504964	-0.093516
N66	N	-3.890246	-0.473885	-0.033752
C67	C	-4.384026	-0.203255	-0.857717
N68	N	-4.560911	-0.210705	-0.886219
H69	H	-4.051883	-0.252471	-0.705665
H70	H	-3.901028	0.030042	-0.662094
H71	H	-3.694585	-0.662687	-0.165753
H72	H	-4.113035	-0.251984	-0.850407
H73	H	-3.786993	-0.690855	-0.335969
H74	H	-3.714287	-0.544822	-0.331167
