data_functionalizedCrystal
_audit_creation_method	'MofGen! by Chris Wilmer'
_symmetry_space_group_name_H-M	'P1'
_symmetry_Int_Tables_number	1
_symmetry_cell_setting	triclinic
loop_
_symmetry_equiv_pos_as_xyz
  x,y,z
_cell_length_a	17.699083
_cell_length_b	17.699092
_cell_length_c	16.176319
_cell_angle_alpha	89.994879
_cell_angle_beta	89.998611
_cell_angle_gamma	83.284691
loop_
_atom_site_label
_atom_site_type_symbol
_atom_site_fract_x
_atom_site_fract_y
_atom_site_fract_z
O1	O	1.004082	0.095713	-0.068628
O2	O	1.504082	0.595713	0.431372
O3	O	0.783704	0.108165	-0.068654
O4	O	1.283704	0.608165	0.431346
O5	O	0.900116	-0.008250	-0.068638
O6	O	1.400116	0.491750	0.431362
O7	O	0.887670	0.212128	-0.068644
O8	O	1.387670	0.712128	0.431356
O9	O	0.900100	-0.008257	0.068855
O10	O	1.400100	0.491743	0.568855
O11	O	0.783688	0.108158	0.068839
O12	O	1.283688	0.608158	0.568839
O13	O	1.004066	0.095705	0.068866
O14	O	1.504066	0.595705	0.568866
Cu15	Cu	0.893875	0.101931	0.081406
Cu16	Cu	1.393875	0.601931	0.581406
Cu17	Cu	0.893894	0.101940	-0.081195
Cu18	Cu	1.393894	0.601940	0.418805
O19	O	0.887654	0.212120	0.068850
O20	O	1.387654	0.712120	0.568850
C21	C	0.755499	0.107715	0.000089
C22	C	1.255499	0.607715	0.500089
C23	C	0.671480	0.106377	0.000079
C24	C	1.171480	0.606377	0.500079
C25	C	0.622862	0.174710	0.000077
C26	C	1.122862	0.674710	0.500077
C27	C	0.543918	0.173448	0.000088
C28	C	1.043918	0.673448	0.500088
C29	C	0.513595	0.103851	0.000094
C30	C	1.013595	0.603851	0.500094
C31	C	0.562220	0.035513	0.000098
C32	C	1.062220	0.535513	0.500098
C33	C	0.641162	0.036776	0.000093
C34	C	1.141162	0.536776	0.500093
C35	C	0.243857	0.030418	0.000119
C36	C	0.743857	0.530418	0.500119
C37	C	0.164909	0.029160	0.000121
C38	C	0.664909	0.529160	0.500121
C39	C	0.146613	0.167089	0.000113
C40	C	0.646613	0.667089	0.500113
C41	C	0.225555	0.168352	0.000109
C42	C	0.725555	0.668352	0.500109
C43	C	0.274173	0.100014	0.000117
C44	C	0.774173	0.600014	0.500117
C45	C	0.359772	0.101384	0.000107
C46	C	0.859772	0.601384	0.500107
C47	C	0.427998	0.102481	0.000098
C48	C	0.927998	0.602481	0.500098
C49	C	0.899661	-0.036450	0.000107
C50	C	1.399661	0.463550	0.500107
C51	C	0.898319	-0.120468	0.000103
C52	C	1.398319	0.379532	0.500103
C53	C	1.032271	0.096155	0.000121
C54	C	1.532271	0.596155	0.500121
C55	C	1.116289	0.097494	0.000125
C56	C	1.616289	0.597494	0.500125
C57	C	0.897700	-0.159932	-0.074846
C58	C	1.397700	0.340068	0.425154
C59	C	0.896435	-0.238875	-0.074847
C60	C	1.396435	0.261125	0.425153
C61	C	0.895795	-0.278353	0.000102
C62	C	1.395795	0.221647	0.500102
C63	C	0.896412	-0.238884	0.075056
C64	C	1.396412	0.261116	0.575056
C65	C	0.897672	-0.159942	0.075056
C66	C	1.397672	0.340058	0.575056
C67	C	0.891332	-0.557249	0.075057
C68	C	1.391332	-0.057249	0.575057
C69	C	0.890075	-0.636197	0.075050
C70	C	1.390075	-0.136197	0.575050
C71	C	0.890095	-0.636182	-0.074846
C72	C	1.390095	-0.136182	0.425154
C73	C	0.891355	-0.557240	-0.074846
C74	C	1.391355	-0.057240	0.425154
C75	C	0.891968	-0.517777	0.000108
C76	C	1.391968	-0.017777	0.500108
C77	C	0.893338	-0.432178	0.000108
C78	C	1.393338	0.067822	0.500108
C79	C	0.894430	-0.363952	0.000102
C80	C	1.394430	0.136048	0.500102
N81	N	0.893867	0.101924	0.195772
N82	N	1.393867	0.601924	0.695772
C83	C	0.888109	0.240321	0.000103
C84	C	1.388109	0.740321	0.500103
C85	C	0.889450	0.324339	0.000101
C86	C	1.389450	0.824339	0.500101
N87	N	0.893908	0.101940	-0.195560
N88	N	1.393908	0.601940	0.304440
C89	C	0.945430	0.050397	0.239043
C90	C	1.445430	0.550397	0.739043
C91	C	0.945434	0.050396	0.325590
C92	C	1.445434	0.550396	0.825590
C93	C	0.893878	0.101927	0.368864
C94	C	1.393878	0.601927	0.868864
C95	C	0.842310	0.153457	0.325587
C96	C	1.342310	0.653457	0.825587
C97	C	0.842303	0.153453	0.239041
C98	C	1.342303	0.653453	0.739041
C99	C	0.842336	0.153471	0.674615
C100	C	1.342336	0.653471	1.174615
C101	C	0.842348	0.153472	0.761167
C102	C	1.342348	0.653472	1.261167
C103	C	0.945467	0.050414	0.761164
C104	C	1.445467	0.550414	1.261164
C105	C	0.945460	0.050410	0.674618
C106	C	1.445460	0.550410	1.174618
C107	C	0.893889	0.101937	0.631349
C108	C	1.393889	0.601937	1.131349
C109	C	0.893885	0.101936	0.537504
C110	C	1.393885	0.601936	1.037504
C111	C	0.893886	0.101932	0.462707
C112	C	1.393886	0.601932	0.962707
H113	H	0.250239	0.225025	0.000100
H114	H	0.750239	0.725025	0.500100
C115	C	0.093126	0.242263	0.000115
C116	C	0.593126	0.742263	0.500115
N117	N	0.052841	0.298883	0.000116
N118	N	0.552841	0.798883	0.500116
C119	C	1.002146	-0.006293	0.191449
C120	C	1.502146	0.493707	0.691449
N121	N	1.044864	-0.048996	0.155604
N122	N	1.544864	0.451004	0.655604
H123	H	0.140224	-0.027517	0.000127
H124	H	0.640224	0.472483	0.500127
H125	H	0.889592	-0.668321	-0.135877
H126	H	1.389592	-0.168321	0.364123
H127	H	0.680748	-0.018868	0.000094
H128	H	1.180748	0.481132	0.500094
H129	H	0.800347	0.195427	0.639392
H130	H	1.300347	0.695427	1.139392
H131	H	0.889552	-0.668338	0.136086
H132	H	1.389552	-0.168338	0.636086
H133	H	0.891847	-0.525130	0.136089
H134	H	1.391847	-0.025130	0.636089
C135	C	0.297327	-0.044756	0.000122
C136	C	0.797327	0.455244	0.500122
N137	N	0.337604	-0.101381	0.000124
N138	N	0.837604	0.398619	0.500124
H139	H	0.504335	0.229091	0.000086
H140	H	1.004335	0.729091	0.500086
H141	H	0.987420	0.008438	0.360821
H142	H	1.487420	0.508438	0.860821
C143	C	0.895703	-0.282313	0.157500
C144	C	1.395703	0.217687	0.657500
N145	N	0.895170	-0.315023	0.219599
N146	N	1.395170	0.184977	0.719599
C147	C	0.898356	-0.116533	0.157506
C148	C	1.398356	0.383467	0.657506
N149	N	0.898869	-0.083838	0.219609
N150	N	1.398869	0.416162	0.719609
C151	C	0.528863	-0.041044	0.000106
C152	C	1.028863	0.458956	0.500106
N153	N	0.503738	-0.098708	0.000109
N154	N	1.003738	0.401292	0.500109
C155	C	1.002189	-0.006274	0.808768
C156	C	1.502189	0.493726	1.308768
N157	N	1.044912	-0.048970	0.844623
N158	N	1.544912	0.451030	1.344623
C159	C	0.898404	-0.116512	-0.157296
C160	C	1.398404	0.383488	0.342704
N161	N	0.898930	-0.083810	-0.219400
N162	N	1.398930	0.416190	0.280600
C163	C	1.002173	-0.006279	0.627021
C164	C	1.502173	0.493721	1.127021
N165	N	1.044889	-0.048982	0.591173
N166	N	1.544889	0.451018	1.091173
H167	H	0.800362	0.195436	0.796399
H168	H	1.300362	0.695436	1.296399
C169	C	0.785591	0.210134	0.373192
C170	C	1.285591	0.710134	0.873192
N171	N	0.742868	0.252825	0.409047
N172	N	1.242868	0.752825	0.909047
C173	C	0.785586	0.210144	0.191444
C174	C	1.285586	0.710144	0.691444
N175	N	0.742865	0.252845	0.155594
N176	N	1.242865	0.752845	0.655594
H177	H	0.895934	-0.271003	-0.135877
H178	H	1.395934	0.228997	0.364123
C179	C	0.892058	-0.513817	-0.157295
C180	C	1.392058	-0.013817	0.342705
N181	N	0.892584	-0.481112	-0.219397
N182	N	1.392584	0.018888	0.280603
C183	C	0.656208	0.251272	0.000072
C184	C	1.156208	0.751272	0.500072
N185	N	0.681323	0.308942	0.000072
N186	N	1.181323	0.808942	0.500072
