data_functionalizedCrystal
_audit_creation_method	'MofGen! by Chris Wilmer'
_symmetry_space_group_name_H-M	'P1'
_symmetry_Int_Tables_number	1
_symmetry_cell_setting	triclinic
loop_
_symmetry_equiv_pos_as_xyz
  x,y,z
_cell_length_a	10.489741
_cell_length_b	11.792241
_cell_length_c	10.868271
_cell_angle_alpha	89.994719
_cell_angle_beta	89.998385
_cell_angle_gamma	84.366295
loop_
_atom_site_label
_atom_site_type_symbol
_atom_site_fract_x
_atom_site_fract_y
_atom_site_fract_z
O1	O	1.693508	0.160137	-0.102247
O2	O	2.193508	0.660137	0.397753
O3	O	1.322261	0.175169	-0.102266
O4	O	1.822261	0.675169	0.397734
O5	O	1.516893	0.002507	-0.102247
O6	O	2.016893	0.502507	0.397753
O7	O	1.498875	0.332799	-0.102265
O8	O	1.998875	0.832799	0.397735
O9	O	1.516877	0.002500	0.102397
O10	O	2.016877	0.502500	0.602397
O11	O	1.322245	0.175162	0.102379
O12	O	1.822245	0.675162	0.602379
O13	O	1.693492	0.160130	0.102398
O14	O	2.193492	0.660130	0.602398
Zn15	Zn	1.507866	0.167645	0.134880
Zn16	Zn	2.007866	0.667645	0.634880
Zn17	Zn	1.507887	0.167654	-0.134748
Zn18	Zn	2.007887	0.667654	0.365252
O19	O	1.498859	0.332792	0.102379
O20	O	1.998859	0.832792	0.602379
C21	C	1.515753	-0.039791	0.000075
C22	C	2.015753	0.460209	0.500075
C23	C	1.512366	-0.165813	0.000073
C24	C	2.012366	0.334187	0.500073
C25	C	1.274725	0.174030	0.000054
C26	C	1.774725	0.674030	0.500054
C27	C	1.133107	0.170633	0.000047
C28	C	1.633107	0.670633	0.500047
C29	C	1.506136	-0.396542	0.000052
C30	C	2.006136	0.103458	0.500052
C31	C	1.509598	-0.268148	0.000064
C32	C	2.009598	0.231852	0.500064
C33	C	1.065341	0.060774	0.000065
C34	C	1.565341	0.560774	0.500065
C35	C	0.973046	0.112674	-0.100836
C36	C	1.473046	0.612674	0.399164
C37	C	0.973064	0.112693	0.100927
C38	C	1.473064	0.612693	0.600927
C39	C	1.042676	0.222579	-0.100937
C40	C	1.542676	0.722579	0.399063
C41	C	1.042704	0.222583	0.100917
C42	C	1.542704	0.722583	0.600917
C43	C	0.950436	0.274563	-0.000008
C44	C	1.450436	0.774563	0.499992
C45	C	1.741027	0.161269	0.000075
C46	C	2.241027	0.661269	0.500075
C47	C	1.882645	0.164666	0.000074
C48	C	2.382645	0.664666	0.500074
C49	C	1.499999	0.375090	0.000055
C50	C	1.999999	0.875090	0.500055
C51	C	1.503387	0.501113	0.000048
C52	C	2.003387	1.001113	0.500048
N53	N	1.507860	0.167638	0.318894
N54	N	2.007860	0.667638	0.818894
N55	N	1.507902	0.167652	-0.318762
N56	N	2.007902	0.667652	0.181238
C57	C	1.507880	0.167652	0.569900
C58	C	2.007880	0.667652	1.069900
C59	C	1.507865	0.167648	0.430223
C60	C	2.007865	0.667648	0.930223
H61	H	0.942196	0.066193	-0.186137
H62	H	1.442196	0.566193	0.313863
C63	C	1.132034	-0.059636	0.000196
C64	C	1.632034	0.440364	0.500196
C65	C	1.207734	-0.076047	0.106009
C66	C	1.707734	0.423953	0.606009
C67	C	1.269178	-0.186954	0.106174
C68	C	1.769178	0.313046	0.606174
H69	H	1.184729	-0.070523	-0.070731
H70	H	1.684729	0.429477	0.429269
H71	H	1.069661	-0.112855	-0.000520
H72	H	1.569661	0.387145	0.499480
H73	H	1.270099	-0.022843	0.106714
H74	H	1.770099	0.477157	0.606714
H75	H	1.155070	-0.065183	0.176953
H76	H	1.655070	0.434817	0.676953
H77	H	1.206805	-0.240173	0.105458
H78	H	1.706805	0.259827	0.605458
H79	H	1.321865	-0.197831	0.035242
H80	H	1.821865	0.302169	0.535242
H81	H	1.320538	-0.198106	0.177972
H82	H	1.820538	0.301894	0.677972
H83	H	1.073353	0.269029	-0.186337
H84	H	1.573353	0.769029	0.313663
H85	H	0.900704	0.364970	-0.000068
H86	H	1.400704	0.864970	0.499932
H87	H	1.073585	0.269026	0.186222
H88	H	1.573585	0.769026	0.686222
H89	H	0.942237	0.066186	0.186231
H90	H	1.442237	0.566186	0.686231
