data_functionalizedCrystal
_audit_creation_method	'MofGen! by Chris Wilmer'
_symmetry_space_group_name_H-M	'P1'
_symmetry_Int_Tables_number	1
_symmetry_cell_setting	triclinic
loop_
_symmetry_equiv_pos_as_xyz
  x,y,z
_cell_length_a	29.839131
_cell_length_b	25.639242
_cell_length_c	25.639233
_cell_angle_alpha	89.976717
_cell_angle_beta	90.019585
_cell_angle_gamma	89.963922
loop_
_atom_site_label
_atom_site_type_symbol
_atom_site_fract_x
_atom_site_fract_y
_atom_site_fract_z
Zn1	Zn	-0.178972	-0.799215	0.295755
Zn2	Zn	0.321028	-0.299215	0.795755
Zn3	Zn	-0.254086	-0.799134	0.208318
Zn4	Zn	0.245914	-0.299134	0.708318
Zn5	Zn	-0.178964	-0.711791	0.208317
Zn6	Zn	0.321036	-0.211791	0.708317
Zn7	Zn	-0.254069	-0.711732	0.295706
Zn8	Zn	0.245931	-0.211732	0.795706
O9	O	-0.216523	-0.755468	0.252024
O10	O	0.283477	-0.255468	0.752024
O11	O	-0.188947	-0.872370	0.284177
O12	O	0.311053	-0.372370	0.784177
O13	O	-0.244126	-0.787539	0.135153
O14	O	0.255874	-0.287539	0.635153
O15	O	-0.116098	-0.723447	0.219936
O16	O	0.383902	-0.223447	0.719936
O17	O	-0.244133	-0.872310	0.219937
O18	O	0.255867	-0.372310	0.719937
O19	O	-0.116104	-0.787677	0.284176
O20	O	0.383896	-0.287677	0.784176
O21	O	-0.188934	-0.723369	0.135152
O22	O	0.311066	-0.223369	0.635152
O23	O	-0.188916	-0.638618	0.219889
O24	O	0.311084	-0.138618	0.719889
O25	O	-0.244103	-0.723346	0.368878
O26	O	0.255897	-0.223346	0.868878
O27	O	-0.244095	-0.638575	0.284093
O28	O	0.255905	-0.138575	0.784093
O29	O	-0.188930	-0.787619	0.368914
O30	O	0.311070	-0.287619	0.868914
O31	O	-0.316951	-0.787482	0.219890
O32	O	0.183049	-0.287482	0.719890
O33	O	-0.316938	-0.723268	0.284094
O34	O	0.183062	-0.223268	0.784094
C35	C	-0.216503	-0.619626	0.251986
C36	C	0.283497	-0.119626	0.751986
C37	C	-0.216506	-0.561512	0.251982
C38	C	0.283494	-0.061512	0.751982
C39	C	-0.187742	-0.310332	0.218637
C40	C	0.312258	0.189668	0.718637
C41	C	-0.187738	-0.364936	0.218632
C42	C	0.312262	0.135064	0.718632
O43	O	-0.163256	-0.393185	0.190259
O44	O	0.336744	0.106815	0.690259
N45	N	-0.216511	-0.392238	0.252003
N46	N	0.283489	0.107762	0.752003
C47	C	-0.245287	-0.364932	0.285385
C48	C	0.254713	0.135068	0.785385
O49	O	-0.269760	-0.393168	0.313770
O50	O	0.230240	0.106832	0.813770
C51	C	-0.245288	-0.310329	0.285392
C52	C	0.254712	0.189671	0.785392
C53	C	-0.216516	-0.283030	0.252016
C54	C	0.283484	0.216970	0.752016
C55	C	-0.158972	-0.283033	0.185264
C56	C	0.341028	0.216967	0.685264
C57	C	-0.158977	-0.228433	0.185268
C58	C	0.341023	0.271567	0.685268
C59	C	-0.187751	-0.201131	0.218646
C60	C	0.312249	0.298869	0.718646
C61	C	-0.216521	-0.228430	0.252020
C62	C	0.283479	0.271570	0.752020
C63	C	-0.274061	-0.283024	0.318776
C64	C	0.225939	0.216976	0.818776
C65	C	-0.274060	-0.228417	0.318781
C66	C	0.225940	0.271583	0.818781
C67	C	-0.245288	-0.201118	0.285404
C68	C	0.254712	0.298882	0.785404
C69	C	-0.245300	-0.146527	0.285403
C70	C	0.254700	0.353473	0.785403
N71	N	-0.216527	-0.119226	0.252032
N72	N	0.283473	0.380774	0.752032
C73	C	-0.187752	-0.146528	0.218654
C74	C	0.312248	0.353472	0.718654
C75	C	-0.245281	-0.479603	0.285368
C76	C	0.254719	0.020397	0.785368
C77	C	-0.245282	-0.534205	0.285358
C78	C	0.254718	-0.034205	0.785358
C79	C	-0.187733	-0.534206	0.218606
C80	C	0.312267	-0.034206	0.718606
C81	C	-0.187734	-0.479602	0.218613
C82	C	0.312266	0.020398	0.718613
C83	C	-0.216508	-0.452301	0.251997
C84	C	0.283492	0.047699	0.751997
C85	C	-0.187765	-0.031863	0.218665
C86	C	0.312235	0.468137	0.718665
C87	C	-0.187773	0.022743	0.218671
C88	C	0.312227	0.522743	0.718671
C89	C	-0.245321	0.022739	0.285425
C90	C	0.254679	0.522739	0.785425
C91	C	-0.245314	-0.031862	0.285417
C92	C	0.254686	0.468138	0.785417
C93	C	-0.216532	-0.059161	0.252036
C94	C	0.283468	0.440839	0.752036
O95	O	-0.269768	-0.118244	0.313763
O96	O	0.230232	0.381756	0.813763
O97	O	-0.163279	-0.118285	0.190279
O98	O	0.336721	0.381715	0.690279
C99	C	-0.333245	-0.755374	0.251998
C100	C	0.166755	-0.255374	0.751998
C101	C	-0.383180	-0.755381	0.252004
C102	C	0.116820	-0.255381	0.752004
C103	C	-0.692817	-0.788965	0.218642
C104	C	-0.192817	-0.288965	0.718642
C105	C	-0.880490	-0.789030	0.218662
C106	C	-0.380490	-0.289030	0.718662
O107	O	-0.904750	-0.817509	0.190276
O108	O	-0.404750	-0.317509	0.690276
N109	N	-0.903965	-0.755577	0.252063
N110	N	-0.403965	-0.255577	0.752063
C111	C	-0.880518	-0.722108	0.285464
C112	C	-0.380518	-0.222108	0.785464
O113	O	-0.904791	-0.693659	0.313878
O114	O	-0.404791	-0.193659	0.813878
C115	C	-0.692846	-0.722046	0.285446
C116	C	-0.192846	-0.222046	0.785446
C117	C	-0.669374	-0.755498	0.252039
C118	C	-0.169374	-0.255498	0.752039
C119	C	-0.669345	-0.822415	0.185238
C120	C	-0.169345	-0.322415	0.685238
C121	C	-0.622430	-0.822396	0.185231
C122	C	-0.122430	-0.322396	0.685231
C123	C	-0.598987	-0.788928	0.218628
C124	C	-0.098987	-0.288928	0.718628
C125	C	-0.622459	-0.755479	0.252032
C126	C	-0.122459	-0.255479	0.752032
C127	C	-0.669400	-0.688580	0.318849
C128	C	-0.169400	-0.188580	0.818849
C129	C	-0.622479	-0.688568	0.318843
C130	C	-0.122479	-0.188568	0.818843
C131	C	-0.599007	-0.722020	0.285436
C132	C	-0.099007	-0.222020	0.785436
C133	C	-0.552100	-0.721993	0.285423
C134	C	-0.052100	-0.221993	0.785423
N135	N	-0.528625	-0.755446	0.252022
N136	N	-0.028625	-0.255446	0.752022
C137	C	-0.552069	-0.788914	0.218624
C138	C	-0.052069	-0.288914	0.718624
C139	C	-0.979049	-0.722141	0.285471
C140	C	-0.479049	-0.222141	0.785471
C141	C	-1.025967	-0.722156	0.285475
C142	C	-0.525967	-0.222156	0.785475
C143	C	-1.025936	-0.789079	0.218673
C144	C	-0.525936	-0.289079	0.718673
C145	C	-0.979017	-0.789062	0.218667
C146	C	-0.479017	-0.289062	0.718667
C147	C	-0.955574	-0.755595	0.252069
C148	C	-0.455574	-0.255595	0.752069
C149	C	-0.453543	-0.788872	0.218612
C150	C	0.046457	-0.288872	0.718612
C151	C	-0.406623	-0.788849	0.218607
C152	C	0.093377	-0.288849	0.718607
C153	C	-0.406658	-0.721928	0.285410
C154	C	0.093342	-0.221928	0.785410
C155	C	-0.453574	-0.721949	0.285414
C156	C	0.046426	-0.221949	0.785414
C157	C	-0.477015	-0.755425	0.252013
C158	C	0.022985	-0.255425	0.752013
O159	O	-0.527811	-0.693533	0.313798
O160	O	-0.027811	-0.193533	0.813798
O161	O	-0.527788	-0.817366	0.190223
O162	O	-0.027788	-0.317366	0.690223
C163	C	-0.739733	-0.788984	0.218649
C164	C	-0.239733	-0.288984	0.718649
C165	C	-0.763205	-0.755535	0.252053
C166	C	-0.263205	-0.255535	0.752053
C167	C	-0.739762	-0.722067	0.285450
C168	C	-0.239762	-0.222067	0.785450
C169	C	-0.810123	-0.755549	0.252057
C170	C	-0.310123	-0.255549	0.752057
C171	C	-0.833566	-0.789017	0.218659
C172	C	-0.333566	-0.289017	0.718659
C173	C	-0.810092	-0.822470	0.185258
C174	C	-0.310092	-0.322470	0.685258
C175	C	-0.763176	-0.822451	0.185251
C176	C	-0.263176	-0.322451	0.685251
C177	C	-0.763236	-0.688614	0.318851
C178	C	-0.263236	-0.188614	0.818851
C179	C	-0.810151	-0.688635	0.318855
C180	C	-0.310151	-0.188635	0.818855
C181	C	-0.833595	-0.722102	0.285457
C182	C	-0.333595	-0.222102	0.785457
C183	C	-0.099344	-0.755577	0.252061
C184	C	0.400656	-0.255577	0.752061
C185	C	-0.049410	-0.755624	0.252077
C186	C	0.450590	-0.255624	0.752077
C187	C	-0.216515	-0.755485	0.388397
C188	C	0.283485	-0.255485	0.888397
C189	C	-0.216512	-0.755492	0.446511
C190	C	0.283488	-0.255492	0.946511
C191	C	-0.216542	0.108159	0.252055
C192	C	0.283458	0.608159	0.752055
C193	C	-0.216548	0.050045	0.252049
C194	C	0.283452	0.550045	0.752049
C195	C	-0.216498	-0.755482	0.116181
C196	C	0.283502	-0.255482	0.616181
C197	C	-0.216375	-0.755576	0.058068
C198	C	0.283625	-0.255576	0.558068
C199	C	-0.187698	-0.789002	0.806899
C200	C	0.312302	-0.289002	1.306899
C201	C	-0.187685	-0.789008	0.861503
C202	C	0.312315	-0.289008	1.361503
O203	O	-0.163239	-0.817457	0.889760
O204	O	0.336761	-0.317457	1.389760
N205	N	-0.216406	-0.755550	0.888794
N206	N	0.283594	-0.255550	1.388794
C207	C	-0.245139	-0.722079	0.861477
C208	C	0.254861	-0.222079	1.361477
O209	O	-0.269567	-0.693621	0.889704
O210	O	0.230433	-0.193621	1.389704
C211	C	-0.245148	-0.722071	0.806874
C212	C	0.254852	-0.222071	1.306874
C213	C	-0.216429	-0.755535	0.779586
C214	C	0.283571	-0.255535	1.279586
C215	C	-0.158980	-0.822463	0.779610
C216	C	0.341020	-0.322463	1.279610
C217	C	-0.158993	-0.822457	0.725010
C218	C	0.341007	-0.322457	1.225010
C219	C	-0.187724	-0.788990	0.697697
C220	C	0.312276	-0.288990	1.197697
C221	C	-0.216442	-0.755529	0.724985
C222	C	0.283558	-0.255529	1.224985
C223	C	-0.273878	-0.688598	0.779559
C224	C	0.226122	-0.188598	1.279559
C225	C	-0.273885	-0.688592	0.724952
C226	C	0.226115	-0.188592	1.224952
C227	C	-0.245165	-0.722056	0.697664
C228	C	0.254835	-0.222056	1.197664
C229	C	-0.245186	-0.722056	0.643072
C230	C	0.254814	-0.222056	1.143072
N231	N	-0.216465	-0.755514	0.615782
N232	N	0.283535	-0.255514	1.115782
C233	C	-0.187734	-0.788981	0.643094
C234	C	0.312266	-0.288981	1.143094
C235	C	-0.245115	-0.722100	0.976148
C236	C	0.254885	-0.222100	1.476148
C237	C	-0.245108	-0.722110	1.030750
C238	C	0.254892	-0.222110	1.530750
C239	C	-0.187654	-0.789039	1.030772
C240	C	0.312346	-0.289039	1.530772
C241	C	-0.187664	-0.789030	0.976169
C242	C	0.312336	-0.289030	1.476169
C243	C	-0.216394	-0.755558	0.948857
C244	C	0.283606	-0.255558	1.448857
C245	C	-0.187764	-0.788967	0.528429
C246	C	0.312236	-0.288967	1.028429
C247	C	-0.187781	-0.788959	0.473824
C248	C	0.312219	-0.288959	0.973824
C249	C	-0.245233	-0.722029	0.473807
C250	C	0.254767	-0.222029	0.973807
C251	C	-0.245218	-0.722038	0.528407
C252	C	0.254782	-0.222038	1.028407
C253	C	-0.216480	-0.755509	0.555717
C254	C	0.283520	-0.255509	1.055717
O255	O	-0.269618	-0.693620	0.614780
O256	O	0.230382	-0.193620	1.114780
O257	O	-0.163305	-0.817430	0.614860
O258	O	0.336695	-0.317430	1.114860
H259	H	-0.164304	-0.457379	0.191437
H260	H	0.335696	0.042621	0.691437
H261	H	-0.135581	-0.849716	0.801843
H262	H	0.364419	-0.349716	1.301843
H263	H	-0.135605	-0.849706	0.702797
H264	H	0.364395	-0.349706	1.202797
O265	O	-0.476308	-0.689437	0.317912
O266	O	0.023692	-0.189437	0.817912
C267	C	-0.471381	-0.623040	0.384152
C268	C	0.028619	-0.123040	0.884152
C269	C	-0.445584	-0.659836	0.347377
C270	C	0.054416	-0.159836	0.847377
H271	H	-0.446552	-0.599090	0.407976
H272	H	0.053448	-0.099090	0.907976
H273	H	-0.493300	-0.647012	0.411557
H274	H	0.006700	-0.147012	0.911557
H275	H	-0.493395	-0.595748	0.360117
H276	H	0.006605	-0.095748	0.860117
H277	H	-0.423545	-0.687135	0.371370
H278	H	0.076455	-0.187135	0.871370
H279	H	-0.423694	-0.635831	0.319971
H280	H	0.076306	-0.135831	0.819971
H281	H	-0.387514	-0.816089	0.191401
H282	H	0.112486	-0.316089	0.691401
O283	O	-0.159912	-0.821506	0.555010
O284	O	0.340088	-0.321506	1.055010
C285	C	-0.153863	-0.892139	0.616646
C286	C	0.346137	-0.392139	1.116646
C287	C	-0.185453	-0.855310	0.586585
C288	C	0.314547	-0.355310	1.086585
H289	H	-0.174501	-0.919486	0.642173
H290	H	0.325499	-0.419486	1.142173
H291	H	-0.130367	-0.868193	0.642240
H292	H	0.369633	-0.368193	1.142240
H293	H	-0.133333	-0.916027	0.587746
H294	H	0.366667	-0.416027	1.087746
H295	H	-0.206012	-0.831415	0.615447
H296	H	0.293988	-0.331415	1.115447
H297	H	-0.208920	-0.879286	0.560982
H298	H	0.291080	-0.379286	1.060982
O299	O	-0.599756	-0.656084	0.351364
O300	O	-0.099756	-0.156084	0.851364
C301	C	-0.585369	-0.630667	0.440276
C302	C	-0.085369	-0.130667	0.940276
C303	C	-0.611138	-0.667479	0.403506
C304	C	-0.111138	-0.167479	0.903506
H305	H	-0.594555	-0.639874	0.482440
H306	H	-0.094555	-0.139874	0.982440
H307	H	-0.594641	-0.588509	0.431096
H308	H	-0.094641	-0.088509	0.931096
H309	H	-0.547806	-0.636391	0.434508
H310	H	-0.047806	-0.136391	0.934508
H311	H	-0.648707	-0.661802	0.409252
H312	H	-0.148707	-0.161802	0.909252
H313	H	-0.601829	-0.709624	0.412694
H314	H	-0.101829	-0.209624	0.912694
H315	H	-0.688428	-0.849671	0.158042
H316	H	-0.188428	-0.349671	0.658042
H317	H	-0.268626	-0.694783	0.451559
H318	H	0.231374	-0.194783	0.951559
O319	O	-0.301991	-0.309614	0.351155
O320	O	0.198009	0.190386	0.851155
C321	C	-0.327472	-0.393723	0.380780
C322	C	0.172528	0.106277	0.880780
C323	C	-0.295826	-0.363676	0.344070
C324	C	0.204174	0.136324	0.844070
H325	H	-0.322491	-0.437437	0.375073
H326	H	0.177509	0.062563	0.875073
H327	H	-0.363697	-0.382996	0.371530
H328	H	0.136303	0.117004	0.871530
H329	H	-0.319632	-0.382973	0.422947
H330	H	0.180368	0.117027	0.922947
H331	H	-0.303625	-0.374410	0.301892
H332	H	0.196375	0.125590	0.801892
H333	H	-0.259610	-0.374405	0.353365
H334	H	0.240390	0.125595	0.853365
O335	O	-0.273249	-0.560639	0.317826
O336	O	0.226751	-0.060639	0.817826
C337	C	-0.330349	-0.554860	0.384013
C338	C	0.169651	-0.054860	0.884013
C339	C	-0.298693	-0.524862	0.347275
C340	C	0.201307	-0.024862	0.847275
H341	H	-0.350936	-0.525948	0.407824
H342	H	0.149064	-0.025948	0.907824
H343	H	-0.309780	-0.580436	0.411431
H344	H	0.190220	-0.080436	0.911431
H345	H	-0.353789	-0.580412	0.359950
H346	H	0.146211	-0.080412	0.859950
H347	H	-0.275247	-0.499282	0.371296
H348	H	0.224753	0.000718	0.871296
H349	H	-0.319290	-0.499319	0.319855
H350	H	0.180710	0.000681	0.819855
H351	H	-0.387563	-0.694677	0.312600
H352	H	0.112437	-0.194677	0.812600
O353	O	-0.159721	-0.821551	0.949744
O354	O	0.340279	-0.321551	1.449744
C355	C	-0.102754	-0.887958	0.955544
C356	C	0.397246	-0.387958	1.455544
C357	C	-0.134371	-0.851146	0.985531
C358	C	0.365629	-0.351146	1.485531
H359	H	-0.082257	-0.911904	0.984464
H360	H	0.417743	-0.411904	1.484464
H361	H	-0.079231	-0.863998	0.929994
H362	H	0.420769	-0.363998	1.429994
H363	H	-0.123393	-0.915253	0.929968
H364	H	0.376607	-0.415253	1.429968
H365	H	-0.113768	-0.823845	1.011135
H366	H	0.386232	-0.323845	1.511135
H367	H	-0.157895	-0.875139	1.011048
H368	H	0.342105	-0.375139	1.511048
H369	H	-0.744069	-0.849691	0.158048
H370	H	-0.244069	-0.349691	0.658048
H371	H	-0.829258	-0.661390	0.346058
H372	H	-0.329258	-0.161390	0.846058
H373	H	-0.164343	0.044967	0.191490
H374	H	0.335657	0.544967	0.691490
O375	O	-0.159690	-0.821470	1.057331
O376	O	0.340310	-0.321470	1.557331
C377	C	-0.099041	-0.828553	1.119013
C378	C	0.400959	-0.328553	1.619013
C379	C	-0.130674	-0.791768	1.088959
C380	C	0.369326	-0.291768	1.588959
H381	H	-0.075580	-0.804554	1.144600
H382	H	0.424420	-0.304554	1.644600
H383	H	-0.078480	-0.852457	1.090155
H384	H	0.421520	-0.352457	1.590155
H385	H	-0.119672	-0.855887	1.144562
H386	H	0.380328	-0.355887	1.644562
H387	H	-0.110078	-0.764403	1.063409
H388	H	0.389922	-0.264403	1.563409
H389	H	-0.151236	-0.767901	1.117845
H390	H	0.348764	-0.267901	1.617845
H391	H	-0.829187	-0.849719	0.158064
H392	H	-0.329187	-0.349719	0.658064
O393	O	-0.599582	-0.854920	0.152856
O394	O	-0.099582	-0.354920	0.652856
C395	C	-0.546586	-0.925526	0.145897
C396	C	-0.046586	-0.425526	0.645897
C397	C	-0.572421	-0.888714	0.182620
C398	C	-0.072421	-0.388714	0.682620
H399	H	-0.524627	-0.952865	0.169946
H400	H	-0.024627	-0.452865	0.669946
H401	H	-0.524618	-0.901567	0.118534
H402	H	-0.024618	-0.401567	0.618534
H403	H	-0.571414	-0.949424	0.122020
H404	H	-0.071414	-0.449424	0.622020
H405	H	-0.547625	-0.864808	0.206531
H406	H	-0.047625	-0.364808	0.706531
H407	H	-0.594396	-0.912703	0.209948
H408	H	-0.094396	-0.412703	0.709948
O409	O	-0.301734	-0.656021	0.698402
O410	O	0.198266	-0.156021	1.198402
C411	C	-0.307792	-0.585433	0.636716
C412	C	0.192208	-0.085433	1.136716
C413	C	-0.276200	-0.622276	0.666757
C414	C	0.223800	-0.122276	1.166757
H415	H	-0.287161	-0.558149	0.611116
H416	H	0.212839	-0.058149	1.111116
H417	H	-0.328305	-0.561485	0.665583
H418	H	0.171695	-0.061485	1.165583
H419	H	-0.331304	-0.609422	0.611182
H420	H	0.168696	-0.109422	1.111182
H421	H	-0.252661	-0.598328	0.692292
H422	H	0.247339	-0.098328	1.192292
H423	H	-0.255718	-0.646227	0.637862
H424	H	0.244282	-0.146227	1.137862
O425	O	-0.302052	-0.201979	0.351230
O426	O	0.197948	0.298021	0.851230
C427	C	-0.359104	-0.207746	0.417471
C428	C	0.140896	0.292254	0.917471
C429	C	-0.327435	-0.237751	0.380741
C430	C	0.172565	0.262249	0.880741
H431	H	-0.379627	-0.236654	0.441349
H432	H	0.120373	0.263346	0.941349
H433	H	-0.382600	-0.182168	0.393450
H434	H	0.117400	0.317832	0.893450
H435	H	-0.338505	-0.182197	0.444832
H436	H	0.161495	0.317803	0.944832
H437	H	-0.347998	-0.263328	0.353373
H438	H	0.152002	0.236672	0.853373
H439	H	-0.303938	-0.263296	0.404794
H440	H	0.196062	0.236704	0.904794
O441	O	-0.273024	-0.689558	1.057174
O442	O	0.226976	-0.189558	1.557174
C443	C	-0.330031	-0.623197	1.051374
C444	C	0.169969	-0.123197	1.551374
C445	C	-0.298432	-0.660030	1.021388
C446	C	0.201568	-0.160030	1.521388
H447	H	-0.350588	-0.599321	1.022454
H448	H	0.149412	-0.099321	1.522454
H449	H	-0.309419	-0.595842	1.076917
H450	H	0.190581	-0.095842	1.576917
H451	H	-0.353501	-0.647189	1.076957
H452	H	0.146499	-0.147189	1.576957
H453	H	-0.274955	-0.636081	0.995776
H454	H	0.225045	-0.136081	1.495776
H455	H	-0.319072	-0.687386	0.995878
H456	H	0.180928	-0.187386	1.495878
O457	O	-0.301839	-0.656113	0.805996
O458	O	0.198161	-0.156113	1.305996
C459	C	-0.378253	-0.630671	0.822685
C460	C	0.121747	-0.130671	1.322685
C461	C	-0.346635	-0.667488	0.792707
C462	C	0.153365	-0.167488	1.292707
H463	H	-0.414477	-0.639862	0.811959
H464	H	0.085523	-0.139862	1.311959
H465	H	-0.370391	-0.588513	0.811919
H466	H	0.129609	-0.088513	1.311919
H467	H	-0.373296	-0.636405	0.866403
H468	H	0.126704	-0.136405	1.366403
H469	H	-0.351574	-0.661801	0.748981
H470	H	0.148426	-0.161801	1.248981
H471	H	-0.354505	-0.709633	0.803516
H472	H	0.145495	-0.209633	1.303516
H473	H	-0.135547	-0.206211	0.158089
H474	H	0.364453	0.293789	0.658089
O475	O	-0.740536	-0.656049	0.351309
O476	O	-0.240536	-0.156049	0.851309
C477	C	-0.745530	-0.589689	0.417582
C478	C	-0.245530	-0.089689	0.917582
C479	C	-0.771290	-0.626539	0.380842
C480	C	-0.271290	-0.126539	0.880842
H481	H	-0.770383	-0.565828	0.441477
H482	H	-0.270383	-0.065828	0.941477
H483	H	-0.723611	-0.562322	0.393568
H484	H	-0.223611	-0.062322	0.893568
H485	H	-0.723520	-0.613667	0.444926
H486	H	-0.223520	-0.113667	0.944926
H487	H	-0.793325	-0.602603	0.353491
H488	H	-0.293325	-0.102603	0.853491
H489	H	-0.793181	-0.653907	0.404889
H490	H	-0.293181	-0.153907	0.904889
H491	H	-0.268746	-0.054090	0.312591
H492	H	0.231254	0.445910	0.812591
H493	H	-0.164302	-0.556445	0.191429
H494	H	0.335698	-0.056445	0.691429
O495	O	-0.273133	-0.689487	0.554837
O496	O	0.226867	-0.189487	1.054837
C497	C	-0.330140	-0.623125	0.549046
C498	C	0.169860	-0.123125	1.049046
C499	C	-0.298545	-0.659958	0.519055
C500	C	0.201455	-0.159958	1.019055
H501	H	-0.350700	-0.599249	0.520129
H502	H	0.149300	-0.099249	1.020129
H503	H	-0.309525	-0.595771	0.574586
H504	H	0.190475	-0.095771	1.074586
H505	H	-0.353608	-0.647117	0.574632
H506	H	0.146392	-0.147117	1.074632
H507	H	-0.275070	-0.636009	0.493440
H508	H	0.224930	-0.136009	0.993440
H509	H	-0.319187	-0.687314	0.493548
H510	H	0.180813	-0.187314	0.993548
O511	O	-0.159795	-0.058295	0.186186
O512	O	0.340205	0.441705	0.686186
C513	C	-0.102705	-0.052518	0.119990
C514	C	0.397295	0.447482	0.619990
C515	C	-0.134360	-0.022519	0.156741
C516	C	0.365640	0.477481	0.656741
H517	H	-0.082126	-0.023606	0.096182
H518	H	0.417874	0.476394	0.596182
H519	H	-0.123274	-0.078038	0.092569
H520	H	0.376726	0.421962	0.592569
H521	H	-0.079258	-0.078125	0.144042
H522	H	0.420742	0.421875	0.644042
H523	H	-0.157814	0.003116	0.132731
H524	H	0.342186	0.503116	0.632731
H525	H	-0.113763	0.002968	0.184164
H526	H	0.386237	0.502968	0.684164
H527	H	-0.959965	-0.694887	0.312672
H528	H	-0.459965	-0.194887	0.812672
H529	H	-0.688503	-0.661337	0.346051
H530	H	-0.188503	-0.161337	0.846051
H531	H	-0.164393	-0.816212	0.451608
H532	H	0.335607	-0.316212	0.951608
H533	H	-0.135538	-0.305257	0.158083
H534	H	0.364462	0.194743	0.658083
H535	H	-0.268716	-0.457378	0.312552
H536	H	0.231284	0.042622	0.812552
H537	H	-0.472623	-0.816133	0.191416
H538	H	0.027377	-0.316133	0.691416
O539	O	-0.273053	-0.689661	0.949561
O540	O	0.226947	-0.189661	1.449561
C541	C	-0.333743	-0.682566	0.887935
C542	C	0.166257	-0.182566	1.387935
C543	C	-0.302126	-0.719359	0.917999
C544	C	0.197874	-0.219359	1.417999
H545	H	-0.357262	-0.706563	0.862417
H546	H	0.142738	-0.206563	1.362417
H547	H	-0.313147	-0.655247	0.862330
H548	H	0.186853	-0.155247	1.362330
H549	H	-0.354247	-0.658645	0.916832
H550	H	0.145753	-0.158645	1.416832
H551	H	-0.281614	-0.743314	0.889139
H552	H	0.218386	-0.243314	1.389139
H553	H	-0.322747	-0.746644	0.943611
H554	H	0.177253	-0.246644	1.443611
H555	H	-0.959909	-0.816301	0.191464
H556	H	-0.459909	-0.316301	0.691464
H557	H	-1.045031	-0.816330	0.191480
H558	H	-0.545031	-0.316330	0.691480
H559	H	-1.045074	-0.694912	0.312673
H560	H	-0.545074	-0.194912	0.812673
O561	O	-0.273228	0.049346	0.317831
O562	O	0.226772	0.549346	0.817831
C563	C	-0.298746	0.133473	0.347399
C564	C	0.201254	0.633473	0.847399
C565	C	-0.267114	0.103404	0.310678
C566	C	0.232886	0.603404	0.810678
H567	H	-0.293820	0.177183	0.341620
H568	H	0.206180	0.677183	0.841620
H569	H	-0.290906	0.122751	0.389585
H570	H	0.209094	0.622751	0.889585
H571	H	-0.334955	0.122738	0.338151
H572	H	0.165045	0.622738	0.838151
H573	H	-0.230893	0.114122	0.319879
H574	H	0.269107	0.614122	0.819879
H575	H	-0.274992	0.114128	0.268502
H576	H	0.225008	0.614128	0.768502
