data_functionalizedCrystal
_audit_creation_method	'MofGen! by Chris Wilmer'
_symmetry_space_group_name_H-M	'P1'
_symmetry_Int_Tables_number	1
_symmetry_cell_setting	triclinic
loop_
_symmetry_equiv_pos_as_xyz
  x,y,z
_cell_length_a	29.839131
_cell_length_b	18.215407
_cell_length_c	18.215399
_cell_angle_alpha	89.980167
_cell_angle_beta	89.969127
_cell_angle_gamma	90.041868
loop_
_atom_site_label
_atom_site_type_symbol
_atom_site_fract_x
_atom_site_fract_y
_atom_site_fract_z
Zn1	Zn	-0.178853	1.124987	-0.416101
Zn2	Zn	-0.253982	1.124860	-0.293028
Zn3	Zn	-0.178867	1.001920	-0.293048
Zn4	Zn	-0.253957	1.001850	-0.416053
O5	O	-0.216415	1.063404	-0.354558
O6	O	-0.188823	1.227955	-0.399787
O7	O	-0.244034	1.108528	-0.190047
O8	O	-0.115998	1.018327	-0.309400
O9	O	-0.244020	1.227861	-0.309366
O10	O	-0.115987	1.108745	-0.399806
O11	O	-0.188848	1.018204	-0.190061
O12	O	-0.188824	0.898926	-0.309354
O13	O	-0.243978	1.018209	-0.519044
O14	O	-0.243992	0.898875	-0.399725
O15	O	-0.188799	1.108677	-0.519079
O16	O	-0.316846	1.108460	-0.309320
O17	O	-0.316827	1.018086	-0.399705
C18	C	-0.216407	0.872198	-0.354537
C19	C	-0.216414	0.790399	-0.354545
C20	C	-0.245186	0.602198	-0.401542
C21	C	-0.245187	0.525339	-0.401551
C22	C	-0.187652	0.525363	-0.307589
C23	C	-0.187648	0.602220	-0.307584
C24	C	-0.216418	0.640636	-0.354560
C25	C	-0.216423	0.486920	-0.354574
C26	C	-0.216424	0.403586	-0.354583
C27	C	-0.216416	0.723975	-0.354551
C28	C	-0.333137	1.063272	-0.354521
C29	C	-0.383072	1.063282	-0.354530
C30	C	-0.692712	1.110548	-0.307563
C31	C	-0.880385	1.110639	-0.307591
O32	O	-0.904647	1.150721	-0.267629
N33	N	-0.903857	1.063557	-0.354613
C34	C	-0.880407	1.016452	-0.401635
O35	O	-0.904678	0.976414	-0.441636
C36	C	-0.692735	1.016366	-0.401609
C37	C	-0.669266	1.063446	-0.354579
C38	C	-0.669243	1.157625	-0.260536
C39	C	-0.622327	1.157599	-0.260527
C40	C	-0.598881	1.110496	-0.307544
C41	C	-0.622350	1.063420	-0.354570
C42	C	-0.669287	0.969265	-0.448634
C43	C	-0.622365	0.969249	-0.448625
C44	C	-0.598896	1.016329	-0.401595
C45	C	-0.551989	1.016291	-0.401577
N46	N	-0.528517	1.063373	-0.354554
C47	C	-0.551963	1.110476	-0.307538
C48	C	-0.978938	1.016500	-0.401644
C49	C	-1.025856	1.016521	-0.401649
C50	C	-1.025830	1.110709	-0.307606
C51	C	-0.978911	1.110684	-0.307598
C52	C	-0.955466	1.063582	-0.354622
C53	C	-0.453437	1.110417	-0.307521
C54	C	-0.406518	1.110385	-0.307514
C55	C	-0.406547	1.016200	-0.401559
C56	C	-0.453463	1.016229	-0.401564
C57	C	-0.476907	1.063344	-0.354543
O58	O	-0.527698	0.976236	-0.441523
O59	O	-0.527685	1.150520	-0.267554
C60	C	-0.739627	1.110574	-0.307572
C61	C	-0.763097	1.063498	-0.354598
C62	C	-0.739651	1.016395	-0.401615
C63	C	-0.810015	1.063518	-0.354604
C64	C	-0.833461	1.110621	-0.307587
C65	C	-0.809989	1.157703	-0.260565
C66	C	-0.763074	1.157677	-0.260555
C67	C	-0.763122	0.969313	-0.448637
C68	C	-0.810038	0.969342	-0.448642
C69	C	-0.833484	1.016445	-0.401625
C70	C	-0.099236	1.063558	-0.354610
C71	C	-0.049302	1.063623	-0.354633
C72	C	-0.216384	1.063449	-0.546511
C73	C	-0.216370	1.063468	-0.628310
C74	C	-0.216423	1.255357	-0.354579
C75	C	-0.216426	1.337156	-0.354589
C76	C	-0.187612	1.110592	-0.816523
C77	C	-0.187599	1.110601	-0.893382
C78	C	-0.245059	1.016397	-0.893334
C79	C	-0.245070	1.016385	-0.816477
C80	C	-0.216347	1.063487	-0.778073
C81	C	-0.216323	1.063507	-0.931789
C82	C	-0.216309	1.063517	-1.015123
C83	C	-0.216360	1.063477	-0.694734
C84	C	-0.216413	1.063402	-0.163351
C85	C	-0.216300	1.063526	-0.081553
H86	H	-0.387411	1.148723	-0.269213
O87	O	-0.159688	0.639450	-0.261872
C88	C	-0.134291	0.589065	-0.220420
H89	H	-0.152691	0.534256	-0.217818
H90	H	-0.129453	0.611256	-0.162451
H91	H	-0.100192	0.580939	-0.247471
O92	O	-0.273008	0.970727	-0.779040
C93	C	-0.302037	1.012585	-0.734588
H94	H	-0.286195	1.068375	-0.723097
H95	H	-0.308062	0.982595	-0.680531
H96	H	-0.335327	1.020632	-0.764190
H97	H	-0.164229	0.494076	-0.269342
H98	H	-0.472520	1.148784	-0.269233
O99	O	-0.273155	0.487920	-0.447086
C100	C	-0.302147	0.443425	-0.405105
H101	H	-0.286260	0.431903	-0.349383
H102	H	-0.308193	0.389386	-0.435070
H103	H	-0.335433	0.473005	-0.396917
O104	O	-0.832783	1.203555	-0.215008
C105	C	-0.859875	1.251057	-0.256979
H106	H	-0.845706	1.255534	-0.314942
H107	H	-0.860377	1.307719	-0.230438
H108	H	-0.895450	1.228330	-0.259497
H109	H	-0.164199	1.148958	-0.924684
O110	O	-0.273142	0.639402	-0.447247
C111	C	-0.298540	0.588990	-0.488705
H112	H	-0.280143	0.534225	-0.491307
H113	H	-0.303374	0.611214	-0.546673
H114	H	-0.332641	0.580768	-0.461659
H115	H	-0.744036	0.930957	-0.486924
H116	H	-0.603221	1.195937	-0.222233
H117	H	-0.829142	0.930998	-0.486939
O118	O	-0.159666	1.156364	-0.779331
C119	C	-0.134309	1.197953	-0.829753
H120	H	-0.132747	1.167819	-0.884534
H121	H	-0.098916	1.205843	-0.807568
H122	H	-0.150759	1.253828	-0.837930
H123	H	-1.044960	0.978177	-0.439939
O124	O	-0.740229	1.203450	-0.214975
C125	C	-0.713053	1.250961	-0.256910
H126	H	-0.706013	1.224971	-0.312655
H127	H	-0.680068	1.260832	-0.226931
H128	H	-0.731101	1.305499	-0.265053
H129	H	-0.688328	1.195985	-0.222250
H130	H	-0.959852	0.978143	-0.439938
O131	O	-0.272947	0.970717	-0.930755
C132	C	-0.266770	0.980815	-1.006836
H133	H	-0.252057	1.037630	-1.017352
H134	H	-0.300417	0.975786	-1.036027
H135	H	-0.242842	0.937197	-1.028652
H136	H	-0.959806	1.149021	-0.269302
O137	O	-1.048679	1.156486	-0.262047
C138	C	-1.095122	1.146412	-0.272153
H139	H	-1.101509	1.122213	-0.328902
H140	H	-1.112911	1.201564	-0.267300
H141	H	-1.108500	1.107315	-0.228431
O142	O	-0.692008	0.923511	-0.494393
C143	C	-0.661243	0.881930	-0.535873
H144	H	-0.627781	0.912062	-0.538430
H145	H	-0.674775	0.874057	-0.593856
H146	H	-0.656298	0.826048	-0.508876
O147	O	-0.599570	0.923598	-0.494383
C148	C	-0.572377	0.965456	-0.541935
H149	H	-0.586476	1.023424	-0.546534
H150	H	-0.571840	0.938809	-0.598548
H151	H	-0.536826	0.967983	-0.519178
H152	H	-0.472573	0.977895	-0.439862
O153	O	-0.383745	0.970556	-0.447309
C154	C	-0.356554	1.012428	-0.494852
H155	H	-0.370661	1.070391	-0.499448
H156	H	-0.356009	0.985787	-0.551467
H157	H	-0.321005	1.014966	-0.472087
