data_functionalizedCrystal
_audit_creation_method	'MofGen! by Chris Wilmer'
_symmetry_space_group_name_H-M	'P1'
_symmetry_Int_Tables_number	1
_symmetry_cell_setting	triclinic
loop_
_symmetry_equiv_pos_as_xyz
  x,y,z
_cell_length_a	23.532407
_cell_length_b	23.532407
_cell_length_c	22.010155
_cell_angle_alpha	90.003069
_cell_angle_beta	89.999577
_cell_angle_gamma	97.151322
loop_
_atom_site_label
_atom_site_type_symbol
_atom_site_fract_x
_atom_site_fract_y
_atom_site_fract_z
O1	O	0.069127	-0.755264	-0.050455
O2	O	0.079130	-0.589400	-0.050474
O3	O	-0.008803	-0.677334	-0.050453
O4	O	0.157060	-0.667330	-0.050476
O5	O	-0.008790	-0.677318	0.050597
O6	O	0.079143	-0.589384	0.050576
O7	O	0.069140	-0.755248	0.050595
Cu8	Cu	0.074143	-0.672315	0.059812
Cu9	Cu	0.074127	-0.672333	-0.059691
O10	O	0.157073	-0.667314	0.050574
C11	C	0.078882	-0.568176	0.000049
C12	C	0.078116	-0.504959	0.000042
C13	C	-0.030013	-0.677071	0.000074
C14	C	-0.093230	-0.676305	0.000078
N15	N	0.074153	-0.672305	0.143865
C16	C	-0.492333	-0.723539	0.000050
C17	C	-0.551733	-0.722827	0.000046
O18	O	-0.588478	-0.766613	0.000028
N19	N	-0.574359	-0.670551	0.000040
C20	C	-0.537582	-0.618983	0.000033
O21	O	-0.562281	-0.574452	0.000027
C22	C	-0.478182	-0.619695	0.000033
C23	C	-0.455560	-0.671974	0.000045
C24	C	-0.469710	-0.775814	0.000061
C25	C	-0.410313	-0.776525	0.000067
C26	C	-0.373540	-0.724961	0.000062
C27	C	-0.396164	-0.672685	0.000051
C28	C	-0.441406	-0.568127	0.000022
C29	C	-0.382004	-0.568844	0.000022
C30	C	-0.359381	-0.621123	0.000034
C31	C	-0.299995	-0.621832	0.000052
N32	N	-0.277368	-0.674109	0.000057
C33	C	-0.314141	-0.725673	0.000062
C34	C	-0.662324	-0.617491	0.000031
C35	C	-0.721722	-0.616778	0.000035
C36	C	-0.735869	-0.720623	0.000047
C37	C	-0.676470	-0.721335	0.000047
C38	C	-0.639698	-0.669767	0.000037
C39	C	-0.189405	-0.727163	0.000075
C40	C	-0.130003	-0.727869	0.000083
C41	C	-0.115860	-0.624025	0.000069
C42	C	-0.175257	-0.623318	0.000064
C43	C	-0.212029	-0.674891	0.000065
O44	O	-0.263215	-0.578070	0.000067
O45	O	-0.289433	-0.770196	0.000060
C46	C	0.178283	-0.667577	0.000046
C47	C	0.241500	-0.668343	0.000037
C48	C	0.069388	-0.776472	0.000071
C49	C	0.070154	-0.839689	0.000073
C50	C	0.125350	-0.105856	0.000063
C51	C	0.124638	-0.046456	0.000067
O52	O	0.168424	-0.009711	0.000083
N53	N	0.072362	-0.023830	0.000073
C54	C	0.020794	-0.060607	0.000082
O55	O	-0.023737	-0.035908	0.000088
C56	C	0.021506	-0.120006	0.000082
C57	C	0.073785	-0.142629	0.000070
C58	C	0.177625	-0.128479	0.000051
C59	C	0.178336	-0.187876	0.000046
C60	C	0.126772	-0.224649	0.000053
C61	C	0.074497	-0.202025	0.000065
C62	C	-0.030062	-0.156783	0.000096
C63	C	-0.029345	-0.216185	0.000097
C64	C	0.022934	-0.238808	0.000084
C65	C	0.023643	-0.298194	0.000067
N66	N	0.075920	-0.320820	0.000061
C67	C	0.127484	-0.284048	0.000054
C68	C	0.019302	0.064135	0.000082
C69	C	0.018589	0.123533	0.000077
C70	C	0.122434	0.137680	0.000063
C71	C	0.123146	0.078281	0.000064
C72	C	0.071578	0.041509	0.000076
C73	C	0.128974	-0.408784	0.000043
C74	C	0.129680	-0.468186	0.000035
C75	C	0.025836	-0.482329	0.000052
C76	C	0.025129	-0.422932	0.000057
C77	C	0.076702	-0.386160	0.000054
O78	O	-0.020119	-0.334974	0.000054
O79	O	0.172007	-0.308755	0.000055
N80	N	0.074112	-0.672347	-0.143744
C81	C	0.035196	-0.711273	0.563653
C82	C	0.035192	-0.711275	0.627261
O83	O	0.002076	-0.744384	0.660160
N84	N	0.074115	-0.672333	0.659072
C85	C	0.113041	-0.633382	0.627272
O86	O	0.146148	-0.600259	0.660170
C87	C	0.113042	-0.633377	0.563665
C88	C	0.074120	-0.672326	0.531858
C89	C	-0.003723	-0.750217	0.531846
C90	C	-0.003719	-0.750215	0.468243
C91	C	0.035205	-0.711268	0.436447
C92	C	0.074125	-0.672324	0.468255
C93	C	0.151965	-0.594424	0.531866
C94	C	0.151962	-0.594422	0.468256
C95	C	0.113040	-0.633370	0.436448
C96	C	0.113054	-0.633374	0.372856
N97	N	0.074130	-0.672317	0.341045
C98	C	0.035206	-0.711263	0.372841
C99	C	0.113036	-0.633395	0.760850
C100	C	0.113039	-0.633402	0.824455
C101	C	0.035188	-0.711294	0.824440
C102	C	0.035189	-0.711290	0.760833
C103	C	0.074113	-0.672337	0.729039
C104	C	0.035220	-0.711256	0.239269
C105	C	0.035229	-0.711252	0.175660
C106	C	0.113077	-0.633358	0.175681
C107	C	0.113070	-0.633364	0.239284
C108	C	0.074136	-0.672315	0.271077
O109	O	0.146151	-0.600282	0.339916
O110	O	0.002100	-0.744376	0.339935
H111	H	-0.111587	-0.770443	0.000094
F112	F	0.183864	-0.369658	0.000040
H113	H	-0.740136	-0.574207	0.000036
H114	H	0.003534	-0.742971	0.149765
F115	F	-0.030513	-0.398854	0.000070
F116	F	-0.085706	-0.132720	0.000100
F117	F	-0.775016	-0.775503	0.000049
H118	H	-0.499645	-0.817806	0.000063
F119	F	0.232512	-0.089351	0.000044
F120	F	-0.652399	-0.776978	0.000059
H121	H	-0.023982	0.141947	0.000078
F122	F	-0.199335	-0.567676	0.000062
H123	H	-0.071339	-0.246123	0.000107
F124	F	0.233980	-0.211944	0.000036
F125	F	-0.623192	-0.562602	0.000026
F126	F	-0.342871	-0.513956	0.000010
F127	F	-0.076714	-0.569149	0.000064
F128	F	-0.465469	-0.512483	0.000007
H129	H	0.165717	0.059867	0.000057
H130	H	0.183658	-0.562708	0.557755
F131	F	0.154472	-0.591955	0.858300
F132	F	0.185326	-0.492259	0.000020
F133	F	0.177314	0.176828	0.000058
H134	H	-0.022693	0.034198	0.000086
H135	H	-0.016146	-0.512280	0.000056
F136	F	-0.386245	-0.832169	0.000066
F137	F	-0.006237	-0.752743	0.726987
H138	H	0.003516	-0.742973	0.265148
H139	H	-0.035414	-0.781929	0.442349
H140	H	-0.035423	-0.781933	0.557728
H141	H	0.144737	-0.601676	0.734966
H142	H	0.003493	-0.743006	0.850339
F143	F	0.193390	-0.552960	0.434422
H144	H	0.144769	-0.601654	0.265183
H145	H	-0.219337	-0.769159	0.000073
F146	F	0.154503	-0.591911	0.141832
