data_functionalizedCrystal
_audit_creation_method	'MofGen! by Chris Wilmer'
_symmetry_space_group_name_H-M	'P1'
_symmetry_Int_Tables_number	1
_symmetry_cell_setting	triclinic
loop_
_symmetry_equiv_pos_as_xyz
  x,y,z
_cell_length_a	19.288859
_cell_length_b	17.666332
_cell_length_c	19.288865
_cell_angle_alpha	90.011714
_cell_angle_beta	83.134986
_cell_angle_gamma	90.010223
loop_
_atom_site_label
_atom_site_type_symbol
_atom_site_fract_x
_atom_site_fract_y
_atom_site_fract_z
O1	O	0.921356	0.062972	0.086628
O2	O	1.421356	0.562972	0.586628
O3	O	0.719094	0.062971	0.098322
O4	O	1.219094	0.562971	0.598322
O5	O	0.826069	0.062957	-0.008655
O6	O	1.326069	0.562957	0.491345
O7	O	0.814381	0.062987	0.193605
O8	O	1.314381	0.562987	0.693605
O9	O	0.826051	-0.062940	-0.008661
O10	O	1.326051	0.437060	0.491339
O11	O	0.719076	-0.062925	0.098316
O12	O	1.219076	0.437075	0.598316
O13	O	0.921337	-0.062925	0.086623
O14	O	1.421337	0.437075	0.586623
Cu15	Cu	0.820205	-0.074421	0.092469
Cu16	Cu	1.320205	0.425579	0.592469
Cu17	Cu	0.820227	0.074467	0.092476
Cu18	Cu	1.320227	0.574467	0.592476
O19	O	0.814362	-0.062910	0.193600
O20	O	1.314362	0.437090	0.693600
C21	C	0.693209	0.000023	0.097943
C22	C	1.193209	0.500023	0.597943
C23	C	0.616105	0.000022	0.096816
C24	C	1.116105	0.500022	0.596816
C25	C	0.052064	0.000031	0.151959
C26	C	0.552064	0.500031	0.651959
C27	C	0.124511	0.000035	0.153025
C28	C	0.624511	0.500035	0.653025
C29	C	0.169217	0.000024	0.090255
C30	C	0.669217	0.500024	0.590255
C31	C	0.141472	0.000029	0.026416
C32	C	0.641472	0.500029	0.526416
C33	C	0.069027	0.000032	0.025353
C34	C	0.569027	0.500032	0.525353
C35	C	0.290481	-0.044093	0.043440
C36	C	0.790481	0.455907	0.543440
C37	C	0.362925	-0.044101	0.044506
C38	C	0.862925	0.455899	0.544506
C39	C	0.392663	0.000017	0.093533
C40	C	0.892663	0.500017	0.593533
C41	C	0.349948	0.044133	0.141505
C42	C	0.849948	0.544133	0.641505
C43	C	0.277502	0.044137	0.140441
C44	C	0.777502	0.544137	0.640441
C45	C	0.247773	0.000021	0.091401
C46	C	0.747773	0.500021	0.591401
C47	C	0.498955	0.000022	0.158523
C48	C	0.998955	0.500022	0.658523
C49	C	0.571403	0.000031	0.159586
C50	C	1.071403	0.500031	0.659586
C51	C	0.588364	0.000017	0.032976
C52	C	1.088364	0.500017	0.532976
C53	C	0.515917	0.000016	0.031915
C54	C	1.015917	0.500016	0.531915
C55	C	0.471216	0.000015	0.094691
C56	C	0.971216	0.500015	0.594691
N57	N	0.820194	-0.179140	0.092464
N58	N	1.320194	0.320860	0.592464
C59	C	0.867578	-0.218756	0.045117
C60	C	1.367578	0.281244	0.545117
C61	C	0.867582	-0.298004	0.045114
C62	C	1.367582	0.201996	0.545114
C63	C	0.820209	-0.337632	0.092469
C64	C	1.320209	0.162368	0.592469
C65	C	0.772816	-0.298006	0.139819
C66	C	1.272816	0.201994	0.639819
C67	C	0.772809	-0.218760	0.139816
C68	C	1.272809	0.281240	0.639816
N69	N	0.811175	-0.462042	0.153958
N70	N	1.311175	0.037958	0.653958
N71	N	0.811186	-0.537322	0.153958
N72	N	1.311186	-0.037322	0.653958
C73	C	0.820227	-0.576396	0.092479
C74	C	1.320227	-0.076396	0.592479
N75	N	0.829270	-0.537346	0.030997
N76	N	1.329270	-0.037346	0.530997
N77	N	0.829263	-0.462058	0.030998
N78	N	1.329263	0.037942	0.530998
C79	C	0.820211	-0.423561	0.092477
C80	C	1.320211	0.076439	0.592477
C81	C	0.867618	-0.701942	0.045125
C82	C	1.367618	-0.201942	0.545125
C83	C	0.867617	-0.781191	0.045120
C84	C	1.367617	-0.281191	0.545120
C85	C	0.772855	-0.781192	0.139831
C86	C	1.272855	-0.281192	0.639831
C87	C	0.772852	-0.701944	0.139830
C88	C	1.272852	-0.201944	0.639830
C89	C	0.820237	-0.662324	0.092477
C90	C	1.320237	-0.162324	0.592477
C91	C	0.947223	0.000025	0.087001
C92	C	1.447223	0.500025	0.587001
C93	C	1.024327	0.000031	0.088128
C94	C	1.524327	0.500031	0.588128
C95	C	0.825684	0.000006	-0.034535
C96	C	1.325684	0.500006	0.465465
C97	C	0.824555	-0.000001	-0.111638
C98	C	1.324555	0.499999	0.388362
N99	N	0.820243	0.179186	0.092475
N100	N	1.320243	0.679186	0.592475
C101	C	0.887323	-0.000004	-0.156336
C102	C	1.387323	0.499996	0.343664
C103	C	0.886262	0.000008	-0.228783
C104	C	1.386262	0.500008	0.271217
C105	C	0.822430	0.000008	-0.256529
C106	C	1.322430	0.500008	0.243471
C107	C	0.759654	0.000016	-0.211822
C108	C	1.259654	0.500016	0.288178
C109	C	0.760716	0.000011	-0.139376
C110	C	1.260716	0.500011	0.360624
C111	C	0.772244	-0.044091	-0.364817
C112	C	1.272244	0.455909	0.135183
C113	C	0.771184	-0.044091	-0.437262
C114	C	1.271184	0.455909	0.062738
C115	C	0.819150	0.000025	-0.479975
C116	C	1.319150	0.500025	0.020025
C117	C	0.868189	0.044132	-0.450236
C118	C	1.368189	0.544132	0.049764
C119	C	0.869251	0.044127	-0.377790
C120	C	1.369251	0.544127	0.122210
C121	C	0.821271	0.000013	-0.335083
C122	C	1.321271	0.500013	0.164917
C123	C	0.880773	0.000036	-0.603228
C124	C	1.380773	0.500036	-0.103228
C125	C	0.879709	0.000052	-0.675676
C126	C	1.379709	0.500052	-0.175676
C127	C	0.753099	0.000053	-0.658713
C128	C	1.253099	0.500053	-0.158713
C129	C	0.754164	0.000044	-0.586267
C130	C	1.254164	0.500044	-0.086267
C131	C	0.818003	0.000031	-0.558529
C132	C	1.318003	0.500031	-0.058529
C133	C	0.814747	0.000042	0.219479
C134	C	1.314747	0.500042	0.719479
C135	C	0.815876	0.000054	0.296583
C136	C	1.315876	0.500054	0.796583
H137	H	0.624763	0.000015	-0.018132
H138	H	1.124763	0.500015	0.481868
C139	C	0.955310	-0.000002	-0.277959
C140	C	1.455310	0.499998	0.222041
H141	H	0.993481	-0.000014	-0.251063
H142	H	1.493481	0.499986	0.248937
H143	H	0.957538	0.043900	-0.306567
H144	H	1.457538	0.543900	0.193433
H145	H	0.957512	-0.043911	-0.306578
H146	H	1.457512	0.456089	0.193422
C147	C	0.720689	-0.175181	0.191904
C148	C	1.220689	0.324819	0.691904
H149	H	0.692477	-0.210129	0.220111
H150	H	1.192477	0.289871	0.720111
H151	H	0.691856	-0.144278	0.166993
H152	H	1.191856	0.355722	0.666993
H153	H	0.745587	-0.144256	0.220757
H154	H	1.245587	0.355744	0.720757
H155	H	0.731251	-0.080001	-0.461469
H156	H	1.231251	0.419999	0.038531
H157	H	0.906200	-0.669682	0.006565
H158	H	1.406200	-0.169682	0.506565
C159	C	0.919707	-0.341591	-0.006968
C160	C	1.419707	0.158409	0.493032
H161	H	0.947929	-0.306645	-0.035167
H162	H	1.447929	0.193355	0.464833
H163	H	0.894820	-0.372523	-0.035817
H164	H	1.394820	0.127477	0.464183
H165	H	0.948542	-0.372487	0.017955
H166	H	1.448542	0.127513	0.517955
H167	H	0.593984	0.000037	0.211567
H168	H	1.093984	0.500037	0.711567
H169	H	0.266275	-0.080020	0.003514
H170	H	0.766275	0.419980	0.503514
C171	C	0.719477	-0.092621	-0.317840
C172	C	1.219477	0.407379	0.182160
H173	H	0.690127	-0.118896	-0.345926
H174	H	1.190127	0.381104	0.154074
H175	H	0.691850	-0.060826	-0.285814
H176	H	1.191850	0.439174	0.214186
H177	H	0.743904	-0.128093	-0.292805
H178	H	1.243904	0.371907	0.207195
C179	C	0.720743	-0.824770	0.191923
C180	C	1.220743	-0.324770	0.691923
H181	H	0.692520	-0.789822	0.220120
H182	H	1.192520	-0.289822	0.720120
H183	H	0.745638	-0.855670	0.220773
H184	H	1.245638	-0.355670	0.720773
H185	H	0.691910	-0.855697	0.167006
H186	H	1.191910	-0.355697	0.667006
C187	C	0.920959	0.092660	-0.497207
C188	C	1.420959	0.592660	0.002793
H189	H	0.950318	0.118921	-0.469121
H190	H	1.450318	0.618921	0.030879
H191	H	0.896540	0.128132	-0.522244
H192	H	1.396540	0.628132	-0.022244
H193	H	0.948585	0.060856	-0.529232
H194	H	1.448585	0.560856	-0.029232
C195	C	0.691668	0.000008	-0.090207
C196	C	1.191668	0.500008	0.409793
H197	H	0.653498	0.000007	-0.117104
H198	H	1.153498	0.500007	0.382896
H199	H	0.689458	0.043906	-0.061579
H200	H	1.189458	0.543906	0.438421
H201	H	0.689447	-0.043905	-0.061608
H202	H	1.189447	0.456095	0.438392
C203	C	0.685120	0.000043	-0.537094
C204	C	1.185120	0.500043	-0.037094
H205	H	0.694895	0.000047	-0.489975
H206	H	1.194895	0.500047	0.010025
H207	H	0.658926	-0.043857	-0.545490
H208	H	1.158926	0.456143	-0.045490
H209	H	0.658947	0.043954	-0.545475
H210	H	1.158947	0.543954	-0.045475
H211	H	0.177877	0.000022	-0.024691
H212	H	0.677877	0.500022	0.475309
C213	C	0.720709	-0.341594	0.191910
C214	C	1.220709	0.158406	0.691910
H215	H	0.727505	-0.394465	0.185136
H216	H	1.227505	0.105535	0.685136
H217	H	0.674377	-0.328626	0.184486
H218	H	1.174377	0.171374	0.684486
H219	H	0.728108	-0.328589	0.238250
H220	H	1.228108	0.171411	0.738250
H221	H	0.707681	0.000018	-0.234417
H222	H	1.207681	0.500018	0.265583
C223	C	0.038515	0.000026	-0.044864
C224	C	0.538515	0.500026	0.455136
H225	H	0.075514	0.000016	-0.082097
H226	H	0.575514	0.500016	0.417903
H227	H	0.010611	0.043927	-0.047908
H228	H	0.510611	0.543927	0.452092
H229	H	0.010602	-0.043885	-0.047912
H230	H	0.510602	0.456115	0.452088
C231	C	0.919738	-0.824772	-0.006965
C232	C	1.419738	-0.324772	0.493035
H233	H	0.912951	-0.877644	-0.000189
H234	H	1.412951	-0.377644	0.499811
H235	H	0.966067	-0.811773	0.000461
H236	H	1.466067	-0.311773	0.500461
H237	H	0.912339	-0.811796	-0.053306
H238	H	1.412339	-0.311796	0.446694
C239	C	0.002898	0.000039	0.221010
C240	C	0.502898	0.500039	0.721010
H241	H	0.029798	0.000046	0.259178
H242	H	0.529798	0.500046	0.759178
H243	H	-0.025727	-0.043860	0.223224
H244	H	0.474273	0.456140	0.723224
H245	H	-0.025704	0.043951	0.223231
H246	H	0.474296	0.543951	0.723231
H247	H	0.374158	0.080056	0.181428
H248	H	0.874158	0.580056	0.681428
C249	C	0.155030	0.000031	0.223241
C250	C	0.655030	0.500031	0.723241
H251	H	0.118032	0.000027	0.260475
H252	H	0.618032	0.500027	0.760475
H253	H	0.182949	0.043931	0.226295
H254	H	0.682949	0.543931	0.726295
H255	H	0.182928	-0.043880	0.226277
H256	H	0.682928	0.456120	0.726277
H257	H	0.734271	-0.669687	0.178386
H258	H	1.234271	-0.169687	0.678386
C259	C	0.957543	-0.000004	-0.125828
C260	C	1.457543	0.499996	0.374172
H261	H	0.994773	0.000003	-0.162828
H262	H	1.494773	0.500003	0.337172
H263	H	0.960586	-0.043906	-0.097926
H264	H	1.460586	0.456094	0.402074
H265	H	0.960593	0.043906	-0.097914
H266	H	1.460593	0.543906	0.402086
H267	H	0.932754	0.000029	-0.580643
H268	H	1.432754	0.500029	-0.080643
C269	C	0.485400	0.000012	-0.038298
C270	C	0.985400	0.500012	0.461702
H271	H	0.435852	0.000023	-0.029942
H272	H	0.935852	0.500023	0.470058
H273	H	0.500748	-0.043892	-0.064142
H274	H	1.000748	0.456108	0.435858
H275	H	0.500767	0.043920	-0.064126
H276	H	1.000767	0.543920	0.435874
C277	C	0.230516	0.092665	0.193199
C278	C	0.730516	0.592665	0.693199
H279	H	0.183112	0.086343	0.185544
H280	H	0.683112	0.586343	0.685544
H281	H	0.243215	0.144421	0.187273
H282	H	0.743215	0.644421	0.687273
H283	H	0.236225	0.077159	0.239331
H284	H	0.736225	0.577159	0.739331
H285	H	0.462558	0.000023	0.209639
H286	H	0.962558	0.500023	0.709639
C287	C	0.409905	-0.092628	-0.008257
C288	C	0.909905	0.407372	0.491743
H289	H	0.381820	-0.118893	-0.037615
H290	H	0.881820	0.381107	0.462385
H291	H	0.434940	-0.128097	0.016166
H292	H	0.934940	0.371903	0.516166
H293	H	0.441930	-0.060829	-0.035885
H294	H	0.941930	0.439171	0.464115
H295	H	0.906160	-0.186500	0.006559
H296	H	1.406160	0.313500	0.506559
H297	H	0.909178	0.080042	-0.353580
H298	H	1.409178	0.580042	0.146420
C299	C	0.948756	0.000057	-0.724847
C300	C	1.448756	0.500057	-0.224847
H301	H	0.938982	0.000073	-0.771967
H302	H	1.438982	0.500073	-0.271967
H303	H	0.974935	-0.043847	-0.716474
H304	H	1.474935	0.456153	-0.216474
H305	H	0.974945	0.043964	-0.716444
H306	H	1.474945	0.543964	-0.216444
C307	C	0.682884	0.000055	-0.689225
C308	C	1.182884	0.500055	-0.189225
H309	H	0.691240	0.000054	-0.738773
H310	H	1.191240	0.500054	-0.238773
H311	H	0.657055	0.043957	-0.673857
H312	H	1.157055	0.543957	-0.173857
H313	H	0.657043	-0.043854	-0.673879
H314	H	1.157043	0.456146	-0.173879
