data_functionalizedCrystal
_audit_creation_method	'MofGen! by Chris Wilmer'
_symmetry_space_group_name_H-M	'P1'
_symmetry_Int_Tables_number	1
_symmetry_cell_setting	triclinic
loop_
_symmetry_equiv_pos_as_xyz
  x,y,z
_cell_length_a	12.827892
_cell_length_b	12.827893
_cell_length_c	12.827885
_cell_angle_alpha	90.021189
_cell_angle_beta	89.970214
_cell_angle_gamma	89.986589
loop_
_atom_site_label
_atom_site_type_symbol
_atom_site_fract_x
_atom_site_fract_y
_atom_site_fract_z
Zn1	Zn	-0.416038	-1.597670	-0.590902
Zn2	Zn	0.083962	-1.097670	-0.090902
Zn3	Zn	-0.590815	-1.597564	-0.416162
Zn4	Zn	-0.090815	-1.097564	0.083838
Zn5	Zn	-0.416083	-1.422911	-0.416170
Zn6	Zn	0.083917	-0.922911	0.083830
Zn7	Zn	-0.590731	-1.422896	-0.590857
Zn8	Zn	-0.090731	-0.922896	-0.090857
O9	O	-0.503417	-1.510260	-0.503523
O10	O	-0.003417	-1.010260	-0.003523
O11	O	-0.439238	-1.743892	-0.567738
O12	O	0.060762	-1.243892	-0.067738
O13	O	-0.567690	-1.574358	-0.269927
O14	O	-0.067690	-1.074358	0.230073
O15	O	-0.269841	-1.446144	-0.439371
O16	O	0.230159	-0.946144	0.060629
O17	O	-0.567647	-1.743814	-0.439358
O18	O	-0.067647	-1.243814	0.060642
O19	O	-0.269808	-1.574538	-0.567746
O20	O	0.230192	-1.074538	-0.067746
O21	O	-0.439315	-1.446041	-0.269933
O22	O	0.060685	-0.946041	0.230067
O23	O	-0.439234	-1.276673	-0.439327
O24	O	0.060766	-0.776673	0.060673
O25	O	-0.567504	-1.446118	-0.737099
O26	O	-0.067504	-0.946118	-0.237099
O27	O	-0.567548	-1.276662	-0.567668
O28	O	-0.067548	-0.776662	-0.067668
O29	O	-0.439157	-1.574524	-0.737132
O30	O	0.060843	-1.074524	-0.237132
O31	O	-0.737040	-1.574343	-0.439314
O32	O	-0.237040	-1.074343	0.060686
O33	O	-0.736978	-1.446016	-0.567661
O34	O	-0.236978	-0.946016	-0.067661
C35	C	-0.503387	-1.238750	-0.503494
C36	C	-0.003387	-0.738750	-0.003494
C37	C	-0.503400	-1.122597	-0.503506
C38	C	-0.003400	-0.622597	-0.003506
C39	C	-0.566991	-1.070835	-0.566914
C40	C	-0.066991	-0.570835	-0.066914
C41	C	-0.567005	-0.950784	-0.566928
C42	C	-0.067005	-0.450784	-0.066928
C43	C	-0.774927	-1.510195	-0.503504
C44	C	-0.274927	-1.010195	-0.003504
C45	C	-0.891080	-1.510262	-0.503531
C46	C	-0.391080	-1.010262	-0.003531
C47	C	-0.942860	-1.573838	-0.440092
C48	C	-0.442860	-1.073838	0.059908
C49	C	-1.062910	-1.573910	-0.440118
C50	C	-0.562910	-1.073910	0.059882
C51	C	-0.230846	-1.510354	-0.503564
C52	C	0.269154	-1.010354	-0.003564
C53	C	-0.114693	-1.510394	-0.503582
C54	C	0.385307	-1.010394	-0.003582
C55	C	-0.503316	-1.510331	-0.776093
C56	C	-0.003316	-1.010331	-0.276093
C57	C	-0.503274	-1.510362	-0.892246
C58	C	-0.003274	-1.010362	-0.392246
C59	C	-0.503438	-0.782830	-0.503544
C60	C	-0.003438	-0.282830	-0.003544
C61	C	-0.503426	-0.898983	-0.503532
C62	C	-0.003426	-0.398983	-0.003532
C63	C	-0.439751	-1.573907	-0.944048
C64	C	0.060249	-1.073907	-0.444048
C65	C	-0.439705	-1.573940	-1.064098
C66	C	0.060295	-1.073940	-0.564098
C67	C	-0.503441	-1.510249	-0.232013
C68	C	-0.003441	-1.010249	0.267987
C69	C	-0.503190	-1.510422	-0.115860
C70	C	-0.003190	-1.010422	0.384140
H71	H	-0.621451	-0.906270	-0.621211
H72	H	-0.121451	-0.406270	-0.121211
H73	H	-0.898317	-1.628220	-0.385762
H74	H	-0.398317	-1.128220	0.114238
Br75	Br	-0.593851	-1.419745	-1.041625
Br76	Br	-0.093851	-0.919745	-0.541625
Br77	Br	-1.137123	-1.664627	-0.349578
Br78	Br	-0.637123	-1.164627	0.150422
Br79	Br	-0.412662	-1.048337	-0.413047
Br80	Br	0.087338	-0.548337	0.086953
H81	H	-0.385325	-1.628348	-1.108646
H82	H	0.114675	-1.128348	-0.608646
Br83	Br	-1.040488	-1.419657	-0.594107
Br84	Br	-0.540488	-0.919657	-0.094107
H85	H	-0.557617	-1.455975	-0.936774
H86	H	-0.057617	-0.955975	-0.436774
H87	H	-0.621419	-1.115396	-0.621193
H88	H	-0.121419	-0.615396	-0.121193
H89	H	-0.448984	-0.943491	-0.449239
H90	H	0.051016	-0.443491	0.050761
Br91	Br	-0.349127	-1.664518	-0.869843
Br92	Br	0.150873	-1.164518	-0.369843
H93	H	-0.935625	-1.455890	-0.557868
H94	H	-0.435625	-0.955890	-0.057868
