data_functionalizedCrystal
_audit_creation_method	'MofGen! by Chris Wilmer'
_symmetry_space_group_name_H-M	'P1'
_symmetry_Int_Tables_number	1
_symmetry_cell_setting	triclinic
loop_
_symmetry_equiv_pos_as_xyz
  x,y,z
_cell_length_a	16.625547
_cell_length_b	12.645330
_cell_length_c	12.645318
_cell_angle_alpha	89.940182
_cell_angle_beta	89.953011
_cell_angle_gamma	90.012583
loop_
_atom_site_label
_atom_site_type_symbol
_atom_site_fract_x
_atom_site_fract_y
_atom_site_fract_z
Zn1	Zn	1.232912	-0.421689	-0.599546
Zn2	Zn	1.732912	0.078311	-0.099546
Zn3	Zn	1.232786	-0.599079	-0.422279
Zn4	Zn	1.732786	-0.099079	0.077721
Zn5	Zn	1.098022	-0.421830	-0.422277
Zn6	Zn	1.598022	0.078170	0.077723
Zn7	Zn	1.098067	-0.598911	-0.599482
Zn8	Zn	1.598067	-0.098911	-0.099482
O9	O	1.165447	-0.510377	-0.510896
O10	O	1.665447	-0.010377	-0.010896
O11	O	1.345728	-0.445232	-0.576058
O12	O	1.845728	0.054768	-0.076058
O13	O	1.214838	-0.575695	-0.273931
O14	O	1.714838	-0.075695	0.226069
O15	O	1.115949	-0.273464	-0.445818
O16	O	1.615949	0.226536	0.054182
O17	O	1.345635	-0.575559	-0.445821
O18	O	1.845635	-0.075559	0.054179
O19	O	1.215052	-0.273361	-0.576057
O20	O	1.715052	0.226639	-0.076057
O21	O	1.115827	-0.445471	-0.273930
O22	O	1.615827	0.054529	0.226070
O23	O	0.985195	-0.445308	-0.445757
O24	O	1.485195	0.054692	0.054243
O25	O	1.116027	-0.575273	-0.747838
O26	O	1.616027	-0.075273	-0.247838
O27	O	0.985229	-0.575409	-0.575948
O28	O	1.485229	-0.075409	-0.075948
O29	O	1.215096	-0.445069	-0.747885
O30	O	1.715096	0.054931	-0.247885
O31	O	1.214882	-0.747404	-0.445759
O32	O	1.714882	-0.247404	0.054241
O33	O	1.115905	-0.747281	-0.575950
O34	O	1.615905	-0.247281	-0.075950
C35	C	0.955956	-0.510357	-0.510846
C36	C	1.455956	-0.010357	-0.010846
C37	C	0.866335	-0.510373	-0.510850
C38	C	1.366335	-0.010373	-0.010850
C39	C	0.793552	-0.510375	-0.510863
C40	C	1.293552	-0.010375	-0.010863
C41	C	0.702244	-0.510381	-0.510889
C42	C	1.202244	-0.010381	-0.010889
C43	C	0.629467	-0.510391	-0.510916
C44	C	1.129467	-0.010391	-0.010916
C45	C	0.538153	-0.510398	-0.510942
C46	C	1.038153	-0.010398	-0.010942
C47	C	1.165406	-0.785807	-0.510871
C48	C	1.665406	-0.285807	-0.010871
C49	C	1.165463	-0.903637	-0.510896
C50	C	1.665463	-0.403637	-0.010896
C51	C	1.227629	-1.071234	-0.428827
C52	C	1.727629	-0.571234	0.071173
C53	C	1.227832	-0.948674	-0.429028
C54	C	1.727832	-0.448674	0.070972
C55	C	1.188539	-0.947955	-0.622643
C56	C	1.688539	-0.447955	-0.122643
C57	C	1.189032	-1.070553	-0.622207
C58	C	1.689032	-0.570553	-0.122207
C59	C	1.080196	-1.070981	-0.482319
C60	C	1.580196	-0.570981	0.017681
C61	C	1.080604	-0.948378	-0.479813
C62	C	1.580604	-0.448378	0.020187
C63	C	1.375756	-0.510399	-0.510947
C64	C	1.875756	-0.010399	-0.010947
C65	C	1.465377	-0.510408	-0.510968
C66	C	1.965377	-0.010408	-0.010968
C67	C	1.165581	-0.510137	-0.787402
C68	C	1.665581	-0.010137	-0.287402
C69	C	1.165638	-0.510034	-0.905232
C70	C	1.665638	-0.010034	-0.405232
C71	C	1.165509	-0.233872	-0.510944
C72	C	1.665509	0.266128	-0.010944
C73	C	1.165536	-0.116042	-0.510965
C74	C	1.665536	0.383958	-0.010965
C75	C	1.165360	-0.510540	-0.235466
C76	C	1.665360	-0.010540	0.264534
C77	C	1.165459	-0.510344	-0.117636
C78	C	1.665459	-0.010344	0.382364
C79	C	1.102753	-0.428944	-0.072816
C80	C	1.602753	0.071056	0.427184
C81	C	1.102613	-0.429010	0.049745
C82	C	1.602613	0.070990	0.549745
C83	C	1.143408	-0.622117	0.050613
C84	C	1.643408	-0.122117	0.550613
C85	C	1.142850	-0.621826	-0.071985
C86	C	1.642850	-0.121826	0.428015
C87	C	1.250595	-0.480570	-0.072750
C88	C	1.750595	0.019430	0.427250
C89	C	1.250229	-0.477932	0.049850
C90	C	1.750229	0.022068	0.549850
H91	H	1.213390	-0.918718	-0.346169
H92	H	1.713390	-0.418718	0.153831
H93	H	1.250215	-0.917153	-0.647311
H94	H	1.750215	-0.417153	-0.147311
H95	H	1.299436	-0.532712	0.080481
H96	H	1.799436	-0.032712	0.580481
H97	H	1.145789	-1.100184	-0.685516
H98	H	1.645789	-0.600184	-0.185516
H99	H	1.116428	-0.345940	0.079584
H100	H	1.616428	0.154060	0.579584
H101	H	1.116348	-0.345703	-0.102542
H102	H	1.616348	0.154297	0.397458
H103	H	1.187757	-0.684366	0.079790
H104	H	1.687757	-0.184366	0.579790
H105	H	1.040017	-0.448510	-0.103407
H106	H	1.540017	0.051490	0.396593
H107	H	1.291040	-0.919255	-0.447976
H108	H	1.791040	-0.419255	0.052024
H109	H	1.031841	-0.917731	-0.535251
H110	H	1.531841	-0.417731	-0.035251
H111	H	1.270934	-0.400275	-0.103926
H112	H	1.770934	0.099725	0.396074
H113	H	1.290498	-1.101954	-0.447563
H114	H	1.790498	-0.601954	0.052437
H115	H	1.251413	-1.099052	-0.646471
H116	H	1.751413	-0.599052	-0.146471
H117	H	1.213368	-1.100835	-0.345726
H118	H	1.713368	-0.600835	0.154274
H119	H	1.039571	-0.448727	0.079291
H120	H	1.539571	0.051273	0.579291
H121	H	1.144691	-0.918773	-0.685482
H122	H	1.644691	-0.418773	-0.185482
H123	H	1.033931	-1.099954	-0.542143
H124	H	1.533931	-0.599954	-0.042143
H125	H	1.059217	-1.102035	-0.402252
H126	H	1.559217	-0.602035	0.097748
H127	H	1.080646	-0.646906	-0.100352
H128	H	1.580646	-0.146906	0.399648
H129	H	1.063205	-0.919428	-0.397576
H130	H	1.563205	-0.419428	0.102424
H131	H	1.186587	-0.684596	-0.101618
H132	H	1.686587	-0.184596	0.398382
H133	H	1.081941	-0.647527	0.081544
H134	H	1.581941	-0.147527	0.581544
H135	H	1.267000	-0.395443	0.078671
H136	H	1.767000	0.104557	0.578671
H137	H	1.297309	-0.539837	-0.101739
H138	H	1.797309	-0.039837	0.398261
