data_functionalizedCrystal
_audit_creation_method	'MofGen! by Chris Wilmer'
_symmetry_space_group_name_H-M	'P1'
_symmetry_Int_Tables_number	1
_symmetry_cell_setting	triclinic
loop_
_symmetry_equiv_pos_as_xyz
  x,y,z
_cell_length_a	21.395362
_cell_length_b	16.120484
_cell_length_c	21.395356
_cell_angle_alpha	92.871514
_cell_angle_beta	89.957023
_cell_angle_gamma	92.942400
loop_
_atom_site_label
_atom_site_type_symbol
_atom_site_fract_x
_atom_site_fract_y
_atom_site_fract_z
Zn1	Zn	0.945241	-0.331581	-0.367212
Zn2	Zn	1.195241	-0.081581	-0.117212
Zn3	Zn	1.445241	0.168419	0.132788
Zn4	Zn	1.695241	0.418419	0.382788
Zn5	Zn	0.939842	-0.471001	-0.267744
Zn6	Zn	1.189842	-0.221001	-0.017744
Zn7	Zn	1.439842	0.028999	0.232256
Zn8	Zn	1.689842	0.278999	0.482256
Zn9	Zn	0.840456	-0.331642	-0.262416
Zn10	Zn	1.090456	-0.081642	-0.012416
Zn11	Zn	1.340456	0.168358	0.237584
Zn12	Zn	1.590456	0.418358	0.487584
Zn13	Zn	0.835123	-0.470995	-0.372448
Zn14	Zn	1.085123	-0.220995	-0.122448
Zn15	Zn	1.335123	0.029005	0.127552
Zn16	Zn	1.585123	0.279005	0.377552
O17	O	0.890165	-0.401305	-0.317455
O18	O	1.140165	-0.151305	-0.067455
O19	O	1.390165	0.098695	0.182545
O20	O	1.640165	0.348695	0.432545
O21	O	1.032204	-0.350051	-0.354056
O22	O	1.282204	-0.100051	-0.104056
O23	O	1.532204	0.149949	0.145944
O24	O	1.782204	0.399949	0.395944
O25	O	0.926631	-0.452542	-0.179360
O26	O	1.176631	-0.202542	0.070640
O27	O	1.426631	0.047458	0.320640
O28	O	1.676631	0.297458	0.570640
O29	O	0.858847	-0.214966	-0.271896
O30	O	1.108847	0.035034	-0.021896
O31	O	1.358847	0.285034	0.228104
O32	O	1.608847	0.535034	0.478104
O33	O	1.028237	-0.452483	-0.280977
O34	O	1.278237	-0.202483	-0.030977
O35	O	1.528237	0.047517	0.219023
O36	O	1.778237	0.297517	0.469023
O37	O	0.935833	-0.214921	-0.348890
O38	O	1.185833	0.035079	-0.098890
O39	O	1.435833	0.285079	0.151110
O40	O	1.685833	0.535079	0.401110
O41	O	0.853612	-0.350156	-0.175446
O42	O	1.103612	-0.100156	0.074554
O43	O	1.353612	0.149844	0.324554
O44	O	1.603612	0.399844	0.574554
O45	O	0.752069	-0.350151	-0.276973
O46	O	1.002069	-0.100151	-0.026973
O47	O	1.252069	0.149849	0.223027
O48	O	1.502069	0.399849	0.473027
O49	O	0.849758	-0.452474	-0.459431
O50	O	1.099758	-0.202474	-0.209431
O51	O	1.349758	0.047526	0.040569
O52	O	1.599758	0.297526	0.290569
O53	O	0.748151	-0.452533	-0.357814
O54	O	0.998151	-0.202533	-0.107814
O55	O	1.248151	0.047467	0.142186
O56	O	1.498151	0.297467	0.392186
O57	O	0.930661	-0.350046	-0.455584
O58	O	1.180661	-0.100046	-0.205584
O59	O	1.430661	0.149954	0.044416
O60	O	1.680661	0.399954	0.294416
O61	O	0.921460	-0.587668	-0.286054
O62	O	1.171460	-0.337668	-0.036054
O63	O	1.421460	-0.087668	0.213946
O64	O	1.671460	0.162332	0.463946
O65	O	0.844522	-0.587664	-0.362980
O66	O	1.094522	-0.337664	-0.112980
O67	O	1.344522	-0.087664	0.137020
O68	O	1.594522	0.162336	0.387020
C69	C	0.727376	-0.401349	-0.317384
C70	C	0.977376	-0.151349	-0.067384
C71	C	1.227376	0.098651	0.182616
C72	C	1.477376	0.348651	0.432616
C73	C	0.657733	-0.401388	-0.317369
C74	C	0.907733	-0.151388	-0.067369
C75	C	1.157733	0.098612	0.182631
C76	C	1.407733	0.348612	0.432631
C77	C	0.622994	-0.454769	-0.359406
C78	C	0.872994	-0.204769	-0.109406
C79	C	1.122994	0.045231	0.140594
C80	C	1.372994	0.295231	0.390594
C81	C	0.557559	-0.454748	-0.359433
C82	C	0.807559	-0.204748	-0.109433
C83	C	1.057559	0.045252	0.140567
C84	C	1.307559	0.295252	0.390567
C85	C	0.526866	-0.401355	-0.317413
C86	C	0.776866	-0.151355	-0.067413
C87	C	1.026866	0.098645	0.182587
C88	C	1.276866	0.348645	0.432587
C89	C	0.561614	-0.347964	-0.275373
C90	C	0.811614	-0.097964	-0.025373
C91	C	1.061614	0.152036	0.224627
C92	C	1.311614	0.402036	0.474627
C93	C	0.627048	-0.347980	-0.275352
C94	C	0.877048	-0.097980	-0.025352
C95	C	1.127048	0.152020	0.224648
C96	C	1.377048	0.402020	0.474648
C97	C	0.423398	-0.394651	-0.260752
C98	C	0.673398	-0.144651	-0.010752
C99	C	0.923398	0.105349	0.239248
C100	C	1.173398	0.355349	0.489248
C101	C	0.357965	-0.394641	-0.260773
C102	C	0.607965	-0.144641	-0.010773
C103	C	0.857965	0.105359	0.239227
C104	C	1.107965	0.355359	0.489227
C105	C	0.325048	-0.401301	-0.317480
C106	C	0.575048	-0.151301	-0.067480
C107	C	0.825048	0.098699	0.182520
C108	C	1.075048	0.348699	0.432520
C109	C	0.357570	-0.407989	-0.374168
C110	C	0.607570	-0.157989	-0.124168
C111	C	0.857570	0.092011	0.125832
C112	C	1.107570	0.342011	0.375832
C113	C	0.423004	-0.408005	-0.374146
C114	C	0.673004	-0.158005	-0.124146
C115	C	0.923004	0.091995	0.125854
C116	C	1.173004	0.341995	0.375854
C117	C	0.455915	-0.401332	-0.317432
C118	C	0.705915	-0.151332	-0.067432
C119	C	0.955915	0.098668	0.182568
C120	C	1.205915	0.348668	0.432568
C121	C	0.219356	-0.454663	-0.359549
C122	C	0.469356	-0.204663	-0.109549
C123	C	0.719356	0.045337	0.140451
C124	C	0.969356	0.295337	0.390451
C125	C	0.153921	-0.454637	-0.359577
C126	C	0.403921	-0.204637	-0.109577
C127	C	0.653921	0.045363	0.140423
C128	C	0.903921	0.295363	0.390423
C129	C	0.157977	-0.347857	-0.275512
C130	C	0.407977	-0.097857	-0.025512
C131	C	0.657977	0.152143	0.224488
C132	C	0.907977	0.402143	0.474488
C133	C	0.223411	-0.347878	-0.275490
C134	C	0.473411	-0.097878	-0.025490
C135	C	0.723411	0.152122	0.224510
C136	C	0.973411	0.402122	0.474510
C137	C	0.254097	-0.401286	-0.317507
C138	C	0.504097	-0.151286	-0.067507
C139	C	0.754097	0.098714	0.182493
C140	C	1.004097	0.348714	0.432493
C141	C	0.881844	-0.617916	-0.325677
C142	C	1.131844	-0.367916	-0.075677
C143	C	1.381844	-0.117916	0.174323
C144	C	1.631844	0.132084	0.424323
C145	C	0.878341	-0.710584	-0.329216
C146	C	1.128341	-0.460584	-0.079216
C147	C	1.378341	-0.210584	0.170784
C148	C	1.628341	0.039416	0.420784
C149	C	0.871949	-0.880248	-0.335689
C150	C	1.121949	-0.630248	-0.085689
C151	C	1.371949	-0.380248	0.164311
C152	C	1.621949	-0.130248	0.414311
C153	C	0.908494	-0.921520	-0.299232
C154	C	1.158494	-0.671520	-0.049232
C155	C	1.408494	-0.421520	0.200768
C156	C	1.658494	-0.171520	0.450768
C157	C	0.904938	-1.015927	-0.302833
C158	C	1.154938	-0.765927	-0.052833
C159	C	1.404938	-0.515927	0.197167
C160	C	1.654938	-0.265927	0.447167
C161	C	0.875505	-0.785832	-0.332088
C162	C	1.125505	-0.535832	-0.082088
C163	C	1.375505	-0.285832	0.167912
C164	C	1.625505	-0.035832	0.417912
C165	C	1.053590	-0.401261	-0.317527
C166	C	1.303590	-0.151261	-0.067527
C167	C	1.553590	0.098739	0.182473
C168	C	1.803590	0.348739	0.432473
C169	C	1.123232	-0.401242	-0.317557
C170	C	1.373232	-0.151242	-0.067557
C171	C	1.623232	0.098758	0.182443
C172	C	1.873232	0.348758	0.432443
C173	C	0.890217	-0.401253	-0.480876
C174	C	1.140217	-0.151253	-0.230876
C175	C	1.390217	0.098747	0.019124
C176	C	1.640217	0.348747	0.269124
C177	C	0.890239	-0.401231	-0.550517
C178	C	1.140239	-0.151231	-0.300517
C179	C	1.390239	0.098769	-0.050517
C180	C	1.640239	0.348769	0.199483
C181	C	0.898537	-0.183847	-0.309214
C182	C	1.148537	0.066153	-0.059214
C183	C	1.398537	0.316153	0.190786
C184	C	1.648537	0.566153	0.440786
C185	C	0.902104	-0.091179	-0.305703
C186	C	1.152104	0.158821	-0.055703
C187	C	1.402104	0.408821	0.194297
C188	C	1.652104	0.658821	0.444297
C189	C	0.852229	-0.347912	-0.581182
C190	C	1.102229	-0.097912	-0.331182
C191	C	1.352229	0.152088	-0.081182
C192	C	1.602229	0.402088	0.168818
C193	C	0.852227	-0.347897	-0.646617
C194	C	1.102227	-0.097897	-0.396617
C195	C	1.352227	0.152103	-0.146617
C196	C	1.602227	0.402103	0.103383
C197	C	0.890247	-0.401191	-0.681384
C198	C	1.140247	-0.151191	-0.431384
C199	C	1.390247	0.098809	-0.181384
C200	C	1.640247	0.348809	0.068616
C201	C	0.928260	-0.454520	-0.650712
C202	C	1.178260	-0.204520	-0.400712
C203	C	1.428260	0.045480	-0.150712
C204	C	1.678260	0.295480	0.099288
C205	C	0.928255	-0.454540	-0.585278
C206	C	1.178255	-0.204540	-0.335278
C207	C	1.428255	0.045460	-0.085278
C208	C	1.678255	0.295460	0.164722
C209	C	0.946450	-0.407725	-0.785338
C210	C	1.196450	-0.157725	-0.535338
C211	C	1.446450	0.092275	-0.285338
C212	C	1.696450	0.342275	-0.035338
C213	C	0.946456	-0.407699	-0.850770
C214	C	1.196456	-0.157699	-0.600770
C215	C	1.446456	0.092301	-0.350770
C216	C	1.696456	0.342301	-0.100770
C217	C	0.890259	-0.401135	-0.883203
C218	C	1.140259	-0.151135	-0.633203
C219	C	1.390259	0.098865	-0.383203
C220	C	1.640259	0.348865	-0.133203
C221	C	0.834056	-0.394579	-0.850194
C222	C	1.084056	-0.144579	-0.600194
C223	C	1.334056	0.105421	-0.350194
C224	C	1.584056	0.355421	-0.100194
C225	C	0.834052	-0.394598	-0.784761
C226	C	1.084052	-0.144598	-0.534761
C227	C	1.334052	0.105402	-0.284761
C228	C	1.584052	0.355402	-0.034761
C229	C	0.890256	-0.401176	-0.752336
C230	C	1.140256	-0.151176	-0.502336
C231	C	1.390256	0.098824	-0.252336
C232	C	1.640256	0.348824	-0.002336
C233	C	0.852244	-0.347797	-0.984819
C234	C	1.102244	-0.097797	-0.734819
C235	C	1.352244	0.152203	-0.484819
C236	C	1.602244	0.402203	-0.234819
C237	C	0.852242	-0.347787	-1.050255
C238	C	1.102242	-0.097787	-0.800255
C239	C	1.352242	0.152213	-0.550255
C240	C	1.602242	0.402213	-0.300255
C241	C	0.928280	-0.454406	-1.054349
C242	C	1.178280	-0.204406	-0.804349
C243	C	1.428280	0.045594	-0.554349
C244	C	1.678280	0.295594	-0.304349
C245	C	0.928277	-0.454420	-0.988914
C246	C	1.178277	-0.204420	-0.738914
C247	C	1.428277	0.045580	-0.488914
C248	C	1.678277	0.295580	-0.238914
C249	C	0.890260	-0.401111	-0.954153
C250	C	1.140260	-0.151111	-0.704153
C251	C	1.390260	0.098889	-0.454153
C252	C	1.640260	0.348889	-0.204153
C253	C	0.890153	-0.401296	-0.154667
C254	C	1.140153	-0.151296	0.095333
C255	C	1.390153	0.098704	0.345333
C256	C	1.640153	0.348704	0.595333
C257	C	0.890261	-0.401083	-0.085018
C258	C	1.140261	-0.151083	0.164982
C259	C	1.390261	0.098917	0.414982
C260	C	1.640261	0.348917	0.664982
H261	H	0.655333	-0.304508	-0.241120
H262	H	0.905333	-0.054508	0.008880
H263	H	1.155333	0.195492	0.258880
H264	H	1.405333	0.445492	0.508880
H265	H	0.821276	-0.304474	-0.671589
H266	H	1.071276	-0.054474	-0.421589
H267	H	1.321276	0.195526	-0.171589
H268	H	1.571276	0.445526	0.078411
H269	H	0.959238	-0.497798	-1.082656
H270	H	1.209238	-0.247798	-0.832656
H271	H	1.459238	0.002202	-0.582656
H272	H	1.709238	0.252202	-0.332656
H273	H	0.837993	-0.915814	-0.369603
H274	H	1.087993	-0.665814	-0.119603
H275	H	1.337993	-0.415814	0.130397
H276	H	1.587993	-0.165814	0.380397
H277	H	0.942452	-0.885952	-0.265314
H278	H	1.192452	-0.635952	-0.015314
H279	H	1.442452	-0.385952	0.234686
H280	H	1.692452	-0.135952	0.484686
H281	H	0.330771	-0.413411	-0.420344
H282	H	0.580771	-0.163411	-0.170344
H283	H	0.830771	0.086589	0.079656
H284	H	1.080771	0.336589	0.329656
H285	H	0.821270	-0.304507	-0.552883
H286	H	1.071270	-0.054507	-0.302883
H287	H	1.321270	0.195493	-0.052883
H288	H	1.571270	0.445493	0.197117
H289	H	0.529269	-0.498217	-0.393666
H290	H	0.779269	-0.248217	-0.143666
H291	H	1.029269	0.001783	0.106334
H292	H	1.279269	0.251783	0.356334
H293	H	0.450194	-0.389224	-0.214571
H294	H	0.700194	-0.139224	0.035429
H295	H	0.950194	0.110776	0.285429
H296	H	1.200194	0.360776	0.535429
H297	H	0.992217	-0.413063	-0.758937
H298	H	1.242217	-0.163063	-0.508937
H299	H	1.492217	0.086937	-0.258937
H300	H	1.742217	0.336937	-0.008937
H301	H	0.132988	-0.304379	-0.241301
H302	H	0.382988	-0.054379	0.008699
H303	H	0.632988	0.195621	0.258699
H304	H	0.882988	0.445621	0.508699
H305	H	0.788290	-0.389262	-0.757888
H306	H	1.038290	-0.139262	-0.507888
H307	H	1.288290	0.110738	-0.257888
H308	H	1.538290	0.360738	-0.007888
H309	H	0.788296	-0.389227	-0.876599
H310	H	1.038296	-0.139227	-0.626599
H311	H	1.288296	0.110773	-0.376599
H312	H	1.538296	0.360773	-0.126599
H313	H	0.244342	-0.498146	-0.393766
H314	H	0.494342	-0.248146	-0.143766
H315	H	0.744342	0.001854	0.106234
H316	H	0.994342	0.251854	0.356234
H317	H	0.821289	-0.304390	-0.956515
H318	H	1.071289	-0.054390	-0.706515
H319	H	1.321289	0.195610	-0.456515
H320	H	1.571289	0.445610	-0.206515
H321	H	0.821285	-0.304371	-1.075221
H322	H	1.071285	-0.054371	-0.825221
H323	H	1.321285	0.195629	-0.575221
H324	H	1.571285	0.445629	-0.325221
H325	H	0.959231	-0.497836	-0.963947
H326	H	1.209231	-0.247836	-0.713947
H327	H	1.459231	0.002164	-0.463947
H328	H	1.709231	0.252164	-0.213947
H329	H	0.992220	-0.413034	-0.877640
H330	H	1.242220	-0.163034	-0.627640
H331	H	1.492220	0.086966	-0.377640
H332	H	1.742220	0.336966	-0.127640
H333	H	0.959216	-0.497913	-0.679023
H334	H	1.209216	-0.247913	-0.429023
H335	H	1.459216	0.002087	-0.179023
H336	H	1.709216	0.252087	0.070977
H337	H	0.959210	-0.497957	-0.560311
H338	H	1.209210	-0.247957	-0.310311
H339	H	1.459210	0.002043	-0.060311
H340	H	1.709210	0.252043	0.189689
H341	H	0.449481	-0.413448	-0.420304
H342	H	0.699481	-0.163448	-0.170304
H343	H	0.949481	0.086552	0.079696
H344	H	1.199481	0.336552	0.329696
H345	H	0.647974	-0.498256	-0.393621
H346	H	0.897974	-0.248256	-0.143621
H347	H	1.147974	0.001744	0.106379
H348	H	1.397974	0.251744	0.356379
H349	H	0.331490	-0.389200	-0.214614
H350	H	0.581490	-0.139200	0.035386
H351	H	0.831490	0.110800	0.285386
H352	H	1.081490	0.360800	0.535386
H353	H	0.125637	-0.498105	-0.393812
H354	H	0.375637	-0.248105	-0.143812
H355	H	0.625637	0.001895	0.106188
H356	H	0.875637	0.251895	0.356188
H357	H	0.251697	-0.304414	-0.241256
H358	H	0.501697	-0.054414	0.008744
H359	H	0.751697	0.195586	0.258744
H360	H	1.001697	0.445586	0.508744
H361	H	0.536620	-0.304489	-0.241161
H362	H	0.786620	-0.054489	0.008839
H363	H	1.036620	0.195511	0.258839
H364	H	1.286620	0.445511	0.508839
