data_functionalizedCrystal
_audit_creation_method	'MofGen! by Chris Wilmer'
_symmetry_space_group_name_H-M	'P1'
_symmetry_Int_Tables_number	1
_symmetry_cell_setting	triclinic
loop_
_symmetry_equiv_pos_as_xyz
  x,y,z
_cell_length_a	16.109301
_cell_length_b	7.088929
_cell_length_c	16.109301
_cell_angle_alpha	96.223316
_cell_angle_beta	83.461481
_cell_angle_gamma	83.795408
loop_
_atom_site_label
_atom_site_type_symbol
_atom_site_fract_x
_atom_site_fract_y
_atom_site_fract_z
O1	O	1.094601	0.158875	0.115410
O2	O	0.852537	0.158906	0.128711
O3	O	0.980220	0.158870	0.001028
O4	O	0.966918	0.158911	0.243093
O5	O	0.997283	-0.159110	-0.016074
O6	O	0.869601	-0.159074	0.111609
O7	O	1.111664	-0.159105	0.098308
Cu8	Cu	0.992190	-0.188123	0.103397
Cu9	Cu	0.972011	0.187925	0.123622
O10	O	0.983982	-0.159069	0.225991
C11	C	0.830094	-0.000080	0.119621
C12	C	0.737798	-0.000069	0.118007
C13	C	0.515526	-0.000079	0.190014
C14	C	0.428806	-0.000091	0.188489
C15	C	0.448682	-0.000109	0.037000
C16	C	0.535400	-0.000110	0.038525
C17	C	0.568820	-0.000085	0.115035
C18	C	0.395381	-0.000097	0.111985
C19	C	0.301356	-0.000110	0.110331
C20	C	0.662851	-0.000075	0.116689
N21	N	1.006390	-0.452615	0.089171
C22	C	1.134107	-0.000114	0.107398
C23	C	1.226403	-0.000113	0.109013
C24	C	0.988213	-0.000121	-0.038498
C25	C	0.986598	-0.000123	-0.130793
N26	N	0.957818	0.452417	0.137841
C27	C	1.058604	-0.000102	-0.353064
C28	C	1.057079	-0.000086	-0.439784
C29	C	0.905590	-0.000074	-0.419909
C30	C	0.907115	-0.000076	-0.333190
C31	C	0.983625	-0.000100	-0.299771
C32	C	0.980575	-0.000082	-0.473209
C33	C	0.978921	-0.000065	-0.567234
C34	C	0.985279	-0.000114	-0.205740
C35	C	0.975988	-0.000074	0.265517
C36	C	0.977603	-0.000059	0.357813
H37	H	0.385418	-0.000090	0.249545
C38	C	0.821435	-0.000066	-0.456677
C39	C	0.768019	-0.165179	-0.445442
C40	C	0.683863	-0.165177	-0.482209
C41	C	0.653122	-0.000062	-0.530211
C42	C	0.706539	0.165063	-0.541448
C43	C	0.790696	0.165061	-0.504681
H44	H	0.790774	-0.287418	-0.409906
H45	H	0.644320	-0.287415	-0.473891
H46	H	0.590825	-0.000060	-0.557429
H47	H	0.683784	0.287303	-0.576984
H48	H	0.830238	0.287299	-0.513000
H49	H	0.542733	-0.000073	0.252313
H50	H	0.907479	-0.465923	0.188278
H51	H	0.846054	-0.000069	-0.289796
C52	C	0.411917	-0.000112	-0.047157
C53	C	0.316529	-0.000096	-0.048838
C54	C	0.279766	-0.000091	-0.132997
C55	C	0.338391	-0.000101	-0.215474
C56	C	0.433784	-0.000116	-0.213795
C57	C	0.470547	-0.000122	-0.129637
H58	H	0.273127	-0.000089	0.012219
H59	H	0.209150	-0.000079	-0.134239
H60	H	0.311177	-0.000097	-0.277773
H61	H	0.477186	-0.000124	-0.274852
H62	H	0.541163	-0.000133	-0.128395
C63	C	0.594030	-0.000114	-0.043959
C64	C	0.599169	-0.165236	-0.115540
C65	C	0.657799	-0.165248	-0.198019
C66	C	0.711288	-0.000138	-0.208917
C67	C	0.706151	0.164997	-0.137334
C68	C	0.647521	0.165009	-0.054854
H69	H	0.559571	-0.287472	-0.107475
H70	H	0.661602	-0.287493	-0.251010
H71	H	0.754689	-0.000147	-0.269973
H72	H	0.745749	0.287233	-0.145399
H73	H	0.643718	0.287254	-0.001863
C74	C	1.074405	-0.562930	0.021032
C75	C	1.086151	-0.783090	0.009279
C76	C	1.154164	-0.893404	-0.058858
C77	C	1.210431	-0.783557	-0.115242
C78	C	1.198687	-0.563384	-0.103490
C79	C	1.130673	-0.453070	-0.035353
H80	H	1.044497	-0.864417	0.051019
H81	H	1.162858	-1.056391	-0.067558
H82	H	1.260779	-0.865218	-0.165681
H83	H	1.240340	-0.482058	-0.145229
H84	H	1.121979	-0.290083	-0.026653
C85	C	1.139558	-0.000094	-0.498407
C86	C	1.223712	-0.000116	-0.461643
C87	C	1.306195	-0.000119	-0.520266
C88	C	1.304524	-0.000101	-0.615653
C89	C	1.220367	-0.000079	-0.652422
C90	C	1.137884	-0.000076	-0.593799
H91	H	1.224952	-0.000129	-0.391027
H92	H	1.368493	-0.000135	-0.493046
H93	H	1.365582	-0.000104	-0.659049
H94	H	1.219127	-0.000066	-0.723038
H95	H	1.075585	-0.000060	-0.621018
H96	H	1.120904	-0.000117	-0.325857
