data_functionalizedCrystal
_audit_creation_method	'MofGen! by Chris Wilmer'
_symmetry_space_group_name_H-M	'P1'
_symmetry_Int_Tables_number	1
_symmetry_cell_setting	triclinic
loop_
_symmetry_equiv_pos_as_xyz
  x,y,z
_cell_length_a	11.026607
_cell_length_b	13.596369
_cell_length_c	10.908878
_cell_angle_alpha	90.000591
_cell_angle_beta	84.335404
_cell_angle_gamma	90.006133
loop_
_atom_site_label
_atom_site_type_symbol
_atom_site_fract_x
_atom_site_fract_y
_atom_site_fract_z
O1	O	1.506488	0.081790	0.513753
O2	O	1.756488	0.331790	0.763753
O3	O	2.006488	0.581790	1.013753
O4	O	2.256488	0.831790	1.263753
O5	O	1.164988	0.081792	0.455251
O6	O	1.414988	0.331792	0.705251
O7	O	1.664988	0.581792	0.955251
O8	O	1.914988	0.831792	1.205251
O9	O	1.381008	0.081787	0.308035
O10	O	1.631008	0.331787	0.558035
O11	O	1.881008	0.581787	0.808035
O12	O	2.131008	0.831787	1.058035
O13	O	1.290468	0.081795	0.660970
O14	O	1.540468	0.331795	0.910970
O15	O	1.790468	0.581795	1.160970
O16	O	2.040468	0.831795	1.410970
O17	O	1.380984	-0.081796	0.308040
O18	O	1.630984	0.168204	0.558040
O19	O	1.880984	0.418204	0.808040
O20	O	2.130984	0.668204	1.058040
O21	O	1.164964	-0.081791	0.455257
O22	O	1.414964	0.168209	0.705257
O23	O	1.664964	0.418209	0.955257
O24	O	1.914964	0.668209	1.205257
O25	O	1.506464	-0.081793	0.513758
O26	O	1.756464	0.168207	0.763758
O27	O	2.006464	0.418207	1.013758
O28	O	2.256464	0.668207	1.263758
Zn29	Zn	1.335710	-0.107764	0.484508
Zn30	Zn	1.585710	0.142236	0.734508
Zn31	Zn	1.835710	0.392236	0.984508
Zn32	Zn	2.085710	0.642236	1.234508
Zn33	Zn	1.335742	0.107763	0.484501
Zn34	Zn	1.585742	0.357763	0.734501
Zn35	Zn	1.835742	0.607763	0.984501
Zn36	Zn	2.085742	0.857763	1.234501
O37	O	1.290444	-0.081788	0.660975
O38	O	1.540444	0.168212	0.910975
O39	O	1.790444	0.418212	1.160975
O40	O	2.040444	0.668212	1.410975
C41	C	1.121943	0.000000	0.444461
C42	C	1.371943	0.250000	0.694461
C43	C	1.621943	0.500000	0.944461
C44	C	1.871943	0.750000	1.194461
C45	C	0.993722	0.000001	0.412288
C46	C	1.243722	0.250001	0.662288
C47	C	1.493722	0.500001	0.912288
C48	C	1.743722	0.750001	1.162288
N49	N	1.335697	-0.254856	0.484514
N50	N	1.585697	-0.004856	0.734514
N51	N	1.835697	0.245144	0.984514
N52	N	2.085697	0.495144	1.234514
C53	C	0.901989	0.000004	0.501123
C54	C	1.151989	0.250004	0.751123
C55	C	1.401989	0.500004	1.001123
C56	C	1.651989	0.750004	1.251123
C57	C	0.769465	0.000004	0.467873
C58	C	1.019465	0.250004	0.717873
C59	C	1.269465	0.500004	0.967873
C60	C	1.519465	0.750004	1.217873
C61	C	1.335703	-0.343854	0.484519
C62	C	1.585703	-0.093854	0.734519
C63	C	1.835703	0.156146	0.984519
C64	C	2.085703	0.406146	1.234519
C65	C	1.335716	-0.455505	0.484513
C66	C	1.585716	-0.205505	0.734513
C67	C	1.835716	0.044495	0.984513
C68	C	2.085716	0.294495	1.234513
C69	C	1.335734	-0.544496	0.484502
C70	C	1.585734	-0.294496	0.734502
C71	C	1.835734	-0.044496	0.984502
C72	C	2.085734	0.205504	1.234502
C73	C	1.335748	-0.656154	0.484498
C74	C	1.585748	-0.406154	0.734498
C75	C	1.835748	-0.156154	0.984498
C76	C	2.085748	0.093846	1.234498
C77	C	1.549509	0.000001	0.524548
C78	C	1.799509	0.250001	0.774548
C79	C	2.049509	0.500001	1.024548
C80	C	2.299509	0.750001	1.274548
C81	C	1.677730	0.000007	0.556721
C82	C	1.927730	0.250007	0.806721
C83	C	2.177730	0.500007	1.056721
C84	C	2.427730	0.750007	1.306721
C85	C	1.389458	-0.000003	0.262152
C86	C	1.639458	0.249997	0.512152
C87	C	1.889458	0.499997	0.762152
C88	C	2.139458	0.749997	1.012152
C89	C	1.414656	0.000000	0.125424
C90	C	1.664656	0.250000	0.375424
C91	C	1.914656	0.500000	0.625424
C92	C	2.164656	0.750000	0.875424
N93	N	1.335766	0.254855	0.484488
N94	N	1.585766	0.504855	0.734488
N95	N	1.835766	0.754855	0.984488
N96	N	2.085766	1.004855	1.234488
C97	C	1.322712	0.000002	0.055162
C98	C	1.572712	0.250002	0.305162
C99	C	1.822712	0.500002	0.555162
C100	C	2.072712	0.750002	0.805162
C101	C	1.348753	0.000006	-0.086154
C102	C	1.598753	0.250006	0.163846
C103	C	1.848753	0.500006	0.413846
C104	C	2.098753	0.750006	0.663846
C105	C	1.281995	0.000004	0.706858
C106	C	1.531995	0.250004	0.956858
C107	C	1.781995	0.500004	1.206858
C108	C	2.031995	0.750004	1.456858
C109	C	1.256796	0.000008	0.843586
C110	C	1.506796	0.250008	1.093586
C111	C	1.756796	0.500008	1.343586
C112	C	2.006796	0.750008	1.593586
H113	H	0.921564	0.000000	0.601794
H114	H	1.171564	0.250000	0.851794
H115	H	1.421564	0.500000	1.101794
H116	H	1.671564	0.750000	1.351794
N117	N	1.544471	0.000005	0.066546
N118	N	1.794471	0.250005	0.316546
N119	N	2.044471	0.500005	0.566546
N120	N	2.294471	0.750005	0.816546
H121	H	1.587847	-0.060636	0.093124
H122	H	1.837847	0.189364	0.343124
H123	H	2.087847	0.439364	0.593124
H124	H	2.337847	0.689364	0.843124
H125	H	1.544574	0.000044	-0.026045
H126	H	1.794574	0.250044	0.223955
H127	H	2.044574	0.500044	0.473955
H128	H	2.294574	0.750044	0.723955
H129	H	1.224716	-0.000003	0.099627
H130	H	1.474716	0.249997	0.349627
H131	H	1.724716	0.499997	0.599627
H132	H	1.974716	0.749997	0.849627
N133	N	0.743548	-0.000008	0.334516
N134	N	0.993548	0.249992	0.584516
N135	N	1.243548	0.499992	0.834516
N136	N	1.493548	0.749992	1.084516
H137	H	0.695162	0.060631	0.317195
H138	H	0.945162	0.310631	0.567195
H139	H	1.195162	0.560631	0.817195
H140	H	1.445162	0.810631	1.067195
H141	H	0.823020	-0.000048	0.279882
H142	H	1.073020	0.249952	0.529882
H143	H	1.323020	0.499952	0.779882
H144	H	1.573020	0.749952	1.029882
H145	H	1.446756	0.000002	-0.130614
H146	H	1.696756	0.250002	0.119386
H147	H	1.946756	0.500002	0.369386
H148	H	2.196756	0.750002	0.619386
N149	N	1.126976	-0.000002	-0.097540
N150	N	1.376976	0.249998	0.152460
N151	N	1.626976	0.499998	0.402460
N152	N	1.876976	0.749998	0.652460
H153	H	1.126770	-0.000006	-0.004935
H154	H	1.376770	0.249994	0.245065
H155	H	1.626770	0.499994	0.495065
H156	H	1.876770	0.749994	0.745065
H157	H	1.083669	0.060641	-0.124208
H158	H	1.333669	0.310641	0.125792
H159	H	1.583669	0.560641	0.375792
H160	H	1.833669	0.810641	0.625792
H161	H	0.697297	0.000002	0.657399
H162	H	0.947297	0.250002	0.907399
H163	H	1.197297	0.500002	1.157399
H164	H	1.447297	0.750002	1.407399
H165	H	0.974146	0.000024	0.311618
H166	H	1.224146	0.250024	0.561618
H167	H	1.474146	0.500024	0.811618
H168	H	1.724146	0.750024	1.061618
