data_functionalizedCrystal
_audit_creation_method	'MofGen! by Chris Wilmer'
_symmetry_space_group_name_H-M	'P1'
_symmetry_Int_Tables_number	1
_symmetry_cell_setting	triclinic
loop_
_symmetry_equiv_pos_as_xyz
  x,y,z
_cell_length_a	10.723024
_cell_length_b	12.503572
_cell_length_c	10.723023
_cell_angle_alpha	86.442227
_cell_angle_beta	84.467709
_cell_angle_gamma	93.551581
loop_
_atom_site_label
_atom_site_type_symbol
_atom_site_fract_x
_atom_site_fract_y
_atom_site_fract_z
O1	O	1.664322	0.089311	0.167870
O2	O	1.301170	0.089315	0.184623
O3	O	1.491122	0.089308	-0.005329
O4	O	1.474369	0.089317	0.357823
O5	O	1.476837	-0.089333	0.008980
O6	O	1.286884	-0.089327	0.198933
O7	O	1.650036	-0.089330	0.182180
Cu8	Cu	1.467156	-0.105640	0.191863
Cu9	Cu	1.484050	0.105624	0.174940
O10	O	1.460083	-0.089324	0.372132
C11	C	1.247527	-0.000006	0.190559
C12	C	1.108973	-0.000004	0.186911
N13	N	1.455282	-0.254232	0.203765
C14	C	1.033990	-0.000001	0.293198
C15	C	0.890787	0.000000	0.289431
C16	C	1.437816	-0.473347	0.221283
C17	C	1.513395	-0.526676	0.145514
C18	C	1.503677	-0.648599	0.155262
C19	C	1.447533	-0.351413	0.211537
C20	C	1.703679	-0.000008	0.176244
C21	C	1.842233	-0.000002	0.179891
C22	C	1.482761	-0.000011	-0.044674
C23	C	1.479114	-0.000008	-0.183229
N24	N	1.495933	0.254216	0.163029
C25	C	1.484888	0.092535	-0.252407
C26	C	1.481119	0.092541	-0.395611
C27	C	1.468445	-0.000002	0.411477
C28	C	1.472093	0.000001	0.550031
H29	H	1.075812	-0.000005	0.386985
H30	H	1.365818	-0.519252	0.293467
H31	H	1.585400	-0.480766	0.073327
H32	H	1.486062	0.171771	-0.455075
H33	H	1.467161	-0.079232	-0.390514
H34	H	1.492617	0.171761	-0.205615
H35	H	1.471372	-0.079233	-0.230019
H36	H	0.906659	0.000002	0.088895
H37	H	0.826355	0.000007	0.380421
H38	H	1.067153	0.000021	0.093123
