data_functionalizedCrystal
_audit_creation_method	'MofGen! by Chris Wilmer'
_symmetry_space_group_name_H-M	'P1'
_symmetry_Int_Tables_number	1
_symmetry_cell_setting	triclinic
loop_
_symmetry_equiv_pos_as_xyz
  x,y,z
_cell_length_a	13.897449
_cell_length_b	13.897447
_cell_length_c	13.897449
_cell_angle_alpha	90.008998
_cell_angle_beta	90.008641
_cell_angle_gamma	90.020357
loop_
_atom_site_label
_atom_site_type_symbol
_atom_site_fract_x
_atom_site_fract_y
_atom_site_fract_z
Zn1	Zn	1.474550	-0.384156	0.545458
Zn2	Zn	1.724550	-0.134156	0.795458
Zn3	Zn	1.974550	0.115844	1.045458
Zn4	Zn	2.224550	0.365844	1.295458
Zn5	Zn	1.474480	-0.545421	0.384163
Zn6	Zn	1.724480	-0.295421	0.634163
Zn7	Zn	1.974480	-0.045421	0.884163
Zn8	Zn	2.224480	0.204579	1.134163
Zn9	Zn	1.313280	-0.384144	0.384169
Zn10	Zn	1.563280	-0.134144	0.634169
Zn11	Zn	1.813280	0.115856	0.884169
Zn12	Zn	2.063280	0.365856	1.134169
Zn13	Zn	1.313216	-0.545413	0.545408
Zn14	Zn	1.563216	-0.295413	0.795408
Zn15	Zn	1.813216	-0.045413	1.045408
Zn16	Zn	2.063216	0.204587	1.295408
O17	O	1.393882	-0.464784	0.464799
O18	O	1.643882	-0.214784	0.714799
O19	O	1.893882	0.035216	0.964799
O20	O	2.143882	0.285216	1.214799
O21	O	1.609522	-0.405557	0.524080
O22	O	1.859522	-0.155557	0.774080
O23	O	2.109522	0.094443	1.024080
O24	O	2.359522	0.344443	1.274080
O25	O	1.453095	-0.524025	0.249182
O26	O	1.703095	-0.274025	0.499182
O27	O	1.953095	-0.024025	0.749182
O28	O	2.203095	0.225975	0.999182
O29	O	1.334730	-0.249164	0.405587
O30	O	1.584730	0.000836	0.655587
O31	O	1.834730	0.250836	0.905587
O32	O	2.084730	0.500836	1.155587
O33	O	1.609471	-0.524037	0.405577
O34	O	1.859471	-0.274037	0.655577
O35	O	2.109471	-0.024037	0.905577
O36	O	2.359471	0.225963	1.155577
O37	O	1.453213	-0.249173	0.524086
O38	O	1.703213	0.000827	0.774086
O39	O	1.953213	0.250827	1.024086
O40	O	2.203213	0.500827	1.274086
O41	O	1.334662	-0.405535	0.249186
O42	O	1.584662	-0.155535	0.499186
O43	O	1.834662	0.094465	0.749186
O44	O	2.084662	0.344465	0.999186
O45	O	1.178290	-0.405528	0.405539
O46	O	1.428290	-0.155528	0.655539
O47	O	1.678290	0.094472	0.905539
O48	O	1.928290	0.344472	1.155539
O49	O	1.334619	-0.524025	0.680396
O50	O	1.584619	-0.274025	0.930396
O51	O	1.834619	-0.024025	1.180396
O52	O	2.084619	0.225975	1.430396
O53	O	1.178243	-0.524012	0.524001
O54	O	1.428243	-0.274012	0.774001
O55	O	1.678243	-0.024012	1.024001
O56	O	1.928243	0.225988	1.274001
O57	O	1.453150	-0.405550	0.680433
O58	O	1.703150	-0.155550	0.930433
O59	O	1.953150	0.094450	1.180433
O60	O	2.203150	0.344450	1.430433
O61	O	1.453032	-0.680402	0.405529
O62	O	1.703032	-0.430402	0.655529
O63	O	1.953032	-0.180402	0.905529
O64	O	2.203032	0.069598	1.155529
O65	O	1.334551	-0.680396	0.523995
O66	O	1.584551	-0.430396	0.773995
O67	O	1.834551	-0.180396	1.023995
O68	O	2.084551	0.069604	1.273995
C69	C	1.143267	-0.464769	0.464766
C70	C	1.393267	-0.214769	0.714766
C71	C	1.643267	0.035231	0.964766
C72	C	1.893267	0.285231	1.214766
C73	C	1.036053	-0.464786	0.464774
C74	C	1.286053	-0.214786	0.714774
C75	C	1.536053	0.035214	0.964774
C76	C	1.786053	0.285214	1.214774
C77	C	0.948983	-0.464789	0.464790
C78	C	1.198983	-0.214789	0.714790
C79	C	1.448983	0.035211	0.964790
C80	C	1.698983	0.285211	1.214790
C81	C	0.839751	-0.464796	0.464820
C82	C	1.089751	-0.214796	0.714820
C83	C	1.339751	0.035204	0.964820
C84	C	1.589751	0.285204	1.214820
C85	C	1.393803	-0.715398	0.464777
C86	C	1.643803	-0.465398	0.714777
C87	C	1.893803	-0.215398	0.964777
C88	C	2.143803	0.034602	1.214777
C89	C	1.393858	-0.822612	0.464800
C90	C	1.643858	-0.572612	0.714800
C91	C	1.893858	-0.322612	0.964800
C92	C	2.143858	-0.072612	1.214800
C93	C	1.393904	-0.909682	0.464822
C94	C	1.643904	-0.659682	0.714822
C95	C	1.893904	-0.409682	0.964822
C96	C	2.143904	-0.159682	1.214822
C97	C	1.393972	-1.018914	0.464846
C98	C	1.643972	-0.768914	0.714846
C99	C	1.893972	-0.518914	0.964846
C100	C	2.143972	-0.268914	1.214846
C101	C	1.645474	-0.464799	0.464834
C102	C	1.895474	-0.214799	0.714834
C103	C	2.145474	0.035201	0.964834
C104	C	2.395474	0.285201	1.214834
C105	C	1.752688	-0.464806	0.464848
C106	C	2.002688	-0.214806	0.714848
C107	C	2.252688	0.035194	0.964848
C108	C	2.502688	0.285194	1.214848
C109	C	1.393885	-0.464788	0.716392
C110	C	1.643885	-0.214788	0.966392
C111	C	1.893885	0.035212	1.216392
C112	C	2.143885	0.285212	1.466392
C113	C	1.393887	-0.464789	0.823606
C114	C	1.643887	-0.214789	1.073606
C115	C	1.893887	0.035211	1.323606
C116	C	2.143887	0.285211	1.573606
C117	C	1.393987	-0.213191	0.464843
C118	C	1.643987	0.036809	0.714843
C119	C	1.893987	0.286809	0.964843
C120	C	2.143987	0.536809	1.214843
C121	C	1.394031	-0.105977	0.464861
C122	C	1.644031	0.144023	0.714861
C123	C	1.894031	0.394023	0.964861
C124	C	2.144031	0.644023	1.214861
C125	C	1.393862	-0.464794	1.019901
C126	C	1.643862	-0.214794	1.269901
C127	C	1.893862	0.035206	1.519901
C128	C	2.143862	0.285206	1.769901
C129	C	1.393873	-0.464794	0.910669
C130	C	1.643873	-0.214794	1.160669
C131	C	1.893873	0.035206	1.410669
C132	C	2.143873	0.285206	1.660669
C133	C	1.393869	-0.464799	1.214185
C134	C	1.643869	-0.214799	1.464185
C135	C	1.893869	0.035201	1.714185
C136	C	2.143869	0.285201	1.964185
C137	C	1.393861	-0.464791	1.106971
C138	C	1.643861	-0.214791	1.356971
C139	C	1.893861	0.035209	1.606971
C140	C	2.143861	0.285209	1.856971
