data_functionalizedCrystal
_audit_creation_method	'MofGen! by Chris Wilmer'
_symmetry_space_group_name_H-M	'P1'
_symmetry_Int_Tables_number	1
_symmetry_cell_setting	triclinic
loop_
_symmetry_equiv_pos_as_xyz
  x,y,z
_cell_length_a	19.288865
_cell_length_b	19.288865
_cell_length_c	18.366186
_cell_angle_alpha	89.993214
_cell_angle_beta	90.004920
_cell_angle_gamma	96.863753
loop_
_atom_site_label
_atom_site_type_symbol
_atom_site_fract_x
_atom_site_fract_y
_atom_site_fract_z
O1	O	0.921351	-0.086644	0.060533
O2	O	1.171351	0.163356	0.310533
O3	O	1.421351	0.413356	0.560533
O4	O	1.671351	0.663356	0.810533
O5	O	0.719090	-0.098333	0.060541
O6	O	0.969090	0.151667	0.310541
O7	O	1.219090	0.401667	0.560541
O8	O	1.469090	0.651667	0.810541
O9	O	0.826065	0.008642	0.060522
O10	O	1.076065	0.258642	0.310522
O11	O	1.326065	0.508642	0.560522
O12	O	1.576065	0.758642	0.810522
O13	O	0.814376	-0.193619	0.060552
O14	O	1.064376	0.056381	0.310552
O15	O	1.314376	0.306381	0.560552
O16	O	1.564376	0.556381	0.810552
O17	O	0.826051	0.008638	-0.060577
O18	O	1.076051	0.258638	0.189423
O19	O	1.326051	0.508638	0.439423
O20	O	1.576051	0.758638	0.689423
O21	O	0.719076	-0.098337	-0.060558
O22	O	0.969076	0.151663	0.189442
O23	O	1.219076	0.401663	0.439442
O24	O	1.469076	0.651663	0.689442
O25	O	0.921337	-0.086648	-0.060566
O26	O	1.171337	0.163352	0.189434
O27	O	1.421337	0.413352	0.439434
O28	O	1.671337	0.663352	0.689434
Zn29	Zn	0.820204	-0.092493	-0.079789
Zn30	Zn	1.070204	0.157507	0.170211
Zn31	Zn	1.320204	0.407507	0.420211
Zn32	Zn	1.570204	0.657507	0.670211
Zn33	Zn	0.820222	-0.092488	0.079764
Zn34	Zn	1.070222	0.157512	0.329764
Zn35	Zn	1.320222	0.407512	0.579764
Zn36	Zn	1.570222	0.657512	0.829764
O37	O	0.814362	-0.193623	-0.060548
O38	O	1.064362	0.056377	0.189452
O39	O	1.314362	0.306377	0.439452
O40	O	1.564362	0.556377	0.689452
C41	C	0.693207	-0.097959	-0.000008
C42	C	0.943207	0.152041	0.249992
C43	C	1.193207	0.402041	0.499992
C44	C	1.443207	0.652041	0.749992
C45	C	0.616103	-0.096830	-0.000005
C46	C	0.866103	0.153170	0.249995
C47	C	1.116103	0.403170	0.499995
C48	C	1.366103	0.653170	0.749995
N49	N	0.820197	-0.092496	-0.188681
N50	N	1.070197	0.157504	0.061319
N51	N	1.320197	0.407504	0.311319
N52	N	1.570197	0.657504	0.561319
C53	C	0.947220	-0.087022	-0.000016
C54	C	1.197220	0.162978	0.249984
C55	C	1.447220	0.412978	0.499984
C56	C	1.697220	0.662978	0.749984
C57	C	1.024324	-0.088151	-0.000013
C58	C	1.274324	0.161849	0.249987
C59	C	1.524324	0.411849	0.499987
C60	C	1.774324	0.661849	0.749987
C61	C	0.825682	0.034516	-0.000029
C62	C	1.075682	0.284516	0.249971
C63	C	1.325682	0.534516	0.499971
C64	C	1.575682	0.784516	0.749971
C65	C	0.824553	0.111620	-0.000036
C66	C	1.074553	0.361620	0.249964
C67	C	1.324553	0.611620	0.499964
C68	C	1.574553	0.861620	0.749964
C69	C	1.069020	-0.025383	-0.000016
C70	C	1.319020	0.224617	0.249984
C71	C	1.569020	0.474617	0.499984
C72	C	1.819020	0.724617	0.749984
C73	C	1.141467	-0.026444	-0.000020
C74	C	1.391467	0.223556	0.249980
C75	C	1.641467	0.473556	0.499980
C76	C	1.891467	0.723556	0.749980
C77	C	1.169215	-0.090276	-0.000007
C78	C	1.419215	0.159724	0.249993
C79	C	1.669215	0.409724	0.499993
C80	C	1.919215	0.659724	0.749993
C81	C	1.124508	-0.153052	-0.000008
C82	C	1.374508	0.096948	0.249992
C83	C	1.624508	0.346948	0.499992
C84	C	1.874508	0.596948	0.749992
C85	C	1.052063	-0.151990	-0.000012
C86	C	1.302063	0.098010	0.249988
C87	C	1.552063	0.348010	0.499988
C88	C	1.802063	0.598010	0.749988
C89	C	1.277496	-0.140454	0.042431
C90	C	1.527496	0.109546	0.292431
C91	C	1.777496	0.359546	0.542431
C92	C	2.027496	0.609546	0.792431
C93	C	1.349941	-0.141514	0.042439
C94	C	1.599941	0.108486	0.292439
C95	C	1.849941	0.358486	0.542439
C96	C	2.099941	0.608486	0.792439
C97	C	1.392660	-0.093556	-0.000000
C98	C	1.642660	0.156444	0.250000
C99	C	1.892660	0.406444	0.500000
C100	C	2.142660	0.656444	0.750000
C101	C	1.362928	-0.044526	-0.042438
C102	C	1.612928	0.205474	0.207562
C103	C	1.862928	0.455474	0.457562
C104	C	2.112928	0.705474	0.707562
C105	C	1.290482	-0.043463	-0.042441
C106	C	1.540482	0.206537	0.207559
C107	C	1.790482	0.456537	0.457559
C108	C	2.040482	0.706537	0.707559
C109	C	1.247769	-0.091435	-0.000004
C110	C	1.497769	0.158565	0.249996
C111	C	1.747769	0.408565	0.499996
C112	C	1.997769	0.658565	0.749996
C113	C	1.515912	-0.031934	-0.000009
C114	C	1.765912	0.218066	0.249991
C115	C	2.015912	0.468066	0.499991
C116	C	2.265912	0.718066	0.749991
C117	C	1.588361	-0.032997	-0.000017
C118	C	1.838361	0.217003	0.249983
C119	C	2.088361	0.467003	0.499983
C120	C	2.338361	0.717003	0.749983
C121	C	1.571400	-0.159607	0.000002
C122	C	1.821400	0.090393	0.250002
C123	C	2.071400	0.340393	0.500002
C124	C	2.321400	0.590393	0.750002
C125	C	1.498954	-0.158542	0.000003
C126	C	1.748954	0.091458	0.250003
C127	C	1.998954	0.341458	0.500003
C128	C	2.248954	0.591458	0.750003
C129	C	1.471215	-0.094703	0.000001
C130	C	1.721215	0.155297	0.250001
C131	C	1.971215	0.405297	0.500001
C132	C	2.221215	0.655297	0.750001
C133	C	0.814745	-0.219497	0.000006
C134	C	1.064745	0.030503	0.250006
C135	C	1.314745	0.280503	0.500006
C136	C	1.564745	0.530503	0.750006
C137	C	0.815874	-0.296601	0.000017
C138	C	1.065874	-0.046601	0.250017
C139	C	1.315874	0.203399	0.500017
C140	C	1.565874	0.453399	0.750017
C141	C	0.887320	0.156316	-0.000042
C142	C	1.137320	0.406316	0.249958
C143	C	1.387320	0.656316	0.499958
C144	C	1.637320	0.906316	0.749958
C145	C	0.886260	0.228763	-0.000030
C146	C	1.136260	0.478763	0.249970
C147	C	1.386260	0.728763	0.499970
C148	C	1.636260	0.978763	0.749970
C149	C	0.822428	0.256511	-0.000027
C150	C	1.072428	0.506511	0.249973
C151	C	1.322428	0.756511	0.499973
C152	C	1.572428	1.006511	0.749973
C153	C	0.759651	0.211805	-0.000017
C154	C	1.009651	0.461805	0.249983
C155	C	1.259651	0.711805	0.499983
C156	C	1.509651	0.961805	0.749983
C157	C	0.760714	0.139359	-0.000021
C158	C	1.010714	0.389359	0.249979
C159	C	1.260714	0.639359	0.499979
C160	C	1.510714	0.889359	0.749979
C161	C	0.772243	0.364797	-0.042444
C162	C	1.022243	0.614797	0.207556
C163	C	1.272243	0.864797	0.457556
C164	C	1.522243	1.114797	0.707556
C165	C	0.771183	0.437241	-0.042444
C166	C	1.021183	0.687241	0.207556
C167	C	1.271183	0.937241	0.457556
C168	C	1.521183	1.187241	0.707556
C169	C	0.819148	0.479956	-0.000011
C170	C	1.069148	0.729956	0.249989
C171	C	1.319148	0.979956	0.499989
C172	C	1.569148	1.229956	0.749989
C173	C	0.868184	0.450220	0.042413
C174	C	1.118184	0.700220	0.292413
C175	C	1.368184	0.950220	0.542413
C176	C	1.618184	1.200220	0.792413
C177	C	0.869247	0.377774	0.042409
C178	C	1.119247	0.627774	0.292409
C179	C	1.369247	0.877774	0.542409
C180	C	1.619247	1.127774	0.792409
C181	C	0.821268	0.335065	-0.000022
C182	C	1.071268	0.585065	0.249978
C183	C	1.321268	0.835065	0.499978
C184	C	1.571268	1.085065	0.749978
C185	C	0.880770	0.603209	-0.000003
C186	C	1.130770	0.853209	0.249997
C187	C	1.380770	1.103209	0.499997
C188	C	1.630770	1.353209	0.749997
C189	C	0.879707	0.675657	0.000013
C190	C	1.129707	0.925657	0.250013
C191	C	1.379707	1.175657	0.500013
C192	C	1.629707	1.425657	0.750013
C193	C	0.753097	0.658697	0.000019
C194	C	1.003097	0.908697	0.250019
C195	C	1.253097	1.158697	0.500019
C196	C	1.503097	1.408697	0.750019
C197	C	0.754162	0.586250	0.000010
C198	C	1.004162	0.836250	0.250010
C199	C	1.254162	1.086250	0.500010
C200	C	1.504162	1.336250	0.750010
C201	C	0.818000	0.558511	-0.000005
C202	C	1.068000	0.808511	0.249995
C203	C	1.318000	1.058511	0.499995
C204	C	1.568000	1.308511	0.749995
C205	C	0.862228	-0.134494	-0.773225
C206	C	1.112228	0.115506	-0.523225
C207	C	1.362228	0.365506	-0.273225
C208	C	1.612228	0.615506	-0.023225
C209	C	0.862221	-0.134500	-0.696998
C210	C	1.112221	0.115500	-0.446998
C211	C	1.362221	0.365500	-0.196998
C212	C	1.612221	0.615500	0.053002
C213	C	0.820229	-0.092480	-0.658892
C214	C	1.070229	0.157520	-0.408892
C215	C	1.320229	0.407520	-0.158892
C216	C	1.570229	0.657520	0.091108
C217	C	0.778228	-0.050464	-0.697020
C218	C	1.028228	0.199536	-0.447020
C219	C	1.278228	0.449536	-0.197020
C220	C	1.528228	0.699536	0.052980
C221	C	0.778231	-0.050463	-0.773247
C222	C	1.028231	0.199537	-0.523247
C223	C	1.278231	0.449537	-0.273247
C224	C	1.528231	0.699537	-0.023247
C225	C	0.818502	-0.029856	-0.538135
C226	C	1.068502	0.220144	-0.288135
C227	C	1.318502	0.470144	-0.038135
C228	C	1.568502	0.720144	0.211865
C229	C	0.818504	-0.029855	-0.461910
C230	C	1.068504	0.220145	-0.211910
C231	C	1.318504	0.470145	0.038090
C232	C	1.568504	0.720145	0.288090
C233	C	0.820215	-0.092482	-0.423784
C234	C	1.070215	0.157518	-0.173784
C235	C	1.320215	0.407518	0.076216
C236	C	1.570215	0.657518	0.326216
C237	C	0.821939	-0.155112	-0.461893
C238	C	1.071939	0.094888	-0.211893
C239	C	1.321939	0.344888	0.038107
C240	C	1.571939	0.594888	0.288107
C241	C	0.821942	-0.155111	-0.538120
C242	C	1.071942	0.094889	-0.288120
C243	C	1.321942	0.344889	-0.038120
C244	C	1.571942	0.594889	0.211880
C245	C	0.820221	-0.092476	-0.576237
C246	C	1.070221	0.157524	-0.326237
C247	C	1.320221	0.407524	-0.076237
C248	C	1.570221	0.657524	0.173763
C249	C	0.862202	-0.134507	-0.303010
C250	C	1.112202	0.115493	-0.053010
C251	C	1.362202	0.365493	0.196990
C252	C	1.612202	0.615493	0.446990
C253	C	0.862190	-0.134515	-0.226781
C254	C	1.112190	0.115485	0.023219
C255	C	1.362190	0.365485	0.273219
C256	C	1.612190	0.615485	0.523219
C257	C	0.778201	-0.050472	-0.226805
C258	C	1.028201	0.199528	0.023195
C259	C	1.278201	0.449528	0.273195
C260	C	1.528201	0.699528	0.523195
C261	C	0.778209	-0.050470	-0.303033
C262	C	1.028209	0.199530	-0.053033
C263	C	1.278209	0.449530	0.196967
C264	C	1.528209	0.699530	0.446967
C265	C	0.820214	-0.092487	-0.341131
C266	C	1.070214	0.157513	-0.091131
C267	C	1.320214	0.407513	0.158869
C268	C	1.570214	0.657513	0.408869
N269	N	0.820235	-0.092480	0.188655
N270	N	1.070235	0.157520	0.438655
N271	N	1.320235	0.407520	0.688655
N272	N	1.570235	0.657520	0.938655
H273	H	1.046440	0.026599	-0.000020
H274	H	1.296440	0.276599	0.249980
H275	H	1.546440	0.526599	0.499980
H276	H	1.796440	0.776599	0.749980
H277	H	0.701123	0.681288	0.000025
H278	H	0.951123	0.931288	0.250025
H279	H	1.201123	1.181288	0.500025
H280	H	1.451123	1.431288	0.750025
Cl281	Cl	0.915027	-0.187311	-0.649066
Cl282	Cl	1.165027	0.062689	-0.399066
Cl283	Cl	1.415027	0.312689	-0.149066
Cl284	Cl	1.665027	0.562689	0.100934
Cl285	Cl	1.442761	-0.237455	0.000015
Cl286	Cl	1.692761	0.012545	0.250015
Cl287	Cl	1.942761	0.262545	0.500015
Cl288	Cl	2.192761	0.512545	0.750015
Cl289	Cl	0.914970	-0.187354	-0.178859
Cl290	Cl	1.164970	0.062646	0.071141
Cl291	Cl	1.414970	0.312646	0.321141
Cl292	Cl	1.664970	0.562646	0.571141
H293	H	1.374144	-0.181432	0.076999
H294	H	1.624144	0.068568	0.326999
H295	H	1.874144	0.318568	0.576999
H296	H	2.124144	0.568568	0.826999
Cl297	Cl	0.725436	0.002359	-0.821170
Cl298	Cl	0.975436	0.252359	-0.571170
Cl299	Cl	1.225436	0.502359	-0.321170
Cl300	Cl	1.475436	0.752359	-0.071170
H301	H	1.177866	0.024671	-0.000020
H302	H	1.427866	0.274671	0.249980
H303	H	1.677866	0.524671	0.499980
H304	H	1.927866	0.774671	0.749980
H305	H	0.817105	0.021142	-0.430887
H306	H	1.067105	0.271142	-0.180887
H307	H	1.317105	0.521142	0.069113
H308	H	1.567105	0.771142	0.319113
H309	H	1.266277	-0.003543	-0.076996
H310	H	1.516277	0.246457	0.173004
H311	H	1.766277	0.496457	0.423004
H312	H	2.016277	0.746457	0.673004
Cl313	Cl	0.824094	-0.233848	-0.413973
Cl314	Cl	1.074094	0.016152	-0.163973
Cl315	Cl	1.324094	0.266152	0.086027
Cl316	Cl	1.574094	0.516152	0.336027
Cl317	Cl	0.675249	0.530057	0.000014
Cl318	Cl	0.925249	0.780057	0.250014
Cl319	Cl	1.175249	1.030057	0.500014
Cl320	Cl	1.425249	1.280057	0.750014
H321	H	0.733183	0.330023	-0.077002
H322	H	0.983183	0.580023	0.172998
H323	H	1.233183	0.830023	0.422998
H324	H	1.483183	1.080023	0.672998
H325	H	0.823344	-0.206106	-0.569145
H326	H	1.073344	0.043894	-0.319145
H327	H	1.323344	0.293894	-0.069145
H328	H	1.573344	0.543894	0.180855
H329	H	0.731252	0.461447	-0.076984
H330	H	0.981252	0.711447	0.173016
H331	H	1.231252	0.961447	0.423016
H332	H	1.481252	1.211447	0.673016
Cl333	Cl	1.416625	0.015775	-0.095786
Cl334	Cl	1.666625	0.265775	0.154214
Cl335	Cl	1.916625	0.515775	0.404214
Cl336	Cl	2.166625	0.765775	0.654214
Cl337	Cl	0.915003	-0.187329	-0.350908
Cl338	Cl	1.165003	0.062671	-0.100908
Cl339	Cl	1.415003	0.312671	0.149092
Cl340	Cl	1.665003	0.562671	0.399092
H341	H	0.932751	0.580622	-0.000012
H342	H	1.182751	0.830622	0.249988
H343	H	1.432751	1.080622	0.499988
H344	H	1.682751	1.330622	0.749988
H345	H	1.015670	-0.203105	-0.000010
H346	H	1.265670	0.046895	0.249990
H347	H	1.515670	0.296895	0.499990
H348	H	1.765670	0.546895	0.749990
H349	H	1.147105	-0.205025	0.000001
H350	H	1.397105	0.044975	0.250001
H351	H	1.647105	0.294975	0.500001
H352	H	1.897105	0.544975	0.750001
H353	H	1.493326	0.020048	-0.000013
H354	H	1.743326	0.270048	0.249987
H355	H	1.993326	0.520048	0.499987
H356	H	2.243326	0.770048	0.749987
H357	H	0.744006	-0.016263	-0.195780
H358	H	0.994006	0.233737	0.054220
H359	H	1.244006	0.483737	0.304220
H360	H	1.494006	0.733737	0.554220
Cl361	Cl	1.644552	0.045919	-0.000029
Cl362	Cl	1.894552	0.295919	0.249971
Cl363	Cl	2.144552	0.545919	0.499971
Cl364	Cl	2.394552	0.795919	0.749971
H365	H	0.707679	0.234401	-0.000013
H366	H	0.957679	0.484401	0.249987
H367	H	1.207679	0.734401	0.499987
H368	H	1.457679	0.984401	0.749987
Cl369	Cl	1.223798	-0.200755	0.095783
Cl370	Cl	1.473798	0.049245	0.345783
Cl371	Cl	1.723798	0.299245	0.595783
Cl372	Cl	1.973798	0.549245	0.845783
H373	H	0.817102	0.021146	-0.569170
H374	H	1.067102	0.271146	-0.319170
H375	H	1.317102	0.521146	-0.069170
H376	H	1.567102	0.771146	0.180830
H377	H	0.744036	-0.016252	-0.665990
H378	H	0.994036	0.233748	-0.415990
H379	H	1.244036	0.483748	-0.165990
H380	H	1.494036	0.733748	0.084010
Cl381	Cl	0.915027	-0.187320	-0.821116
Cl382	Cl	1.165027	0.062680	-0.571116
Cl383	Cl	1.415027	0.312680	-0.321116
Cl384	Cl	1.665027	0.562680	-0.071116
Cl385	Cl	0.725418	0.002354	-0.350957
Cl386	Cl	0.975418	0.252354	-0.100957
Cl387	Cl	1.225418	0.502354	0.149043
Cl388	Cl	1.475418	0.752354	0.399043
H389	H	0.709599	0.102967	-0.000017
H390	H	0.959599	0.352967	0.249983
H391	H	1.209599	0.602967	0.499983
H392	H	1.459599	0.852967	0.749983
H393	H	0.937375	0.265162	-0.000032
H394	H	1.187375	0.515162	0.249968
H395	H	1.437375	0.765162	0.499968
H396	H	1.687375	1.015162	0.749968
H397	H	1.593991	-0.211580	0.000008
H398	H	1.843991	0.038420	0.250008
H399	H	2.093991	0.288420	0.500008
H400	H	2.343991	0.538420	0.750008
Cl401	Cl	0.958623	0.731848	0.000010
Cl402	Cl	1.208623	0.981848	0.250010
Cl403	Cl	1.458623	1.231848	0.500010
Cl404	Cl	1.708623	1.481848	0.750010
H405	H	0.939303	0.133736	-0.000051
H406	H	1.189303	0.383736	0.249949
H407	H	1.439303	0.633736	0.499949
H408	H	1.689303	0.883736	0.749949
Cl409	Cl	0.930885	0.340392	0.095744
Cl410	Cl	1.180885	0.590392	0.345744
Cl411	Cl	1.430885	0.840392	0.595744
Cl412	Cl	1.680885	1.090392	0.845744
H413	H	0.907241	0.484997	0.076967
H414	H	1.157241	0.734997	0.326967
H415	H	1.407241	0.984997	0.576967
H416	H	1.657241	1.234997	0.826967
