data_functionalizedCrystal
_audit_creation_method	'MofGen! by Chris Wilmer'
_symmetry_space_group_name_H-M	'P1'
_symmetry_Int_Tables_number	1
_symmetry_cell_setting	triclinic
loop_
_symmetry_equiv_pos_as_xyz
  x,y,z
_cell_length_a	14.853558
_cell_length_b	14.971486
_cell_length_c	13.448316
_cell_angle_alpha	90.006811
_cell_angle_beta	89.993768
_cell_angle_gamma	96.377369
loop_
_atom_site_label
_atom_site_type_symbol
_atom_site_fract_x
_atom_site_fract_y
_atom_site_fract_z
O1	O	1.196351	-0.116742	-0.082680
O2	O	0.933888	-0.130662	-0.082685
O3	O	1.072154	0.006497	-0.082675
O4	O	1.058085	-0.253901	-0.082690
O5	O	1.072137	0.006506	0.082708
O6	O	0.933871	-0.130653	0.082699
O7	O	1.196334	-0.116734	0.082704
Cu8	Cu	1.065101	-0.123693	0.097802
Cu9	Cu	1.065121	-0.123703	-0.097783
O10	O	1.058067	-0.253893	0.082694
C11	C	0.900291	-0.130028	0.000006
C12	C	0.800207	-0.128143	0.000005
C13	C	0.753196	-0.127263	-0.090150
C14	C	0.753176	-0.127243	0.090158
C15	C	0.659142	-0.125467	0.090160
C16	C	0.612132	-0.124587	0.000006
C17	C	0.659154	-0.125484	-0.090151
C18	C	0.612114	-0.124561	0.180314
C19	C	0.518075	-0.122784	0.180320
C20	C	0.471062	-0.121910	0.090164
C21	C	0.518090	-0.122808	0.000004
C22	C	0.471079	-0.121928	-0.090150
C23	C	0.518105	-0.122833	-0.180311
C24	C	0.612141	-0.124611	-0.180306
C25	C	0.377026	-0.120132	0.090160
C26	C	0.377038	-0.120149	-0.090151
C27	C	1.071516	0.039826	0.000016
C28	C	1.069631	0.139123	0.000015
C29	C	1.229931	-0.117367	0.000010
C30	C	1.330015	-0.119253	0.000005
C31	C	1.058705	-0.287222	0.000000
C32	C	1.060591	-0.386519	-0.000005
N33	N	1.065093	-0.123685	0.235366
C34	C	1.150859	0.196337	0.000018
C35	C	1.149081	0.289636	0.000007
C36	C	1.066076	0.325721	0.000002
C37	C	0.984842	0.268500	-0.000003
C38	C	0.986620	0.175203	0.000000
C39	C	0.981142	0.462963	-0.000006
C40	C	0.979363	0.556268	-0.000008
C41	C	1.143603	0.577397	0.000001
C42	C	1.145381	0.484099	0.000004
C43	C	1.064147	0.426885	0.000001
N44	N	1.065136	-0.123703	-0.235348
C45	C	1.126336	-0.062976	0.287411
C46	C	1.126342	-0.062975	0.391514
C47	C	1.065108	-0.123689	0.443571
C48	C	1.003858	-0.184401	0.391519
C49	C	1.003848	-0.184396	0.287418
C50	C	1.003883	-0.184407	0.608499
C51	C	1.003893	-0.184412	0.712608
C52	C	1.126376	-0.062986	0.712596
C53	C	1.126367	-0.062981	0.608494
C54	C	1.065118	-0.123695	0.556450
H55	H	0.791458	-0.127953	0.163558
C56	C	0.936485	-0.251180	0.230169
H57	H	0.900022	-0.287345	0.276080
H58	H	0.898922	-0.218935	0.189573
H59	H	0.968954	-0.288474	0.189546
C60	C	1.193750	0.003799	0.769835
H61	H	1.230226	0.039950	0.723923
H62	H	1.161293	0.041096	0.810461
H63	H	1.231313	-0.028456	0.810429
C64	C	0.466388	-0.121866	-0.279474
H65	H	0.403649	-0.120679	-0.266556
H66	H	0.488623	-0.070046	-0.316525
H67	H	0.474970	-0.174290	-0.316513
C68	C	0.936535	-0.251189	0.769873
H69	H	0.945322	-0.242501	0.839326
H70	H	0.876358	-0.241362	0.752834
H71	H	0.946383	-0.310908	0.752800
H72	H	0.650438	-0.125345	-0.253710
H73	H	0.791488	-0.128003	-0.163556
C74	C	1.193699	0.003801	0.230153
H75	H	1.184932	-0.004896	0.160699
H76	H	1.183857	0.063517	0.247224
H77	H	1.253876	-0.006034	0.247203
C78	C	1.232959	0.640329	-0.000013
H79	H	1.220015	0.701062	-0.000031
H80	H	1.266990	0.629394	0.057659
H81	H	1.266991	0.629365	-0.057694
H82	H	0.914992	0.416381	-0.000012
H83	H	0.338740	-0.119404	0.163567
C84	C	0.936473	-0.251159	0.448774
H85	H	0.899984	-0.287301	0.402866
H86	H	0.968915	-0.288465	0.489385
H87	H	0.898925	-0.218884	0.489382
H88	H	0.479794	-0.122046	0.253734
C89	C	0.325329	-0.119184	-0.189320
H90	H	0.262588	-0.118000	-0.176412
H91	H	0.347568	-0.067365	-0.226368
H92	H	0.333918	-0.171608	-0.226355
C93	C	0.897270	0.112268	0.000000
H94	H	0.847579	0.147119	0.000005
H95	H	0.894557	0.075427	-0.057672
H96	H	0.894543	0.075440	0.057681
H97	H	0.917257	0.297888	-0.000013
C98	C	1.193718	0.003796	0.448759
H99	H	1.230194	0.039945	0.402847
H100	H	1.161264	0.041093	0.489386
H101	H	1.231279	-0.028463	0.489351
H102	H	1.176232	-0.013549	0.566110
H103	H	0.911773	0.585644	0.000004
H104	H	1.218451	0.166965	0.000028
H105	H	0.650398	-0.125269	0.253713
H106	H	1.215225	0.336216	0.000011
H107	H	1.212972	0.454723	0.000015
H108	H	0.954004	-0.233843	0.566128
