data_functionalizedCrystal
_audit_creation_method	'MofGen! by Chris Wilmer'
_symmetry_space_group_name_H-M	'P1'
_symmetry_Int_Tables_number	1
_symmetry_cell_setting	triclinic
loop_
_symmetry_equiv_pos_as_xyz
  x,y,z
_cell_length_a	8.597187
_cell_length_b	7.088929
_cell_length_c	8.559649
_cell_angle_alpha	84.655815
_cell_angle_beta	102.374912
_cell_angle_gamma	91.336285
loop_
_atom_site_label
_atom_site_type_symbol
_atom_site_fract_x
_atom_site_fract_y
_atom_site_fract_z
O1	O	1.998341	0.488148	-0.287625
O2	O	1.547630	0.413909	-0.298344
O3	O	1.812694	0.457567	-0.061679
O4	O	1.733277	0.444490	-0.524290
O5	O	1.848126	0.145428	-0.029977
O6	O	1.583062	0.101770	-0.266642
O7	O	2.033773	0.176009	-0.255923
Cu8	Cu	1.811653	0.110389	-0.258388
Cu9	Cu	1.769750	0.479530	-0.295879
O10	O	1.768709	0.132351	-0.492589
C11	C	1.508179	0.248423	-0.279575
C12	C	1.337842	0.220367	-0.270862
N13	N	1.841136	-0.149243	-0.232018
C14	C	2.073223	0.341499	-0.274692
C15	C	2.243559	0.369568	-0.283407
C16	C	1.836428	0.302493	0.013505
C17	C	1.854341	0.305454	0.190299
N18	N	1.740281	0.739164	-0.322237
C19	C	1.744975	0.287430	-0.567773
C20	C	1.727060	0.284481	-0.744568
H21	H	1.288245	0.071175	-0.253475
H22	H	1.293159	0.518769	-0.300814
O23	O	1.564557	0.257706	0.150141
H24	H	1.474144	0.242787	0.225658
H25	H	1.635758	-0.196406	-0.415729
O26	O	1.979608	-0.234574	-0.108169
H27	H	1.977171	-0.390932	-0.110351
H28	H	1.977027	0.325647	0.269801
