data_functionalizedCrystal
_audit_creation_method	'MofGen! by Chris Wilmer'
_symmetry_space_group_name_H-M	'P1'
_symmetry_Int_Tables_number	1
_symmetry_cell_setting	triclinic
loop_
_symmetry_equiv_pos_as_xyz
  x,y,z
_cell_length_a	14.519709
_cell_length_b	12.837943
_cell_length_c	11.892095
_cell_angle_alpha	94.310562
_cell_angle_beta	93.895429
_cell_angle_gamma	90.745458
loop_
_atom_site_label
_atom_site_type_symbol
_atom_site_fract_x
_atom_site_fract_y
_atom_site_fract_z
O1	O	0.234472	-1.382515	-0.093988
O2	O	0.222627	-1.080688	-0.093995
O3	O	0.095003	-1.239604	-0.093981
O4	O	0.362096	-1.223600	-0.094002
O5	O	0.105626	-1.226354	0.094025
O6	O	0.233250	-1.067438	0.094012
O7	O	0.245095	-1.369265	0.094018
Zn8	Zn	0.240859	-1.216248	0.123865
Zn9	Zn	0.226863	-1.233706	-0.123842
O10	O	0.372719	-1.210350	0.094005
C11	C	0.223937	-1.035435	0.000008
C12	C	0.212002	-0.920336	0.000006
C13	C	0.065890	-1.232233	0.000022
C14	C	-0.036684	-1.229998	0.000023
C15	C	0.243785	-1.414519	0.000013
C16	C	0.255719	-1.529618	0.000008
C17	C	-0.412293	-1.221771	-0.000007
C18	C	-0.307787	-1.224055	0.000002
C19	C	-0.224492	-1.225884	0.000009
C20	C	-0.119979	-1.228169	0.000016
C21	C	0.401831	-1.217721	-0.000001
C22	C	0.504405	-1.219957	-0.000009
N23	N	0.250411	-1.204341	0.292918
C24	C	0.355473	-0.679644	0.000011
C25	C	0.344264	-0.571497	0.000010
C26	C	0.178377	-0.595894	0.000010
C27	C	0.189586	-0.704041	0.000012
C28	C	0.278137	-0.745911	0.000010
C29	C	0.289344	-0.854060	0.000003
C30	C	0.123458	-0.878455	0.000012
C31	C	0.112249	-0.770308	0.000011
N32	N	0.217304	-1.245621	-0.292895
C33	C	0.150784	-1.328473	0.529576
C34	C	0.157468	-1.320158	0.647918
C35	C	0.270458	-1.179391	0.647944
C36	C	0.263774	-1.187707	0.529603
C37	C	0.203936	-1.262251	0.470423
C38	C	0.197257	-1.270570	0.352080
C39	C	0.310242	-1.129800	0.352108
C40	C	0.316926	-1.121484	0.470449
H41	H	0.427575	-0.713735	0.000008
N42	N	0.044464	-0.946160	0.000025
N43	N	0.036687	-1.003648	0.079272
H44	H	-0.019101	-1.051466	0.079279
H45	H	0.407240	-0.517545	0.000013
H46	H	0.114185	-1.374081	0.696077
N47	N	0.087928	-0.553125	0.000032
N48	N	0.038121	-0.567788	0.079286
H49	H	-0.025760	-0.537582	0.079304
H50	H	0.319170	-1.118692	0.696143
N51	N	0.364557	-1.062165	0.291687
N52	N	0.420993	-1.099813	0.225653
H53	H	0.459358	-1.052052	0.182981
N54	N	0.378054	-1.045341	0.530887
N55	N	0.425507	-0.986222	0.478053
H56	H	0.468681	-0.932444	0.520733
H57	H	0.361447	-0.888149	0.000004
H58	H	0.040154	-0.736201	0.000025
H59	H	0.102068	-1.389177	0.481392
N60	N	0.136076	-1.346660	0.291644
N61	N	0.088583	-1.405737	0.344479
H62	H	0.045347	-1.459453	0.301800
