data_functionalizedCrystal
_audit_creation_method	'MofGen! by Chris Wilmer'
_symmetry_space_group_name_H-M	'P1'
_symmetry_Int_Tables_number	1
_symmetry_cell_setting	triclinic
loop_
_symmetry_equiv_pos_as_xyz
  x,y,z
_cell_length_a	10.968094
_cell_length_b	19.188930
_cell_length_c	10.065875
_cell_angle_alpha	81.245692
_cell_angle_beta	86.881123
_cell_angle_gamma	83.945588
loop_
_atom_site_label
_atom_site_type_symbol
_atom_site_fract_x
_atom_site_fract_y
_atom_site_fract_z
O1	O	1.612229	0.121714	-0.265622
O2	O	2.112229	0.621714	0.234378
O3	O	1.262180	0.123712	-0.183301
O4	O	1.762180	0.623712	0.316699
O5	O	1.447302	0.021340	-0.226863
O6	O	1.947302	0.521340	0.273137
O7	O	1.427107	0.224085	-0.222060
O8	O	1.927107	0.724085	0.277940
O9	O	1.412002	0.040943	-0.445545
O10	O	1.912002	0.540943	0.054455
O11	O	1.226879	0.143314	-0.401982
O12	O	1.726879	0.643314	0.098018
O13	O	1.576929	0.141317	-0.484304
O14	O	2.076929	0.641317	0.015696
Zn15	Zn	1.396299	0.145428	-0.477864
Zn16	Zn	1.896299	0.645428	0.022136
Zn17	Zn	1.442810	0.119600	-0.189741
Zn18	Zn	1.942810	0.619600	0.310259
O19	O	1.391807	0.243688	-0.440742
O20	O	1.891807	0.743688	0.059258
C21	C	1.199745	0.131887	-0.282110
C22	C	1.699745	0.631887	0.217890
C23	C	1.066303	0.127035	-0.250729
C24	C	1.566303	0.627035	0.249271
C25	C	0.850597	0.130004	-0.317580
C26	C	1.350597	0.630004	0.182420
C27	C	0.988514	0.135025	-0.350027
C28	C	1.488514	0.635025	0.149973
C29	C	1.428997	0.005113	-0.336054
C30	C	1.928997	0.505113	0.163946
C31	C	1.427031	-0.072445	-0.335603
C32	C	1.927031	0.427555	0.164397
C33	C	1.535656	-0.114347	-0.361155
C34	C	2.035656	0.385653	0.138845
C35	C	1.533815	-0.187224	-0.360700
C36	C	2.033815	0.312776	0.139300
C37	C	1.423337	-0.218194	-0.334718
C38	C	1.923337	0.281806	0.165282
C39	C	1.314699	-0.176283	-0.309155
C40	C	1.814699	0.323717	0.190845
C41	C	1.316546	-0.103409	-0.309598
C42	C	1.816546	0.396591	0.190402
N43	N	1.326877	-0.321876	-0.389280
N44	N	1.826877	0.178124	0.110720
N45	N	1.325130	-0.391104	-0.388864
N46	N	1.825130	0.108896	0.111136
C47	C	1.417766	-0.437760	-0.333380
C48	C	1.917766	0.062240	0.166620
N49	N	1.512233	-0.412572	-0.278349
N50	N	2.012233	0.087428	0.221651
N51	N	1.513983	-0.343338	-0.278771
N52	N	2.013983	0.156662	0.221229
C53	C	1.421323	-0.297213	-0.334234
C54	C	1.921323	0.202787	0.165766
C55	C	1.524402	-0.558684	-0.358439
C56	C	2.024402	-0.058684	0.141561
C57	C	1.522557	-0.631563	-0.357975
C58	C	2.022557	-0.131563	0.142025
C59	C	1.303437	-0.620619	-0.306442
C60	C	1.803437	-0.120619	0.193558
C61	C	1.305287	-0.547743	-0.306894
C62	C	1.805287	-0.047743	0.193106
C63	C	1.415772	-0.516779	-0.332899
C64	C	1.915772	-0.016779	0.167101
C65	C	1.639364	0.133141	-0.385492
C66	C	2.139364	0.633141	0.114508
C67	C	1.772808	0.137992	-0.416864
C68	C	2.272808	0.637992	0.083136
C69	C	1.410112	0.259915	-0.331548
C70	C	1.910112	0.759915	0.168452
C71	C	1.412079	0.337472	-0.331990
C72	C	1.912079	0.837472	0.168010
N73	N	1.364566	0.163054	-0.674502
N74	N	1.864566	0.663054	-0.174502
C75	C	1.431761	0.125729	-0.758093
C76	C	1.931761	0.625729	-0.258093
C77	C	1.407348	0.139300	-0.909515
C78	C	1.907348	0.639300	-0.409515
N79	N	1.474552	0.101969	0.006895
N80	N	1.974552	0.601969	0.506895
H81	H	0.815093	0.119443	-0.208559
H82	H	1.315093	0.619443	0.291441
H83	H	1.507359	0.083722	-0.717558
H84	H	2.007359	0.583722	-0.217558
Cl85	Cl	1.164550	-0.659546	-0.273771
Cl86	Cl	1.664550	-0.159546	0.226229
Cl87	Cl	1.290609	0.204151	-0.972081
Cl88	Cl	1.790609	0.704151	-0.472081
H89	H	0.808315	0.148545	-0.525886
H90	H	1.308315	0.648545	-0.025886
Cl91	Cl	1.674558	-0.075429	-0.393810
Cl92	Cl	2.174558	0.424571	0.106190
Cl93	Cl	1.670382	-0.239911	-0.392824
Cl94	Cl	2.170382	0.260089	0.107176
H95	H	1.224748	-0.201503	-0.287997
H96	H	1.724748	0.298497	0.212003
H97	H	1.550155	0.059960	-0.952575
H98	H	2.050155	0.559960	-0.452575
H99	H	1.228088	-0.069292	-0.288790
H100	H	1.728088	0.430708	0.211210
H101	H	1.288959	0.205055	-0.715037
H102	H	1.788959	0.705055	-0.215037
Cl103	Cl	1.663293	-0.519754	-0.391138
Cl104	Cl	2.163293	-0.019754	0.108862
H105	H	1.611018	-0.665680	-0.378776
H106	H	2.111018	-0.165680	0.121224
Cl107	Cl	1.168720	-0.495062	-0.274775
Cl108	Cl	1.668720	0.004938	0.225225
H109	H	1.024015	0.145579	-0.459056
H110	H	1.524015	0.645579	0.040944
H111	H	1.030804	0.116479	-0.141699
H112	H	1.530804	0.616479	0.358301
