data_functionalizedCrystal
_audit_creation_method	'MofGen! by Chris Wilmer'
_symmetry_space_group_name_H-M	'P1'
_symmetry_Int_Tables_number	1
_symmetry_cell_setting	triclinic
loop_
_symmetry_equiv_pos_as_xyz
  x,y,z
_cell_length_a	13.897449
_cell_length_b	16.120444
_cell_length_c	13.897441
_cell_angle_alpha	92.867240
_cell_angle_beta	89.981404
_cell_angle_gamma	92.927816
loop_
_atom_site_label
_atom_site_type_symbol
_atom_site_fract_x
_atom_site_fract_y
_atom_site_fract_z
Zn1	Zn	1.455154	-0.331861	-0.564829
Zn2	Zn	1.955154	0.168139	-0.064829
Zn3	Zn	1.446849	-0.471291	-0.411701
Zn4	Zn	1.946849	0.028709	0.088299
Zn5	Zn	1.293847	-0.331899	-0.403550
Zn6	Zn	1.793847	0.168101	0.096450
Zn7	Zn	1.285623	-0.471239	-0.572951
Zn8	Zn	1.785623	0.028761	-0.072951
O9	O	1.370368	-0.401573	-0.488258
O10	O	1.870368	0.098427	0.011742
O11	O	1.589033	-0.350363	-0.544529
O12	O	2.089033	0.149637	-0.044529
O13	O	1.426519	-0.452838	-0.275641
O14	O	1.926519	0.047162	0.224359
O15	O	1.322162	-0.215228	-0.418133
O16	O	1.822162	0.284772	0.081867
O17	O	1.582932	-0.452802	-0.432027
O18	O	2.082932	0.047198	0.067973
O19	O	1.440673	-0.215200	-0.536624
O20	O	1.940673	0.284800	-0.036624
O21	O	1.314109	-0.350427	-0.269651
O22	O	1.814109	0.149573	0.230349
O23	O	1.157774	-0.350376	-0.426009
O24	O	1.657774	0.149624	0.073991
O25	O	1.308145	-0.452713	-0.706853
O26	O	1.808145	0.047287	-0.206853
O27	O	1.151732	-0.452749	-0.550467
O28	O	1.651732	0.047251	-0.050467
O29	O	1.432699	-0.350313	-0.700886
O30	O	1.932699	0.149687	-0.200886
O31	O	1.418544	-0.587951	-0.439902
O32	O	1.918544	-0.087951	0.060098
O33	O	1.300092	-0.587912	-0.558371
O34	O	1.800092	-0.087912	-0.058371
C35	C	1.119754	-0.401562	-0.488235
C36	C	1.619754	0.098438	0.011765
C37	C	1.012539	-0.401577	-0.488249
C38	C	1.512539	0.098423	0.011751
C39	C	0.816244	-0.401580	-0.488275
C40	C	1.316244	0.098420	0.011725
C41	C	0.925477	-0.401576	-0.488258
C42	C	1.425477	0.098424	0.011742
C43	C	1.357551	-0.618182	-0.500924
C44	C	1.857551	-0.118182	-0.000924
C45	C	1.352156	-0.710848	-0.506374
C46	C	1.852156	-0.210848	-0.006374
C47	C	1.398590	-0.921789	-0.460189
C48	C	1.898590	-0.421789	0.039811
C49	C	1.342324	-0.880505	-0.516336
C50	C	1.842324	-0.380505	-0.016336
C51	C	1.347796	-0.786099	-0.510792
C52	C	1.847796	-0.286099	-0.010792
C53	C	1.393119	-1.016204	-0.465732
C54	C	1.893119	-0.516204	0.034268
C55	C	1.621960	-0.401584	-0.488281
C56	C	2.121960	0.098416	0.011719
C57	C	1.729174	-0.401589	-0.488291
C58	C	2.229174	0.098411	0.011709
C59	C	1.370431	-0.401503	-0.739847
C60	C	1.870431	0.098497	-0.239847
C61	C	1.370458	-0.401473	-0.847059
C62	C	1.870458	0.098527	-0.347059
C63	C	1.383261	-0.184118	-0.475564
C64	C	1.883261	0.315882	0.024436
C65	C	1.388755	-0.091452	-0.470154
C66	C	1.888755	0.408548	0.029846
C67	C	1.370479	-0.401449	-0.934127
C68	C	1.870479	0.098551	-0.434127
C69	C	1.370509	-0.401412	-1.043358
C70	C	1.870509	0.098588	-0.543358
C71	C	1.370364	-0.401582	-0.237644
C72	C	1.870364	0.098418	0.262356
C73	C	1.370538	-0.401377	-0.130419
C74	C	1.870538	0.098623	0.369581
H75	H	1.450867	-0.886237	-0.407959
H76	H	1.950867	-0.386237	0.092041
H77	H	1.290043	-0.916061	-0.568569
H78	H	1.790043	-0.416061	-0.068569
