data_functionalizedCrystal
_audit_creation_method	'MofGen! by Chris Wilmer'
_symmetry_space_group_name_H-M	'P1'
_symmetry_Int_Tables_number	1
_symmetry_cell_setting	triclinic
loop_
_symmetry_equiv_pos_as_xyz
  x,y,z
_cell_length_a	14.971482
_cell_length_b	19.188930
_cell_length_c	13.448316
_cell_angle_alpha	89.988273
_cell_angle_beta	89.993798
_cell_angle_gamma	83.378695
loop_
_atom_site_label
_atom_site_type_symbol
_atom_site_fract_x
_atom_site_fract_y
_atom_site_fract_z
O1	O	1.186469	0.090976	-0.082691
O2	O	1.686469	0.590976	0.417309
O3	O	0.926011	0.101874	-0.082697
O4	O	1.426011	0.601874	0.417303
O5	O	1.063756	-0.005207	-0.082674
O6	O	1.563756	0.494793	0.417326
O7	O	1.048724	0.198057	-0.082713
O8	O	1.548724	0.698057	0.417287
O9	O	1.063739	-0.005213	0.082710
O10	O	1.563739	0.494787	0.582710
O11	O	0.925993	0.101868	0.082687
O12	O	1.425993	0.601868	0.582687
O13	O	1.186452	0.090969	0.082693
O14	O	1.686452	0.590969	0.582693
Cu15	Cu	1.056221	0.096418	0.097791
Cu16	Cu	1.556221	0.596418	0.597791
Cu17	Cu	1.056241	0.096426	-0.097795
Cu18	Cu	1.556241	0.596426	0.402205
O19	O	1.048706	0.198050	0.082671
O20	O	1.548706	0.698050	0.582671
C21	C	0.892680	0.101384	-0.000005
C22	C	1.392680	0.601384	0.499995
C23	C	0.793390	0.099925	-0.000007
C24	C	1.293390	0.599925	0.499993
C25	C	0.746740	0.099234	0.090145
C26	C	1.246740	0.599234	0.590145
C27	C	0.653449	0.097852	0.090146
C28	C	1.153449	0.597852	0.590146
C29	C	0.606809	0.097165	-0.000005
C30	C	1.106809	0.597165	0.499995
C31	C	0.653466	0.097854	-0.090164
C32	C	1.153466	0.597854	0.409836
C33	C	0.746756	0.099231	-0.090164
C34	C	1.246756	0.599231	0.409836
C35	C	0.459019	0.094985	-0.090157
C36	C	0.959019	0.594985	0.409843
C37	C	0.365722	0.093609	-0.090157
C38	C	0.865722	0.593609	0.409843
C39	C	0.365712	0.093606	0.090154
C40	C	0.865712	0.593606	0.590154
C41	C	0.459002	0.094983	0.090153
C42	C	0.959002	0.594983	0.590153
C43	C	0.505653	0.095673	-0.000006
C44	C	1.005653	0.595673	0.499994
C45	C	1.063261	-0.031222	0.000021
C46	C	1.563261	0.468778	0.500021
C47	C	1.061799	-0.108732	0.000029
C48	C	1.561799	0.391268	0.500029
C49	C	1.142624	-0.153396	0.000036
C50	C	1.642624	0.346604	0.500036
C51	C	1.141251	-0.226224	0.000020
C52	C	1.641251	0.273776	0.500020
C53	C	1.059049	-0.254385	0.000017
C54	C	1.559049	0.245615	0.500017
C55	C	0.978214	-0.209710	0.000005
C56	C	1.478214	0.290290	0.500005
C57	C	0.979589	-0.136884	0.000011
C58	C	1.479589	0.363116	0.500011
N59	N	0.996209	-0.362594	0.056299
N60	N	1.496209	0.137406	0.556299
N61	N	0.994909	-0.431776	0.056295
N62	N	1.494909	0.068224	0.556295
C63	C	1.054901	-0.473807	-0.000003
C64	C	1.554901	0.026193	0.499997
N65	N	1.116256	-0.444042	-0.056285
N66	N	1.616256	0.055958	0.443715
N67	N	1.117560	-0.374853	-0.056277
N68	N	1.617560	0.125147	0.443723
C69	C	1.057549	-0.333352	0.000010
C70	C	1.557549	0.166648	0.500010
C71	C	1.134242	-0.597441	-0.000015
C72	C	1.634242	-0.097441	0.499985
C73	C	1.132866	-0.670270	-0.000037
C74	C	1.632866	-0.170270	0.499963
C75	C	0.969826	-0.653754	-0.000042
C76	C	1.469826	-0.153754	0.499958
C77	C	0.971205	-0.580926	-0.000030
C78	C	1.471205	-0.080926	0.499970
C79	C	1.053415	-0.552774	-0.000012
C80	C	1.553415	-0.052774	0.499988
C81	C	1.219782	0.091459	-0.000000
C82	C	1.719782	0.591459	0.500000
C83	C	1.319072	0.092919	-0.000005
C84	C	1.819072	0.592919	0.499995
C85	C	1.049202	0.224066	-0.000026
C86	C	1.549202	0.724066	0.499974
C87	C	1.050663	0.301575	-0.000041
C88	C	1.550663	0.801575	0.499959
N89	N	1.056213	0.096412	0.235355
N90	N	1.556213	0.596412	0.735355
N91	N	1.056256	0.096426	-0.235359
N92	N	1.556256	0.596426	0.264641
C93	C	1.117226	0.049016	0.287406
C94	C	1.617226	0.549016	0.787406
C95	C	1.117231	0.049015	0.391509
C96	C	1.617231	0.549015	0.891509
C97	C	1.056228	0.096415	0.443560
C98	C	1.556228	0.596415	0.943560
C99	C	0.995209	0.143813	0.391502
C100	C	1.495209	0.643813	0.891502
C101	C	0.995200	0.143809	0.287401
C102	C	1.495200	0.643809	0.787401
C103	C	0.995234	0.143817	0.608482
C104	C	1.495234	0.643817	1.108482
C105	C	0.995244	0.143822	0.712591
C106	C	1.495244	0.643822	1.212591
C107	C	1.117265	0.049023	0.712590
C108	C	1.617265	0.549023	1.212590
C109	C	1.117256	0.049020	0.608489
C110	C	1.617256	0.549020	1.108489
C111	C	1.056238	0.096419	0.556439
C112	C	1.556238	0.596419	1.056439
H113	H	0.784738	0.099795	-0.163575
H114	H	1.284738	0.599795	0.336425
H115	H	1.209566	-0.130480	0.000047
H116	H	1.709566	0.369520	0.500047
H117	H	0.945568	0.182419	0.754965
H118	H	1.445568	0.682419	1.254965
O119	O	0.509347	0.095728	-0.187394
O120	O	1.009347	0.595728	0.312606
H121	H	0.483292	0.143020	-0.230631
H122	H	0.983292	0.643020	0.269369
H123	H	0.945535	0.182404	0.433888
H124	H	1.445535	0.682404	0.933888
H125	H	0.911284	-0.232643	0.000001
H126	H	1.411284	0.267357	0.500001
H127	H	0.945516	0.182403	0.245022
H128	H	1.445516	0.682403	0.745022
H129	H	0.913770	-0.100517	0.000006
H130	H	1.413770	0.399483	0.500006
H131	H	0.784707	0.099799	0.163557
H132	H	1.284707	0.599799	0.663557
H133	H	0.615472	0.097278	0.163557
H134	H	1.115472	0.597278	0.663557
H135	H	1.198686	-0.706636	-0.000037
H136	H	1.698686	-0.206636	0.499963
O137	O	0.509309	0.095746	0.187385
O138	O	1.009309	0.595746	0.687385
H139	H	0.461198	0.095036	0.250078
H140	H	0.961198	0.595036	0.750078
O141	O	1.228431	-0.274409	0.000037
O142	O	1.728431	0.225591	0.500037
H143	H	1.231679	-0.307993	0.067443
H144	H	1.731679	0.192007	0.567443
H145	H	1.166905	0.010421	0.245033
H146	H	1.666905	0.510421	0.745033
H147	H	0.327724	0.093044	0.163565
H148	H	0.827724	0.593044	0.663565
O149	O	1.222905	-0.567067	-0.000015
O150	O	1.722905	-0.067067	0.499985
H151	H	1.278879	-0.610364	-0.000032
H152	H	1.778879	-0.110364	0.499968
H153	H	0.615485	0.097290	-0.163567
H154	H	1.115485	0.597290	0.336433
H155	H	0.902896	-0.676681	-0.000049
H156	H	1.402896	-0.176681	0.499951
H157	H	0.905389	-0.544559	-0.000030
H158	H	1.405389	-0.044559	0.499970
H159	H	1.166911	0.010422	0.433888
H160	H	1.666911	0.510422	0.933888
H161	H	1.166934	0.010428	0.566109
H162	H	1.666934	0.510428	1.066109
H163	H	1.166948	0.010429	0.754976
H164	H	1.666948	0.510429	1.254976
O165	O	0.929424	0.194934	0.552325
O166	O	1.429424	0.694934	1.052325
H167	H	0.940607	0.249380	0.572266
H168	H	1.440607	0.749380	1.072266
O169	O	0.315413	0.092865	-0.187389
O170	O	0.815413	0.592865	0.312611
H171	H	0.363524	0.093566	-0.250082
H172	H	0.863524	0.593566	0.249918
