data_functionalizedCrystal
_audit_creation_method	'MofGen! by Chris Wilmer'
_symmetry_space_group_name_H-M	'P1'
_symmetry_Int_Tables_number	1
_symmetry_cell_setting	triclinic
loop_
_symmetry_equiv_pos_as_xyz
  x,y,z
_cell_length_a	17.699083
_cell_length_b	17.699083
_cell_length_c	16.176319
_cell_angle_alpha	90.004339
_cell_angle_beta	89.999950
_cell_angle_gamma	83.283015
loop_
_atom_site_label
_atom_site_type_symbol
_atom_site_fract_x
_atom_site_fract_y
_atom_site_fract_z
O1	O	1.004078	0.095710	0.068632
O2	O	0.783699	0.108162	0.068660
O3	O	0.900115	-0.008253	0.068638
O4	O	0.887662	0.212125	0.068654
O5	O	0.900101	-0.008254	-0.068855
O6	O	0.783686	0.108162	-0.068834
O7	O	1.004064	0.095709	-0.068861
Cu8	Cu	0.893874	0.101935	-0.081401
Cu9	Cu	0.893890	0.101936	0.081200
O10	O	0.887649	0.212125	-0.068839
C11	C	0.755495	0.107716	-0.000084
C12	C	0.671477	0.106377	-0.000073
C13	C	0.622856	0.174710	-0.000069
C14	C	0.543913	0.173448	-0.000079
C15	C	0.513592	0.103852	-0.000089
C16	C	0.562219	0.035513	-0.000096
C17	C	0.641161	0.036776	-0.000091
C18	C	0.243856	0.030418	-0.000117
C19	C	0.164908	0.029160	-0.000120
C20	C	0.146608	0.167090	-0.000105
C21	C	0.225550	0.168353	-0.000100
C22	C	0.274170	0.100015	-0.000112
C23	C	0.359769	0.101384	-0.000102
C24	C	0.427995	0.102481	-0.000093
C25	C	0.899662	-0.036451	-0.000109
C26	C	0.898323	-0.120469	-0.000109
C27	C	0.966656	-0.169090	-0.000119
C28	C	0.965394	-0.248033	-0.000111
C29	C	0.895798	-0.278354	-0.000100
C30	C	0.827459	-0.229727	-0.000088
C31	C	0.828722	-0.150785	-0.000089
C32	C	0.822364	-0.548090	-0.000080
C33	C	0.821106	-0.627038	-0.000081
C34	C	0.959036	-0.645338	-0.000102
C35	C	0.960299	-0.566396	-0.000104
C36	C	0.891961	-0.517776	-0.000087
C37	C	0.893330	-0.432177	-0.000094
C38	C	0.894427	-0.363951	-0.000099
C39	C	1.032268	0.096156	-0.000116
C40	C	1.116286	0.097494	-0.000121
C41	C	0.888102	0.240322	-0.000091
C42	C	0.889440	0.324340	-0.000085
N43	N	0.893868	0.101935	-0.195767
C44	C	0.939683	0.147783	-0.239030
C45	C	0.939691	0.147781	-0.325577
C46	C	0.893879	0.101933	-0.368859
C47	C	0.848063	0.056079	-0.325590
C48	C	0.848059	0.056078	-0.239045
C49	C	0.848077	0.056080	-0.674618
C50	C	0.848082	0.056085	-0.761170
C51	C	0.939708	0.147782	-0.761151
C52	C	0.939705	0.147781	-0.674605
C53	C	0.893891	0.101925	-0.631344
C54	C	0.893884	0.101927	-0.537499
C55	C	0.893882	0.101933	-0.462702
N56	N	0.893902	0.101931	0.195565
H57	H	0.283434	-0.025228	-0.000127
H58	H	0.976983	0.185123	-0.203795
N59	N	0.798646	0.006629	-0.372265
H60	H	0.813680	-0.048459	-0.357210
H61	H	0.805615	0.013650	-0.433642
H62	H	0.647537	0.231384	-0.000060
H63	H	0.504328	0.229092	-0.000075
N64	N	1.035364	-0.533696	-0.000109
H65	H	1.025795	-0.476308	-0.000109
H66	H	1.065257	-0.551494	-0.051082
H67	H	0.810773	0.018740	-0.639405
H68	H	0.140225	-0.027517	-0.000128
N69	N	1.041722	-0.136389	-0.000138
H70	H	1.084819	-0.179172	-0.000142
H71	H	1.045257	-0.104030	0.050830
H72	H	0.250232	0.225025	-0.000089
H73	H	0.770792	-0.254420	-0.000073
H74	H	1.021038	-0.287618	-0.000121
N75	N	0.746033	-0.659734	-0.000062
H76	H	0.742446	-0.692079	0.050906
H77	H	0.742470	-0.692042	-0.051065
H78	H	0.107012	0.222734	-0.000100
H79	H	1.014680	-0.684934	-0.000111
H80	H	0.766718	-0.508512	-0.000067
N81	N	0.989142	0.197194	-0.372240
H82	H	1.018171	0.226230	-0.331688
H83	H	0.956109	0.234244	-0.408170
H84	H	0.977006	0.185118	-0.639369
N85	N	0.755020	-0.098340	-0.000074
H86	H	0.710739	-0.129525	-0.000068
H87	H	0.752532	-0.065189	-0.051043
N88	N	0.529521	-0.039553	-0.000120
H89	H	0.472134	-0.029986	-0.000122
H90	H	0.547314	-0.069454	0.050845
H91	H	0.977014	0.185119	-0.796385
H92	H	0.810775	0.018748	-0.796408
H93	H	0.810752	0.018743	-0.203821
H94	H	0.680748	-0.018868	-0.000095
