data_functionalizedCrystal
_audit_creation_method	'MofGen! by Chris Wilmer'
_symmetry_space_group_name_H-M	'P1'
_symmetry_Int_Tables_number	1
_symmetry_cell_setting	triclinic
loop_
_symmetry_equiv_pos_as_xyz
  x,y,z
_cell_length_a	13.262390
_cell_length_b	13.339070
_cell_length_c	15.186229
_cell_angle_alpha	89.998719
_cell_angle_beta	74.079348
_cell_angle_gamma	99.429367
loop_
_atom_site_label
_atom_site_type_symbol
_atom_site_fract_x
_atom_site_fract_y
_atom_site_fract_z
O1	O	1.432423	0.136422	-0.416300
O2	O	1.131154	0.151257	-0.344146
O3	O	1.247213	-0.003570	-0.371940
O4	O	1.316364	0.291248	-0.388507
O5	O	1.247201	-0.003572	-0.225480
O6	O	1.131143	0.151254	-0.197686
O7	O	1.432411	0.136420	-0.269840
Zn8	Zn	1.281775	0.143837	-0.210510
Zn9	Zn	1.281790	0.143840	-0.403477
O10	O	1.316353	0.291246	-0.242047
C11	C	1.091802	0.150424	-0.261492
C12	C	0.974557	0.147935	-0.233412
C13	C	0.644094	0.140910	-0.473613
C14	C	0.754250	0.143244	-0.499997
C15	C	0.809333	0.144417	-0.433353
C16	C	0.754248	0.143256	-0.340321
C17	C	0.644079	0.140914	-0.313934
C18	C	0.809318	0.144421	-0.273674
C19	C	0.754233	0.143260	-0.180641
C20	C	0.644076	0.140919	-0.154259
C21	C	0.588993	0.139745	-0.220903
C22	C	0.919486	0.146763	-0.300061
C23	C	0.919471	0.146767	-0.140381
C24	C	0.809315	0.144433	-0.113998
C25	C	1.235526	-0.041309	-0.295913
C26	C	1.200707	-0.153757	-0.287578
C27	C	1.471438	-0.517411	-0.352418
C28	C	1.504155	-0.411761	-0.360245
C29	C	1.428296	-0.347255	-0.342079
C30	C	1.319714	-0.388409	-0.316084
C31	C	1.286994	-0.494070	-0.308249
C32	C	1.243852	-0.323914	-0.297910
C33	C	1.135270	-0.365069	-0.271915
C34	C	1.102555	-0.470719	-0.264082
C35	C	1.178414	-0.535225	-0.282248
C36	C	1.276572	-0.218253	-0.305746
C37	C	1.092128	-0.194912	-0.261577
C38	C	1.059411	-0.300563	-0.253749
C39	C	1.471764	0.137252	-0.352496
C40	C	1.589008	0.139741	-0.380582
C41	C	1.328040	0.328986	-0.318075
C42	C	1.362858	0.441434	-0.326417
N43	N	1.281772	0.143834	-0.078816
N44	N	1.281799	0.143834	-0.535172
C45	C	1.333194	0.075300	0.134592
C46	C	1.333197	0.075298	0.226781
C47	C	1.230371	0.212371	0.251415
C48	C	1.230362	0.212368	0.159229
C49	C	1.281780	0.143834	0.100819
C50	C	1.281791	0.143835	0.285193
C51	C	1.281794	0.143833	0.385149
C52	C	1.281776	0.143834	0.000857
H53	H	0.964326	0.147710	-0.375808
H54	H	1.375060	0.019494	0.087036
O55	O	0.953926	-0.340499	-0.228646
C56	C	0.905821	-0.307558	-0.292967
H57	H	0.968780	-0.285333	-0.361058
H58	H	0.842483	-0.371749	-0.303263
H59	H	0.867299	-0.238958	-0.266592
O60	O	0.481999	0.137570	-0.195409
C61	C	0.458791	0.224396	-0.233636
H62	H	0.526831	0.254994	-0.296529
H63	H	0.382053	0.203085	-0.254529
H64	H	0.448721	0.285318	-0.180763
O65	O	1.180525	0.278911	0.308269
C66	C	1.191536	0.264205	0.396883
H67	H	1.264072	0.226744	0.392094
H68	H	1.202187	0.340857	0.429363
H69	H	1.117256	0.213125	0.440847
O70	O	1.383227	0.008866	0.259665
C71	C	1.463883	0.063418	0.293649
H72	H	1.445102	0.142476	0.311960
H73	H	1.468203	0.021218	0.357440
H74	H	1.543562	0.070670	0.239029
H75	H	1.030357	-0.142391	-0.246780
O76	O	0.590392	0.139723	-0.063926
C77	C	0.481353	0.137424	-0.054930
H78	H	0.461336	0.105085	-0.118751
H79	H	0.431845	0.087408	0.007911
H80	H	0.462706	0.217916	-0.046673
H81	H	1.454941	-0.261230	-0.348454
H82	H	0.599235	0.139945	-0.527864
O83	O	1.180406	0.279044	0.126555
C84	C	1.135010	0.339524	0.197879
H85	H	1.178439	0.340880	0.253188
H86	H	1.142527	0.420334	0.169434
H87	H	1.047358	0.306265	0.228687
H88	H	0.899027	0.146318	-0.454841
H89	H	0.799092	0.144184	-0.575743
O90	O	0.973060	0.147774	-0.075714
C91	C	1.023134	0.061500	-0.082920
H92	H	1.035098	0.032642	-0.155102
H93	H	1.103663	0.082852	-0.068420
H94	H	0.971135	-0.000755	-0.031066
O95	O	1.609635	-0.371837	-0.385656
C96	C	1.657760	-0.404772	-0.473020
H97	H	1.594816	-0.426978	-0.510966
H98	H	1.721115	-0.340584	-0.513648
H99	H	1.696263	-0.473382	-0.465092
O100	O	1.381997	-0.178114	-0.330953
C101	C	1.394618	-0.071029	-0.333998
H102	H	1.319831	-0.046563	-0.288360
H103	H	1.465946	-0.038335	-0.308561
H104	H	1.408282	-0.041598	-0.407534
O105	O	0.755724	0.143116	-0.023633
C106	C	0.678355	0.054160	-0.000336
H107	H	0.702035	-0.006374	-0.051307
H108	H	0.672519	0.024725	0.071674
H109	H	0.597950	0.072195	-0.002534
H110	H	1.533190	-0.569940	-0.367198
H111	H	1.151781	-0.621255	-0.275879
O112	O	0.997068	-0.510648	-0.238976
C113	C	0.948965	-0.477704	-0.303297
H114	H	1.011924	-0.455489	-0.371391
H115	H	0.885619	-0.541890	-0.313587
H116	H	0.910454	-0.409098	-0.276926
