data_functionalizedCrystal
_audit_creation_method	'MofGen! by Chris Wilmer'
_symmetry_space_group_name_H-M	'P1'
_symmetry_Int_Tables_number	1
_symmetry_cell_setting	triclinic
loop_
_symmetry_equiv_pos_as_xyz
  x,y,z
_cell_length_a	21.295417
_cell_length_b	21.295420
_cell_length_c	21.295411
_cell_angle_alpha	89.975408
_cell_angle_beta	89.978356
_cell_angle_gamma	90.026289
loop_
_atom_site_label
_atom_site_type_symbol
_atom_site_fract_x
_atom_site_fract_y
_atom_site_fract_z
Zn1	Zn	-0.250752	0.962355	-0.355912
Zn2	Zn	0.249248	1.462355	0.144088
Zn3	Zn	-0.356004	0.962258	-0.250637
Zn4	Zn	0.143996	1.462258	0.249363
Zn5	Zn	-0.250744	0.857079	-0.250657
Zn6	Zn	0.249256	1.357079	0.249343
Zn7	Zn	-0.355979	0.857048	-0.355869
Zn8	Zn	0.144021	1.357048	0.144131
O9	O	-0.303370	0.909685	-0.303269
O10	O	0.196630	1.409685	0.196731
O11	O	-0.264727	1.050432	-0.341957
O12	O	0.235273	1.550432	0.158043
O13	O	-0.342048	0.948277	-0.162550
O14	O	0.157952	1.448277	0.337450
O15	O	-0.162656	0.871097	-0.264645
O16	O	0.337344	1.371097	0.235355
O17	O	-0.342055	1.050360	-0.264612
O18	O	0.157945	1.550360	0.235388
O19	O	-0.162661	0.948444	-0.341976
O20	O	0.337339	1.448444	0.158024
O21	O	-0.264714	0.871003	-0.162565
O22	O	0.235286	1.371003	0.337435
O23	O	-0.264691	0.768985	-0.264604
O24	O	0.235309	1.268985	0.235396
O25	O	-0.342014	0.871045	-0.443964
O26	O	0.157986	1.371045	0.056036
O27	O	-0.342006	0.768963	-0.341903
O28	O	0.157994	1.268963	0.158097
O29	O	-0.264703	0.948414	-0.443996
O30	O	0.235297	1.448414	0.056004
O31	O	-0.444090	0.948248	-0.264570
O32	O	0.055910	1.448248	0.235430
O33	O	-0.444072	0.870951	-0.341884
O34	O	0.055928	1.370951	0.158116
C35	C	-0.303346	0.746133	-0.303251
C36	C	0.196654	1.246133	0.196749
C37	C	-0.303351	0.676165	-0.303258
C38	C	0.196649	1.176165	0.196742
C39	C	-0.466921	0.909602	-0.303234
C40	C	0.033079	1.409602	0.196766
C41	C	-0.536890	0.909625	-0.303240
C42	C	-0.036890	1.409625	0.196760
C43	C	-0.263200	0.176744	-0.343617
C44	C	0.236800	0.676744	0.156383
C45	C	-0.263195	0.242486	-0.343617
C46	C	0.236805	0.742486	0.156383
C47	C	-0.303389	0.275326	-0.303283
C48	C	0.196611	0.775326	0.196717
C49	C	-0.343602	0.242417	-0.262958
C50	C	0.156398	0.742417	0.237042
C51	C	-0.343610	0.176676	-0.262964
C52	C	0.156390	0.676676	0.237036
N53	N	-0.308125	0.378516	-0.248164
N54	N	0.191875	0.878516	0.251836
N55	N	-0.308113	0.440967	-0.248160
N56	N	0.191887	0.940967	0.251840
C57	C	-0.303368	0.473400	-0.303265
C58	C	0.196632	0.973400	0.196735
N59	N	-0.298623	0.441023	-0.358375
N60	N	0.201377	0.941023	0.141625
N61	N	-0.298631	0.378566	-0.358377
N62	N	0.201369	0.878566	0.141623
C63	C	-0.303385	0.346611	-0.303273
C64	C	0.196615	0.846611	0.196727
C65	C	-0.263156	0.577587	-0.343591
C66	C	0.236844	1.077587	0.156409
C67	C	-0.263156	0.643330	-0.343592
C68	C	0.236844	1.143330	0.156408
C69	C	-0.343559	0.643260	-0.262927
C70	C	0.156441	1.143260	0.237073
C71	C	-0.343562	0.577517	-0.262932
C72	C	0.156438	1.077517	0.237068
C73	C	-0.303358	0.544685	-0.303263
C74	C	0.196642	1.044685	0.196737
C75	C	-0.569745	0.949909	-0.263024
C76	C	-0.069745	1.449909	0.236976
C77	C	-0.635487	0.949939	-0.263038
C78	C	-0.135487	1.449939	0.236962
C79	C	-0.668372	0.909672	-0.303262
C80	C	-0.168372	1.409672	0.196738
C81	C	-0.635509	0.869385	-0.343485
C82	C	-0.135509	1.369385	0.156515
C83	C	-0.569768	0.869361	-0.343474
C84	C	-0.069768	1.369361	0.156526
N85	N	-0.771635	0.854605	-0.308055
N86	N	-0.271635	1.354605	0.191945
N87	N	-0.834086	0.854630	-0.308061
N88	N	-0.334086	1.354630	0.191939
C89	C	-0.866447	0.909743	-0.303298
C90	C	-0.366447	1.409743	0.196702
N91	N	-0.833997	0.964832	-0.298515
N92	N	-0.333997	1.464832	0.201485
N93	N	-0.771540	0.964807	-0.298505
N94	N	-0.271540	1.464807	0.201495
C95	C	-0.739657	0.909694	-0.303278
C96	C	-0.239657	1.409694	0.196722
C97	C	-0.970587	0.950063	-0.263095
C98	C	-0.470587	1.450063	0.236905
C99	C	-1.036331	0.950093	-0.263114
C100	C	-0.536331	1.450093	0.236886
C101	C	-1.036352	0.869534	-0.343557
C102	C	-0.536352	1.369534	0.156443
C103	C	-0.970609	0.869509	-0.343542
C104	C	-0.470609	1.369509	0.156458
C105	C	-0.937731	0.909773	-0.303308
C106	C	-0.437731	1.409773	0.196692
C107	C	-0.139180	0.909785	-0.303318
C108	C	0.360820	1.409785	0.196682
C109	C	-0.069211	0.909827	-0.303338
C110	C	0.430789	1.409827	0.196662
C111	C	-0.303357	0.909737	-0.467459
C112	C	0.196643	1.409737	0.032541
C113	C	-0.303351	0.909759	-0.537427
C114	C	0.196649	1.409759	-0.037427
C115	C	-0.303394	1.073875	-0.303287
C116	C	0.196606	1.573875	0.196713
C117	C	-0.303405	1.143843	-0.303295
C118	C	0.196595	1.643843	0.196705
C119	C	-0.263094	0.950044	-0.570311
C120	C	0.236906	1.450044	-0.070311
C121	C	-0.263066	0.950043	-0.636054
C122	C	0.236934	1.450043	-0.136054
C123	C	-0.303308	0.909764	-0.668910
C124	C	0.196692	1.409764	-0.168910
C125	C	-0.343568	0.869472	-0.636018
C126	C	0.156432	1.369472	-0.136018
C127	C	-0.343589	0.869470	-0.570276
C128	C	0.156411	1.369470	-0.070276
N129	N	-0.358375	0.904908	-0.772125
N130	N	0.141625	1.404908	-0.272125
N131	N	-0.358353	0.904914	-0.834577
N132	N	0.141647	1.404914	-0.334577
C133	C	-0.303244	0.909768	-0.866985
C134	C	0.196756	1.409768	-0.366985
N135	N	-0.248157	0.914629	-0.834582
N136	N	0.251843	1.414629	-0.334582
N137	N	-0.248180	0.914626	-0.772125
N138	N	0.251820	1.414626	-0.272125
C139	C	-0.303288	0.909762	-0.740195
C140	C	0.196712	1.409762	-0.240195
C141	C	-0.262953	0.950054	-0.971154
C142	C	0.237047	1.450054	-0.471154
C143	C	-0.262925	0.950048	-1.036898
C144	C	0.237075	1.450048	-0.536898
C145	C	-0.343432	0.869481	-1.036861
C146	C	0.156568	1.369481	-0.536861
C147	C	-0.343455	0.869483	-0.971118
C148	C	0.156545	1.369483	-0.471118
C149	C	-0.303216	0.909773	-0.938269
C150	C	0.196784	1.409773	-0.438269
C151	C	-0.303338	0.909669	-0.139717
C152	C	0.196662	1.409669	0.360283
C153	C	-0.303166	0.909769	-0.069749
C154	C	0.196834	1.409769	0.430251
H155	H	-0.230453	0.269279	-0.376452
H156	H	0.269547	0.769279	0.123548
H157	H	-0.542977	0.982695	-0.230265
H158	H	-0.042977	1.482695	0.269735
H159	H	-0.230465	0.150016	-0.376460
H160	H	0.269535	0.650016	0.123540
N161	N	-0.384659	0.275968	-0.221766
N162	N	0.115341	0.775968	0.278234
N163	N	-0.384646	0.334665	-0.221766
N164	N	0.115354	0.834665	0.278234
H165	H	-0.413646	0.358361	-0.192675
H166	H	0.086354	0.858361	0.307325
H167	H	-0.376290	0.669997	-0.230092
H168	H	0.123710	1.169997	0.269908
N169	N	-0.669060	0.991075	-0.221944
N170	N	-0.169060	1.491075	0.278056
N171	N	-0.705781	0.968945	-0.181822
N172	N	-0.205781	1.468945	0.318178
H173	H	-0.729492	0.997995	-0.152798
H174	H	-0.229492	1.497995	0.347202
N175	N	-1.069904	0.991236	-0.222031
N176	N	-0.569904	1.491236	0.277969
N177	N	-1.128601	0.991253	-0.222046
N178	N	-0.628601	1.491253	0.277954
H179	H	-1.152313	1.020310	-0.193030
H180	H	-0.652313	1.520310	0.306970
H181	H	-0.376330	0.836675	-0.662773
H182	H	0.123670	1.336675	-0.162773
N183	N	-0.384635	0.543916	-0.221738
N184	N	0.115365	1.043916	0.278262
N185	N	-0.420522	0.573241	-0.185731
N186	N	0.079478	1.073241	0.314269
H187	H	-0.449534	0.549511	-0.156637
H188	H	0.050466	1.049511	0.343363
N189	N	-0.669107	0.828262	-0.384572
N190	N	-0.169107	1.328262	0.115428
N191	N	-0.727804	0.828288	-0.384577
N192	N	-0.227804	1.328288	0.115423
H193	H	-0.751533	0.799245	-0.413598
H194	H	-0.251533	1.299245	0.086402
H195	H	-0.376371	0.836663	-0.543503
H196	H	0.123629	1.336663	-0.043503
N197	N	-0.222094	0.676951	-0.384782
N198	N	0.277906	1.176951	0.115218
N199	N	-0.244294	0.713647	-0.424854
N200	N	0.255706	1.213647	0.075146
H201	H	-0.215294	0.737395	-0.453945
H202	H	0.284706	1.237395	0.046055
N203	N	-0.384686	0.143075	-0.221771
N204	N	0.115314	0.643075	0.278229
N205	N	-0.420575	0.172399	-0.185765
N206	N	0.079425	0.672399	0.314235
H207	H	-0.449586	0.148668	-0.156671
H208	H	0.050414	0.648668	0.343329
N209	N	-0.222101	0.544054	-0.384804
N210	N	0.277899	1.044054	0.115196
N211	N	-0.186219	0.573441	-0.420819
N212	N	0.313781	1.073441	0.079181
H213	H	-0.157229	0.549761	-0.449932
H214	H	0.342771	1.049761	0.050068
H215	H	-0.543017	0.836556	-0.376224
H216	H	-0.043017	1.336556	0.123776
H217	H	-0.943817	0.982850	-0.230336
H218	H	-0.443817	1.482850	0.269664
N219	N	-1.069944	0.828410	-0.384645
N220	N	-0.569944	1.328410	0.115355
N221	N	-1.128641	0.828438	-0.384652
N222	N	-0.628641	1.328438	0.115348
H223	H	-1.152370	0.799395	-0.413673
H224	H	-0.652370	1.299395	0.086327
H225	H	-0.943857	0.836703	-0.376287
H226	H	-0.443857	1.336703	0.123713
H227	H	-0.230185	0.982856	-0.944407
H228	H	0.269815	1.482856	-0.444407
N229	N	-0.221990	0.991202	-0.536768
N230	N	0.278010	1.491202	-0.036768
N231	N	-0.186049	1.027169	-0.566142
N232	N	0.313951	1.527169	-0.066142
H233	H	-0.157018	1.056238	-0.542451
H234	H	0.342982	1.556238	-0.042451
H235	H	-0.230281	0.982846	-0.662833
H236	H	0.269719	1.482846	-0.162833
H237	H	-0.230139	0.982852	-1.063671
H238	H	0.269861	1.482852	-0.563671
H239	H	-0.376191	0.836679	-1.063611
H240	H	0.123809	1.336679	-0.563611
N241	N	-0.384582	0.828330	-0.937534
N242	N	0.115418	1.328330	-0.437534
N243	N	-0.420507	0.792367	-0.966874
N244	N	0.079493	1.292367	-0.466874
H245	H	-0.449554	0.763299	-0.943156
H246	H	0.050446	1.263299	-0.443156
