data_functionalizedCrystal
_audit_creation_method	'MofGen! by Chris Wilmer'
_symmetry_space_group_name_H-M	'P1'
_symmetry_Int_Tables_number	1
_symmetry_cell_setting	triclinic
loop_
_symmetry_equiv_pos_as_xyz
  x,y,z
_cell_length_a	19.121102
_cell_length_b	19.121411
_cell_length_c	19.121510
_cell_angle_alpha	90.220995
_cell_angle_beta	85.140415
_cell_angle_gamma	94.959226
loop_
_atom_site_label
_atom_site_type_symbol
_atom_site_fract_x
_atom_site_fract_y
_atom_site_fract_z
Zn1	Zn	1.107224	0.344565	-0.429609
Zn2	Zn	1.607224	0.844565	0.070391
Zn3	Zn	1.106573	0.456970	-0.307351
Zn4	Zn	1.606573	0.956970	0.192649
Zn5	Zn	0.983982	0.334302	-0.307364
Zn6	Zn	1.483982	0.834302	0.192636
Zn7	Zn	0.994099	0.456749	-0.419974
Zn8	Zn	1.494099	0.956749	0.080026
O9	O	1.047970	0.398147	-0.366074
O10	O	1.547970	0.898147	0.133926
O11	O	1.205785	0.363864	-0.417418
O12	O	1.705785	0.863864	0.082582
O13	O	1.085805	0.436496	-0.209059
O14	O	1.585805	0.936496	0.290941
O15	O	0.996369	0.237377	-0.327618
O16	O	1.496369	0.737377	0.172382
O17	O	1.205307	0.446448	-0.327595
O18	O	1.705307	0.946448	0.172405
O19	O	1.086914	0.244918	-0.417431
O20	O	1.586914	0.744918	0.082569
O21	O	0.995738	0.346372	-0.209069
O22	O	1.495738	0.846372	0.290931
O23	O	0.886677	0.346157	-0.318275
O24	O	1.386677	0.846157	0.181725
O25	O	1.013611	0.446070	-0.519545
O26	O	1.513611	0.946070	-0.019545
O27	O	0.894109	0.436118	-0.401009
O28	O	1.394109	0.936118	0.098991
O29	O	1.096724	0.363649	-0.526625
O30	O	1.596724	0.863649	-0.026625
O31	O	1.095615	0.555227	-0.318252
O32	O	1.595615	1.055227	0.181748
O33	O	1.012981	0.555065	-0.400996
O34	O	1.512981	1.055065	0.099004
C35	C	0.864815	0.390000	-0.358598
C36	C	1.364815	0.890000	0.141402
C37	C	0.786462	0.386533	-0.355416
C38	C	1.286462	0.886533	0.144584
C39	C	1.055345	0.580632	-0.358593
C40	C	1.555345	1.080632	0.141407
C41	C	1.058565	0.658704	-0.355419
C42	C	1.558565	1.158704	0.144581
C43	C	1.056369	0.405980	-0.549284
C44	C	1.556369	0.905980	-0.049284
C45	C	1.059948	0.409318	-0.627357
C46	C	1.559948	0.909318	-0.127357
C47	C	0.753539	0.431807	-0.396923
C48	C	1.253539	0.931807	0.103077
C49	C	0.679918	0.428540	-0.393936
C50	C	1.179918	0.928540	0.106064
C51	C	0.639221	0.380002	-0.349439
C52	C	1.139221	0.880002	0.150561
C53	C	0.672148	0.334723	-0.307930
C54	C	1.172148	0.834723	0.192070
C55	C	0.745768	0.337987	-0.310921
C56	C	1.245768	0.837987	0.189079
C57	C	0.416742	0.367796	-0.338261
C58	C	0.916742	0.867796	0.161739
C59	C	0.343117	0.364537	-0.335272
C60	C	0.843117	0.864537	0.164728
C61	C	0.350892	0.458353	-0.421279
C62	C	0.850892	0.958353	0.078721
C63	C	0.424513	0.461616	-0.424263
C64	C	0.924513	0.961616	0.075737
C65	C	0.457434	0.416335	-0.382757
C66	C	0.957434	0.916335	0.117243
C67	C	0.563968	0.376663	-0.346383
C68	C	1.063968	0.876663	0.153617
C69	C	0.532685	0.419671	-0.385817
C70	C	1.032685	0.919671	0.114183
C71	C	1.231840	0.406325	-0.373580
C72	C	1.731840	0.906325	0.126420
C73	C	1.310194	0.409811	-0.376779
C74	C	1.810194	0.909811	0.123221
C75	C	1.078955	1.100266	-0.335289
C76	C	1.578955	1.600266	0.164711
C77	C	1.075922	1.026909	-0.338273
C78	C	1.575922	1.526909	0.161727
C79	C	1.031350	0.990171	-0.382809
C80	C	1.531350	1.490171	0.117191
C81	C	0.989801	1.026793	-0.424359
C82	C	1.489801	1.526793	0.075641
C83	C	0.992830	1.100148	-0.421371
C84	C	1.492830	1.600148	0.078629
C85	C	1.020046	0.768681	-0.393981
C86	C	1.520046	1.268681	0.106019
C87	C	1.017022	0.695321	-0.396968
C88	C	1.517022	1.195321	0.103032
C89	C	1.103142	0.695442	-0.310879
C90	C	1.603142	1.195442	0.189121
C91	C	1.106171	0.768799	-0.307898
C92	C	1.606171	1.268799	0.192102
C93	C	1.064620	0.805415	-0.349446
C94	C	1.564620	1.305415	0.150554
C95	C	1.028251	0.915188	-0.385862
C96	C	1.528251	1.415188	0.114138
C97	C	1.067715	0.880396	-0.346389
C98	C	1.567715	1.380396	0.153611
C99	C	1.040579	1.214950	-0.373608
C100	C	1.540579	1.714950	0.126392
C101	C	1.037411	1.136883	-0.376837
C102	C	1.537411	1.636883	0.123163
C103	C	1.039642	0.390295	-0.183581
C104	C	1.539642	0.890295	0.316419
C105	C	1.036191	0.386766	-0.105522
C106	C	1.536191	0.886766	0.394478
C107	C	1.014360	0.364378	0.335957
C108	C	1.514360	0.864378	0.835957
C109	C	1.017592	0.367712	0.262613
C110	C	1.517592	0.867712	0.762613
C111	C	1.066416	0.415984	0.225957
C112	C	1.566416	0.915984	0.725957
C113	C	1.112006	0.460929	0.262649
C114	C	1.612006	0.960929	0.762649
C115	C	1.108770	0.457597	0.335991
C116	C	1.608770	0.957597	0.835991
C117	C	1.078545	0.428379	0.004512
C118	C	1.578545	0.928379	0.504512
C119	C	1.081779	0.431706	-0.068836
C120	C	1.581779	0.931706	0.431164
C121	C	0.987364	0.338490	-0.068866
C122	C	1.487364	0.838490	0.431134
C123	C	0.984135	0.335159	0.004477
C124	C	1.484135	0.835159	0.504477
C125	C	1.029723	0.380106	0.041162
C126	C	1.529723	0.880106	0.541162
C127	C	1.069722	0.419392	0.150988
C128	C	1.569722	0.919392	0.650988
C129	C	1.026412	0.376701	0.116130
C130	C	1.526412	0.876701	0.616130
H131	H	0.786670	0.471334	-0.433155
H132	H	1.286670	0.971334	0.066845
H133	H	1.151756	0.500236	0.232798
H134	H	1.651756	1.000236	0.732798
Cl135	Cl	0.291955	0.303518	-0.279323
Cl136	Cl	0.791955	0.803518	0.220677
H137	H	0.959005	1.129961	-0.455209
H138	H	1.459005	1.629961	0.044791
H139	H	0.944376	0.295853	0.034318
H140	H	1.444376	0.795853	0.534318
H141	H	1.136970	0.665623	-0.277052
H142	H	1.636970	1.165623	0.222948
Cl143	Cl	0.952981	0.303686	0.382031
Cl144	Cl	1.452981	0.803686	0.882031
H145	H	1.115658	0.464985	0.034373
H146	H	1.615658	0.964985	0.534373
Cl147	Cl	1.166080	0.514099	0.382112
Cl148	Cl	1.666080	1.014099	0.882112
Cl149	Cl	0.930056	0.281991	-0.114989
Cl150	Cl	1.430056	0.781991	0.385011
Cl151	Cl	0.458119	0.310869	-0.286084
Cl152	Cl	0.958119	0.810869	0.213916
Cl153	Cl	0.965038	0.316017	0.162213
Cl154	Cl	1.465038	0.816017	0.662213
Cl155	Cl	1.123746	0.926582	-0.290401
Cl156	Cl	1.623746	1.426582	0.209599
Cl157	Cl	1.162210	0.814979	-0.251910
Cl158	Cl	1.662210	1.314979	0.248090
H159	H	0.991960	0.885270	-0.422126
H160	H	1.491960	1.385270	0.077874
Cl161	Cl	0.933767	0.980607	-0.480349
Cl162	Cl	1.433767	1.480607	0.019651
H163	H	1.109474	0.458696	0.121135
H164	H	1.609474	0.958696	0.621135
Cl165	Cl	0.638533	0.485458	-0.446119
Cl166	Cl	1.138533	0.985458	0.053881
H167	H	0.457644	0.501142	-0.460495
H168	H	0.957644	1.001142	0.039505
H169	H	0.324079	0.495217	-0.455072
H170	H	0.824079	0.995217	0.044928
H171	H	0.639007	0.295200	-0.271703
H172	H	1.139007	0.795200	0.228297
Cl173	Cl	0.960247	0.311245	0.216499
Cl174	Cl	1.460247	0.811245	0.716499
Cl175	Cl	0.787157	0.281068	-0.258741
Cl176	Cl	1.287157	0.781068	0.241259
H177	H	0.565824	0.459187	-0.422049
H178	H	1.065824	0.959187	0.077951
H179	H	1.121540	0.471015	-0.098679
H180	H	1.621540	0.971015	0.401321
H181	H	0.530824	0.337144	-0.310152
H182	H	1.030824	0.837144	0.189848
Cl183	Cl	1.134995	1.146444	-0.279300
Cl184	Cl	1.634995	1.646444	0.220700
H185	H	0.980724	0.665412	-0.433237
H186	H	1.480724	1.165412	0.066763
Cl187	Cl	1.128159	0.980880	-0.286045
Cl188	Cl	1.628159	1.480880	0.213955
Cl189	Cl	0.967823	0.814704	-0.446225
Cl190	Cl	1.467823	1.314704	0.053775
