data_functionalizedCrystal
_audit_creation_method	'MofGen! by Chris Wilmer'
_symmetry_space_group_name_H-M	'P1'
_symmetry_Int_Tables_number	1
_symmetry_cell_setting	triclinic
loop_
_symmetry_equiv_pos_as_xyz
  x,y,z
_cell_length_a	15.995363
_cell_length_b	15.995350
_cell_length_c	15.072220
_cell_angle_alpha	90.000423
_cell_angle_beta	89.999228
_cell_angle_gamma	83.494885
loop_
_atom_site_label
_atom_site_type_symbol
_atom_site_fract_x
_atom_site_fract_y
_atom_site_fract_z
O1	O	-1.110977	-0.107973	-0.073713
O2	O	-0.867203	-0.121290	-0.073729
O3	O	-0.995754	0.007256	-0.073720
O4	O	-0.982426	-0.236519	-0.073722
O5	O	-0.995747	0.007255	0.073845
O6	O	-0.867197	-0.121291	0.073836
O7	O	-1.110970	-0.107974	0.073852
Zn8	Zn	-0.989082	-0.114632	0.097273
Zn9	Zn	-0.989091	-0.114632	-0.097150
O10	O	-0.982420	-0.236520	0.073843
C11	C	-0.836005	-0.120738	0.000052
C12	C	-0.743055	-0.119082	0.000046
C13	C	-0.995199	0.038450	0.000061
C14	C	-0.993548	0.131401	0.000056
C15	C	-0.405310	-0.113135	0.000068
C16	C	-0.452744	-0.021585	0.000397
C17	C	-0.549433	-0.023242	0.000058
C18	C	-0.572869	-0.116085	0.000057
C19	C	-0.531786	-0.161239	-0.084206
C20	C	-0.435151	-0.158935	-0.084270
C21	C	-0.434805	-0.160827	0.083539
C22	C	-0.531750	-0.160810	0.084646
C23	C	-0.667566	-0.117757	0.000049
C24	C	-0.310612	-0.111466	0.000070
C25	C	-0.142170	-0.108515	0.000072
C26	C	-0.235124	-0.110138	0.000079
N27	N	-0.989097	-0.114625	-0.229839
C28	C	-0.982974	-0.267714	0.000060
C29	C	-0.984626	-0.360665	0.000059
C30	C	-0.987615	0.469148	0.000059
C31	C	-0.896064	0.421718	-0.000278
C32	C	-0.897716	0.325028	0.000055
C33	C	-0.990558	0.301588	0.000057
C34	C	-1.035711	0.342663	0.084325
C35	C	-1.033411	0.439299	0.084395
C36	C	-1.035309	0.439657	-0.083414
C37	C	-1.035288	0.342712	-0.084527
C38	C	-0.992226	0.206890	0.000059
C39	C	-0.985950	0.563846	0.000063
C40	C	-0.989088	-0.114630	-0.589040
C41	C	-1.057796	-0.045777	-0.551401
C42	C	-1.058043	-0.045953	-0.448575
C43	C	-0.989092	-0.114627	-0.410836
C44	C	-1.007948	-0.202060	-0.448163
C45	C	-1.008438	-0.201658	-0.551021
C46	C	-0.901318	-0.096835	-0.551138
C47	C	-0.901906	-0.094848	-0.448273
C48	C	-0.989093	-0.114631	-0.310123
C49	C	-0.989088	-0.114633	-0.689754
N50	N	-0.989083	-0.114632	0.229962
H51	H	-0.577859	0.012252	0.060461
H52	H	-1.005380	0.460199	-0.147284
C53	C	-0.407067	-0.120386	0.169826
N54	N	-0.386177	-0.089915	0.234813
H55	H	-0.403043	-0.228326	0.084110
C56	C	-0.829617	-0.158197	-0.413592
N57	N	-0.775172	-0.205924	-0.387478
H58	H	-0.545911	-0.229449	-0.087340
H59	H	-0.577294	0.012493	-0.060451
C60	C	-1.145303	-0.060961	-0.586290
N61	N	-1.211213	-0.072404	-0.612562
H62	H	-0.416845	-0.126004	-0.147259
H63	H	-0.560163	-0.129877	-0.146917
C64	C	-0.849759	0.286631	-0.081548
N65	N	-0.813632	0.257713	-0.143012
H66	H	-1.002275	0.315465	-0.146866
H67	H	-0.433153	0.014843	-0.059698
C68	C	-0.427709	0.027856	0.082032
N69	N	-0.408846	0.065097	0.143522
C70	C	-1.126497	0.482566	-0.084181
N71	N	-1.195176	0.514889	-0.084753
C72	C	-0.391583	-0.249736	-0.089454
N73	N	-0.358772	-0.318126	-0.093369
C74	C	-1.124214	0.482862	0.089577
N75	N	-1.192605	0.515671	0.093485
C76	C	-0.993333	0.304330	0.169042
N77	N	-0.961408	0.275459	0.232850
C78	C	-1.146082	-0.061195	-0.415321
N79	N	-1.212412	-0.072624	-0.390275
H80	H	-0.959224	-0.254537	-0.423719
C81	C	-0.846854	0.448164	0.080918
N82	N	-0.809794	0.468076	0.142084
C83	C	-1.094906	-0.222791	-0.583426
N84	N	-1.160037	-0.238706	-0.607828
C85	C	-1.042921	0.042309	-0.584817
N86	N	-1.031715	0.108658	-0.609991
H87	H	-0.960151	-0.254324	-0.575921
H88	H	-1.102992	0.327347	-0.089613
C89	C	-1.042906	0.041836	-0.414478
N90	N	-1.031503	0.107963	-0.388801
H91	H	-0.850190	-0.147044	-0.575480
C92	C	-0.568617	-0.116254	0.168863
N93	N	-0.596384	-0.082687	0.232294
H94	H	-0.859474	0.440252	-0.060709
H95	H	-0.883144	-0.034433	-0.577084
C96	C	-0.552520	-0.252272	0.091533
N97	N	-0.568170	-0.321162	0.096718
H98	H	-1.071218	-0.218085	-0.422397
C99	C	-0.849440	0.287383	0.081798
N100	N	-0.813077	0.259029	0.143371
H101	H	-1.000480	0.457601	0.147386
C102	C	-1.127852	0.323559	0.088576
N103	N	-1.197251	0.309163	0.091779
C104	C	-0.882561	-0.007961	-0.415304
N105	N	-0.867990	0.057481	-0.390462
