data_functionalizedCrystal
_audit_creation_method	'MofGen! by Chris Wilmer'
_symmetry_space_group_name_H-M	'P1'
_symmetry_Int_Tables_number	1
_symmetry_cell_setting	triclinic
loop_
_symmetry_equiv_pos_as_xyz
  x,y,z
_cell_length_a	14.044220
_cell_length_b	14.971486
_cell_length_c	14.048226
_cell_angle_alpha	90.006640
_cell_angle_beta	90.001356
_cell_angle_gamma	88.401503
loop_
_atom_site_label
_atom_site_type_symbol
_atom_site_fract_x
_atom_site_fract_y
_atom_site_fract_z
O1	O	-1.257954	-0.215664	-0.079060
O2	O	-0.981976	-0.207881	-0.079084
O3	O	-1.127361	-0.082155	-0.079065
O4	O	-1.112568	-0.341390	-0.079080
O5	O	-1.127344	-0.082146	0.079256
O6	O	-0.981958	-0.207872	0.079237
O7	O	-1.257936	-0.215654	0.079261
Zn8	Zn	-1.119944	-0.211762	0.104386
Zn9	Zn	-1.119967	-0.211774	-0.104209
O10	O	-1.112550	-0.341380	0.079241
C11	C	-0.946648	-0.204470	0.000073
C12	C	-0.841411	-0.194309	0.000064
C13	C	-1.126691	-0.048774	0.000095
C14	C	-1.124708	0.050680	0.000094
C15	C	-1.293263	-0.219065	0.000101
C16	C	-1.398500	-0.229227	0.000104
C17	C	-0.648729	-0.175732	0.000084
C18	C	-0.591177	-0.247799	0.000084
C19	C	-0.483962	-0.237463	0.000095
C20	C	-0.755954	-0.186067	0.000073
C21	C	-1.113220	-0.374762	0.000079
C22	C	-1.115203	-0.474215	0.000074
N23	N	-1.119935	-0.211753	0.246746
C24	C	-1.210119	0.101176	0.000102
C25	C	-1.208250	0.194623	0.000093
C26	C	-1.120970	0.237571	0.000082
C27	C	-1.035554	0.187067	0.000071
C28	C	-1.037423	0.093623	0.000074
C29	C	-1.031663	0.381836	0.000067
C30	C	-1.029793	0.475288	0.000066
C31	C	-1.202490	0.482837	0.000086
C32	C	-1.204360	0.389392	0.000089
C33	C	-1.118942	0.338895	0.000080
N34	N	-1.119984	-0.211776	-0.246570
C35	C	-1.184333	-0.156108	0.296573
C36	C	-1.184339	-0.156108	0.396231
C37	C	-1.119952	-0.211758	0.446060
C38	C	-1.055548	-0.267406	0.396226
C39	C	-1.055538	-0.267400	0.296570
C40	C	-1.055575	-0.267414	0.603941
C41	C	-1.055587	-0.267421	0.703603
C42	C	-1.184377	-0.156122	0.703601
C43	C	-1.184366	-0.156117	0.603945
C44	C	-1.119963	-0.211766	0.554118
H45	H	-0.617481	-0.106277	0.000093
C46	C	-0.984701	-0.328613	0.241758
C47	C	-0.913909	-0.389861	0.296565
C48	C	-0.843067	-0.451072	0.241754
C49	C	-0.843016	-0.451035	0.132137
C50	C	-0.913811	-0.389784	0.077324
C51	C	-0.984653	-0.328573	0.132134
H52	H	-0.913944	-0.389891	0.377716
H53	H	-0.790660	-0.496414	0.282331
H54	H	-0.790574	-0.496347	0.091562
H55	H	-0.913776	-0.389754	-0.003827
H56	H	-1.037060	-0.283231	0.091558
H57	H	-0.622427	-0.317261	0.000075
C58	C	-1.255217	-0.094905	0.758409
C59	C	-1.253526	0.007090	0.744722
C60	C	-1.324366	0.068301	0.799536
C61	C	-1.396898	0.027517	0.868036
C62	C	-1.398592	-0.074483	0.881725
C63	C	-1.327751	-0.135694	0.826912
H64	H	-1.199831	0.037286	0.694012
H65	H	-1.323112	0.143808	0.789402
H66	H	-1.449338	0.072828	0.908613
H67	H	-1.452286	-0.104679	0.932436
H68	H	-1.329006	-0.211201	0.837046
H69	H	-1.275430	0.354427	0.000105
H70	H	-1.272040	0.523957	0.000090
H71	H	-1.281192	0.066215	0.000117
H72	H	-0.958722	0.510253	0.000072
C73	C	-0.984753	-0.328631	0.758413
C74	C	-0.912237	-0.287849	0.826944
C75	C	-0.841401	-0.349060	0.881751
C76	C	-0.843081	-0.451054	0.868027
C77	C	-0.915600	-0.491841	0.799493
C78	C	-0.986436	-0.430630	0.744685
H79	H	-0.910991	-0.212342	0.837106
H80	H	-0.787718	-0.318866	0.932485
H81	H	-0.790645	-0.496366	0.908599
H82	H	-0.916847	-0.567348	0.789330
H83	H	-1.040119	-0.460825	0.693952
C84	C	-1.302206	0.250166	0.000105
C85	C	-1.373682	0.240444	0.082329
C86	C	-1.467644	0.295985	0.082339
C87	C	-1.490129	0.361248	0.000124
C88	C	-1.418650	0.370972	-0.082107
C89	C	-1.324689	0.315431	-0.082117
H90	H	-1.357039	0.192131	0.143195
H91	H	-1.520556	0.288786	0.143212
H92	H	-1.559684	0.402362	0.000131
H93	H	-1.435293	0.419286	-0.142973
H94	H	-1.271776	0.322630	-0.142990
H95	H	-0.962107	0.340724	0.000057
H96	H	-0.964489	0.222043	0.000056
H97	H	-0.967873	0.052509	0.000067
H98	H	-1.236775	-0.110797	0.436799
C99	C	-1.255161	-0.094891	0.241766
C100	C	-1.325992	-0.033678	0.296580
C101	C	-1.396820	0.027544	0.241777
C102	C	-1.396817	0.027554	0.132159
C103	C	-1.325983	-0.033661	0.077339
C104	C	-1.255155	-0.094883	0.132143
H105	H	-1.325996	-0.033684	0.377731
H106	H	-1.449256	0.072859	0.282359
H107	H	-1.449248	0.072874	0.091591
H108	H	-1.325979	-0.033655	-0.003812
H109	H	-1.202720	-0.140198	0.091560
H110	H	-1.236799	-0.110807	0.563374
H111	H	-1.003128	-0.312726	0.563375
H112	H	-1.003118	-0.312714	0.436803
