data_functionalizedCrystal
_audit_creation_method	'MofGen! by Chris Wilmer'
_symmetry_space_group_name_H-M	'P1'
_symmetry_Int_Tables_number	1
_symmetry_cell_setting	triclinic
loop_
_symmetry_equiv_pos_as_xyz
  x,y,z
_cell_length_a	10.540539
_cell_length_b	26.210047
_cell_length_c	10.540539
_cell_angle_alpha	89.993305
_cell_angle_beta	84.525492
_cell_angle_gamma	90.007062
loop_
_atom_site_label
_atom_site_type_symbol
_atom_site_fract_x
_atom_site_fract_y
_atom_site_fract_z
O1	O	1.685898	0.042402	0.178882
O2	O	1.316484	0.042408	0.195738
O3	O	1.509619	0.042405	0.002604
O4	O	1.492763	0.042406	0.372017
O5	O	1.509582	-0.042453	0.002634
O6	O	1.316447	-0.042450	0.195768
O7	O	1.685860	-0.042456	0.178912
Cu8	Cu	1.501150	-0.050201	0.187343
Cu9	Cu	1.501194	0.050154	0.187308
O10	O	1.492726	-0.042452	0.372047
C11	C	1.269163	-0.000020	0.194489
C12	C	1.128215	-0.000017	0.190707
N13	N	1.501128	-0.120785	0.187367
C14	C	0.944788	-0.000216	0.045790
C15	C	1.091406	-0.000020	0.049624
C16	C	1.066563	0.048439	0.258585
C17	C	0.920019	0.048474	0.253770
C18	C	0.919488	-0.048025	0.256675
C19	C	1.066470	-0.048660	0.257974
C20	C	1.586706	-0.473301	0.101807
C21	C	1.586733	-0.686959	0.101790
O22	O	1.659446	-0.714583	0.029048
N23	N	1.501201	-0.713679	0.187280
C24	C	1.415650	-0.686980	0.272775
O25	O	1.342891	-0.714610	0.345480
C26	C	1.415617	-0.473323	0.272785
C27	C	1.501164	-0.446606	0.187298
C28	C	1.672245	-0.446584	0.016326
C29	C	1.672242	-0.393172	0.016336
C30	C	1.586699	-0.366478	0.101827
C31	C	1.501160	-0.393195	0.187308
C32	C	1.330060	-0.446625	0.358273
C33	C	1.330057	-0.393208	0.358265
C34	C	1.415604	-0.366491	0.272778
C35	C	1.415615	-0.313089	0.272808
N36	N	1.501148	-0.286369	0.187318
C37	C	1.586690	-0.313064	0.101828
C38	C	1.415675	-0.799154	0.272765
C39	C	1.415684	-0.852568	0.272764
C40	C	1.586767	-0.852543	0.101777
C41	C	1.586762	-0.799128	0.101785
C42	C	1.501207	-0.772434	0.187275
C43	C	1.586678	-0.200896	0.101855
C44	C	1.586670	-0.147479	0.101877
C45	C	1.415584	-0.147509	0.272858
C46	C	1.415595	-0.200921	0.272842
C47	C	1.501147	-0.227613	0.187330
O48	O	1.342932	-0.285432	0.345502
O49	O	1.659419	-0.285425	0.029114
C50	C	1.586709	-0.526712	0.101797
C51	C	1.501170	-0.553429	0.187278
C52	C	1.415628	-0.526734	0.272769
C53	C	1.501179	-0.606843	0.187277
C54	C	1.586721	-0.633538	0.101787
C55	C	1.672254	-0.606818	0.016296
C56	C	1.672251	-0.553407	0.016306
C57	C	1.330095	-0.553454	0.358259
C58	C	1.330106	-0.606865	0.358243
C59	C	1.415648	-0.633560	0.272752
C60	C	1.733182	-0.000026	0.180161
C61	C	1.874130	-0.000025	0.183943
C62	C	1.508336	-0.000024	-0.044684
C63	C	1.504554	-0.000021	-0.185632
N64	N	1.501226	0.120737	0.187273
C65	C	1.359637	0.000172	-0.369059
C66	C	1.363471	-0.000019	-0.222441
C67	C	1.572429	-0.048480	-0.247273
C68	C	1.567614	-0.048521	-0.393817
C69	C	1.570525	0.047979	-0.394370
C70	C	1.571825	0.048619	-0.247388
C71	C	1.494008	-0.000023	0.419335
C72	C	1.497790	-0.000022	0.560283
H73	H	1.134005	-0.034755	-0.003786
H74	H	1.345940	-0.125766	0.342468
H75	H	1.107416	-0.084508	0.208387
H76	H	1.741911	-0.628561	-0.053310
H77	H	0.887926	-0.084755	0.211030
H78	H	0.891825	0.084696	0.203577
H79	H	1.656338	-0.125728	0.032263
H80	H	1.522162	0.084468	-0.206542
H81	H	1.260384	-0.371476	0.427880
H82	H	1.260435	-0.531723	0.427875
H83	H	1.674687	0.051544	-0.223168
H84	H	1.346037	-0.874317	0.342389
H85	H	0.916187	-0.034967	-0.009933
H86	H	1.741911	-0.531658	-0.053305
H87	H	0.872051	0.050674	0.355235
H88	H	1.524880	0.084708	-0.425936
H89	H	1.260400	-0.468371	0.427883
H90	H	1.310062	0.034719	-0.179850
H91	H	1.304117	-0.034382	-0.399254
H92	H	1.345947	-0.222674	0.342466
H93	H	1.309657	-0.034813	-0.180673
H94	H	0.872261	-0.048352	0.358578
H95	H	1.133167	0.034776	-0.004188
H96	H	1.303921	0.034923	-0.397672
H97	H	1.672429	0.048303	-0.441596
H98	H	1.088917	0.050242	0.362193
H99	H	0.914596	0.034341	-0.009722
H100	H	1.109168	0.084501	0.211408
H101	H	1.741897	-0.371422	-0.053278
H102	H	1.517420	-0.084743	-0.422004
H103	H	1.741903	-0.468314	-0.053297
H104	H	1.669078	-0.050721	-0.441785
H105	H	1.090695	-0.051586	0.360834
H106	H	1.676035	-0.050283	-0.224918
H107	H	1.656340	-0.222622	0.032222
H108	H	1.656421	-0.874287	0.032169
H109	H	1.656421	-0.777378	0.032174
H110	H	1.346003	-0.777423	0.342384
H111	H	1.260446	-0.628615	0.427868
H112	H	1.525249	-0.084540	-0.204660
