data_functionalizedCrystal
_audit_creation_method	'MofGen! by Chris Wilmer'
_symmetry_space_group_name_H-M	'P1'
_symmetry_Int_Tables_number	1
_symmetry_cell_setting	triclinic
loop_
_symmetry_equiv_pos_as_xyz
  x,y,z
_cell_length_a	18.101395
_cell_length_b	12.759395
_cell_length_c	12.759387
_cell_angle_alpha	90.020674
_cell_angle_beta	89.967189
_cell_angle_gamma	89.971419
loop_
_atom_site_label
_atom_site_type_symbol
_atom_site_fract_x
_atom_site_fract_y
_atom_site_fract_z
Zn1	Zn	-0.294840	-1.606149	-0.593995
Zn2	Zn	0.205160	-1.106149	-0.093995
Zn3	Zn	-0.418701	-1.605989	-0.418309
Zn4	Zn	0.081299	-1.105989	0.081691
Zn5	Zn	-0.294872	-1.430447	-0.418331
Zn6	Zn	0.205128	-0.930447	0.081669
Zn7	Zn	-0.418639	-1.430389	-0.593948
Zn8	Zn	0.081361	-0.930389	-0.093948
O9	O	-0.356763	-1.518244	-0.506146
O10	O	0.143237	-1.018244	-0.006146
O11	O	-0.311283	-1.753149	-0.570700
O12	O	0.188717	-1.253149	-0.070700
O13	O	-0.402313	-1.582661	-0.271291
O14	O	0.097687	-1.082661	0.228709
O15	O	-0.191235	-1.453845	-0.441662
O16	O	0.308765	-0.953845	0.058338
O17	O	-0.402283	-1.753031	-0.441625
O18	O	0.097717	-1.253031	0.058375
O19	O	-0.191212	-1.582933	-0.570722
O20	O	0.308788	-1.082933	-0.070722
O21	O	-0.311337	-1.453691	-0.271307
O22	O	0.188663	-0.953691	0.228693
O23	O	-0.311278	-1.283418	-0.441617
O24	O	0.188722	-0.783418	0.058383
O25	O	-0.402178	-1.453747	-0.740975
O26	O	0.097822	-0.953747	-0.240975
O27	O	-0.402209	-1.283376	-0.570641
O28	O	0.097791	-0.783376	-0.070641
O29	O	-0.311224	-1.582877	-0.741010
O30	O	0.188776	-1.082877	-0.241010
O31	O	-0.522325	-1.582604	-0.441579
O32	O	-0.022325	-1.082604	0.058421
O33	O	-0.522280	-1.453592	-0.570620
O34	O	-0.022280	-0.953592	-0.070620
C35	C	-0.356740	-1.245276	-0.506127
C36	C	0.143260	-0.745276	-0.006127
C37	C	-0.356749	-1.128499	-0.506144
C38	C	0.143251	-0.628499	-0.006144
C39	C	-0.262144	-1.128602	-0.640767
C40	C	0.237856	-0.628602	-0.140767
C41	C	-0.214849	-1.073793	-0.708086
C42	C	0.285151	-0.573793	-0.208086
C43	C	-0.214859	-0.964071	-0.708097
C44	C	0.285141	-0.464071	-0.208097
C45	C	-0.262167	-0.909156	-0.640779
C46	C	0.237833	-0.409156	-0.140779
C47	C	-0.309462	-0.963966	-0.573460
C48	C	0.190538	-0.463966	-0.073460
C49	C	-0.309449	-1.073690	-0.573459
C50	C	0.190551	-0.573690	-0.073459
C51	C	-0.404062	-0.963863	-0.438833
C52	C	0.095938	-0.463863	0.061167
C53	C	-0.404057	-1.073585	-0.438826
C54	C	0.095943	-0.573585	0.061174
C55	C	-0.451371	-0.908948	-0.371515
C56	C	0.048629	-0.408948	0.128485
C57	C	-0.498670	-0.963758	-0.304200
C58	C	0.001330	-0.463758	0.195800
C59	C	-0.498659	-1.073486	-0.304193
C60	C	0.001341	-0.573486	0.195807
C61	C	-0.451352	-1.128394	-0.371507
C62	C	0.048648	-0.628394	0.128493
C63	C	-0.549174	-1.518103	-0.506115
C64	C	-0.049174	-1.018103	-0.006115
C65	C	-0.631488	-1.518139	-0.506137
C66	C	-0.131488	-1.018139	-0.006137
C67	C	-0.930579	-1.518370	-0.506193
C68	C	-0.430579	-1.018370	-0.006193
C69	C	-0.899256	-1.437387	-0.587584
C70	C	-0.399256	-0.937387	-0.087584
C71	C	-0.813638	-1.437002	-0.587329
C72	C	-0.313638	-0.937002	-0.087329
C73	C	-0.782196	-1.518255	-0.506166
C74	C	-0.282196	-1.018255	-0.006166
C75	C	-0.813354	-1.488272	-0.395441
C76	C	-0.313354	-0.988272	0.104559
C77	C	-0.898999	-1.487750	-0.395928
C78	C	-0.398999	-0.987750	0.104072
C79	C	-0.898924	-1.629513	-0.534554
C80	C	-0.398924	-1.129513	-0.034554
C81	C	-0.813273	-1.628859	-0.536982
C82	C	-0.313273	-1.128859	-0.036982
C83	C	-0.698337	-1.518192	-0.506144
C84	C	-0.198337	-1.018192	-0.006144
C85	C	-1.014438	-1.518430	-0.506208
C86	C	-0.514438	-1.018430	-0.006208
C87	C	-0.163601	-1.518413	-0.506200
C88	C	0.336399	-1.018413	-0.006200
C89	C	-0.081287	-1.518486	-0.506223
C90	C	0.418713	-1.018486	-0.006223
C91	C	-0.356690	-1.518323	-0.780179
C92	C	0.143310	-1.018323	-0.280179
C93	C	-0.356660	-1.518357	-0.896956
C94	C	0.143340	-1.018357	-0.396956
C95	C	-0.356779	-0.792277	-0.506160
C96	C	0.143221	-0.292277	-0.006160
C97	C	-0.356767	-0.909054	-0.506152
C98	C	0.143233	-0.409054	-0.006152
C99	C	-0.261955	-1.652829	-0.897012
C100	C	0.238045	-1.152829	-0.397012
C101	C	-0.214592	-1.720080	-0.951901
C102	C	0.285408	-1.220080	-0.451901
C103	C	-0.214565	-1.720105	-1.061622
C104	C	0.285435	-1.220105	-0.561622
C105	C	-0.261905	-1.652871	-1.116458
C106	C	0.238095	-1.152871	-0.616458
C107	C	-0.309268	-1.585620	-1.061569
C108	C	0.190732	-1.085620	-0.561569
C109	C	-0.309291	-1.585604	-0.951845
C110	C	0.190709	-1.085604	-0.451845
C111	C	-0.403968	-1.451144	-1.061513
C112	C	0.096032	-0.951144	-0.561513
C113	C	-0.404000	-1.451122	-0.951792
C114	C	0.096000	-0.951122	-0.451792
C115	C	-0.451308	-1.383909	-1.116349
C116	C	0.048692	-0.883909	-0.616349
C117	C	-0.498676	-1.316662	-1.061460
C118	C	0.001324	-0.816662	-0.561460
C119	C	-0.498701	-1.316640	-0.951732
C120	C	0.001299	-0.816640	-0.451732
C121	C	-0.451363	-1.383871	-0.896903
C122	C	0.048637	-0.883871	-0.396903
C123	C	-0.356782	-1.518225	-0.233178
C124	C	0.143218	-1.018225	0.266822
C125	C	-0.356604	-1.518395	-0.116402
C126	C	0.143396	-1.018395	0.383598
H127	H	-0.262128	-1.217943	-0.640761
H128	H	0.237872	-0.717943	-0.140761
H129	H	-0.919180	-1.689848	-0.475274
H130	H	-0.419180	-1.189848	0.024726
H131	H	-0.451373	-0.819607	-0.371526
H132	H	0.048627	-0.319607	0.128474
H133	H	-0.176047	-1.774819	-0.907242
H134	H	0.323953	-1.274819	-0.407242
H135	H	-0.537212	-1.261920	-1.106116
H136	H	-0.037212	-0.761920	-0.606116
H137	H	-0.920841	-1.355506	-0.569035
H138	H	-0.420841	-0.855506	-0.069035
H139	H	-0.537263	-1.261865	-0.907048
H140	H	-0.037263	-0.761865	-0.407048
H141	H	-0.537182	-0.919037	-0.249391
H142	H	-0.037182	-0.419037	0.250609
H143	H	-0.537170	-1.118105	-0.249370
H144	H	-0.037170	-0.618105	0.250630
H145	H	-0.451382	-1.383865	-0.807562
H146	H	0.048618	-0.883865	-0.307562
H147	H	-0.792905	-1.651469	-0.618470
H148	H	-0.292905	-1.151469	-0.118470
H149	H	-0.919041	-1.406505	-0.371903
H150	H	-0.419041	-0.906505	0.128097
H151	H	-0.793213	-1.354620	-0.568544
H152	H	-0.293213	-0.854620	-0.068544
H153	H	-0.176343	-0.919446	-0.762908
H154	H	0.323657	-0.419446	-0.262908
H155	H	-0.176330	-1.118516	-0.762893
H156	H	0.323670	-0.618516	-0.262893
H157	H	-0.262165	-0.819815	-0.640786
H158	H	0.237835	-0.319815	-0.140786
H159	H	-0.792569	-1.455761	-0.669431
H160	H	-0.292569	-0.955761	-0.169431
H161	H	-0.451335	-1.217735	-0.371503
H162	H	0.048665	-0.717735	0.128497
H163	H	-0.919799	-1.455960	-0.669952
H164	H	-0.419799	-0.955960	-0.169952
H165	H	-0.791866	-1.692388	-0.482022
H166	H	-0.291866	-1.192388	0.017978
H167	H	-0.919722	-1.544176	-0.333218
H168	H	-0.419722	-1.044176	0.166782
H169	H	-0.175993	-1.774860	-1.106313
H170	H	0.324007	-1.274860	-0.606313
H171	H	-0.792990	-1.545400	-0.333145
H172	H	-0.292990	-1.045400	0.166855
H173	H	-0.791968	-1.407887	-0.370986
H174	H	-0.291968	-0.907887	0.129014
H175	H	-0.920467	-1.656847	-0.613918
H176	H	-0.420467	-1.156847	-0.113918
H177	H	-0.261979	-1.652825	-0.807671
H178	H	0.238021	-1.152825	-0.307671
H179	H	-0.261872	-1.652888	-1.205799
H180	H	0.238128	-1.152888	-0.705799
H181	H	-0.451279	-1.383931	-1.205690
H182	H	0.048721	-0.883931	-0.705690
