data_functionalizedCrystal
_audit_creation_method	'MofGen! by Chris Wilmer'
_symmetry_space_group_name_H-M	'P1'
_symmetry_Int_Tables_number	1
_symmetry_cell_setting	triclinic
loop_
_symmetry_equiv_pos_as_xyz
  x,y,z
_cell_length_a	17.640112
_cell_length_b	18.050589
_cell_length_c	17.640968
_cell_angle_alpha	78.773118
_cell_angle_beta	92.139080
_cell_angle_gamma	101.252307
loop_
_atom_site_label
_atom_site_type_symbol
_atom_site_fract_x
_atom_site_fract_y
_atom_site_fract_z
Zn1	Zn	1.247776	-0.021338	-0.195082
Zn2	Zn	1.221993	-0.174558	-0.068112
Zn3	Zn	1.095104	-0.069647	-0.093732
Zn4	Zn	1.120735	-0.164782	-0.220693
O5	O	1.171402	-0.107581	-0.144405
O6	O	1.350627	-0.025537	-0.156798
O7	O	1.183644	-0.184950	0.034761
O8	O	1.115420	0.040699	-0.107180
O9	O	1.331684	-0.138107	-0.063514
O10	O	1.227588	0.076191	-0.181641
O11	O	1.090420	-0.107872	0.015938
O12	O	0.992234	-0.098393	-0.132014
O13	O	1.159104	-0.121445	-0.323567
O14	O	1.011064	-0.168289	-0.225292
O15	O	1.252441	-0.016058	-0.304750
O16	O	1.208498	-0.277199	-0.088349
O17	O	1.134104	-0.270016	-0.200449
C18	C	0.974094	-0.137523	-0.184213
C19	C	0.889689	-0.150346	-0.201261
C20	C	0.563038	-0.010153	-0.014899
C21	C	0.483728	-0.022215	-0.030928
C22	C	0.503357	-0.095166	-0.127891
C23	C	0.582671	-0.083107	-0.111873
C24	C	0.612505	-0.040601	-0.055375
C25	C	0.632138	-0.113555	-0.152349
C26	C	0.711444	-0.101501	-0.136328
C27	C	0.741283	-0.058998	-0.079832
C28	C	0.691811	-0.028547	-0.039354
C29	C	0.602302	-0.156066	-0.208842
C30	C	0.651768	-0.186514	-0.249318
C31	C	0.731077	-0.174455	-0.233302
C32	C	0.760916	-0.131952	-0.176805
C33	C	0.780549	-0.204906	-0.273779
C34	C	0.859855	-0.192852	-0.257758
C35	C	0.840222	-0.119898	-0.160785
C36	C	1.171308	-0.300550	-0.144411
C37	C	1.171342	-0.383087	-0.144424
C38	C	1.130933	-0.578655	-0.205357
C39	C	1.098407	-0.646737	-0.139793
C40	C	1.171419	-0.534204	-0.144419
C41	C	1.203984	-0.613197	-0.209983
C42	C	1.171493	-0.680174	-0.144421
C43	C	1.138849	-0.601212	-0.078826
C44	C	1.244468	-0.567652	-0.149057
C45	C	1.211958	-0.635718	-0.083440
C46	C	1.171375	-0.450114	-0.144420
C47	C	1.171536	-0.764264	-0.144412
C48	C	1.369481	-0.077524	-0.104442
C49	C	1.453890	-0.064715	-0.087412
C50	C	1.211508	-0.062272	-0.342484
C51	C	1.228598	-0.042964	-0.426893
C52	C	1.171521	0.086148	-0.144411
C53	C	1.171572	0.168704	-0.144414
C54	C	1.041859	-0.253814	-0.753484
C55	C	1.057934	-0.235659	-0.832796
C56	C	1.155117	-0.125928	-0.813194
C57	C	1.139048	-0.144071	-0.733879
C58	C	1.082418	-0.208016	-0.704030
C59	C	1.179607	-0.098273	-0.684425
C60	C	1.163541	-0.116418	-0.605116
C61	C	1.106916	-0.180360	-0.575261
C62	C	1.066352	-0.226160	-0.624721
C63	C	1.236240	-0.034333	-0.714274
C64	C	1.276799	0.011465	-0.664820
C65	C	1.260730	-0.006676	-0.585511
C66	C	1.204105	-0.070618	-0.555656
C67	C	1.301293	0.039124	-0.536051
C68	C	1.285228	0.020980	-0.456742
C69	C	1.188039	-0.088763	-0.476347
C70	C	1.131497	-0.152654	0.052913
C71	C	1.114553	-0.171730	0.137352
H72	H	0.805860	-0.049186	-0.066787
H73	H	1.347406	0.091183	-0.560365
O74	O	1.328966	0.070375	-0.403395
H75	H	1.371037	0.117892	-0.437475
H76	H	0.995727	-0.305868	-0.729184
O77	O	1.257340	-0.668569	-0.015117
H78	H	1.306691	-0.688998	-0.036017
H79	H	0.756245	-0.239521	-0.319773
H80	H	1.306201	-0.533383	-0.153009
O81	O	0.430372	0.010633	0.012725
H82	H	0.464445	0.042219	0.054697
O83	O	0.595226	0.035700	0.046033
H84	H	0.623510	-0.000842	0.092019
H85	H	0.716105	0.006080	0.006640
H86	H	1.231497	-0.619082	-0.265429
H87	H	0.537725	-0.165879	-0.221884
O88	O	0.872404	-0.074049	-0.099848
H89	H	0.915446	-0.023031	-0.126604
O90	O	0.471180	-0.141006	-0.188831
H91	H	0.407724	-0.144269	-0.193176
O92	O	1.337866	0.080434	-0.697034
H93	H	1.394384	0.073268	-0.669793
H94	H	0.627466	-0.221125	-0.295316
O95	O	0.913218	-0.225683	-0.301416
H96	H	0.879151	-0.257257	-0.343400
H97	H	1.096620	-0.553748	-0.256842
H98	H	1.036667	-0.681002	-0.135877
O99	O	1.102305	-0.593565	-0.005378
H100	H	1.102532	-0.531922	-0.005968
H101	H	1.141907	-0.140817	-0.452047
O102	O	1.216173	-0.056944	-0.845392
H103	H	1.220522	-0.052012	-0.908851
H104	H	1.093839	-0.195135	-0.510682
H105	H	1.024902	-0.272958	-0.873060
H106	H	1.249320	-0.019563	-0.778853
O107	O	1.005270	-0.295126	-0.592517
H108	H	0.979763	-0.323928	-0.640228
