data_functionalizedCrystal
_audit_creation_method	'MofGen! by Chris Wilmer'
_symmetry_space_group_name_H-M	'P1'
_symmetry_Int_Tables_number	1
_symmetry_cell_setting	triclinic
loop_
_symmetry_equiv_pos_as_xyz
  x,y,z
_cell_length_a	16.109302
_cell_length_b	14.586319
_cell_length_c	16.109301
_cell_angle_alpha	90.005214
_cell_angle_beta	83.461631
_cell_angle_gamma	90.005448
loop_
_atom_site_label
_atom_site_type_symbol
_atom_site_fract_x
_atom_site_fract_y
_atom_site_fract_z
O1	O	-1.103130	-0.076284	-0.106869
O2	O	-0.861069	-0.076278	-0.120168
O3	O	-0.988749	-0.076272	0.007513
O4	O	-0.975450	-0.076290	-0.234549
O5	O	-0.988740	0.076209	0.007515
O6	O	-0.861060	0.076203	-0.120166
O7	O	-1.103122	0.076196	-0.106867
Cu8	Cu	-0.982090	0.090122	-0.113516
Cu9	Cu	-0.982100	-0.090204	-0.113519
O10	O	-0.975441	0.076191	-0.234547
C11	C	-0.830089	-0.000036	-0.119628
C12	C	-0.737794	-0.000033	-0.118013
C13	C	-0.988206	-0.000031	0.038488
C14	C	-0.986591	-0.000030	0.130784
C15	C	-1.134101	-0.000047	-0.107407
C16	C	-1.226396	-0.000056	-0.109022
N17	N	-0.982088	0.216954	-0.113514
C18	C	-0.525448	0.083075	-0.114276
C19	C	-0.438728	0.083072	-0.112750
C20	C	-0.438748	-0.083171	-0.112756
C21	C	-0.525468	-0.083167	-0.114277
C22	C	-0.568815	-0.000041	-0.115041
C23	C	-0.395375	-0.000048	-0.111994
C24	C	-0.301350	-0.000052	-0.110338
C25	C	-0.662847	-0.000037	-0.116695
N26	N	-0.982108	-0.217035	-0.113514
C27	C	-1.038644	0.451963	-0.056996
C28	C	-1.038647	0.547944	-0.056994
C29	C	-0.925546	0.547949	-0.170035
C30	C	-0.925541	0.451969	-0.170032
C31	C	-0.982094	0.403979	-0.113514
C32	C	-0.982102	0.595940	-0.113514
C33	C	-0.982105	0.700007	-0.113513
C34	C	-0.982091	0.299905	-0.113514
C35	C	-0.975984	-0.000052	-0.265523
C36	C	-0.977599	-0.000060	-0.357819
C37	C	-1.058599	-0.000046	0.353056
C38	C	-1.057074	-0.000054	0.439776
C39	C	-0.905586	-0.000046	0.419902
C40	C	-0.907111	-0.000045	0.333184
C41	C	-0.983620	-0.000040	0.299763
C42	C	-0.980571	-0.000049	0.473202
C43	C	-0.978918	-0.000057	0.567228
C44	C	-0.985273	-0.000034	0.205731
H45	H	-0.403423	0.150754	-0.112127
H46	H	-0.843295	-0.000048	0.447124
O47	O	-0.396505	-0.163833	-0.112055
C48	C	-0.310667	-0.146016	-0.110531
H49	H	-0.295365	-0.074582	-0.136625
H50	H	-0.294798	-0.149956	-0.043440
C51	C	-0.277802	-0.305463	-0.132197
C52	C	-0.259007	-0.217729	-0.164253
H53	H	-0.245935	-0.349700	-0.165331
H54	H	-0.335633	-0.317467	-0.133221
H55	H	-0.264578	-0.308733	-0.076288
H56	H	-0.272241	-0.214457	-0.220156
H57	H	-0.201177	-0.205726	-0.163239
O58	O	-0.870585	0.594672	-0.224823
C59	C	-0.819299	0.650191	-0.180284
H60	H	-0.852431	0.664571	-0.115235
H61	H	-0.757853	0.613216	-0.174619
C62	C	-0.760835	0.723698	-0.307052
C63	C	-0.801530	0.741366	-0.227159
H64	H	-0.749870	0.779938	-0.335968
H65	H	-0.795384	0.686292	-0.337060
H66	H	-0.709635	0.692884	-0.302319
H67	H	-0.852734	0.772169	-0.231893
H68	H	-0.766989	0.778780	-0.197153
O69	O	-0.567732	-0.163829	-0.114988
C70	C	-0.653565	-0.145998	-0.116512
H71	H	-0.668846	-0.074561	-0.090410
H72	H	-0.669433	-0.149936	-0.183604
C73	C	-0.686477	-0.305438	-0.094865
C74	C	-0.705247	-0.217701	-0.062800
H75	H	-0.718358	-0.349670	-0.061736
H76	H	-0.628650	-0.317453	-0.093841
H77	H	-0.699701	-0.308708	-0.150775
H78	H	-0.692013	-0.214430	-0.006895
H79	H	-0.763073	-0.205688	-0.063813
O80	O	-1.093604	0.405487	-0.002012
C81	C	-1.143529	0.468426	0.047859
H82	H	-1.109447	0.536849	0.048804
H83	H	-1.205282	0.478619	0.020847
C84	C	-1.202546	0.346940	0.136387
C85	C	-1.160682	0.430976	0.137553
H86	H	-1.213131	0.323839	0.191714
H87	H	-1.168913	0.304536	0.102787
H88	H	-1.254002	0.355446	0.113873
H89	H	-1.109223	0.422467	0.160056
H90	H	-1.194307	0.473378	0.171159
H91	H	-0.846050	-0.000043	0.289790
O92	O	-1.129986	-0.000016	0.491426
C93	C	-1.197837	-0.000037	0.443328
H94	H	-1.176715	0.028836	0.378603
H95	H	-1.221292	-0.073189	0.437151
C96	C	-1.294741	0.024296	0.566063
C97	C	-1.268801	0.059764	0.486569
H98	H	-1.338518	0.061180	0.592737
H99	H	-1.249030	0.024306	0.598469
H100	H	-1.314282	-0.036664	0.560904
H101	H	-1.249252	0.120719	0.491729
H102	H	-1.314511	0.059765	0.454165
H103	H	-1.084694	0.587011	-0.010972
H104	H	-0.879487	0.412898	-0.216056
H105	H	-1.120897	-0.000044	0.325848
H106	H	-0.560739	0.150762	-0.114899
