data_functionalizedCrystal
_audit_creation_method	'MofGen! by Chris Wilmer'
_symmetry_space_group_name_H-M	'P1'
_symmetry_Int_Tables_number	1
_symmetry_cell_setting	triclinic
loop_
_symmetry_equiv_pos_as_xyz
  x,y,z
_cell_length_a	16.625546
_cell_length_b	17.639762
_cell_length_c	16.625539
_cell_angle_alpha	101.175565
_cell_angle_beta	89.969603
_cell_angle_gamma	101.252108
loop_
_atom_site_label
_atom_site_type_symbol
_atom_site_fract_x
_atom_site_fract_y
_atom_site_fract_z
Zn1	Zn	-0.071445	1.208380	-0.207097
Zn2	Zn	-0.206308	1.208285	-0.072279
Zn3	Zn	-0.098771	1.076200	-0.099493
Zn4	Zn	-0.233543	1.076171	-0.234270
O5	O	-0.152517	1.142259	-0.153285
O6	O	-0.066501	1.318975	-0.166452
O7	O	-0.192081	1.190736	0.036938
O8	O	0.017697	1.093786	-0.113784
O9	O	-0.165584	1.318905	-0.067401
O10	O	0.037773	1.190898	-0.192840
O11	O	-0.113074	1.093694	0.016944
O12	O	-0.139483	0.965588	-0.140133
O13	O	-0.212003	1.093736	-0.343493
O14	O	-0.238500	0.965567	-0.239153
O15	O	-0.092910	1.190870	-0.323528
O16	O	-0.322764	1.190708	-0.093750
O17	O	-0.342773	1.093644	-0.212765
C18	C	-0.194913	0.936898	-0.195545
C19	C	-0.213069	0.849043	-0.213644
C20	C	-0.362023	1.142184	-0.153266
C21	C	-0.451636	1.142224	-0.153271
C22	C	-0.290282	0.725226	-0.290618
C23	C	-0.273216	0.807779	-0.273606
C24	C	-0.169962	0.807765	-0.170672
C25	C	-0.187017	0.725211	-0.187679
C26	C	-0.247179	0.683948	-0.247652
C27	C	-0.143913	0.683932	-0.144713
C28	C	-0.160970	0.601385	-0.161715
C29	C	-0.221131	0.560117	-0.221684
C30	C	-0.264236	0.601401	-0.264655
C31	C	-0.083756	0.725197	-0.084736
C32	C	-0.040652	0.683918	-0.041770
C33	C	-0.057705	0.601370	-0.058776
C34	C	-0.117866	0.560101	-0.118744
C35	C	-0.014600	0.560086	-0.015805
C36	C	-0.031657	0.477539	-0.032807
C37	C	-0.134923	0.477554	-0.135747
C38	C	-0.779783	1.142362	-0.153326
C39	C	-0.688483	1.142321	-0.153313
C40	C	-0.615712	1.142293	-0.153298
C41	C	-0.524406	1.142253	-0.153286
C42	C	0.057812	1.142355	-0.153316
C43	C	0.147442	1.142397	-0.153330
C44	C	-0.152446	1.142310	-0.363583
C45	C	-0.152416	1.142332	-0.453200
C46	C	-0.109956	1.348422	-0.110860
C47	C	-0.091819	1.436276	-0.092781
C48	C	-0.152318	1.142369	-0.781368
C49	C	-0.152348	1.142356	-0.690062
C50	C	-0.152368	1.142351	-0.617287
C51	C	-0.152397	1.142338	-0.525975
C52	C	-0.152520	1.142253	0.056205
C53	C	-0.152291	1.142384	0.145853
H54	H	-0.235019	0.492902	-0.235525
H55	H	-0.339264	0.691628	-0.339462
H56	H	-0.183905	0.443956	-0.184591
C57	C	-0.329599	0.556735	-0.329785
C58	C	-0.363706	0.610551	-0.363773
C59	C	-0.423921	0.569434	-0.423767
H60	H	-0.305526	0.524559	-0.371664
H61	H	-0.371395	0.524523	-0.305540
H62	H	-0.321918	0.642750	-0.388019
H63	H	-0.387796	0.642729	-0.321916
H64	H	-0.465716	0.537221	-0.399522
H65	H	-0.399840	0.537259	-0.465640
H66	H	-0.447075	0.605941	-0.446830
C67	C	-0.320074	0.852454	-0.320382
C68	C	-0.376395	0.798646	-0.376555
C69	C	-0.419566	0.839771	-0.419665
H70	H	-0.348587	0.884637	-0.282937
H71	H	-0.282637	0.884660	-0.348980
H72	H	-0.413827	0.766453	-0.347958
H73	H	-0.347903	0.766460	-0.414017
H74	H	-0.382129	0.871977	-0.448263
H75	H	-0.448074	0.871953	-0.382213
H76	H	-0.457779	0.803269	-0.457788
H77	H	-0.120980	0.841372	-0.121840
H78	H	-0.069871	0.792412	-0.070893
H79	H	0.034378	0.593694	0.033031
H80	H	0.008329	0.717526	0.007063
H81	H	0.003447	0.443929	0.002176
