data_functionalizedCrystal
_audit_creation_method	'MofGen! by Chris Wilmer'
_symmetry_space_group_name_H-M	'P1'
_symmetry_Int_Tables_number	1
_symmetry_cell_setting	triclinic
loop_
_symmetry_equiv_pos_as_xyz
  x,y,z
_cell_length_a	10.654550
_cell_length_b	15.995350
_cell_length_c	9.730223
_cell_angle_alpha	90.000899
_cell_angle_beta	89.996251
_cell_angle_gamma	83.988639
loop_
_atom_site_label
_atom_site_type_symbol
_atom_site_fract_x
_atom_site_fract_y
_atom_site_fract_z
O1	O	1.666298	0.117599	-0.114395
O2	O	1.300673	0.128803	-0.114373
O3	O	1.493480	0.001371	-0.114383
O4	O	1.473491	0.245031	-0.114385
O5	O	1.493478	0.001375	0.114197
O6	O	1.300671	0.128806	0.114207
O7	O	1.666295	0.117602	0.114185
Zn8	Zn	1.483483	0.123205	0.150488
Zn9	Zn	1.483486	0.123200	-0.150676
O10	O	1.473488	0.245034	0.114195
C11	C	1.253885	0.127982	-0.000080
C12	C	1.114473	0.125521	-0.000071
C13	C	1.034008	0.200551	-0.000092
C14	C	0.903017	0.198233	-0.000116
C15	C	0.932971	0.045849	-0.000104
C16	C	1.063959	0.048168	-0.000071
C17	C	1.016713	0.288528	-0.000104
C18	C	0.885722	0.286211	-0.000128
C19	C	1.492652	-0.029827	-0.000096
C20	C	1.490175	-0.122791	-0.000104
C21	C	1.481278	-0.460591	-0.000098
C22	C	1.343964	-0.413954	-0.000603
C23	C	1.346442	-0.317249	-0.000087
C24	C	1.485691	-0.293004	-0.000102
C25	C	1.553417	-0.333687	0.130422
C26	C	1.549968	-0.430342	0.130531
C27	C	1.552807	-0.430688	-0.129407
C28	C	1.552775	-0.333743	-0.131132
C29	C	1.488192	-0.198292	-0.000099
C30	C	1.478780	-0.555303	-0.000092
C31	C	1.713084	0.118423	-0.000111
C32	C	1.852495	0.120884	-0.000129
C33	C	1.474316	0.276232	-0.000095
C34	C	1.476793	0.369197	-0.000097
N35	N	1.483490	0.123207	0.356024
N36	N	1.483488	0.123191	-0.356212
C37	C	1.568886	0.066800	0.427946
C38	C	1.568883	0.066789	0.571829
C39	C	1.398083	0.179602	0.571856
C40	C	1.398081	0.179607	0.427976
C41	C	1.667501	0.001671	0.427931
C42	C	1.667497	0.001661	0.571814
H43	H	1.045593	0.322938	0.095561
H44	H	1.500580	-0.448929	0.228110
N45	N	1.310861	0.237235	0.354514
N46	N	1.350690	0.289467	0.274238
H47	H	1.289088	0.330171	0.222356
N48	N	0.881348	-0.033154	-0.000095
N49	N	0.764394	-0.035216	-0.000113
H50	H	0.727935	-0.091013	-0.000105
H51	H	1.289324	-0.433864	0.092484
N52	N	1.060930	0.323702	-0.123905
N53	N	1.021798	0.397251	-0.157571
H54	H	1.053010	0.422099	-0.245010
H55	H	0.839703	0.312800	0.098556
N56	N	1.630191	-0.074624	0.627792
N57	N	1.523644	-0.096446	0.600821
H58	H	1.497290	-0.150320	0.640354
N59	N	1.788330	0.019664	0.620794
N60	N	1.829558	0.087533	0.589777
H61	H	1.914892	0.100248	0.624371
H62	H	1.655720	-0.318967	0.135266
N63	N	1.146136	-0.028481	-0.000024
N64	N	1.101013	-0.097537	-0.000022
H65	H	1.159050	-0.151674	0.000013
H66	H	1.758418	0.022064	0.383299
H67	H	0.843557	0.319358	-0.095796
H68	H	1.503258	-0.306783	-0.227690
N69	N	1.279649	-0.281990	-0.117463
N70	N	1.230871	-0.328799	-0.200334
H71	H	1.183690	-0.303901	-0.283233
N72	N	1.275127	-0.437600	-0.118036
N73	N	1.326459	-0.489104	-0.202728
H74	H	1.277844	-0.505808	-0.285673
N75	N	1.279204	-0.282688	0.117501
N76	N	1.230307	-0.329999	0.199449
H77	H	1.182819	-0.305592	0.282504
N78	N	1.676438	-0.470056	0.137967
N79	N	1.766966	-0.426362	0.143068
H80	H	1.856285	-0.454406	0.148329
N81	N	1.494397	-0.298421	0.252277
N82	N	1.402470	-0.243337	0.243332
H83	H	1.360778	-0.218431	0.329389
N84	N	1.496514	-0.456794	-0.253520
N85	N	1.491293	-0.533232	-0.276554
H86	H	1.451528	-0.551671	-0.364204
N87	N	1.680154	-0.313713	-0.141038
N88	N	1.723764	-0.268891	-0.051281
H89	H	1.813729	-0.254741	-0.058271
H90	H	1.654048	-0.461861	-0.130294
H91	H	1.328544	0.225520	0.630455
H92	H	1.646899	-0.062686	0.388879
