data_functionalizedCrystal
_audit_creation_method	'MofGen! by Chris Wilmer'
_symmetry_space_group_name_H-M	'P1'
_symmetry_Int_Tables_number	1
_symmetry_cell_setting	triclinic
loop_
_symmetry_equiv_pos_as_xyz
  x,y,z
_cell_length_a	27.732064
_cell_length_b	27.732048
_cell_length_c	22.010155
_cell_angle_alpha	90.009515
_cell_angle_beta	90.008059
_cell_angle_gamma	82.646040
loop_
_atom_site_label
_atom_site_type_symbol
_atom_site_fract_x
_atom_site_fract_y
_atom_site_fract_z
O1	O	0.640930	0.057554	0.050423
O2	O	0.974263	0.390887	0.383757
O3	O	1.307596	0.724221	0.717090
O4	O	0.500138	0.066291	0.050449
O5	O	0.833471	0.399624	0.383782
O6	O	1.166804	0.732958	0.717116
O7	O	0.574906	-0.008474	0.050424
O8	O	0.908240	0.324859	0.383757
O9	O	1.241573	0.658193	0.717090
O10	O	0.566161	0.132319	0.050449
O11	O	0.899494	0.465652	0.383782
O12	O	1.232828	0.798986	0.717115
O13	O	0.574884	-0.008474	-0.050627
O14	O	0.908217	0.324859	0.282707
O15	O	1.241551	0.658193	0.616040
O16	O	0.500115	0.066291	-0.050601
O17	O	0.833449	0.399624	0.282732
O18	O	1.166782	0.732958	0.616065
O19	O	0.640907	0.057554	-0.050627
O20	O	0.974241	0.390887	0.282706
O21	O	1.307574	0.724221	0.616040
Cu22	Cu	0.570509	0.061923	-0.059841
Cu23	Cu	0.903843	0.395256	0.273492
Cu24	Cu	1.237176	0.728589	0.606826
Cu25	Cu	0.570536	0.061923	0.059663
Cu26	Cu	0.903869	0.395256	0.392996
Cu27	Cu	1.237202	0.728589	0.726330
O28	O	0.566139	0.132319	-0.050602
O29	O	0.899472	0.465652	0.282732
O30	O	1.232805	0.798986	0.616065
C31	C	0.482120	0.066106	-0.000073
C32	C	0.815453	0.399440	0.333260
C33	C	1.148786	0.732773	0.666594
C34	C	0.428465	0.065551	-0.000064
C35	C	0.761798	0.398884	0.333270
C36	C	1.095132	0.732217	0.666603
C37	C	0.051392	0.017583	-0.000107
C38	C	0.384726	0.350917	0.333227
C39	C	0.718059	0.684250	0.666560
C40	C	0.253053	0.019630	-0.000090
C41	C	0.586386	0.352963	0.333243
C42	C	0.919719	0.686296	0.666576
O43	O	0.284305	-0.017591	-0.000120
O44	O	0.617639	0.315742	0.333214
O45	O	0.950972	0.649075	0.666547
N46	N	0.272180	0.063964	-0.000080
N47	N	0.605513	0.397297	0.333253
N48	N	0.938847	0.730631	0.666587
C49	C	0.240889	0.107790	-0.000077
C50	C	0.574222	0.441123	0.333256
C51	C	0.907556	0.774456	0.666589
O52	O	0.261785	0.145546	-0.000074
O53	O	0.595119	0.478879	0.333259
O54	O	0.928452	0.812212	0.666592
C55	C	0.039230	0.105743	-0.000098
C56	C	0.372563	0.439076	0.333235
C57	C	0.705896	0.772410	0.666569
C58	C	0.020105	0.061406	-0.000102
C59	C	0.353439	0.394739	0.333231
C60	C	0.686772	0.728072	0.666564
C61	C	0.032267	-0.026750	-0.000112
C62	C	0.365601	0.306583	0.333222
C63	C	0.698934	0.639916	0.666555
C64	C	-0.018145	-0.027261	-0.000112
C65	C	0.315189	0.306072	0.333221
C66	C	0.648522	0.639405	0.666554
C67	C	-0.049432	0.016561	-0.000108
C68	C	0.283901	0.349895	0.333225
C69	C	0.617235	0.683228	0.666559
C70	C	-0.030307	0.060895	-0.000103
C71	C	0.303026	0.394228	0.333230
C72	C	0.636360	0.727561	0.666564
C73	C	0.007940	0.149568	-0.000100
C74	C	0.341273	0.482902	0.333234
C75	C	0.674606	0.816235	0.666567
C76	C	-0.042478	0.149053	-0.000106
C77	C	0.290855	0.482386	0.333227
C78	C	0.624189	0.815719	0.666560
C79	C	-0.061602	0.104716	-0.000111
C80	C	0.271731	0.438049	0.333223
C81	C	0.605064	0.771382	0.666556
C82	C	-0.112006	0.104206	-0.000099
C83	C	0.221327	0.437539	0.333234
C84	C	0.554661	0.770873	0.666567
N85	N	-0.131134	0.059872	-0.000110
N86	N	0.202200	0.393205	0.333223
N87	N	0.535533	0.726539	0.666557
C88	C	-0.099846	0.016049	-0.000114
C89	C	0.233487	0.349383	0.333219
C90	C	0.566820	0.682716	0.666552
C91	C	0.346763	0.108861	-0.000065
C92	C	0.680097	0.442194	0.333268
C93	C	1.013430	0.775528	0.666601
C94	C	0.397178	0.109373	-0.000059
C95	C	0.730511	0.442706	0.333274
C96	C	1.063845	0.776040	0.666607
C97	C	0.409338	0.021213	-0.000073
C98	C	0.742672	0.354546	0.333260
C99	C	1.076005	0.687879	0.666593
C100	C	0.358923	0.020701	-0.000075
C101	C	0.692256	0.354035	0.333258
C102	C	1.025589	0.687368	0.666591
C103	C	0.327636	0.064527	-0.000076
C104	C	0.660969	0.397860	0.333257
C105	C	0.994303	0.731194	0.666591
C106	C	-0.205716	0.014979	-0.000115
C107	C	0.127617	0.348313	0.333218
C108	C	0.460951	0.681646	0.666551
C109	C	-0.256133	0.014472	-0.000113
C110	C	0.077200	0.347806	0.333220
C111	C	0.410534	0.681139	0.666553
C112	C	-0.268289	0.102632	-0.000103
C113	C	0.065045	0.435966	0.333231
C114	C	0.398378	0.769299	0.666564
C115	C	-0.217876	0.103140	-0.000101
C116	C	0.115457	0.436473	0.333232
C117	C	0.448791	0.769806	0.666566
C118	C	-0.186590	0.059309	-0.000110
C119	C	0.146743	0.392643	0.333224
C120	C	0.480076	0.725976	0.666557
O121	O	-0.143287	0.141407	-0.000077
O122	O	0.190046	0.474741	0.333256
O123	O	0.523380	0.808074	0.666590
O124	O	-0.120752	-0.021701	-0.000131
O125	O	0.212581	0.311632	0.333203
O126	O	0.545914	0.644966	0.666536
C127	C	0.101804	0.018094	-0.000106
C128	C	0.435138	0.351428	0.333228
C129	C	0.768471	0.684761	0.666561
C130	C	0.120930	0.062428	-0.000101
C131	C	0.454263	0.395761	0.333233
C132	C	0.787596	0.729095	0.666566
C133	C	0.089642	0.106250	-0.000097
C134	C	0.422976	0.439584	0.333237
C135	C	0.756309	0.772917	0.666570
C136	C	0.171344	0.062940	-0.000095
C137	C	0.504677	0.396273	0.333239
C138	C	0.838011	0.729606	0.666572
C139	C	0.202631	0.019117	-0.000099
C140	C	0.535965	0.352451	0.333234
C141	C	0.869298	0.685784	0.666568
C142	C	0.183504	-0.025217	-0.000109
C143	C	0.516837	0.308116	0.333224
C144	C	0.850170	0.641450	0.666557
C145	C	0.133092	-0.025728	-0.000110
C146	C	0.466425	0.307605	0.333223
C147	C	0.799758	0.640939	0.666557
C148	C	0.108770	0.150585	-0.000086
C149	C	0.442103	0.483918	0.333247
C150	C	0.775437	0.817251	0.666581
C151	C	0.159183	0.151092	-0.000085
C152	C	0.492516	0.484426	0.333249
C153	C	0.825849	0.817759	0.666582
C154	C	0.190470	0.107270	-0.000089
C155	C	0.523803	0.440603	0.333244
C156	C	0.857136	0.773936	0.666578
C157	C	0.574712	-0.026481	-0.000103
C158	C	0.908045	0.306853	0.333230
C159	C	1.241378	0.640186	0.666564
C160	C	0.574159	-0.080136	-0.000108
C161	C	0.907492	0.253198	0.333225
C162	C	1.240826	0.586531	0.666559
C163	C	0.614862	-0.418948	-0.000084
C164	C	0.948196	-0.085615	0.333249
C165	C	1.281529	0.247718	0.666582
C166	C	0.612811	-0.620608	-0.000075
C167	C	0.946145	-0.287275	0.333258
C168	C	1.279478	0.046059	0.666591
O169	O	0.650032	-0.651862	-0.000056
O170	O	0.983365	-0.318528	0.333278
O171	O	1.316698	0.014805	0.666611
N172	N	0.568476	-0.639735	-0.000068
N173	N	0.901810	-0.306401	0.333266
N174	N	1.235143	0.026932	0.666599
C175	C	0.524651	-0.608442	-0.000058
C176	C	0.857985	-0.275109	0.333275
C177	C	1.191318	0.058224	0.666608
O178	O	0.486895	-0.629338	-0.000045
O179	O	0.820228	-0.296004	0.333288
O180	O	1.153561	0.037329	0.666621
C181	C	0.526703	-0.406784	-0.000063
C182	C	0.860036	-0.073450	0.333270
C183	C	1.193369	0.259883	0.666604
C184	C	0.571040	-0.387660	-0.000077
C185	C	0.904374	-0.054327	0.333257
C186	C	1.237707	0.279006	0.666590
C187	C	0.659196	-0.399824	-0.000097
C188	C	0.992530	-0.066491	0.333236
C189	C	1.325863	0.266842	0.666569
C190	C	0.659709	-0.349412	-0.000103
C191	C	0.993042	-0.016079	0.333231
C192	C	1.326375	0.317254	0.666564
C193	C	0.615887	-0.318124	-0.000095
C194	C	0.949220	0.015209	0.333238
C195	C	1.282553	0.348542	0.666571
C196	C	0.571553	-0.337248	-0.000082
C197	C	0.904886	-0.003915	0.333251
C198	C	1.238219	0.329418	0.666584
C199	C	0.482878	-0.375493	-0.000049
C200	C	0.816211	-0.042159	0.333284
C201	C	1.149545	0.291174	0.666617
C202	C	0.483395	-0.325075	-0.000049
C203	C	0.816728	0.008258	0.333285
C204	C	1.150062	0.341591	0.666618
C205	C	0.527733	-0.305952	-0.000063
C206	C	0.861066	0.027381	0.333271
C207	C	1.194399	0.360715	0.666604
C208	C	0.528243	-0.255548	-0.000080
C209	C	0.861576	0.077785	0.333253
C210	C	1.194910	0.411118	0.666587
N211	N	0.572578	-0.236422	-0.000088
N212	N	0.905911	0.096911	0.333246
N213	N	1.239245	0.430245	0.666579
C214	C	0.616400	-0.267710	-0.000095
C215	C	0.949733	0.065623	0.333238
C216	C	1.283066	0.398957	0.666571
C217	C	0.523577	-0.714317	-0.000057
C218	C	0.856911	-0.380983	0.333276
C219	C	1.190244	-0.047650	0.666609
C220	C	0.523064	-0.764731	-0.000057
C221	C	0.856398	-0.431398	0.333276
C222	C	1.189731	-0.098064	0.666609
C223	C	0.611225	-0.776893	-0.000073
C224	C	0.944558	-0.443560	0.333260
C225	C	1.277891	-0.110227	0.666594
C226	C	0.611737	-0.726478	-0.000077
C227	C	0.945070	-0.393145	0.333256
C228	C	1.278404	-0.059811	0.666589
C229	C	0.567912	-0.695190	-0.000065
C230	C	0.901245	-0.361857	0.333268
C231	C	1.234579	-0.028524	0.666602
C232	C	0.617472	-0.161841	-0.000107
C233	C	0.950806	0.171493	0.333226
C234	C	1.284139	0.504826	0.666559
C235	C	0.617981	-0.111424	-0.000115
C236	C	0.951314	0.221910	0.333218
C237	C	1.284647	0.555243	0.666551
C238	C	0.529821	-0.099266	-0.000096
C239	C	0.863154	0.234067	0.333237
C240	C	1.196487	0.567401	0.666570
C241	C	0.529312	-0.149679	-0.000092
C242	C	0.862645	0.183655	0.333242
C243	C	1.195979	0.516988	0.666575
C244	C	0.573142	-0.180965	-0.000095
C245	C	0.906475	0.152368	0.333238
C246	C	1.239808	0.485701	0.666572
O247	O	0.491043	-0.224267	-0.000093
O248	O	0.824376	0.109067	0.333240
O249	O	1.157709	0.442400	0.666574
O250	O	0.654151	-0.246805	-0.000095
O251	O	0.987484	0.086528	0.333239
O252	O	1.320818	0.419861	0.666572
C253	C	0.614350	-0.469360	-0.000079
C254	C	0.947683	-0.136027	0.333255
C255	C	1.281017	0.197306	0.666588
C256	C	0.570016	-0.488484	-0.000066
C257	C	0.903349	-0.155151	0.333268
C258	C	1.236683	0.178182	0.666601
C259	C	0.526194	-0.457196	-0.000058
C260	C	0.859527	-0.123863	0.333275
C261	C	1.192861	0.209470	0.666609
C262	C	0.569503	-0.538899	-0.000066
C263	C	0.902836	-0.205565	0.333268
C264	C	1.236170	0.127768	0.666601
C265	C	0.613325	-0.570187	-0.000073
C266	C	0.946658	-0.236853	0.333260
C267	C	1.279991	0.096480	0.666594
C268	C	0.657660	-0.551060	-0.000081
C269	C	0.990993	-0.217727	0.333253
C270	C	1.324326	0.115606	0.666586
C271	C	0.658172	-0.500648	-0.000086
C272	C	0.991505	-0.167315	0.333247
C273	C	1.324839	0.166018	0.666580
C274	C	0.481859	-0.476323	-0.000050
C275	C	0.815193	-0.142989	0.333283
C276	C	1.148526	0.190344	0.666616
C277	C	0.481351	-0.526735	-0.000046
C278	C	0.814684	-0.193402	0.333288
C279	C	1.148017	0.139932	0.666621
C280	C	0.525172	-0.558023	-0.000053
C281	C	0.858506	-0.224690	0.333280
C282	C	1.191839	0.108643	0.666613
C283	C	0.658925	0.057739	-0.000104
C284	C	0.992259	0.391072	0.333230
C285	C	1.325592	0.724405	0.666563
C286	C	0.712580	0.058295	-0.000109
C287	C	1.045913	0.391628	0.333224
C288	C	1.379247	0.724961	0.666558
C289	C	0.566333	0.150326	-0.000074
C290	C	0.899667	0.483659	0.333260
C291	C	1.233000	0.816993	0.666593
C292	C	0.566886	0.203981	-0.000065
C293	C	0.900219	0.537314	0.333269
C294	C	1.233553	0.870648	0.666602
N295	N	0.570494	0.061922	-0.143893
N296	N	0.903828	0.395256	0.189440
N297	N	1.237161	0.728589	0.522773
C298	C	0.599634	0.091035	-0.563673
C299	C	0.932967	0.424369	-0.230340
C300	C	1.266300	0.757702	0.102994
C301	C	0.599639	0.091034	-0.627281
C302	C	0.932973	0.424367	-0.293947
C303	C	1.266306	0.757701	0.039386
O304	O	0.624398	0.115784	-0.660172
O305	O	0.957731	0.449117	-0.326839
O306	O	1.291064	0.782450	0.006494
N307	N	0.570545	0.061917	-0.659100
N308	N	0.903879	0.395250	-0.325767
N309	N	1.237212	0.728584	0.007566
C310	C	0.541447	0.032796	-0.627309
C311	C	0.874780	0.366129	-0.293976
C312	C	1.208114	0.699462	0.039357
O313	O	0.516701	0.008029	-0.660215
O314	O	0.850034	0.341362	-0.326882
O315	O	1.183368	0.674695	0.006451
C316	C	0.541444	0.032795	-0.563703
C317	C	0.874778	0.366128	-0.230370
C318	C	1.208111	0.699461	0.102964
C319	C	0.570537	0.061917	-0.531886
C320	C	0.903870	0.395250	-0.198553
C321	C	1.237203	0.728584	0.134780
C322	C	0.628724	0.120155	-0.531857
C323	C	0.962057	0.453488	-0.198523
C324	C	1.295391	0.786822	0.134810
C325	C	0.628718	0.120157	-0.468253
C326	C	0.962051	0.453490	-0.134920
C327	C	1.295384	0.786824	0.198413
C328	C	0.599621	0.091039	-0.436467
C329	C	0.932954	0.424372	-0.103133
C330	C	1.266287	0.757705	0.230200
C331	C	0.570530	0.061919	-0.468283
C332	C	0.903864	0.395252	-0.134950
C333	C	1.237197	0.728586	0.198383
C334	C	0.512349	0.003671	-0.531913
C335	C	0.845683	0.337004	-0.198580
C336	C	1.179016	0.670338	0.134754
C337	C	0.512349	0.003672	-0.468302
C338	C	0.845683	0.337005	-0.134969
C339	C	1.179016	0.670339	0.198365
C340	C	0.541442	0.032795	-0.436486
C341	C	0.874775	0.366128	-0.103152
C342	C	1.208108	0.699461	0.230181
C343	C	0.541427	0.032803	-0.372893
C344	C	0.874760	0.366136	-0.039560
C345	C	1.208093	0.699469	0.293773
N346	N	0.570521	0.061920	-0.341074
N347	N	0.903854	0.395253	-0.007740
N348	N	1.237188	0.728586	0.325593
C349	C	0.599618	0.091038	-0.372860
C350	C	0.932951	0.424371	-0.039527
C351	C	1.266285	0.757704	0.293806
C352	C	0.541456	0.032799	-0.760887
C353	C	0.874789	0.366133	-0.427554
C354	C	1.208122	0.699466	-0.094220
C355	C	0.541456	0.032803	-0.824492
C356	C	0.874789	0.366136	-0.491159
C357	C	1.208122	0.699469	-0.157826
C358	C	0.599649	0.091040	-0.824459
C359	C	0.932982	0.424374	-0.491126
C360	C	1.266315	0.757707	-0.157793
C361	C	0.599646	0.091039	-0.760853
C362	C	0.932979	0.424373	-0.427520
C363	C	1.266313	0.757706	-0.094186
C364	C	0.570550	0.061916	-0.729067
C365	C	0.903883	0.395250	-0.395734
C366	C	1.237217	0.728583	-0.062401
C367	C	0.599602	0.091040	-0.239289
C368	C	0.932935	0.424373	0.094044
C369	C	1.266268	0.757706	0.427378
C370	C	0.599591	0.091040	-0.175680
C371	C	0.932925	0.424374	0.157653
C372	C	1.266258	0.757707	0.490987
C373	C	0.541400	0.032801	-0.175719
C374	C	0.874734	0.366134	0.157615
C375	C	1.208067	0.699467	0.490948
C376	C	0.541409	0.032802	-0.239322
C377	C	0.874742	0.366135	0.094011
C378	C	1.208075	0.699468	0.427345
C379	C	0.570513	0.061923	-0.271105
C380	C	0.903847	0.395256	0.062228
C381	C	1.237180	0.728589	0.395561
O382	O	0.516683	0.008064	-0.339961
O383	O	0.850016	0.341397	-0.006628
O384	O	1.183349	0.674731	0.326705
O385	O	0.624365	0.115796	-0.339947
O386	O	0.957698	0.449129	-0.006613
O387	O	1.291031	0.782462	0.326720
N388	N	0.570555	0.061919	0.143715
N389	N	0.903888	0.395252	0.477049
N390	N	1.237221	0.728586	0.810382
H391	H	-0.033711	-0.063365	-0.000118
H392	H	0.299623	0.269968	0.333215
H393	H	0.632956	0.603302	0.666548
O394	O	0.066009	-0.074020	-0.000118
O395	O	0.399343	0.259313	0.333215
O396	O	0.732676	0.592647	0.666549
H397	H	0.059248	-0.095249	0.041068
H398	H	0.392581	0.238085	0.374401
H399	H	0.725915	0.571418	0.707734
H400	H	0.445243	-0.542300	-0.000040
H401	H	0.778576	-0.208967	0.333294
H402	H	1.111909	0.124367	0.666627
H403	H	0.647841	-0.710911	-0.000088
H404	H	0.981174	-0.377578	0.333245
H405	H	1.314507	-0.044245	0.666579
O406	O	0.705993	-0.480025	-0.000098
O407	O	1.039327	-0.146692	0.333235
O408	O	1.372660	0.186642	0.666569
H409	H	0.708345	-0.457340	0.041085
H410	H	1.041678	-0.124006	0.374419
H411	H	1.375011	0.209327	0.707752
H412	H	0.446173	-0.450852	-0.000043
H413	H	0.779507	-0.117519	0.333290
H414	H	1.112840	0.215815	0.666624
H415	H	0.517713	0.009094	-0.265228
H416	H	0.851046	0.342427	0.068105
H417	H	1.184380	0.675761	0.401438
O418	O	0.510051	0.001376	-0.141407
O419	O	0.843384	0.334709	0.191926
O420	O	1.176717	0.668042	0.525259
H421	H	0.483899	0.024709	-0.112407
H422	H	0.817233	0.358043	0.220927
H423	H	1.150566	0.691376	0.554260
O424	O	0.481489	-0.170303	-0.000084
O425	O	0.814823	0.163030	0.333249
O426	O	1.148156	0.496363	0.666583
H427	H	0.479135	-0.192986	-0.041269
H428	H	0.812468	0.140348	0.292064
H429	H	1.145801	0.473681	0.625398
H430	H	0.488656	-0.020044	-0.442426
H431	H	0.821989	0.313289	-0.109092
H432	H	1.155322	0.646622	0.224241
O433	O	0.631028	0.122449	-0.726542
O434	O	0.964361	0.455782	-0.393209
O435	O	1.297694	0.789115	-0.059876
H436	H	0.607659	0.148590	-0.697567
H437	H	0.940992	0.481924	-0.364233
H438	H	1.274326	0.815257	-0.030900
H439	H	0.693341	-0.576544	-0.000090
H440	H	1.026674	-0.243211	0.333244
H441	H	1.360008	0.090123	0.666577
O442	O	0.658492	-0.810644	-0.000077
O443	O	0.991825	-0.477310	0.333257
O444	O	1.325158	-0.143977	0.666590
H445	H	0.650682	-0.848911	-0.000069
H446	H	0.984015	-0.515578	0.333264
H447	H	1.317348	-0.182244	0.666597
H448	H	-0.271701	-0.021634	-0.000115
H449	H	0.061632	0.311699	0.333218
H450	H	0.394966	0.645033	0.666551
H451	H	-0.180248	-0.020712	-0.000122
H452	H	0.153085	0.312622	0.333211
H453	H	0.486418	0.645955	0.666545
H454	H	0.494142	-0.073782	-0.000092
H455	H	0.827476	0.259551	0.333241
H456	H	1.160809	0.592884	0.666574
O457	O	-0.302043	0.149894	-0.000103
O458	O	0.031290	0.483227	0.333230
O459	O	0.364623	0.816561	0.666563
H460	H	-0.295290	0.171135	0.041086
H461	H	0.038043	0.504468	0.374420
H462	H	0.371376	0.837802	0.707753
O463	O	0.338298	-0.027120	-0.000092
O464	O	0.671632	0.306214	0.333242
O465	O	1.004965	0.639547	0.666575
H466	H	0.350895	-0.048160	0.041089
H467	H	0.684229	0.285173	0.374423
H468	H	1.017562	0.618507	0.707756
O469	O	0.443087	-0.026055	-0.000087
O470	O	0.776421	0.307278	0.333247
O471	O	1.109754	0.640611	0.666580
H472	H	0.481355	-0.018246	-0.000088
H473	H	0.814689	0.315087	0.333245
H474	H	1.148022	0.648421	0.666579
H475	H	0.623282	0.114758	-0.149778
H476	H	0.956615	0.448091	0.183555
H477	H	1.289948	0.781424	0.516889
O478	O	0.475244	-0.785356	-0.000050
O479	O	0.808577	-0.452022	0.333283
O480	O	1.141910	-0.118689	0.666616
H481	H	0.444860	-0.755125	-0.000040
H482	H	0.778194	-0.421791	0.333294
H483	H	1.111527	-0.088458	0.666627
H484	H	0.412744	0.145477	-0.000047
H485	H	0.746078	0.478810	0.333286
H486	H	1.079411	0.812143	0.666619
O487	O	0.313020	0.156133	-0.000062
O488	O	0.646354	0.489466	0.333272
O489	O	0.979687	0.822800	0.666605
H490	H	0.334796	0.187043	-0.000048
H491	H	0.668129	0.520376	0.333286
H492	H	1.001462	0.853709	0.666619
H493	H	0.623302	0.114752	-0.265160
H494	H	0.956635	0.448086	0.068174
H495	H	1.289968	0.781419	0.401507
H496	H	0.023501	0.185672	-0.000094
H497	H	0.356835	0.519006	0.333240
H498	H	0.690168	0.852339	0.666573
H499	H	0.652410	0.143869	-0.442354
H500	H	0.985743	0.477203	-0.109021
H501	H	1.319076	0.810536	0.224313
O502	O	0.664746	-0.195580	-0.000116
O503	O	0.998079	0.137753	0.333218
O504	O	1.331412	0.471086	0.666551
H505	H	0.666610	-0.218847	-0.041300
H506	H	0.999943	0.114486	0.292033
H507	H	1.333276	0.447820	0.625367
O508	O	0.660111	0.151566	-0.566130
O509	O	0.993444	0.484900	-0.232797
O510	O	1.326777	0.818233	0.100537
H511	H	0.686272	0.128220	-0.595104
H512	H	1.019605	0.461554	-0.261771
H513	H	1.352939	0.794887	0.071562
O514	O	-0.076224	0.196322	-0.000104
O515	O	0.257109	0.529656	0.333229
O516	O	0.590443	0.862989	0.666563
H517	H	-0.054452	0.227235	-0.000095
H518	H	0.278882	0.560568	0.333238
H519	H	0.612215	0.893902	0.666571
O520	O	0.112467	-0.073549	-0.000125
O521	O	0.445800	0.259785	0.333208
O522	O	0.779133	0.593118	0.666541
H523	H	0.142699	-0.103931	-0.000136
H524	H	0.476032	0.229402	0.333198
H525	H	0.809365	0.562736	0.666531
H526	H	0.446774	-0.391054	-0.000034
H527	H	0.780107	-0.057720	0.333299
H528	H	1.113440	0.275613	0.666632
H529	H	0.623340	0.114751	-0.850352
H530	H	0.956674	0.448084	-0.517018
H531	H	1.290007	0.781417	-0.183685
O532	O	0.217253	-0.072485	-0.000120
O533	O	0.550587	0.260849	0.333213
O534	O	0.883920	0.594182	0.666546
H535	H	0.255521	-0.064675	-0.000125
H536	H	0.588854	0.268658	0.333208
H537	H	0.922188	0.601992	0.666542
H538	H	0.174748	0.187200	-0.000077
H539	H	0.508082	0.520533	0.333257
H540	H	0.841415	0.853866	0.666590
O541	O	0.075027	0.197853	-0.000079
O542	O	0.408360	0.531186	0.333255
O543	O	0.741693	0.864519	0.666588
H544	H	0.096802	0.228763	-0.000067
H545	H	0.430135	0.562096	0.333266
H546	H	0.763469	0.895430	0.666599
O547	O	-0.197244	0.150958	-0.000094
O548	O	0.136090	0.484292	0.333239
O549	O	0.469423	0.817625	0.666572
H550	H	-0.227472	0.181345	-0.000094
H551	H	0.105862	0.514678	0.333239
H552	H	0.439195	0.848011	0.666572
O553	O	0.476306	-0.680572	-0.000057
O554	O	0.809640	-0.347239	0.333277
O555	O	1.142973	-0.013906	0.666610
H556	H	0.445396	-0.702347	-0.000060
H557	H	0.778729	-0.369014	0.333273
H558	H	1.112062	-0.035680	0.666606
O559	O	0.480974	-0.027754	-0.566203
O560	O	0.814307	0.305579	-0.232870
O561	O	1.147641	0.638913	0.100464
H562	H	0.454809	-0.004420	-0.595185
H563	H	0.788142	0.328914	-0.261851
H564	H	1.121475	0.662247	0.071482
O565	O	0.510087	0.001383	-0.858807
O566	O	0.843420	0.334716	-0.525474
O567	O	1.176754	0.668050	-0.192140
H568	H	0.489862	-0.018870	-0.826011
H569	H	0.823195	0.314464	-0.492678
H570	H	1.156529	0.647797	-0.159345
H571	H	0.447706	-0.299603	-0.000038
H572	H	0.781040	0.033731	0.333296
H573	H	1.114373	0.367064	0.666629
O574	O	0.665804	-0.090797	-0.000121
O575	O	0.999137	0.242537	0.333212
O576	O	1.332470	0.575870	0.666546
H577	H	0.696188	-0.121026	-0.000116
H578	H	1.029521	0.212307	0.333217
H579	H	1.362855	0.545640	0.666551
H580	H	0.695813	-0.333847	-0.000112
H581	H	1.029146	-0.000514	0.333222
H582	H	1.362480	0.332819	0.666555
O583	O	0.706465	-0.433568	-0.000114
O584	O	1.039798	-0.100235	0.333219
O585	O	1.373132	0.233099	0.666553
H586	H	0.737375	-0.411792	-0.000129
H587	H	1.070708	-0.078458	0.333204
H588	H	1.404041	0.254875	0.666537
H589	H	0.517758	0.009086	-0.735011
H590	H	0.851091	0.342419	-0.401678
H591	H	1.184424	0.675752	-0.068345
