data_functionalizedCrystal
_audit_creation_method	'MofGen! by Chris Wilmer'
_symmetry_space_group_name_H-M	'P1'
_symmetry_Int_Tables_number	1
_symmetry_cell_setting	triclinic
loop_
_symmetry_equiv_pos_as_xyz
  x,y,z
_cell_length_a	16.956984
_cell_length_b	12.811415
_cell_length_c	16.053802
_cell_angle_alpha	87.154093
_cell_angle_beta	87.610701
_cell_angle_gamma	80.066662
loop_
_atom_site_label
_atom_site_type_symbol
_atom_site_fract_x
_atom_site_fract_y
_atom_site_fract_z
O1	O	1.061673	0.038567	-0.072353
O2	O	0.829772	0.075219	-0.075128
O3	O	0.951002	-0.095622	-0.062189
O4	O	0.940442	0.209409	-0.085292
O5	O	0.944329	-0.086255	0.075960
O6	O	0.823098	0.084586	0.063021
O7	O	1.055000	0.047935	0.065797
Zn8	Zn	0.937990	0.067748	0.086343
Zn9	Zn	0.946782	0.055406	-0.095675
O10	O	0.933769	0.218776	0.052858
C11	C	0.796740	0.081779	-0.006196
C12	C	0.708258	0.087359	-0.006618
C13	C	0.675522	-0.005936	0.000449
C14	C	0.592384	-0.000687	0.000046
C15	C	0.541983	0.097858	-0.007419
C16	C	0.574725	0.191160	-0.014490
C17	C	0.657862	0.185910	-0.014092
C18	C	0.292392	0.123845	-0.009393
C19	C	0.209250	0.129089	-0.009788
C20	C	0.226915	-0.062759	0.004746
C21	C	0.310052	-0.068000	0.005148
C22	C	0.342787	0.025301	-0.001927
N23	N	0.457002	0.103226	-0.007829
N24	N	0.427767	0.019932	-0.001523
C25	C	0.946870	-0.129787	0.009826
C26	C	0.944488	-0.245541	0.018588
C27	C	0.947273	-0.473255	-0.115576
C28	C	0.945035	-0.582017	-0.107348
C29	C	0.937768	-0.571826	0.043272
C30	C	0.940006	-0.463064	0.035044
C31	C	0.944760	-0.413783	-0.044383
C32	C	0.947004	-0.305021	-0.052611
C33	C	0.939731	-0.294831	0.098008
C34	C	0.937493	-0.403592	0.106237
C35	C	1.088032	0.041374	-0.003138
C36	C	1.176514	0.035794	-0.002720
C37	C	0.937902	0.252940	-0.019159
C38	C	0.940284	0.368694	-0.027926
N39	N	0.931995	0.076169	0.210566
N40	N	0.952783	0.046975	-0.219896
C41	C	0.983598	0.003499	0.259763
C42	C	0.979412	0.009399	0.346723
C43	C	0.923627	0.087976	0.384484
C44	C	0.872018	0.160650	0.335279
C45	C	0.876201	0.154744	0.248322
C46	C	0.905357	0.113744	0.643942
C47	C	0.901180	0.119646	0.730906
C48	C	1.008573	-0.031607	0.742344
C49	C	1.012754	-0.037502	0.655384
C50	C	0.961143	0.035169	0.606187
N51	N	0.919349	0.094011	0.473370
N52	N	0.965418	0.029129	0.517303
H53	H	0.533682	0.271397	-0.020574
H54	H	0.933892	-0.611968	0.107937
H55	H	0.937687	-0.246398	0.155979
H56	H	0.351084	-0.148246	0.011231
H57	H	1.058179	-0.101485	0.624641
N58	N	0.191608	-0.163386	0.012380
H59	H	0.131294	-0.145112	0.010996
H60	H	0.212470	-0.209667	-0.035591
N61	N	0.154887	0.235379	-0.017869
H62	H	0.188240	0.293689	-0.022302
H63	H	0.122495	0.238226	-0.069569
H64	H	1.029028	-0.060482	0.229025
N65	N	0.952334	-0.420028	-0.201220
H66	H	1.002715	-0.387813	-0.207054
H67	H	0.953536	-0.474218	-0.245053
H68	H	1.021431	-0.049776	0.386780
H69	H	0.933619	-0.443731	0.170904
H70	H	0.855750	0.183637	0.761645
N71	N	0.849689	0.192115	0.590887
H72	H	0.813717	0.242788	0.628005
H73	H	0.882245	0.233210	0.551492
H74	H	1.050592	-0.090773	0.782407
N75	N	0.811850	0.245408	0.375997
H76	H	0.755937	0.237197	0.361424
H77	H	0.817100	0.238085	0.438539
N78	N	0.729879	-0.112224	0.008510
H79	H	0.696522	-0.170528	0.012925
H80	H	0.767234	-0.122057	-0.042221
N81	N	0.557074	-0.101311	0.007670
H82	H	0.601617	-0.164535	0.012466
H83	H	0.520489	-0.099833	0.059034
N84	N	0.947775	-0.646160	-0.184139
H85	H	0.900452	-0.616742	-0.219471
H86	H	0.999102	-0.642144	-0.217448
H87	H	0.834179	0.213919	0.208265
H88	H	0.319035	0.199818	-0.015160
H89	H	0.950877	-0.264899	-0.117284
N90	N	0.693175	0.286534	-0.021722
H91	H	0.648633	0.349759	-0.026511
H92	H	0.724813	0.292011	0.029338
