data_functionalizedCrystal
_audit_creation_method	'MofGen! by Chris Wilmer'
_symmetry_space_group_name_H-M	'P1'
_symmetry_Int_Tables_number	1
_symmetry_cell_setting	triclinic
loop_
_symmetry_equiv_pos_as_xyz
  x,y,z
_cell_length_a	16.120297
_cell_length_b	14.908783
_cell_length_c	14.908178
_cell_angle_alpha	96.402596
_cell_angle_beta	89.407022
_cell_angle_gamma	89.410993
loop_
_atom_site_label
_atom_site_type_symbol
_atom_site_fract_x
_atom_site_fract_y
_atom_site_fract_z
Zn1	Zn	-0.525930	1.332447	-0.311284
Zn2	Zn	-0.378884	1.332179	-0.454106
Zn3	Zn	-0.378897	1.189636	-0.311469
Zn4	Zn	-0.508899	1.173311	-0.470348
O5	O	-0.448152	1.256893	-0.386802
O6	O	-0.513545	1.458666	-0.323354
O7	O	-0.262940	1.319990	-0.428465
O8	O	-0.405534	1.215524	-0.185182
O9	O	-0.405511	1.458469	-0.428285
O10	O	-0.513558	1.320447	-0.185045
O11	O	-0.262950	1.215264	-0.323671
O12	O	-0.389020	1.061216	-0.339420
O13	O	-0.627103	1.187701	-0.455968
O14	O	-0.484532	1.049223	-0.456148
O15	O	-0.639616	1.304618	-0.339104
O16	O	-0.388997	1.304162	-0.582524
O17	O	-0.484519	1.187442	-0.594457
C18	C	-0.434930	1.022483	-0.399567
C19	C	-0.429292	0.922199	-0.405052
C20	C	-0.531346	0.733939	-0.306259
C21	C	-0.526051	0.639714	-0.311409
C22	C	-0.413405	0.639520	-0.420495
C23	C	-0.418699	0.733746	-0.415346
C24	C	-0.477673	0.780952	-0.358227
C25	C	-0.482971	0.875179	-0.353082
C26	C	-0.370321	0.874985	-0.462163
C27	C	-0.365026	0.780759	-0.467313
C28	C	-0.664264	1.244368	-0.399327
C29	C	-0.756357	1.239031	-0.404664
C30	C	-0.924974	1.229254	-0.414390
C31	C	-0.972208	1.284725	-0.358933
C32	C	-1.066032	1.279285	-0.364345
C33	C	-0.831141	1.234693	-0.408980
C34	C	-0.232888	1.269425	-0.374258
C35	C	-0.140819	1.274951	-0.368657
C36	C	-0.434928	1.244025	-0.621228
C37	C	-0.429303	1.238600	-0.721514
C38	C	-0.461427	1.492219	-0.373987
C39	C	-0.467083	1.592501	-0.368526
C40	C	-0.531328	1.337569	-0.909681
C41	C	-0.526045	1.332476	-1.003909
C42	C	-0.413461	1.223315	-1.004199
C43	C	-0.418743	1.228409	-0.909971
C44	C	-0.477678	1.285539	-0.862716
C45	C	-0.482955	1.290637	-0.768486
C46	C	-0.370376	1.181472	-0.768779
C47	C	-0.365093	1.176378	-0.863006
C48	C	-0.461448	1.269836	-0.151460
C49	C	-0.467113	1.275351	-0.051171
H50	H	-0.326622	0.913272	-0.504486
H51	H	-0.569756	0.601439	-0.269090
Cl52	Cl	-0.339398	1.151477	-1.063623
H53	H	-0.530941	1.337158	-0.730011
H54	H	-0.954998	1.177684	-0.465930
Cl55	Cl	-0.339264	0.580161	-0.492284
Cl56	Cl	-0.925854	1.364374	-0.279374
H57	H	-0.317009	0.742311	-0.513815
H58	H	-0.579309	1.384094	-0.871204
Cl59	Cl	-0.593496	1.397886	-1.062949
H60	H	-0.326688	1.139107	-0.730528
H61	H	-0.317113	1.129862	-0.901495
H62	H	-0.530991	0.913613	-0.306574
H63	H	-0.579368	0.772375	-0.259755
