data_functionalizedCrystal
_audit_creation_method	'MofGen! by Chris Wilmer'
_symmetry_space_group_name_H-M	'P1'
_symmetry_Int_Tables_number	1
_symmetry_cell_setting	triclinic
loop_
_symmetry_equiv_pos_as_xyz
  x,y,z
_cell_length_a	14.044220
_cell_length_b	14.853567
_cell_length_c	13.930277
_cell_angle_alpha	90.000757
_cell_angle_beta	90.002277
_cell_angle_gamma	88.411904
loop_
_atom_site_label
_atom_site_type_symbol
_atom_site_fract_x
_atom_site_fract_y
_atom_site_fract_z
O1	O	-1.257997	-0.217372	-0.079714
O2	O	-0.757997	0.282628	0.420286
O3	O	-0.982017	-0.209528	-0.079738
O4	O	-0.482017	0.290472	0.420262
O5	O	-1.127379	-0.082805	-0.079728
O6	O	-0.627379	0.417195	0.420272
O7	O	-1.112635	-0.344096	-0.079724
O8	O	-0.612635	0.155904	0.420276
O9	O	-1.127359	-0.082800	0.079934
O10	O	-0.627359	0.417200	0.579934
O11	O	-0.981997	-0.209524	0.079923
O12	O	-0.481997	0.290476	0.579923
O13	O	-1.257976	-0.217368	0.079948
O14	O	-0.757976	0.282632	0.579948
Zn15	Zn	-1.119983	-0.213445	0.105286
Zn16	Zn	-0.619983	0.286555	0.605286
Zn17	Zn	-1.120010	-0.213451	-0.105076
Zn18	Zn	-0.620010	0.286549	0.394924
O19	O	-1.112615	-0.344091	0.079938
O20	O	-0.612615	0.155909	0.579938
C21	C	-1.126701	-0.049161	0.000100
C22	C	-0.626701	0.450839	0.500100
C23	C	-1.124699	0.051082	0.000091
C24	C	-0.624699	0.551082	0.500091
C25	C	-0.946688	-0.206092	0.000089
C26	C	-0.446688	0.293908	0.500089
C27	C	-0.841449	-0.195851	0.000079
C28	C	-0.341449	0.304149	0.500079
C29	C	-1.293306	-0.220803	0.000118
C30	C	-0.793306	0.279197	0.500118
C31	C	-1.398545	-0.231045	0.000122
C32	C	-0.898545	0.268955	0.500122
C33	C	-0.648763	-0.177127	0.000098
C34	C	-0.148763	0.322873	0.500098
C35	C	-0.591225	-0.249765	0.000103
C36	C	-0.091225	0.250235	0.500103
C37	C	-0.484008	-0.239347	0.000114
C38	C	0.015992	0.260653	0.500114
C39	C	-0.755990	-0.187544	0.000088
C40	C	-0.255990	0.312456	0.500088
C41	C	-1.113293	-0.377735	0.000108
C42	C	-0.613293	0.122265	0.500108
C43	C	-1.115295	-0.477978	0.000110
C44	C	-0.615295	0.022022	0.500110
N45	N	-1.119972	-0.213441	0.248852
N46	N	-0.619972	0.286559	0.748852
C47	C	-1.029888	0.471127	0.000101
C48	C	-0.529888	0.971127	0.500101
C49	C	-1.202581	0.478726	0.000116
C50	C	-0.702581	0.978726	0.500116
C51	C	-1.204464	0.384543	0.000111
C52	C	-0.704464	0.884543	0.500111
C53	C	-1.119057	0.333648	0.000102
C54	C	-0.619057	0.833648	0.500102
C55	C	-1.031768	0.376935	0.000098
C56	C	-0.531768	0.876935	0.500098
C57	C	-1.291751	0.341248	0.000124
C58	C	-0.791751	0.841248	0.500124
C59	C	-1.293637	0.247060	0.000120
C60	C	-0.793637	0.747060	0.500120
C61	C	-1.208229	0.196163	0.000104
C62	C	-0.708229	0.696163	0.500104
C63	C	-1.120937	0.239456	0.000099
C64	C	-0.620937	0.739456	0.500099
C65	C	-1.035530	0.188561	0.000090
C66	C	-0.535530	0.688561	0.500090
C67	C	-0.948237	0.231852	0.000079
C68	C	-0.448237	0.731852	0.500079
C69	C	-0.946360	0.326038	0.000083
C70	C	-0.446360	0.826038	0.500083
C71	C	-1.210105	0.101977	0.000100
C72	C	-0.710105	0.601977	0.500100
C73	C	-1.037410	0.094369	0.000088
C74	C	-0.537410	0.594369	0.500088
N75	N	-1.120029	-0.213449	-0.248642
N76	N	-0.620029	0.286551	0.251358
C77	C	-1.055641	-0.269540	0.701116
C78	C	-0.555641	0.230460	1.201116
C79	C	-1.184405	-0.157357	0.701095
C80	C	-0.684405	0.342643	1.201095
C81	C	-1.184394	-0.157353	0.600599
C82	C	-0.684394	0.342647	1.100599
C83	C	-1.120006	-0.213445	0.550357
C84	C	-0.620006	0.286555	1.050357
C85	C	-1.055630	-0.269540	0.600611
C86	C	-0.555630	0.230460	1.100611
C87	C	-1.248775	-0.101266	0.550338
C88	C	-0.748775	0.398734	1.050338
C89	C	-1.248767	-0.101260	0.449836
C90	C	-0.748767	0.398740	0.949836
C91	C	-1.184374	-0.157348	0.399592
C92	C	-0.684374	0.342652	0.899592
C93	C	-1.119995	-0.213445	0.449852
C94	C	-0.619995	0.286555	0.949852
C95	C	-1.055608	-0.269536	0.399611
C96	C	-0.555608	0.230464	0.899611
C97	C	-0.991223	-0.325629	0.449869
C98	C	-0.491223	0.174371	0.949869
C99	C	-0.991237	-0.325627	0.550368
C100	C	-0.491237	0.174373	1.050368
C101	C	-1.184360	-0.157349	0.299093
C102	C	-0.684360	0.342651	0.799093
C103	C	-1.055596	-0.269536	0.299106
C104	C	-0.555596	0.230464	0.799106
H105	H	-0.622488	-0.319778	0.000100
H106	H	-0.122488	0.180222	0.500100
H107	H	-0.617501	-0.107120	0.000102
H108	H	-0.117501	0.392880	0.500102
H109	H	-0.967860	0.052936	0.000076
H110	H	-0.467860	0.552936	0.500076
H111	H	-0.878699	0.190401	0.000078
H112	H	-0.378699	0.690401	0.500078
H113	H	-0.875291	0.361295	0.000074
H114	H	-0.375291	0.861295	0.500074
F115	F	-0.936989	0.517200	0.000081
F116	F	-0.436989	1.017200	0.500081
F117	F	-1.293471	0.532894	0.000140
F118	F	-0.793471	1.032894	0.500140
F119	F	-1.317303	-0.041578	0.603808
F120	F	-0.817303	0.458422	1.103808
F121	F	-1.382640	0.395419	0.000152
F122	F	-0.882640	0.895419	0.500152
F123	F	-1.386540	0.200994	0.000120
F124	F	-0.886540	0.700994	0.500120
H125	H	-1.281178	0.066733	0.000116
H126	H	-0.781178	0.566733	0.500116
F127	F	-0.987060	-0.329233	0.245642
F128	F	-0.487060	0.170767	0.745642
F129	F	-0.922705	-0.385329	0.396387
F130	F	-0.422705	0.114671	0.896387
F131	F	-0.922722	-0.385323	0.603860
F132	F	-0.422722	0.114677	1.103860
H133	H	-1.301191	-0.055586	0.408921
H134	H	-0.801191	0.444414	0.908921
F135	F	-1.252883	-0.097661	0.245611
F136	F	-0.752883	0.402339	0.745611
F137	F	-0.987118	-0.329232	0.754603
F138	F	-0.487118	0.170768	1.254603
F139	F	-1.252933	-0.097669	0.754565
F140	F	-0.752933	0.402331	1.254565
