data_functionalizedCrystal
_audit_creation_method	'MofGen! by Chris Wilmer'
_symmetry_space_group_name_H-M	'P1'
_symmetry_Int_Tables_number	1
_symmetry_cell_setting	triclinic
loop_
_symmetry_equiv_pos_as_xyz
  x,y,z
_cell_length_a	14.044220
_cell_length_b	16.109301
_cell_length_c	14.586319
_cell_angle_alpha	89.994786
_cell_angle_beta	90.001391
_cell_angle_gamma	88.325179
loop_
_atom_site_label
_atom_site_type_symbol
_atom_site_fract_x
_atom_site_fract_y
_atom_site_fract_z
O1	O	1.257643	0.200436	-0.076149
O2	O	1.507643	0.450436	0.173851
O3	O	1.757643	0.700436	0.423851
O4	O	2.007643	0.950436	0.673851
O5	O	0.981677	0.193203	-0.076172
O6	O	1.231677	0.443203	0.173828
O7	O	1.481677	0.693203	0.423828
O8	O	1.731677	0.943203	0.673828
O9	O	1.127241	0.076352	-0.076150
O10	O	1.377241	0.326352	0.173850
O11	O	1.627241	0.576352	0.423850
O12	O	1.877241	0.826352	0.673850
O13	O	1.112079	0.317286	-0.076170
O14	O	1.362079	0.567286	0.173830
O15	O	1.612079	0.817286	0.423830
O16	O	1.862079	1.067286	0.673830
O17	O	1.127231	0.076350	0.076331
O18	O	1.377231	0.326350	0.326331
O19	O	1.627231	0.576350	0.576331
O20	O	1.877231	0.826350	0.826331
O21	O	0.981666	0.193200	0.076309
O22	O	1.231666	0.443200	0.326309
O23	O	1.481666	0.693200	0.576309
O24	O	1.731666	0.943200	0.826309
O25	O	1.257633	0.200433	0.076332
O26	O	1.507633	0.450433	0.326332
O27	O	1.757633	0.700433	0.576332
O28	O	2.007633	0.950433	0.826332
Cu29	Cu	1.119649	0.196816	0.090243
Cu30	Cu	1.369649	0.446816	0.340243
Cu31	Cu	1.619649	0.696816	0.590243
Cu32	Cu	1.869649	0.946816	0.840243
Cu33	Cu	1.119661	0.196820	-0.090083
Cu34	Cu	1.369661	0.446820	0.159917
Cu35	Cu	1.619661	0.696820	0.409917
Cu36	Cu	1.869661	0.946820	0.659917
O37	O	1.112069	0.317284	0.076311
O38	O	1.362069	0.567284	0.326311
O39	O	1.612069	0.817284	0.576311
O40	O	1.862069	1.067284	0.826311
C41	C	1.126622	0.045330	0.000091
C42	C	1.376622	0.295330	0.250091
C43	C	1.626622	0.545330	0.500091
C44	C	1.876622	0.795330	0.750091
C45	C	1.124781	-0.047102	0.000092
C46	C	1.374781	0.202898	0.250092
C47	C	1.624781	0.452898	0.500092
C48	C	1.874781	0.702898	0.750092
C49	C	0.946358	0.190036	0.000066
C50	C	1.196358	0.440036	0.250066
C51	C	1.446358	0.690036	0.500066
C52	C	1.696358	0.940036	0.750066
C53	C	0.841135	0.180592	0.000058
C54	C	1.091135	0.430592	0.250058
C55	C	1.341135	0.680592	0.500058
C56	C	1.591135	0.930592	0.750058
C57	C	1.206874	-0.263266	0.000084
C58	C	1.456874	-0.013266	0.250084
C59	C	1.706874	0.236734	0.500084
C60	C	1.956874	0.486734	0.750084
C61	C	1.205137	-0.350116	0.000076
C62	C	1.455137	-0.100116	0.250076
C63	C	1.705137	0.149884	0.500076
C64	C	1.955137	0.399884	0.750076
C65	C	1.032429	-0.343091	0.000066
C66	C	1.282429	-0.093091	0.250066
C67	C	1.532429	0.156909	0.500066
C68	C	1.782429	0.406909	0.750066
C69	C	1.034168	-0.256243	0.000067
C70	C	1.284168	-0.006243	0.250067
C71	C	1.534168	0.243757	0.500067
C72	C	1.784168	0.493757	0.750067
C73	C	1.121393	-0.216333	0.000081
C74	C	1.371393	0.033667	0.250081
C75	C	1.621393	0.283667	0.500081
C76	C	1.871393	0.533667	0.750081
C77	C	1.117917	-0.390031	0.000072
C78	C	1.367917	-0.140031	0.250072
C79	C	1.617917	0.109969	0.500072
C80	C	1.867917	0.359969	0.750072
C81	C	1.116032	-0.484197	0.000064
C82	C	1.366032	-0.234197	0.250064
C83	C	1.616032	0.015803	0.500064
C84	C	1.866032	0.265803	0.750064
C85	C	1.123278	-0.122161	0.000087
C86	C	1.373278	0.127839	0.250087
C87	C	1.623278	0.377839	0.500087
C88	C	1.873278	0.627839	0.750087
C89	C	0.648479	0.163326	0.000077
C90	C	0.898479	0.413326	0.250077
C91	C	1.148479	0.663326	0.500077
C92	C	1.398479	0.913326	0.750077
C93	C	0.590825	0.230306	0.000075
C94	C	0.840825	0.480306	0.250075
C95	C	1.090825	0.730306	0.500075
C96	C	1.340825	0.980306	0.750075
C97	C	0.483625	0.220699	0.000086
C98	C	0.733625	0.470699	0.250086
C99	C	0.983625	0.720699	0.500086
C100	C	1.233625	0.970699	0.750086
C101	C	0.755690	0.172932	0.000066
C102	C	1.005690	0.422932	0.250066
C103	C	1.255690	0.672932	0.500066
C104	C	1.505690	0.922932	0.750066
C105	C	1.292952	0.203600	0.000093
C106	C	1.542952	0.453600	0.250093
C107	C	1.792952	0.703600	0.500093
C108	C	2.042952	0.953600	0.750093
C109	C	1.398175	0.213044	0.000095
C110	C	1.648175	0.463044	0.250095
C111	C	1.898175	0.713044	0.500095
C112	C	2.148175	0.963044	0.750095
C113	C	1.112688	0.348306	0.000068
C114	C	1.362688	0.598306	0.250068
C115	C	1.612688	0.848306	0.500068
C116	C	1.862688	1.098306	0.750068
C117	C	1.114529	0.440738	0.000061
C118	C	1.364529	0.690738	0.250061
C119	C	1.614529	0.940738	0.500061
C120	C	1.864529	1.190738	0.750061
N121	N	1.119647	0.196814	0.217075
N122	N	1.369647	0.446814	0.467075
N123	N	1.619647	0.696814	0.717075
N124	N	1.869647	0.946814	0.967075
N125	N	1.119670	0.196816	-0.216915
N126	N	1.369670	0.446816	0.033085
N127	N	1.619670	0.696816	0.283085
N128	N	1.869670	0.946816	0.533085
C129	C	1.184125	0.145093	0.452091
C130	C	1.434125	0.395093	0.702091
C131	C	1.684125	0.645093	0.952091
C132	C	1.934125	0.895093	1.202091
C133	C	1.184128	0.145092	0.548072
C134	C	1.434128	0.395092	0.798072
C135	C	1.684128	0.645092	1.048072
C136	C	1.934128	0.895092	1.298072
C137	C	1.055186	0.248539	0.548063
C138	C	1.305186	0.498539	0.798063
C139	C	1.555186	0.748539	1.048063
C140	C	1.805186	0.998539	1.298063
C141	C	1.055179	0.248536	0.452083
C142	C	1.305179	0.498536	0.702083
C143	C	1.555179	0.748536	0.952083
C144	C	1.805179	0.998536	1.202083
C145	C	1.119654	0.196814	0.404100
C146	C	1.369654	0.446814	0.654100
C147	C	1.619654	0.696814	0.904100
C148	C	1.869654	0.946814	1.154100
C149	C	1.119663	0.196816	0.596061
C150	C	1.369663	0.446816	0.846061
C151	C	1.619663	0.696816	1.096061
C152	C	1.869663	0.946816	1.346061
C153	C	1.119666	0.196814	0.700128
C154	C	1.369666	0.446814	0.950128
C155	C	1.619666	0.696814	1.200128
C156	C	1.869666	0.946814	1.450128
C157	C	1.119651	0.196815	0.300026
C158	C	1.369651	0.446815	0.550026
C159	C	1.619651	0.696815	0.800026
C160	C	1.869651	0.946815	1.050026
H161	H	1.277898	-0.230774	0.000094
H162	H	1.527898	0.019226	0.250094
H163	H	1.777898	0.269226	0.500094
H164	H	2.027898	0.519226	0.750094
H165	H	0.621976	0.294863	0.000066
H166	H	0.871976	0.544863	0.250066
H167	H	1.121976	0.794863	0.500066
H168	H	1.371976	1.044863	0.750066
C169	C	1.255049	0.088202	0.600859
C170	C	1.505049	0.338202	0.850859
C171	C	1.755049	0.588202	1.100859
C172	C	2.005049	0.838202	1.350859
H173	H	1.293448	0.057405	0.558532
H174	H	1.543448	0.307405	0.808532
H175	H	1.793448	0.557405	1.058532
H176	H	2.043448	0.807405	1.308532
H177	H	1.220972	0.051046	0.638306
H178	H	1.470972	0.301046	0.888306
H179	H	1.720972	0.551046	1.138306
H180	H	1.970972	0.801046	1.388306
H181	H	1.294498	0.121062	0.638294
H182	H	1.544498	0.371062	0.888294
H183	H	1.794498	0.621062	1.138294
H184	H	2.044498	0.871062	1.388294
H185	H	1.274744	-0.388326	0.000077
H186	H	1.524744	-0.138326	0.250077
H187	H	1.774744	0.111674	0.500077
H188	H	2.024744	0.361674	0.750077
H189	H	1.002693	0.290650	0.587140
H190	H	1.252693	0.540650	0.837140
H191	H	1.502693	0.790650	1.087140
H192	H	1.752693	1.040650	1.337140
H193	H	0.617330	0.098774	0.000087
H194	H	0.867330	0.348774	0.250087
H195	H	1.117330	0.598774	0.500087
H196	H	1.367330	0.848774	0.750087
H197	H	0.961413	-0.375597	0.000056
H198	H	1.211413	-0.125597	0.250056
H199	H	1.461413	0.124403	0.500056
H200	H	1.711413	0.374403	0.750056
H201	H	1.236623	0.102977	0.413025
H202	H	1.486623	0.352977	0.663025
H203	H	1.736623	0.602977	0.913025
H204	H	1.986623	0.852977	1.163025
H205	H	1.002675	0.290653	0.413006
H206	H	1.252675	0.540653	0.663006
H207	H	1.502675	0.790653	0.913006
H208	H	1.752675	1.040653	1.163006
H209	H	0.964554	-0.218029	0.000061
H210	H	1.214554	0.031971	0.250061
H211	H	1.464554	0.281971	0.500061
H212	H	1.714554	0.531971	0.750061
