data_functionalizedCrystal
_audit_creation_method	'MofGen! by Chris Wilmer'
_symmetry_space_group_name_H-M	'P1'
_symmetry_Int_Tables_number	1
_symmetry_cell_setting	triclinic
loop_
_symmetry_equiv_pos_as_xyz
  x,y,z
_cell_length_a	10.654550
_cell_length_b	11.792254
_cell_length_c	9.130313
_cell_angle_alpha	89.998555
_cell_angle_beta	89.996220
_cell_angle_gamma	84.341750
loop_
_atom_site_label
_atom_site_type_symbol
_atom_site_fract_x
_atom_site_fract_y
_atom_site_fract_z
O1	O	1.667391	0.159414	-0.121921
O2	O	1.301870	0.174602	-0.121897
O3	O	1.493493	0.001859	-0.121899
O4	O	1.475769	0.332157	-0.121919
O5	O	1.493490	0.001864	0.121700
O6	O	1.301868	0.174607	0.121702
O7	O	1.667389	0.159418	0.121678
Cu8	Cu	1.484628	0.167013	0.143932
Cu9	Cu	1.484631	0.167008	-0.144151
O10	O	1.475767	0.332162	0.121680
C11	C	1.492375	-0.040432	-0.000100
C12	C	1.489033	-0.166453	-0.000101
C13	C	1.255074	0.173489	-0.000095
C14	C	1.115640	0.170153	-0.000086
C15	C	1.035872	0.271861	-0.000113
C16	C	0.904860	0.268719	-0.000138
C17	C	0.933397	0.062152	-0.000114
C18	C	1.064407	0.065295	-0.000079
C19	C	1.019395	0.391122	-0.000133
C20	C	0.888383	0.387980	-0.000158
C21	C	1.486318	-0.268796	-0.000106
C22	C	1.482923	-0.397190	-0.000119
C23	C	1.714185	0.160531	-0.000127
C24	C	1.853619	0.163868	-0.000146
C25	C	1.476884	0.374453	-0.000122
C26	C	1.480226	0.500473	-0.000131
N27	N	1.484635	0.167016	0.346555
N28	N	1.484634	0.166995	-0.346774
C29	C	1.569508	0.090552	0.423206
C30	C	1.569504	0.090538	0.576543
C31	C	1.399752	0.243464	0.576564
C32	C	1.399751	0.243471	0.423230
C33	C	1.667516	0.002265	0.423195
C34	C	1.667513	0.002251	0.576532
H35	H	0.891667	-0.023221	-0.000132
H36	H	0.846527	0.432913	-0.102114
H37	H	1.646316	-0.084976	0.381582
H38	H	1.129351	-0.017526	-0.000036
H39	H	1.054946	0.429094	-0.105307
O40	O	1.054415	0.446611	0.121531
C41	C	1.138086	0.372725	0.205457
H42	H	1.185175	0.302833	0.131975
H43	H	1.213210	0.422953	0.256194
H44	H	1.083535	0.332645	0.296066
H45	H	0.842611	0.424024	0.105008
H46	H	1.763970	0.021698	0.618141
O47	O	1.317251	0.317849	0.348997
C48	C	1.242314	0.385305	0.449558
H49	H	1.293812	0.387023	0.558854
H50	H	1.223753	0.475790	0.405260
H51	H	1.148781	0.347651	0.465874
H52	H	1.330641	0.305710	0.639009
O53	O	1.776195	0.035413	0.366634
C54	C	1.791973	0.146803	0.414462
H55	H	1.736298	0.165430	0.519812
H56	H	1.896225	0.154474	0.435757
H57	H	1.756155	0.210577	0.326495
H58	H	1.637229	-0.080191	0.624086
