data_functionalizedCrystal
_audit_creation_method	'MofGen! by Chris Wilmer'
_symmetry_space_group_name_H-M	'P1'
_symmetry_Int_Tables_number	1
_symmetry_cell_setting	triclinic
loop_
_symmetry_equiv_pos_as_xyz
  x,y,z
_cell_length_a	10.685976
_cell_length_b	12.594516
_cell_length_c	10.686551
_cell_angle_alpha	85.594704
_cell_angle_beta	89.651515
_cell_angle_gamma	85.648466
loop_
_atom_site_label
_atom_site_type_symbol
_atom_site_fract_x
_atom_site_fract_y
_atom_site_fract_z
Zn1	Zn	1.972239	-0.514686	-0.561886
Zn2	Zn	2.472239	-0.014686	-0.061886
Zn3	Zn	1.956023	-0.705236	-0.352133
Zn4	Zn	2.456023	-0.205236	0.147867
Zn5	Zn	1.746367	-0.512687	-0.368261
Zn6	Zn	2.246367	-0.012687	0.131739
Zn7	Zn	1.762460	-0.678033	-0.577960
Zn8	Zn	2.262460	-0.178033	-0.077960
O9	O	1.859272	-0.602660	-0.465060
O10	O	2.359272	-0.102660	0.034940
O11	O	2.145623	-0.552183	-0.520585
O12	O	2.645623	-0.052183	-0.020585
O13	O	1.914691	-0.690242	-0.178731
O14	O	2.414691	-0.190242	0.321269
O15	O	1.776381	-0.364008	-0.393969
O16	O	2.276381	0.135992	0.106031
O17	O	2.133710	-0.692180	-0.366481
O18	O	2.633710	-0.192180	0.133519
O19	O	1.942328	-0.365477	-0.536224
O20	O	2.442328	0.134523	-0.036224
O21	O	1.760657	-0.548777	-0.190580
O22	O	2.260657	-0.048777	0.309420
O23	O	1.572966	-0.522399	-0.409555
O24	O	2.072966	-0.022399	0.090445
O25	O	1.803809	-0.645817	-0.751370
O26	O	2.303809	-0.145817	-0.251370
O27	O	1.584790	-0.643878	-0.563620
O28	O	2.084790	-0.143878	-0.063620
O29	O	1.957933	-0.525806	-0.739560
O30	O	2.457933	-0.025806	-0.239560
O31	O	1.930295	-0.850571	-0.382067
O32	O	2.430295	-0.350571	0.117933
O33	O	1.788085	-0.830585	-0.547981
O34	O	2.288085	-0.330585	-0.047981
C35	C	1.533364	-0.579971	-0.490083
C36	C	2.033364	-0.079971	0.009917
C37	C	1.393941	-0.570288	-0.500817
C38	C	1.893941	-0.070288	-0.000817
C39	C	1.859212	-0.879199	-0.465043
C40	C	2.359212	-0.379199	0.034957
C41	C	1.859305	-0.997508	-0.465069
C42	C	2.359305	-0.497508	0.034931
C43	C	1.936757	-1.077594	-0.374910
C44	C	2.436757	-0.577594	0.125090
C45	C	1.976201	-1.143574	-0.487052
C46	C	2.476201	-0.643574	0.012948
C47	C	1.820024	-1.142334	-0.352988
C48	C	2.320024	-0.642334	0.147012
C49	C	1.898812	-1.061930	-0.577266
C50	C	2.398812	-0.561930	-0.077266
C51	C	1.742575	-1.060685	-0.443129
C52	C	2.242575	-0.560685	0.056871
C53	C	1.781982	-1.126625	-0.555353
C54	C	2.281982	-0.626625	-0.055353
C55	C	2.186454	-0.625439	-0.439941
C56	C	2.686454	-0.125439	0.060059
C57	C	2.325879	-0.635146	-0.429237
C58	C	2.825879	-0.135146	0.070763
C59	C	1.884475	-0.583000	-0.792254
C60	C	2.384475	-0.083000	-0.292254
C61	C	1.895214	-0.574622	-0.931684
C62	C	2.395214	-0.074622	-0.431684
C63	C	1.859369	-0.325043	-0.465103
C64	C	2.359369	0.174957	0.034897
C65	C	1.859410	-0.206739	-0.465121
C66	C	2.359410	0.293261	0.034879
C67	C	1.834240	-0.622173	-0.139134
C68	C	2.334240	-0.122173	0.360866
C69	C	1.823743	-0.630268	0.000314
C70	C	2.323743	-0.130268	0.500314
H71	H	1.374277	-0.698093	-0.359741
H72	H	1.874277	-0.198093	0.140259
H73	H	1.345550	-0.507354	-0.570319
H74	H	1.845550	-0.007354	-0.070319
H75	H	2.002272	-1.055710	-0.298729
H76	H	2.502272	-0.555710	0.201271
H77	H	2.074962	-1.179783	-0.505640
H78	H	2.574962	-0.679783	-0.005640
Br79	Br	1.954466	-1.003562	-0.735313
Br80	Br	2.454466	-0.503562	-0.235313
Br81	Br	1.672894	-1.162768	-0.682598
Br82	Br	2.172894	-0.662768	-0.182598
Br83	Br	1.708066	-0.720367	-0.918938
Br84	Br	2.208066	-0.220367	-0.418938
Br85	Br	2.010918	-0.484537	-1.012435
Br86	Br	2.510918	0.015463	-0.512435
H87	H	1.643839	-1.024457	-0.424504
H88	H	2.143839	-0.524457	0.075496
H89	H	1.786758	-1.177497	-0.258181
H90	H	2.286758	-0.677497	0.241819
