data_functionalizedCrystal
_audit_creation_method	'MofGen! by Chris Wilmer'
_symmetry_space_group_name_H-M	'P1'
_symmetry_Int_Tables_number	1
_symmetry_cell_setting	triclinic
loop_
_symmetry_equiv_pos_as_xyz
  x,y,z
_cell_length_a	16.120530
_cell_length_b	18.050582
_cell_length_c	16.120484
_cell_angle_alpha	92.874938
_cell_angle_beta	90.167327
_cell_angle_gamma	87.088397
loop_
_atom_site_label
_atom_site_type_symbol
_atom_site_fract_x
_atom_site_fract_y
_atom_site_fract_z
Zn1	Zn	1.254423	-0.494362	-0.395664
Zn2	Zn	1.504423	-0.244362	-0.145664
Zn3	Zn	1.754423	0.005638	0.104336
Zn4	Zn	2.004423	0.255638	0.354336
Zn5	Zn	1.247279	-0.376125	-0.534710
Zn6	Zn	1.497279	-0.126125	-0.284710
Zn7	Zn	1.747279	0.123875	-0.034710
Zn8	Zn	1.997279	0.373875	0.215290
Zn9	Zn	1.115376	-0.363595	-0.388616
Zn10	Zn	1.365376	-0.113595	-0.138616
Zn11	Zn	1.615376	0.136405	0.111384
Zn12	Zn	1.865376	0.386405	0.361384
Zn13	Zn	1.108276	-0.493682	-0.527617
Zn14	Zn	1.358276	-0.243682	-0.277617
Zn15	Zn	1.608276	0.006318	-0.027617
Zn16	Zn	1.858276	0.256318	0.222383
O17	O	1.181338	-0.431941	-0.461651
O18	O	1.431338	-0.181941	-0.211651
O19	O	1.681338	0.068059	0.038349
O20	O	1.931338	0.318059	0.288349
O21	O	1.369840	-0.484206	-0.420027
O22	O	1.619840	-0.234206	-0.170027
O23	O	1.869840	0.015794	0.079973
O24	O	2.119840	0.265794	0.329973
O25	O	1.229763	-0.270538	-0.515349
O26	O	1.479763	-0.020538	-0.265349
O27	O	1.729763	0.229462	-0.015349
O28	O	1.979763	0.479462	0.234651
O29	O	1.139783	-0.375982	-0.273187
O30	O	1.389783	-0.125982	-0.023187
O31	O	1.639783	0.124018	0.226813
O32	O	1.889783	0.374018	0.476813
O33	O	1.364591	-0.397338	-0.522183
O34	O	1.614591	-0.147338	-0.272183
O35	O	1.864591	0.102662	-0.022183
O36	O	2.114591	0.352662	0.227817
O37	O	1.241940	-0.472056	-0.278365
O38	O	1.491940	-0.222056	-0.028365
O39	O	1.741940	0.027944	0.221635
O40	O	1.991940	0.277944	0.471635
O41	O	1.132855	-0.261332	-0.408014
O42	O	1.382855	-0.011332	-0.158014
O43	O	1.632855	0.238668	0.091986
O44	O	1.882855	0.488668	0.341986
O45	O	0.998069	-0.375323	-0.401136
O46	O	1.248069	-0.125323	-0.151136
O47	O	1.498069	0.124677	0.098864
O48	O	1.748069	0.374677	0.348864
O49	O	1.127681	-0.597697	-0.510094
O50	O	1.377681	-0.347697	-0.260094
O51	O	1.627681	-0.097697	-0.010094
O52	O	1.877681	0.152303	0.239906
O53	O	0.992853	-0.470898	-0.503260
O54	O	1.242853	-0.220898	-0.253260
O55	O	1.492853	0.029102	-0.003260
O56	O	1.742853	0.279102	0.246740
O57	O	1.235055	-0.598196	-0.413149
O58	O	1.485055	-0.348196	-0.163149
O59	O	1.735055	-0.098196	0.086851
O60	O	1.985055	0.151804	0.336851
O61	O	1.222878	-0.396679	-0.650133
O62	O	1.472878	-0.146679	-0.400133
O63	O	1.722878	0.103321	-0.150133
O64	O	1.972878	0.353321	0.099867
O65	O	1.120753	-0.483048	-0.644921
O66	O	1.370753	-0.233048	-0.394921
O67	O	1.620753	0.016952	-0.144921
O68	O	1.870753	0.266952	0.105079
C69	C	0.965289	-0.421677	-0.450664
C70	C	1.215289	-0.171677	-0.200664
C71	C	1.465289	0.078323	0.049336
C72	C	1.715289	0.328323	0.299336
C73	C	0.872861	-0.417305	-0.445984
C74	C	1.122861	-0.167305	-0.195984
C75	C	1.372861	0.082695	0.054016
C76	C	1.622861	0.332695	0.304016
C77	C	1.181373	-0.625647	-0.461616
C78	C	1.431373	-0.375647	-0.211616
C79	C	1.681373	-0.125647	0.038384
C80	C	1.931373	0.124353	0.288384
C81	C	1.181388	-0.708193	-0.461601
C82	C	1.431388	-0.458193	-0.211601
C83	C	1.681388	-0.208193	0.038399
C84	C	1.931388	0.041807	0.288399
C85	C	0.703634	-0.409328	-0.437419
C86	C	0.953634	-0.159328	-0.187419
C87	C	1.203634	0.090672	0.062581
C88	C	1.453634	0.340672	0.312581
C89	C	0.659880	-0.454611	-0.485945
C90	C	0.909880	-0.204611	-0.235945
C91	C	1.159880	0.045389	0.014055
C92	C	1.409880	0.295389	0.264055
C93	C	0.565716	-0.450173	-0.481180
C94	C	0.815716	-0.200173	-0.231180
C95	C	1.065716	0.049827	0.018820
C96	C	1.315716	0.299827	0.268820
C97	C	0.797806	-0.413765	-0.442184
C98	C	1.047806	-0.163765	-0.192184
C99	C	1.297806	0.086235	0.057816
C100	C	1.547806	0.336235	0.307816
C101	C	1.123044	-0.907371	-0.514246
C102	C	1.373044	-0.657371	-0.264246
C103	C	1.623044	-0.407371	-0.014246
C104	C	1.873044	-0.157371	0.235754
C105	C	1.197880	-0.961229	-0.538426
C106	C	1.447880	-0.711229	-0.288426
C107	C	1.697880	-0.461229	-0.038426
C108	C	1.947880	-0.211229	0.211574
C109	C	1.181432	-0.859322	-0.461540
C110	C	1.431432	-0.609322	-0.211540
C111	C	1.681432	-0.359322	0.038460
C112	C	1.931432	-0.109322	0.288460
C113	C	1.106638	-0.952546	-0.437339
C114	C	1.356638	-0.702546	-0.187339
C115	C	1.606638	-0.452546	0.062661
C116	C	1.856638	-0.202546	0.312661
C117	C	1.181468	-1.005306	-0.461482
C118	C	1.431468	-0.755306	-0.211482
C119	C	1.681468	-0.505306	0.038518
C120	C	1.931468	-0.255306	0.288518
C121	C	1.256306	-0.912097	-0.485761
C122	C	1.506306	-0.662097	-0.235761
C123	C	1.756306	-0.412097	0.014239
C124	C	2.006306	-0.162097	0.264239
C125	C	1.165015	-0.903406	-0.384637
C126	C	1.415015	-0.653406	-0.134637
C127	C	1.665015	-0.403406	0.115363
C128	C	1.915015	-0.153406	0.365363
C129	C	1.239905	-0.957244	-0.408790
C130	C	1.489905	-0.707244	-0.158790
C131	C	1.739905	-0.457244	0.091210
C132	C	1.989905	-0.207244	0.341210
C133	C	1.181410	-0.775224	-0.461575
C134	C	1.431410	-0.525224	-0.211575
C135	C	1.681410	-0.275224	0.038425
C136	C	1.931410	-0.025224	0.288425
C137	C	1.181498	-1.089403	-0.461447
C138	C	1.431498	-0.839403	-0.211447
C139	C	1.681498	-0.589403	0.038553
C140	C	1.931498	-0.339403	0.288553
C141	C	1.398232	-0.442245	-0.472682
C142	C	1.648232	-0.192245	-0.222682
C143	C	1.898232	0.057755	0.027318
C144	C	2.148232	0.307755	0.277318
C145	C	1.490659	-0.446636	-0.477383
C146	C	1.740659	-0.196636	-0.227383
C147	C	1.990659	0.053364	0.022617
C148	C	2.240659	0.303364	0.272617
C149	C	1.170292	-0.441166	-0.677700
C150	C	1.420292	-0.191166	-0.427700
C151	C	1.670292	0.058834	-0.177700
C152	C	1.920292	0.308834	0.072300
C153	C	1.165642	-0.445142	-0.770130
C154	C	1.415642	-0.195142	-0.520130
C155	C	1.665642	0.054858	-0.270130
C156	C	1.915642	0.304858	-0.020130
C157	C	1.181355	-0.238989	-0.461629
C158	C	1.431355	0.011011	-0.211629
C159	C	1.681355	0.261011	0.038371
C160	C	1.931355	0.511011	0.288371
C161	C	1.181513	-0.156441	-0.461418
C162	C	1.431513	0.093559	-0.211418
C163	C	1.681513	0.343559	0.038582
C164	C	1.931513	0.593559	0.288582
C165	C	1.157158	-0.452414	-0.939362
C166	C	1.407158	-0.202414	-0.689362
C167	C	1.657158	0.047586	-0.439362
C168	C	1.907158	0.297586	-0.189362
C169	C	1.205667	-0.411487	-0.983108
C170	C	1.455667	-0.161487	-0.733108
C171	C	1.705667	0.088513	-0.483108
C172	C	1.955667	0.338513	-0.233108
C173	C	1.200947	-0.415534	-1.077274
C174	C	1.450947	-0.165534	-0.827274
C175	C	1.700947	0.084466	-0.577274
C176	C	1.950947	0.334466	-0.327274
C177	C	1.161878	-0.448369	-0.845187
C178	C	1.411878	-0.198369	-0.595187
C179	C	1.661878	0.051631	-0.345187
C180	C	1.911878	0.301631	-0.095187
C181	C	1.192451	-0.422697	-0.244760
C182	C	1.442451	-0.172697	0.005240
C183	C	1.692451	0.077303	0.255240
C184	C	1.942451	0.327303	0.505240
C185	C	1.197186	-0.418758	-0.152334
C186	C	1.447186	-0.168758	0.097666
C187	C	1.697186	0.081242	0.347666
C188	C	1.947186	0.331242	0.597666
H189	H	0.670377	-0.367229	-0.392301
H190	H	0.920377	-0.117229	-0.142301
H191	H	1.170377	0.132771	0.107699
H192	H	1.420377	0.382771	0.357699
C193	C	0.704803	-0.511467	-0.546925
C194	C	0.954803	-0.261467	-0.296925
C195	C	1.204803	-0.011467	-0.046925
C196	C	1.454803	0.238533	0.203075
H197	H	0.763115	-0.507018	-0.542183
H198	H	1.013115	-0.257018	-0.292183
H199	H	1.263115	-0.007018	-0.042183
H200	H	1.513115	0.242982	0.207817
H201	H	0.691271	-0.560221	-0.534156
H202	H	0.941271	-0.310221	-0.284156
H203	H	1.191271	-0.060221	-0.034156
H204	H	1.441271	0.189779	0.215844
H205	H	0.687748	-0.502220	-0.602070
H206	H	0.937748	-0.252220	-0.352070
H207	H	1.187748	-0.002220	-0.102070
H208	H	1.437748	0.247780	0.147930
H209	H	1.319588	-0.894276	-0.506279
H210	H	1.569588	-0.644276	-0.256279
H211	H	1.819588	-0.394276	-0.006279
H212	H	2.069588	-0.144276	0.243721
H213	H	1.289351	-0.978998	-0.364196
H214	H	1.539351	-0.728998	-0.114196
H215	H	1.789351	-0.478998	0.135804
H216	H	2.039351	-0.228998	0.385804
C217	C	1.056398	-0.877800	-0.574540
C218	C	1.306398	-0.627800	-0.324540
C219	C	1.556398	-0.377800	-0.074540
C220	C	1.806398	-0.127800	0.175460
H221	H	1.068216	-0.897714	-0.629143
H222	H	1.318216	-0.647714	-0.379143
H223	H	1.568216	-0.397714	-0.129143
H224	H	1.818216	-0.147714	0.120857
H225	H	1.003364	-0.892292	-0.557905
H226	H	1.253364	-0.642292	-0.307905
H227	H	1.503364	-0.392292	-0.057905
H228	H	1.753364	-0.142292	0.192095
H229	H	1.056514	-0.825146	-0.573781
H230	H	1.306514	-0.575146	-0.323781
H231	H	1.556514	-0.325146	-0.073781
H232	H	1.806514	-0.075146	0.176219
C233	C	1.216667	-0.995361	-0.626245
C234	C	1.466667	-0.745361	-0.376245
C235	C	1.716667	-0.495361	-0.126245
C236	C	1.966667	-0.245361	0.123755
H237	H	1.175119	-0.978279	-0.663649
H238	H	1.425119	-0.728279	-0.413649
H239	H	1.675119	-0.478279	-0.163649
H240	H	1.925119	-0.228279	0.086351
H241	H	1.269411	-0.980897	-0.643781
H242	H	1.519411	-0.730897	-0.393781
H243	H	1.769411	-0.480897	-0.143781
H244	H	2.019411	-0.230897	0.106219
H245	H	1.217042	-1.047969	-0.625485
H246	H	1.467042	-0.797969	-0.375485
H247	H	1.717042	-0.547969	-0.125485
H248	H	1.967042	-0.297969	0.124515
H249	H	1.151084	-0.878129	-0.319643
H250	H	1.401084	-0.628129	-0.069643
H251	H	1.651084	-0.378129	0.180357
H252	H	1.901084	-0.128129	0.430357
C253	C	1.021174	-0.976748	-0.409716
C254	C	1.271174	-0.726748	-0.159716
C255	C	1.521174	-0.476748	0.090284
C256	C	1.771174	-0.226748	0.340284
H257	H	0.979745	-0.959663	-0.447244
H258	H	1.229745	-0.709663	-0.197244
H259	H	1.479745	-0.459663	0.052756
H260	H	1.729745	-0.209663	0.302756
H261	H	1.021946	-1.029390	-0.409402
H262	H	1.271946	-0.779390	-0.159402
H263	H	1.521946	-0.529390	0.090598
H264	H	1.771946	-0.279390	0.340598
H265	H	1.009097	-0.956107	-0.355465
H266	H	1.259097	-0.706107	-0.105465
H267	H	1.509097	-0.456107	0.144535
H268	H	1.759097	-0.206107	0.394535
H269	H	1.250742	-0.373408	-0.949838
H270	H	1.500742	-0.123408	-0.699838
H271	H	1.750742	0.126592	-0.449838
H272	H	2.000742	0.376592	-0.199838
H273	H	1.112086	-0.490489	-0.972629
H274	H	1.362086	-0.240489	-0.722629
H275	H	1.612086	0.009511	-0.472629
H276	H	1.862086	0.259511	-0.222629
