data_functionalizedCrystal
_audit_creation_method	'MofGen! by Chris Wilmer'
_symmetry_space_group_name_H-M	'P1'
_symmetry_Int_Tables_number	1
_symmetry_cell_setting	triclinic
loop_
_symmetry_equiv_pos_as_xyz
  x,y,z
_cell_length_a	17.699083
_cell_length_b	19.188930
_cell_length_c	16.176319
_cell_angle_alpha	89.988074
_cell_angle_beta	89.998611
_cell_angle_gamma	83.213899
loop_
_atom_site_label
_atom_site_type_symbol
_atom_site_fract_x
_atom_site_fract_y
_atom_site_fract_z
O1	O	1.003963	0.088294	-0.068640
O2	O	0.783569	0.099782	-0.068668
O3	O	0.900126	-0.007610	-0.068637
O4	O	0.887406	0.195687	-0.068671
O5	O	0.900110	-0.007617	0.068856
O6	O	0.783553	0.099775	0.068825
O7	O	1.003947	0.088288	0.068853
Cu8	Cu	0.893748	0.094031	0.081393
Cu9	Cu	0.893767	0.094039	-0.081208
O10	O	0.887390	0.195680	0.068822
C11	C	0.755365	0.099367	0.000075
C12	C	0.671348	0.098132	0.000065
C13	C	0.622644	0.161169	0.000055
C14	C	0.543702	0.160004	0.000065
C15	C	0.513466	0.095802	0.000081
C16	C	0.562176	0.032761	0.000093
C17	C	0.641117	0.033926	0.000088
C18	C	0.243819	0.028060	0.000115
C19	C	0.164873	0.026900	0.000117
C20	C	0.146405	0.154139	0.000092
C21	C	0.225345	0.155304	0.000087
C22	C	0.274049	0.092263	0.000104
C23	C	0.359646	0.093526	0.000094
C24	C	0.427870	0.094538	0.000085
C25	C	0.899706	-0.033625	0.000112
C26	C	0.898469	-0.111131	0.000119
C27	C	0.966861	-0.155978	0.000131
C28	C	0.965699	-0.228804	0.000118
C29	C	0.896142	-0.256778	0.000108
C30	C	0.827741	-0.211921	0.000091
C31	C	0.828905	-0.139098	0.000096
N32	N	0.842968	-0.364845	0.046893
N33	N	0.841868	-0.434025	0.046890
C34	C	0.892632	-0.476191	0.000091
N35	N	0.944550	-0.446565	-0.046694
N36	N	0.945653	-0.377379	-0.046687
C37	C	0.894873	-0.335742	0.000102
C38	C	0.959769	-0.600004	0.000088
C39	C	0.958604	-0.672830	0.000070
C40	C	0.820644	-0.655946	0.000051
C41	C	0.821811	-0.583121	0.000061
C42	C	0.891375	-0.555155	0.000084
C43	C	1.032151	0.088703	0.000108
C44	C	1.116167	0.089938	0.000113
C45	C	0.887810	0.221695	0.000071
C46	C	0.889046	0.299201	0.000059
N47	N	0.893741	0.094025	0.195758
N48	N	0.893781	0.094039	-0.195574
C49	C	0.945367	0.046491	0.239036
C50	C	0.945371	0.046490	0.325584
C51	C	0.893751	0.094027	0.368851
C52	C	0.842119	0.141563	0.325567
C53	C	0.842112	0.141560	0.239022
C54	C	0.842145	0.141576	0.674595
C55	C	0.842157	0.141577	0.761147
C56	C	0.945404	0.046506	0.761157
C57	C	0.945397	0.046503	0.674612
C58	C	0.893763	0.094036	0.631335
C59	C	0.893758	0.094036	0.537491
C60	C	0.893759	0.094031	0.462694
H61	H	0.680771	-0.017406	0.000096
H62	H	0.504050	0.211335	0.000056
H63	H	0.800085	0.180266	0.360800
H64	H	0.773210	-0.102582	0.000086
H65	H	0.800119	0.180289	0.796374
O66	O	1.034797	-0.569837	0.000101
H67	H	1.024117	-0.511663	0.000114
H68	H	1.014299	-0.709345	0.000076
O69	O	0.257953	0.224553	0.000083
H70	H	0.238368	0.254848	-0.055955
O71	O	0.093869	0.222134	0.000088
H72	H	0.104582	0.252864	-0.055964
O73	O	1.041887	-0.125812	0.000132
H74	H	1.089250	-0.169237	0.000127
O75	O	0.296339	-0.039934	0.000132
H76	H	0.332752	-0.042448	-0.055904
H77	H	1.021394	-0.265325	0.000125
O78	O	1.001070	-0.004776	0.627950
H79	H	0.969314	-0.038668	0.588535
H80	H	0.800104	0.180281	0.639366
O81	O	0.786433	0.192831	0.192336
H82	H	0.750544	0.225893	0.236961
O83	O	0.748045	-0.534743	0.000056
H84	H	0.745275	-0.501170	0.056096
H85	H	0.764009	-0.678722	0.000039
H86	H	0.987405	0.007784	0.203814
O87	O	0.529571	-0.036489	0.000113
H88	H	0.466496	-0.026711	0.000107
O89	O	1.001067	-0.004766	0.372265
H90	H	1.036972	-0.037811	0.327639
O91	O	1.001092	-0.004772	0.807832
H92	H	0.992422	0.003208	0.875282
O93	O	0.655247	0.230420	0.000043
H94	H	0.690763	0.234005	-0.056003
O95	O	0.132261	-0.042351	0.000150
H96	H	0.151843	-0.072645	-0.055876
O97	O	0.752716	-0.242087	0.000090
H98	H	0.763396	-0.300261	0.000100
