data_functionalizedCrystal
_audit_creation_method	'MofGen! by Chris Wilmer'
_symmetry_space_group_name_H-M	'P1'
_symmetry_Int_Tables_number	1
_symmetry_cell_setting	triclinic
loop_
_symmetry_equiv_pos_as_xyz
  x,y,z
_cell_length_a	12.759394
_cell_length_b	13.033304
_cell_length_c	13.032268
_cell_angle_alpha	90.922231
_cell_angle_beta	97.149444
_cell_angle_gamma	82.816541
loop_
_atom_site_label
_atom_site_type_symbol
_atom_site_fract_x
_atom_site_fract_y
_atom_site_fract_z
Zn1	Zn	-0.326901	-1.498472	-0.781530
Zn2	Zn	-0.477882	-1.520222	-0.609560
Zn3	Zn	-0.321349	-1.348333	-0.587701
Zn4	Zn	-0.521674	-1.326475	-0.759595
O5	O	-0.411952	-1.423375	-0.684596
O6	O	-0.330926	-1.645275	-0.777045
O7	O	-0.436467	-1.515670	-0.462752
O8	O	-0.175063	-1.368294	-0.613444
O9	O	-0.441851	-1.661254	-0.650700
O10	O	-0.179142	-1.478601	-0.755849
O11	O	-0.321463	-1.389384	-0.446692
O12	O	-0.363927	-1.201516	-0.592176
O13	O	-0.516488	-1.331041	-0.906413
O14	O	-0.511104	-1.185457	-0.718466
O15	O	-0.373389	-1.457407	-0.922528
O16	O	-0.630714	-1.494476	-0.629431
O17	O	-0.662888	-1.352131	-0.739661
C18	C	-0.441666	-1.156170	-0.650569
C19	C	-0.454407	-1.041855	-0.636036
C20	C	-0.405316	-0.982972	-0.692167
C21	C	-0.418483	-0.864821	-0.677148
C22	C	-0.684923	-1.423317	-0.684564
C23	C	-0.801695	-1.423381	-0.684596
C24	C	-0.768142	-1.571691	-0.569924
C25	C	-0.806226	-1.645871	-0.512604
C26	C	-0.915944	-1.645928	-0.512639
C27	C	-0.987585	-1.571799	-0.570004
C28	C	-0.949501	-1.497618	-0.627325
C29	C	-0.839778	-1.497568	-0.627280
C30	C	-0.983054	-1.349315	-0.742001
C31	C	-0.873335	-1.349252	-0.741961
C32	C	-1.054694	-1.275185	-0.799366
C33	C	-1.016611	-1.200999	-0.856681
C34	C	-0.906885	-1.200945	-0.856642
C35	C	-0.835252	-1.275072	-0.799281
C36	C	-0.137915	-1.423459	-0.684655
C37	C	-0.021137	-1.423495	-0.684680
C38	C	-0.450443	-1.389360	-0.952828
C39	C	-0.466845	-1.374864	-1.067132
C40	C	-0.382116	-0.691625	-0.718750
C41	C	-0.369386	-0.805939	-0.733287
C42	C	-0.403355	-1.430925	-1.126066
C43	C	-0.420306	-1.415944	-1.244206
C44	C	-0.373528	-1.457318	-0.417416
C45	C	-0.356808	-1.472013	-0.303138
H46	H	-0.747887	-1.706229	-0.465900
H47	H	-0.353536	-1.020029	-0.751338
H48	H	-0.678801	-1.571641	-0.569875
H49	H	-0.533744	-1.315772	-1.104138
C50	C	-0.256605	-0.778907	-0.862202
C51	C	-0.299479	-0.855946	-0.813176
H52	H	-0.213443	-0.809782	-0.911515
H53	H	-0.312712	-0.732033	-0.896174
H54	H	-0.214567	-0.742669	-0.812163
H55	H	-0.341523	-0.892179	-0.863214
H56	H	-0.243364	-0.902837	-0.779204
H57	H	-0.336447	-1.490007	-1.089059
H58	H	-0.470260	-0.827768	-0.617968
H59	H	-0.506180	-1.004798	-0.576860
C60	C	-0.923055	-1.826466	-0.484862
C61	C	-0.957806	-1.727470	-0.449633
H62	H	-0.948893	-1.876806	-0.445959
H63	H	-0.949244	-1.832705	-0.555876
H64	H	-0.847457	-1.837031	-0.476627
H65	H	-1.033405	-1.716902	-0.457876
H66	H	-0.931622	-1.721229	-0.378602
C67	C	-1.126488	-1.652632	-0.507629
C68	C	-1.108190	-1.571865	-0.570049
H69	H	-1.200945	-1.652665	-0.507654
H70	H	-1.096780	-1.716700	-0.533906
H71	H	-1.094160	-1.643293	-0.438987
H72	H	-1.140511	-1.581208	-0.638693
H73	H	-1.137910	-1.507781	-0.543776
H74	H	-1.144032	-1.275241	-0.799395
H75	H	-1.074948	-1.140653	-0.903388
C76	C	-0.951083	-1.054359	-0.970009
C77	C	-0.865029	-1.119404	-0.919655
H78	H	-0.925243	-1.004017	-1.008907
H79	H	-0.994483	-1.094174	-1.015089
H80	H	-0.991873	-1.020760	-0.920175
H81	H	-0.824243	-1.153009	-0.969490
H82	H	-0.821611	-1.079583	-0.874572
C83	C	-0.667016	-1.261265	-0.698045
C84	C	-0.714646	-1.275017	-0.799235
H85	H	-0.592556	-1.261242	-0.698019
H86	H	-0.696718	-1.197185	-0.671789
H87	H	-0.679457	-1.316054	-0.655707
H88	H	-0.702211	-1.220223	-0.841572
H89	H	-0.684933	-1.339105	-0.825506
H90	H	-0.487210	-1.356848	-1.281207
C91	C	-0.267141	-1.551160	-1.145828
C92	C	-0.266461	-1.551765	-1.253196
H93	H	-0.211364	-1.600393	-1.114998
H94	H	-0.256967	-1.484273	-1.119495
H95	H	-0.333552	-1.568420	-1.130177
H96	H	-0.200053	-1.534497	-1.268847
H97	H	-0.276627	-1.618667	-1.279538
