data_functionalizedCrystal
_audit_creation_method	'MofGen! by Chris Wilmer'
_symmetry_space_group_name_H-M	'P1'
_symmetry_Int_Tables_number	1
_symmetry_cell_setting	triclinic
loop_
_symmetry_equiv_pos_as_xyz
  x,y,z
_cell_length_a	19.288864
_cell_length_b	11.792241
_cell_length_c	18.366186
_cell_angle_alpha	89.993644
_cell_angle_beta	89.977106
_cell_angle_gamma	83.664831
loop_
_atom_site_label
_atom_site_type_symbol
_atom_site_fract_x
_atom_site_fract_y
_atom_site_fract_z
O1	O	0.922157	0.141582	-0.060784
O2	O	0.720005	0.160681	-0.060734
O3	O	0.825987	-0.014113	-0.060755
O4	O	0.816175	0.316377	-0.060763
O5	O	0.825968	-0.014122	0.060345
O6	O	0.719987	0.160673	0.060365
O7	O	0.922139	0.141574	0.060316
Zn8	Zn	0.821060	0.151122	0.079568
Zn9	Zn	0.821084	0.151133	-0.079986
O10	O	0.816157	0.316368	0.060337
C11	C	0.825361	-0.056399	-0.000205
C12	C	0.823517	-0.182385	-0.000206
C13	C	0.694116	0.160063	-0.000178
C14	C	0.617002	0.158218	-0.000159
C15	C	0.572888	0.260779	-0.000173
C16	C	0.500431	0.259046	-0.000181
C17	C	0.472091	0.154746	-0.000189
C18	C	0.516215	0.052171	-0.000171
C19	C	0.588670	0.053907	-0.000156
C20	C	0.363370	0.072757	-0.042638
C21	C	0.290915	0.071025	-0.042658
C22	C	0.248615	0.149387	-0.000233
C23	C	0.278777	0.229500	0.042202
C24	C	0.351232	0.231236	0.042217
C25	C	0.393526	0.152852	-0.000205
C26	C	0.125935	0.250076	-0.000255
C27	C	0.053477	0.248339	-0.000258
C28	C	0.069262	0.041460	-0.000256
C29	C	0.141718	0.043201	-0.000246
C30	C	0.170050	0.147512	-0.000248
C31	C	0.820125	-0.413045	-0.000217
C32	C	0.822009	-0.284689	-0.000211
C33	C	0.948028	0.142192	-0.000242
C34	C	1.025142	0.144037	-0.000266
C35	C	0.816783	0.358654	-0.000214
C36	C	0.818627	0.484640	-0.000219
N37	N	0.821049	0.151113	0.188459
N38	N	0.821101	0.151133	-0.188877
C39	C	0.867993	0.073752	0.226550
C40	C	0.867997	0.073747	0.302778
C41	C	0.821064	0.151123	0.340912
C42	C	0.774111	0.228490	0.302811
C43	C	0.774103	0.228485	0.226585
C44	C	0.812353	0.254534	0.461671
C45	C	0.812366	0.254540	0.537896
C46	C	0.821084	0.151137	0.576019
C47	C	0.829804	0.047723	0.537908
C48	C	0.829796	0.047719	0.461682
C49	C	0.821067	0.151136	0.423566
C50	C	0.868036	0.073764	0.696765
C51	C	0.868035	0.073757	0.772994
C52	C	0.774152	0.228510	0.773026
C53	C	0.774149	0.228507	0.696799
C54	C	0.821095	0.151135	0.658673
H55	H	0.595951	0.345717	-0.000176
H56	H	0.805242	0.338743	0.430637
H57	H	0.735925	0.291506	0.665783
C58	C	0.451897	0.371868	-0.000207
H59	H	0.479148	0.434238	-0.000213
H60	H	0.423275	0.375500	0.042013
H61	H	0.423335	0.375474	-0.042453
C62	C	0.839377	-0.066024	0.419760
H63	H	0.844666	-0.127609	0.453375
H64	H	0.879749	-0.068423	0.389920
H65	H	0.799613	-0.072219	0.390128
C66	C	0.257740	-0.017085	-0.089337
H67	H	0.208530	-0.006886	-0.083279
H68	H	0.275331	-0.091892	-0.074416
H69	H	0.268885	-0.006817	-0.139123
C70	C	0.919662	-0.011352	0.654820
H71	H	0.912940	-0.000266	0.603966
H72	H	0.911834	-0.087065	0.667324
H73	H	0.966066	0.000783	0.667287
H74	H	0.836903	-0.036477	0.568946
C75	C	0.038097	-0.073268	-0.000270
H76	H	-0.011374	-0.059615	-0.000287
H77	H	0.053189	-0.115494	0.041960
H78	H	0.053237	-0.115472	-0.042505
H79	H	0.375787	0.296463	0.076772
C80	C	0.232256	0.315708	0.088867
H81	H	0.184785	0.303198	0.082787
H82	H	0.238410	0.391081	0.073948
H83	H	0.244864	0.306015	0.138659
C84	C	0.919678	-0.011342	0.814895
H85	H	0.947638	-0.057411	0.781268
H86	H	0.894525	-0.058490	0.844649
H87	H	0.948743	0.029382	0.844611
C88	C	0.722526	0.313621	0.814964
H89	H	0.729256	0.302550	0.865818
H90	H	0.676126	0.301490	0.802497
H91	H	0.730356	0.389341	0.802461
H92	H	0.493136	-0.032752	-0.000188
C93	C	0.802779	0.368288	0.579811
H94	H	0.797574	0.429870	0.546191
H95	H	0.842492	0.374427	0.609523
H96	H	0.762346	0.370751	0.609570
H97	H	0.735896	0.291488	0.333864
H98	H	0.624588	-0.029614	-0.000145
H99	H	0.149004	0.335012	-0.000246
H100	H	0.735875	0.291483	0.195571
C101	C	0.004948	0.361159	-0.000274
H102	H	-0.042262	0.345189	-0.000275
H103	H	0.013603	0.403940	-0.042506
H104	H	0.013558	0.403946	0.041960
C105	C	0.190245	-0.069618	-0.000242
H106	H	0.162992	-0.131986	-0.000254
H107	H	0.218817	-0.073248	0.041993
H108	H	0.218859	-0.073234	-0.042472
H109	H	0.906217	0.010749	0.195510
H110	H	0.397806	0.008943	-0.077190
C111	C	0.919639	-0.011346	0.344690
H112	H	0.912917	-0.000264	0.395548
H113	H	0.966036	0.000793	0.332172
H114	H	0.911814	-0.087071	0.332214
