data_functionalizedCrystal
_audit_creation_method	'MofGen! by Chris Wilmer'
_symmetry_space_group_name_H-M	'P1'
_symmetry_Int_Tables_number	1
_symmetry_cell_setting	triclinic
loop_
_symmetry_equiv_pos_as_xyz
  x,y,z
_cell_length_a	16.109302
_cell_length_b	16.109296
_cell_length_c	14.586319
_cell_angle_alpha	90.004442
_cell_angle_beta	89.994552
_cell_angle_gamma	96.539465
loop_
_atom_site_label
_atom_site_type_symbol
_atom_site_fract_x
_atom_site_fract_y
_atom_site_fract_z
O1	O	1.103128	-0.106869	-0.076283
O2	O	1.603128	0.393131	0.423717
O3	O	0.861066	-0.120168	-0.076276
O4	O	1.361066	0.379832	0.423724
O5	O	0.988749	0.007513	-0.076272
O6	O	1.488749	0.507513	0.423728
O7	O	0.975445	-0.234550	-0.076287
O8	O	1.475445	0.265450	0.423713
O9	O	0.988740	0.007515	0.076209
O10	O	1.488740	0.507515	0.576209
O11	O	0.861057	-0.120166	0.076205
O12	O	1.361057	0.379834	0.576205
O13	O	1.103119	-0.106867	0.076198
O14	O	1.603119	0.393133	0.576198
Cu15	Cu	0.982088	-0.113517	0.090124
Cu16	Cu	1.482088	0.386483	0.590124
Cu17	Cu	0.982098	-0.113519	-0.090202
Cu18	Cu	1.482098	0.386481	0.409798
O19	O	0.975436	-0.234548	0.076194
O20	O	1.475436	0.265452	0.576194
C21	C	0.830087	-0.119628	-0.000034
C22	C	1.330087	0.380372	0.499966
C23	C	0.737792	-0.118013	-0.000032
C24	C	1.237792	0.381987	0.499968
C25	C	0.525446	-0.114277	0.083077
C26	C	1.025446	0.385723	0.583077
C27	C	0.438726	-0.112750	0.083074
C28	C	0.938726	0.387250	0.583074
C29	C	0.438746	-0.112756	-0.083169
C30	C	0.938746	0.387244	0.416831
C31	C	0.525465	-0.114277	-0.083165
C32	C	1.025465	0.385723	0.416835
C33	C	0.568812	-0.115041	-0.000039
C34	C	1.068812	0.384959	0.499961
C35	C	0.395373	-0.111994	-0.000047
C36	C	0.895373	0.388006	0.499953
C37	C	0.301348	-0.110339	-0.000051
C38	C	0.801348	0.389661	0.499949
C39	C	0.662844	-0.116695	-0.000035
C40	C	1.162844	0.383305	0.499965
C41	C	0.988207	0.038489	-0.000032
C42	C	1.488207	0.538489	0.499968
C43	C	0.986593	0.130784	-0.000032
C44	C	1.486593	0.630784	0.499968
C45	C	1.134099	-0.107407	-0.000045
C46	C	1.634099	0.392593	0.499955
C47	C	1.226394	-0.109022	-0.000054
C48	C	1.726394	0.390978	0.499946
C49	C	1.057083	0.439783	-0.000046
C50	C	1.557083	0.939783	0.499954
C51	C	1.058606	0.353063	-0.000042
C52	C	1.558606	0.853063	0.499958
C53	C	0.907117	0.333190	-0.000025
C54	C	1.407117	0.833190	0.499975
C55	C	0.905594	0.419909	-0.000023
C56	C	1.405594	0.919909	0.499977
C57	C	0.980580	0.473203	-0.000038
C58	C	1.480580	0.973203	0.499962
C59	C	0.983626	0.299764	-0.000036
C60	C	1.483626	0.799764	0.499964
C61	C	0.985278	0.205738	-0.000031
C62	C	1.485278	0.705738	0.499969
C63	C	0.978929	0.567236	-0.000040
C64	C	1.478929	1.067236	0.499960
N65	N	0.982086	-0.113514	0.216956
N66	N	1.482086	0.386486	0.716956
C67	C	0.975984	0.734477	-0.000045
C68	C	1.475984	1.234477	0.499955
C69	C	0.977612	0.642183	-0.000042
C70	C	1.477612	1.142183	0.499958
N71	N	0.982106	-0.113514	-0.217034
N72	N	1.482106	0.386486	0.282966
C73	C	1.038643	-0.056996	0.451964
C74	C	1.538643	0.443004	0.951964
C75	C	1.038645	-0.056994	0.547945
C76	C	1.538645	0.443006	1.047945
C77	C	0.925543	-0.170035	0.547951
C78	C	1.425543	0.329965	1.047951
C79	C	0.925537	-0.170032	0.451972
C80	C	1.425537	0.329968	0.951972
C81	C	0.982092	-0.113514	0.403981
C82	C	1.482092	0.386486	0.903981
C83	C	0.982100	-0.113515	0.595941
C84	C	1.482100	0.386485	1.095941
C85	C	0.982102	-0.113513	0.700009
C86	C	1.482102	0.386487	1.200009
C87	C	0.982089	-0.113515	0.299907
C88	C	1.482089	0.386485	0.799907
H89	H	0.403442	-0.112135	-0.150847
H90	H	0.903442	0.387865	0.349153
O91	O	1.093442	-0.002024	0.405264
O92	O	1.593442	0.497976	0.905264
C93	C	1.048899	0.049292	0.349807
C94	C	1.548899	0.549292	0.849807
H95	H	0.983851	0.016164	0.335414
H96	H	1.483851	0.516164	0.835414
H97	H	1.043229	0.110713	0.386843
H98	H	1.543229	0.610713	0.886843
C99	C	1.175665	0.107813	0.276320
C100	C	1.675665	0.607813	0.776320
C101	C	1.095774	0.067122	0.258636
C102	C	1.595774	0.567122	0.758636
H103	H	1.204580	0.118816	0.220083
H104	H	1.704580	0.618816	0.720083
H105	H	1.205675	0.073243	0.313685
H106	H	1.705675	0.573243	0.813685
H107	H	1.170928	0.158993	0.307185
H108	H	1.670928	0.658993	0.807185
H109	H	1.100512	0.015939	0.227782
H110	H	1.600512	0.515939	0.727782
H111	H	1.065765	0.101684	0.221264
H112	H	1.565765	0.601684	0.721264
H113	H	1.084693	-0.010972	0.587011
H114	H	1.584693	0.489028	1.087011
O115	O	1.129865	0.491638	0.000070
O116	O	1.629865	0.991638	0.500070
C117	C	1.133526	0.542385	0.079052
C118	C	1.633526	1.042385	0.579052
H119	H	1.067535	0.546752	0.105385
H120	H	1.567535	1.046752	0.605385
H121	H	1.171489	0.513869	0.134348
H122	H	1.671489	1.013869	0.634348
C123	C	1.256439	0.625073	0.022719
C124	C	1.756439	1.125073	0.522719
C125	C	1.175387	0.630443	0.055057
C126	C	1.675387	1.130443	0.555057
H127	H	1.282263	0.679391	0.007920
H128	H	1.782263	1.179391	0.507920
H129	H	1.253975	0.590882	-0.030492
H130	H	1.753975	1.090882	0.469508
H131	H	1.288064	0.601307	0.068804
H132	H	1.788064	1.101307	0.568804
H133	H	1.143760	0.654199	0.008968
H134	H	1.643760	1.154199	0.508968
H135	H	1.177846	0.664640	0.108260
H136	H	1.677846	1.164640	0.608260
H137	H	0.879483	-0.216056	0.412901
H138	H	1.379483	0.283944	0.912901
O139	O	0.396723	-0.112049	0.163895
O140	O	0.896723	0.387951	0.663895
C141	C	0.453585	-0.113027	0.237259
C142	C	0.953585	0.386973	0.737259
H143	H	0.511952	-0.140420	0.212891
H144	H	1.011952	0.359580	0.712891
H145	H	0.471551	-0.046528	0.262821
H146	H	0.971551	0.453472	0.762821
C147	C	0.340896	-0.133277	0.345715
C148	C	0.840896	0.366723	0.845715
C149	C	0.412581	-0.166928	0.315788
C150	C	0.912581	0.333072	0.815788
H151	H	0.315602	-0.166522	0.394157
H152	H	0.815602	0.333478	0.894157
H153	H	0.302587	-0.132615	0.296289
H154	H	0.802587	0.367385	0.796289
H155	H	0.355878	-0.077862	0.367010
H156	H	0.855878	0.422138	0.867010
H157	H	0.397596	-0.222338	0.294483
H158	H	0.897596	0.277662	0.794483
H159	H	0.450886	-0.167601	0.365212
H160	H	0.950886	0.332399	0.865212
O161	O	0.831347	0.452516	0.000022
O162	O	1.331347	0.952516	0.500022
C163	C	0.846085	0.540484	0.000000
C164	C	1.346085	1.040484	0.500000
H165	H	0.910972	0.560865	0.028863
H166	H	1.410972	1.060865	0.528863
H167	H	0.842065	0.564620	-0.073152
H168	H	1.342065	1.064620	0.426848
C169	C	0.700266	0.551410	0.024353
C170	C	1.200266	1.051410	0.524353
C171	C	0.779959	0.576442	0.059811
C172	C	1.279959	1.076442	0.559811
H173	H	0.659475	0.573592	0.061244
H174	H	1.159475	1.073592	0.561244
H175	H	0.690336	0.492144	0.024365
H176	H	1.190336	0.992144	0.524365
H177	H	0.696928	0.571524	-0.036606
H178	H	1.196928	1.071524	0.463394
H179	H	0.783299	0.556319	0.120764
H180	H	1.283299	1.056319	0.620764
H181	H	0.789889	0.635706	0.059812
H182	H	1.289889	1.135706	0.559812
H183	H	0.879499	-0.216052	0.587035
H184	H	1.379499	0.283948	1.087035
H185	H	0.560737	-0.114899	0.150763
H186	H	1.060737	0.385101	0.650763
H187	H	1.120903	0.325856	-0.000046
H188	H	1.620903	0.825856	0.499954
H189	H	0.560776	-0.114898	-0.150852
H190	H	1.060776	0.385102	0.349148
O191	O	0.834358	0.281299	-0.000059
O192	O	1.334358	0.781299	0.499941
C193	C	0.852104	0.197591	-0.000042
C194	C	1.352104	0.697591	0.499958
H195	H	0.917407	0.194286	-0.028916
H196	H	1.417407	0.694286	0.471084
H197	H	0.848945	0.172513	0.073110
H198	H	1.348945	0.672513	0.573110
C199	C	0.707336	0.148556	-0.024373
C200	C	1.207336	0.648556	0.475627
C201	C	0.787540	0.144495	-0.059844
C202	C	1.287540	0.644495	0.440156
H203	H	0.667509	0.115802	-0.061258
H204	H	1.167509	0.615802	0.438742
H205	H	0.695379	0.204951	-0.024381
H206	H	1.195379	0.704951	0.475619
H207	H	0.704716	0.127659	0.036586
H208	H	1.204716	0.627659	0.536586
H209	H	0.790162	0.165401	-0.120797
H210	H	1.290162	0.665401	0.379203
H211	H	0.799497	0.088102	-0.059848
H212	H	1.299497	0.588102	0.440152
