data_functionalizedCrystal
_audit_creation_method	'MofGen! by Chris Wilmer'
_symmetry_space_group_name_H-M	'P1'
_symmetry_Int_Tables_number	1
_symmetry_cell_setting	triclinic
loop_
_symmetry_equiv_pos_as_xyz
  x,y,z
_cell_length_a	15.995300
_cell_length_b	15.072220
_cell_length_c	19.288865
_cell_angle_alpha	90.006383
_cell_angle_beta	83.304027
_cell_angle_gamma	90.014083
loop_
_atom_site_label
_atom_site_type_symbol
_atom_site_fract_x
_atom_site_fract_y
_atom_site_fract_z
O1	O	1.110685	0.073825	0.089360
O2	O	0.866862	0.073821	0.100452
O3	O	0.995819	0.073806	-0.006207
O4	O	0.981728	0.073841	0.196019
O5	O	0.995787	-0.073759	-0.006201
O6	O	0.866830	-0.073744	0.100458
O7	O	1.110653	-0.073740	0.089366
Zn8	Zn	0.988737	-0.097171	0.094913
Zn9	Zn	0.988779	0.097253	0.094905
O10	O	0.981697	-0.073724	0.196025
C11	C	0.835653	0.000038	0.100003
C12	C	0.742705	0.000036	0.098646
N13	N	0.988714	-0.229860	0.094918
C14	C	0.572531	0.000042	0.096141
C15	C	0.524779	0.000053	0.172085
C16	C	0.428097	0.000390	0.170700
C17	C	0.404984	0.000047	0.093676
C18	C	0.446277	0.084142	0.055994
C19	C	0.542903	0.084210	0.057916
C20	C	0.543150	-0.083605	0.056798
C21	C	0.446206	-0.084708	0.056805
C22	C	0.310294	0.000053	0.092279
C23	C	0.667222	0.000042	0.097536
C24	C	0.988777	-0.589061	0.094902
C25	C	0.919544	-0.551446	0.151782
C26	C	0.919702	-0.448620	0.151990
C27	C	0.988745	-0.410857	0.094910
C28	C	1.076052	-0.448144	0.110726
C29	C	1.075664	-0.551001	0.111130
C30	C	0.971482	-0.551175	0.022037
C31	C	0.969475	-0.448311	0.022524
C32	C	0.988733	-0.310144	0.094913
C33	C	0.988795	-0.689775	0.094901
C34	C	1.141863	0.000046	0.089815
C35	C	1.234810	0.000054	0.091171
C36	C	0.995350	0.000021	-0.032082
C37	C	0.993989	0.000013	-0.109189
N38	N	0.988808	0.229941	0.094894
C39	C	1.069655	0.000010	-0.153700
C40	C	1.068376	0.000024	-0.226150
C41	C	0.991427	0.000023	-0.254086
C42	C	0.915751	0.000031	-0.209565
C43	C	0.917032	0.000026	-0.137116
C44	C	0.930925	-0.051667	-0.362519
C45	C	0.929647	-0.051667	-0.434967
C46	C	0.987474	0.000043	-0.477541
C47	C	1.046591	0.051742	-0.447661
C48	C	1.047872	0.051737	-0.375212
C49	C	0.990030	0.000029	-0.332643
C50	C	1.061758	0.000056	-0.600612
C51	C	1.060476	0.000076	-0.673063
C52	C	0.907849	0.000074	-0.656476
C53	C	0.909133	0.000064	-0.584027
C54	C	0.986090	0.000050	-0.556099
C55	C	0.982166	0.000063	0.221899
C56	C	0.983527	0.000077	0.299006
H57	H	0.399509	-0.059878	0.200308
H58	H	0.431078	-0.090045	0.000650
H59	H	1.093679	0.093850	-0.482324
N60	N	1.142228	-0.417458	0.060151
N61	N	1.216547	-0.440455	0.064339
H62	H	1.263284	-0.418783	0.028620
N63	N	1.137781	0.000065	-0.718521
N64	N	1.188999	-0.062145	-0.715987
H65	H	1.243598	-0.062154	-0.748092
N66	N	0.893343	-0.583729	0.002967
N67	N	0.836017	-0.530627	-0.007220
H68	H	0.780827	-0.553615	-0.020682
N69	N	0.838199	-0.417151	0.140251
N70	N	0.829918	-0.369377	0.088528
H71	H	0.772320	-0.347222	0.080269
N72	N	0.888902	-0.417756	0.007469
N73	N	0.824327	-0.436529	0.047713
H74	H	0.767420	-0.414946	0.037084
N75	N	0.933532	-0.417707	0.219814
N76	N	0.936053	-0.336294	0.231754
H77	H	0.945825	-0.314460	0.279657
N78	N	1.142248	-0.582236	0.061176
N79	N	1.153840	-0.663704	0.052592
H80	H	1.200879	-0.685762	0.017326
H81	H	1.091707	-0.422365	0.163260
H82	H	0.543142	-0.060241	0.202607
H83	H	0.544287	0.060277	0.202148
N84	N	1.028649	-0.416057	-0.033059
N85	N	1.086248	-0.364717	-0.020169
H86	H	1.128046	-0.341936	-0.059423
N87	N	0.411745	-0.162756	0.091313
N88	N	0.374167	-0.218654	0.058411
H89	H	0.349822	-0.273774	0.082784
N90	N	0.568725	-0.163603	0.088154
N91	N	0.616074	-0.217096	0.053064
H92	H	0.634135	-0.273592	0.075214
H93	H	1.129994	0.000025	-0.262398
H94	H	1.021973	-0.575499	-0.020291
N95	N	1.148269	-0.000001	-0.125185
N96	N	1.215823	-0.000001	-0.164942
H97	H	1.271346	-0.000007	-0.144803
H98	H	1.096006	0.093833	-0.350886
N99	N	1.140370	0.000041	-0.572090
N100	N	1.207927	0.000043	-0.611845
H101	H	1.263448	0.000031	-0.591704
N102	N	0.829254	0.000084	-0.685014
N103	N	0.828119	0.000093	-0.749700
H104	H	0.772609	0.000104	-0.769859
H105	H	0.847518	0.000061	-0.547784
H106	H	0.854428	-0.576211	0.142516
N107	N	0.869286	-0.104514	-0.465478
N108	N	0.817668	-0.150689	-0.427461
H109	H	0.775044	-0.188025	-0.449008
N110	N	0.933158	-0.583856	0.219233
N111	N	0.932122	-0.665443	0.230918
H112	H	0.941739	-0.688335	0.278555
N113	N	1.094839	-0.581066	0.177793
N114	N	1.108413	-0.526084	0.223697
H115	H	1.121956	-0.547313	0.270780
N116	N	0.871838	-0.104486	-0.319043
N117	N	0.819064	-0.150642	-0.345728
H118	H	0.777332	-0.187941	-0.315025
N119	N	0.837157	0.000038	-0.238108
N120	N	0.836023	0.000042	-0.302795
H121	H	0.780513	0.000052	-0.322954
N122	N	0.839730	0.000034	-0.091655
N123	N	0.771028	0.000042	-0.116602
H124	H	0.716431	0.000047	-0.084494
H125	H	0.561133	0.147320	0.085068
N126	N	0.393041	0.076452	0.207699
N127	N	0.439990	0.129458	0.234622
H128	H	0.415232	0.183176	0.260761
N129	N	0.583648	0.088688	-0.012044
N130	N	0.540693	0.091759	-0.062131
H131	H	0.569464	0.094924	-0.111540
H132	H	0.432391	0.087023	-0.000601
N133	N	0.410586	0.162954	0.088420
N134	N	0.354750	0.157407	0.139272
H135	H	0.329543	0.213066	0.162176
N136	N	0.583300	-0.084653	-0.013437
N137	N	0.629291	-0.148443	-0.034601
H138	H	0.657650	-0.149178	-0.084203
