data_functionalizedCrystal
_audit_creation_method	'MofGen! by Chris Wilmer'
_symmetry_space_group_name_H-M	'P1'
_symmetry_Int_Tables_number	1
_symmetry_cell_setting	triclinic
loop_
_symmetry_equiv_pos_as_xyz
  x,y,z
_cell_length_a	9.730223
_cell_length_b	10.654550
_cell_length_c	23.532416
_cell_angle_alpha	83.668641
_cell_angle_beta	90.003610
_cell_angle_gamma	89.999807
loop_
_atom_site_label
_atom_site_type_symbol
_atom_site_fract_x
_atom_site_fract_y
_atom_site_fract_z
O1	O	-0.114164	0.152487	0.756246
O2	O	-0.114193	0.174532	0.590527
O3	O	-0.114173	-0.019350	0.677197
O4	O	-0.114185	0.346369	0.669577
O5	O	0.114407	-0.019345	0.677196
O6	O	0.114386	0.174537	0.590526
O7	O	0.114416	0.152492	0.756245
Zn8	Zn	0.150693	0.163515	0.673386
Zn9	Zn	-0.150471	0.163509	0.673387
O10	O	0.114395	0.346374	0.669576
C11	C	0.000115	-0.066128	0.676637
C12	C	0.000110	-0.205518	0.674963
C13	C	0.000093	0.173971	0.569307
C14	C	0.000082	0.172278	0.506079
N15	N	0.356229	0.163519	0.673389
N16	N	-0.356007	0.163495	0.673388
C17	C	0.428164	0.077697	0.711776
C18	C	0.572047	0.077681	0.711775
C19	C	0.572048	0.249322	0.634997
C20	C	0.428167	0.249330	0.634996
C21	C	0.356227	-0.008115	0.750169
C22	C	0.428162	-0.093943	0.788560
C23	C	0.572045	-0.093958	0.788559
C24	C	0.643992	-0.008145	0.750166
C25	C	0.000123	-0.286617	0.725993
C26	C	0.000113	-0.417588	0.724416
C27	C	0.000083	-0.386348	0.620776
C28	C	0.000083	-0.255380	0.622353
C29	C	0.000150	-0.236755	0.778603
C30	C	0.000165	-0.317855	0.829637
C31	C	0.000155	-0.448826	0.828060
C32	C	0.000130	-0.498697	0.775450
C33	C	0.000104	0.393152	0.670136
C34	C	0.000100	0.532543	0.671810
C35	C	0.000126	0.153053	0.777466
C36	C	0.000128	0.154746	0.840693
C37	C	0.124722	0.161927	1.113989
C38	C	0.124724	0.160360	1.054579
O39	O	0.230688	0.159508	1.023851
N40	N	0.000125	0.159581	1.024868
C41	C	-0.124486	0.160357	1.054571
O42	O	-0.230467	0.159550	1.023845
C43	C	-0.124487	0.161916	1.113981
C44	C	0.000121	0.162707	1.143688
C45	C	0.249319	0.162717	1.143696
C46	C	0.249316	0.164287	1.203103
C47	C	0.124715	0.165067	1.232802
C48	C	0.000117	0.164277	1.203095
C49	C	-0.249097	0.162683	1.143684
C50	C	-0.249087	0.164241	1.203098
C51	C	-0.124479	0.165032	1.232805
C52	C	-0.124487	0.166627	1.292200
N53	N	0.000113	0.167405	1.321911
C54	C	0.124714	0.166625	1.292212
C55	C	-0.124474	0.157082	0.929807
C56	C	-0.124474	0.155533	0.870397
C57	C	0.124737	0.155533	0.870409
C58	C	0.124736	0.157092	0.929819
C59	C	0.000126	0.157861	0.959517
C60	C	0.124697	0.169923	1.416969
C61	C	0.124683	0.171498	1.476380
C62	C	-0.124527	0.171491	1.476364
C63	C	-0.124514	0.169923	1.416958
C64	C	0.000110	0.169135	1.387262
O65	O	-0.230397	0.167475	1.322965
O66	O	0.230677	0.167416	1.322946
H67	H	0.239070	-0.008108	0.750175
H68	H	0.369574	-0.163817	0.819815
H69	H	0.630637	0.319189	0.603740
C70	C	-0.386172	0.165091	1.235763
N71	N	-0.489423	0.165736	1.260364
C72	C	-0.261588	0.169067	1.384278
N73	N	-0.364835	0.168411	1.359669
C74	C	-0.386178	0.161792	1.111021
N75	N	-0.489436	0.161112	1.086420
H76	H	0.761152	-0.008173	0.750164
H77	H	0.350785	0.164924	1.227285
H78	H	0.000162	-0.130114	0.779892
H79	H	0.350790	0.162080	1.119522
H80	H	0.000108	-0.605344	0.774171
C81	C	0.000190	-0.262994	0.887505
N82	N	0.000212	-0.221675	0.931092
C83	C	0.651169	-0.188387	0.830781
N84	N	0.710763	-0.259514	0.862584
C85	C	0.349034	0.343712	0.592755
N86	N	0.289431	0.414790	0.560933
C87	C	0.000172	-0.538033	0.884198
N88	N	0.000194	-0.605221	0.926483
C89	C	0.000079	-0.166166	0.566218
N90	N	0.000075	-0.098970	0.523935
H91	H	-0.225952	0.157721	0.953983
C92	C	-0.261582	0.172341	1.509045
N93	N	-0.364812	0.172969	1.533663
H94	H	0.226203	0.157737	0.954002
H95	H	0.226158	0.172147	1.500565
H96	H	0.000065	-0.426964	0.577943
H97	H	0.226177	0.169293	1.392797
H98	H	0.226194	0.154896	0.846217
C99	C	-0.261552	0.154673	0.837726
N100	N	-0.364805	0.154015	0.813120
