data_functionalizedCrystal
_audit_creation_method	'MofGen! by Chris Wilmer'
_symmetry_space_group_name_H-M	'P1'
_symmetry_Int_Tables_number	1
_symmetry_cell_setting	triclinic
loop_
_symmetry_equiv_pos_as_xyz
  x,y,z
_cell_length_a	6.817900
_cell_length_b	16.256275
_cell_length_c	19.453114
_cell_angle_alpha	95.856798
_cell_angle_beta	101.709288
_cell_angle_gamma	103.500333
loop_
_atom_site_label
_atom_site_type_symbol
_atom_site_fract_x
_atom_site_fract_y
_atom_site_fract_z
V1	V	-4.006925	-0.117976	-0.219251
O2	O	-3.994737	0.004762	-0.214820
O3	O	-3.958652	-0.233054	-0.217999
O4	O	-3.949838	-0.116559	-0.314761
O5	O	-4.003613	-0.112539	-0.117388
V6	V	-4.491662	-0.103248	-0.207037
O7	O	-4.265520	-0.150283	-0.246042
O8	O	-4.683263	-0.070941	-0.180245
O9	O	-4.316727	0.011830	-0.208289
O10	O	-4.621245	-0.225986	-0.211468
O11	O	-4.612370	-0.108685	-0.308900
O12	O	-4.325541	-0.104665	-0.111527
C13	C	-3.803965	-0.261096	-0.214604
C14	C	-3.845726	-0.355176	-0.214216
C15	C	-4.136426	-0.587009	-0.216934
C16	C	-4.097598	-0.652206	-0.273071
C17	C	-3.922092	-0.527422	-0.213495
C18	C	-4.035318	-0.629862	-0.156682
C19	C	-3.995871	-0.693802	-0.212796
C20	C	-3.882739	-0.591388	-0.269686
C21	C	-3.820456	-0.569030	-0.153245
C22	C	-3.781485	-0.634201	-0.209394
C23	C	-3.879596	-0.431574	-0.213899
C24	C	-4.038355	-0.789649	-0.212397
C25	C	-3.792721	-0.112493	-0.338032
C26	C	-3.827331	-0.112096	-0.416114
C27	C	-4.025377	-0.116158	-0.456380
C28	C	-4.057897	-0.115785	-0.529746
C29	C	-3.892368	-0.111367	-0.562845
C30	C	-3.694291	-0.107300	-0.522569
C31	C	-3.661773	-0.107665	-0.449204
N32	N	-3.832674	-0.156062	-0.681730
N33	N	-3.863579	-0.155718	-0.751425
C34	C	-3.990333	-0.110267	-0.783891
N35	N	-4.085051	-0.065185	-0.744032
N36	N	-4.054151	-0.065533	-0.674332
C37	C	-3.927609	-0.110971	-0.642397
C38	C	-4.223653	-0.113924	-0.903709
C39	C	-4.256164	-0.113545	-0.977075
C40	C	-3.892556	-0.105069	-0.969899
C41	C	-3.860047	-0.105439	-0.896532
C42	C	-4.025605	-0.109870	-0.863443
C43	C	-4.134757	0.039867	-0.211682
C44	C	-4.072234	0.133947	-0.212074
C45	C	-4.146001	-0.108733	-0.088252
C46	C	-4.090630	-0.109126	-0.010169
H47	H	-4.100278	-0.647062	-0.108926
H48	H	-3.757774	-0.101465	-0.996846
H49	H	-4.160189	-0.119763	-0.429442
H50	H	-3.698782	-0.102141	-0.863749
O51	O	-3.469372	-0.103604	-0.410029
C52	C	-3.402292	-0.029915	-0.357663
H53	H	-3.489044	0.019316	-0.375033
H54	H	-3.435019	-0.048001	-0.305227
C55	C	-3.061072	-0.051956	-0.326497
C56	C	-3.167610	0.008512	-0.347834
H57	H	-2.916307	-0.028254	-0.320431
H58	H	-3.106265	-0.101604	-0.361775
H59	H	-3.088366	-0.067023	-0.282802
H60	H	-3.140335	0.023570	-0.391532
H61	H	-3.122406	0.058164	-0.312563
H62	H	-4.286076	-0.566154	-0.220198
O63	O	-3.680325	-0.526080	-0.092760
C64	C	-3.622963	-0.585239	-0.049660
H65	H	-3.750170	-0.647925	-0.063945
H66	H	-3.471659	-0.597590	-0.058783
C67	C	-3.436616	-0.471511	0.046589
C68	C	-3.592863	-0.548500	0.029047
H69	H	-3.418039	-0.448848	0.095139
H70	H	-3.475255	-0.431653	0.017551
H71	H	-3.310547	-0.481813	0.038981
H72	H	-3.718933	-0.538195	0.036647
H73	H	-3.554244	-0.588355	0.058089
H74	H	-4.215146	-0.688298	-0.323729
O75	O	-3.805566	-0.570878	-0.326720
C76	C	-3.766922	-0.481754	-0.326418
H77	H	-3.867192	-0.454911	-0.294500
H78	H	-3.596181	-0.449799	-0.301173
C79	C	-3.696751	-0.496797	-0.442509
C80	C	-3.819917	-0.463829	-0.403312
H81	H	-3.729431	-0.485739	-0.489940
H82	H	-3.722778	-0.556841	-0.442712
H83	H	-3.554476	-0.470165	-0.421463
H84	H	-3.962186	-0.490469	-0.424353
H85	H	-3.793915	-0.403789	-0.403114
H86	H	-3.631684	-0.654915	-0.206218
O87	O	-4.250255	-0.119850	-0.568966
C88	C	-4.317284	-0.193584	-0.621285
H89	H	-4.176744	-0.214400	-0.632375
H90	H	-4.420632	-0.247411	-0.601564
C91	C	-4.613354	-0.147730	-0.676474
C92	C	-4.440739	-0.173292	-0.690099
H93	H	-4.689516	-0.135215	-0.718921
H94	H	-4.568202	-0.098055	-0.641224
H95	H	-4.699454	-0.192590	-0.660038
H96	H	-4.354630	-0.128428	-0.706526
H97	H	-4.485881	-0.222959	-0.725353
H98	H	-3.559517	-0.103701	-0.549523
O99	O	-4.448705	-0.117528	-1.016091
C100	C	-4.587831	-0.121494	-0.971146
H101	H	-4.525020	-0.147449	-0.921339
H102	H	-4.605653	-0.054590	-0.955471
C103	C	-4.877725	-0.149263	-1.071678
C104	C	-4.800588	-0.181149	-1.010507
H105	H	-5.008967	-0.186057	-1.095958
H106	H	-4.783994	-0.146588	-1.101959
H107	H	-4.892559	-0.093510	-1.058607
H108	H	-4.785731	-0.236896	-1.023579
H109	H	-4.894322	-0.183835	-0.980229
H110	H	-4.358460	-0.117529	-0.876765
