data_functionalizedCrystal
_audit_creation_method	'MofGen! by Chris Wilmer'
_symmetry_space_group_name_H-M	'P1'
_symmetry_Int_Tables_number	1
_symmetry_cell_setting	triclinic
loop_
_symmetry_equiv_pos_as_xyz
  x,y,z
_cell_length_a	15.298114
_cell_length_b	15.297327
_cell_length_c	14.908308
_cell_angle_alpha	77.691786
_cell_angle_beta	76.526983
_cell_angle_gamma	88.422361
loop_
_atom_site_label
_atom_site_type_symbol
_atom_site_fract_x
_atom_site_fract_y
_atom_site_fract_z
Zn1	Zn	1.252514	-0.598561	0.396424
Zn2	Zn	1.235173	-0.739314	0.272918
Zn3	Zn	1.114752	-0.567141	0.264036
Zn4	Zn	1.077271	-0.722068	0.448123
O5	O	1.169927	-0.656771	0.345375
O6	O	1.373950	-0.637600	0.362121
O7	O	1.227627	-0.710543	0.143011
O8	O	1.155970	-0.447565	0.256244
O9	O	1.361209	-0.741010	0.271382
O10	O	1.257183	-0.470650	0.353509
O11	O	1.139155	-0.584048	0.136486
O12	O	0.986044	-0.567325	0.306375
O13	O	1.092089	-0.711616	0.569994
O14	O	0.958507	-0.681149	0.441623
O15	O	1.220839	-0.620876	0.532011
O16	O	1.191283	-0.860769	0.321513
O17	O	1.075274	-0.848099	0.450235
C18	C	0.940192	-0.618957	0.378646
C19	C	0.841904	-0.602802	0.392906
C20	C	0.538403	-0.772249	0.243687
C21	C	0.630750	-0.787426	0.230282
C22	C	0.683543	-0.741271	0.270937
C23	C	0.643980	-0.679937	0.324999
C24	C	0.551626	-0.664753	0.338399
C25	C	0.696766	-0.633776	0.365649
C26	C	0.657204	-0.572441	0.419711
C27	C	0.564858	-0.557261	0.433109
C28	C	0.512065	-0.603415	0.392454
C29	C	0.789120	-0.648959	0.352249
C30	C	0.802343	-0.541464	0.446961
C31	C	0.709997	-0.526287	0.460366
C32	C	1.127352	-0.886524	0.392464
C33	C	1.109217	-0.984828	0.412628
C34	C	1.299884	-1.288233	0.201522
C35	C	1.316923	-1.195872	0.182572
C36	C	1.264998	-1.143106	0.240084
C37	C	1.196032	-1.182712	0.316550
C38	C	1.178987	-1.275082	0.335497
C39	C	1.144101	-1.129954	0.374060
C40	C	1.075134	-1.169560	0.450525
C41	C	1.058093	-1.261921	0.469469
C42	C	1.110018	-1.314686	0.411957
C43	C	1.161146	-1.037585	0.355113
C44	C	1.040248	-1.024433	0.489088
C45	C	1.023210	-1.116795	0.508038
C46	C	1.400560	-0.694733	0.311975
C47	C	1.498842	-0.710911	0.297742
C48	C	1.154217	-0.667827	0.585314
C49	C	1.147523	-0.672539	0.687561
C50	C	1.212691	-0.426125	0.298119
C51	C	1.230915	-0.327838	0.277981
C52	C	1.185639	-0.645702	0.106350
C53	C	1.192551	-0.640769	0.004028
C54	C	1.269011	-0.586884	0.840140
C55	C	1.262724	-0.591309	0.936210
C56	C	1.128659	-0.685807	0.975771
C57	C	1.134946	-0.681382	0.879701
C58	C	1.205125	-0.631921	0.811889
C59	C	1.211415	-0.627502	0.715818
C60	C	1.077346	-0.721994	0.755380
C61	C	1.071060	-0.726418	0.851449
H62	H	0.495413	-0.809815	0.210584
C63	C	0.998300	-0.870431	0.917950
C64	C	0.993922	-0.780787	0.925992
H65	H	0.950675	-0.903995	0.963966
H66	H	1.054277	-0.893862	0.927745
H67	H	0.992903	-0.874231	0.856687
H68	H	0.999327	-0.776986	0.987253
H69	H	0.937932	-0.757350	0.916205
H70	H	1.278874	-1.067901	0.224650
C71	C	1.341783	-0.442876	0.773626
C72	C	1.346150	-0.532523	0.765593
H73	H	1.389404	-0.409317	0.727599
H74	H	1.347189	-0.439071	0.834876
H75	H	1.285798	-0.419441	0.763835
H76	H	1.402133	-0.555960	0.775391
H77	H	1.340752	-0.536333	0.704328
H78	H	1.314745	-0.554633	0.959207
H79	H	0.758735	-0.753632	0.260020
C80	C	0.429165	-0.486257	0.495702
C81	C	0.521369	-0.489839	0.492529
H82	H	0.402320	-0.444630	0.532382
H83	H	0.402157	-0.543817	0.523436
H84	H	0.420486	-0.467882	0.433439
H85	H	0.530048	-0.508221	0.554792
H86	H	0.548385	-0.432267	0.464798
C87	C	1.059483	-0.734515	1.140605
C88	C	1.051511	-0.740155	1.050319
H89	H	1.011855	-0.768068	1.186626
H90	H	1.056536	-0.673698	1.146029
H91	H	1.115462	-0.757969	1.150395
H92	H	0.995535	-0.716695	1.040526
H93	H	1.054450	-0.800984	1.044892
H94	H	1.373074	-1.163628	0.120314
C95	C	0.362673	-0.666912	0.452198
C96	C	0.410552	-0.586735	0.407183
H97	H	0.300003	-0.656615	0.461283
H98	H	0.376843	-0.688450	0.511648
H99	H	0.378692	-0.710042	0.414180
H100	H	0.394538	-0.543606	0.445204
H101	H	0.396376	-0.565185	0.347724
C102	C	0.992104	-0.996052	0.645249
C103	C	0.983167	-0.966445	0.552316
H104	H	0.956861	-0.960251	0.684278
H105	H	1.053417	-0.991252	0.647035
H106	H	0.972080	-1.056729	0.667463
H107	H	1.003197	-0.905769	0.530099
H108	H	0.921841	-0.971235	0.550526
C109	C	0.679314	-0.485965	0.611554
C110	C	0.666501	-0.458867	0.519786
H111	H	0.652456	-0.444345	0.648238
H112	H	0.741861	-0.488390	0.609389
H113	H	0.652299	-0.543532	0.639277
H114	H	0.693522	-0.401302	0.492061
H115	H	0.603942	-0.456432	0.521948
C116	C	1.050076	-0.833950	0.673503
C117	C	1.007113	-0.771501	0.724329
H118	H	1.006718	-0.864510	0.654331
H119	H	1.079872	-0.875833	0.712334
H120	H	1.092765	-0.803852	0.619366
H121	H	0.964428	-0.801599	0.778470
H122	H	0.977303	-0.729612	0.685496
C123	C	0.792765	-0.801225	0.333740
C124	C	0.832601	-0.716383	0.292837
H125	H	0.819613	-0.842853	0.297062
H126	H	0.730219	-0.798781	0.335896
H127	H	0.801460	-0.819586	0.395998
H128	H	0.823900	-0.698019	0.230581
H129	H	0.895162	-0.718825	0.290671
H130	H	0.845328	-0.503878	0.480063
H131	H	1.217298	-1.005346	0.292854
H132	H	1.342149	-1.331202	0.154698
H133	H	0.662955	-0.837363	0.186264
H134	H	1.096150	-1.389896	0.427383
C135	C	0.940305	-1.239642	0.599999
C136	C	0.982281	-1.305456	0.553516
H137	H	0.893506	-1.266521	0.651888
H138	H	0.915779	-1.196253	0.557406
H139	H	0.983164	-1.211530	0.622240
H140	H	0.939423	-1.333564	0.531269
H141	H	1.006807	-1.348861	0.596116
H142	H	0.967056	-1.149055	0.570296
H143	H	1.268560	-0.587229	0.660605
