data_functionalizedCrystal
_audit_creation_method	'MofGen! by Chris Wilmer'
_symmetry_space_group_name_H-M	'P1'
_symmetry_Int_Tables_number	1
_symmetry_cell_setting	triclinic
loop_
_symmetry_equiv_pos_as_xyz
  x,y,z
_cell_length_a	15.944493
_cell_length_b	15.944551
_cell_length_c	17.766277
_cell_angle_alpha	89.994570
_cell_angle_beta	89.994675
_cell_angle_gamma	83.486891
loop_
_atom_site_label
_atom_site_type_symbol
_atom_site_fract_x
_atom_site_fract_y
_atom_site_fract_z
O1	O	1.114556	0.108100	-0.062586
O2	O	0.870000	0.121507	-0.062590
O3	O	0.998956	-0.007473	-0.062581
O4	O	0.985600	0.237079	-0.062595
O5	O	0.998942	-0.007476	0.062608
O6	O	0.869985	0.121504	0.062599
O7	O	1.114542	0.108097	0.062603
Cu8	Cu	0.992262	0.114800	0.074031
Cu9	Cu	0.992279	0.114803	-0.074018
O10	O	0.985585	0.237076	0.062594
C11	C	0.838698	0.120957	0.000004
C12	C	0.745449	0.119314	0.000003
C13	C	0.509689	0.195235	-0.000002
C14	C	0.459124	0.154293	0.061728
C15	C	0.574728	0.116270	0.000004
C16	C	0.459143	0.154277	-0.061698
C17	C	0.409819	0.113336	0.000003
C18	C	0.525391	0.075349	0.061785
C19	C	0.525413	0.075345	-0.061696
C20	C	0.474880	0.034345	0.000049
C21	C	0.669728	0.117963	0.000006
C22	C	0.314821	0.111637	0.000007
C23	C	0.998395	-0.038768	0.000013
C24	C	0.996732	-0.132014	0.000014
C25	C	0.912826	-0.346853	0.000002
C26	C	0.951782	-0.407880	0.061728
C27	C	0.993725	-0.302739	0.000008
C28	C	0.951815	-0.407861	-0.061698
C29	C	0.990814	-0.467651	-0.000001
C30	C	1.032703	-0.362538	0.061785
C31	C	1.032726	-0.362512	-0.061696
C32	C	1.071741	-0.423521	0.000045
C33	C	0.995399	-0.207737	0.000014
C34	C	0.989146	-0.562652	-0.000001
C35	C	1.145844	0.108646	0.000007
C36	C	1.239092	0.110289	0.000004
C37	C	0.986147	0.268372	-0.000002
C38	C	0.987809	0.361617	-0.000008
N39	N	0.992256	0.114797	0.178162
C40	C	1.049392	0.057705	0.782454
C41	C	1.049394	0.057707	0.703653
C42	C	0.992277	0.114797	0.664251
C43	C	0.935169	0.171904	0.703657
C44	C	0.935175	0.171907	0.782457
C45	C	0.915772	0.125779	0.539417
C46	C	0.915765	0.125771	0.460618
C47	C	0.992260	0.114795	0.421204
C48	C	1.068765	0.103809	0.460599
C49	C	1.068770	0.103812	0.539399
C50	C	0.992265	0.114801	0.578805
C51	C	1.049370	0.057697	0.296362
C52	C	1.049372	0.057705	0.217558
C53	C	0.935141	0.171899	0.217564
C54	C	0.935145	0.171895	0.296366
C55	C	0.992259	0.114790	0.335760
N56	N	0.992289	0.114801	0.821851
H57	H	0.554213	0.042020	0.114025
N58	N	0.454376	-0.055816	0.000104
H59	H	0.420878	-0.066371	-0.046515
H60	H	0.508520	-0.095395	0.000596
H61	H	1.066919	-0.342388	-0.113883
N62	N	0.873534	0.233482	0.175084
H63	H	0.905629	0.270686	0.142382
H64	H	0.836352	0.201311	0.142441
N65	N	0.563767	0.031200	-0.130818
H66	H	0.539547	0.061094	-0.177422
H67	H	0.626983	0.032179	-0.129980
N68	N	0.873540	0.233467	0.338861
H69	H	0.882210	0.224805	0.394759
H70	H	0.883242	0.293060	0.325081
N71	N	0.420780	0.198468	0.130846
H72	H	0.357685	0.196533	0.130584
H73	H	0.445881	0.169238	0.177430
N74	N	0.420723	0.198493	-0.130768
H75	H	0.433064	0.259240	-0.130697
H76	H	0.445720	0.169284	-0.177400
H77	H	1.095899	0.011208	0.814527
H78	H	1.138950	-0.456694	0.000081
N79	N	0.873557	0.233477	0.661167
H80	H	0.883234	0.293098	0.674870
H81	H	0.882244	0.224738	0.605282
H82	H	0.853470	0.134706	0.428550
N83	N	1.110979	-0.003886	0.338849
H84	H	1.148170	0.028228	0.371538
H85	H	1.078825	-0.041080	0.371506
N86	N	0.873577	0.233486	0.824955
H87	H	0.837392	0.269655	0.788040
H88	H	0.836447	0.201307	0.857653
H89	H	0.845675	-0.313532	0.000063
H90	H	1.066886	-0.342556	0.114027
N91	N	0.530388	0.285331	0.000061
H92	H	0.506139	0.315061	0.046730
H93	H	0.593678	0.285762	-0.000450
N94	N	1.110961	-0.003905	0.661150
H95	H	1.102282	0.004752	0.605253
H96	H	1.170561	0.005793	0.674900
H97	H	0.917594	-0.427929	-0.113886
N98	N	0.833262	0.137632	0.581925
H99	H	0.784798	0.144587	0.545014
H100	H	0.828352	0.086606	0.614630
H101	H	0.917558	-0.427983	0.113912
N102	N	1.151277	0.091985	0.581893
H103	H	1.156245	0.143010	0.614578
H104	H	1.153064	0.039966	0.614555
N105	N	1.151278	0.091969	0.418101
H106	H	1.139670	0.093639	0.362204
H107	H	1.186258	0.138683	0.431870
N108	N	1.110971	-0.003876	0.175062
H109	H	1.147149	-0.040049	0.211978
H110	H	1.078808	-0.041019	0.142373
