data_functionalizedCrystal
_audit_creation_method	'MofGen! by Chris Wilmer'
_symmetry_space_group_name_H-M	'P1'
_symmetry_Int_Tables_number	1
_symmetry_cell_setting	triclinic
loop_
_symmetry_equiv_pos_as_xyz
  x,y,z
_cell_length_a	16.109301
_cell_length_b	16.992695
_cell_length_c	14.586319
_cell_angle_alpha	89.995905
_cell_angle_beta	89.999213
_cell_angle_gamma	87.064852
loop_
_atom_site_label
_atom_site_type_symbol
_atom_site_fract_x
_atom_site_fract_y
_atom_site_fract_z
O1	O	1.109856	0.100784	-0.076183
O2	O	1.609856	0.600784	0.423817
O3	O	0.868631	0.113326	-0.076198
O4	O	1.368631	0.613326	0.423802
O5	O	0.988277	-0.007087	-0.076183
O6	O	1.488277	0.492913	0.423817
O7	O	0.990211	0.221197	-0.076198
O8	O	1.490211	0.721197	0.423802
O9	O	0.988268	-0.007089	0.076298
O10	O	1.488268	0.492911	0.576298
O11	O	0.868622	0.113324	0.076283
O12	O	1.368622	0.613324	0.576283
O13	O	1.109847	0.100782	0.076298
O14	O	1.609847	0.600782	0.576298
Cu15	Cu	0.989234	0.107053	0.090213
Cu16	Cu	1.489234	0.607053	0.590213
Cu17	Cu	0.989244	0.107055	-0.090113
Cu18	Cu	1.489244	0.607055	0.409887
O19	O	0.990202	0.221196	0.076283
O20	O	1.490202	0.721196	0.576283
C21	C	0.837618	0.112817	0.000041
C22	C	1.337618	0.612817	0.500041
C23	C	0.745221	0.111294	0.000035
C24	C	1.245221	0.611294	0.500035
C25	C	0.985784	-0.036300	0.000057
C26	C	1.485784	0.463700	0.500057
C27	C	0.978361	-0.123343	0.000056
C28	C	1.478361	0.376657	0.500056
C29	C	0.527480	0.179203	0.000042
C30	C	1.027480	0.679203	0.500042
C31	C	0.440664	0.177766	0.000048
C32	C	0.940664	0.677766	0.500048
C33	C	0.451005	0.034899	0.000053
C34	C	0.951005	0.534899	0.500053
C35	C	0.537819	0.036337	0.000054
C36	C	1.037819	0.536337	0.500054
C37	C	0.576055	0.108492	0.000043
C38	C	1.076055	0.608492	0.500043
C39	C	0.402424	0.105616	0.000049
C40	C	0.902424	0.605616	0.500049
C41	C	0.308294	0.104057	0.000055
C42	C	0.808294	0.604057	0.500055
C43	C	0.670191	0.110051	0.000039
C44	C	1.170191	0.610051	0.500039
C45	C	1.049987	-0.173601	0.000062
C46	C	1.549987	0.326399	0.500062
C47	C	1.043007	-0.255386	0.000052
C48	C	1.543007	0.244614	0.500052
C49	C	0.964400	-0.286911	0.000045
C50	C	1.464400	0.213089	0.500045
C51	C	0.892768	-0.236645	0.000037
C52	C	1.392768	0.263355	0.500037
C53	C	0.899749	-0.154862	0.000039
C54	C	1.399749	0.345138	0.500039
C55	C	0.935467	-0.530501	0.000030
C56	C	1.435467	-0.030501	0.500030
C57	C	0.928491	-0.612291	0.000030
C58	C	1.428491	-0.112291	0.500030
C59	C	1.078731	-0.631026	0.000045
C60	C	1.578731	-0.131026	0.500045
C61	C	1.085704	-0.549240	0.000053
C62	C	1.585704	-0.049240	0.500053
C63	C	1.014073	-0.498982	0.000040
C64	C	1.514073	0.001018	0.500040
N65	N	0.957263	-0.370508	0.000038
N66	N	1.457263	0.129492	0.500038
N67	N	1.021210	-0.415387	0.000040
N68	N	1.521210	0.084613	0.500040
C69	C	1.140860	0.101291	0.000057
C70	C	1.640860	0.601291	0.500057
C71	C	1.233257	0.102814	0.000057
C72	C	1.733257	0.602814	0.500057
C73	C	0.992694	0.250408	0.000041
C74	C	1.492694	0.750408	0.500041
C75	C	1.000118	0.337451	0.000036
C76	C	1.500118	0.837451	0.500036
N77	N	0.989232	0.107051	0.217045
N78	N	1.489232	0.607051	0.717045
N79	N	0.989252	0.107051	-0.216945
N80	N	1.489252	0.607051	0.283055
C81	C	1.042231	0.053750	0.452058
C82	C	1.542231	0.553750	0.952058
C83	C	1.042233	0.053748	0.548039
C84	C	1.542233	0.553748	1.048039
C85	C	0.936247	0.160355	0.548036
C86	C	1.436247	0.660355	1.048036
C87	C	0.936241	0.160352	0.452056
C88	C	1.436241	0.660352	0.952056
C89	C	0.989238	0.107051	0.404070
C90	C	1.489238	0.607051	0.904070
C91	C	0.989246	0.107051	0.596030
C92	C	1.489246	0.607051	1.096030
C93	C	0.989248	0.107050	0.700098
C94	C	1.489248	0.607050	1.200098
C95	C	0.989235	0.107051	0.299996
C96	C	1.489235	0.607051	0.799996
H97	H	0.558608	0.237956	0.000040
H98	H	1.058608	0.737956	0.500040
C99	C	1.157521	-0.686311	0.000049
C100	C	1.657521	-0.186311	0.500049
C101	C	1.220448	-0.682803	0.079232
C102	C	1.720448	-0.182803	0.579232
C103	C	1.299242	-0.738089	0.079232
C104	C	1.799242	-0.238089	0.579232
C105	C	1.315109	-0.796881	0.000050
C106	C	1.815109	-0.296881	0.500050
C107	C	1.252179	-0.800391	-0.079138
C108	C	1.752179	-0.300391	0.420862
C109	C	1.173385	-0.745106	-0.079139
C110	C	1.673385	-0.245106	0.420861
H111	H	1.208705	-0.639280	0.137852
H112	H	1.708705	-0.139280	0.637852
H113	H	1.345827	-0.735490	0.137853
H114	H	1.845827	-0.235490	0.637853
H115	H	1.373437	-0.837807	0.000051
H116	H	1.873437	-0.337807	0.500051
H117	H	1.263923	-0.843915	-0.137759
H118	H	1.763923	-0.343915	0.362241
H119	H	1.126801	-0.747704	-0.137760
H120	H	1.626801	-0.247704	0.362240
H121	H	0.401118	0.235347	0.000048
H122	H	0.901118	0.735347	0.500048
C123	C	0.856671	-0.475228	0.000033
C124	C	1.356671	0.024772	0.500033
C125	C	0.793737	-0.478744	-0.079142
C126	C	1.293737	0.021256	0.420858
C127	C	0.714936	-0.423469	-0.079135
C128	C	1.214936	0.076531	0.420865
C129	C	0.699069	-0.364677	0.000047
C130	C	1.199069	0.135323	0.500047
C131	C	0.762004	-0.361158	0.079229
C132	C	1.262004	0.138842	0.579229
C133	C	0.840806	-0.416434	0.079221
C134	C	1.340806	0.083566	0.579221
H135	H	0.805481	-0.522268	-0.137763
H136	H	1.305481	-0.022268	0.362237
H137	H	0.668347	-0.426074	-0.137751
H138	H	1.168347	0.073926	0.362249
H139	H	0.640735	-0.323759	0.000053
H140	H	1.140735	0.176241	0.500053
H141	H	0.750260	-0.317635	0.137849
H142	H	1.250260	0.182365	0.637849
H143	H	0.887395	-0.413829	0.137837
H144	H	1.387395	0.086171	0.637837
H145	H	0.893084	0.203757	0.412982
H146	H	1.393084	0.703757	0.912982
C147	C	0.591259	-0.041450	0.000055
C148	C	1.091259	0.458550	0.500055
C149	C	0.652370	-0.060101	-0.079120
C150	C	1.152370	0.439899	0.420880
C151	C	0.705811	-0.137884	-0.079114
C152	C	1.205811	0.362116	0.420886
C153	C	0.698140	-0.197016	0.000067
C154	C	1.198140	0.302984	0.500067
C155	C	0.637027	-0.178367	0.079247
C156	C	1.137027	0.321633	0.579247
C157	C	0.583586	-0.100584	0.079241
C158	C	1.083586	0.399416	0.579241
H159	H	0.658051	-0.016326	-0.137740
H160	H	1.158051	0.483674	0.362260
H161	H	0.751051	-0.151689	-0.137729
H162	H	1.251051	0.348311	0.362271
H163	H	0.737700	-0.254595	0.000071
H164	H	1.237700	0.245405	0.500071
H165	H	0.631346	-0.222141	0.137867
H166	H	1.131346	0.277859	0.637867
H167	H	0.538346	-0.086779	0.137857
H168	H	1.038346	0.413221	0.637857
H169	H	0.864477	-0.637954	0.000039
H170	H	1.364477	-0.137954	0.500039
H171	H	0.419863	-0.023846	0.000067
H172	H	0.919863	0.476154	0.500067
H173	H	0.828765	-0.262319	0.000024
H174	H	1.328765	0.237681	0.500024
H175	H	1.113997	-0.147941	0.000074
H176	H	1.613997	0.352059	0.500074
H177	H	0.841423	-0.113942	0.000035
H178	H	1.341423	0.386058	0.500035
H179	H	1.101332	-0.296304	0.000059
H180	H	1.601332	0.203696	0.500059
C181	C	1.172174	-0.514566	0.000044
C182	C	1.672174	-0.014566	0.500044
C183	C	1.250964	-0.569849	0.000036
C184	C	1.750964	-0.069849	0.500036
C185	C	1.337434	-0.535175	0.000025
C186	C	1.837434	-0.035175	0.500025
C187	C	1.345114	-0.445217	0.000021
C188	C	1.845114	0.054783	0.500021
C189	C	1.266321	-0.389928	0.000028
C190	C	1.766321	0.110072	0.500028
C191	C	1.179851	-0.424602	0.000040
C192	C	1.679851	0.075398	0.500040
H193	H	1.245281	-0.636447	0.000039
H194	H	1.745281	-0.136447	0.500039
H195	H	1.395761	-0.576104	0.000019
H196	H	1.895761	-0.076104	0.500019
H197	H	1.409124	-0.419548	0.000012
H198	H	1.909124	0.080452	0.500012
H199	H	1.272004	-0.323330	0.000025
H200	H	1.772004	0.176670	0.500025
H201	H	1.121524	-0.383673	0.000045
H202	H	1.621524	0.116327	0.500045
H203	H	0.893100	0.203753	0.587116
H204	H	1.393100	0.703753	1.087116
H205	H	1.085383	0.010347	0.412989
H206	H	1.585383	0.510347	0.912989
C207	C	1.100529	-0.004882	0.600827
C208	C	1.600529	0.495118	1.100827
C209	C	1.158829	-0.063502	0.548042
C210	C	1.658829	0.436498	1.048042
C211	C	1.217126	-0.122135	0.600830
C212	C	1.717126	0.377865	1.100830
C213	C	1.217124	-0.122147	0.706404
C214	C	1.717124	0.377853	1.206404
C215	C	1.158822	-0.063524	0.759195
C216	C	1.658822	0.436476	1.259195
C217	C	1.100525	-0.004892	0.706407
C218	C	1.600525	0.495108	1.206407
H219	H	1.158832	-0.063495	0.469884
H220	H	1.658832	0.436505	0.969884
H221	H	1.260285	-0.165532	0.561750
H222	H	1.760285	0.334468	1.061750
H223	H	1.260279	-0.165551	0.745481
H224	H	1.760279	0.334449	1.245481
H225	H	1.158818	-0.063531	0.837352
H226	H	1.658818	0.436469	1.337352
H227	H	1.057366	0.038505	0.745487
H228	H	1.557366	0.538505	1.245487
