data_functionalizedCrystal
_audit_creation_method	'MofGen! by Chris Wilmer'
_symmetry_space_group_name_H-M	'P1'
_symmetry_Int_Tables_number	1
_symmetry_cell_setting	triclinic
loop_
_symmetry_equiv_pos_as_xyz
  x,y,z
_cell_length_a	16.109301
_cell_length_b	17.038272
_cell_length_c	15.186229
_cell_angle_alpha	89.995962
_cell_angle_beta	89.999362
_cell_angle_gamma	87.286518
loop_
_atom_site_label
_atom_site_type_symbol
_atom_site_fract_x
_atom_site_fract_y
_atom_site_fract_z
O1	O	1.110268	0.100495	-0.073174
O2	O	1.610268	0.600495	0.426826
O3	O	0.869094	0.113001	-0.073188
O4	O	1.369094	0.613001	0.426812
O5	O	0.988247	-0.007067	-0.073174
O6	O	1.488247	0.492933	0.426826
O7	O	0.991114	0.220563	-0.073187
O8	O	1.491114	0.720563	0.426813
O9	O	0.988239	-0.007069	0.073284
O10	O	1.488239	0.492931	0.573284
O11	O	0.869085	0.113000	0.073270
O12	O	1.369085	0.613000	0.573270
O13	O	1.110259	0.100493	0.073284
O14	O	1.610259	0.600493	0.573284
Zn15	Zn	0.989671	0.106746	0.096530
Zn16	Zn	1.489671	0.606746	0.596530
Zn17	Zn	0.989682	0.106748	-0.096434
Zn18	Zn	1.489682	0.606748	0.403566
O19	O	0.991105	0.220562	0.073270
O20	O	1.491105	0.720562	0.573270
C21	C	0.838079	0.112494	0.000039
C22	C	1.338079	0.612494	0.500039
C23	C	0.745676	0.110975	0.000034
C24	C	1.245676	0.610975	0.500034
C25	C	0.528212	0.178690	0.000040
C26	C	1.028212	0.678690	0.500040
C27	C	0.441390	0.177257	0.000046
C28	C	0.941390	0.677257	0.500046
C29	C	0.451147	0.034799	0.000051
C30	C	0.951147	0.534799	0.500051
C31	C	0.537968	0.036233	0.000051
C32	C	1.037968	0.536233	0.500051
C33	C	0.576498	0.108181	0.000042
C34	C	1.076498	0.608181	0.500042
C35	C	0.402855	0.105314	0.000047
C36	C	0.902855	0.605314	0.500047
C37	C	0.308719	0.103759	0.000053
C38	C	0.808719	0.603759	0.500053
C39	C	0.670640	0.109736	0.000037
C40	C	1.170640	0.609736	0.500037
C41	C	0.985636	-0.036196	0.000055
C42	C	1.485636	0.463804	0.500055
C43	C	0.977857	-0.122989	0.000054
C44	C	1.477857	0.377011	0.500054
C45	C	1.049277	-0.173104	0.000059
C46	C	1.549277	0.326896	0.500059
C47	C	1.041963	-0.254654	0.000050
C48	C	1.541963	0.245346	0.500050
C49	C	0.963228	-0.286089	0.000043
C50	C	1.463228	0.213911	0.500043
C51	C	0.891802	-0.235967	0.000035
C52	C	1.391802	0.264033	0.500035
C53	C	0.899116	-0.154418	0.000038
C54	C	1.399116	0.345582	0.500038
C55	C	0.937385	-0.531846	0.000029
C56	C	1.437385	-0.031846	0.500029
C57	C	0.930076	-0.613402	0.000029
C58	C	1.430076	-0.113402	0.500029
C59	C	1.080238	-0.632083	0.000043
C60	C	1.580238	-0.132083	0.500043
C61	C	1.087546	-0.550532	0.000051
C62	C	1.587546	-0.050532	0.500051
C63	C	1.016120	-0.500418	0.000038
C64	C	1.516120	-0.000418	0.500038
C65	C	0.955749	-0.369446	0.000037
C66	C	1.455749	0.130554	0.500037
C67	C	1.023599	-0.417062	0.000038
C68	C	1.523599	0.082938	0.500038
C69	C	1.141274	0.101001	0.000055
C70	C	1.641274	0.601001	0.500055
C71	C	1.233677	0.102519	0.000054
C72	C	1.733677	0.602519	0.500054
C73	C	0.993717	0.249691	0.000039
C74	C	1.493717	0.749691	0.500039
C75	C	1.001496	0.336484	0.000034
C76	C	1.501496	0.836484	0.500034
N77	N	0.989669	0.106744	0.228223
N78	N	1.489669	0.606744	0.728223
N79	N	0.989690	0.106744	-0.228126
N80	N	1.489690	0.606744	0.271874
C81	C	1.042451	0.053596	0.453952
C82	C	1.542451	0.553596	0.953952
C83	C	1.042453	0.053594	0.546141
C84	C	1.542453	0.553594	1.046141
C85	C	0.936902	0.159895	0.546138
C86	C	1.436902	0.659895	1.046138
C87	C	0.936896	0.159893	0.453950
C88	C	1.436896	0.659893	0.953950
C89	C	0.989675	0.106744	0.407859
C90	C	1.489675	0.606744	0.907859
C91	C	0.989684	0.106745	0.592237
C92	C	1.489684	0.606745	1.092237
C93	C	0.989686	0.106743	0.692193
C94	C	1.489686	0.606743	1.192193
C95	C	0.989672	0.106744	0.307897
C96	C	1.489672	0.606744	0.807897
H97	H	1.100122	-0.295455	0.000056
H98	H	1.600122	0.204545	0.500056
C99	C	1.100497	-0.004872	0.403254
C100	C	1.600497	0.495128	0.903254
H101	H	1.131922	-0.036530	0.443912
H102	H	1.631922	0.463470	0.943912
H103	H	1.137093	0.023257	0.367284
H104	H	1.637093	0.523257	0.867284
H105	H	1.068278	-0.037429	0.367301
H106	H	1.568278	0.462571	0.867301
C107	C	0.570593	0.257828	0.000039
C108	C	1.070593	0.757828	0.500039
H109	H	0.529398	0.299615	0.000047
H110	H	1.029398	0.799615	0.500047
H111	H	0.604260	0.261354	-0.051033
H112	H	1.104260	0.761354	0.448967
H113	H	0.604257	0.261345	0.051119
H114	H	1.104257	0.761345	0.551119
C115	C	0.388279	0.254816	0.000038
C116	C	0.888279	0.754816	0.500038
H117	H	0.423664	0.297868	0.000026
H118	H	0.923664	0.797868	0.500026
H119	H	0.354207	0.257221	0.051110
H120	H	0.854207	0.757221	0.551110
H121	H	0.354209	0.257217	-0.051042
H122	H	0.854209	0.757217	0.448958
H123	H	1.087705	-0.391465	0.000025
H124	H	1.587705	0.108535	0.500025
C125	C	0.878843	0.218360	0.403245
C126	C	1.378843	0.718360	0.903245
H127	H	0.847419	0.250022	0.443897
H128	H	1.347419	0.750022	0.943897
H129	H	0.842245	0.190225	0.367288
H130	H	1.342245	0.690225	0.867288
H131	H	0.911056	0.250915	0.367277
H132	H	1.411056	0.750915	0.867277
H133	H	1.085427	0.010315	0.583667
H134	H	1.585427	0.510315	1.083667
H135	H	0.419765	-0.023778	0.000064
H136	H	0.919765	0.476222	0.500064
H137	H	0.865956	-0.638991	0.000037
H138	H	1.365956	-0.138991	0.500037
C139	C	0.591089	-0.041328	0.000052
C140	C	1.091089	0.458672	0.500052
H141	H	0.648314	-0.030168	0.000061
H142	H	1.148314	0.469832	0.500061
H143	H	0.578869	-0.070830	-0.051019
H144	H	1.078869	0.429170	0.448981
H145	H	0.578865	-0.070829	0.051133
H146	H	1.078865	0.429171	0.551133
C147	C	0.878859	0.218361	0.596841
C148	C	1.378859	0.718361	1.096841
H149	H	0.886427	0.210757	0.658346
H150	H	1.386427	0.710757	1.158346
H151	H	0.822770	0.209859	0.581741
H152	H	1.322770	0.709859	1.081741
H153	H	0.891585	0.270545	0.581722
H154	H	1.391585	0.770545	1.081722
C155	C	0.858819	-0.476731	0.000031
C156	C	1.358819	0.023269	0.500031
H157	H	0.810882	-0.507135	0.000038
H158	H	1.310882	-0.007135	0.500038
H159	H	0.858546	-0.444524	-0.051039
H160	H	1.358546	0.055476	0.448961
H161	H	0.858551	-0.444538	0.051113
H162	H	1.358551	0.055462	0.551113
C163	C	1.135887	-0.138534	0.000067
C164	C	1.635887	0.361466	0.500067
H165	H	1.177374	-0.180063	0.000061
H166	H	1.677374	0.319937	0.500061
H167	H	1.141861	-0.107113	0.051141
H168	H	1.641861	0.392887	0.551141
H169	H	1.141864	-0.107107	-0.051012
H170	H	1.641864	0.392893	0.448988
H171	H	1.138389	-0.672894	0.000051
H172	H	1.638389	-0.172894	0.500051
C173	C	1.174155	-0.515960	0.000048
C174	C	1.674155	-0.015960	0.500048
H175	H	1.215645	-0.557487	0.000040
H176	H	1.715645	-0.057487	0.500040
H177	H	1.180131	-0.484537	0.051119
H178	H	1.680131	0.015463	0.551119
H179	H	1.180127	-0.484535	-0.051033
H180	H	1.680127	0.015465	0.448967
H181	H	0.827693	-0.261567	0.000023
H182	H	1.327693	0.238433	0.500023
C183	C	0.820554	-0.099292	0.000034
C184	C	1.320554	0.400708	0.500034
H185	H	0.772614	-0.129691	0.000037
H186	H	1.272614	0.370309	0.500037
H187	H	0.820290	-0.067088	-0.051038
H188	H	1.320290	0.432912	0.448962
H189	H	0.820282	-0.067096	0.051114
H190	H	1.320282	0.432904	0.551114
H191	H	0.891642	-0.395049	0.000032
H192	H	1.391642	0.104951	0.500032
