data_functionalizedCrystal
_audit_creation_method	'MofGen! by Chris Wilmer'
_symmetry_space_group_name_H-M	'P1'
_symmetry_Int_Tables_number	1
_symmetry_cell_setting	triclinic
loop_
_symmetry_equiv_pos_as_xyz
  x,y,z
_cell_length_a	12.759401
_cell_length_b	18.050590
_cell_length_c	18.050591
_cell_angle_alpha	90.005734
_cell_angle_beta	89.999111
_cell_angle_gamma	90.018830
loop_
_atom_site_label
_atom_site_type_symbol
_atom_site_fract_x
_atom_site_fract_y
_atom_site_fract_z
Zn1	Zn	1.606026	-0.295830	0.419846
Zn2	Zn	1.605968	-0.419975	0.295654
Zn3	Zn	1.430387	-0.295804	0.295677
Zn4	Zn	1.430305	-0.419983	0.419809
O5	O	1.518171	-0.357898	0.357747
O6	O	1.753039	-0.312306	0.403377
O7	O	1.582687	-0.403489	0.191733
O8	O	1.453745	-0.191883	0.312173
O9	O	1.752997	-0.403515	0.312134
O10	O	1.582786	-0.191902	0.403399
O11	O	1.453689	-0.312262	0.191749
O12	O	1.283355	-0.312269	0.312138
O13	O	1.453604	-0.403529	0.523739
O14	O	1.283295	-0.403503	0.403337
O15	O	1.582706	-0.312314	0.523766
O16	O	1.582607	-0.523901	0.312099
O17	O	1.453548	-0.523907	0.403315
C18	C	1.245204	-0.357885	0.357736
C19	C	1.128427	-0.357897	0.357750
C20	C	0.963830	-0.405486	0.405168
C21	C	1.073554	-0.405478	0.405160
C22	C	1.073571	-0.310327	0.310339
C23	C	0.963849	-0.310340	0.310343
C24	C	1.518091	-0.550850	0.357717
C25	C	1.518152	-0.633396	0.357729
C26	C	1.588480	-0.832817	0.308195
C27	C	1.614115	-0.882176	0.375974
C28	C	1.518212	-0.784527	0.357759
C29	C	1.492684	-0.882249	0.290010
C30	C	1.518271	-0.930512	0.357781
C31	C	1.543896	-0.832799	0.425573
C32	C	1.422420	-0.832867	0.339564
C33	C	1.448018	-0.882204	0.407390
C34	C	1.518180	-0.700428	0.357745
C35	C	1.518303	-1.014608	0.357803
C36	C	1.792205	-0.357912	0.357757
C37	C	1.908981	-0.357918	0.357762
C38	C	1.518152	-0.357925	0.551452
C39	C	1.518144	-0.357936	0.633998
C40	C	1.518281	-0.164193	0.357793
C41	C	1.518328	-0.081647	0.357812
C42	C	1.447930	-0.407532	0.833434
C43	C	1.543771	-0.425701	0.882821
C44	C	1.518148	-0.357926	0.785128
C45	C	1.422313	-0.339782	0.882823
C46	C	1.518144	-0.357917	0.931113
C47	C	1.614040	-0.376129	0.833428
C48	C	1.492518	-0.290179	0.833425
C49	C	1.588426	-0.308322	0.882790
C50	C	1.518149	-0.357933	0.701030
C51	C	1.518154	-0.357911	1.015210
C52	C	1.518173	-0.357895	1.164794
C53	C	1.518150	-0.357905	1.082249
H54	H	1.118257	-0.271589	0.271733
H55	H	1.118207	-0.444213	0.443762
H56	H	1.388623	-0.449519	0.811763
N57	N	1.320653	-0.320513	0.910039
N58	N	1.309210	-0.264284	0.949643
H59	H	1.237410	-0.250678	0.968863
H60	H	1.647924	-0.811131	0.266324
N61	N	0.907831	-0.261747	0.261906
N62	N	0.956829	-0.219268	0.219575
H63	H	0.917267	-0.184953	0.185366
H64	H	1.565455	-0.482989	0.904519
H65	H	1.695150	-0.903837	0.391378
N66	N	1.715738	-0.395451	0.806319
N67	N	1.732144	-0.398594	0.738120
H68	H	1.803967	-0.412239	0.718972
N69	N	1.571133	-0.805659	0.497478
N70	N	1.575540	-0.737456	0.509065
H71	H	1.594780	-0.718287	0.559845
N72	N	1.663008	-0.255693	0.909800
N73	N	1.757838	-0.262498	0.893815
H74	H	1.810515	-0.225331	0.912891
H75	H	1.388620	-0.903752	0.449362
H76	H	1.341408	-0.811190	0.324140
N77	N	1.465563	-0.909483	0.218119
N78	N	1.446938	-0.865070	0.166654
H79	H	1.427791	-0.884301	0.115879
N80	N	0.907800	-0.454089	0.453607
N81	N	0.956791	-0.496557	0.495930
H82	H	0.917223	-0.530886	0.530141
N83	N	1.465273	-0.218332	0.806191
N84	N	1.378299	-0.190672	0.821989
H85	H	1.359046	-0.139928	0.802755
