data_functionalizedCrystal
_audit_creation_method	'MofGen! by Chris Wilmer'
_symmetry_space_group_name_H-M	'P1'
_symmetry_Int_Tables_number	1
_symmetry_cell_setting	triclinic
loop_
_symmetry_equiv_pos_as_xyz
  x,y,z
_cell_length_a	18.050590
_cell_length_b	18.050590
_cell_length_c	13.897441
_cell_angle_alpha	90.033006
_cell_angle_beta	90.006213
_cell_angle_gamma	90.007719
loop_
_atom_site_label
_atom_site_type_symbol
_atom_site_fract_x
_atom_site_fract_y
_atom_site_fract_z
Zn1	Zn	1.135393	-0.295851	0.544991
Zn2	Zn	1.635393	0.204149	1.044991
Zn3	Zn	1.135310	-0.420055	0.383686
Zn4	Zn	1.635310	0.079945	0.883686
Zn5	Zn	1.011198	-0.295860	0.383750
Zn6	Zn	1.511198	0.204140	0.883750
Zn7	Zn	1.011182	-0.419980	0.544979
Zn8	Zn	1.511182	0.080020	1.044979
O9	O	1.073271	-0.357936	0.464352
O10	O	1.573271	0.142064	0.964352
O11	O	1.239307	-0.312354	0.523572
O12	O	1.739307	0.187646	1.023572
O13	O	1.118818	-0.403615	0.248713
O14	O	1.618818	0.096385	0.748713
O15	O	1.027714	-0.191934	0.405171
O16	O	1.527714	0.308066	0.905171
O17	O	1.239246	-0.403606	0.405061
O18	O	1.739246	0.096394	0.905061
O19	O	1.118960	-0.191927	0.523634
O20	O	1.618960	0.308073	1.023634
O21	O	1.027633	-0.312370	0.248760
O22	O	1.527633	0.187630	0.748760
O23	O	0.907271	-0.312297	0.405160
O24	O	1.407271	0.187703	0.905160
O25	O	1.027687	-0.403479	0.679963
O26	O	1.527687	0.096521	1.179963
O27	O	0.907259	-0.403487	0.523614
O28	O	1.407259	0.096513	1.023614
O29	O	1.118945	-0.312281	0.679971
O30	O	1.618945	0.187719	1.179971
O31	O	1.118802	-0.523969	0.405050
O32	O	1.618802	-0.023969	0.905050
O33	O	1.027606	-0.523914	0.523551
O34	O	1.527606	-0.023914	1.023551
C35	C	0.880319	-0.357885	0.464393
C36	C	1.380319	0.142115	0.964393
C37	C	0.797773	-0.357882	0.464434
C38	C	1.297773	0.142118	0.964434
C39	C	0.598337	-0.407613	0.528696
C40	C	1.098337	0.092387	1.028696
C41	C	0.548935	-0.339895	0.552434
C42	C	1.048935	0.160105	1.052434
C43	C	0.646642	-0.357923	0.464387
C44	C	1.146642	0.142077	0.964387
C45	C	0.548963	-0.425680	0.440648
C46	C	1.048963	0.074320	0.940648
C47	C	0.500657	-0.357969	0.464343
C48	C	1.000657	0.142031	0.964343
C49	C	0.598327	-0.290169	0.488170
C50	C	1.098327	0.209831	0.988170
C51	C	0.598360	-0.376000	0.376344
C52	C	1.098360	0.124000	0.876344
C53	C	0.548980	-0.308235	0.400048
C54	C	1.048980	0.191765	0.900048
C55	C	0.730741	-0.357898	0.464414
C56	C	1.230741	0.142102	0.964414
C57	C	0.416561	-0.357987	0.464315
C58	C	0.916561	0.142013	0.964315
C59	C	1.073214	-0.550888	0.464313
C60	C	1.573214	-0.050888	0.964313
C61	C	1.073257	-0.633434	0.464329
C62	C	1.573257	-0.133434	0.964329
C63	C	1.122953	-0.832888	0.399978
C64	C	1.622953	-0.332888	0.899978
C65	C	1.141097	-0.882218	0.488007
C66	C	1.641097	-0.382218	0.988007
C67	C	1.073299	-0.784564	0.464367
C68	C	1.573299	-0.284564	0.964367
C69	C	1.055231	-0.882316	0.376378
C70	C	1.555231	-0.382316	0.876378
C71	C	1.073341	-0.930550	0.464397
C72	C	1.573341	-0.430550	0.964397
C73	C	1.091478	-0.832808	0.552443
C74	C	1.591478	-0.332808	1.052443
C75	C	1.005581	-0.832901	0.440754
C76	C	1.505581	-0.332901	0.940754
C77	C	1.023699	-0.882209	0.528844
C78	C	1.523699	-0.382209	1.028844
C79	C	1.073277	-0.700466	0.464349
C80	C	1.573277	-0.200466	0.964349
C81	C	1.073364	-1.014646	0.464425
C82	C	1.573364	-0.514646	0.964425
C83	C	1.266976	-0.357988	0.464310
C84	C	1.766976	0.142012	0.964310
C85	C	1.349522	-0.358010	0.464293
C86	C	1.849522	0.141990	0.964293
C87	C	1.073323	-0.357871	0.715945
C88	C	1.573323	0.142129	1.215945
C89	C	1.073346	-0.357843	0.823159
C90	C	1.573346	0.142157	1.323159
C91	C	1.073348	-0.164231	0.464411
C92	C	1.573348	0.335769	0.964411
C93	C	1.073381	-0.081685	0.464437
C94	C	1.573381	0.418315	0.964437
C95	C	1.073261	-0.357948	0.213737
C96	C	1.573261	0.142052	0.713737
C97	C	1.073382	-0.357767	0.106524
C98	C	1.573382	0.142233	0.606524
C99	C	1.073366	-0.357792	1.019454
C100	C	1.573366	0.142208	1.519454
C101	C	1.073352	-0.357822	0.910221
C102	C	1.573352	0.142178	1.410221
H103	H	0.527225	-0.324621	0.626872
H104	H	1.027225	0.175379	1.126872
F105	F	0.930722	-0.804565	0.414594
F106	F	1.430722	-0.304565	0.914594
F107	F	1.177854	-0.804579	0.328877
F108	F	1.677854	-0.304579	0.828877
F109	F	0.520619	-0.500551	0.414427
F110	F	1.020619	-0.000551	0.914427
H111	H	0.527444	-0.266185	0.345645
H112	H	1.027444	0.233815	0.845645
F113	F	1.035233	-0.910740	0.279102
F114	F	1.535233	-0.410740	0.779102
H115	H	1.198383	-0.903883	0.507998
H116	H	1.698383	-0.403883	1.007998
F117	F	1.111571	-0.804508	0.649747
F118	F	1.611571	-0.304508	1.149747
F119	F	0.626666	-0.462444	0.599856
F120	F	1.126666	0.037556	1.099856
F121	F	0.626548	-0.215275	0.514501
F122	F	1.126548	0.284725	1.014501
H123	H	0.981726	-0.903729	0.583372
H124	H	1.481726	-0.403729	1.083372
H125	H	0.620086	-0.391294	0.301927
H126	H	1.120086	0.108706	0.801927
