data_functionalizedCrystal
_audit_creation_method	'MofGen! by Chris Wilmer'
_symmetry_space_group_name_H-M	'P1'
_symmetry_Int_Tables_number	1
_symmetry_cell_setting	triclinic
loop_
_symmetry_equiv_pos_as_xyz
  x,y,z
_cell_length_a	17.077404
_cell_length_b	19.121063
_cell_length_c	17.077396
_cell_angle_alpha	87.591200
_cell_angle_beta	90.019501
_cell_angle_gamma	92.469213
loop_
_atom_site_label
_atom_site_type_symbol
_atom_site_fract_x
_atom_site_fract_y
_atom_site_fract_z
Zn1	Zn	1.186697	-0.279610	0.457152
Zn2	Zn	1.180993	-0.397067	0.331476
Zn3	Zn	1.055428	-0.279634	0.325901
Zn4	Zn	1.049788	-0.397025	0.462698
O5	O	1.118227	-0.338334	0.394307
O6	O	1.295787	-0.295198	0.440493
O7	O	1.164310	-0.381517	0.220891
O8	O	1.077589	-0.181347	0.338657
O9	O	1.291597	-0.381493	0.348160
O10	O	1.174032	-0.181328	0.435086
O11	O	1.072058	-0.295240	0.216795
O12	O	0.944833	-0.295199	0.344035
O13	O	1.067976	-0.381422	0.571808
O14	O	0.940690	-0.381446	0.444539
O15	O	1.168563	-0.295157	0.567733
O16	O	1.158841	-0.495346	0.353538
O17	O	1.062445	-0.495315	0.449946
C18	C	0.914279	-0.338321	0.394284
C19	C	0.827029	-0.338333	0.394294
C20	C	0.783899	-0.383309	0.446550
C21	C	0.701918	-0.383311	0.446562
C22	C	0.663069	-0.338339	0.394315
C23	C	0.706206	-0.293358	0.342057
C24	C	0.788185	-0.293353	0.342049
C25	C	0.535335	-0.293371	0.342077
C26	C	0.453350	-0.293377	0.342084
C27	C	0.449068	-0.383329	0.446590
C28	C	0.531047	-0.383324	0.446582
C29	C	0.574178	-0.338344	0.394323
C30	C	1.109434	-0.520815	0.402966
C31	C	1.105744	-0.598881	0.406696
C32	C	1.154237	-0.635549	0.358296
C33	C	1.150772	-0.708900	0.361809
C34	C	1.098808	-0.745582	0.413719
C35	C	1.050312	-0.708908	0.462125
C36	C	1.053782	-0.635558	0.458615
C37	C	1.085821	-0.967052	0.426830
C38	C	1.082353	-1.040407	0.430334
C39	C	1.182814	-1.040393	0.330019
C40	C	1.186276	-0.967042	0.326511
C41	C	1.137783	-0.930375	0.374919
C42	C	1.095262	-0.820559	0.417310
C43	C	1.141333	-0.855399	0.371332
C44	C	1.322970	-0.338347	0.394329
C45	C	1.410220	-0.338353	0.394339
C46	C	1.118277	-0.338282	0.599049
C47	C	1.118298	-0.338260	0.686297
C48	C	1.127075	-0.155141	0.385631
C49	C	1.130846	-0.077075	0.381934
C50	C	1.118224	-0.338335	0.190359
C51	C	1.118365	-0.338159	0.103101
C52	C	1.170675	-0.293338	0.725167
C53	C	1.170686	-0.293315	0.807146
C54	C	1.118322	-0.338217	0.850255
C55	C	1.065939	-0.383141	0.811380
C56	C	1.065925	-0.383160	0.729402
C57	C	1.065973	-0.383099	0.982248
C58	C	1.065987	-0.383081	1.064232
C59	C	1.170733	-0.293254	1.059992
C60	C	1.170720	-0.293273	0.978014
C61	C	1.118337	-0.338198	0.939145
H62	H	0.823301	-0.256725	0.299501
C63	C	1.008359	-0.432518	0.939483
C64	C	0.919399	-0.426788	0.950458
C65	C	0.861793	-0.476208	0.907690
C66	C	0.893148	-0.531358	0.853948
C67	C	0.982112	-0.537090	0.842971
C68	C	1.039718	-0.487670	0.885739
H69	H	0.896184	-0.385961	0.990243
H70	H	0.795935	-0.471965	0.915816
H71	H	0.850504	-0.567942	0.822288
H72	H	1.005327	-0.577918	0.803186
H73	H	1.105576	-0.491913	0.877613
H74	H	0.562675	-0.419948	0.489122
H75	H	0.674569	-0.256738	0.299520
C76	C	1.038102	-0.860914	0.474407
C77	C	0.974113	-0.911413	0.442748
C78	C	0.916956	-0.951772	0.499848
C79	C	0.923789	-0.941631	0.588606
C80	C	0.987780	-0.891130	0.620270
C81	C	1.044937	-0.850771	0.563170
H82	H	0.969053	-0.918922	0.377040
H83	H	0.869585	-0.989156	0.476408
H84	H	0.881478	-0.971507	0.630875
H85	H	0.992840	-0.883621	0.685978
H86	H	1.092308	-0.813386	0.586611
H87	H	1.228589	-0.937177	0.284241
H88	H	1.023346	-0.419643	1.099329
H89	H	1.222295	-1.070255	0.290609
C90	C	0.826629	-0.432779	0.504023
C91	C	0.811508	-0.512617	0.501264
C92	C	0.854235	-0.562087	0.558742
C93	C	0.912084	-0.531720	0.618978
C94	C	0.927209	-0.451878	0.621739
C95	C	0.884481	-0.402408	0.564262
H96	H	0.768682	-0.535100	0.456672
H97	H	0.843039	-0.621190	0.556697
H98	H	0.943714	-0.568340	0.661526
H99	H	0.970034	-0.429395	0.666331
H100	H	0.895677	-0.343304	0.566306
C101	C	1.228277	-0.243944	0.677751
C102	C	1.225727	-0.164097	0.685241
C103	C	1.283329	-0.114700	0.637827
C104	C	1.343480	-0.145149	0.582923
C105	C	1.346032	-0.225000	0.575430
C106	C	1.288431	-0.274398	0.622844
H107	H	1.181197	-0.141553	0.725886
H108	H	1.281439	-0.055589	0.643373
H109	H	1.386120	-0.108582	0.547824
H110	H	1.390562	-0.247544	0.534785
H111	H	1.290321	-0.333509	0.617297
H112	H	1.023301	-0.419699	0.846485
H113	H	1.040047	-1.070271	0.472619
H114	H	1.196548	-0.605687	0.316022
H115	H	1.190260	-0.738752	0.322396
C116	C	0.993153	-0.749258	0.519229
C117	C	0.929154	-0.799750	0.487575
C118	C	0.871994	-0.840098	0.544679
C119	C	0.878832	-0.829954	0.633436
C120	C	0.942834	-0.779460	0.665095
C121	C	0.999994	-0.739112	0.607991
H122	H	0.924090	-0.807261	0.421867
H123	H	0.824615	-0.877478	0.521243
H124	H	0.836518	-0.859823	0.675708
H125	H	0.947898	-0.771949	0.730802
H126	H	1.047373	-0.701732	0.631427
C127	C	1.228304	-0.243899	0.849899
C128	C	1.317261	-0.249642	0.838916
C129	C	1.374880	-0.200221	0.881666
C130	C	1.343542	-0.145056	0.935399
C131	C	1.254580	-0.139311	0.946384
C132	C	1.196961	-0.188732	0.903634
H133	H	1.340464	-0.290481	0.799138
H134	H	1.440736	-0.204475	0.873534
H135	H	1.386195	-0.108472	0.967045
H136	H	1.231378	-0.098472	0.986163
H137	H	1.131105	-0.184478	0.911766
C138	C	0.582777	-0.243892	0.284590
C139	C	0.637647	-0.274251	0.224341
C140	C	0.685088	-0.224776	0.166853
C141	C	0.677659	-0.144940	0.169615
C142	C	0.622787	-0.114576	0.229866
C143	C	0.575346	-0.164052	0.287354
H144	H	0.643148	-0.333354	0.222295
H145	H	0.725708	-0.247253	0.122251
H146	H	0.712778	-0.108315	0.127059
H147	H	0.617286	-0.055473	0.231912
H148	H	0.534726	-0.141574	0.331956
H149	H	1.213363	-0.256713	0.942917
C150	C	1.198492	-0.815052	0.314232
C151	C	1.166887	-0.764688	0.250170
C152	C	1.224044	-0.724332	0.193067
C153	C	1.312805	-0.734341	0.200027
C154	C	1.344414	-0.784707	0.264092
C155	C	1.287258	-0.825062	0.321194
H156	H	1.101177	-0.757277	0.245015
H157	H	1.200644	-0.687048	0.145642
H158	H	1.355115	-0.704467	0.157757
H159	H	1.410124	-0.792118	0.269246
H160	H	1.310657	-0.862347	0.368619
H161	H	1.046335	-0.937203	0.466244
C162	C	1.228354	-0.243833	1.102745
C163	C	1.228371	-0.243805	1.192917
C164	C	1.285992	-0.194391	1.235673
C165	C	1.343597	-0.145004	1.188257
C166	C	1.343583	-0.145031	1.098079
C167	C	1.285961	-0.194446	1.055323
H168	H	1.185726	-0.280365	1.228022
H169	H	1.286003	-0.194371	1.302429
H170	H	1.386253	-0.108425	1.219907
H171	H	1.386227	-0.108471	1.062974
H172	H	1.285950	-0.194465	0.988568
H173	H	1.023267	-0.419733	0.697755
H174	H	1.014295	-0.605704	0.498029
H175	H	0.413947	-0.419952	0.489143
C176	C	0.654478	-0.432789	0.504044
C177	C	0.661903	-0.512624	0.501271
C178	C	0.614465	-0.562104	0.558757
C179	C	0.559601	-0.531749	0.619015
C180	C	0.552174	-0.451909	0.621790
C181	C	0.599612	-0.402429	0.564304
H182	H	0.702519	-0.535098	0.456663
H183	H	0.619964	-0.621207	0.556703
H184	H	0.524485	-0.568377	0.661569
H185	H	0.511558	-0.429435	0.666398
H186	H	0.594113	-0.343327	0.566358
H187	H	0.421722	-0.256748	0.299549
