data_functionalizedCrystal
_audit_creation_method	'MofGen! by Chris Wilmer'
_symmetry_space_group_name_H-M	'P1'
_symmetry_Int_Tables_number	1
_symmetry_cell_setting	triclinic
loop_
_symmetry_equiv_pos_as_xyz
  x,y,z
_cell_length_a	11.169417
_cell_length_b	19.121063
_cell_length_c	11.169409
_cell_angle_alpha	87.599247
_cell_angle_beta	90.019824
_cell_angle_gamma	92.469728
loop_
_atom_site_label
_atom_site_type_symbol
_atom_site_fract_x
_atom_site_fract_y
_atom_site_fract_z
Zn1	Zn	1.814442	-0.279539	0.698851
Zn2	Zn	2.314442	0.220461	1.198851
Zn3	Zn	1.805707	-0.397012	0.506702
Zn4	Zn	2.305707	0.102988	1.006702
Zn5	Zn	1.613724	-0.279582	0.498188
Zn6	Zn	2.113724	0.220418	0.998188
Zn7	Zn	1.605116	-0.396955	0.707343
Zn8	Zn	2.105116	0.103045	1.207343
O9	O	1.709747	-0.338272	0.602771
O10	O	2.209747	0.161728	1.102771
O11	O	1.981232	-0.295128	0.673371
O12	O	2.481232	0.204872	1.173371
O13	O	1.780188	-0.381477	0.337626
O14	O	2.280188	0.118523	0.837626
O15	O	1.647608	-0.181292	0.517690
O16	O	2.147608	0.318708	1.017690
O17	O	1.974815	-0.381435	0.532200
O18	O	2.474815	0.118565	1.032200
O19	O	1.795074	-0.181261	0.665116
O20	O	2.295074	0.318739	1.165116
O21	O	1.639139	-0.295201	0.331371
O22	O	2.139139	0.204799	0.831371
O23	O	1.444633	-0.295146	0.525924
O24	O	1.944633	0.204854	1.025924
O25	O	1.632936	-0.381338	0.874163
O26	O	2.132936	0.118662	1.374163
O27	O	1.438308	-0.381379	0.679589
O28	O	1.938308	0.118621	1.179589
O29	O	1.786727	-0.295073	0.867924
O30	O	2.286727	0.204927	1.367924
O31	O	1.771840	-0.495289	0.540435
O32	O	2.271840	0.004711	1.040435
O33	O	1.624466	-0.495247	0.687844
O34	O	2.124466	0.004753	1.187844
C35	C	1.397923	-0.338261	0.602755
C36	C	1.897923	0.161739	1.102755
C37	C	1.264522	-0.338274	0.602778
C38	C	1.764522	0.161726	1.102778
C39	C	1.696304	-0.520752	0.616011
C40	C	2.196304	-0.020752	1.116011
C41	C	1.690663	-0.598817	0.621715
C42	C	2.190663	-0.098817	1.121715
C43	C	1.764802	-0.635491	0.547710
C44	C	2.264802	-0.135491	1.047710
C45	C	1.759503	-0.708842	0.553082
C46	C	2.259503	-0.208842	1.053082
C47	C	1.680059	-0.745518	0.632454
C48	C	2.180059	-0.245518	1.132454
C49	C	1.605917	-0.708838	0.706467
C50	C	2.105917	-0.208838	1.206467
C51	C	1.611222	-0.635489	0.701100
C52	C	2.111222	-0.135489	1.201100
C53	C	1.660204	-0.966986	0.652499
C54	C	2.160204	-0.466986	1.152499
C55	C	1.654902	-1.040340	0.657858
C56	C	2.154902	-0.540340	1.157858
C57	C	1.808490	-1.040339	0.504474
C58	C	2.308490	-0.540339	1.004474
C59	C	1.813784	-0.966988	0.499110
C60	C	2.313784	-0.466988	0.999110
C61	C	1.739646	-0.930315	0.573127
C62	C	2.239646	-0.430315	1.073127
C63	C	1.674638	-0.820494	0.637944
C64	C	2.174638	-0.320494	1.137944
C65	C	1.745073	-0.855340	0.567642
C66	C	2.245073	-0.355340	1.067642
C67	C	2.022789	-0.338283	0.602788
C68	C	2.522789	0.161717	1.102788
C69	C	2.156188	-0.338288	0.602795
C70	C	2.656188	0.161712	1.102795
C71	C	1.709845	-0.338194	0.915808
C72	C	2.209845	0.161806	1.415808
C73	C	1.709887	-0.338161	1.049206
C74	C	2.209887	0.161839	1.549206
C75	C	1.723276	-0.155080	0.589506
C76	C	2.223276	0.344920	1.089506
C77	C	1.729041	-0.077014	0.583853
C78	C	2.229041	0.422986	1.083853
C79	C	1.709722	-0.338299	0.290948
C80	C	2.209722	0.161701	0.790948
C81	C	1.709928	-0.338134	0.157537
C82	C	2.209928	0.161866	0.657537
H83	H	1.829489	-0.605635	0.483072
H84	H	2.329489	-0.105635	0.983072
H85	H	1.868851	-1.070206	0.444215
H86	H	2.368851	-0.570206	0.944215
Br87	Br	1.921621	-0.917219	0.391402
Br88	Br	2.421621	-0.417219	0.891402
Br89	Br	1.547056	-1.090115	0.765563
Br90	Br	2.047056	-0.590115	1.265563
H91	H	1.599836	-0.937133	0.712765
H92	H	2.099836	-0.437133	1.212765
H93	H	1.609952	-0.850363	0.702566
H94	H	2.109952	-0.350363	1.202566
Br95	Br	1.860133	-0.758611	0.452649
Br96	Br	2.360133	-0.258611	0.952649
H97	H	1.541236	-0.738706	0.771098
H98	H	2.041236	-0.238706	1.271098
H99	H	1.809762	-0.825477	0.503022
H100	H	2.309762	-0.325477	1.003022
H101	H	1.550852	-0.605630	0.761364
H102	H	2.050852	-0.105630	1.261364
