data_functionalizedCrystal
_audit_creation_method	'MofGen! by Chris Wilmer'
_symmetry_space_group_name_H-M	'P1'
_symmetry_Int_Tables_number	1
_symmetry_cell_setting	triclinic
loop_
_symmetry_equiv_pos_as_xyz
  x,y,z
_cell_length_a	14.519709
_cell_length_b	10.540539
_cell_length_c	13.596369
_cell_angle_alpha	89.996161
_cell_angle_beta	90.000291
_cell_angle_gamma	84.102818
loop_
_atom_site_label
_atom_site_type_symbol
_atom_site_fract_x
_atom_site_fract_y
_atom_site_fract_z
O1	O	1.224765	0.166400	-0.081658
O2	O	1.724765	0.666400	0.418342
O3	O	0.956394	0.185995	-0.081688
O4	O	1.456394	0.685995	0.418312
O5	O	1.096702	-0.008572	-0.081671
O6	O	1.596702	0.491428	0.418329
O7	O	1.084457	0.360966	-0.081675
O8	O	1.584457	0.860966	0.418325
O9	O	1.096688	-0.008582	0.081912
O10	O	1.596688	0.491418	0.581912
O11	O	0.956380	0.185985	0.081895
O12	O	1.456380	0.685985	0.581895
O13	O	1.224751	0.166389	0.081924
O14	O	1.724751	0.666389	0.581924
Zn15	Zn	1.090563	0.176185	0.107882
Zn16	Zn	1.590563	0.676185	0.607882
Zn17	Zn	1.090582	0.176199	-0.107646
Zn18	Zn	1.590582	0.676199	0.392354
O19	O	1.084442	0.360956	0.081908
O20	O	1.584442	0.860956	0.581908
C21	C	0.922022	0.185077	0.000100
C22	C	1.422022	0.685077	0.500100
C23	C	0.819626	0.182340	0.000088
C24	C	1.319626	0.682340	0.500088
C25	C	0.444676	0.172265	0.000133
C26	C	0.944676	0.672265	0.500133
C27	C	0.548999	0.175063	0.000120
C28	C	1.048999	0.675063	0.500120
C29	C	0.632148	0.177303	0.000110
C30	C	1.132148	0.677303	0.500110
C31	C	0.736477	0.180101	0.000099
C32	C	1.236477	0.680101	0.500099
C33	C	1.095777	-0.055870	0.000118
C34	C	1.595777	0.444130	0.500118
C35	C	1.093029	-0.196790	0.000113
C36	C	1.593029	0.303210	0.500113
C37	C	0.987750	-0.379142	-0.000266
C38	C	1.487750	0.120858	0.499734
C39	C	0.990535	-0.232553	0.000102
C40	C	1.490535	0.267447	0.500102
C41	C	1.142346	-0.258957	0.093532
C42	C	1.642346	0.241043	0.593532
C43	C	1.138848	-0.405466	0.093610
C44	C	1.638848	0.094534	0.593610
C45	C	1.140949	-0.405994	-0.092414
C46	C	1.640949	0.094006	0.407586
C47	C	1.141893	-0.259022	-0.093649
C48	C	1.641893	0.240978	0.406351
C49	C	1.259123	0.167308	0.000135
C50	C	1.759123	0.667308	0.500135
C51	C	1.361519	0.170044	0.000140
C52	C	1.861519	0.670044	0.500140
C53	C	1.085368	0.408255	0.000116
C54	C	1.585368	0.908255	0.500116
C55	C	1.088115	0.549175	0.000115
C56	C	1.588115	1.049175	0.500115
N57	N	1.090557	0.176175	0.254974
N58	N	1.590557	0.676175	0.754974
N59	N	1.090595	0.176199	-0.254737
N60	N	1.590595	0.676199	0.245263
C61	C	1.090580	0.176200	0.656265
C62	C	1.590580	0.676200	1.156265
C63	C	1.090571	0.176198	0.544613
C64	C	1.590571	0.676198	1.044613
C65	C	1.090569	0.176189	0.455623
C66	C	1.590569	0.676189	0.955623
C67	C	1.090559	0.176184	0.343964
C68	C	1.590559	0.676184	0.843964
H69	H	0.951729	-0.189549	-0.066865
H70	H	1.451729	0.310451	0.433135
C71	C	1.238420	-0.471291	0.099365
C72	C	1.738420	0.028709	0.599365
H73	H	1.280828	-0.408456	0.101653
H74	H	1.780828	0.091544	0.601653
H75	H	1.250805	-0.523590	0.043041
H76	H	1.750805	-0.023590	0.543041
H77	H	1.245060	-0.522419	0.156974
H78	H	1.745060	-0.022419	0.656974
C79	C	1.244024	-0.229794	0.098246
C80	C	1.744024	0.270206	0.598246
H81	H	1.257332	-0.179318	0.043154
H82	H	1.757332	0.320682	0.543154
H83	H	1.283501	-0.307455	0.097386
H84	H	1.783501	0.192545	0.597386
H85	H	1.253962	-0.184587	0.157106
H86	H	1.753962	0.315413	0.657106
C87	C	0.937733	-0.175595	0.090706
C88	C	1.437733	0.324405	0.590706
H89	H	0.939248	-0.085705	0.091235
H90	H	1.439248	0.414295	0.591235
H91	H	0.966089	-0.211132	0.148818
H92	H	1.466089	0.288868	0.648818
H93	H	0.875275	-0.194795	0.087951
H94	H	1.375275	0.305205	0.587951
H95	H	1.214980	-0.453976	-0.093034
H96	H	1.714980	0.046024	0.406966
H97	H	1.108076	-0.216013	0.163044
H98	H	1.608076	0.283987	0.663044
H99	H	1.102389	-0.433298	0.163435
H100	H	1.602389	0.066702	0.663435
H101	H	0.947421	-0.408942	0.066343
H102	H	1.447421	0.091058	0.566343
C103	C	0.933052	-0.417225	-0.090757
C104	C	1.433052	0.082775	0.409243
H105	H	0.970929	-0.477188	-0.129116
H106	H	1.470929	0.022812	0.370884
H107	H	0.914994	-0.343623	-0.129229
H108	H	1.414994	0.156377	0.370771
H109	H	0.879489	-0.454392	-0.069749
H110	H	1.379489	0.045608	0.430251
C111	C	1.242844	-0.227343	-0.101260
C112	C	1.742844	0.272657	0.398740
H113	H	1.256576	-0.175525	-0.047110
H114	H	1.756576	0.324475	0.452890
H115	H	1.250955	-0.182834	-0.160880
H116	H	1.750955	0.317166	0.339120
H117	H	1.283287	-0.304138	-0.100462
H118	H	1.783287	0.195862	0.399538
C119	C	1.096143	-0.448144	-0.188067
C120	C	1.596143	0.051856	0.311933
H121	H	1.044789	-0.493481	-0.172463
H122	H	1.544789	0.006519	0.327537
H123	H	1.140288	-0.501821	-0.224537
H124	H	1.640288	-0.001821	0.275463
H125	H	1.075685	-0.375119	-0.226201
H126	H	1.575685	0.124881	0.273799
H127	H	1.105808	-0.217791	-0.162758
H128	H	1.605808	0.282209	0.337242
