data_functionalizedCrystal
_audit_creation_method	'MofGen! by Chris Wilmer'
_symmetry_space_group_name_H-M	'P1'
_symmetry_Int_Tables_number	1
_symmetry_cell_setting	triclinic
loop_
_symmetry_equiv_pos_as_xyz
  x,y,z
_cell_length_a	10.723024
_cell_length_b	17.019294
_cell_length_c	9.198806
_cell_angle_alpha	86.117847
_cell_angle_beta	89.996352
_cell_angle_gamma	83.929829
loop_
_atom_site_label
_atom_site_type_symbol
_atom_site_fract_x
_atom_site_fract_y
_atom_site_fract_z
O1	O	1.655493	0.110636	-0.134731
O2	O	1.292178	0.121226	-0.136061
O3	O	1.483971	0.001154	-0.121020
O4	O	1.463700	0.230709	-0.149771
O5	O	1.483955	0.001153	0.120765
O6	O	1.292163	0.121226	0.105724
O7	O	1.655477	0.110636	0.107055
Cu8	Cu	1.473819	0.115931	0.128466
Cu9	Cu	1.473837	0.115931	-0.157473
O10	O	1.463685	0.230709	0.092014
C11	C	1.245683	0.120456	-0.015073
C12	C	1.107164	0.118150	-0.014786
C13	C	1.483194	-0.028240	0.003551
C14	C	1.480888	-0.115823	0.014511
C15	C	1.031152	0.185336	-0.023201
C16	C	0.887985	0.182955	-0.022905
C17	C	1.479816	-0.156965	-0.112136
C18	C	1.477642	-0.239257	-0.101834
C19	C	1.476548	-0.280407	0.035117
C20	C	1.477617	-0.239259	0.161774
C21	C	1.479782	-0.156967	0.151470
C22	C	1.470001	-0.528875	0.072823
C23	C	1.467839	-0.611173	0.083117
C24	C	1.467862	-0.611165	-0.180492
C25	C	1.470035	-0.528872	-0.190784
C26	C	1.471097	-0.487731	-0.064127
C27	C	1.474330	-0.364524	0.045652
C28	C	1.473307	-0.403615	-0.074663
C29	C	1.701973	0.111407	-0.013937
C30	C	1.840492	0.113713	-0.014234
C31	C	1.464461	0.260102	-0.032560
C32	C	1.466767	0.347685	-0.043530
N33	N	1.473815	0.115930	0.329580
N34	N	1.473850	0.115926	-0.358586
C35	C	1.554347	0.065293	0.408120
C36	C	1.554366	0.065290	0.575533
H37	H	1.072065	0.244620	-0.030618
H38	H	1.476774	-0.272752	-0.204963
H39	H	1.470927	-0.495374	-0.302304
C40	C	1.471175	-0.483631	0.212150
N41	N	1.472060	-0.449550	0.317099
C42	C	1.466680	-0.656426	-0.319804
N43	N	1.465783	-0.690516	-0.424740
C44	C	1.380684	0.174494	0.406172
N45	N	1.310534	0.218606	0.463858
H46	H	0.905798	0.056193	-0.007038
C47	C	1.051898	0.038057	-0.004754
N48	N	1.010273	-0.022271	0.002799
H49	H	1.623317	0.021940	0.643049
H50	H	0.822671	0.240471	-0.030116
C51	C	1.481019	-0.111707	-0.262795
N52	N	1.481919	-0.077621	-0.376275
H53	H	1.476719	-0.272770	0.273282
C54	C	1.647453	0.006713	0.331531
N55	N	1.717577	-0.037416	0.273846
H56	H	1.404904	0.159284	0.573906
C57	C	1.466632	-0.656436	0.233781
N58	N	1.465724	-0.690528	0.347255
H59	H	1.480638	-0.123469	0.254599
H60	H	1.474188	-0.370107	-0.186168
H61	H	1.473443	-0.398038	0.157158
