data_functionalizedCrystal
_audit_creation_method	'MofGen! by Chris Wilmer'
_symmetry_space_group_name_H-M	'P1'
_symmetry_Int_Tables_number	1
_symmetry_cell_setting	triclinic
loop_
_symmetry_equiv_pos_as_xyz
  x,y,z
_cell_length_a	10.686220
_cell_length_b	13.897448
_cell_length_c	13.897449
_cell_angle_alpha	90.010270
_cell_angle_beta	85.637603
_cell_angle_gamma	94.399460
loop_
_atom_site_label
_atom_site_type_symbol
_atom_site_fract_x
_atom_site_fract_y
_atom_site_fract_z
Zn1	Zn	1.928957	-0.270874	0.432425
Zn2	Zn	2.178957	-0.020874	0.682425
Zn3	Zn	2.428957	0.229126	0.932425
Zn4	Zn	2.678957	0.479126	1.182425
Zn5	Zn	1.928873	-0.432144	0.271131
Zn6	Zn	2.178873	-0.182144	0.521131
Zn7	Zn	2.428873	0.067856	0.771131
Zn8	Zn	2.678873	0.317856	1.021131
Zn9	Zn	1.717992	-0.283251	0.283497
Zn10	Zn	1.967992	-0.033251	0.533497
Zn11	Zn	2.217992	0.216749	0.783497
Zn12	Zn	2.467992	0.466749	1.033497
Zn13	Zn	1.717914	-0.444525	0.444737
Zn14	Zn	1.967914	-0.194525	0.694737
Zn15	Zn	2.217914	0.055475	0.944737
Zn16	Zn	2.467914	0.305475	1.194737
O17	O	1.823434	-0.357699	0.357948
O18	O	2.073434	-0.107699	0.607948
O19	O	2.323434	0.142301	0.857948
O20	O	2.573434	0.392301	1.107948
O21	O	2.105523	-0.281906	0.400701
O22	O	2.355523	-0.031906	0.650701
O23	O	2.605523	0.218094	0.900701
O24	O	2.855523	0.468094	1.150701
O25	O	1.900897	-0.412391	0.137790
O26	O	2.150897	-0.162391	0.387790
O27	O	2.400897	0.087609	0.637790
O28	O	2.650897	0.337609	0.887790
O29	O	1.746045	-0.146624	0.303275
O30	O	1.996045	0.103376	0.553275
O31	O	2.246045	0.353376	0.803275
O32	O	2.496045	0.603376	1.053275
O33	O	2.105461	-0.400390	0.282200
O34	O	2.355461	-0.150390	0.532200
O35	O	2.605461	0.099610	0.782200
O36	O	2.855461	0.349610	1.032200
O37	O	1.901040	-0.137531	0.412692
O38	O	2.151040	0.112469	0.662692
O39	O	2.401040	0.362469	0.912692
O40	O	2.651040	0.612469	1.162692
O41	O	1.745963	-0.303000	0.146875
O42	O	1.995963	-0.053000	0.396875
O43	O	2.245963	0.197000	0.646875
O44	O	2.495963	0.447000	0.896875
O45	O	1.541405	-0.315006	0.315214
O46	O	1.791405	-0.065006	0.565214
O47	O	2.041405	0.184994	0.815214
O48	O	2.291405	0.434994	1.065214
O49	O	1.745912	-0.421492	0.578085
O50	O	1.995912	-0.171492	0.828085
O51	O	2.245912	0.078508	1.078085
O52	O	2.495912	0.328508	1.328085
O53	O	1.541347	-0.433493	0.433676
O54	O	1.791347	-0.183493	0.683676
O55	O	2.041347	0.066507	0.933676
O56	O	2.291347	0.316507	1.183676
O57	O	1.900964	-0.293912	0.569040
O58	O	2.150964	-0.043912	0.819040
O59	O	2.400964	0.206088	1.069040
O60	O	2.650964	0.456088	1.319040
O61	O	1.900821	-0.568772	0.294138
O62	O	2.150821	-0.318772	0.544138
O63	O	2.400821	-0.068772	0.794138
O64	O	2.650821	0.181228	1.044138
O65	O	1.745830	-0.577869	0.421686
O66	O	1.995830	-0.327869	0.671686
O67	O	2.245830	-0.077869	0.921686
O68	O	2.495830	0.172131	1.171686
C69	C	1.495591	-0.376937	0.377124
C70	C	1.745591	-0.126937	0.627124
C71	C	1.995591	0.123063	0.877124
C72	C	2.245591	0.373063	1.127124
C73	C	1.355339	-0.385191	0.385350
C74	C	1.605339	-0.135191	0.635350
C75	C	1.855339	0.114809	0.885350
C76	C	2.105339	0.364809	1.135350
C77	C	1.823342	-0.608318	0.357925
C78	C	2.073342	-0.358318	0.607925
C79	C	2.323342	-0.108318	0.857925
C80	C	2.573342	0.141682	1.107925
C81	C	1.823418	-0.715528	0.357941
C82	C	2.073418	-0.465528	0.607941
C83	C	2.323418	-0.215528	0.857941
C84	C	2.573418	0.034472	1.107941
C85	C	1.823550	-0.911815	0.357994
C86	C	2.073550	-0.661815	0.607994
C87	C	2.323550	-0.411815	0.857994
C88	C	2.573550	-0.161815	1.107994
C89	C	1.823473	-0.802587	0.357968
C90	C	2.073473	-0.552587	0.607968
C91	C	2.323473	-0.302587	0.857968
C92	C	2.573473	-0.052587	1.107968
C93	C	2.152557	-0.338386	0.338698
C94	C	2.402557	-0.088386	0.588698
C95	C	2.652557	0.161614	0.838698
C96	C	2.902557	0.411614	1.088698
C97	C	2.292809	-0.330156	0.330494
C98	C	2.542809	-0.080156	0.580494
C99	C	2.792809	0.169844	0.830494
C100	C	3.042809	0.419844	1.080494
C101	C	1.823439	-0.357702	0.609540
C102	C	2.073439	-0.107702	0.859540
C103	C	2.323439	0.142298	1.109540
C104	C	2.573439	0.392298	1.359540
C105	C	1.823441	-0.357704	0.716754
C106	C	2.073441	-0.107704	0.966754
C107	C	2.323441	0.142296	1.216754
C108	C	2.573441	0.392296	1.466754
C109	C	1.823561	-0.106098	0.357989
C110	C	2.073561	0.143902	0.607989
C111	C	2.323561	0.393902	0.857989
C112	C	2.573561	0.643902	1.107989
C113	C	1.823615	0.001119	0.358007
C114	C	2.073615	0.251119	0.608007
C115	C	2.323615	0.501119	0.858007
C116	C	2.573615	0.751119	1.108007
C117	C	1.823409	-0.357710	0.913051
C118	C	2.073409	-0.107710	1.163051
C119	C	2.323409	0.142290	1.413051
C120	C	2.573409	0.392290	1.663051
C121	C	1.823423	-0.357710	0.803818
C122	C	2.073423	-0.107710	1.053818
C123	C	2.323423	0.142290	1.303818
C124	C	2.573423	0.392290	1.553818
C125	C	1.823417	-0.357715	1.107334
C126	C	2.073417	-0.107715	1.357334
C127	C	2.323417	0.142285	1.607334
C128	C	2.573417	0.392285	1.857334
C129	C	1.823407	-0.357708	1.000121
C130	C	2.073407	-0.107708	1.250121
C131	C	2.323407	0.142292	1.500121
C132	C	2.573407	0.392292	1.750121
H133	H	1.346573	-0.276725	0.277236
H134	H	1.596573	-0.026725	0.527236
H135	H	1.846573	0.223275	0.777236
H136	H	2.096573	0.473275	1.027236
Br137	Br	1.265730	-0.474268	0.474112
Br138	Br	1.515730	-0.224268	0.724112
Br139	Br	1.765730	0.025732	0.974112
Br140	Br	2.015730	0.275732	1.224112
