data_functionalizedCrystal
_audit_creation_method	'MofGen! by Chris Wilmer'
_symmetry_space_group_name_H-M	'P1'
_symmetry_Int_Tables_number	1
_symmetry_cell_setting	triclinic
loop_
_symmetry_equiv_pos_as_xyz
  x,y,z
_cell_length_a	6.817900
_cell_length_b	17.110486
_cell_length_c	17.110477
_cell_angle_alpha	96.939211
_cell_angle_beta	99.060298
_cell_angle_gamma	99.060439
loop_
_atom_site_label
_atom_site_type_symbol
_atom_site_fract_x
_atom_site_fract_y
_atom_site_fract_z
V1	V	-3.954938	-0.246618	-0.109247
O2	O	-3.966477	-0.242029	0.005492
O3	O	-3.885154	-0.244831	-0.216852
O4	O	-3.885155	-0.354223	-0.107460
O5	O	-3.966476	-0.131879	-0.104657
V6	V	-4.444108	-0.232907	-0.095536
O7	O	-4.203810	-0.276696	-0.139325
O8	O	-4.645433	-0.202830	-0.065458
O9	O	-4.290685	-0.234695	0.012069
O10	O	-4.549965	-0.237496	-0.210275
O11	O	-4.549966	-0.347646	-0.100126
O12	O	-4.290684	-0.125302	-0.097322
C13	C	-3.725645	-0.240914	-0.243087
C14	C	-3.749732	-0.240170	-0.331054
C15	C	-3.941549	-0.243763	-0.376408
C16	C	-3.964171	-0.243069	-0.459064
C17	C	-3.794973	-0.238775	-0.496363
C18	C	-3.603142	-0.235183	-0.451003
C19	C	-3.580524	-0.235884	-0.368350
C20	C	-3.854236	-0.236467	-0.745721
C21	C	-3.876869	-0.235765	-0.828379
C22	C	-4.237899	-0.243652	-0.836434
C23	C	-4.215261	-0.244347	-0.753779
C24	C	-4.023435	-0.240760	-0.708427
C25	C	-3.818092	-0.238062	-0.580849
C26	C	-4.000321	-0.241478	-0.623943
C27	C	-3.725645	-0.380454	-0.103546
C28	C	-3.749732	-0.468421	-0.102797
C29	C	-3.941550	-0.513775	-0.106395
C30	C	-3.964170	-0.596429	-0.105690
C31	C	-3.794972	-0.633728	-0.101394
C32	C	-3.603137	-0.588367	-0.097794
C33	C	-3.580518	-0.505714	-0.098493
C34	C	-3.854235	-0.883085	-0.099083
C35	C	-3.876871	-0.965745	-0.098387
C36	C	-4.237903	-0.973801	-0.106281
C37	C	-4.215268	-0.891147	-0.106984
C38	C	-4.023435	-0.845792	-0.103380
C39	C	-3.818089	-0.718214	-0.100677
C40	C	-4.000318	-0.761307	-0.104092
C41	C	-4.113536	-0.238609	0.038300
C42	C	-4.068686	-0.239358	0.126267
C43	C	-4.113536	-0.099067	-0.101239
C44	C	-4.068689	-0.011099	-0.101984
H45	H	-3.424329	-0.232961	-0.331424
H46	H	-3.465381	-0.231692	-0.481379
H47	H	-3.739078	-0.996110	-0.094886
F48	F	-4.180384	-0.721609	-0.108662
H49	H	-3.680332	-0.748592	-0.097182
F50	F	-3.650079	-0.232645	-0.697464
F51	F	-4.180388	-0.246053	-0.584246
H52	H	-4.079336	-0.483414	-0.109898
H53	H	-3.698046	-0.846172	-0.096176
H54	H	-3.680333	-0.234563	-0.611227
F55	F	-4.442053	-1.022076	-0.110115
F56	F	-4.168330	-0.644697	-0.109527
H57	H	-4.353051	-0.860784	-0.110482
H58	H	-3.465373	-0.618742	-0.094292
H59	H	-4.079330	-0.247252	-0.346045
F60	F	-4.168327	-0.246893	-0.507329
F61	F	-4.395341	-0.248893	-0.714085
H62	H	-4.394077	-0.246572	-0.873368
F63	F	-3.696777	-0.231204	-0.868075
H64	H	-3.424315	-0.468784	-0.095544
