data_functionalizedCrystal
_audit_creation_method	'MofGen! by Chris Wilmer'
_symmetry_space_group_name_H-M	'P1'
_symmetry_Int_Tables_number	1
_symmetry_cell_setting	triclinic
loop_
_symmetry_equiv_pos_as_xyz
  x,y,z
_cell_length_a	21.395364
_cell_length_b	16.625545
_cell_length_c	16.625539
_cell_angle_alpha	89.971893
_cell_angle_beta	89.979410
_cell_angle_gamma	90.040509
loop_
_atom_site_label
_atom_site_type_symbol
_atom_site_fract_x
_atom_site_fract_y
_atom_site_fract_z
Zn1	Zn	0.957857	-0.320679	-0.455911
Zn2	Zn	1.457857	0.179321	0.044089
Zn3	Zn	0.957776	-0.455522	-0.321079
Zn4	Zn	1.457776	0.044478	0.178921
Zn5	Zn	0.853079	-0.320742	-0.321092
Zn6	Zn	1.353079	0.179258	0.178908
Zn7	Zn	0.853051	-0.455508	-0.455869
Zn8	Zn	1.353051	0.044492	0.044131
O9	O	0.905441	-0.388113	-0.388487
O10	O	1.405441	0.111887	0.111513
O11	O	1.045524	-0.338545	-0.438038
O12	O	1.545524	0.161455	0.061962
O13	O	0.943866	-0.437675	-0.208248
O14	O	1.443866	0.062325	0.291752
O15	O	0.867024	-0.207901	-0.338999
O16	O	1.367024	0.292099	0.161001
O17	O	1.045465	-0.437614	-0.338977
O18	O	1.545465	0.062386	0.161023
O19	O	0.944004	-0.207855	-0.438050
O20	O	1.444004	0.292145	0.061950
O21	O	0.866946	-0.338653	-0.208257
O22	O	1.366946	0.161347	0.291743
O23	O	0.765398	-0.338640	-0.338958
O24	O	1.265398	0.161360	0.161042
O25	O	0.866975	-0.437590	-0.568707
O26	O	1.366975	0.062410	-0.068707
O27	O	0.765377	-0.437652	-0.437978
O28	O	1.265377	0.062348	0.062022
O29	O	0.943976	-0.338532	-0.568738
O30	O	1.443976	0.161468	-0.068738
O31	O	0.943838	-0.568352	-0.338936
O32	O	1.443838	-0.068352	0.161064
O33	O	0.866897	-0.568342	-0.437965
O34	O	1.366897	-0.068342	0.062035
C35	C	0.742653	-0.388152	-0.388465
C36	C	1.242653	0.111848	0.111535
C37	C	0.673012	-0.388188	-0.388474
C38	C	1.173012	0.111812	0.111526
C39	C	0.640352	-0.336687	-0.440135
C40	C	1.140352	0.163313	0.059865
C41	C	0.574917	-0.336666	-0.440138
C42	C	1.074917	0.163334	0.059862
C43	C	0.542144	-0.388159	-0.388489
C44	C	1.042144	0.111841	0.111511
C45	C	0.574811	-0.439664	-0.336818
C46	C	1.074811	0.060336	0.163182
C47	C	0.640246	-0.439678	-0.336811
C48	C	1.140246	0.060322	0.163189
C49	C	0.438425	-0.460774	-0.382009
C50	C	0.938425	0.039226	0.117991
C51	C	0.372992	-0.460761	-0.382022
C52	C	0.872992	0.039239	0.117978
C53	C	0.340323	-0.388115	-0.388507
C54	C	0.840323	0.111885	0.111493
C55	C	0.373095	-0.315480	-0.394996
C56	C	0.873095	0.184520	0.105004
C57	C	0.438529	-0.315494	-0.394988
C58	C	0.938529	0.184506	0.105012
C59	C	0.471191	-0.388149	-0.388491
C60	C	0.971191	0.111851	0.111509
C61	C	0.236711	-0.336587	-0.440174
C62	C	0.736711	0.163413	0.059826
C63	C	0.171274	-0.336564	-0.440171
C64	C	0.671274	0.163436	0.059829
C65	C	0.171170	-0.439569	-0.336856
C66	C	0.671170	0.060431	0.163144
C67	C	0.236605	-0.439585	-0.336854
C68	C	0.736605	0.060415	0.163146
C69	C	0.269372	-0.388095	-0.388517
C70	C	0.769372	0.111905	0.111483
C71	C	0.905373	-0.597603	-0.388462
C72	C	1.405373	-0.097603	0.111538
C73	C	0.905401	-0.687225	-0.388478
C74	C	1.405401	-0.187225	0.111522
C75	C	0.905425	-0.760007	-0.388494
C76	C	1.405425	-0.260007	0.111506
C77	C	0.905462	-0.851315	-0.388512
C78	C	1.405462	-0.351315	0.111488
C79	C	0.905494	-0.924092	-0.388522
C80	C	1.405494	-0.424092	0.111478
C81	C	0.905530	-1.015406	-0.388539
C82	C	1.405530	-0.515406	0.111461
C83	C	1.068864	-0.388074	-0.388511
C84	C	1.568864	0.111926	0.111489
C85	C	1.138505	-0.388057	-0.388521
C86	C	1.638505	0.111943	0.111479
C87	C	0.905482	-0.388052	-0.598796
C88	C	1.405482	0.111948	-0.098796
C89	C	0.905499	-0.388027	-0.688418
C90	C	1.405499	0.111973	-0.188418
C91	C	0.905526	-0.177804	-0.388531
C92	C	1.405526	0.322196	0.111469
C93	C	0.905563	-0.088182	-0.388549
C94	C	1.405563	0.411818	0.111451
C95	C	0.905528	-0.387937	-1.016593
C96	C	1.405528	0.112063	-0.516593
C97	C	0.905518	-0.387964	-0.925285
C98	C	1.405518	0.112036	-0.425285
C99	C	0.905514	-0.387982	-0.852508
C100	C	1.405514	0.112018	-0.352508
C101	C	0.905503	-0.388009	-0.761194
C102	C	1.405503	0.111991	-0.261194
C103	C	0.905436	-0.388114	-0.178997
C104	C	1.405436	0.111886	0.321003
C105	C	0.905540	-0.387913	-0.089376
C106	C	1.405540	0.112087	0.410624
H107	H	0.144487	-0.481496	-0.294802
H108	H	0.644487	0.018504	0.205198
H109	H	0.465018	-0.519935	-0.376728
H110	H	0.965018	-0.019935	0.123272
H111	H	0.548123	-0.481590	-0.294765
H112	H	1.048123	0.018410	0.205235
N113	N	0.539685	-0.281119	-0.495868
N114	N	1.039685	0.218881	0.004132
H115	H	0.512529	-0.313936	-0.533173
H116	H	1.012529	0.186064	-0.033173
H117	H	0.512585	-0.243714	-0.463117
H118	H	1.012585	0.256286	0.036883
N119	N	0.675470	-0.495235	-0.281091
N120	N	1.175470	0.004765	0.218909
H121	H	0.702603	-0.532649	-0.313790
H122	H	1.202603	-0.032649	0.186210
H123	H	0.702594	-0.462370	-0.243791
H124	H	1.202594	0.037630	0.256209
H125	H	0.263197	-0.481525	-0.294789
H126	H	0.763197	0.018475	0.205211
H127	H	0.667027	-0.294759	-0.482203
H128	H	1.167027	0.205241	0.017797
N129	N	0.272055	-0.281063	-0.495902
N130	N	0.772055	0.218937	0.004098
H131	H	0.318464	-0.288896	-0.488070
H132	H	0.818464	0.211104	0.011930
H133	H	0.260618	-0.293700	-0.553459
H134	H	0.760618	0.206300	-0.053459
N135	N	0.473878	-0.237160	-0.401983
N136	N	0.973878	0.262840	0.098017
H137	H	0.443258	-0.191134	-0.406093
H138	H	0.943258	0.308866	0.093907
H139	H	0.501014	-0.229621	-0.352864
H140	H	1.001014	0.270379	0.147136
N141	N	0.337870	-0.237119	-0.401997
N142	N	0.837870	0.262881	0.098003
H143	H	0.291446	-0.248128	-0.401014
H144	H	0.791446	0.251872	0.098986
H145	H	0.349319	-0.201014	-0.355433
H146	H	0.849319	0.298986	0.144567
H147	H	0.144683	-0.294621	-0.482238
H148	H	0.644683	0.205379	0.017762
H149	H	0.346314	-0.519904	-0.376742
H150	H	0.846314	-0.019904	0.123258
