data_functionalizedCrystal
_audit_creation_method	'MofGen! by Chris Wilmer'
_symmetry_space_group_name_H-M	'P1'
_symmetry_Int_Tables_number	1
_symmetry_cell_setting	triclinic
loop_
_symmetry_equiv_pos_as_xyz
  x,y,z
_cell_length_a	8.559649
_cell_length_b	12.784905
_cell_length_c	7.681481
_cell_angle_alpha	84.865155
_cell_angle_beta	94.913240
_cell_angle_gamma	71.442992
loop_
_atom_site_label
_atom_site_type_symbol
_atom_site_fract_x
_atom_site_fract_y
_atom_site_fract_z
O1	O	2.108503	-0.025048	-0.146401
O2	O	1.635584	0.030474	-0.146409
O3	O	1.906651	-0.154840	-0.146399
O4	O	1.837436	0.160266	-0.146410
O5	O	1.940021	-0.177695	0.146459
O6	O	1.668954	0.007619	0.146450
O7	O	2.141873	-0.047903	0.146458
Zn8	Zn	1.910712	-0.023771	0.192952
Zn9	Zn	1.866745	0.006342	-0.192903
O10	O	1.870806	0.137411	0.146448
C11	C	1.592155	0.023255	0.000020
C12	C	1.413034	0.035779	0.000016
C13	C	1.927838	-0.206234	0.000028
C14	C	1.941230	-0.325320	0.000020
C15	C	1.668351	-0.499431	0.000033
C16	C	1.680927	-0.611322	0.000026
C17	C	1.978959	-0.660996	0.000012
C18	C	1.966382	-0.549105	0.000019
C19	C	1.811073	-0.468325	0.000027
C20	C	1.798497	-0.356431	0.000021
C21	C	2.096528	-0.406109	0.000020
C22	C	2.109105	-0.518000	0.000013
C23	C	2.185302	-0.040683	0.000026
C24	C	2.364422	-0.053207	0.000017
C25	C	1.849620	0.188805	0.000018
C26	C	1.836225	0.307893	0.000013
N27	N	1.940730	-0.044323	0.456287
N28	N	1.836741	0.026885	-0.456238
H29	H	1.317610	0.121552	0.000004
H30	H	2.105406	-0.726787	0.000027
H31	H	2.235553	-0.583786	0.000014
O32	O	1.478464	-0.155456	0.000099
C33	C	1.637913	-0.145618	0.000054
H34	H	1.638802	-0.065999	0.055496
H35	H	1.732659	-0.220232	0.085080
H36	H	1.671215	-0.142668	-0.140445
H37	H	1.730591	0.099568	0.468562
O38	O	1.542461	-0.641734	0.000100
C39	C	1.586851	-0.757809	0.000044
H40	H	1.722953	-0.798768	0.055484
H41	H	1.506154	-0.791111	0.085065
H42	H	1.567341	-0.777412	-0.140459
O43	O	2.067312	-0.131165	0.545806
C44	C	2.050490	-0.231920	0.500929
H45	H	1.973012	-0.216303	0.367039
H46	H	2.178545	-0.294362	0.494791
H47	H	1.986312	-0.266571	0.604667
O48	O	2.235023	-0.375710	0.000087
C49	C	2.190621	-0.259626	0.000038
H50	H	2.067165	-0.227325	0.055498
H51	H	2.290706	-0.239599	0.085047
H52	H	2.178088	-0.218085	-0.140465
H53	H	1.541891	-0.433657	0.000026
O54	O	1.647520	-0.278042	-0.000204
C55	C	1.542657	-0.278413	-0.151893
H56	H	1.588394	-0.362767	-0.202467
H57	H	1.410658	-0.262185	-0.117769
H58	H	1.544122	-0.210588	-0.258100
