data_functionalizedCrystal
_audit_creation_method	'MofGen! by Chris Wilmer'
_symmetry_space_group_name_H-M	'P1'
_symmetry_Int_Tables_number	1
_symmetry_cell_setting	triclinic
loop_
_symmetry_equiv_pos_as_xyz
  x,y,z
_cell_length_a	17.699083
_cell_length_b	17.038272
_cell_length_c	16.776229
_cell_angle_alpha	89.993292
_cell_angle_beta	89.998886
_cell_angle_gamma	87.197286
loop_
_atom_site_label
_atom_site_type_symbol
_atom_site_fract_x
_atom_site_fract_y
_atom_site_fract_z
O1	O	1.010620	0.098861	-0.066177
O2	O	1.510620	0.598861	0.433823
O3	O	0.791093	0.111723	-0.066203
O4	O	1.291093	0.611723	0.433797
O5	O	0.899552	-0.008521	-0.066184
O6	O	1.399552	0.491479	0.433816
O7	O	0.902161	0.219105	-0.066196
O8	O	1.402161	0.719105	0.433804
O9	O	0.899536	-0.008529	0.066393
O10	O	1.399536	0.491471	0.566393
O11	O	0.791077	0.111716	0.066374
O12	O	1.291077	0.611716	0.566374
O13	O	1.010604	0.098854	0.066400
O14	O	1.510604	0.598854	0.566400
Zn15	Zn	0.900838	0.105283	0.087436
Zn16	Zn	1.400838	0.605283	0.587436
Zn17	Zn	0.900859	0.105293	-0.087239
Zn18	Zn	1.400859	0.605293	0.412761
O19	O	0.902145	0.219098	0.066381
O20	O	1.402145	0.719098	0.566381
C21	C	0.762857	0.111258	0.000082
C22	C	1.262857	0.611258	0.500082
C23	C	0.678748	0.109876	0.000072
C24	C	1.178748	0.609876	0.500072
C25	C	0.634797	0.180457	0.000069
C26	C	1.134797	0.680457	0.500069
C27	C	0.555767	0.179153	0.000079
C28	C	1.055767	0.679153	0.500079
C29	C	0.520690	0.107267	0.000087
C30	C	1.020690	0.607267	0.500087
C31	C	0.564647	0.036681	0.000093
C32	C	1.064647	0.536681	0.500093
C33	C	0.643675	0.037986	0.000089
C34	C	1.143675	0.537986	0.500089
C35	C	0.245935	0.031418	0.000113
C36	C	0.745935	0.531418	0.500113
C37	C	0.166901	0.030119	0.000116
C38	C	0.666901	0.530119	0.500116
C39	C	0.158028	0.172585	0.000104
C40	C	0.658028	0.672585	0.500104
C41	C	0.237056	0.173890	0.000099
C42	C	0.737056	0.673890	0.500099
C43	C	0.281006	0.103304	0.000109
C44	C	0.781006	0.603304	0.500109
C45	C	0.366699	0.104719	0.000100
C46	C	0.866699	0.604719	0.500100
C47	C	0.434999	0.105852	0.000091
C48	C	0.934999	0.605852	0.500091
C49	C	0.897170	-0.037649	0.000104
C50	C	1.397170	0.462351	0.500104
C51	C	0.890090	-0.124431	0.000103
C52	C	1.390090	0.375569	0.500103
C53	C	0.955100	-0.174651	0.000112
C54	C	1.455100	0.325349	0.500112
C55	C	0.948442	-0.256191	0.000103
C56	C	1.448442	0.243809	0.500103
C57	C	0.876773	-0.287509	0.000092
C58	C	1.376773	0.212491	0.500092
C59	C	0.811758	-0.237282	0.000081
C60	C	1.311758	0.262718	0.500081
C61	C	0.818417	-0.155744	0.000084
C62	C	1.318417	0.344256	0.500084
C63	C	0.853251	-0.533228	0.000079
C64	C	1.353251	-0.033228	0.500079
C65	C	0.846597	-0.614773	0.000078
C66	C	1.346597	-0.114773	0.500078
C67	C	0.983282	-0.633676	0.000099
C68	C	1.483282	-0.133676	0.500099
C69	C	0.989934	-0.552135	0.000106
C70	C	1.489934	-0.052135	0.500106
C71	C	0.924919	-0.501916	0.000091
C72	C	1.424919	-0.001916	0.500091
C73	C	0.869967	-0.370855	0.000086
C74	C	1.369967	0.129145	0.500086
C75	C	0.931726	-0.418571	0.000092
C76	C	1.431726	0.081429	0.500092
C77	C	1.038840	0.099318	0.000113
C78	C	1.538840	0.599318	0.500113
C79	C	1.122949	0.100701	0.000118
C80	C	1.622949	0.600701	0.500118
C81	C	0.904526	0.248226	0.000091
C82	C	1.404526	0.748226	0.500091
C83	C	0.911607	0.335007	0.000087
C84	C	1.411607	0.835007	0.500087
N85	N	0.900829	0.105276	0.206647
N86	N	1.400829	0.605276	0.706647
N87	N	0.900873	0.105294	-0.206450
N88	N	1.400873	0.605294	0.293550
C89	C	0.948872	0.052054	0.248373
C90	C	1.448872	0.552054	0.748373
C91	C	0.948876	0.052053	0.331825
C92	C	1.448876	0.552053	0.831825
C93	C	0.900841	0.105279	0.373550
C94	C	1.400841	0.605279	0.873550
C95	C	0.852793	0.158504	0.331819
C96	C	1.352793	0.658504	0.831819
C97	C	0.852785	0.158501	0.248368
C98	C	1.352785	0.658501	0.748368
C99	C	0.852821	0.158520	0.668366
C100	C	1.352821	0.658520	1.168366
C101	C	0.852834	0.158521	0.751823
C102	C	1.352834	0.658521	1.251823
C103	C	0.948912	0.052072	0.751823
C104	C	1.448912	0.552072	1.251823
C105	C	0.948904	0.052069	0.668372
C106	C	1.448904	0.552069	1.168372
C107	C	0.900854	0.105290	0.626648
C108	C	1.400854	0.605290	1.126648
C109	C	0.900849	0.105289	0.536160
C110	C	1.400849	0.605289	1.036160
C111	C	0.900849	0.105285	0.464037
C112	C	1.400849	0.605285	0.964037
H113	H	0.519986	0.236627	0.000075
H114	H	1.019986	0.736627	0.500075
H115	H	0.811613	-0.396363	0.000079
H116	H	1.311613	0.103637	0.500079
N117	N	0.129068	-0.047419	0.000141
N118	N	0.629068	0.452581	0.500141
H119	H	0.072335	-0.037532	0.000141
H120	H	0.572335	0.462468	0.500141
H121	H	0.144817	-0.078306	-0.049000
H122	H	0.644817	0.421694	0.451000
H123	H	0.122235	0.230060	0.000100
H124	H	0.622235	0.730060	0.500100
N125	N	0.801010	0.215926	0.623362
N126	N	1.301010	0.715926	1.123362
H127	H	0.765577	0.186095	0.588749
H128	H	1.265577	0.686095	1.088749
H129	H	0.770634	0.249637	0.662505
H130	H	1.270634	0.749637	1.162505
N131	N	0.293332	-0.044710	0.000130
N132	N	0.793332	0.455290	0.500130
H133	H	0.259117	-0.090444	0.000134
H134	H	0.759117	0.409556	0.500134
H135	H	0.326318	-0.047276	-0.049016
H136	H	0.826318	0.452724	0.450984
N137	N	0.800976	0.215908	0.376818
N138	N	1.300976	0.715908	0.876818
H139	H	0.808271	0.207837	0.436015
H140	H	1.308271	0.707837	0.936015
H141	H	0.813283	0.271356	0.362219
H142	H	1.313283	0.771356	0.862219
H143	H	0.987995	0.008715	0.365798
H144	H	1.487995	0.508715	0.865798
N145	N	1.018560	-0.310357	0.000117
N146	N	1.518560	0.189643	0.500117
H147	H	1.064972	-0.278145	0.000132
H148	H	1.564972	0.221855	0.500132
H149	H	1.018762	-0.344605	0.049265
H150	H	1.518762	0.155395	0.549265
N151	N	1.009023	-0.384794	0.000113
N152	N	1.509023	0.115206	0.500113
H153	H	1.049202	-0.428978	0.000121
H154	H	1.549202	0.071022	0.500121
H155	H	1.014771	-0.351368	-0.049033
H156	H	1.514771	0.148632	0.450967
N157	N	1.067229	-0.518347	0.000098
N158	N	1.567229	-0.018347	0.500098
H159	H	1.073035	-0.484941	0.049242
H160	H	1.573035	0.015059	0.549242
H161	H	1.107364	-0.562571	0.000066
H162	H	1.607364	-0.062571	0.500066
H163	H	0.788233	-0.640268	0.000082
H164	H	1.288233	-0.140268	0.500082
N165	N	1.000734	-0.005338	0.796828
N166	N	1.500734	0.494662	1.296828
H167	H	1.031165	-0.039052	0.757731
H168	H	1.531165	0.460948	1.257731
H169	H	1.036115	0.024555	0.831442
H170	H	1.536115	0.524555	1.331442
N171	N	0.672625	0.257993	0.000066
N172	N	1.172625	0.757993	0.500066
H173	H	0.729359	0.248112	0.000062
H174	H	1.229359	0.748112	0.500062
H175	H	0.656870	0.288875	-0.049082
H176	H	1.156870	0.788875	0.450918
H177	H	0.753404	-0.262788	0.000067
H178	H	1.253404	0.237212	0.500067
H179	H	1.036213	-0.674572	0.000110
H180	H	1.536213	-0.174572	0.500110
H181	H	0.800310	-0.492349	0.000066
H182	H	1.300310	0.007651	0.500066
H183	H	0.536080	-0.021849	0.000112
H184	H	1.036080	0.478151	0.500112
H185	H	0.765478	-0.114855	0.000077
H186	H	1.265478	0.385145	0.500077
N187	N	0.274890	0.251423	0.000079
N188	N	0.774890	0.751423	0.500079
H189	H	0.235055	0.295939	0.000078
H190	H	0.735055	0.795939	0.500078
H191	H	0.307490	0.255067	0.049223
H192	H	0.807490	0.755067	0.549223
N193	N	0.691083	-0.038140	0.000099
N194	N	1.191083	0.461860	0.500099
H195	H	0.656871	-0.083878	0.000104
H196	H	1.156871	0.416122	0.500104
H197	H	0.724066	-0.040703	-0.049049
H198	H	1.224066	0.459297	0.450951
N199	N	0.800964	0.215900	0.203360
N200	N	1.300964	0.715900	0.703360
H201	H	0.770535	0.249620	0.242454
H202	H	1.270535	0.749620	0.742454
H203	H	0.832152	0.250424	0.168723
H204	H	1.332152	0.750424	0.668723
N205	N	1.032400	-0.140875	0.000132
N206	N	1.532400	0.359125	0.500132
H207	H	1.072573	-0.185065	0.000134
H208	H	1.572573	0.314935	0.500134
H209	H	1.038148	-0.107449	-0.049014
H210	H	1.538148	0.392551	0.450986
N211	N	1.000687	-0.005350	0.203372
N212	N	1.500687	0.494650	0.703372
H213	H	1.031121	-0.039067	0.242472
H214	H	1.531121	0.460933	0.742472
H215	H	0.969490	-0.039876	0.168757
H216	H	1.469490	0.460124	0.668757
H217	H	0.988022	0.008730	0.634402
H218	H	1.488022	0.508730	1.134402
H219	H	0.813715	0.201865	0.785794
H220	H	1.313715	0.701865	1.285794
