data_functionalizedCrystal
_audit_creation_method	'MofGen! by Chris Wilmer'
_symmetry_space_group_name_H-M	'P1'
_symmetry_Int_Tables_number	1
_symmetry_cell_setting	triclinic
loop_
_symmetry_equiv_pos_as_xyz
  x,y,z
_cell_length_a	10.654554
_cell_length_b	10.654550
_cell_length_c	9.130313
_cell_angle_alpha	90.001310
_cell_angle_beta	89.996197
_cell_angle_gamma	84.485873
loop_
_atom_site_label
_atom_site_type_symbol
_atom_site_fract_x
_atom_site_fract_y
_atom_site_fract_z
O1	O	1.667836	0.176418	-0.121821
O2	O	1.302358	0.193218	-0.121818
O3	O	1.493500	0.002079	-0.121814
O4	O	1.476694	0.367557	-0.121825
O5	O	1.493487	0.002090	0.121784
O6	O	1.302345	0.193230	0.121781
O7	O	1.667823	0.176430	0.121777
Cu8	Cu	1.485083	0.184831	0.144022
Cu9	Cu	1.485098	0.184817	-0.144062
O10	O	1.476681	0.367569	0.121774
C11	C	1.255554	0.191989	-0.000018
C12	C	1.116111	0.188295	-0.000017
C13	C	1.492260	-0.044713	-0.000017
C14	C	1.488568	-0.184156	-0.000022
C15	C	0.933549	0.068808	-0.000033
C16	C	1.064571	0.072279	-0.000018
C17	C	1.036622	0.300848	-0.000016
C18	C	0.905603	0.297376	-0.000021
C19	C	0.949686	-0.063154	-0.000040
C20	C	1.080708	-0.059684	-0.000025
C21	C	1.601109	-0.263640	-0.000018
C22	C	1.597632	-0.394661	-0.000029
C23	C	1.369063	-0.366702	-0.000040
C24	C	1.372541	-0.235683	-0.000040
C25	C	1.733072	-0.279784	-0.000006
C26	C	1.729595	-0.410805	-0.000016
C27	C	1.714627	0.177659	-0.000026
C28	C	1.854070	0.181353	-0.000036
C29	C	1.477921	0.414361	-0.000027
C30	C	1.481613	0.553804	-0.000032
N31	N	1.485081	0.184839	0.346644
N32	N	1.485110	0.184799	-0.346685
C33	C	1.561910	0.261716	0.423307
C34	C	1.561928	0.261692	0.576644
C35	C	1.408278	0.107914	0.576641
C36	C	1.408267	0.107931	0.423307
C37	C	1.650615	0.350503	0.423310
C38	C	1.650634	0.350479	0.576647
H39	H	0.840895	0.389021	-0.000007
C40	C	1.739364	-0.276213	-0.262835
C41	C	1.802743	-0.240141	-0.137622
H42	H	1.782371	-0.251731	-0.347790
H43	H	1.737010	-0.365102	-0.262828
H44	H	1.655731	-0.236248	-0.262816
H45	H	1.886373	-0.280113	-0.137636
H46	H	1.805111	-0.151234	-0.137629
C47	C	1.840857	-0.370328	0.221092
C48	C	1.796692	-0.467182	0.137607
H49	H	1.882269	-0.405135	0.306054
H50	H	1.898445	-0.327831	0.164465
H51	H	1.771802	-0.312343	0.249394
H52	H	1.865748	-0.525162	0.109295
H53	H	1.739100	-0.509699	0.194244
C54	C	1.690287	-0.535025	-0.211582
C55	C	1.783439	-0.472433	-0.142001
H56	H	1.723525	-0.573064	-0.299241
H57	H	1.663902	-0.598208	-0.148323
H58	H	1.620266	-0.476246	-0.234393
H59	H	1.853456	-0.531214	-0.119180
H60	H	1.809841	-0.409243	-0.205273
H61	H	1.126341	-0.099556	0.105160
H62	H	1.345718	0.045318	0.360894
H63	H	1.078596	0.395311	-0.000002
H64	H	1.775088	-0.244151	0.105175
C65	C	1.017017	-0.171579	0.221054
C66	C	0.910025	-0.132810	0.137576
H67	H	0.992527	-0.214572	0.306014
H68	H	1.073281	-0.226543	0.164420
H69	H	1.057791	-0.099909	0.249362
H70	H	0.869257	-0.204482	0.109259
H71	H	0.853740	-0.077843	0.194220
H72	H	0.914063	-0.105180	-0.105221
H73	H	1.611085	0.445071	0.375773
H74	H	1.122470	-0.109404	-0.101971
C75	C	1.865429	0.283541	0.486364
C76	C	1.784322	0.308837	0.367093
H77	H	1.947968	0.257811	0.451654
H78	H	1.867153	0.357477	0.544165
H79	H	1.836180	0.218162	0.544147
H80	H	1.813566	0.374223	0.309315
H81	H	1.782603	0.234893	0.309268
C82	C	1.173156	-0.383205	0.125165
C83	C	1.241529	-0.423340	-0.000054
H84	H	1.094416	-0.418163	0.125148
H85	H	1.219530	-0.410431	0.210099
H86	H	1.159133	-0.293798	0.125154
H87	H	1.255560	-0.512747	-0.000038
H88	H	1.195144	-0.396121	-0.085010
H89	H	1.280899	-0.170971	-0.000063
H90	H	1.345738	0.045298	0.639079
H91	H	1.745224	0.311003	0.624180
H92	H	1.619701	0.449513	0.618285
