data_functionalizedCrystal
_audit_creation_method	'MofGen! by Chris Wilmer'
_symmetry_space_group_name_H-M	'P1'
_symmetry_Int_Tables_number	1
_symmetry_cell_setting	triclinic
loop_
_symmetry_equiv_pos_as_xyz
  x,y,z
_cell_length_a	9.065215
_cell_length_b	27.732048
_cell_length_c	7.540329
_cell_angle_alpha	89.991480
_cell_angle_beta	89.997574
_cell_angle_gamma	83.828676
loop_
_atom_site_label
_atom_site_type_symbol
_atom_site_fract_x
_atom_site_fract_y
_atom_site_fract_z
O1	O	1.955895	0.070860	-0.147484
O2	O	1.526240	0.076674	-0.147494
O3	O	1.754411	0.003461	-0.147455
O4	O	1.727723	0.144073	-0.147523
O5	O	1.754398	0.003460	0.147510
O6	O	1.526226	0.076673	0.147471
O7	O	1.955881	0.070859	0.147481
Cu8	Cu	1.741052	0.073766	0.174408
Cu9	Cu	1.741068	0.073767	-0.174422
O10	O	1.727710	0.144072	0.147442
C11	C	1.471282	0.076115	-0.000013
C12	C	1.307545	0.074445	-0.000015
C13	C	1.753844	-0.014550	0.000032
C14	C	1.752157	-0.068216	0.000047
C15	C	1.876372	-0.406184	-0.000042
C16	C	1.870113	-0.607886	-0.000066
O17	O	1.983698	-0.638367	-0.000141
N18	N	1.734817	-0.627933	-0.000068
C19	C	1.601075	-0.597551	-0.000075
O20	O	1.485854	-0.619230	-0.000095
C21	C	1.607336	-0.395849	-0.000063
C22	C	1.742641	-0.375806	-0.000043
C23	C	2.011666	-0.386140	-0.000024
C24	C	2.013229	-0.335717	-0.000008
C25	C	1.879499	-0.305339	-0.000010
C26	C	1.744204	-0.325383	-0.000027
C27	C	1.473596	-0.365468	-0.000082
C28	C	1.475173	-0.315040	-0.000084
C29	C	1.610479	-0.294996	-0.000064
C30	C	1.612037	-0.244582	-0.000013
N31	N	1.747333	-0.224535	-0.000011
C32	C	1.881064	-0.254914	-0.000010
C33	C	1.597798	-0.703447	-0.000078
C34	C	1.596233	-0.753872	-0.000077
C35	C	1.865271	-0.764204	-0.000072
C36	C	1.866835	-0.713778	-0.000060
C37	C	1.733094	-0.683401	-0.000076
C38	C	1.884337	-0.149022	0.000025
C39	C	1.885888	-0.098595	0.000048
C40	C	1.616851	-0.088267	0.000034
C41	C	1.615299	-0.138690	0.000020
C42	C	1.749054	-0.169067	0.000010
O43	O	1.498512	-0.214073	0.000042
O44	O	1.996269	-0.233225	-0.000029
C45	C	1.874809	-0.456607	-0.000057
C46	C	1.739514	-0.476651	-0.000075
C47	C	1.605784	-0.446273	-0.000076
C48	C	1.737949	-0.527076	-0.000075
C49	C	1.871680	-0.557454	-0.000073
C50	C	2.006976	-0.537408	-0.000072
C51	C	2.008539	-0.486985	-0.000056
C52	C	1.470487	-0.466319	-0.000078
C53	C	1.468935	-0.516742	-0.000092
C54	C	1.602666	-0.547121	-0.000090
C55	C	2.010839	0.071418	-0.000005
C56	C	2.174576	0.073088	-0.000014
C57	C	1.728276	0.162083	-0.000050
C58	C	1.729963	0.215749	-0.000076
N59	N	1.741052	0.073765	0.419757
N60	N	1.741081	0.073764	-0.419771
H61	H	1.996075	-0.082278	0.000069
H62	H	1.993253	-0.173749	0.000010
Cl63	Cl	2.036938	-0.688586	-0.000038
H64	H	2.123409	-0.319402	0.000000
H65	H	2.118719	-0.470670	-0.000041
Cl66	Cl	2.179809	-0.424321	-0.000019
Cl67	Cl	1.298819	-0.541933	-0.000108
Cl68	Cl	1.445199	-0.163889	0.000029
H69	H	1.507971	-0.063524	0.000039
H70	H	2.115865	-0.562151	-0.000063
H71	H	1.974160	-0.788947	-0.000070
H72	H	1.361585	-0.441590	-0.000083
Cl73	Cl	1.426127	-0.779064	-0.000068
H74	H	1.488884	-0.678717	-0.000090
Cl75	Cl	1.303487	-0.390653	-0.000118
H76	H	1.366263	-0.290308	-0.000099
