data_functionalizedCrystal
_audit_creation_method	'MofGen! by Chris Wilmer'
_symmetry_space_group_name_H-M	'P1'
_symmetry_Int_Tables_number	1
_symmetry_cell_setting	triclinic
loop_
_symmetry_equiv_pos_as_xyz
  x,y,z
_cell_length_a	11.026607
_cell_length_b	16.992695
_cell_length_c	15.455313
_cell_angle_alpha	87.152573
_cell_angle_beta	86.733581
_cell_angle_gamma	80.372880
loop_
_atom_site_label
_atom_site_type_symbol
_atom_site_fract_x
_atom_site_fract_y
_atom_site_fract_z
O1	O	1.647502	-0.330183	-0.072122
O2	O	1.290520	-0.292276	-0.072126
O3	O	1.467580	-0.196885	-0.072117
O4	O	1.470443	-0.425574	-0.072131
O5	O	1.457452	-0.202311	0.072145
O6	O	1.280392	-0.297702	0.072136
O7	O	1.637374	-0.335609	0.072140
Cu8	Cu	1.457959	-0.317151	0.085310
Cu9	Cu	1.469936	-0.310734	-0.085296
O10	O	1.460315	-0.431000	0.072131
C11	C	1.239567	-0.287996	0.000005
C12	C	1.102832	-0.267149	0.000003
C13	C	1.458834	-0.169866	0.000014
C14	C	1.447848	-0.081271	0.000013
C15	C	1.688328	-0.339889	0.000008
C16	C	1.825064	-0.360736	0.000003
C17	C	1.893287	-0.303174	0.000005
C18	C	2.034611	-0.324719	0.000001
C19	C	1.469061	-0.458019	-0.000002
C20	C	1.480047	-0.546614	-0.000007
N21	N	1.449543	-0.321665	0.205305
C22	C	1.553845	-0.045992	0.000015
C23	C	1.543516	0.037253	0.000007
C24	C	1.427189	0.085217	0.000003
C25	C	1.321184	0.049933	-0.000002
C26	C	1.331514	-0.033310	0.000000
C27	C	1.384373	0.334859	-0.000010
C28	C	1.374050	0.418107	-0.000009
C29	C	1.596384	0.405422	-0.000002
C30	C	1.606704	0.322177	0.000006
C31	C	1.500699	0.286900	-0.000004
N32	N	1.416628	0.170307	-0.000003
N33	N	1.511262	0.201812	-0.000004
N34	N	1.478360	-0.306215	-0.205291
C35	C	1.524794	-0.281163	0.250703
C36	C	1.518442	-0.284586	0.341511
C37	C	1.436845	-0.328516	0.386919
C38	C	1.361586	-0.369019	0.341514
C39	C	1.367932	-0.365591	0.250708
C40	C	1.409448	-0.343290	0.658499
C41	C	1.403110	-0.346717	0.749311
C42	C	1.559965	-0.262282	0.749301
C43	C	1.566310	-0.258862	0.658493
C44	C	1.491046	-0.299362	0.613097
N45	N	1.430353	-0.332018	0.479739
N46	N	1.497533	-0.295855	0.520279
H47	H	1.847068	-0.237944	0.000024
H48	H	1.648572	-0.085040	0.000024
H49	H	1.591245	-0.245394	0.213738
H50	H	2.080823	-0.389954	0.000001
H51	H	1.336660	-0.382493	0.786278
H52	H	1.306653	-0.398571	0.213746
H53	H	2.056625	-0.201911	-0.000049
H54	H	1.701430	0.283129	0.000009
H55	H	1.629831	0.065973	0.000011
H56	H	1.226467	0.088993	-0.000011
H57	H	1.579716	-0.251605	0.378473
H58	H	1.348168	-0.376269	0.621544
H59	H	1.632753	-0.223090	0.621524
H60	H	1.871281	-0.425967	0.000003
H61	H	1.682687	0.434153	0.000004
H62	H	1.279316	0.457158	0.000002
H63	H	1.295141	-0.404785	0.378491
H64	H	1.245200	-0.062033	-0.000002
H65	H	1.298056	0.306147	-0.000017
H66	H	1.621240	-0.229308	0.786271
