data_functionalizedCrystal
_audit_creation_method	'MofGen! by Chris Wilmer'
_symmetry_space_group_name_H-M	'P1'
_symmetry_Int_Tables_number	1
_symmetry_cell_setting	triclinic
loop_
_symmetry_equiv_pos_as_xyz
  x,y,z
_cell_length_a	14.044220
_cell_length_b	10.868271
_cell_length_c	14.044220
_cell_angle_alpha	90.006070
_cell_angle_beta	93.188878
_cell_angle_gamma	89.999310
loop_
_atom_site_label
_atom_site_type_symbol
_atom_site_fract_x
_atom_site_fract_y
_atom_site_fract_z
O1	O	1.277168	0.102196	0.230168
O2	O	1.000496	0.102227	0.221862
O3	O	1.134679	0.102200	0.087679
O4	O	1.142985	0.102223	0.364351
O5	O	1.134667	-0.102445	0.087673
O6	O	1.000484	-0.102417	0.221856
O7	O	1.277155	-0.102448	0.230161
Zn8	Zn	1.138817	-0.134925	0.226007
Zn9	Zn	1.138834	0.134704	0.226016
O10	O	1.142972	-0.102421	0.364344
C11	C	0.964868	-0.000091	0.218223
C12	C	0.858725	-0.000080	0.207379
C13	C	0.664388	-0.000106	0.187553
C14	C	0.613258	-0.000105	0.264467
C15	C	0.505122	-0.000119	0.253435
C16	C	0.772534	-0.000091	0.198583
C17	C	1.131037	-0.000122	0.052054
C18	C	1.120193	-0.000123	-0.054088
C19	C	1.312783	-0.000127	0.233800
C20	C	1.418926	-0.000131	0.244645
N21	N	1.138813	-0.318939	0.226001
C22	C	1.138829	-0.569945	0.226014
C23	C	1.138817	-0.430267	0.226010
N24	N	1.138845	0.318718	0.226015
C25	C	1.100366	-0.000103	-0.248426
C26	C	1.177281	-0.000108	-0.299556
C27	C	1.166249	-0.000097	-0.407692
C28	C	1.111397	-0.000114	-0.140280
C29	C	1.146614	-0.000096	0.399969
C30	C	1.157459	-0.000088	0.506112
H31	H	0.650697	-0.000092	0.338600
H32	H	1.251414	-0.000033	-0.262117
O33	O	1.011860	-0.000040	-0.292930
C34	C	0.842264	-0.000115	-0.274700
C35	C	0.942439	-0.000152	-0.224163
H36	H	0.786110	-0.000231	-0.219125
H37	H	0.833207	0.085552	-0.321161
H38	H	0.833319	-0.085735	-0.321240
H39	H	0.951453	0.085410	-0.177574
H40	H	0.951450	-0.085875	-0.177761
H41	H	0.626951	-0.000119	0.113425
