data_functionalizedCrystal
_audit_creation_method	'MofGen! by Chris Wilmer'
_symmetry_space_group_name_H-M	'P1'
_symmetry_Int_Tables_number	1
_symmetry_cell_setting	triclinic
loop_
_symmetry_equiv_pos_as_xyz
  x,y,z
_cell_length_a	16.992694
_cell_length_b	9.730223
_cell_length_c	10.654550
_cell_angle_alpha	89.993925
_cell_angle_beta	87.576577
_cell_angle_gamma	90.001498
loop_
_atom_site_label
_atom_site_type_symbol
_atom_site_fract_x
_atom_site_fract_y
_atom_site_fract_z
O1	O	1.041840	-0.114117	0.266434
O2	O	0.813539	-0.114158	0.263511
O3	O	0.932938	-0.114128	0.082687
O4	O	0.922440	-0.114147	0.447258
O5	O	0.932929	0.114452	0.082675
O6	O	0.813529	0.114422	0.263499
O7	O	1.041830	0.114463	0.266422
Zn8	Zn	0.927678	0.150734	0.264958
Zn9	Zn	0.927691	-0.150429	0.264975
O10	O	0.922431	0.114433	0.447246
C11	C	0.784301	0.000127	0.259745
C12	C	0.697196	0.000112	0.248526
N13	N	0.927675	0.356271	0.264947
N14	N	0.927700	-0.355966	0.264977
C15	C	0.647544	0.000107	0.356776
C16	C	0.565700	0.000127	0.346227
C17	C	0.533509	0.000141	0.227426
C18	C	0.583167	0.000150	0.119167
C19	C	0.665010	0.000140	0.129718
C20	C	0.289674	0.000180	0.183699
C21	C	0.207825	0.000186	0.173157
C22	C	0.190363	0.000165	0.400218
C23	C	0.272208	0.000147	0.410758
C24	C	0.321859	0.000163	0.302499
N25	N	0.449852	0.000157	0.216640
N26	N	0.405515	0.000157	0.313286
C27	C	1.071068	0.000175	0.270188
C28	C	1.158173	0.000181	0.281408
C29	C	0.932163	0.000161	0.035816
C30	C	0.929856	0.000159	-0.103826
C31	C	0.879703	0.572129	0.183942
C32	C	0.879692	0.428246	0.183923
C33	C	0.975678	0.428186	0.345986
C34	C	0.975692	0.572066	0.345997
C35	C	1.000157	0.000171	-0.177237
C36	C	0.997985	0.000154	-0.308445
C37	C	0.855206	0.000118	-0.292820
C38	C	0.857379	0.000126	-0.161614
C39	C	0.923206	0.000141	0.494117
C40	C	0.925512	0.000134	0.633759
H41	H	0.673747	0.000095	0.453517
Cl42	Cl	0.768993	0.000098	-0.069320
Cl43	Cl	1.036040	0.662468	0.447873
Cl44	Cl	0.819374	0.662598	0.082083
H45	H	0.525276	0.000121	0.434377
Cl46	Cl	0.312669	0.000120	0.560114
H47	H	1.059173	0.000195	-0.130190
H48	H	0.705436	0.000143	0.041568
Cl49	Cl	0.764097	0.000077	-0.365478
Cl50	Cl	0.819346	0.337857	0.082052
H51	H	0.181619	0.000196	0.076410
H52	H	0.330090	0.000194	0.095546
H53	H	0.149929	0.000155	0.488356
Cl54	Cl	1.086368	0.000166	-0.400728
Cl55	Cl	0.542699	0.000176	-0.030184
H56	H	1.014750	0.369572	0.411951
