data_functionalizedCrystal
_audit_creation_method	'MofGen! by Chris Wilmer'
_symmetry_space_group_name_H-M	'P1'
_symmetry_Int_Tables_number	1
_symmetry_cell_setting	triclinic
loop_
_symmetry_equiv_pos_as_xyz
  x,y,z
_cell_length_a	13.262390
_cell_length_b	14.853559
_cell_length_c	12.376457
_cell_angle_alpha	101.294162
_cell_angle_beta	63.168449
_cell_angle_gamma	84.048433
loop_
_atom_site_label
_atom_site_type_symbol
_atom_site_fract_x
_atom_site_fract_y
_atom_site_fract_z
O1	O	1.512430	0.019125	-0.559015
O2	O	1.185352	0.050733	-0.458452
O3	O	1.357633	-0.096771	-0.511420
O4	O	1.340150	0.166629	-0.506047
O5	O	1.314578	-0.059943	-0.310171
O6	O	1.142297	0.087561	-0.257203
O7	O	1.469376	0.055953	-0.357766
Zn8	Zn	1.299000	0.077605	-0.275532
Zn9	Zn	1.355727	0.029082	-0.540686
O10	O	1.297095	0.203457	-0.304798
C11	C	1.121966	0.070763	-0.344958
C12	C	0.997241	0.075565	-0.306611
C13	C	0.739553	0.008786	-0.637339
C14	C	0.856739	0.004269	-0.673370
C15	C	0.891871	0.022093	-0.581684
C16	C	0.809804	0.044434	-0.453959
C17	C	0.692608	0.048944	-0.417925
C18	C	0.844925	0.062251	-0.362269
C19	C	0.762859	0.084592	-0.234545
C20	C	0.645675	0.089101	-0.198517
C21	C	0.610543	0.071278	-0.290203
C22	C	0.962122	0.057741	-0.398304
C23	C	0.915177	0.097899	-0.178890
C24	C	0.797991	0.102415	-0.142858
C25	C	1.335315	-0.111904	-0.410555
C26	C	1.332948	-0.211861	-0.409833
C27	C	1.346368	-0.654571	-0.516445
C28	C	1.299428	-0.614415	-0.297035
C29	C	1.301662	-0.520501	-0.297721
C30	C	1.326249	-0.493619	-0.407770
C31	C	1.348600	-0.560649	-0.517133
C32	C	1.279300	-0.453462	-0.188356
C33	C	1.281533	-0.359542	-0.189038
C34	C	1.306127	-0.332659	-0.299091
C35	C	1.328481	-0.399697	-0.408459
C36	C	1.353067	-0.372814	-0.518508
C37	C	1.375429	-0.439851	-0.627879
C38	C	1.373195	-0.533767	-0.627186
C39	C	1.308362	-0.238744	-0.299784
C40	C	1.355299	-0.278892	-0.519196
C41	C	1.532762	0.035924	-0.471263
C42	C	1.657488	0.031120	-0.509618
C43	C	1.319413	0.218590	-0.405666
C44	C	1.321782	0.318546	-0.406396
N45	N	1.260294	0.110719	-0.094573
N46	N	1.394442	-0.004040	-0.721648
C47	C	1.484292	-0.080927	0.191544
C48	C	1.511376	-0.104103	0.064877
C49	C	1.448608	-0.050400	0.025008
C50	C	1.358751	0.026484	0.111819
C51	C	1.331670	0.049668	0.238496
C52	C	1.295985	0.080195	0.071960
C53	C	1.206129	0.157079	0.158771
C54	C	1.179052	0.180258	0.285436
C55	C	1.241820	0.126555	0.325305
C56	C	1.323067	0.057011	-0.054717
C57	C	1.170444	0.187606	-0.007765
C58	C	1.143360	0.210782	0.118902
H59	H	0.710937	-0.005732	-0.711977
H60	H	1.279403	-0.636308	-0.207436
C61	C	1.187124	-0.094602	-0.143623
C62	C	1.283776	-0.165052	-0.179577
H63	H	1.171942	-0.049110	-0.069405
H64	H	1.202103	-0.065162	-0.209265
H65	H	1.121774	-0.121756	-0.127796
H66	H	1.349128	-0.137899	-0.195414
H67	H	1.268803	-0.194495	-0.113921
H68	H	1.259277	-0.475357	-0.098759
H69	H	1.470664	-0.069274	-0.078131
H70	H	0.731156	0.120605	-0.038863
C71	C	1.097147	0.147099	0.539330
C72	C	1.212051	0.152026	0.464543
H73	H	1.078776	0.162816	0.625288
H74	H	1.046918	0.190093	0.528020
H75	H	1.087829	0.085039	0.515411
H76	H	1.221367	0.214088	0.488456
H77	H	1.262294	0.109031	0.475860
C78	C	1.315930	-0.581663	-0.784244
C79	C	1.397711	-0.607458	-0.747368
H80	H	1.331053	-0.627160	-0.858433
H81	H	1.240475	-0.578446	-0.718894
H82	H	1.320815	-0.521894	-0.800434
H83	H	1.392821	-0.667225	-0.731168
H84	H	1.473185	-0.610686	-0.812733
H85	H	0.578860	0.107276	-0.094516
C86	C	1.234928	-0.329295	0.027908
C87	C	1.256974	-0.285863	-0.068827
H88	H	1.219780	-0.283808	0.102116
H89	H	1.169565	-0.356419	0.043749
H90	H	1.300501	-0.377104	0.003467
H91	H	1.191398	-0.238059	-0.044390
H92	H	1.322344	-0.258725	-0.084668
H93	H	1.395439	-0.417950	-0.717479
H94	H	0.515122	0.074957	-0.260873
H95	H	0.943779	0.112411	-0.104230
H96	H	1.396228	-0.005588	-0.125388
C97	C	1.481491	-0.211760	-0.676927
C98	C	1.382286	-0.249324	-0.640145
H99	H	1.498140	-0.193505	-0.751592
H100	H	1.468495	-0.158410	-0.611890
H101	H	1.545124	-0.257898	-0.692264
H102	H	1.318650	-0.203183	-0.624799
H103	H	1.395276	-0.302680	-0.705197
H104	H	1.364579	-0.709157	-0.605494
C105	C	1.085295	-0.006232	-0.752754
C106	C	1.020682	0.017137	-0.621287
H107	H	1.164819	-0.009283	-0.777203
H108	H	1.075942	-0.065611	-0.787712
H109	H	1.058952	0.040363	-0.782503
H110	H	1.047019	-0.029461	-0.591538
H111	H	1.030041	0.076524	-0.586315
C112	C	1.659505	-0.230861	0.031202
C113	C	1.610134	-0.188615	-0.030538
H114	H	1.720472	-0.283041	-0.027706
H115	H	1.689409	-0.186409	0.068155
H116	H	1.602117	-0.251796	0.095018
H117	H	1.667521	-0.167673	-0.094348
H118	H	1.580232	-0.233075	-0.067511
C119	C	1.030908	0.307016	0.319122
C120	C	1.080288	0.264775	0.380858
H121	H	0.969933	0.359190	0.378034
H122	H	1.088281	0.327954	0.255315
H123	H	1.001005	0.262554	0.282165
H124	H	1.110198	0.309235	0.417807
H125	H	1.022904	0.243838	0.444688
C126	C	1.176689	0.285497	-0.142772
C127	C	1.101442	0.246645	-0.051574
H128	H	1.134095	0.321939	-0.169828
H129	H	1.212927	0.324519	-0.107755
H130	H	1.234068	0.236378	-0.212592
H131	H	1.044068	0.295764	0.018251
H132	H	1.065185	0.207620	-0.086589
H133	H	1.028930	0.039553	-0.502298
H134	H	0.923550	-0.013925	-0.777364
H135	H	1.535396	-0.124641	0.224013
H136	H	1.070197	0.273384	0.189599
