data_functionalizedCrystal
_audit_creation_method	'MofGen! by Chris Wilmer'
_symmetry_space_group_name_H-M	'P1'
_symmetry_Int_Tables_number	1
_symmetry_cell_setting	triclinic
loop_
_symmetry_equiv_pos_as_xyz
  x,y,z
_cell_length_a	12.759401
_cell_length_b	19.120786
_cell_length_c	12.759393
_cell_angle_alpha	92.477119
_cell_angle_beta	90.018567
_cell_angle_gamma	92.464298
loop_
_atom_site_label
_atom_site_type_symbol
_atom_site_fract_x
_atom_site_fract_y
_atom_site_fract_z
Zn1	Zn	1.588334	-0.279608	0.576098
Zn2	Zn	1.580698	-0.397085	0.392904
Zn3	Zn	1.412634	-0.279643	0.400435
Zn4	Zn	1.405098	-0.397028	0.568549
O5	O	1.496691	-0.338341	0.484496
O6	O	1.734341	-0.295201	0.551805
O7	O	1.558362	-0.381544	0.246879
O8	O	1.442290	-0.181347	0.430048
O9	O	1.728732	-0.381510	0.417213
O10	O	1.571376	-0.181322	0.559107
O11	O	1.434886	-0.295259	0.252412
O12	O	1.264614	-0.295205	0.422728
O13	O	1.429447	-0.381414	0.716574
O14	O	1.259077	-0.381448	0.546240
O15	O	1.564069	-0.295146	0.722120
O16	O	1.551056	-0.495368	0.409892
O17	O	1.422043	-0.495327	0.538938
C18	C	1.223725	-0.338324	0.484483
C19	C	1.106947	-0.338334	0.484501
C20	C	1.054994	-0.293478	0.554682
C21	C	0.945269	-0.293491	0.554687
C22	C	0.939460	-0.383224	0.414328
C23	C	1.049183	-0.383206	0.414318
C24	C	1.058347	-0.241673	0.635720
C25	C	0.948622	-0.241687	0.635726
C26	C	1.484932	-0.520833	0.472801
C27	C	1.479997	-0.598904	0.467833
C28	C	1.544837	-0.635508	0.532748
C29	C	1.540196	-0.708864	0.528082
C30	C	1.470720	-0.745614	0.458495
C31	C	1.405873	-0.709005	0.393578
C32	C	1.410509	-0.635650	0.398250
C33	C	1.453357	-0.967101	0.441028
C34	C	1.448728	-1.040461	0.436359
C35	C	1.583050	-1.040315	0.570865
C36	C	1.587685	-0.966959	0.575526
C37	C	1.522834	-0.930356	0.510613
C38	C	1.465977	-0.820596	0.453721
C39	C	1.527572	-0.855376	0.515393
C40	C	1.770723	-0.338358	0.484511
C41	C	1.887499	-0.338365	0.484517
C42	C	1.496769	-0.338270	0.758534
C43	C	1.496802	-0.338240	0.875313
C44	C	1.508525	-0.155136	0.496260
C45	C	1.513568	-0.077065	0.501273
C46	C	1.496677	-0.338361	0.211528
C47	C	1.496860	-0.338193	0.094762
C48	C	1.566910	-0.293316	0.933065
C49	C	1.566936	-0.293290	1.042791
C50	C	1.426745	-0.383119	1.037002
C51	C	1.426714	-0.383141	0.927279
C52	C	1.647851	-0.241456	0.936408
C53	C	1.647878	-0.241430	1.046134
H54	H	0.917938	-0.256325	0.716125
C55	C	1.075323	-0.502093	0.355206
C56	C	1.106292	-0.432509	0.337167
H57	H	1.110585	-0.532530	0.307575
H58	H	1.001718	-0.508519	0.345167
H59	H	1.092681	-0.512423	0.425106
H60	H	1.088926	-0.422178	0.267268
H61	H	1.179913	-0.426080	0.347197
H62	H	0.892416	-0.419757	0.357188
H63	H	1.357708	-0.605848	0.345391
C64	C	1.259346	-0.791592	0.373596
C65	C	1.329505	-0.749401	0.317085
H66	H	1.212206	-0.816533	0.326367
H67	H	1.220941	-0.762977	0.421147
H68	H	1.297312	-0.823888	0.411585
H69	H	1.291539	-0.717102	0.279102
H70	H	1.367914	-0.778019	0.269515
H71	H	1.369622	-0.419720	0.880261
H72	H	1.723873	-0.260957	0.901125
C73	C	1.067787	-0.150245	0.512431
C74	C	1.103256	-0.168213	0.611175
H75	H	1.095520	-0.104897	0.497275
H76	H	0.993346	-0.150253	0.512445
H77	H	1.090458	-0.183394	0.460603
H78	H	1.080579	-0.135066	0.663005
H79	H	1.177714	-0.168199	0.611169
H80	H	1.584136	-0.825452	0.572054
H81	H	1.091159	-0.261217	0.711708
C82	C	1.654428	-0.854449	0.642413
C83	C	1.664050	-0.926564	0.652023
H84	H	1.701579	-0.829512	0.689635
H85	H	1.584594	-0.842464	0.658491
H86	H	1.670603	-0.842461	0.572596
H87	H	1.647866	-0.938553	0.721839
H88	H	1.733899	-0.938553	0.635952
C89	C	1.706967	-0.141415	0.841681
C90	C	1.623164	-0.168027	0.900925
H91	H	1.691726	-0.096083	0.819783
H92	H	1.717101	-0.171647	0.781843
H93	H	1.768907	-0.138456	0.883250
H94	H	1.561226	-0.170991	0.859354
H95	H	1.613018	-0.137787	0.960773
C96	C	1.444048	-0.884687	0.304951
C97	C	1.382085	-0.926868	0.369672
H98	H	1.400045	-0.859843	0.260902
H99	H	1.488027	-0.913297	0.262983
H100	H	1.486082	-0.852306	0.347078
H101	H	1.340057	-0.959252	0.327545
H102	H	1.338088	-0.898255	0.411644
C103	C	1.511126	-0.159308	1.063438
C104	C	1.613060	-0.171655	1.096562
H105	H	1.489633	-0.116231	1.094565
H106	H	1.464681	-0.196353	1.084049
H107	H	1.509938	-0.156956	0.989234
H108	H	1.614246	-0.174012	1.170765
H109	H	1.659517	-0.134601	1.075957
C110	C	1.406073	-0.477576	1.154312
C111	C	1.349713	-0.432479	1.094124
H112	H	1.358514	-0.508052	1.189568
H113	H	1.447817	-0.450816	1.204410
H114	H	1.450098	-0.504452	1.109772
H115	H	1.305693	-0.405599	1.138665
H116	H	1.307951	-0.459241	1.044020
H117	H	1.728315	-0.256001	1.074980
H118	H	0.917894	-0.189989	0.610033
H119	H	1.601416	-0.605591	0.589408
H120	H	1.635847	-1.070125	0.623714
C121	C	1.673470	-0.701352	0.661463
C122	C	1.611494	-0.749099	0.599415
H123	H	1.717496	-0.726193	0.705493
H124	H	1.629490	-0.672754	0.703450
H125	H	1.715468	-0.672734	0.617523
H126	H	1.569490	-0.777714	0.643355
H127	H	1.655478	-0.777709	0.557425
H128	H	1.409412	-0.850526	0.397060
C129	C	1.316397	-1.033241	0.303885
C130	C	1.372346	-1.080859	0.359871
H131	H	1.269242	-1.058183	0.256672
H132	H	1.363994	-1.004625	0.265554
H133	H	1.277998	-1.004630	0.351462
H134	H	1.410752	-1.109467	0.312294
H135	H	1.324743	-1.109487	0.398204
