data_functionalizedCrystal
_audit_creation_method	'MofGen! by Chris Wilmer'
_symmetry_space_group_name_H-M	'P1'
_symmetry_Int_Tables_number	1
_symmetry_cell_setting	triclinic
loop_
_symmetry_equiv_pos_as_xyz
  x,y,z
_cell_length_a	15.995292
_cell_length_b	19.188930
_cell_length_c	14.472310
_cell_angle_alpha	89.993787
_cell_angle_beta	89.985801
_cell_angle_gamma	83.306699
loop_
_atom_site_label
_atom_site_type_symbol
_atom_site_fract_x
_atom_site_fract_y
_atom_site_fract_z
O1	O	1.110698	0.089798	-0.076877
O2	O	1.610698	0.589798	0.423123
O3	O	0.866875	0.100954	-0.076874
O4	O	1.366875	0.600954	0.423126
O5	O	0.995823	-0.006263	-0.076857
O6	O	1.495823	0.493737	0.423143
O7	O	0.981750	0.197015	-0.076893
O8	O	1.481750	0.697015	0.423107
O9	O	0.995790	-0.006257	0.076825
O10	O	1.495790	0.493743	0.576825
O11	O	0.866842	0.100960	0.076808
O12	O	1.366842	0.600960	0.576808
O13	O	1.110665	0.089804	0.076805
O14	O	1.610665	0.589804	0.576805
Cu15	Cu	0.988750	0.095383	0.090839
Cu16	Cu	1.488750	0.595383	0.590839
Cu17	Cu	0.988790	0.095375	-0.090908
Cu18	Cu	1.488790	0.595375	0.409092
O19	O	0.981717	0.197021	0.076789
O20	O	1.481717	0.697021	0.576789
C21	C	0.835665	0.100503	-0.000033
C22	C	1.335665	0.600503	0.499967
C23	C	0.742717	0.099142	-0.000031
C24	C	1.242717	0.599142	0.499969
C25	C	0.404997	0.094138	-0.000041
C26	C	0.904997	0.594138	0.499959
C27	C	0.428026	0.171524	-0.000397
C28	C	0.928026	0.671524	0.499603
C29	C	0.524696	0.172995	-0.000047
C30	C	1.024696	0.672995	0.499953
C31	C	0.572543	0.096621	-0.000036
C32	C	1.072543	0.596621	0.499964
C33	C	0.543564	0.057935	0.087727
C34	C	1.043564	0.557935	0.587727
C35	C	0.446777	0.057003	0.087797
C36	C	0.946777	0.557003	0.587797
C37	C	0.446965	0.055416	-0.086968
C38	C	0.946965	0.555416	0.413032
C39	C	0.543448	0.058284	-0.088124
C40	C	1.043448	0.558284	0.411876
C41	C	0.667234	0.098020	-0.000031
C42	C	1.167234	0.598020	0.499969
C43	C	0.310306	0.092736	-0.000040
C44	C	0.810306	0.592736	0.499960
C45	C	0.995351	-0.032272	-0.000014
C46	C	1.495351	0.467728	0.499986
C47	C	0.993983	-0.109780	-0.000006
C48	C	1.493983	0.390220	0.499994
C49	C	1.069645	-0.154524	-0.000002
C50	C	1.569645	0.345476	0.499998
C51	C	1.068360	-0.227351	-0.000017
C52	C	1.568360	0.272649	0.499983
C53	C	0.991408	-0.255430	-0.000017
C54	C	1.491408	0.244570	0.499983
C55	C	0.915736	-0.210676	-0.000026
C56	C	1.415736	0.289324	0.499974
C57	C	0.917023	-0.137851	-0.000020
C58	C	1.417023	0.362149	0.499980
N59	N	0.932576	-0.363573	0.052285
N60	N	1.432576	0.136427	0.552285
N61	N	0.931358	-0.432754	0.052281
N62	N	1.431358	0.067246	0.552281
C63	C	0.987524	-0.474848	-0.000035
C64	C	1.487524	0.025152	0.499965
N65	N	1.044967	-0.445148	-0.052337
N66	N	1.544967	0.054852	0.447663
N67	N	1.046187	-0.375961	-0.052330
N68	N	1.546187	0.124039	0.447670
C69	C	0.990003	-0.334396	-0.000023
C70	C	1.490003	0.165604	0.499977
C71	C	1.061798	-0.598560	-0.000049
C72	C	1.561798	-0.098560	0.499951
C73	C	1.060510	-0.671388	-0.000070
C74	C	1.560510	-0.171388	0.499930
C75	C	0.907884	-0.654711	-0.000069
C76	C	1.407884	-0.154711	0.499931
C77	C	0.909174	-0.581885	-0.000058
C78	C	1.409174	-0.081885	0.499942
C79	C	0.986134	-0.553814	-0.000044
C80	C	1.486134	-0.053814	0.499956
C81	C	1.141875	0.090255	-0.000038
C82	C	1.641875	0.590255	0.499962
C83	C	1.234823	0.091616	-0.000046
C84	C	1.734823	0.591616	0.499954
C85	C	0.982190	0.223030	-0.000057
C86	C	1.482190	0.723030	0.499943
C87	C	0.983558	0.300538	-0.000071
C88	C	1.483558	0.800538	0.499929
N89	N	0.988729	0.095387	0.218670
N90	N	1.488729	0.595387	0.718670
N91	N	0.988818	0.095365	-0.218739
N92	N	1.488818	0.595365	0.281261
C93	C	0.988788	0.095373	0.592761
C94	C	1.488788	0.595373	1.092761
C95	C	0.919561	0.152550	0.553586
C96	C	1.419561	0.652550	1.053586
C97	C	0.919720	0.152758	0.446498
C98	C	1.419720	0.652758	0.946498
C99	C	0.988758	0.095380	0.407170
C100	C	1.488758	0.595380	0.907170
C101	C	1.076067	0.111276	0.446003
C102	C	1.576067	0.611276	0.946003
C103	C	1.075678	0.111683	0.553124
C104	C	1.575678	0.611683	1.053124
C105	C	0.971487	0.022129	0.553304
C106	C	1.471487	0.522129	1.053304
C107	C	0.969482	0.022618	0.446176
C108	C	1.469482	0.522618	0.946176
C109	C	0.988747	0.095383	0.302282
C110	C	1.488747	0.595383	0.802282
C111	C	0.988806	0.095371	0.697649
C112	C	1.488806	0.595371	1.197649
H113	H	0.432434	0.000263	0.091792
H114	H	0.932434	0.500263	0.591792
H115	H	0.853081	-0.233543	-0.000028
H116	H	1.353081	0.266457	0.499972
H117	H	1.124463	-0.575704	-0.000042
H118	H	1.624463	-0.075704	0.499958
H119	H	1.122126	-0.707819	-0.000072
H120	H	1.622126	-0.207819	0.499928
H121	H	0.561928	0.086451	-0.153051
H122	H	1.061928	0.586451	0.346949
H123	H	0.909218	0.006840	0.580375
H124	H	1.409218	0.506840	1.080375
Cl125	Cl	0.821897	-0.081597	-0.000024
Cl126	Cl	1.321897	0.418403	0.499976
H127	H	0.854443	0.143237	0.579377
H128	H	1.354443	0.643237	1.079377
Cl129	Cl	0.811143	-0.690004	-0.000074
Cl130	Cl	1.311143	-0.190004	0.499926
H131	H	0.418564	0.079601	-0.153487
H132	H	0.918564	0.579601	0.346513
H133	H	0.575638	0.001734	0.090999
H134	H	1.075638	0.501734	0.590999
H135	H	1.016649	-0.021923	0.419409
H136	H	1.516649	0.478077	0.919409
Cl137	Cl	0.814050	-0.525632	-0.000058
Cl138	Cl	1.314050	-0.025632	0.499942
H139	H	1.091726	0.164083	0.419156
H140	H	1.591726	0.664083	0.919156
Cl141	Cl	0.383035	0.217329	0.096212
Cl142	Cl	0.883035	0.717329	0.596212
H143	H	0.854813	0.143289	0.420245
H144	H	1.354813	0.643289	0.920245
Cl145	Cl	1.163485	-0.283612	-0.000013
Cl146	Cl	1.663485	0.216388	0.499987
H147	H	1.021974	-0.020420	0.578637
H148	H	1.521974	0.479580	1.078637
H149	H	1.128787	0.071679	0.579036
H150	H	1.628787	0.571679	1.079036
Cl151	Cl	0.936347	0.235998	0.595096
Cl152	Cl	1.436347	0.735998	1.095096
H153	H	0.433181	-0.001546	-0.087553
H154	H	0.933181	0.498454	0.412447
Cl155	Cl	0.870325	0.003989	0.406994
Cl156	Cl	1.370325	0.503989	0.906994
Cl157	Cl	0.574356	0.099419	0.188557
Cl158	Cl	1.074356	0.599419	0.688557
Cl159	Cl	0.936701	0.236683	0.406899
Cl160	Cl	1.436701	0.736683	0.906899
H161	H	1.132311	-0.131674	0.000006
H162	H	1.632311	0.368326	0.500006
Cl163	Cl	0.594660	-0.027788	-0.096294
Cl164	Cl	1.094660	0.472212	0.403706
H165	H	0.543625	0.203288	-0.062962
H166	H	1.043625	0.703288	0.437038
H167	H	1.090965	0.165098	0.578090
H168	H	1.590965	0.665098	1.078090
Cl169	Cl	1.157488	0.048690	0.406674
Cl170	Cl	1.657488	0.548690	0.906674
H171	H	0.399934	0.201349	-0.063337
H172	H	0.899934	0.701349	0.436663
H173	H	0.542974	0.203480	0.062962
H174	H	1.042974	0.703480	0.562962
H175	H	0.419848	0.083801	0.153394
H176	H	0.919848	0.583801	0.653394
