data_functionalizedCrystal
_audit_creation_method	'MofGen! by Chris Wilmer'
_symmetry_space_group_name_H-M	'P1'
_symmetry_Int_Tables_number	1
_symmetry_cell_setting	triclinic
loop_
_symmetry_equiv_pos_as_xyz
  x,y,z
_cell_length_a	16.956984
_cell_length_b	16.992695
_cell_length_c	14.586319
_cell_angle_alpha	89.995905
_cell_angle_beta	89.996078
_cell_angle_gamma	83.360821
loop_
_atom_site_label
_atom_site_type_symbol
_atom_site_fract_x
_atom_site_fract_y
_atom_site_fract_z
O1	O	1.060100	0.032353	-0.076245
O2	O	1.310100	0.282353	0.173755
O3	O	1.560100	0.532353	0.423755
O4	O	1.810100	0.782353	0.673755
O5	O	0.829689	0.059768	-0.076246
O6	O	1.079689	0.309768	0.173754
O7	O	1.329689	0.559768	0.423754
O8	O	1.579689	0.809768	0.673754
O9	O	0.943971	-0.068022	-0.076238
O10	O	1.193971	0.181978	0.173762
O11	O	1.443971	0.431978	0.423762
O12	O	1.693971	0.681978	0.673762
O13	O	0.945818	0.160143	-0.076253
O14	O	1.195818	0.410143	0.173747
O15	O	1.445818	0.660143	0.423747
O16	O	1.695818	0.910143	0.673747
O17	O	0.943962	-0.068023	0.076243
O18	O	1.193962	0.181977	0.326243
O19	O	1.443962	0.431977	0.576243
O20	O	1.693962	0.681977	0.826243
O21	O	0.829681	0.059767	0.076235
O22	O	1.079681	0.309767	0.326235
O23	O	1.329681	0.559767	0.576235
O24	O	1.579681	0.809767	0.826235
O25	O	1.060091	0.032352	0.076236
O26	O	1.310091	0.282352	0.326236
O27	O	1.560091	0.532352	0.576236
O28	O	1.810091	0.782352	0.826236
Cu29	Cu	0.944885	0.046059	0.090158
Cu30	Cu	1.194885	0.296059	0.340158
Cu31	Cu	1.444885	0.546059	0.590158
Cu32	Cu	1.694885	0.796059	0.840158
Cu33	Cu	0.944895	0.046061	-0.090168
Cu34	Cu	1.194895	0.296061	0.159832
Cu35	Cu	1.444895	0.546061	0.409832
Cu36	Cu	1.694895	0.796061	0.659832
O37	O	0.945810	0.160142	0.076228
O38	O	1.195810	0.410142	0.326228
O39	O	1.445810	0.660142	0.576228
O40	O	1.695810	0.910142	0.826228
C41	C	0.800066	0.061172	-0.000006
C42	C	1.050066	0.311172	0.249994
C43	C	1.300066	0.561172	0.499994
C44	C	1.550066	0.811172	0.749994
C45	C	0.711812	0.065345	-0.000006
C46	C	0.961812	0.315345	0.249994
C47	C	1.211812	0.565345	0.499994
C48	C	1.461812	0.815345	0.749994
C49	C	0.941590	-0.097081	0.000002
C50	C	1.191590	0.152919	0.250002
C51	C	1.441590	0.402919	0.500002
C52	C	1.691590	0.652919	0.750002
C53	C	0.934500	-0.183666	0.000002
C54	C	1.184500	0.066334	0.250002
C55	C	1.434500	0.316334	0.500002
C56	C	1.684500	0.566334	0.750002
C57	C	0.675280	-0.004440	0.000000
C58	C	0.925280	0.245560	0.250000
C59	C	1.175280	0.495560	0.500000
C60	C	1.425280	0.745560	0.750000
C61	C	0.592355	-0.000513	-0.000007
C62	C	0.842355	0.249487	0.249993
C63	C	1.092355	0.499487	0.499993
C64	C	1.342355	0.749487	0.749993
C65	C	0.545963	0.073199	-0.000013
C66	C	0.795963	0.323199	0.249987
C67	C	1.045963	0.573199	0.499987
C68	C	1.295963	0.823199	0.749987
C69	C	0.582500	0.142990	-0.000022
C70	C	0.832500	0.392990	0.249978
C71	C	1.082500	0.642990	0.499978
C72	C	1.332500	0.892990	0.749978
C73	C	0.665424	0.139063	-0.000022
C74	C	0.915424	0.389063	0.249978
C75	C	1.165424	0.639063	0.499978
C76	C	1.415424	0.889063	0.749978
C77	C	0.297429	0.092638	-0.000021
C78	C	0.547429	0.342638	0.249979
C79	C	0.797429	0.592638	0.499979
C80	C	1.047429	0.842638	0.749979
C81	C	0.214500	0.096560	-0.000018
C82	C	0.464500	0.346560	0.249982
C83	C	0.714500	0.596560	0.499982
C84	C	0.964500	0.846560	0.749982
C85	C	0.224362	-0.046944	-0.000005
C86	C	0.474362	0.203056	0.249995
C87	C	0.724362	0.453056	0.499995
C88	C	0.974362	0.703056	0.749995
C89	C	0.307286	-0.050864	0.000001
C90	C	0.557286	0.199136	0.250001
C91	C	0.807286	0.449136	0.500001
C92	C	1.057286	0.699136	0.750001
C93	C	0.343816	0.018926	-0.000013
C94	C	0.593816	0.268926	0.249987
C95	C	0.843816	0.518926	0.499987
C96	C	1.093816	0.768926	0.749987
N97	N	0.461200	0.077214	-0.000017
N98	N	0.711200	0.327214	0.249983
N99	N	0.961200	0.577214	0.499983
N100	N	1.211200	0.827214	0.749983
N101	N	0.428577	0.014910	-0.000015
N102	N	0.678577	0.264910	0.249985
N103	N	0.928577	0.514910	0.499985
N104	N	1.178577	0.764910	0.749985
C105	C	1.002915	-0.238341	0.000003
C106	C	1.252915	0.011659	0.250003
C107	C	1.502915	0.261659	0.500003
C108	C	1.752915	0.511659	0.750003
C109	C	0.996247	-0.319695	-0.000006
C110	C	1.246247	-0.069695	0.249994
C111	C	1.496247	0.180305	0.499994
C112	C	1.746247	0.430305	0.749994
C113	C	0.921165	-0.346373	-0.000009
C114	C	1.171165	-0.096373	0.249991
C115	C	1.421165	0.153627	0.499991
C116	C	1.671165	0.403627	0.749991
C117	C	0.852745	-0.291691	-0.000013
C118	C	1.102745	-0.041691	0.249987
C119	C	1.352745	0.208309	0.499987
C120	C	1.602745	0.458309	0.749987
C121	C	0.859412	-0.210338	-0.000011
C122	C	1.109412	0.039662	0.249989
C123	C	1.359412	0.289662	0.499989
C124	C	1.609412	0.539662	0.749989
C125	C	0.893529	-0.588180	-0.000022
C126	C	1.143529	-0.338180	0.249978
C127	C	1.393529	-0.088180	0.499978
C128	C	1.643529	0.161820	0.749978
C129	C	0.886866	-0.669539	-0.000021
C130	C	1.136866	-0.419539	0.249979
C131	C	1.386866	-0.169539	0.499979
C132	C	1.636866	0.080461	0.749979
C133	C	1.030370	-0.697538	-0.000015
C134	C	1.280370	-0.447538	0.249985
C135	C	1.530370	-0.197538	0.499985
C136	C	1.780370	0.052462	0.749985
C137	C	1.037031	-0.616182	-0.000008
C138	C	1.287031	-0.366182	0.249992
C139	C	1.537031	-0.116182	0.499992
C140	C	1.787031	0.133818	0.749992
C141	C	0.968611	-0.561507	-0.000017
C142	C	1.218611	-0.311507	0.249983
C143	C	1.468611	-0.061507	0.499983
C144	C	1.718611	0.188493	0.749983
N145	N	0.914348	-0.429530	-0.000015
N146	N	1.164348	-0.179530	0.249985
N147	N	1.414348	0.070470	0.499985
N148	N	1.664348	0.320470	0.749985
N149	N	0.975428	-0.478352	-0.000017
N150	N	1.225428	-0.228352	0.249983
N151	N	1.475428	0.021648	0.499983
N152	N	1.725428	0.271648	0.749983
C153	C	1.089714	0.030948	-0.000006
C154	C	1.339714	0.280948	0.249994
C155	C	1.589714	0.530948	0.499994
C156	C	1.839714	0.780948	0.749994
C157	C	1.177969	0.026774	-0.000012
C158	C	1.427969	0.276774	0.249988
C159	C	1.677969	0.526774	0.499988
C160	C	1.927969	0.776774	0.749988
C161	C	0.948191	0.189201	-0.000014
C162	C	1.198191	0.439201	0.249986
C163	C	1.448191	0.689201	0.499986
C164	C	1.698191	0.939201	0.749986
C165	C	0.955281	0.275786	-0.000020
C166	C	1.205281	0.525786	0.249980
C167	C	1.455281	0.775786	0.499980
C168	C	1.705281	1.025786	0.749980
N169	N	0.944884	0.046057	0.216990
N170	N	1.194884	0.296057	0.466990
N171	N	1.444884	0.546057	0.716990
N172	N	1.694884	0.796057	0.966990
N173	N	0.944903	0.046056	-0.217000
N174	N	1.194903	0.296056	0.033000
N175	N	1.444903	0.546056	0.283000
N176	N	1.694903	0.796056	0.533000
C177	C	0.995507	-0.010512	0.452000
C178	C	1.245507	0.239488	0.702000
C179	C	1.495507	0.489488	0.952000
C180	C	1.745507	0.739488	1.202000
C181	C	0.995509	-0.010514	0.547981
C182	C	1.245509	0.239486	0.797981
C183	C	1.495509	0.489486	1.047981
C184	C	1.745509	0.739486	1.297981
C185	C	0.894274	0.102628	0.547983
C186	C	1.144274	0.352628	0.797983
C187	C	1.394274	0.602628	1.047983
C188	C	1.644274	0.852628	1.297983
C189	C	0.894269	0.102626	0.452004
C190	C	1.144269	0.352626	0.702004
C191	C	1.394269	0.602626	0.952004
C192	C	1.644269	0.852626	1.202004
C193	C	0.944889	0.046057	0.404015
C194	C	1.194889	0.296057	0.654015
C195	C	1.444889	0.546057	0.904015
C196	C	1.694889	0.796057	1.154015
C197	C	0.944897	0.046057	0.595975
C198	C	1.194897	0.296057	0.845975
C199	C	1.444897	0.546057	1.095975
C200	C	1.694897	0.796057	1.345975
C201	C	0.944899	0.046055	0.700042
C202	C	1.194899	0.296055	0.950042
C203	C	1.444899	0.546055	1.200042
C204	C	1.694899	0.796055	1.450042
C205	C	0.944887	0.046057	0.299941
C206	C	1.194887	0.296057	0.549941
C207	C	1.444887	0.546057	0.799941
C208	C	1.694887	0.796057	1.049941
H209	H	0.713048	-0.064465	0.000009
H210	H	0.963048	0.185535	0.250009
H211	H	1.213048	0.435535	0.500009
H212	H	1.463048	0.685535	0.750009
H213	H	0.853046	0.148691	0.412932
H214	H	1.103046	0.398691	0.662932
H215	H	1.353046	0.648691	0.912932
H216	H	1.603046	0.898691	1.162932
H217	H	0.791610	-0.313419	-0.000022
H218	H	1.041610	-0.063419	0.249978
H219	H	1.291610	0.186581	0.499978
H220	H	1.541610	0.436581	0.749978
H221	H	1.036724	-0.056575	0.412929
H222	H	1.286724	0.193425	0.662929
H223	H	1.536724	0.443425	0.912929
H224	H	1.786724	0.693425	1.162929
H225	H	0.176729	0.156589	-0.000019
H226	H	0.426729	0.406589	0.249981
H227	H	0.676729	0.656589	0.499981
H228	H	0.926729	0.906589	0.749981
H229	H	0.562616	-0.057340	-0.000003
H230	H	0.812616	0.192660	0.249997
H231	H	1.062616	0.442660	0.499997
H232	H	1.312616	0.692660	0.749997
O233	O	1.050113	-0.071517	0.599740
O234	O	1.300113	0.178483	0.849740
O235	O	1.550113	0.428483	1.099740
O236	O	1.800113	0.678483	1.349740
H237	H	1.085316	-0.110845	0.550242
H238	H	1.335316	0.139155	0.800242
H239	H	1.585316	0.389155	1.050242
H240	H	1.835316	0.639155	1.300242
H241	H	0.853061	0.148686	0.587066
H242	H	1.103061	0.398686	0.837066
H243	H	1.353061	0.648686	1.087066
H244	H	1.603061	0.898686	1.337066
O245	O	1.118019	-0.587421	-0.000012
O246	O	1.368019	-0.337421	0.249988
O247	O	1.618019	-0.087421	0.499988
O248	O	1.868019	0.162579	0.749988
H249	H	1.124493	-0.551038	0.062142
H250	H	1.374493	-0.301038	0.312142
H251	H	1.624493	-0.051038	0.562142
H252	H	1.874493	0.198962	0.812142
O253	O	0.357324	-0.130368	0.000014
O254	O	0.607324	0.119632	0.250014
O255	O	0.857324	0.369632	0.500014
O256	O	1.107324	0.619632	0.750014
H257	H	0.317990	-0.178237	0.000014
H258	H	0.567990	0.071763	0.250014
H259	H	0.817990	0.321763	0.500014
H260	H	1.067990	0.571763	0.750014
H261	H	0.194610	-0.103763	-0.000004
H262	H	0.444610	0.146237	0.249996
H263	H	0.694610	0.396237	0.499996
H264	H	0.944610	0.646237	0.749996
O265	O	0.532460	0.222492	-0.000024
O266	O	0.782460	0.472492	0.249976
O267	O	1.032460	0.722492	0.499976
O268	O	1.282460	0.972492	0.749976
H269	H	0.546006	0.256144	-0.062179
H270	H	0.796006	0.506144	0.187821
H271	H	1.046006	0.756144	0.437821
H272	H	1.296006	1.006144	0.687821
H273	H	0.327161	0.149466	-0.000038
H274	H	0.577161	0.399466	0.249962
H275	H	0.827161	0.649466	0.499962
H276	H	1.077161	0.899466	0.749962
O277	O	0.704832	0.214330	-0.000017
O278	O	0.954832	0.464330	0.249983
O279	O	1.204832	0.714330	0.499983
O280	O	1.454832	0.964330	0.749983
H281	H	0.658643	0.266247	-0.000011
H282	H	0.908643	0.516247	0.249989
H283	H	1.158643	0.766247	0.499989
H284	H	1.408643	1.016247	0.749989
H285	H	1.064055	-0.216627	0.000012
H286	H	1.314055	0.033373	0.250012
H287	H	1.564055	0.283373	0.500012
H288	H	1.814055	0.533373	0.750012
H289	H	1.086073	-0.742062	-0.000010
H290	H	1.336073	-0.492062	0.249990
H291	H	1.586073	-0.242062	0.499990
H292	H	1.836073	0.007938	0.749990
O293	O	1.070037	-0.378669	0.000011
O294	O	1.320037	-0.128669	0.250011
O295	O	1.570037	0.121331	0.500011
O296	O	1.820037	0.371331	0.750011
H297	H	1.123366	-0.346451	0.000030
H298	H	1.373366	-0.096451	0.250030
H299	H	1.623366	0.153549	0.500030
H300	H	1.873366	0.403549	0.750030
H301	H	0.825722	-0.691256	-0.000009
H302	H	1.075722	-0.441256	0.249991
H303	H	1.325722	-0.191256	0.499991
H304	H	1.575722	0.058744	0.749991
O305	O	0.819737	-0.529213	-0.000008
O306	O	1.069737	-0.279213	0.249992
O307	O	1.319737	-0.029213	0.499992
O308	O	1.569737	0.220787	0.749992
H309	H	0.766410	-0.561435	0.000006
H310	H	1.016410	-0.311435	0.250006
H311	H	1.266410	-0.061435	0.500006
H312	H	1.516410	0.188565	0.750006
H313	H	0.803701	-0.165822	-0.000012
H314	H	1.053701	0.084178	0.249988
H315	H	1.303701	0.334178	0.499988
H316	H	1.553701	0.584178	0.749988
