data_functionalizedCrystal
_audit_creation_method	'MofGen! by Chris Wilmer'
_symmetry_space_group_name_H-M	'P1'
_symmetry_Int_Tables_number	1
_symmetry_cell_setting	triclinic
loop_
_symmetry_equiv_pos_as_xyz
  x,y,z
_cell_length_a	19.188905
_cell_length_b	19.188930
_cell_length_c	12.996460
_cell_angle_alpha	90.005414
_cell_angle_beta	90.013319
_cell_angle_gamma	83.139668
loop_
_atom_site_label
_atom_site_type_symbol
_atom_site_fract_x
_atom_site_fract_y
_atom_site_fract_z
O1	O	0.926158	0.087080	0.085748
O2	O	1.259492	0.420413	0.419081
O3	O	1.592825	0.753746	0.752415
O4	O	0.722844	0.098832	0.085714
O5	O	1.056178	0.432165	0.419048
O6	O	1.389511	0.765499	0.752381
O7	O	0.830369	-0.008700	0.085712
O8	O	1.163702	0.324633	0.419045
O9	O	1.497035	0.657966	0.752379
O10	O	0.818634	0.194612	0.085750
O11	O	1.151967	0.527945	0.419084
O12	O	1.485301	0.861279	0.752417
O13	O	0.830355	-0.008694	-0.085422
O14	O	1.163688	0.324639	0.247911
O15	O	1.497021	0.657973	0.581245
O16	O	0.722831	0.098838	-0.085420
O17	O	1.056164	0.432172	0.247914
O18	O	1.389497	0.765505	0.581247
O19	O	0.926144	0.087086	-0.085386
O20	O	1.259478	0.420419	0.247947
O21	O	1.592811	0.753753	0.581281
Cu22	Cu	0.824486	0.092963	-0.101029
Cu23	Cu	1.157820	0.426296	0.232305
Cu24	Cu	1.491153	0.759629	0.565638
Cu25	Cu	0.824503	0.092955	0.101357
Cu26	Cu	1.157836	0.426289	0.434690
Cu27	Cu	1.491169	0.759622	0.768024
O28	O	0.818620	0.194618	-0.085384
O29	O	1.151954	0.527952	0.247950
O30	O	1.485287	0.861285	0.581283
C31	C	0.696826	0.098458	0.000143
C32	C	1.030160	0.431791	0.333476
C33	C	1.363493	0.765124	0.666809
C34	C	0.619321	0.097324	0.000129
C35	C	0.952654	0.430657	0.333462
C36	C	1.285987	0.763991	0.666796
C37	C	0.582937	0.096776	0.093417
C38	C	0.916270	0.430109	0.426750
C39	C	1.249603	0.763443	0.760083
C40	C	0.510113	0.095703	0.093429
C41	C	0.843446	0.429036	0.426763
C42	C	1.176780	0.762370	0.760096
C43	C	0.473678	0.095164	0.000149
C44	C	0.807012	0.428497	0.333482
C45	C	1.140345	0.761830	0.666816
C46	C	0.510071	0.095716	-0.093151
C47	C	0.843404	0.429049	0.240182
C48	C	1.176737	0.762382	0.573516
C49	C	0.582892	0.096796	-0.093161
C50	C	0.916225	0.430129	0.240172
C51	C	1.249559	0.763463	0.573506
N52	N	0.364652	0.053738	-0.069278
N53	N	0.697986	0.387071	0.264055
N54	N	1.031319	0.720404	0.597388
N55	N	0.295475	0.052710	-0.069263
N56	N	0.628809	0.386044	0.264071
N57	N	0.962142	0.719377	0.597404
C58	C	0.254272	0.091911	0.000173
C59	C	0.587605	0.425244	0.333506
C60	C	0.920938	0.758578	0.666840
N61	N	0.284859	0.132170	0.069608
N62	N	0.618193	0.465503	0.402942
N63	N	0.951526	0.798836	0.736275
N64	N	0.354043	0.133194	0.069595
N65	N	0.687376	0.466527	0.402929
N66	N	1.020710	0.799861	0.736262
C67	C	0.394716	0.093993	0.000149
C68	C	0.728049	0.427326	0.333483
C69	C	1.061382	0.760660	0.666816
C70	C	0.138923	0.090201	0.093481
C71	C	0.472257	0.423534	0.426814
C72	C	0.805590	0.756867	0.760148
C73	C	0.066098	0.089132	0.093490
C74	C	0.399431	0.422465	0.426823
C75	C	0.732765	0.755799	0.760156
C76	C	0.066058	0.089138	-0.093093
C77	C	0.399391	0.422471	0.240240
C78	C	0.732725	0.755805	0.573573
C79	C	0.138881	0.090214	-0.093099
C80	C	0.472215	0.423547	0.240234
C81	C	0.805548	0.756880	0.573567
C82	C	0.175310	0.090742	0.000191
C83	C	0.508643	0.424075	0.333524
C84	C	0.841977	0.757408	0.666857
C85	C	0.829982	-0.034708	0.000142
C86	C	1.163315	0.298625	0.333475
C87	C	1.496648	0.631959	0.666809
C88	C	0.828841	-0.112213	0.000133
C89	C	1.162174	0.221121	0.333466
C90	C	1.495508	0.554454	0.666800
C91	C	0.891933	-0.157142	0.000138
C92	C	1.225266	0.176191	0.333472
C93	C	1.558599	0.509525	0.666805
C94	C	0.890861	-0.229966	0.000155
C95	C	1.224194	0.103367	0.333488
C96	C	1.557528	0.436701	0.666821
C97	C	0.826694	-0.257857	0.000145
C98	C	1.160027	0.075477	0.333478
C99	C	1.493361	0.408810	0.666812
C100	C	0.763594	-0.212917	0.000145
C101	C	1.096927	0.120416	0.333479
C102	C	1.430261	0.453749	0.666812
C103	C	0.764668	-0.140095	0.000139
C104	C	1.098001	0.193238	0.333473
C105	C	1.431334	0.526572	0.666806
N106	N	0.777641	-0.365855	-0.058103
N107	N	1.110975	-0.032522	0.275230
N108	N	1.444308	0.300812	0.608563
N109	N	0.776626	-0.435034	-0.058100
N110	N	1.109959	-0.101700	0.275234
N111	N	1.443293	0.231633	0.608567
C112	C	0.823456	-0.477265	0.000165
C113	C	1.156789	-0.143932	0.333499
C114	C	1.490122	0.189402	0.666832
N115	N	0.871350	-0.447706	0.058414
N116	N	1.204684	-0.114373	0.391747
N117	N	1.538017	0.218961	0.725080
N118	N	0.872368	-0.378521	0.058406
N119	N	1.205701	-0.045188	0.391739
N120	N	1.539034	0.288145	0.725072
C121	C	0.825523	-0.336819	0.000152
C122	C	1.158856	-0.003486	0.333485
C123	C	1.492190	0.329848	0.666819
C124	C	0.885390	-0.601159	0.000190
C125	C	1.218723	-0.267826	0.333523
C126	C	1.552056	0.065508	0.666857
C127	C	0.884315	-0.673984	0.000213
C128	C	1.217649	-0.340650	0.333546
C129	C	1.550982	-0.007317	0.666879
C130	C	0.757047	-0.656933	0.000193
C131	C	1.090380	-0.323600	0.333526
C132	C	1.423713	0.009733	0.666859
C133	C	0.758123	-0.584110	0.000180
C134	C	1.091456	-0.250777	0.333514
C135	C	1.424790	0.082556	0.666847
C136	C	0.822296	-0.556228	0.000174
C137	C	1.155630	-0.222894	0.333507
C138	C	1.488963	0.110439	0.666841
C139	C	0.952163	0.087460	0.000188
C140	C	1.285496	0.420794	0.333521
C141	C	1.618829	0.754127	0.666854
C142	C	1.029668	0.088594	0.000208
C143	C	1.363001	0.421927	0.333542
C144	C	1.696335	0.755261	0.666875
C145	C	0.819007	0.220626	0.000189
C146	C	1.152341	0.553959	0.333522
C147	C	1.485674	0.887293	0.666855
C148	C	0.820148	0.298131	0.000204
C149	C	1.153481	0.631464	0.333538
C150	C	1.486815	0.964797	0.666871
N151	N	0.824480	0.092967	-0.243376
N152	N	1.157813	0.426301	0.089958
N153	N	1.491147	0.759634	0.423291
C154	C	0.824483	0.092969	-0.336482
C155	C	1.157816	0.426302	-0.003148
C156	C	1.491150	0.759636	0.330185
C157	C	0.824489	0.092965	-0.453287
C158	C	1.157823	0.426298	-0.119953
C159	C	1.491156	0.759631	0.213380
C160	C	0.824498	0.092957	-0.546385
C161	C	1.157832	0.426290	-0.213052
C162	C	1.491165	0.759623	0.120282
C163	C	0.824506	0.092953	-0.663198
C164	C	1.157839	0.426286	-0.329864
C165	C	1.491172	0.759619	0.003469
N166	N	0.824515	0.092945	0.243704
N167	N	1.157848	0.426278	0.577037
N168	N	1.491181	0.759612	0.910371
H169	H	0.168506	0.090655	-0.169065
H170	H	0.501840	0.423989	0.164269
H171	H	0.835173	0.757322	0.497602
H172	H	0.480483	0.095258	0.169398
H173	H	0.813816	0.428591	0.502731
H174	H	1.147150	0.761924	0.836064
F175	F	0.697514	-0.092276	0.000134
F176	F	1.030847	0.241058	0.333467
F177	F	1.364180	0.574391	0.666801
H178	H	0.944187	-0.134445	0.000137
H179	H	1.277521	0.198888	0.333470
H180	H	1.610854	0.532221	0.666804
H181	H	0.036475	0.088690	0.169459
H182	H	0.369808	0.422023	0.502792
H183	H	0.703141	0.755357	0.836125
H184	H	0.168584	0.090638	0.169443
H185	H	0.501918	0.423971	0.502777
H186	H	0.835251	0.757305	0.836110
F187	F	0.951470	-0.721802	0.000225
F188	F	1.284803	-0.388469	0.333558
F189	F	1.618137	-0.055135	0.666892
H190	H	0.942239	-0.266555	0.000163
H191	H	1.275573	0.066779	0.333497
H192	H	1.608906	0.400112	0.666830
H193	H	0.480401	0.095279	-0.169101
H194	H	0.813734	0.428612	0.164233
H195	H	1.147067	0.761945	0.497566
F196	F	0.621616	0.097379	-0.192455
F197	F	0.954949	0.430712	0.140878
F198	F	1.288283	0.764046	0.474212
H199	H	0.711349	-0.235631	0.000139
H200	H	1.044682	0.097703	0.333473
H201	H	1.378016	0.431036	0.666806
F202	F	0.953688	-0.571482	0.000178
F203	F	1.287021	-0.238148	0.333512
F204	F	1.620354	0.095185	0.666845
H205	H	0.704801	-0.679641	0.000190
H206	H	1.038134	-0.346308	0.333523
H207	H	1.371468	-0.012975	0.666856
F208	F	0.690971	-0.536291	0.000170
F209	F	1.024305	-0.202957	0.333504
F210	F	1.357638	0.130376	0.666837
F211	F	0.027286	0.088570	-0.192370
F212	F	0.360619	0.421903	0.140963
F213	F	0.693952	0.755237	0.474296
H214	H	0.612592	0.097206	0.169381
H215	H	0.945926	0.430539	0.502714
H216	H	1.279259	0.763873	0.836047
