data_functionalizedCrystal
_audit_creation_method	'MofGen! by Chris Wilmer'
_symmetry_space_group_name_H-M	'P1'
_symmetry_Int_Tables_number	1
_symmetry_cell_setting	triclinic
loop_
_symmetry_equiv_pos_as_xyz
  x,y,z
_cell_length_a	15.298530
_cell_length_b	12.759395
_cell_length_c	12.759387
_cell_angle_alpha	89.979491
_cell_angle_beta	99.699929
_cell_angle_gamma	80.318966
loop_
_atom_site_label
_atom_site_type_symbol
_atom_site_fract_x
_atom_site_fract_y
_atom_site_fract_z
Zn1	Zn	0.359090	1.533959	-0.521661
Zn2	Zn	0.509982	1.503464	-0.315583
Zn3	Zn	0.359139	1.358247	-0.345988
Zn4	Zn	0.509918	1.327877	-0.491235
O5	O	0.434532	1.430887	-0.418617
O6	O	0.379112	1.676933	-0.494334
O7	O	0.490020	1.484149	-0.172585
O8	O	0.232882	1.407028	-0.394751
O9	O	0.489972	1.654529	-0.342928
O10	O	0.232846	1.536122	-0.523817
O11	O	0.379196	1.377458	-0.194924
O12	O	0.379134	1.207199	-0.365247
O13	O	0.489863	1.355266	-0.642302
O14	O	0.489910	1.184886	-0.471959
O15	O	0.379050	1.506674	-0.664656
O16	O	0.636224	1.454700	-0.313425
O17	O	0.636177	1.325697	-0.442475
C18	C	0.434521	1.157922	-0.418601
C19	C	0.434538	1.041141	-0.418615
C20	C	0.199214	1.478364	-0.466069
C21	C	0.098935	1.498596	-0.486291
C22	C	0.550076	1.017908	-0.529479
C23	C	0.607852	0.951429	-0.584912
C24	C	0.607863	0.841706	-0.584923
C25	C	0.550090	0.798460	-0.529497
C26	C	0.492314	0.864939	-0.474063
C27	C	0.492311	0.974663	-0.474056
C28	C	0.376773	0.888172	-0.363207
C29	C	0.376765	0.997896	-0.363188
C30	C	0.318999	0.844926	-0.307780
C31	C	0.261226	0.911405	-0.252339
C32	C	0.261219	1.021134	-0.252330
C33	C	0.318989	1.064374	-0.307755
C34	C	-0.183659	1.286782	-0.274493
C35	C	-0.089442	1.267775	-0.255487
C36	C	-0.042343	1.325478	-0.313187
C37	C	-0.089470	1.402192	-0.389895
C38	C	-0.183696	1.421206	-0.408898
C39	C	-0.042381	1.459903	-0.447591
C40	C	-0.089508	1.536617	-0.524300
C41	C	-0.183725	1.555627	-0.543299
C42	C	-0.230824	1.497924	-0.485600
C43	C	0.051845	1.440889	-0.428588
C44	C	0.051808	1.575314	-0.562993
C45	C	-0.042409	1.594320	-0.581999
C46	C	0.668935	1.383623	-0.371372
C47	C	0.769214	1.363499	-0.351195
C48	C	0.434444	1.430984	-0.692668
C49	C	0.434406	1.431025	-0.809453
C50	C	0.434544	1.704918	-0.418633
C51	C	0.434549	1.821694	-0.418640
C52	C	0.319025	1.588693	-0.832749
C53	C	0.261320	1.667545	-0.899260
C54	C	0.261287	1.667577	-1.008988
C55	C	0.318963	1.588747	-1.052207
C56	C	0.376667	1.509896	-0.985695
C57	C	0.376696	1.509874	-0.875965
C58	C	0.492043	1.352226	-0.962401
C59	C	0.492082	1.352196	-0.852671
C60	C	0.549719	1.273396	-1.005619
C61	C	0.607429	1.194547	-0.939106
C62	C	0.607460	1.194519	-0.829372
C63	C	0.549786	1.273345	-0.786160
C64	C	0.434555	1.430864	-0.145645
C65	C	0.434339	1.431077	-0.028912
H66	H	0.654889	0.986653	-0.630041
O67	O	0.199122	1.752566	-0.852637
H68	H	0.128304	1.748846	-0.887967
O69	O	0.319065	1.588659	-0.714397
H70	H	0.269265	1.656714	-0.695519
O71	O	0.102673	1.358159	-0.345854
H72	H	0.145590	1.296061	-0.384209
H73	H	0.034372	1.309998	-0.297707
O74	O	0.199055	1.752623	-1.080735
H75	H	0.158959	1.807436	-1.032254
O76	O	-0.038618	1.185034	-0.172762
H77	H	0.004320	1.223381	-0.110647
O78	O	0.318925	1.588770	-1.170557
H79	H	0.269111	1.656843	-1.209546
H80	H	0.318991	1.153715	-0.307749
O81	O	0.549688	1.273422	-1.123968
H82	H	0.499881	1.341500	-1.162958
H83	H	0.550096	0.709117	-0.529521
O84	O	0.319041	0.726575	-0.307738
H85	H	0.368941	0.687607	-0.355568
H86	H	0.654379	1.130366	-0.974305
H87	H	-0.222096	1.618100	-0.605751
H88	H	-0.222013	1.239812	-0.227516
O89	O	0.198918	0.864757	-0.192570
H90	H	0.158739	0.929414	-0.154023
H91	H	0.654440	1.130299	-0.775225
O92	O	0.102602	1.637548	-0.625235
H93	H	0.084540	1.723647	-0.610863
O94	O	0.670229	0.769983	-0.644636
H95	H	0.710424	0.818478	-0.683146
O96	O	0.549831	1.273307	-0.667808
H97	H	0.481791	1.265797	-0.652594
O98	O	0.198912	1.092836	-0.192527
H99	H	0.158752	1.044324	-0.153982
H100	H	0.550080	1.107249	-0.529467
O101	O	-0.332447	1.518437	-0.506094
H102	H	-0.357275	1.465427	-0.453080
H103	H	-0.080792	1.656782	-0.644456
