data_functionalizedCrystal
_audit_creation_method	'MofGen! by Chris Wilmer'
_symmetry_space_group_name_H-M	'P1'
_symmetry_Int_Tables_number	1
_symmetry_cell_setting	triclinic
loop_
_symmetry_equiv_pos_as_xyz
  x,y,z
_cell_length_a	14.044191
_cell_length_b	23.532357
_cell_length_c	22.010155
_cell_angle_alpha	90.010083
_cell_angle_beta	90.013322
_cell_angle_gamma	88.010034
loop_
_atom_site_label
_atom_site_type_symbol
_atom_site_fract_x
_atom_site_fract_y
_atom_site_fract_z
O1	O	1.256391	0.137254	0.050510
O2	O	1.506391	0.387254	0.300510
O3	O	1.756391	0.637254	0.550510
O4	O	2.006391	0.887254	0.800510
O5	O	0.980469	0.132297	0.050517
O6	O	1.230469	0.382297	0.300517
O7	O	1.480469	0.632297	0.550517
O8	O	1.730469	0.882297	0.800517
O9	O	1.126775	0.052294	0.050501
O10	O	1.376775	0.302294	0.300501
O11	O	1.626775	0.552294	0.550501
O12	O	1.876775	0.802294	0.800501
O13	O	1.110085	0.217257	0.050526
O14	O	1.360085	0.467257	0.300526
O15	O	1.610085	0.717257	0.550526
O16	O	1.860085	0.967257	0.800526
O17	O	1.126731	0.052292	-0.050550
O18	O	1.376731	0.302292	0.199450
O19	O	1.626731	0.552292	0.449450
O20	O	1.876731	0.802292	0.699450
O21	O	0.980426	0.132295	-0.050533
O22	O	1.230426	0.382295	0.199467
O23	O	1.480426	0.632295	0.449467
O24	O	1.730426	0.882295	0.699467
O25	O	1.256347	0.137251	-0.050541
O26	O	1.506347	0.387251	0.199459
O27	O	1.756347	0.637251	0.449459
O28	O	2.006347	0.887251	0.699459
Cu29	Cu	1.118382	0.134773	-0.059764
Cu30	Cu	1.368382	0.384773	0.190236
Cu31	Cu	1.618382	0.634773	0.440236
Cu32	Cu	1.868382	0.884773	0.690236
Cu33	Cu	1.118434	0.134776	0.059740
Cu34	Cu	1.368434	0.384776	0.309740
Cu35	Cu	1.618434	0.634776	0.559740
Cu36	Cu	1.868434	0.884776	0.809740
O37	O	1.110041	0.217254	-0.050524
O38	O	1.360041	0.467254	0.199476
O39	O	1.610041	0.717254	0.449476
O40	O	1.860041	0.967254	0.699476
C41	C	0.945154	0.130128	-0.000007
C42	C	1.195154	0.380128	0.249993
C43	C	1.445154	0.630128	0.499993
C44	C	1.695154	0.880128	0.749993
C45	C	0.839991	0.123660	-0.000005
C46	C	1.089991	0.373660	0.249995
C47	C	1.339991	0.623660	0.499995
C48	C	1.589991	0.873660	0.749995
C49	C	1.126336	0.031054	-0.000026
C50	C	1.376336	0.281054	0.249974
C51	C	1.626336	0.531054	0.499974
C52	C	1.876336	0.781054	0.749974
C53	C	1.125081	-0.032233	-0.000032
C54	C	1.375081	0.217767	0.249968
C55	C	1.625081	0.467767	0.499968
C56	C	1.875081	0.717767	0.749968
C57	C	0.589374	0.157706	-0.000006
C58	C	0.839374	0.407706	0.249994
C59	C	1.089374	0.657706	0.499994
C60	C	1.339374	0.907706	0.749994
C61	C	0.647448	0.111845	-0.000012
C62	C	0.897448	0.361845	0.249988
C63	C	1.147448	0.611845	0.499988
C64	C	1.397448	0.861845	0.749988
C65	C	0.754589	0.118421	-0.000008
C66	C	1.004589	0.368421	0.249992
C67	C	1.254589	0.618421	0.499992
C68	C	1.504589	0.868421	0.749992
C69	C	0.482223	0.151131	-0.000010
C70	C	0.732223	0.401131	0.249990
C71	C	0.982223	0.651131	0.499990
C72	C	1.232223	0.901131	0.749990
C73	C	1.117225	-0.424670	0.055083
C74	C	1.367225	-0.174670	0.305083
C75	C	1.617225	0.075330	0.555083
C76	C	1.867225	0.325330	0.805083
C77	C	1.116032	-0.484134	0.055087
C78	C	1.366032	-0.234134	0.305087
C79	C	1.616032	0.015866	0.555087
C80	C	1.866032	0.265866	0.805087
O81	O	1.115403	-0.514885	0.101933
O82	O	1.365403	-0.264885	0.351933
O83	O	1.615403	-0.014885	0.601933
O84	O	1.865403	0.235115	0.851933
N85	N	1.115416	-0.513879	0.000005
N86	N	1.365416	-0.263879	0.250005
N87	N	1.615416	-0.013879	0.500005
N88	N	1.865416	0.236121	0.750005
C89	C	1.115984	-0.484156	-0.055084
C90	C	1.365984	-0.234156	0.194916
C91	C	1.615984	0.015844	0.444916
C92	C	1.865984	0.265844	0.694916
O93	O	1.115350	-0.514916	-0.101935
O94	O	1.365350	-0.264916	0.148065
O95	O	1.615350	-0.014916	0.398065
O96	O	1.865350	0.235084	0.648065
C97	C	1.117170	-0.424692	-0.055087
C98	C	1.367170	-0.174692	0.194913
C99	C	1.617170	0.075308	0.444913
C100	C	1.867170	0.325308	0.694913
C101	C	1.117796	-0.394951	-0.000001
C102	C	1.367796	-0.144951	0.249999
C103	C	1.617796	0.105049	0.499999
C104	C	1.867796	0.355049	0.749999
C105	C	1.117849	-0.394929	0.110164
C106	C	1.367849	-0.144929	0.360164
C107	C	1.617849	0.105071	0.610164
C108	C	1.867849	0.355071	0.860164
C109	C	1.119044	-0.335469	0.110161
C110	C	1.369044	-0.085469	0.360161
C111	C	1.619044	0.164531	0.610161
C112	C	1.869044	0.414531	0.860161
C113	C	1.119615	-0.305750	0.055076
C114	C	1.369615	-0.055750	0.305076
C115	C	1.619615	0.194250	0.555076
C116	C	1.869615	0.444250	0.805076
C117	C	1.118990	-0.335491	-0.000005
C118	C	1.368990	-0.085491	0.249995
C119	C	1.618990	0.164509	0.499995
C120	C	1.868990	0.414509	0.749995
C121	C	1.117732	-0.394970	-0.110175
C122	C	1.367732	-0.144970	0.139825
C123	C	1.617732	0.105030	0.389825
C124	C	1.867732	0.355030	0.639825
C125	C	1.118917	-0.335503	-0.110173
C126	C	1.368917	-0.085503	0.139827
C127	C	1.618917	0.164497	0.389827
C128	C	1.868917	0.414497	0.639827
C129	C	1.119542	-0.305762	-0.055087
C130	C	1.369542	-0.055762	0.194913
C131	C	1.619542	0.194238	0.444913
C132	C	1.869542	0.444238	0.694913
C133	C	1.120756	-0.246313	-0.055093
C134	C	1.370756	0.003687	0.194907
C135	C	1.620756	0.253687	0.444907
C136	C	1.870756	0.503687	0.694907
N137	N	1.121372	-0.216568	-0.000011
N138	N	1.371372	0.033432	0.249989
N139	N	1.621372	0.283432	0.499989
N140	N	1.871372	0.533432	0.749989
C141	C	1.120801	-0.246287	0.055073
C142	C	1.370801	0.003713	0.305073
C143	C	1.620801	0.253713	0.555073
C144	C	1.870801	0.503713	0.805073
C145	C	1.113491	-0.609032	-0.055073
C146	C	1.363491	-0.359032	0.194927
C147	C	1.613491	-0.109032	0.444927
C148	C	1.863491	0.140968	0.694927
C149	C	1.112312	-0.668495	-0.055071
C150	C	1.362312	-0.418495	0.194929
C151	C	1.612312	-0.168495	0.444929
C152	C	1.862312	0.081505	0.694929
C153	C	1.112357	-0.668469	0.055100
C154	C	1.362357	-0.418469	0.305100
C155	C	1.612357	-0.168469	0.555100
C156	C	1.862357	0.081531	0.805100
C157	C	1.113544	-0.609006	0.055097
C158	C	1.363544	-0.359006	0.305097
C159	C	1.613544	-0.109006	0.555097
C160	C	1.863544	0.140994	0.805097
C161	C	1.114107	-0.579288	0.000008
C162	C	1.364107	-0.329288	0.250008
C163	C	1.614107	-0.079288	0.500008
C164	C	1.864107	0.170712	0.750008
C165	C	1.123311	-0.121417	0.055061
C166	C	1.373311	0.128583	0.305061
C167	C	1.623311	0.378583	0.555061
C168	C	1.873311	0.628583	0.805061
C169	C	1.124510	-0.061951	0.055053
C170	C	1.374510	0.188049	0.305053
C171	C	1.624510	0.438049	0.555053
C172	C	1.874510	0.688049	0.805053
C173	C	1.124459	-0.061982	-0.055118
C174	C	1.374459	0.188018	0.194882
C175	C	1.624459	0.438018	0.444882
C176	C	1.874459	0.688018	0.694882
C177	C	1.123265	-0.121442	-0.055110
C178	C	1.373265	0.128558	0.194890
C179	C	1.623265	0.378558	0.444890
C180	C	1.873265	0.628558	0.694890
C181	C	1.122688	-0.151158	-0.000015
C182	C	1.372688	0.098842	0.249985
C183	C	1.622688	0.348842	0.499985
C184	C	1.872688	0.598842	0.749985
O185	O	1.121382	-0.215524	-0.101915
O186	O	1.371382	0.034476	0.148085
O187	O	1.621382	0.284476	0.398085
O188	O	1.871382	0.534476	0.648085
O189	O	1.121422	-0.215519	0.101916
O190	O	1.371422	0.034481	0.351916
O191	O	1.621422	0.284481	0.601916
O192	O	1.871422	0.534481	0.851916
C193	C	1.291662	0.139421	-0.000015
C194	C	1.541662	0.389421	0.249985
C195	C	1.791662	0.639421	0.499985
C196	C	2.041662	0.889421	0.749985
C197	C	1.396825	0.145888	-0.000013
C198	C	1.646825	0.395888	0.249987
C199	C	1.896825	0.645888	0.499987
C200	C	2.146825	0.895888	0.749987
C201	C	1.110481	0.238495	0.000004
C202	C	1.360481	0.488495	0.250004
C203	C	1.610481	0.738495	0.500004
C204	C	1.860481	0.988495	0.750004
C205	C	1.111736	0.301781	0.000014
C206	C	1.361736	0.551781	0.250014
C207	C	1.611736	0.801781	0.500014
C208	C	1.861736	1.051781	0.750014
N209	N	1.118353	0.134771	-0.143816
N210	N	1.368353	0.384771	0.106184
N211	N	1.618353	0.634771	0.356184
N212	N	1.868353	0.884771	0.606184
C213	C	1.175559	0.172234	-0.563592
C214	C	1.425559	0.422234	-0.313592
C215	C	1.675559	0.672234	-0.063592
C216	C	1.925559	0.922234	0.186408
C217	C	1.175570	0.172233	-0.627199
C218	C	1.425570	0.422233	-0.377199
C219	C	1.675570	0.672233	-0.127199
C220	C	1.925570	0.922233	0.122801
O221	O	1.224174	0.204080	-0.660087
O222	O	1.474174	0.454080	-0.410087
O223	O	1.724174	0.704080	-0.160087
O224	O	1.974174	0.954080	0.089913
N225	N	1.118453	0.134770	-0.659023
N226	N	1.368453	0.384770	-0.409023
N227	N	1.618453	0.634770	-0.159023
N228	N	1.868453	0.884770	0.090977
C229	C	1.061328	0.097301	-0.627236
C230	C	1.311328	0.347301	-0.377236
C231	C	1.561328	0.597301	-0.127236
C232	C	1.811328	0.847301	0.122764
O233	O	1.012747	0.065436	-0.660146
O234	O	1.262747	0.315436	-0.410146
O235	O	1.512747	0.565436	-0.160146
O236	O	1.762747	0.815436	0.089854
C237	C	1.061322	0.097300	-0.563630
C238	C	1.311322	0.347300	-0.313630
C239	C	1.561322	0.597300	-0.063630
C240	C	1.811322	0.847300	0.186370
C241	C	1.118436	0.134770	-0.531809
C242	C	1.368436	0.384770	-0.281809
C243	C	1.618436	0.634770	-0.031809
C244	C	1.868436	0.884770	0.218191
C245	C	1.232668	0.209700	-0.531771
C246	C	1.482668	0.459700	-0.281771
C247	C	1.732668	0.709700	-0.031771
C248	C	1.982668	0.959700	0.218229
C249	C	1.232656	0.209702	-0.468168
C250	C	1.482656	0.459702	-0.218168
C251	C	1.732656	0.709702	0.031832
C252	C	1.982656	0.959702	0.281832
C253	C	1.175533	0.172237	-0.436385
C254	C	1.425533	0.422237	-0.186385
C255	C	1.675533	0.672237	0.063615
C256	C	1.925533	0.922237	0.313615
C257	C	1.118423	0.134771	-0.468206
C258	C	1.368423	0.384771	-0.218206
C259	C	1.618423	0.634771	0.031794
C260	C	1.868423	0.884771	0.281794
C261	C	1.004203	0.059829	-0.531844
C262	C	1.254203	0.309829	-0.281844
C263	C	1.504203	0.559829	-0.031844
C264	C	1.754203	0.809829	0.218156
C265	C	1.004204	0.059830	-0.468233
C266	C	1.254204	0.309830	-0.218233
C267	C	1.504204	0.559830	0.031767
C268	C	1.754204	0.809830	0.281767
C269	C	1.061317	0.097300	-0.436413
C270	C	1.311317	0.347300	-0.186413
C271	C	1.561317	0.597300	0.063587
C272	C	1.811317	0.847300	0.313587
C273	C	1.061288	0.097308	-0.372820
C274	C	1.311288	0.347308	-0.122820
C275	C	1.561288	0.597308	0.127180
C276	C	1.811288	0.847308	0.377180
N277	N	1.118405	0.134771	-0.340996
N278	N	1.368405	0.384771	-0.090996
N279	N	1.618405	0.634771	0.159004
N280	N	1.868405	0.884771	0.409004
C281	C	1.175528	0.172236	-0.372779
C282	C	1.425528	0.422236	-0.122779
C283	C	1.675528	0.672236	0.127221
C284	C	1.925528	0.922236	0.377221
C285	C	1.061345	0.097307	-0.760814
C286	C	1.311345	0.347307	-0.510814
C287	C	1.561345	0.597307	-0.260814
C288	C	1.811345	0.847307	-0.010814
C289	C	1.061344	0.097311	-0.824419
C290	C	1.311344	0.347311	-0.574419
C291	C	1.561344	0.597311	-0.324419
C292	C	1.811344	0.847311	-0.074419
C293	C	1.175588	0.172242	-0.824378
C294	C	1.425588	0.422242	-0.574378
C295	C	1.675588	0.672242	-0.324378
C296	C	1.925588	0.922242	-0.074378
C297	C	1.175583	0.172241	-0.760771
C298	C	1.425583	0.422241	-0.510771
C299	C	1.675583	0.672241	-0.260771
C300	C	1.925583	0.922241	-0.010771
C301	C	1.118462	0.134770	-0.728990
C302	C	1.368462	0.384770	-0.478990
C303	C	1.618462	0.634770	-0.228990
C304	C	1.868462	0.884770	0.021010
C305	C	1.175496	0.172236	-0.239207
C306	C	1.425496	0.422236	0.010793
C307	C	1.675496	0.672236	0.260793
C308	C	1.925496	0.922236	0.510793
C309	C	1.175475	0.172236	-0.175599
C310	C	1.425475	0.422236	0.074401
C311	C	1.675475	0.672236	0.324401
C312	C	1.925475	0.922236	0.574401
C313	C	1.061236	0.097303	-0.175646
C314	C	1.311236	0.347303	0.074354
C315	C	1.561236	0.597303	0.324354
C316	C	1.811236	0.847303	0.574354
C317	C	1.061253	0.097305	-0.239249
C318	C	1.311253	0.347305	0.010751
C319	C	1.561253	0.597305	0.260751
C320	C	1.811253	0.847305	0.510751
C321	C	1.118390	0.134773	-0.271028
C322	C	1.368390	0.384773	-0.021028
C323	C	1.618390	0.634773	0.228972
C324	C	1.868390	0.884773	0.478972
O325	O	1.012711	0.065475	-0.339892
O326	O	1.262711	0.315475	-0.089892
O327	O	1.512711	0.565475	0.160108
O328	O	1.762711	0.815475	0.410108
O329	O	1.224110	0.204091	-0.339861
O330	O	1.474110	0.454091	-0.089861
O331	O	1.724110	0.704091	0.160139
O332	O	1.974110	0.954091	0.410139
N333	N	1.118471	0.134774	0.143793
N334	N	1.368471	0.384774	0.393793
N335	N	1.618471	0.634774	0.643793
N336	N	1.868471	0.884774	0.893793
H337	H	0.616702	0.067645	0.000024
H338	H	0.866702	0.317645	0.250024
H339	H	1.116702	0.567645	0.500024
H340	H	1.366702	0.817645	0.750024
H341	H	0.620118	0.201903	0.000003
H342	H	0.870118	0.451903	0.250003
H343	H	1.120118	0.701903	0.500003
H344	H	1.370118	0.951903	0.750003
H345	H	1.113952	-0.584840	-0.099936
H346	H	1.363952	-0.334840	0.150064
H347	H	1.613952	-0.084840	0.400064
H348	H	1.863952	0.165160	0.650064
H349	H	1.279168	0.240211	-0.442265
H350	H	1.529168	0.490211	-0.192265
H351	H	1.779168	0.740211	0.057735
H352	H	2.029168	0.990211	0.307735
H353	H	1.122836	-0.145604	0.099924
H354	H	1.372836	0.104396	0.349924
H355	H	1.622836	0.354396	0.599924
H356	H	1.872836	0.604396	0.849924
H357	H	1.125021	-0.037739	0.099912
H358	H	1.375021	0.212261	0.349912
H359	H	1.625021	0.462261	0.599912
H360	H	1.875021	0.712261	0.849912
H361	H	0.957689	0.029316	-0.442360
H362	H	1.207689	0.279316	-0.192360
H363	H	1.457689	0.529316	0.057640
H364	H	1.707689	0.779316	0.307640
H365	H	1.119549	-0.311259	0.155017
H366	H	1.369549	-0.061259	0.405017
H367	H	1.619549	0.188741	0.655017
H368	H	1.869549	0.438741	0.905017
H369	H	1.014726	0.066801	-0.149757
H370	H	1.264726	0.316801	0.100243
H371	H	1.514726	0.566801	0.350243
H372	H	1.764726	0.816801	0.600243
H373	H	1.117381	-0.419119	0.155023
H374	H	1.367381	-0.169119	0.405023
H375	H	1.617381	0.080881	0.655023
H376	H	1.867381	0.330881	0.905023
H377	H	1.114051	-0.584794	0.099952
H378	H	1.364051	-0.334794	0.349952
H379	H	1.614051	-0.084794	0.599952
H380	H	1.864051	0.165206	0.849952
F381	F	1.000535	0.057428	-0.726996
F382	F	1.250535	0.307428	-0.476996
F383	F	1.500535	0.557428	-0.226996
F384	F	1.750535	0.807428	0.023004
F385	F	1.111744	-0.700108	0.113726
F386	F	1.361744	-0.450108	0.363726
F387	F	1.611744	-0.200108	0.613726
F388	F	1.861744	0.049892	0.863726
H389	H	0.957697	0.029316	-0.557742
H390	H	1.207697	0.279316	-0.307742
H391	H	1.457697	0.529316	-0.057742
H392	H	1.707697	0.779316	0.192258
H393	H	1.014734	0.066800	-0.265159
H394	H	1.264734	0.316800	-0.015159
H395	H	1.514734	0.566800	0.234841
H396	H	1.764734	0.816800	0.484841
F397	F	1.111663	-0.700142	-0.113701
F398	F	1.361663	-0.450142	0.136299
F399	F	1.611663	-0.200142	0.386299
F400	F	1.861663	0.049858	0.636299
H401	H	1.279189	0.240209	-0.557641
H402	H	1.529189	0.490209	-0.307641
H403	H	1.779189	0.740209	-0.057641
H404	H	2.029189	0.990209	0.192359
H405	H	1.222099	0.202749	-0.850267
H406	H	1.472099	0.452749	-0.600267
H407	H	1.722099	0.702749	-0.350267
H408	H	1.972099	0.952749	-0.100267
F409	F	1.236373	0.212119	-0.726911
F410	F	1.486373	0.462119	-0.476911
F411	F	1.736373	0.712119	-0.226911
F412	F	1.986373	0.962119	0.023089
F413	F	1.117062	-0.426610	-0.168805
F414	F	1.367062	-0.176610	0.081195
F415	F	1.617062	0.073390	0.331195
F416	F	1.867062	0.323390	0.581195
H417	H	1.119361	-0.311310	-0.155034
H418	H	1.369361	-0.061310	0.094966
H419	H	1.619361	0.188690	0.344966
H420	H	1.869361	0.438690	0.594966
F421	F	1.122617	-0.153097	-0.113737
F422	F	1.372617	0.096903	0.136263
F423	F	1.622617	0.346903	0.386263
F424	F	1.872617	0.596903	0.636263
H425	H	1.124928	-0.037775	-0.099966
H426	H	1.374928	0.212225	0.150034
H427	H	1.624928	0.462225	0.400034
H428	H	1.874928	0.712225	0.650034
F429	F	1.000543	0.057438	-0.858279
F430	F	1.250543	0.307438	-0.608279
F431	F	1.500543	0.557438	-0.358279
F432	F	1.750543	0.807438	-0.108279
H433	H	1.221984	0.202751	-0.149693
H434	H	1.471984	0.452751	0.100307
H435	H	1.721984	0.702751	0.350307
H436	H	1.971984	0.952751	0.600307
F437	F	1.236308	0.212114	-0.273020
F438	F	1.486308	0.462114	-0.023020
F439	F	1.736308	0.712114	0.226980
F440	F	1.986308	0.962114	0.476980
