data_functionalizedCrystal
_audit_creation_method	'MofGen! by Chris Wilmer'
_symmetry_space_group_name_H-M	'P1'
_symmetry_Int_Tables_number	1
_symmetry_cell_setting	triclinic
loop_
_symmetry_equiv_pos_as_xyz
  x,y,z
_cell_length_a	14.519709
_cell_length_b	14.519709
_cell_length_c	13.596369
_cell_angle_alpha	90.000816
_cell_angle_beta	90.000208
_cell_angle_gamma	83.680144
loop_
_atom_site_label
_atom_site_type_symbol
_atom_site_fract_x
_atom_site_fract_y
_atom_site_fract_z
O1	O	-0.120893	-1.223868	0.081637
O2	O	0.129107	-0.973868	0.331637
O3	O	0.379107	-0.723868	0.581637
O4	O	0.629107	-0.473868	0.831637
O5	O	-0.135129	-0.955392	0.081668
O6	O	0.114871	-0.705392	0.331668
O7	O	0.364871	-0.455392	0.581668
O8	O	0.614871	-0.205392	0.831668
O9	O	0.006227	-1.096748	0.081661
O10	O	0.256227	-0.846748	0.331661
O11	O	0.506227	-0.596748	0.581661
O12	O	0.756227	-0.346748	0.831661
O13	O	-0.262249	-1.082512	0.081645
O14	O	-0.012249	-0.832512	0.331645
O15	O	0.237751	-0.582512	0.581645
O16	O	0.487751	-0.332512	0.831645
O17	O	0.006235	-1.096734	-0.081922
O18	O	0.256235	-0.846734	0.168078
O19	O	0.506235	-0.596734	0.418078
O20	O	0.756235	-0.346734	0.668078
O21	O	-0.135122	-0.955377	-0.081914
O22	O	0.114878	-0.705377	0.168086
O23	O	0.364878	-0.455377	0.418086
O24	O	0.614878	-0.205377	0.668086
O25	O	-0.120885	-1.223854	-0.081946
O26	O	0.129115	-0.973854	0.168054
O27	O	0.379115	-0.723854	0.418054
O28	O	0.629115	-0.473854	0.668054
Zn29	Zn	-0.128002	-1.089614	-0.107902
Zn30	Zn	0.121998	-0.839614	0.142098
Zn31	Zn	0.371998	-0.589614	0.392098
Zn32	Zn	0.621998	-0.339614	0.642098
Zn33	Zn	-0.128012	-1.089632	0.107625
Zn34	Zn	0.121988	-0.839632	0.357625
Zn35	Zn	0.371988	-0.589632	0.607625
Zn36	Zn	0.621988	-0.339632	0.857625
O37	O	-0.262242	-1.082498	-0.081938
O38	O	-0.012242	-0.832498	0.168062
O39	O	0.237758	-0.582498	0.418062
O40	O	0.487758	-0.332498	0.668062
C41	C	-0.134462	-0.921025	-0.000119
C42	C	0.115538	-0.671025	0.249881
C43	C	0.365538	-0.421025	0.499881
C44	C	0.615538	-0.171025	0.749881
C45	C	-0.132474	-0.818643	-0.000106
C46	C	0.117526	-0.568643	0.249894
C47	C	0.367526	-0.318643	0.499894
C48	C	0.617526	-0.068643	0.749894
C49	C	-0.125154	-0.443748	-0.000147
C50	C	0.124846	-0.193748	0.249853
C51	C	0.374846	0.056252	0.499853
C52	C	0.624846	0.306252	0.749853
C53	C	-0.127187	-0.548056	-0.000135
C54	C	0.122813	-0.298056	0.249865
C55	C	0.372813	-0.048056	0.499865
C56	C	0.622813	0.201944	0.749865
C57	C	-0.128814	-0.631192	-0.000126
C58	C	0.121186	-0.381192	0.249874
C59	C	0.371186	-0.131192	0.499874
C60	C	0.621186	0.118808	0.749874
C61	C	-0.130847	-0.735507	-0.000116
C62	C	0.119153	-0.485507	0.249884
C63	C	0.369153	-0.235507	0.499884
C64	C	0.619153	0.014493	0.749884
C65	C	-0.296605	-1.083168	-0.000149
C66	C	-0.046605	-0.833168	0.249851
C67	C	0.203395	-0.583168	0.499851
C68	C	0.453395	-0.333168	0.749851
C69	C	-0.398987	-1.085156	-0.000156
C70	C	-0.148987	-0.835156	0.249844
C71	C	0.101013	-0.585156	0.499844
C72	C	0.351013	-0.335156	0.749844
C73	C	-0.773883	-1.092476	-0.000118
C74	C	-0.523883	-0.842476	0.249882
C75	C	-0.273883	-0.592476	0.499882
C76	C	-0.023883	-0.342476	0.749882
C77	C	-0.669575	-1.090443	-0.000129
C78	C	-0.419575	-0.840443	0.249871
C79	C	-0.169575	-0.590443	0.499871
C80	C	0.080425	-0.340443	0.749871
C81	C	-0.586438	-1.088816	-0.000138
C82	C	-0.336438	-0.838816	0.249862
C83	C	-0.086438	-0.588816	0.499862
C84	C	0.163562	-0.338816	0.749862
C85	C	-0.482123	-1.086783	-0.000147
C86	C	-0.232123	-0.836783	0.249853
C87	C	0.017877	-0.586783	0.499853
C88	C	0.267877	-0.336783	0.749853
C89	C	0.040591	-1.096078	-0.000126
C90	C	0.290591	-0.846078	0.249874
C91	C	0.540591	-0.596078	0.499874
C92	C	0.790591	-0.346078	0.749874
C93	C	0.142972	-1.094090	-0.000113
C94	C	0.392972	-0.844090	0.249887
C95	C	0.642972	-0.594090	0.499887
C96	C	0.892972	-0.344090	0.749887
N97	N	-0.127995	-1.089608	-0.254994
N98	N	0.122005	-0.839608	-0.004994
N99	N	0.372005	-0.589608	0.245006
N100	N	0.622005	-0.339608	0.495006
C101	C	-0.121553	-0.258221	-0.000154
C102	C	0.128447	-0.008221	0.249846
C103	C	0.378447	0.241779	0.499846
C104	C	0.628447	0.491779	0.749846
C105	C	-0.123541	-0.360602	-0.000152
C106	C	0.126459	-0.110602	0.249848
C107	C	0.376459	0.139398	0.499848
C108	C	0.626459	0.389398	0.749848
C109	C	-0.128013	-1.089631	-0.656285
C110	C	0.121987	-0.839631	-0.406285
C111	C	0.371987	-0.589631	-0.156285
C112	C	0.621987	-0.339631	0.093715
C113	C	-0.128011	-1.089622	-0.544634
C114	C	0.121989	-0.839622	-0.294634
C115	C	0.371989	-0.589622	-0.044634
C116	C	0.621989	-0.339622	0.205366
C117	C	-0.128005	-1.089620	-0.455643
C118	C	0.121995	-0.839620	-0.205643
C119	C	0.371995	-0.589620	0.044357
C120	C	0.621995	-0.339620	0.294357
C121	C	-0.128001	-1.089610	-0.343985
C122	C	0.121999	-0.839610	-0.093985
C123	C	0.371999	-0.589610	0.156015
C124	C	0.621999	-0.339610	0.406015
N125	N	-0.128012	-1.089645	0.254717
N126	N	0.121988	-0.839645	0.504717
N127	N	0.371988	-0.589645	0.754717
N128	N	0.621988	-0.339645	1.004717
