data_functionalizedCrystal
_audit_creation_method	'MofGen! by Chris Wilmer'
_symmetry_space_group_name_H-M	'P1'
_symmetry_Int_Tables_number	1
_symmetry_cell_setting	triclinic
loop_
_symmetry_equiv_pos_as_xyz
  x,y,z
_cell_length_a	10.686220
_cell_length_b	10.686285
_cell_length_c	10.686551
_cell_angle_alpha	80.915481
_cell_angle_beta	90.308082
_cell_angle_gamma	90.345431
loop_
_atom_site_label
_atom_site_type_symbol
_atom_site_fract_x
_atom_site_fract_y
_atom_site_fract_z
Zn1	Zn	1.994012	-0.307898	-0.537149
Zn2	Zn	1.993911	-0.536485	-0.308653
Zn3	Zn	1.770410	-0.340205	-0.340818
Zn4	Zn	1.800161	-0.533926	-0.534641
O5	O	1.889623	-0.429629	-0.430315
O6	O	2.168662	-0.325771	-0.494427
O7	O	1.951770	-0.525040	-0.136178
O8	O	1.787663	-0.159182	-0.381372
O9	O	2.168588	-0.493713	-0.326552
O10	O	1.951942	-0.135446	-0.525615
O11	O	1.787565	-0.380834	-0.159810
O12	O	1.599693	-0.378352	-0.378940
O13	O	1.838368	-0.489351	-0.711715
O14	O	1.621551	-0.520678	-0.521341
O15	O	1.980790	-0.323289	-0.713557
O16	O	1.980618	-0.712883	-0.324121
O17	O	1.838270	-0.711003	-0.490153
C18	C	1.565334	-0.452744	-0.453360
C19	C	1.426605	-0.462661	-0.463246
C20	C	1.912697	-0.757764	-0.403399
C21	C	1.922686	-0.898130	-0.391919
C22	C	2.215179	-0.406424	-0.407181
C23	C	2.353912	-0.396535	-0.397323
C24	C	1.912909	-0.402431	-0.759745
C25	C	1.922832	-0.390841	-0.900128
C26	C	1.866495	-0.100207	-0.457361
C27	C	1.856639	0.040173	-0.468887
C28	C	1.866493	-0.456624	-0.102170
C29	C	1.856787	-0.467841	0.038201
H30	H	1.792453	-0.905265	-0.543568
C31	C	2.009398	-0.971839	-0.291014
C32	C	2.019601	-1.116909	-0.279271
C33	C	2.106311	-1.190617	-0.178369
C34	C	2.182820	-1.119255	-0.089209
C35	C	2.172620	-0.974177	-0.100949
C36	C	2.085909	-0.900469	-0.201852
H37	H	1.962962	-1.169742	-0.345275
H38	H	2.113861	-1.298013	-0.169679
H39	H	2.247008	-1.173818	-0.014515
H40	H	2.229258	-0.921344	-0.034945
H41	H	2.078359	-0.793072	-0.210542
H42	H	1.792656	-0.542634	-0.907200
H43	H	1.397808	-0.332337	-0.333320
C44	C	1.367311	-0.549403	-0.549713
C45	C	1.223916	-0.559545	-0.559813
C46	C	1.164621	-0.646286	-0.646278
C47	C	1.248721	-0.722885	-0.722643
C48	C	1.392124	-0.712746	-0.712544
C49	C	1.451419	-0.626005	-0.626079
H50	H	1.161653	-0.502840	-0.503282
H51	H	1.058465	-0.653792	-0.653753
H52	H	1.204828	-0.787096	-0.786649
H53	H	1.454387	-0.769451	-0.769076
H54	H	1.557576	-0.618499	-0.618605
H55	H	1.986977	-0.316051	-0.954732
