data_functionalizedCrystal
_audit_creation_method	'MofGen! by Chris Wilmer'
_symmetry_space_group_name_H-M	'P1'
_symmetry_Int_Tables_number	1
_symmetry_cell_setting	triclinic
loop_
_symmetry_equiv_pos_as_xyz
  x,y,z
_cell_length_a	18.215407
_cell_length_b	13.032127
_cell_length_c	18.215399
_cell_angle_alpha	97.210528
_cell_angle_beta	90.016899
_cell_angle_gamma	97.188280
loop_
_atom_site_label
_atom_site_type_symbol
_atom_site_fract_x
_atom_site_fract_y
_atom_site_fract_z
Zn1	Zn	1.087917	-0.416184	0.378817
Zn2	Zn	1.072221	-0.590972	0.240110
Zn3	Zn	0.964847	-0.416209	0.255769
Zn4	Zn	0.949217	-0.590905	0.363148
O5	O	1.018550	-0.503568	0.309461
O6	O	1.188817	-0.439388	0.360422
O7	O	1.057950	-0.567828	0.139200
O8	O	0.994283	-0.269945	0.285202
O9	O	1.177286	-0.567804	0.258515
O10	O	1.084701	-0.269927	0.375605
O11	O	0.979063	-0.439430	0.150704
O12	O	0.859791	-0.439365	0.270008
O13	O	0.967643	-0.567689	0.468214
O14	O	0.848308	-0.567714	0.348899
O15	O	1.069545	-0.439323	0.479726
O16	O	1.042794	-0.737224	0.243321
O17	O	0.952424	-0.737174	0.333716
C18	C	0.827347	-0.503536	0.309452
C19	C	0.745547	-0.503547	0.309464
C20	C	0.994229	-0.775123	0.285135
C21	C	0.983892	-0.891295	0.274753
C22	C	0.474518	-0.570508	0.350465
C23	C	0.551377	-0.570499	0.350462
C24	C	0.563322	-0.436650	0.268468
C25	C	0.486464	-0.436665	0.268467
C26	C	0.442063	-0.503593	0.309470
C27	C	0.595782	-0.503569	0.309468
C28	C	0.679116	-0.503559	0.309465
C29	C	0.358723	-0.503605	0.309472
C30	C	1.013304	-1.063071	0.304169
C31	C	1.023994	-0.943001	0.314901
C32	C	1.210500	-0.503601	0.309470
C33	C	1.292298	-0.503615	0.309473
C34	C	1.018602	-0.503496	0.501420
C35	C	1.018624	-0.503465	0.583222
C36	C	1.042986	-0.230952	0.333898
C37	C	1.053400	-0.114780	0.344312
C38	C	1.018548	-0.503564	0.118255
C39	C	1.018695	-0.503300	0.036480
C40	C	1.071707	-0.436562	0.777417
C41	C	1.071718	-0.436531	0.854279
C42	C	0.965607	-0.570206	0.842279
C43	C	0.965593	-0.570231	0.765420
C44	C	1.018647	-0.503410	0.732990
C45	C	1.018672	-0.503355	0.886712
C46	C	1.018684	-0.503323	0.970048
C47	C	1.018634	-0.503441	0.649649
H48	H	0.438369	-0.625005	0.383852
H49	H	0.922414	-0.624612	0.868692
H50	H	1.114924	-0.382095	0.890448
H51	H	0.971059	-1.107693	0.261858
C52	C	0.860710	-0.702377	0.761271
C53	C	0.907268	-0.643721	0.716579
H54	H	0.824707	-0.747746	0.731117
H55	H	0.836645	-0.656829	0.795327
H56	H	0.889204	-0.742349	0.787670
H57	H	0.878774	-0.603742	0.690184
H58	H	0.931334	-0.689275	0.682510
H59	H	0.577797	-0.624990	0.383844
H60	H	0.599482	-0.382159	0.235086
C61	C	1.080577	-0.775489	0.371601
C62	C	1.081025	-0.882777	0.372027
H63	H	1.115789	-0.738311	0.406865
H64	H	1.032703	-0.757699	0.383910
H65	H	1.092950	-0.757693	0.323741
H66	H	1.068647	-0.900575	0.419887
H67	H	1.128910	-0.900574	0.359723
H68	H	0.941643	-0.935912	0.232440
C69	C	1.145453	-1.125323	0.436507
C70	C	1.110424	-1.054554	0.401439
H71	H	1.180654	-1.088141	0.471780
H72	H	1.169860	-1.167895	0.400690
H73	H	1.109599	-1.167916	0.460845
H74	H	1.146277	-1.011965	0.377097
H75	H	1.086016	-1.011964	0.437262
C76	C	0.505986	-0.304346	0.187421
C77	C	0.450785	-0.363103	0.223403
H78	H	0.483957	-0.258932	0.159605
H79	H	0.531885	-0.349827	0.155147
H80	H	0.539546	-0.264416	0.223113
H81	H	0.417228	-0.403039	0.187711
H82	H	0.424874	-0.317616	0.255681
C83	C	1.176587	-0.304418	0.797002
C84	C	1.130016	-0.363103	0.741771
H85	H	1.212581	-0.259061	0.774996
H86	H	1.200663	-0.349948	0.822898
H87	H	1.148100	-0.264432	0.830562
H88	H	1.158502	-0.403096	0.708214
H89	H	1.105939	-0.317567	0.715863
