data_functionalizedCrystal
_audit_creation_method	'MofGen! by Chris Wilmer'
_symmetry_space_group_name_H-M	'P1'
_symmetry_Int_Tables_number	1
_symmetry_cell_setting	triclinic
loop_
_symmetry_equiv_pos_as_xyz
  x,y,z
_cell_length_a	18.101398
_cell_length_b	18.101397
_cell_length_c	19.805399
_cell_angle_alpha	89.969268
_cell_angle_beta	89.978734
_cell_angle_gamma	90.015732
loop_
_atom_site_label
_atom_site_type_symbol
_atom_site_fract_x
_atom_site_fract_y
_atom_site_fract_z
Zn1	Zn	1.132153	-0.294930	-0.382791
Zn2	Zn	1.632153	0.205070	0.117209
Zn3	Zn	1.132079	-0.418777	-0.269599
Zn4	Zn	1.632079	0.081223	0.230401
Zn5	Zn	1.008319	-0.294943	-0.269606
Zn6	Zn	1.508319	0.205057	0.230394
Zn7	Zn	1.008286	-0.418724	-0.382737
Zn8	Zn	1.508286	0.081276	0.117263
O9	O	1.070209	-0.356843	-0.326183
O10	O	1.570209	0.143157	0.173817
O11	O	1.235776	-0.311375	-0.367795
O12	O	1.735776	0.188625	0.132205
O13	O	1.115644	-0.402377	-0.174883
O14	O	1.615644	0.097623	0.325117
O15	O	1.024791	-0.191309	-0.284646
O16	O	1.524791	0.308691	0.215354
O17	O	1.235722	-0.402365	-0.284633
O18	O	1.735722	0.097635	0.215367
O19	O	1.115771	-0.191299	-0.367802
O20	O	1.615771	0.308701	0.132198
O21	O	1.024719	-0.311398	-0.174889
O22	O	1.524719	0.188602	0.325111
O23	O	0.904682	-0.311346	-0.284594
O24	O	1.404682	0.188654	0.215406
O25	O	1.024735	-0.402275	-0.477461
O26	O	1.524735	0.097725	0.022539
O27	O	0.904658	-0.402288	-0.367711
O28	O	1.404658	0.097712	0.132289
O29	O	1.115740	-0.311324	-0.477500
O30	O	1.615740	0.188676	0.022500
O31	O	1.115613	-0.522402	-0.284581
O32	O	1.615613	-0.022402	0.215419
O33	O	1.024662	-0.522364	-0.367703
O34	O	1.524662	-0.022364	0.132297
C35	C	0.877799	-0.356813	-0.326148
C36	C	1.377799	0.143187	0.173852
C37	C	0.795485	-0.356818	-0.326149
C38	C	1.295485	0.143182	0.173851
C39	C	0.496394	-0.356865	-0.326206
C40	C	0.996394	0.143135	0.173794
C41	C	0.527709	-0.299361	-0.274166
C42	C	1.027709	0.200639	0.225834
C43	C	0.613328	-0.299515	-0.273944
C44	C	1.113328	0.200485	0.226056
C45	C	0.644776	-0.356841	-0.326177
C46	C	1.144776	0.143159	0.173823
C47	C	0.613674	-0.434853	-0.306684
C48	C	1.113674	0.065147	0.193316
C49	C	0.528029	-0.434533	-0.306323
C50	C	1.028029	0.065467	0.193677
C51	C	0.528001	-0.337035	-0.397861
C52	C	1.028001	0.162965	0.102139
C53	C	0.613651	-0.335298	-0.397470
C54	C	1.113651	0.164702	0.102530
C55	C	0.728636	-0.356832	-0.326163
C56	C	1.228636	0.143168	0.173837
C57	C	0.412534	-0.356878	-0.326219
C58	C	0.912534	0.143122	0.173781
C59	C	1.070146	-0.549254	-0.326150
C60	C	1.570146	-0.049254	0.173850
C61	C	1.070187	-0.631568	-0.326159
C62	C	1.570187	-0.131568	0.173841
C63	C	1.070281	-0.930659	-0.326221
C64	C	1.570281	-0.430659	0.173779
C65	C	1.127345	-0.899327	-0.273782
C66	C	1.627345	-0.399327	0.226218
C67	C	1.127543	-0.813709	-0.273918
C68	C	1.627543	-0.313709	0.226082
C69	C	1.070234	-0.782276	-0.326189
C70	C	1.570234	-0.282276	0.173811
C71	C	1.091386	-0.813285	-0.397536
C72	C	1.591386	-0.313285	0.102464
C73	C	1.091828	-0.898930	-0.397250
C74	C	1.591828	-0.398930	0.102750
C75	C	0.991913	-0.899162	-0.307930
C76	C	1.491913	-0.399162	0.192070
C77	C	0.992301	-0.813512	-0.306338
C78	C	1.492301	-0.313512	0.193662
C79	C	1.070207	-0.698417	-0.326176
C80	C	1.570207	-0.198417	0.173824
C81	C	1.070311	-1.014518	-0.326239
C82	C	1.570311	-0.514518	0.173761
C83	C	1.263371	-0.356874	-0.326219
C84	C	1.763371	0.143126	0.173781
C85	C	1.345685	-0.356887	-0.326234
C86	C	1.845685	0.143113	0.173766
C87	C	1.070242	-0.356792	-0.502726
C88	C	1.570242	0.143208	-0.002726
C89	C	1.070256	-0.356770	-0.577958
C90	C	1.570256	0.143230	-0.077958
C91	C	1.070293	-0.163681	-0.326231
C92	C	1.570293	0.336319	0.173769
C93	C	1.070329	-0.081367	-0.326251
C94	C	1.570329	0.418633	0.173749
C95	C	1.022924	-0.309392	-0.613305
C96	C	1.522924	0.190608	-0.113305
C97	C	1.022934	-0.309378	-0.683993
C98	C	1.522934	0.190622	-0.183993
C99	C	1.070280	-0.356738	-0.719334
C100	C	1.570280	0.143262	-0.219334
C101	C	1.117614	-0.404121	-0.683982
C102	C	1.617614	0.095879	-0.183982
C103	C	1.117600	-0.404139	-0.613295
C104	C	1.617600	0.095861	-0.113295
C105	C	1.117673	-0.404052	-0.969056
C106	C	1.617673	0.095948	-0.469056
C107	C	1.117685	-0.404029	-1.039748
C108	C	1.617685	0.095971	-0.539748
C109	C	1.023007	-0.309291	-1.039754
C110	C	1.523007	0.190709	-0.539754
C111	C	1.022993	-0.309309	-0.969067
C112	C	1.522993	0.190691	-0.469067
C113	C	1.070324	-0.356694	-0.933721
C114	C	1.570324	0.143306	-0.433721
C115	C	1.070311	-0.356710	-0.857073
C116	C	1.570311	0.143290	-0.357073
C117	C	1.070297	-0.356719	-0.795981
C118	C	1.570297	0.143281	-0.295981
C119	C	1.070220	-0.356841	-0.150327
C120	C	1.570220	0.143159	0.349673
C121	C	1.070349	-0.356654	-0.075096
C122	C	1.570349	0.143346	0.424904
H123	H	0.634357	-0.241666	-0.286163
H124	H	1.134357	0.258334	0.213837
H125	H	1.156147	-0.442713	-0.584517
H126	H	1.656147	0.057287	-0.084517
C127	C	0.640970	-0.317229	-0.202215
C128	C	1.140970	0.182771	0.297785
N129	N	0.661790	-0.330574	-0.148185
N130	N	1.161790	0.169426	0.351815
C131	C	1.205968	-0.785959	-0.290263
C132	C	1.705968	-0.285959	0.209737
N133	N	1.265042	-0.765058	-0.302575
N134	N	1.765042	-0.265058	0.197425
C135	C	1.169779	-0.456136	-0.930185
C136	C	1.669779	0.043864	-0.430185
N137	N	1.209043	-0.495353	-0.900905
N138	N	1.709043	0.004647	-0.400905
C139	C	1.169217	-0.925848	-0.418172
C140	C	1.669217	-0.425848	0.081828
N141	N	1.227510	-0.946119	-0.433927
N142	N	1.727510	-0.446119	0.066073
C143	C	0.499901	-0.220969	-0.290488
C144	C	0.999901	0.279031	0.209512
N145	N	0.478951	-0.161922	-0.302782
N146	N	0.978951	0.338078	0.197218
H147	H	0.508023	-0.451350	-0.253939
H148	H	1.008023	0.048650	0.246061
H149	H	0.947497	-0.792123	-0.341734
H150	H	1.447497	-0.292123	0.158266
H151	H	0.984466	-0.270710	-1.068540
H152	H	1.484466	0.229290	-0.568540
C153	C	0.498593	-0.316859	-0.202855
C154	C	0.998593	0.183141	0.297145
N155	N	0.476661	-0.330040	-0.149144
N156	N	0.976661	0.169960	0.350856
C157	C	0.965920	-0.928415	-0.238860
C158	C	1.465920	-0.428415	0.261140
N159	N	0.946350	-0.950449	-0.186834
N160	N	1.446350	-0.450449	0.313166
C161	C	0.970873	-0.257251	-0.722871
C162	C	1.470873	0.242749	-0.222871
N163	N	0.931661	-0.217985	-0.752154
N164	N	1.431661	0.282015	-0.252154
H165	H	1.185078	-0.920800	-0.285746
H166	H	1.685078	-0.420800	0.214254
H167	H	0.507313	-0.478828	-0.342573
H168	H	1.007313	0.021172	0.157427
H169	H	0.949397	-0.919424	-0.346123
H170	H	1.449397	-0.419424	0.153877
C171	C	0.498850	-0.261518	-0.421799
C172	C	0.998850	0.238482	0.078201
N173	N	0.476895	-0.204634	-0.439822
N174	N	0.976895	0.295366	0.060178
H175	H	0.634044	-0.478845	-0.343401
H176	H	1.134044	0.021155	0.156599
H177	H	1.114310	-0.792746	-0.221016
H178	H	1.614310	-0.292746	0.278984
C179	C	0.970908	-0.257210	-0.930196
C180	C	1.470908	0.242790	-0.430196
N181	N	0.931673	-0.217971	-0.900919
N182	N	1.431673	0.282029	-0.400919
C183	C	1.169767	-0.456136	-1.078621
C184	C	1.669767	0.043864	-0.578621
N185	N	1.208993	-0.495382	-1.107900
N186	N	1.708993	0.004618	-0.607900
C187	C	0.642605	-0.457963	-0.236677
C188	C	1.142605	0.042037	0.263323
N189	N	0.664393	-0.475366	-0.183946
N190	N	1.164393	0.024634	0.316054
H191	H	1.052085	-0.919654	-0.437668
H192	H	1.552085	-0.419654	0.062332
C193	C	0.641110	-0.257737	-0.417324
C194	C	1.141110	0.242263	0.082676
N195	N	0.661793	-0.199317	-0.432275
N196	N	1.161793	0.300683	0.067725
H197	H	0.984373	-0.270822	-0.584535
H198	H	1.484373	0.229178	-0.084535
H199	H	0.635061	-0.374128	-0.438321
H200	H	1.135061	0.125872	0.061679
H201	H	1.051094	-0.792923	-0.437657
H202	H	1.551094	-0.292923	0.062343
C203	C	0.500638	-0.393614	-0.450244
C204	C	1.000638	0.106386	0.049756
N205	N	0.480024	-0.436231	-0.489694
N206	N	0.980024	0.063769	0.010306
C207	C	1.109692	-0.927221	-0.202099
C208	C	1.609692	-0.427221	0.297901
N209	N	1.096393	-0.948235	-0.148105
N210	N	1.596393	-0.448235	0.351895
H211	H	1.156160	-0.442686	-0.712762
H212	H	1.656160	0.057314	-0.212762
H213	H	1.148028	-0.791782	-0.413290
H214	H	1.648028	-0.291782	0.086710
C215	C	0.970747	-0.786133	-0.235410
C216	C	1.470747	-0.286133	0.264590
N217	N	0.954513	-0.765503	-0.181988
N218	N	1.454513	-0.265503	0.318012
