data_functionalizedCrystal
_audit_creation_method	'MofGen! by Chris Wilmer'
_symmetry_space_group_name_H-M	'P1'
_symmetry_Int_Tables_number	1
_symmetry_cell_setting	triclinic
loop_
_symmetry_equiv_pos_as_xyz
  x,y,z
_cell_length_a	23.532407
_cell_length_b	15.944499
_cell_length_c	15.021413
_cell_angle_alpha	89.990095
_cell_angle_beta	89.999348
_cell_angle_gamma	83.163143
loop_
_atom_site_label
_atom_site_type_symbol
_atom_site_fract_x
_atom_site_fract_y
_atom_site_fract_z
O1	O	0.073302	1.113938	-0.074095
O2	O	0.573302	1.613938	0.425905
O3	O	0.082388	0.869306	-0.074086
O4	O	0.582388	1.369306	0.425914
O5	O	-0.005059	0.998999	-0.074074
O6	O	0.494941	1.498999	0.425926
O7	O	0.160749	0.984245	-0.074106
O8	O	0.660749	1.484245	0.425894
O9	O	-0.005046	0.998978	0.073990
O10	O	0.494954	1.498978	0.573990
O11	O	0.082401	0.869285	0.073978
O12	O	0.582401	1.369285	0.573978
O13	O	0.073315	1.113918	0.073970
O14	O	0.573315	1.613918	0.573970
Zn15	Zn	0.077860	0.991598	0.097482
Zn16	Zn	0.577860	1.491598	0.597482
Zn17	Zn	0.077843	0.991625	-0.097599
Zn18	Zn	0.577843	1.491625	0.402401
O19	O	0.160762	0.984225	0.073958
O20	O	0.660762	1.484225	0.573958
C21	C	0.082023	0.838004	-0.000052
C22	C	0.582023	1.338004	0.499948
C23	C	0.080907	0.744765	-0.000048
C24	C	0.580907	1.244765	0.499952
C25	C	-0.026270	0.998613	-0.000040
C26	C	0.473730	1.498613	0.499960
C27	C	-0.089491	0.997483	-0.000033
C28	C	0.410509	1.497483	0.499967
C29	C	0.131712	0.452801	-0.000071
C30	C	0.631712	0.952801	0.499929
C31	C	0.105296	0.514063	-0.073071
C32	C	0.605296	1.014063	0.426929
C33	C	0.076856	0.409163	-0.000068
C34	C	0.576856	0.909163	0.499932
C35	C	0.105294	0.514029	0.072908
C36	C	0.605294	1.014029	0.572908
C37	C	0.078849	0.574055	-0.000057
C38	C	0.578849	1.074055	0.499943
C39	C	0.050425	0.469197	-0.073128
C40	C	0.550425	0.969197	0.426872
C41	C	0.050430	0.469156	0.072917
C42	C	0.550430	0.969156	0.572917
C43	C	0.023974	0.530401	-0.000101
C44	C	0.523974	1.030401	0.499899
C45	C	0.075709	0.314172	-0.000075
C46	C	0.575709	0.814172	0.499925
C47	C	0.079992	0.669044	-0.000056
C48	C	0.579992	1.169044	0.499944
C49	C	-0.488333	1.067148	-0.000084
C50	C	0.011667	1.567148	0.499916
C51	C	-0.547737	1.066099	-0.000091
C52	C	-0.047737	1.566099	0.499909
O53	O	-0.584240	1.130679	-0.000126
O54	O	-0.084240	1.630679	0.499874
N55	N	-0.570653	0.988996	-0.000088
N56	N	-0.070653	1.488996	0.499912
C57	C	-0.534160	0.912938	-0.000086
C58	C	-0.034160	1.412938	0.499914
O59	O	-0.559106	0.847260	-0.000085
O60	O	-0.059106	1.347260	0.499915
C61	C	-0.474757	0.913989	-0.000086
C62	C	0.025243	1.413989	0.499914
C63	C	-0.451845	0.991096	-0.000080
C64	C	0.048155	1.491096	0.499920
C65	C	-0.465421	1.144249	-0.000080
C66	C	0.034579	1.644249	0.499920
C67	C	-0.406021	1.145298	-0.000071
C68	C	0.093979	1.645298	0.499929
C69	C	-0.369533	1.069246	-0.000067
C70	C	0.130467	1.569246	0.499933
C71	C	-0.392445	0.992145	-0.000072
C72	C	0.107555	1.492145	0.499928
C73	C	-0.438266	0.837931	-0.000091
C74	C	0.061734	1.337931	0.499909
C75	C	-0.378859	0.838988	-0.000092
C76	C	0.121141	1.338988	0.499908
C77	C	-0.355948	0.916096	-0.000086
C78	C	0.144052	1.416096	0.499914
C79	C	-0.296557	0.917142	-0.000060
C80	C	0.203443	1.417142	0.499940
N81	N	-0.273642	0.994244	-0.000063
N82	N	0.226358	1.494244	0.499937
C83	C	-0.310130	1.070296	-0.000067
C84	C	0.189870	1.570296	0.499933
C85	C	-0.658911	0.910739	-0.000089
C86	C	-0.158911	1.410739	0.499911
C87	C	-0.718313	0.909688	-0.000083
C88	C	-0.218313	1.409688	0.499917
C89	C	-0.731886	1.062848	-0.000089
C90	C	-0.231886	1.562848	0.499911
C91	C	-0.672483	1.063899	-0.000089
C92	C	-0.172483	1.563899	0.499911
C93	C	-0.635996	0.987841	-0.000092
C94	C	-0.135996	1.487841	0.499908
C95	C	-0.185385	1.072493	-0.000049
C96	C	0.314615	1.572493	0.499951
C97	C	-0.125979	1.073536	-0.000037
C98	C	0.374021	1.573536	0.499963
C99	C	-0.112411	0.920375	-0.000035
C100	C	0.387589	1.420375	0.499965
C101	C	-0.171812	0.919333	-0.000043
C102	C	0.328188	1.419333	0.499957
C103	C	-0.208298	0.995398	-0.000052
C104	C	0.291702	1.495398	0.499948
O105	O	-0.260020	0.852596	-0.000028
O106	O	0.239980	1.352596	0.499972
O107	O	-0.285176	1.135963	-0.000080
O108	O	0.214824	1.635963	0.499920
C109	C	0.181973	0.984611	-0.000078
C110	C	0.681973	1.484611	0.499922
C111	C	0.245194	0.985740	-0.000091
C112	C	0.745194	1.485740	0.499909
C113	C	0.073680	1.145219	-0.000066
C114	C	0.573680	1.645219	0.499934
C115	C	0.074796	1.238458	-0.000076
C116	C	0.574796	1.738458	0.499924
N117	N	0.077871	0.991586	0.230620
N118	N	0.577871	1.491586	0.730620
N119	N	0.077828	0.991645	-0.230736
N120	N	0.577828	1.491645	0.269264
C121	C	0.118287	0.931607	0.470298
C122	C	0.618287	1.431607	0.970298
C123	C	0.129334	1.007416	0.529627
C124	C	0.629334	1.507416	1.029627
C125	C	0.077856	0.991607	0.412227
C126	C	0.577856	1.491607	0.912227
C127	C	0.066822	0.915819	0.529639
C128	C	0.566822	1.415819	1.029639
C129	C	0.077844	0.991621	0.587651
C130	C	0.577844	1.491621	1.087651
C131	C	0.088929	1.067455	0.470249
C132	C	0.588929	1.567455	0.970249
C133	C	0.026395	0.975808	0.470257
C134	C	0.526395	1.475808	0.970257
C135	C	0.037420	1.051672	0.529559
C136	C	0.537420	1.551672	1.029559
C137	C	0.077865	0.991598	0.311170
C138	C	0.577865	1.491598	0.811170
C139	C	0.077835	0.991640	0.688706
C140	C	0.577835	1.491640	1.188706
H141	H	0.177237	0.419087	-0.000151
H142	H	0.677237	0.919087	0.499849
H143	H	-0.021592	0.563962	-0.000131
H144	H	0.478408	1.063962	0.499869
H145	H	-0.082692	0.858456	-0.000029
H146	H	0.417308	1.358456	0.499971
N147	N	-0.102577	1.152303	-0.000015
N148	N	0.397423	1.652303	0.499985
N149	N	-0.113761	1.203448	0.062398
N150	N	0.386239	1.703448	0.562398
H151	H	-0.097235	1.259076	0.062415
H152	H	0.402765	1.759076	0.562415
N153	N	0.100686	1.147890	0.437671
N154	N	0.600686	1.647890	0.937671
N155	N	0.064940	1.190870	0.389544
N156	N	0.564940	1.690870	0.889544
H157	H	0.073244	1.247677	0.366535
H158	H	0.573244	1.747677	0.866535
N159	N	0.161217	0.868019	0.437663
N160	N	0.661217	1.368019	0.937663
N161	N	0.212644	0.870993	0.456716
N162	N	0.712644	1.370993	0.956716
H163	H	0.242964	0.826086	0.433668
H164	H	0.742964	1.326086	0.933668
N165	N	0.134401	0.539028	-0.150502
N166	N	0.634401	1.039028	0.349498
N167	N	0.185584	0.510804	-0.163521
N168	N	0.685584	1.010804	0.336479
H169	H	0.206142	0.528431	-0.218204
H170	H	0.706142	1.028431	0.281796
H171	H	-0.495124	1.206184	-0.000086
H172	H	0.004876	1.706184	0.499914
H173	H	-0.653833	1.126686	-0.000085
H174	H	-0.153833	1.626686	0.499915
N175	N	-0.005489	1.115383	0.562012
N176	N	0.494511	1.615383	1.062012
N177	N	-0.056820	1.113143	0.541848
N178	N	0.443180	1.613143	1.041848
H179	H	-0.087123	1.158139	0.564771
H180	H	0.412877	1.658139	1.064771
N181	N	0.021332	0.444385	-0.150628
N182	N	0.521332	0.944385	0.349372
N183	N	0.015782	0.368288	-0.163154
N184	N	0.515782	0.868288	0.336846
H185	H	-0.004764	0.350761	-0.217887
H186	H	0.495236	0.850761	0.282113
H187	H	-0.387372	1.208087	-0.000070
H188	H	0.112628	1.708087	0.499930
H189	H	-0.736962	0.846899	-0.000072
H190	H	-0.236962	1.346899	0.499928
H191	H	-0.017106	0.962408	0.444158
H192	H	0.482894	1.462408	0.944158
N193	N	0.134403	0.538959	0.150340
N194	N	0.634403	1.038959	0.650340
N195	N	0.108668	0.588974	0.205013
N196	N	0.608668	1.088974	0.705013
H197	H	0.129229	0.606579	0.259697
H198	H	0.629229	1.106579	0.759697
H199	H	0.172848	1.020792	0.555705
H200	H	0.672848	1.520792	1.055705
H201	H	0.057495	0.851720	0.555729
H202	H	0.557495	1.351720	1.055729
N203	N	-0.461669	0.759174	-0.000113
N204	N	0.038331	1.259174	0.499887
N205	N	-0.514706	0.758229	-0.000122
N206	N	-0.014706	1.258229	0.499878
H207	H	-0.531234	0.702603	-0.000140
H208	H	-0.031234	1.202603	0.499860
N209	N	-0.769156	1.140544	-0.000111
N210	N	-0.269156	1.640544	0.499889
N211	N	-0.748697	1.209386	-0.000118
N212	N	-0.248697	1.709386	0.499882
H213	H	-0.775019	1.264256	-0.000135
H214	H	-0.275019	1.764256	0.499865
H215	H	-0.629205	0.848799	-0.000084
H216	H	-0.129205	1.348799	0.499916
N217	N	0.021364	0.444144	0.150358
N218	N	0.521364	0.944144	0.650358
N219	N	0.046884	0.393112	0.204287
N220	N	0.546884	0.893112	0.704287
H221	H	0.026361	0.375444	0.258988
H222	H	0.526361	0.875444	0.758988
N223	N	-0.222641	1.150199	-0.000043
N224	N	0.277359	1.650199	0.499957
N225	N	-0.220543	1.201574	0.062375
N226	N	0.279457	1.701574	0.562375
H227	H	-0.246855	1.256455	0.062386
H228	H	0.253145	1.756455	0.562386
N229	N	-0.341597	0.761287	-0.000106
N230	N	0.158403	1.261287	0.499894
N231	N	-0.362067	0.692454	-0.000116
N232	N	0.137933	1.192454	0.499884
H233	H	-0.335752	0.637576	-0.000127
H234	H	0.164248	1.137576	0.499873
N235	N	-0.195210	0.840564	-0.000021
N236	N	0.304790	1.340564	0.499979
N237	N	-0.162622	0.772667	-0.000004
N238	N	0.337378	1.272667	0.499996
H239	H	-0.179142	0.717034	0.000009
H240	H	0.320858	1.217034	0.500009
