data_functionalizedCrystal
_audit_creation_method	'MofGen! by Chris Wilmer'
_symmetry_space_group_name_H-M	'P1'
_symmetry_Int_Tables_number	1
_symmetry_cell_setting	triclinic
loop_
_symmetry_equiv_pos_as_xyz
  x,y,z
_cell_length_a	19.188905
_cell_length_b	10.540539
_cell_length_c	18.266242
_cell_angle_alpha	90.002342
_cell_angle_beta	89.987252
_cell_angle_gamma	96.169976
loop_
_atom_site_label
_atom_site_type_symbol
_atom_site_fract_x
_atom_site_fract_y
_atom_site_fract_z
O1	O	0.927212	-0.158317	-0.060998
O2	O	0.724041	-0.179683	-0.060973
O3	O	0.830262	0.015809	-0.060985
O4	O	0.820992	-0.353810	-0.060986
O5	O	0.830250	0.015814	0.060777
O6	O	0.724030	-0.179679	0.060789
O7	O	0.927201	-0.158313	0.060764
Zn8	Zn	0.825613	-0.168995	0.080109
Zn9	Zn	0.825629	-0.169001	-0.080318
O10	O	0.820980	-0.353805	0.060776
C11	C	0.698019	-0.178994	-0.000089
C12	C	0.620500	-0.176933	-0.000079
C13	C	0.584108	-0.175946	-0.066453
C14	C	0.511272	-0.173995	-0.066463
C15	C	0.474831	-0.173006	-0.000094
C16	C	0.511232	-0.174001	0.066290
C17	C	0.584066	-0.175965	0.066297
N18	N	0.365304	-0.097688	0.049299
N19	N	0.296115	-0.095820	0.049287
C20	C	0.255385	-0.167093	-0.000111
N21	N	0.286460	-0.240289	-0.049509
N22	N	0.355656	-0.242151	-0.049500
C23	C	0.395855	-0.170878	-0.000094
C24	C	0.140015	-0.163992	-0.066500
C25	C	0.067177	-0.162049	-0.066506
C26	C	0.067139	-0.162043	0.066248
C27	C	0.139976	-0.163998	0.066252
C28	C	0.176410	-0.164967	-0.000124
C29	C	0.829561	0.063099	-0.000106
C30	C	0.827481	0.204001	-0.000109
C31	C	0.953223	-0.159002	-0.000122
C32	C	1.030742	-0.161063	-0.000137
C33	C	0.821681	-0.401095	-0.000105
C34	C	0.823761	-0.541997	-0.000106
N35	N	0.825608	-0.168990	0.189596
C36	C	0.747779	0.385658	-0.000373
C37	C	0.749887	0.239087	-0.000099
C38	C	0.864816	0.266490	0.069418
C39	C	0.862168	0.412976	0.069477
C40	C	0.863759	0.413524	-0.068989
C41	C	0.864474	0.266558	-0.069909
N42	N	0.825640	-0.168996	-0.189805
C43	C	0.872675	-0.082455	0.771867
C44	C	0.872676	-0.082458	0.695222
C45	C	0.825629	-0.168990	0.656908
C46	C	0.778590	-0.255546	0.695245
C47	C	0.778595	-0.255549	0.771889
N48	N	0.763926	-0.185449	0.536589
N49	N	0.763923	-0.185438	0.463781
C50	C	0.825612	-0.168987	0.425986
N51	N	0.887306	-0.152522	0.463749
N52	N	0.887308	-0.152526	0.536564
C53	C	0.825619	-0.168996	0.573801
C54	C	0.872653	-0.082445	0.304551
C55	C	0.872655	-0.082457	0.227905
C56	C	0.778562	-0.255539	0.227929
C57	C	0.778566	-0.255533	0.304574
C58	C	0.825611	-0.168979	0.342880
H59	H	0.169681	-0.164794	-0.120547
H60	H	0.919805	0.461994	-0.069464
H61	H	0.740292	-0.326023	0.803096
H62	H	0.613768	-0.176735	-0.120502
H63	H	0.717248	0.415190	0.049215
H64	H	0.834566	0.440564	0.121457
H65	H	0.910961	-0.011971	0.335741
H66	H	0.838651	0.444517	-0.121687
H67	H	0.169607	-0.164794	0.120302
H68	H	0.720510	0.195830	-0.049938
H69	H	0.740263	-0.325997	0.335782
H70	H	0.037470	-0.161245	0.120287
H71	H	0.481635	-0.173193	-0.120514
H72	H	0.481557	-0.173199	0.120328
H73	H	0.720294	0.196676	0.049831
H74	H	0.910983	-0.011982	0.803054
H75	H	0.837156	0.225091	-0.121343
H76	H	0.921046	0.243592	-0.074115
H77	H	0.613696	-0.176770	0.120349
H78	H	0.037547	-0.161253	-0.120559
H79	H	0.917972	0.462183	0.072625
H80	H	0.921798	0.245401	0.071996
H81	H	0.910961	-0.011989	0.196698
H82	H	0.740285	-0.326003	0.664046
H83	H	0.717132	0.413576	-0.050231
H84	H	0.838872	0.223317	0.121165
H85	H	0.910980	-0.011984	0.664010
H86	H	0.740258	-0.325999	0.196734
