data_functionalizedCrystal
_audit_creation_method	'MofGen! by Chris Wilmer'
_symmetry_space_group_name_H-M	'P1'
_symmetry_Int_Tables_number	1
_symmetry_cell_setting	triclinic
loop_
_symmetry_equiv_pos_as_xyz
  x,y,z
_cell_length_a	18.101397
_cell_length_b	13.897449
_cell_length_c	13.897441
_cell_angle_alpha	90.022859
_cell_angle_beta	89.965096
_cell_angle_gamma	89.979702
loop_
_atom_site_label
_atom_site_type_symbol
_atom_site_fract_x
_atom_site_fract_y
_atom_site_fract_z
Zn1	Zn	-0.294809	-1.474684	-0.545407
Zn2	Zn	0.205191	-0.974684	-0.045407
Zn3	Zn	-0.418665	-1.474570	-0.384096
Zn4	Zn	0.081335	-0.974570	0.115904
Zn5	Zn	-0.294841	-1.313373	-0.384119
Zn6	Zn	0.205159	-0.813373	0.115881
Zn7	Zn	-0.418613	-1.313347	-0.545343
Zn8	Zn	0.081387	-0.813347	-0.045343
O9	O	-0.356732	-1.393994	-0.464741
O10	O	0.143268	-0.893994	0.035259
O11	O	-0.311247	-1.609651	-0.524026
O12	O	0.188753	-1.109651	-0.024026
O13	O	-0.402275	-1.453150	-0.249118
O14	O	0.097725	-0.953150	0.250882
O15	O	-0.191204	-1.334830	-0.405551
O16	O	0.308796	-0.834830	0.094449
O17	O	-0.402243	-1.609567	-0.405512
O18	O	0.097757	-1.109567	0.094488
O19	O	-0.191181	-1.453344	-0.524048
O20	O	0.308819	-0.953344	-0.024048
O21	O	-0.311302	-1.334720	-0.249135
O22	O	0.188698	-0.834720	0.250865
O23	O	-0.311252	-1.178388	-0.405489
O24	O	0.188748	-0.678388	0.094511
O25	O	-0.402155	-1.334785	-0.680333
O26	O	0.097845	-0.834785	-0.180333
O27	O	-0.402186	-1.178369	-0.523939
O28	O	0.097814	-0.678369	-0.023939
O29	O	-0.311197	-1.453319	-0.680380
O30	O	0.188803	-0.953319	-0.180380
O31	O	-0.522291	-1.453125	-0.405449
O32	O	-0.022291	-0.953125	0.094551
O33	O	-0.522253	-1.334675	-0.523917
O34	O	-0.022253	-0.834675	-0.023917
C35	C	-0.356717	-1.143379	-0.464710
C36	C	0.143283	-0.643379	0.035290
C37	C	-0.356729	-1.036165	-0.464720
C38	C	0.143271	-0.536165	0.035280
C39	C	-0.549143	-1.393911	-0.464695
C40	C	-0.049143	-0.893911	0.035305
C41	C	-0.631457	-1.393964	-0.464707
C42	C	-0.131457	-0.893964	0.035293
C43	C	-0.930548	-1.394087	-0.464795
C44	C	-0.430548	-0.894087	0.035205
C45	C	-0.899216	-1.468405	-0.390059
C46	C	-0.399216	-0.968405	0.109941
C47	C	-0.813597	-1.468662	-0.390253
C48	C	-0.313597	-0.968662	0.109747
C49	C	-0.782165	-1.394026	-0.464750
C50	C	-0.282165	-0.894026	0.035250
C51	C	-0.813167	-1.421587	-0.566425
C52	C	-0.313167	-0.921587	-0.066425
C53	C	-0.898812	-1.422162	-0.566018
C54	C	-0.398812	-0.922162	-0.066018
C55	C	-0.899058	-1.292011	-0.438737
C56	C	-0.399058	-0.792011	0.061263
C57	C	-0.813409	-1.292515	-0.436467
C58	C	-0.313409	-0.792515	0.063533
C59	C	-0.698306	-1.393990	-0.464731
C60	C	-0.198306	-0.893990	0.035269
C61	C	-1.014407	-1.394126	-0.464821
C62	C	-0.514407	-0.894126	0.035179
C63	C	-0.356728	-0.839870	-0.464738
C64	C	0.143272	-0.339870	0.035262
C65	C	-0.356726	-0.949103	-0.464725
C66	C	0.143274	-0.449103	0.035275
C67	C	-0.163570	-1.394103	-0.464809
C68	C	0.336430	-0.894103	0.035191
C69	C	-0.081256	-1.394149	-0.464838
C70	C	0.418744	-0.894149	0.035162
C71	C	-0.356667	-1.394062	-0.716335
C72	C	0.143333	-0.894062	-0.216335
C73	C	-0.356639	-1.394091	-0.823549
C74	C	0.143361	-0.894091	-0.323549
C75	C	-0.356743	-0.645587	-0.464764
C76	C	0.143257	-0.145587	0.035236
C77	C	-0.356735	-0.752800	-0.464750
C78	C	0.143265	-0.252800	0.035250
C79	C	-0.356589	-1.394117	-1.019844
C80	C	0.143411	-0.894117	-0.519844
C81	C	-0.356619	-1.394100	-0.910611
C82	C	0.143381	-0.894100	-0.410611
C83	C	-0.356744	-1.393981	-0.214127
C84	C	0.143256	-0.893981	0.285873
C85	C	-0.356563	-1.394139	-0.106914
C86	C	0.143437	-0.894139	0.393086
H87	H	-0.919863	-1.451370	-0.314443
H88	H	-0.419863	-0.951370	0.185557
H89	H	-0.920723	-1.266939	-0.365881
H90	H	-0.420723	-0.766939	0.134119
H91	H	-0.792640	-1.451419	-0.314863
H92	H	-0.292640	-0.951419	0.185137
O93	O	-0.789264	-1.267546	-0.347243
O94	O	-0.289264	-0.767546	0.152757
C95	C	-0.748107	-1.181630	-0.353078
C96	C	-0.248107	-0.681630	0.146922
H97	H	-0.764860	-1.140313	-0.420472
H98	H	-0.264860	-0.640313	0.079528
H99	H	-0.686695	-1.199506	-0.356689
H100	H	-0.186695	-0.699506	0.143311
C101	C	-0.742896	-1.170190	-0.180759
C102	C	-0.242896	-0.670190	0.319241
C103	C	-0.763478	-1.119440	-0.263530
C104	C	-0.263478	-0.619440	0.236470
H105	H	-0.752375	-1.131830	-0.125520
H106	H	-0.252375	-0.631830	0.374480
H107	H	-0.770623	-1.228076	-0.176827
H108	H	-0.270623	-0.728076	0.323173
H109	H	-0.691721	-1.185084	-0.183782
H110	H	-0.191721	-0.685084	0.316218
H111	H	-0.814654	-1.104558	-0.260512
H112	H	-0.314654	-0.604558	0.239488
H113	H	-0.735761	-1.061551	-0.267459
H114	H	-0.235761	-0.561551	0.232541
O115	O	-0.788863	-1.359123	-0.634761
O116	O	-0.288863	-0.859123	-0.134761
C117	C	-0.748224	-1.409764	-0.705016
C118	C	-0.248224	-0.909764	-0.205016
H119	H	-0.765457	-1.488652	-0.704575
H120	H	-0.265457	-0.988652	-0.204575
H121	H	-0.686725	-1.404054	-0.688331
H122	H	-0.186725	-0.904054	-0.188331
C123	C	-0.742464	-1.269337	-0.805432
C124	C	-0.242464	-0.769337	-0.305432
C125	C	-0.763634	-1.366227	-0.804896
C126	C	-0.263634	-0.866227	-0.304896
H127	H	-0.751966	-1.242480	-0.867043
H128	H	-0.251966	-0.742480	-0.367043
H129	H	-0.769841	-1.235218	-0.758099
H130	H	-0.269841	-0.735218	-0.258099
H131	H	-0.691216	-1.264591	-0.791524
H132	H	-0.191216	-0.764591	-0.291524
H133	H	-0.814883	-1.370971	-0.818792
H134	H	-0.314883	-0.870971	-0.318792
H135	H	-0.736266	-1.400347	-0.852234
H136	H	-0.236266	-0.900347	-0.352234
O137	O	-0.787558	-1.509576	-0.593372
O138	O	-0.287558	-1.009576	-0.093372
C139	C	-0.815940	-1.533249	-0.684820
C140	C	-0.315940	-1.033249	-0.184820
H141	H	-0.831927	-1.464547	-0.724480
H142	H	-0.331927	-0.964547	-0.224480
H143	H	-0.866761	-1.580882	-0.676043
H144	H	-0.366761	-1.080882	-0.176043
C145	C	-0.737063	-1.671952	-0.694285
C146	C	-0.237063	-1.171952	-0.194285
C147	C	-0.756692	-1.587569	-0.742998
C148	C	-0.256692	-1.087569	-0.242998
H149	H	-0.700518	-1.705463	-0.730171
H150	H	-0.200518	-1.205463	-0.230171
H151	H	-0.717943	-1.656005	-0.632673
H152	H	-0.217943	-1.156005	-0.132673
H153	H	-0.779419	-1.711634	-0.686974
H154	H	-0.279419	-1.211634	-0.186974
H155	H	-0.714339	-1.547883	-0.750298
H156	H	-0.214339	-1.047883	-0.250298
H157	H	-0.775804	-1.603510	-0.804613
H158	H	-0.275804	-1.103510	-0.304613
O159	O	-0.924870	-1.558062	-0.410537
O160	O	-0.424870	-1.058062	0.089463
C161	C	-0.971053	-1.553914	-0.492091
C162	C	-0.471053	-1.053914	0.007909
H163	H	-0.956743	-1.487497	-0.536451
H164	H	-0.456743	-0.987497	-0.036451
H165	H	-1.031200	-1.549665	-0.468081
H166	H	-0.531200	-1.049665	0.031919
C167	C	-0.977158	-1.726415	-0.499200
C168	C	-0.477158	-1.226415	0.000800
C169	C	-0.959578	-1.644845	-0.553689
C170	C	-0.459578	-1.144845	-0.053689
H171	H	-0.970083	-1.782507	-0.537195
H172	H	-0.470083	-1.282507	-0.037195
H173	H	-0.946046	-1.729211	-0.444254
H174	H	-0.446046	-1.229211	0.055746
H175	H	-1.027280	-1.722861	-0.479196
H176	H	-0.527280	-1.222861	0.020804
H177	H	-0.909455	-1.648395	-0.573682
H178	H	-0.409455	-1.148395	-0.073682
H179	H	-0.990682	-1.642053	-0.608640
H180	H	-0.490682	-1.142053	-0.108640
O181	O	-0.923632	-1.360520	-0.634771
O182	O	-0.423632	-0.860520	-0.134771
C183	C	-0.966681	-1.411496	-0.702197
C184	C	-0.466681	-0.911496	-0.202197
H185	H	-0.988896	-1.479949	-0.667506
H186	H	-0.488896	-0.979949	-0.167506
H187	H	-0.931124	-1.431164	-0.767027
H188	H	-0.431124	-0.931164	-0.267027
C189	C	-1.004443	-1.264065	-0.777745
C190	C	-0.504443	-0.764065	-0.277745
C191	C	-1.031733	-1.348137	-0.735134
C192	C	-0.531733	-0.848137	-0.235134
H193	H	-1.044569	-1.224983	-0.798066
H194	H	-0.544569	-0.724983	-0.298066
H195	H	-0.975438	-1.229722	-0.732321
H196	H	-0.475438	-0.729722	-0.232321
H197	H	-0.974812	-1.280468	-0.831764
H198	H	-0.474812	-0.780468	-0.331764
H199	H	-1.061356	-1.331734	-0.681109
H200	H	-0.561356	-0.831734	-0.181109
H201	H	-1.060745	-1.382477	-0.780550
H202	H	-0.560745	-0.882477	-0.280550
O203	O	-0.787851	-1.223020	-0.496757
O204	O	-0.287851	-0.723020	0.003243
C205	C	-0.740904	-1.264854	-0.566132
C206	C	-0.240904	-0.764854	-0.066132
H207	H	-0.754587	-1.344549	-0.573812
H208	H	-0.254587	-0.844549	-0.073812
H209	H	-0.680969	-1.256479	-0.542414
H210	H	-0.180969	-0.756479	-0.042414
C211	C	-0.735293	-1.116326	-0.654144
C212	C	-0.235293	-0.616326	-0.154144
C213	C	-0.752103	-1.214208	-0.663583
C214	C	-0.252103	-0.714208	-0.163583
H215	H	-0.742198	-1.085083	-0.714256
H216	H	-0.242198	-0.585083	-0.214256
H217	H	-0.766920	-1.088140	-0.607403
H218	H	-0.266920	-0.588140	-0.107403
H219	H	-0.685348	-1.109360	-0.634376
H220	H	-0.185348	-0.609360	-0.134376
H221	H	-0.802050	-1.221172	-0.683338
H222	H	-0.302050	-0.721172	-0.183338
H223	H	-0.720485	-1.242394	-0.710329
H224	H	-0.220485	-0.742394	-0.210329
H225	H	-0.919320	-1.236638	-0.493170
H226	H	-0.419320	-0.736638	0.006830
O227	O	-0.789172	-1.558931	-0.410714
O228	O	-0.289172	-1.058931	0.089286
C229	C	-0.815413	-1.623543	-0.340375
C230	C	-0.315413	-1.123543	0.159625
H231	H	-0.866910	-1.592352	-0.304851
H232	H	-0.366910	-1.092352	0.195149
H233	H	-0.770883	-1.635352	-0.283615
H234	H	-0.270883	-1.135352	0.216385
C235	C	-0.771416	-1.758611	-0.431835
C236	C	-0.271416	-1.258611	0.068165
C237	C	-0.834670	-1.720306	-0.388209
C238	C	-0.334670	-1.220306	0.111791
H239	H	-0.783291	-1.818301	-0.461339
H240	H	-0.283291	-1.318301	0.038661
H241	H	-0.753734	-1.715081	-0.479222
H242	H	-0.253734	-1.215081	0.020778
H243	H	-0.734313	-1.768444	-0.384527
H244	H	-0.234313	-1.268444	0.115473
H245	H	-0.871767	-1.710462	-0.435519
H246	H	-0.371767	-1.210462	0.064481
H247	H	-0.852358	-1.763836	-0.340831
H248	H	-0.352358	-1.263836	0.159169
H249	H	-0.918729	-1.496775	-0.588091
H250	H	-0.418729	-0.996775	-0.088091
