data_functionalizedCrystal
_audit_creation_method	'MofGen! by Chris Wilmer'
_symmetry_space_group_name_H-M	'P1'
_symmetry_Int_Tables_number	1
_symmetry_cell_setting	triclinic
loop_
_symmetry_equiv_pos_as_xyz
  x,y,z
_cell_length_a	17.699083
_cell_length_b	14.853567
_cell_length_c	16.776229
_cell_angle_alpha	89.997147
_cell_angle_beta	89.998886
_cell_angle_gamma	83.458972
loop_
_atom_site_label
_atom_site_type_symbol
_atom_site_fract_x
_atom_site_fract_y
_atom_site_fract_z
O1	O	1.004374	0.114008	-0.066170
O2	O	0.784034	0.128841	-0.066195
O3	O	0.900090	-0.009827	-0.066184
O4	O	0.888319	0.252676	-0.066181
O5	O	0.900075	-0.009835	0.066392
O6	O	0.784019	0.128832	0.066381
O7	O	1.004359	0.114000	0.066407
Zn8	Zn	0.894187	0.121415	0.087443
Zn9	Zn	0.894207	0.121426	-0.087232
O10	O	0.888303	0.252667	0.066396
C11	C	0.755828	0.128305	0.000090
C12	C	0.671806	0.126711	0.000080
C13	C	0.623396	0.208106	0.000081
C14	C	0.544449	0.206602	0.000092
C15	C	0.513913	0.123703	0.000095
C16	C	0.562329	0.042301	0.000096
C17	C	0.641275	0.043806	0.000091
C18	C	0.243950	0.036232	0.000116
C19	C	0.164999	0.034734	0.000118
C20	C	0.147125	0.199028	0.000116
C21	C	0.226070	0.200533	0.000111
C22	C	0.274479	0.119132	0.000116
C23	C	0.360083	0.120763	0.000107
C24	C	0.428311	0.122070	0.000099
C25	C	0.899549	-0.043418	0.000102
C26	C	0.897951	-0.143496	0.000095
C27	C	0.822255	-0.555751	0.000101
C28	C	0.960131	-0.577539	0.000117
C29	C	0.961634	-0.483511	0.000112
C30	C	0.893446	-0.425598	0.000103
C31	C	0.823756	-0.461714	0.000099
C32	C	1.031324	-0.447389	0.000125
C33	C	1.032829	-0.353355	0.000121
C34	C	0.964641	-0.295441	0.000107
C35	C	0.894947	-0.331561	0.000101
C36	C	0.826759	-0.273648	0.000092
C37	C	0.757065	-0.309767	0.000081
C38	C	0.755567	-0.403799	0.000084
C39	C	0.966139	-0.201409	0.000104
C40	C	0.828260	-0.179611	0.000090
C41	C	1.032565	0.114535	0.000120
C42	C	1.116587	0.116130	0.000125
C43	C	0.888844	0.286258	0.000108
C44	C	0.890443	0.386336	0.000110
N45	N	0.894178	0.121406	0.206655
N46	N	0.894221	0.121427	-0.206443
C47	C	0.945583	0.060029	0.248377
C48	C	0.945587	0.060029	0.331829
C49	C	0.894190	0.121410	0.373558
C50	C	0.842779	0.182790	0.331830
C51	C	0.842772	0.182786	0.248379
C52	C	0.842806	0.182808	0.668377
C53	C	0.842819	0.182809	0.751834
C54	C	0.945622	0.060051	0.751827
C55	C	0.945615	0.060046	0.668376
C56	C	0.894202	0.121423	0.626656
C57	C	0.894197	0.121422	0.536167
C58	C	0.894198	0.121416	0.464044
H59	H	0.772732	-0.132463	0.000079
H60	H	0.987440	0.010050	0.214407
H61	H	0.800946	0.232784	0.634415
N62	N	0.683526	-0.247290	0.000087
H63	H	0.681084	-0.207780	-0.049055
H64	H	0.639185	-0.284489	0.000113
H65	H	0.250928	0.268038	0.000105
H66	H	0.800926	0.232765	0.365810
N67	N	0.787324	0.248980	0.203375
H68	H	0.754765	0.287866	0.242471
H69	H	0.816331	0.288793	0.168740
H70	H	0.140140	-0.032777	0.000121
N71	N	0.656329	0.297520	0.000068
H72	H	0.613679	0.348854	0.000071
H73	H	0.688698	0.301723	0.049213
N74	N	1.104859	-0.509859	0.000133
H75	H	1.135267	-0.498259	-0.049009
H76	H	1.135195	-0.498241	0.049316
N77	N	0.094922	0.286837	0.000122
H78	H	0.061763	0.289886	-0.049019
H79	H	0.061823	0.289828	0.049305
H80	H	0.505037	0.272882	0.000092
H81	H	0.283356	-0.030050	0.000121
N82	N	1.001044	-0.006168	0.623371
H83	H	0.993238	0.003142	0.564175
H84	H	1.054747	0.004161	0.637947
H85	H	0.537461	-0.025197	0.000110
N86	N	0.693492	-0.043984	0.000096
H87	H	0.662170	-0.096730	0.000098
H88	H	0.726638	-0.046939	-0.049052
N89	N	0.680402	-0.442754	0.000076
H90	H	0.689800	-0.511111	0.000083
H91	H	0.650556	-0.421558	0.049220
N92	N	0.787371	0.249010	0.796839
H93	H	0.753839	0.214600	0.831472
H94	H	0.816386	0.288875	0.831409
H95	H	0.765511	-0.585163	0.000089
H96	H	1.015647	-0.624697	0.000131
H97	H	1.089579	-0.323956	0.000129
N98	N	1.041298	-0.162449	0.000124
H99	H	1.084267	-0.213405	0.000135
H100	H	1.044935	-0.123911	-0.049025
H101	H	0.987445	0.010050	0.365798
H102	H	0.987483	0.010072	0.785804
