data_functionalizedCrystal
_audit_creation_method	'MofGen! by Chris Wilmer'
_symmetry_space_group_name_H-M	'P1'
_symmetry_Int_Tables_number	1
_symmetry_cell_setting	triclinic
loop_
_symmetry_equiv_pos_as_xyz
  x,y,z
_cell_length_a	12.594517
_cell_length_b	29.839131
_cell_length_c	12.594510
_cell_angle_alpha	89.959328
_cell_angle_beta	89.987061
_cell_angle_gamma	90.037307
loop_
_atom_site_label
_atom_site_type_symbol
_atom_site_fract_x
_atom_site_fract_y
_atom_site_fract_z
Zn1	Zn	1.627095	-0.178864	-0.601530
Zn2	Zn	1.626902	-0.254006	-0.423531
Zn3	Zn	1.449094	-0.178885	-0.423590
Zn4	Zn	1.449002	-0.253962	-0.601492
O5	O	1.538023	-0.216429	-0.512536
O6	O	1.776015	-0.188841	-0.577910
O7	O	1.603273	-0.244068	-0.274593
O8	O	1.472825	-0.116015	-0.447235
O9	O	1.775873	-0.244048	-0.447135
O10	O	1.603602	-0.116000	-0.577967
O11	O	1.472638	-0.188878	-0.274636
O12	O	1.300136	-0.188835	-0.447197
O13	O	1.472668	-0.243973	-0.750443
O14	O	1.300068	-0.243994	-0.577901
O15	O	1.603512	-0.188798	-0.750471
O16	O	1.603184	-0.316867	-0.447097
O17	O	1.472482	-0.316835	-0.577844
C18	C	1.261482	-0.216412	-0.512552
C19	C	1.143177	-0.216416	-0.512584
C20	C	1.073918	-0.246475	-0.583536
C21	C	1.003153	-0.205513	-0.609726
C22	C	1.003143	-0.257412	-0.486371
C23	C	1.073970	-0.175432	-0.538825
C24	C	1.073966	-0.227358	-0.415424
C25	C	1.003233	-0.186368	-0.441577
C26	C	1.537831	-0.333152	-0.512483
C27	C	1.537846	-0.383086	-0.512496
C28	C	1.606204	-0.692734	-0.444555
C29	C	1.606335	-0.880407	-0.444597
O30	O	1.664303	-0.904675	-0.386790
N31	N	1.538244	-0.903871	-0.512616
C32	C	1.470120	-0.880415	-0.580635
O33	O	1.412215	-0.904679	-0.638498
C34	C	1.469995	-0.692743	-0.580598
C35	C	1.538083	-0.669281	-0.512567
C36	C	1.674287	-0.669272	-0.376530
C37	C	1.674249	-0.622356	-0.376516
C38	C	1.606128	-0.598903	-0.444528
C39	C	1.538045	-0.622365	-0.512553
C40	C	1.401877	-0.669287	-0.648622
C41	C	1.401853	-0.622366	-0.648608
C42	C	1.469941	-0.598904	-0.580577
C43	C	1.469886	-0.551996	-0.580551
N44	N	1.537978	-0.528532	-0.512531
C45	C	1.606099	-0.551985	-0.444520
C46	C	1.470189	-0.978945	-0.580648
C47	C	1.470219	-1.025863	-0.580656
C48	C	1.606436	-1.025852	-0.444619
C49	C	1.606400	-0.978933	-0.444606
C50	C	1.538280	-0.955481	-0.512628
C51	C	1.606014	-0.453459	-0.444495
C52	C	1.605967	-0.406540	-0.444485
C53	C	1.469755	-0.406555	-0.580525
C54	C	1.469797	-0.453470	-0.580533
C55	C	1.537935	-0.476921	-0.512514
O56	O	1.411958	-0.527699	-0.638335
O57	O	1.664012	-0.527713	-0.386682
C58	C	1.606241	-0.739649	-0.444569
C59	C	1.538158	-0.763111	-0.512594
C60	C	1.470037	-0.739658	-0.580605
C61	C	1.538188	-0.810029	-0.512602
C62	C	1.606309	-0.833483	-0.444591
C63	C	1.674400	-0.810018	-0.376571
C64	C	1.674362	-0.763103	-0.376558
C65	C	1.401946	-0.763123	-0.648625
C66	C	1.401988	-0.810038	-0.648632
C67	C	1.470109	-0.833491	-0.580621
C68	C	1.815644	-0.216447	-0.512520
C69	C	1.933949	-0.216454	-0.512513
C70	C	1.538102	-0.216378	-0.790157
C71	C	1.538135	-0.216357	-0.908462
C72	C	1.538245	-0.099251	-0.512612
C73	C	1.538340	-0.049317	-0.512644
C74	C	1.609326	-0.186338	-1.048495
C75	C	1.635271	-0.227332	-0.977658
C76	C	1.512238	-0.175368	-0.977727
C77	C	1.564174	-0.257358	-1.048411
C78	C	1.441096	-0.205366	-1.048487
C79	C	1.467004	-0.246388	-0.977682
C80	C	1.538006	-0.216448	-0.235995
C81	C	1.538179	-0.216343	-0.117690
H82	H	0.972392	-0.160935	-0.381545
H83	H	1.729806	-0.744003	-0.321160
H84	H	0.972027	-0.292066	-0.464232
C85	C	1.386612	-0.280194	-0.936417
C86	C	1.310074	-0.258022	-0.875313
C87	C	1.235999	-0.289149	-0.837292
H88	H	1.421778	-0.301880	-0.893852
H89	H	1.353100	-0.294657	-0.994648
H90	H	1.343583	-0.243567	-0.817090
H91	H	1.274881	-0.236338	-0.917855
H92	H	1.202486	-0.303612	-0.895523
H93	H	1.271174	-0.310834	-0.794732
H94	H	1.184054	-0.274110	-0.795838
C95	C	1.115167	-0.280371	-0.663560
C96	C	1.077722	-0.323116	-0.636926
C97	C	1.115689	-0.354348	-0.710629
H98	H	1.190582	-0.280370	-0.662641
H99	H	1.090887	-0.272564	-0.732547
H100	H	1.102007	-0.330921	-0.567957
H101	H	1.002311	-0.323132	-0.637853
H102	H	1.091409	-0.346541	-0.779616
H103	H	1.191103	-0.354343	-0.709703
H104	H	1.090280	-0.383354	-0.692573
C105	C	0.961719	-0.193278	-0.719315
C106	C	0.997499	-0.224841	-0.793317
C107	C	0.959342	-0.213592	-0.894280
H108	H	0.986983	-0.164390	-0.738551
H109	H	0.886292	-0.193133	-0.718372
H110	H	1.072911	-0.224981	-0.794264
H111	H	0.972239	-0.253732	-0.774117
H112	H	0.883915	-0.213447	-0.893336
H113	H	0.984608	-0.184703	-0.913504
H114	H	0.983605	-0.235008	-0.944500
C115	C	1.680603	-1.051328	-0.370998
C116	C	1.748810	-1.078188	-0.431393
C117	C	1.817190	-1.101653	-0.363639
H118	H	1.640121	-1.069712	-0.324537
H119	H	1.721221	-1.030639	-0.330538
H120	H	1.708197	-1.098875	-0.471834
H121	H	1.789316	-1.059816	-0.477851
H122	H	1.857808	-1.080964	-0.323180
H123	H	1.776699	-1.120034	-0.317182
H124	H	1.863483	-1.119877	-0.404608
H125	H	1.346427	-0.688382	-0.704015
C126	C	1.115477	-0.129248	-0.568515
C127	C	1.226638	-0.129774	-0.568276
C128	C	1.264912	-0.087241	-0.595639
H129	H	1.090823	-0.107854	-0.518449
H130	H	1.090700	-0.121436	-0.637322
H131	H	1.251404	-0.137581	-0.499479
H132	H	1.251320	-0.151159	-0.618343
H133	H	1.240136	-0.079429	-0.664445
H134	H	1.240252	-0.065851	-0.545569
H135	H	1.340338	-0.087594	-0.595489
H136	H	1.669558	-0.160990	-1.079585
H137	H	1.346383	-0.603273	-0.704004
H138	H	1.490316	-0.140710	-0.946674
C139	C	1.331779	-0.192897	-1.090164
C140	C	1.339661	-0.154291	-1.152932
C141	C	1.238984	-0.142788	-1.191356
H142	H	1.285432	-0.187332	-1.032148
H143	H	1.304492	-0.216847	-1.131686
H144	H	1.366934	-0.130346	-1.111411
H145	H	1.385989	-0.159846	-1.210963
H146	H	1.211697	-0.166738	-1.232879
H147	H	1.192645	-0.137226	-1.133334
H148	H	1.244320	-0.116596	-1.233956
C149	C	1.115423	-0.239786	-0.305973
C150	C	1.078002	-0.282400	-0.278138
C151	C	1.116185	-0.293871	-0.177326
H152	H	1.091292	-0.218468	-0.255473
H153	H	1.190849	-0.239988	-0.306975
H154	H	1.002592	-0.282195	-0.277128
H155	H	1.102130	-0.303728	-0.328611
H156	H	1.191611	-0.294072	-0.178328
H157	H	1.092051	-0.272549	-0.126835
H158	H	1.090808	-0.322786	-0.158432
H159	H	1.661412	-0.387438	-0.389081
H160	H	1.661843	-0.959833	-0.389210
C161	C	1.680027	-0.478835	-0.370526
C162	C	1.739615	-0.448238	-0.310936
C163	C	1.807789	-0.471597	-0.242770
H164	H	1.726498	-0.497107	-0.411153
H165	H	1.639373	-0.497160	-0.324063
H166	H	1.780265	-0.429921	-0.357393
H167	H	1.693172	-0.429965	-0.270288
H168	H	1.767136	-0.489922	-0.196308
H169	H	1.854253	-0.489868	-0.283405
H170	H	1.848221	-0.450841	-0.202324
H171	H	1.729696	-0.603256	-0.321123
H172	H	1.717353	-0.236624	-0.946543
H173	H	1.729765	-0.688362	-0.321147
H174	H	1.414715	-0.959853	-0.636041
C175	C	1.396417	-1.051309	-0.654690
C176	C	1.419554	-1.039857	-0.760013
C177	C	1.351602	-1.063291	-0.828250
H178	H	1.324868	-1.043671	-0.639199
H179	H	1.406193	-1.082616	-0.645034
H180	H	1.409770	-1.008557	-0.769664
H181	H	1.491091	-1.047497	-0.775537
H182	H	1.361378	-1.094598	-0.818595
H183	H	1.280057	-1.055651	-0.812750
H184	H	1.367298	-1.055528	-0.899720
H185	H	1.414288	-0.387452	-0.635896
C186	C	1.395831	-0.478865	-0.654508
C187	C	1.336183	-0.448281	-0.714082
C188	C	1.268054	-0.471655	-0.782259
H189	H	1.349397	-0.497207	-0.613890
H190	H	1.436520	-0.497122	-0.700980
H191	H	1.295497	-0.430033	-0.667616
H192	H	1.382589	-0.429939	-0.754721
H193	H	1.308743	-0.489911	-0.828731
H194	H	1.221626	-0.489995	-0.741633
H195	H	1.227581	-0.450907	-0.822695
C196	C	1.748353	-0.835568	-0.302877
C197	C	1.733834	-0.881677	-0.317493
C198	C	1.801964	-0.905230	-0.249658
H199	H	1.732912	-0.827975	-0.231291
H200	H	1.819867	-0.827866	-0.318550
H201	H	1.662336	-0.889377	-0.301814
H202	H	1.749282	-0.889284	-0.389065
H203	H	1.873478	-0.897528	-0.265330
H204	H	1.786518	-0.897633	-0.178076
H205	H	1.792129	-0.936518	-0.259573
H206	H	1.346533	-0.829137	-0.704031
H207	H	1.346475	-0.744031	-0.704009
H208	H	1.586216	-0.292023	-1.079331
