data_functionalizedCrystal
_audit_creation_method	'MofGen! by Chris Wilmer'
_symmetry_space_group_name_H-M	'P1'
_symmetry_Int_Tables_number	1
_symmetry_cell_setting	triclinic
loop_
_symmetry_equiv_pos_as_xyz
  x,y,z
_cell_length_a	8.559649
_cell_length_b	12.837942
_cell_length_c	7.088929
_cell_angle_alpha	83.116986
_cell_angle_beta	95.325015
_cell_angle_gamma	82.303802
loop_
_atom_site_label
_atom_site_type_symbol
_atom_site_fract_x
_atom_site_fract_y
_atom_site_fract_z
O1	O	2.100237	-0.022929	-0.158957
O2	O	1.643086	0.029966	-0.158967
O3	O	1.861526	-0.146578	-0.158950
O4	O	1.881797	0.153615	-0.158973
O5	O	1.890711	-0.170219	0.159027
O6	O	1.672271	0.006325	0.159010
O7	O	2.129422	-0.046570	0.159021
Cu8	Cu	1.903512	-0.022281	0.188049
Cu9	Cu	1.868997	0.005677	-0.187996
O10	O	1.910982	0.129974	0.159004
C11	C	1.598759	0.022154	0.000020
C12	C	1.423195	0.034086	0.000017
C13	C	1.869270	-0.196474	0.000037
C14	C	1.848843	-0.309925	0.000034
C15	C	2.094400	-0.570430	-0.000001
C16	C	2.075215	-0.677028	-0.000004
C17	C	1.791288	-0.629721	0.000009
C18	C	1.810473	-0.523122	0.000013
C19	C	1.962034	-0.493482	0.000011
C20	C	1.981219	-0.386882	0.000028
C21	C	1.697292	-0.339576	0.000028
C22	C	1.678107	-0.446175	0.000024
C23	C	2.173749	-0.038758	0.000029
C24	C	2.349312	-0.050689	0.000020
C25	C	1.903238	0.179870	0.000012
C26	C	1.923664	0.293322	0.000003
N27	N	1.927799	-0.041947	0.452539
N28	N	1.844721	0.025334	-0.452486
H29	H	2.104628	-0.362752	0.000033
C30	C	1.553398	-0.256121	-0.000257
C31	C	1.448041	-0.255626	-0.163819
C32	C	1.315464	-0.178774	-0.164124
H33	H	1.586294	-0.188327	-0.000347
H34	H	1.502017	-0.272131	0.110575
H35	H	1.499413	-0.239609	-0.274623
H36	H	1.415102	-0.323401	-0.163764
H37	H	1.264083	-0.194784	-0.053291
H38	H	1.348376	-0.110986	-0.164209
H39	H	1.243957	-0.178435	-0.275089
C40	C	1.626886	-0.662133	0.000103
C41	C	1.638429	-0.771960	0.000136
C42	C	1.487017	-0.801859	0.000250
H43	H	1.561379	-0.626802	-0.110746
H44	H	1.581861	-0.643260	0.111040
H45	H	1.683431	-0.790823	-0.110789
H46	H	1.703907	-0.807318	0.110977
H47	H	1.441993	-0.782985	0.111187
H48	H	1.421523	-0.766521	-0.110601
H49	H	1.494831	-0.876380	0.000290
C50	C	2.258823	-0.538066	-0.000291
C51	C	2.263102	-0.466060	-0.163856
C52	C	2.414536	-0.436214	-0.164175
H53	H	2.335058	-0.599058	-0.000388
H54	H	2.282398	-0.505650	0.110540
H55	H	2.239545	-0.498477	-0.274658
H56	H	2.186900	-0.405052	-0.163794
H57	H	2.438111	-0.403798	-0.053344
H58	H	2.490759	-0.497212	-0.164266
H59	H	2.417455	-0.387348	-0.275142
C60	C	1.730119	0.118444	0.438754
C61	C	1.775704	0.213425	0.487258
C62	C	1.670182	0.299222	0.387075
H63	H	1.625966	0.113504	0.471401
H64	H	1.731791	0.117163	0.305229
H65	H	1.774015	0.214705	0.620753
H66	H	1.879840	0.218399	0.454605
H67	H	1.671855	0.297941	0.253550
H68	H	1.566036	0.294271	0.419731
H69	H	1.701105	0.363676	0.419958
H70	H	1.554709	-0.470323	0.000018
C71	C	2.042494	-0.135060	0.561170
C72	C	1.996948	-0.230038	0.512594
C73	C	2.102574	-0.315833	0.612608
H74	H	2.040932	-0.133864	0.694705
H75	H	2.146610	-0.130035	0.528396
H76	H	1.892859	-0.235061	0.545381
H77	H	1.998519	-0.231269	0.379076
H78	H	2.206690	-0.310808	0.579834
H79	H	2.101004	-0.314626	0.746139
H80	H	2.071694	-0.380284	0.579651
H81	H	1.420367	-0.132396	0.000017
H82	H	2.183001	-0.739677	-0.000020
H83	H	1.352129	0.115800	0.000000
