data_functionalizedCrystal
_audit_creation_method	'MofGen! by Chris Wilmer'
_symmetry_space_group_name_H-M	'P1'
_symmetry_Int_Tables_number	1
_symmetry_cell_setting	triclinic
loop_
_symmetry_equiv_pos_as_xyz
  x,y,z
_cell_length_a	10.654546
_cell_length_b	10.654559
_cell_length_c	9.130313
_cell_angle_alpha	90.001161
_cell_angle_beta	90.007478
_cell_angle_gamma	84.486123
loop_
_atom_site_label
_atom_site_type_symbol
_atom_site_fract_x
_atom_site_fract_y
_atom_site_fract_z
O1	O	-1.667842	-0.176372	-0.122045
O2	O	-1.302364	-0.193183	-0.121994
O3	O	-1.493500	-0.002039	-0.122012
O4	O	-1.476706	-0.367516	-0.122028
O5	O	-1.493498	-0.002044	0.121587
O6	O	-1.302362	-0.193188	0.121605
O7	O	-1.667840	-0.176377	0.121554
Cu8	Cu	-1.485101	-0.184783	0.143822
Cu9	Cu	-1.485103	-0.184777	-0.144262
O10	O	-1.476704	-0.367521	0.121571
C11	C	-1.255565	-0.191952	-0.000188
C12	C	-1.116121	-0.188262	-0.000169
C13	C	-1.492263	0.044756	-0.000213
C14	C	-1.488567	0.184199	-0.000214
C15	C	-1.036639	-0.300804	-0.000189
C16	C	-0.905618	-0.297329	-0.000205
C17	C	-0.933574	-0.068760	-0.000184
C18	C	-1.064592	-0.072236	-0.000159
C19	C	-1.088168	-0.416829	-0.000199
C20	C	-1.008684	-0.529380	-0.000222
C21	C	-0.877663	-0.525906	-0.000237
C22	C	-0.826126	-0.409879	-0.000230
C23	C	-1.486826	0.249710	0.132571
C24	C	-1.483364	0.380732	0.132567
C25	C	-1.483377	0.380721	-0.133018
C26	C	-1.486849	0.249702	-0.133013
C27	C	-1.488544	0.184207	0.265369
C28	C	-1.486802	0.249717	0.398165
C29	C	-1.483340	0.380740	0.398161
C30	C	-1.481619	0.446251	0.265362
C31	C	-0.714639	-0.177611	-0.000237
C32	C	-0.854081	-0.181310	-0.000210
C33	C	-1.477939	0.585684	-0.000227
C34	C	-1.481633	0.446241	-0.000222
N35	N	-1.485108	-0.184787	0.346444
N36	N	-1.485106	-0.184763	-0.346885
C37	C	-1.569765	-0.100177	0.423089
C38	C	-1.569761	-0.100162	0.576425
C39	C	-1.400440	-0.269377	0.576460
C40	C	-1.400438	-0.269385	0.423126
C41	C	-1.654434	-0.015579	0.346407
C42	C	-1.739099	0.069037	0.423051
C43	C	-1.739096	0.069052	0.576388
C44	C	-1.654428	-0.015549	0.653080
H45	H	-1.194850	-0.419671	-0.000193
H46	H	-1.491358	0.077521	0.265387
H47	H	-0.812951	-0.617550	-0.000240
F48	F	-1.829191	0.159114	0.657956
F49	F	-1.481545	0.450448	-0.274341
H50	H	-0.719438	-0.407059	-0.000219
F51	F	-1.310339	-0.359411	0.658085
H52	H	-1.654447	-0.015586	0.221552
H53	H	-1.808027	0.137923	0.360600
H54	H	-1.481933	0.434076	0.506290
F55	F	-1.488706	0.179977	-0.274337
H56	H	-1.488214	0.196370	0.506284
H57	H	-1.331502	-0.338281	0.360722
H58	H	-1.050656	-0.623845	-0.000215
H59	H	-1.654423	-0.015521	0.777938
H60	H	-1.478810	0.552940	0.265371
F61	F	-1.149188	0.047544	-0.000134
F62	F	-0.878718	0.054715	-0.000182
