data_functionalizedCrystal
_audit_creation_method	'MofGen! by Chris Wilmer'
_symmetry_space_group_name_H-M	'P1'
_symmetry_Int_Tables_number	1
_symmetry_cell_setting	triclinic
loop_
_symmetry_equiv_pos_as_xyz
  x,y,z
_cell_length_a	19.288840
_cell_length_b	17.699083
_cell_length_c	16.176319
_cell_angle_alpha	90.004339
_cell_angle_beta	90.013199
_cell_angle_gamma	83.204515
loop_
_atom_site_label
_atom_site_type_symbol
_atom_site_fract_x
_atom_site_fract_y
_atom_site_fract_z
O1	O	0.921473	0.094324	0.068886
O2	O	0.719225	0.107081	0.068858
O3	O	0.826063	-0.009495	0.068866
O4	O	0.814635	0.210900	0.068879
O5	O	0.826050	-0.009496	-0.068628
O6	O	0.719212	0.107080	-0.068635
O7	O	0.921460	0.094324	-0.068607
Cu8	Cu	0.820335	0.100702	-0.081175
Cu9	Cu	0.820350	0.100702	0.081426
O10	O	0.814622	0.210900	-0.068615
C11	C	0.693341	0.106673	0.000108
C12	C	0.616235	0.105451	0.000096
C13	C	0.580038	0.104863	0.075046
C14	C	0.507590	0.103706	0.075056
C15	C	0.471343	0.103121	0.000112
C16	C	0.507549	0.103713	-0.074847
C17	C	0.579995	0.104877	-0.074855
C18	C	0.361956	0.056944	-0.057296
C19	C	0.289512	0.055774	-0.057285
C20	C	0.247895	0.099531	0.000134
C21	C	0.278733	0.144449	0.057555
C22	C	0.351179	0.145614	0.057548
C23	C	0.392788	0.101858	0.000113
C24	C	0.133141	0.097691	0.075099
C25	C	0.060691	0.096538	0.075106
C26	C	0.060653	0.096537	-0.074799
C27	C	0.133101	0.097697	-0.074804
C28	C	0.169341	0.098270	0.000148
C29	C	0.825647	-0.037692	0.000119
C30	C	0.824418	-0.121708	0.000118
C31	C	0.887130	-0.170423	0.000126
C32	C	0.885972	-0.249365	0.000133
C33	C	0.822101	-0.279590	0.000127
C34	C	0.759384	-0.230868	0.000121
C35	C	0.760544	-0.151928	0.000120
C36	C	0.754708	-0.549224	0.000128
C37	C	0.753554	-0.628170	0.000126
C38	C	0.880136	-0.646661	0.000140
C39	C	0.881296	-0.567721	0.000139
C40	C	0.818580	-0.519006	0.000138
C41	C	0.819836	-0.433409	0.000132
C42	C	0.820843	-0.365185	0.000127
C43	C	0.947344	0.094731	0.000145
C44	C	1.024450	0.095954	0.000162
C45	C	0.815038	0.239096	0.000134
C46	C	0.816266	0.323113	0.000140
N47	N	0.820330	0.100701	-0.195541
C48	C	0.862375	0.146487	-0.238792
C49	C	0.862383	0.146484	-0.325339
C50	C	0.820340	0.100699	-0.368633
C51	C	0.778293	0.054908	-0.325376
C52	C	0.778290	0.054908	-0.238830
C53	C	0.778306	0.054909	-0.674404
C54	C	0.778311	0.054915	-0.760955
C55	C	0.862399	0.146486	-0.760913
C56	C	0.862396	0.146485	-0.674367
C57	C	0.820351	0.100692	-0.631117
C58	C	0.820345	0.100694	-0.537273
C59	C	0.820343	0.100700	-0.462476
N60	N	0.820361	0.100697	0.195791
H61	H	0.031220	0.096064	0.136142
N62	N	0.384435	0.194059	0.119477
H63	H	0.365084	0.249175	0.111821
H64	H	0.436639	0.188094	0.110728
H65	H	0.244850	0.180083	0.104309
N66	N	0.732961	0.005520	-0.627762
H67	H	0.706327	-0.023480	-0.668324
H68	H	0.698947	0.038614	-0.591859
N69	N	0.732948	0.005529	-0.372075
H70	H	0.682387	0.020603	-0.357027
H71	H	0.746802	-0.049563	-0.357000
H72	H	0.709477	-0.112264	0.000114
H73	H	0.395835	0.021309	-0.104058
H74	H	0.707380	-0.255483	0.000121
N75	N	0.172235	0.098313	0.155934
H76	H	0.138307	0.097771	0.203418
H77	H	0.196579	0.145703	0.159197
N78	N	0.950183	-0.535118	0.000151
H79	H	0.953481	-0.502782	-0.050818
H80	H	0.989697	-0.577999	0.000191
N81	N	0.021570	0.095901	-0.155634
H82	H	-0.029817	0.095072	-0.144257
H83	H	0.039946	0.049191	-0.188359
H84	H	0.264410	0.019196	-0.104038
N85	N	0.947783	-0.699203	0.000141
H86	H	0.937361	-0.753798	0.000143
H87	H	0.975634	-0.689438	0.051112
H88	H	0.703641	-0.509570	0.000127
N89	N	0.732941	0.005522	-0.192180
H90	H	0.698887	0.038567	-0.156276
H91	H	0.763299	-0.031603	-0.156319
N92	N	0.907744	0.195872	-0.371963
H93	H	0.877455	0.233013	-0.407883
H94	H	0.941803	0.162773	-0.407806
H95	H	0.478032	0.103238	-0.135867
N96	N	0.953612	-0.301906	0.000132
H97	H	0.943188	-0.356501	0.000135
H98	H	0.981461	-0.292140	0.051102
N99	N	0.907718	0.195873	-0.192099
H100	H	0.934356	0.224876	-0.232635
H101	H	0.941728	0.162774	-0.156183
H102	H	0.896635	0.183771	-0.796137
N103	N	0.619126	0.105479	0.155883
H104	H	0.585197	0.104930	0.203365
H105	H	0.643468	0.152870	0.159154
H106	H	0.162573	0.098170	-0.135836
H107	H	0.609466	0.105356	-0.135890
H108	H	0.939141	-0.145821	0.000126
N109	N	0.468536	0.103074	0.155897
H110	H	0.502487	0.103616	0.203376
H111	H	0.444198	0.055680	0.159155
N112	N	0.732970	0.005524	-0.807654
H113	H	0.706337	-0.023491	-0.767124
H114	H	0.763329	-0.031555	-0.843555
H115	H	0.896628	0.183770	-0.639122
H116	H	0.701540	-0.652776	0.000119
