data_functionalizedCrystal
_audit_creation_method	'MofGen! by Chris Wilmer'
_symmetry_space_group_name_H-M	'P1'
_symmetry_Int_Tables_number	1
_symmetry_cell_setting	triclinic
loop_
_symmetry_equiv_pos_as_xyz
  x,y,z
_cell_length_a	10.723023
_cell_length_b	14.044220
_cell_length_c	9.798715
_cell_angle_alpha	89.995876
_cell_angle_beta	89.996449
_cell_angle_gamma	88.828213
loop_
_atom_site_label
_atom_site_type_symbol
_atom_site_fract_x
_atom_site_fract_y
_atom_site_fract_z
O1	O	1.670498	0.133036	-0.113492
O2	O	1.308619	0.145772	-0.113495
O3	O	1.484127	0.001384	-0.113480
O4	O	1.494990	0.277424	-0.113507
O5	O	1.484112	0.001384	0.113502
O6	O	1.308605	0.145771	0.113487
O7	O	1.670483	0.133036	0.113491
Zn8	Zn	1.489542	0.139403	0.149527
Zn9	Zn	1.489561	0.139404	-0.149532
O10	O	1.494976	0.277423	0.113475
C11	C	1.262020	0.144845	-0.000005
C12	C	1.123188	0.142072	-0.000006
C13	C	1.061300	0.140837	-0.117590
C14	C	0.917811	0.137971	-0.117594
C15	C	1.479364	-0.033962	0.000012
C16	C	1.465180	-0.139280	0.000013
C17	C	1.439248	-0.332109	-0.000007
C18	C	1.539850	-0.389089	-0.000010
C19	C	1.525421	-0.496386	-0.000021
C20	C	1.453675	-0.224802	0.000004
C21	C	1.717083	0.133963	-0.000003
C22	C	1.855915	0.136735	-0.000011
C23	C	1.499739	0.312769	-0.000019
C24	C	1.513923	0.418087	-0.000030
N25	N	1.489538	0.139403	0.353627
N26	N	1.489574	0.139397	-0.353632
C27	C	1.563202	0.078511	0.421410
C28	C	1.563222	0.078508	0.578573
H29	H	0.909129	0.137793	0.100662
O30	O	0.854395	0.136538	-0.237733
C31	C	0.891214	0.055180	-0.313061
H32	H	0.930649	-0.001425	-0.240712
H33	H	0.807048	0.025940	-0.369069
H34	H	0.965717	0.075234	-0.390316
O35	O	1.638394	0.016180	0.647955
C36	C	1.607301	-0.077813	0.613179
H37	H	1.559249	-0.077994	0.509407
H38	H	1.695804	-0.124069	0.608423
H39	H	1.541710	-0.107382	0.693584
O40	O	1.124746	0.142277	-0.237723
C41	C	1.087937	0.223639	-0.313060
H42	H	1.048483	0.280237	-0.240718
H43	H	1.172113	0.252887	-0.369059
H44	H	1.013452	0.203588	-0.390323
O45	O	1.655466	-0.351048	-0.000175
C46	C	1.669826	-0.294427	-0.117738
H47	H	1.574109	-0.270535	-0.156942
H48	H	1.726673	-0.229248	-0.091281
H49	H	1.720308	-0.337711	-0.200053
H50	H	1.426508	0.191535	0.588087
H51	H	1.069943	0.141014	0.100659
O52	O	1.323667	-0.370196	0.000058
C53	C	1.334812	-0.470402	0.000017
H54	H	1.429723	-0.492883	0.042978
H55	H	1.257971	-0.501365	0.065923
H56	H	1.325753	-0.497986	-0.108878
O57	O	1.414246	0.201465	0.423340
C58	C	1.331421	0.150249	0.505987
H59	H	1.372650	0.076269	0.527246
H60	H	1.316307	0.189665	0.606526
H61	H	1.238333	0.143401	0.451021
O62	O	1.638280	0.016315	0.351668
C63	C	1.564643	-0.042476	0.269019
H64	H	1.471214	-0.005198	0.247800
H65	H	1.614958	-0.057099	0.168460
H66	H	1.548212	-0.112668	0.323961
