data_functionalizedCrystal
_audit_creation_method	'MofGen! by Chris Wilmer'
_symmetry_space_group_name_H-M	'P1'
_symmetry_Int_Tables_number	1
_symmetry_cell_setting	triclinic
loop_
_symmetry_equiv_pos_as_xyz
  x,y,z
_cell_length_a	14.519709
_cell_length_b	13.330367
_cell_length_c	14.519731
_cell_angle_alpha	89.994378
_cell_angle_beta	83.684499
_cell_angle_gamma	89.998062
loop_
_atom_site_label
_atom_site_type_symbol
_atom_site_fract_x
_atom_site_fract_y
_atom_site_fract_z
O1	O	1.223881	-0.083295	0.120889
O2	O	0.955405	-0.083326	0.135126
O3	O	1.096751	-0.083301	-0.006230
O4	O	1.082535	-0.083321	0.262245
O5	O	1.096730	0.083546	-0.006233
O6	O	0.955385	0.083521	0.135123
O7	O	1.223860	0.083552	0.120886
Cu8	Cu	1.089621	0.098771	0.128004
Cu9	Cu	1.089645	-0.098545	0.128008
O10	O	1.082514	0.083527	0.262242
C11	C	0.921035	0.000094	0.134461
C12	C	0.818654	0.000082	0.132473
N13	N	1.089610	0.237552	0.128001
C14	C	1.096075	0.000123	-0.040591
C15	C	1.094079	0.000123	-0.142971
C16	C	0.443757	0.000128	0.125153
C17	C	0.548065	0.000115	0.127186
C18	C	0.631202	0.000104	0.128813
C19	C	0.735517	0.000093	0.130846
C20	C	1.258230	0.000130	0.121551
C21	C	1.360612	0.000135	0.123539
N22	N	1.089662	-0.237327	0.128004
C23	C	1.027054	0.710164	0.190575
C24	C	1.152260	0.710155	0.065433
C25	C	1.152250	0.605136	0.065430
C26	C	1.089642	0.552627	0.128002
C27	C	1.027044	0.605136	0.190576
C28	C	1.214853	0.552619	0.002863
C29	C	1.214846	0.447595	0.002859
C30	C	1.152232	0.395083	0.065427
C31	C	1.089631	0.447599	0.128003
C32	C	1.027023	0.395090	0.190574
C33	C	0.964416	0.447603	0.253147
C34	C	0.964430	0.552625	0.253144
C35	C	1.152219	0.290062	0.065429
C36	C	1.027012	0.290062	0.190575
C37	C	1.092457	0.000121	-0.226115
C38	C	1.090430	0.000113	-0.330424
C39	C	1.088822	0.000106	-0.413563
C40	C	1.086795	0.000100	-0.517878
C41	C	1.083191	0.000101	0.296603
C42	C	1.085187	0.000094	0.398983
H43	H	0.913444	0.404838	0.304097
H44	H	1.203196	0.247310	0.014488
H45	H	1.203239	0.752911	0.014494
H46	H	0.913459	0.595388	0.304089
N47	N	1.282355	0.390955	-0.064634
H48	H	1.323241	0.347366	-0.029306
H49	H	1.321956	0.440217	-0.104258
N50	N	0.959476	0.233429	0.258057
H51	H	0.919820	0.282634	0.297691
H52	H	0.994840	0.189846	0.298912
N53	N	1.282384	0.609250	-0.064613
H54	H	1.272887	0.683749	-0.055120
H55	H	1.271627	0.590902	-0.130063
H56	H	0.976078	0.752923	0.241519
