data_functionalizedCrystal
_audit_creation_method	'MofGen! by Chris Wilmer'
_symmetry_space_group_name_H-M	'P1'
_symmetry_Int_Tables_number	1
_symmetry_cell_setting	triclinic
loop_
_symmetry_equiv_pos_as_xyz
  x,y,z
_cell_length_a	11.792241
_cell_length_b	10.489741
_cell_length_c	10.268362
_cell_angle_alpha	90.001054
_cell_angle_beta	90.000426
_cell_angle_gamma	84.366295
loop_
_atom_site_label
_atom_site_type_symbol
_atom_site_fract_x
_atom_site_fract_y
_atom_site_fract_z
O1	O	1.507381	0.174825	0.108173
O2	O	1.177089	0.192844	0.108203
O3	O	1.349751	-0.001789	0.108180
O4	O	1.334719	0.369458	0.108197
O5	O	1.349734	-0.001782	-0.108421
O6	O	1.177072	0.192850	-0.108397
O7	O	1.507365	0.174832	-0.108428
Cu8	Cu	1.342217	0.183842	-0.128190
Cu9	Cu	1.342236	0.183834	0.127965
O10	O	1.334703	0.369464	-0.108404
C11	C	1.134786	0.191715	-0.000093
C12	C	1.008764	0.188327	-0.000082
C13	C	1.348607	-0.049314	-0.000120
C14	C	1.345210	-0.190931	-0.000117
C15	C	0.778035	0.182098	-0.000120
C16	C	0.906429	0.185559	-0.000099
C17	C	1.235351	-0.258697	-0.000098
C18	C	1.287239	-0.350993	-0.106898
C19	C	1.287282	-0.350975	0.106654
C20	C	1.397144	-0.281362	-0.107005
C21	C	1.397171	-0.281334	0.106642
C22	C	1.449140	-0.373603	-0.000184
C23	C	1.549667	0.175960	-0.000128
C24	C	1.675690	0.179348	-0.000131
C25	C	1.335846	0.416989	-0.000102
C26	C	1.339243	0.558607	-0.000096
N27	N	1.342211	0.183846	-0.308356
C28	C	1.342220	0.183847	-0.426198
C29	C	1.342234	0.183836	-0.574036
N30	N	1.342251	0.183819	0.308131
H31	H	1.145025	-0.208738	-0.000197
H32	H	1.240791	-0.381783	0.196954
H33	H	1.443581	-0.250686	-0.197398
H34	H	1.240748	-0.381844	-0.197181
H35	H	1.539547	-0.423335	-0.000252
H36	H	1.443623	-0.250450	0.196930
