data_functionalizedCrystal
_audit_creation_method	'MofGen! by Chris Wilmer'
_symmetry_space_group_name_H-M	'P1'
_symmetry_Int_Tables_number	1
_symmetry_cell_setting	triclinic
loop_
_symmetry_equiv_pos_as_xyz
  x,y,z
_cell_length_a	6.817900
_cell_length_b	17.078472
_cell_length_c	12.200875
_cell_angle_alpha	95.444452
_cell_angle_beta	107.143593
_cell_angle_gamma	99.306020
loop_
_atom_site_label
_atom_site_type_symbol
_atom_site_fract_x
_atom_site_fract_y
_atom_site_fract_z
V1	V	-4.047438	-0.109947	-0.357546
O2	O	-4.056007	0.005098	-0.350858
O3	O	-3.978184	-0.217829	-0.354986
O4	O	-4.017467	-0.108338	-0.513536
O5	O	-4.016453	-0.105151	-0.191211
V6	V	-4.531380	-0.096177	-0.337664
O7	O	-4.307777	-0.140154	-0.401156
O8	O	-4.721239	-0.065971	-0.294054
O9	O	-4.377428	0.011704	-0.340224
O10	O	-4.640208	-0.211222	-0.344352
O11	O	-4.679762	-0.100973	-0.503999
O12	O	-4.338145	-0.097787	-0.181674
C13	C	-3.817515	-0.244126	-0.349316
C14	C	-3.842302	-0.332321	-0.348264
C15	C	-4.035951	-0.377798	-0.353486
C16	C	-4.059232	-0.460668	-0.352504
C17	C	-3.888857	-0.498056	-0.346290
C18	C	-3.695194	-0.452573	-0.341071
C19	C	-3.671920	-0.369706	-0.342061
C20	C	-3.938952	-0.745459	-0.342722
C21	C	-3.962241	-0.828331	-0.341728
C22	C	-4.326278	-0.836420	-0.353164
C23	C	-4.302983	-0.753551	-0.354147
C24	C	-4.109326	-0.708075	-0.348933
N25	N	-3.912648	-0.582761	-0.345282
N26	N	-4.085542	-0.623373	-0.349949
C27	C	-3.867624	-0.104457	-0.551560
C28	C	-3.924264	-0.103855	-0.679082
C29	C	-4.027925	-0.102753	-0.912558
C30	C	-3.970233	-0.103366	-0.782635
C31	C	-4.201437	0.037997	-0.345890
C32	C	-4.155890	0.126191	-0.346951
C33	C	-4.151329	-0.101670	-0.143644
C34	C	-4.073927	-0.102268	-0.016121
H35	H	-3.781265	-0.708441	-0.338469
C36	C	-3.774809	-0.869457	-0.334901
N37	N	-3.633643	-0.900434	-0.329760
H38	H	-3.514234	-0.332679	-0.337813
C39	C	-3.507777	-0.493702	-0.334227
N40	N	-3.366605	-0.524680	-0.329065
H41	H	-4.174688	-0.347362	-0.358535
H42	H	-4.216919	-0.497693	-0.356759
H43	H	-4.441729	-0.723116	-0.359215
H44	H	-4.483947	-0.873455	-0.357408
