data_functionalizedCrystal
_audit_creation_method	'MofGen! by Chris Wilmer'
_symmetry_space_group_name_H-M	'P1'
_symmetry_Int_Tables_number	1
_symmetry_cell_setting	triclinic
loop_
_symmetry_equiv_pos_as_xyz
  x,y,z
_cell_length_a	16.109301
_cell_length_b	12.837942
_cell_length_c	15.186229
_cell_angle_alpha	89.996774
_cell_angle_beta	89.999362
_cell_angle_gamma	89.145211
loop_
_atom_site_label
_atom_site_type_symbol
_atom_site_fract_x
_atom_site_fract_y
_atom_site_fract_z
O1	O	1.113716	0.133240	-0.073172
O2	O	1.613716	0.633240	0.426828
O3	O	0.872971	0.149822	-0.073186
O4	O	1.372971	0.649822	0.426814
O5	O	0.988005	-0.009370	-0.073174
O6	O	1.488005	0.490630	0.426826
O7	O	0.998681	0.292432	-0.073184
O8	O	1.498681	0.792432	0.426816
O9	O	0.987996	-0.009372	0.073283
O10	O	1.487996	0.490628	0.573283
O11	O	0.872962	0.149820	0.073271
O12	O	1.372962	0.649820	0.573271
O13	O	1.113707	0.133238	0.073285
O14	O	1.613707	0.633238	0.573285
Zn15	Zn	0.993333	0.141528	0.096532
Zn16	Zn	1.493333	0.641528	0.596532
Zn17	Zn	0.993345	0.141531	-0.096432
Zn18	Zn	1.493345	0.641531	0.403568
O19	O	0.998673	0.292430	0.073273
O20	O	1.498673	0.792430	0.573273
C21	C	0.841938	0.149149	0.000041
C22	C	1.341938	0.649149	0.500041
C23	C	0.749483	0.147135	0.000036
C24	C	1.249483	0.647135	0.500036
C25	C	0.534343	0.236914	0.000043
C26	C	1.034343	0.736914	0.500043
C27	C	0.447471	0.235014	0.000049
C28	C	0.947471	0.735014	0.500049
C29	C	0.452341	0.046138	0.000051
C30	C	0.952341	0.546138	0.500051
C31	C	0.539211	0.048040	0.000052
C32	C	1.039211	0.548040	0.500052
C33	C	0.580209	0.143431	0.000043
C34	C	1.080209	0.643431	0.500043
C35	C	0.406468	0.139629	0.000048
C36	C	0.906468	0.639629	0.500048
C37	C	0.312278	0.137568	0.000055
C38	C	0.812278	0.637568	0.500055
C39	C	0.674405	0.145492	0.000039
C40	C	1.174405	0.645492	0.500039
C41	C	0.984394	-0.047991	0.000054
C42	C	1.484394	0.452009	0.500054
C43	C	0.973637	-0.163064	0.000052
C44	C	1.473637	0.336936	0.500052
C45	C	1.102954	-0.404066	0.000041
C46	C	1.602954	0.095934	0.500041
C47	C	1.092851	-0.512188	0.000039
C48	C	1.592851	-0.012188	0.500039
C49	C	0.943328	-0.487433	0.000040
C50	C	1.443328	0.012567	0.500040
C51	C	0.953431	-0.379311	0.000042
C52	C	1.453431	0.120689	0.500042
C53	C	1.033247	-0.337632	0.000044
C54	C	1.533247	0.162368	0.500044
C55	C	1.043349	-0.229507	0.000052
C56	C	1.543349	0.270493	0.500052
C57	C	0.893827	-0.204754	0.000046
C58	C	1.393827	0.295246	0.500046
C59	C	0.883724	-0.312876	0.000044
C60	C	1.383724	0.187124	0.500044
C61	C	1.144739	0.133911	0.000056
C62	C	1.644739	0.633911	0.500056
C63	C	1.237195	0.135924	0.000056
C64	C	1.737195	0.635924	0.500056
C65	C	1.002284	0.331050	0.000043
C66	C	1.502284	0.831050	0.500043
C67	C	1.013041	0.446124	0.000040
C68	C	1.513041	0.946124	0.500040
N69	N	0.993331	0.141526	0.228224
N70	N	1.493331	0.641526	0.728224
N71	N	0.993352	0.141526	-0.228125
N72	N	1.493352	0.641526	0.271875
C73	C	1.044289	0.071059	0.453952
C74	C	1.544289	0.571059	0.953952
C75	C	1.044292	0.071057	0.546142
C76	C	1.544292	0.571057	1.046142
C77	C	0.942388	0.211996	0.546141
C78	C	1.442388	0.711996	1.046141
C79	C	0.942382	0.211992	0.453953
C80	C	1.442382	0.711992	0.953953
C81	C	0.993337	0.141525	0.407861
C82	C	1.493337	0.641525	0.907861
C83	C	0.993346	0.141526	0.592239
C84	C	1.493346	0.641526	1.092239
C85	C	0.993348	0.141524	0.692195
C86	C	1.493348	0.641524	1.192195
C87	C	0.993334	0.141526	0.307898
C88	C	1.493334	0.641526	0.807898
H89	H	1.108339	-0.195574	0.000057
H90	H	1.608339	0.304426	0.500057
H91	H	1.167943	-0.370130	0.000051
H92	H	1.667943	0.129870	0.500051
O93	O	0.887427	0.288001	0.404229
O94	O	1.387427	0.788001	0.904229
H95	H	0.852006	0.337013	0.451765
H96	H	1.352006	0.837013	0.951765
O97	O	1.099247	-0.004944	0.595859
O98	O	1.599247	0.495056	1.095859
H99	H	1.143105	0.038712	0.637861
H100	H	1.643105	0.538712	1.137861
O101	O	1.168033	-0.583848	0.000047
O102	O	1.668033	-0.083848	0.500047
H103	H	1.225228	-0.536696	0.000057
H104	H	1.725228	-0.036696	0.500057
O105	O	0.857247	-0.532395	0.000044
O106	O	1.357247	-0.032395	0.500044
H107	H	0.861937	-0.618740	0.000048
H108	H	1.361937	-0.118740	0.500048
O109	O	0.578567	0.339794	0.000052
O110	O	1.078567	0.839794	0.500052
H111	H	0.532075	0.404479	0.000064
H112	H	1.032075	0.904479	0.500064
O113	O	0.397998	0.335842	0.000046
O114	O	0.897998	0.835842	0.500046
H115	H	0.441104	0.402487	0.000034
H116	H	0.941104	0.902487	0.500034
H117	H	0.576557	-0.028091	0.000055
H118	H	1.076557	0.471909	0.500055
O119	O	0.797640	-0.357831	0.000054
O120	O	1.297640	0.142169	0.500054
H121	H	0.802324	-0.444177	0.000061
H122	H	1.302324	0.055823	0.500061
O123	O	1.099235	-0.004951	0.404235
O124	O	1.599235	0.495049	0.904235
H125	H	1.134658	-0.053959	0.451777
H126	H	1.634658	0.446041	0.951777
O127	O	0.408123	-0.056746	0.000054
O128	O	0.908123	0.443254	0.500054
H129	H	0.340011	-0.042365	0.000046
H130	H	0.840011	0.457635	0.500046
H131	H	0.837067	-0.150651	0.000055
H132	H	1.337067	0.349349	0.500055
O133	O	0.887441	0.288009	0.595852
O134	O	1.387441	0.788009	1.095852
H135	H	0.896012	0.276184	0.667700
H136	H	1.396012	0.776184	1.167700
