data_functionalizedCrystal
_audit_creation_method	'MofGen! by Chris Wilmer'
_symmetry_space_group_name_H-M	'P1'
_symmetry_Int_Tables_number	1
_symmetry_cell_setting	triclinic
loop_
_symmetry_equiv_pos_as_xyz
  x,y,z
_cell_length_a	17.038272
_cell_length_b	17.019282
_cell_length_c	15.500227
_cell_angle_alpha	91.034464
_cell_angle_beta	93.033254
_cell_angle_gamma	87.241387
loop_
_atom_site_label
_atom_site_type_symbol
_atom_site_fract_x
_atom_site_fract_y
_atom_site_fract_z
O1	O	0.099876	1.053050	0.006537
O2	O	0.599876	1.553050	0.506537
O3	O	0.111730	0.825047	-0.010458
O4	O	0.611730	1.325047	0.489542
O5	O	-0.008016	0.937693	-0.002055
O6	O	0.491984	1.437693	0.497945
O7	O	0.219622	0.940404	-0.001866
O8	O	0.719622	1.440404	0.498134
O9	O	-0.000778	0.930855	0.141324
O10	O	0.499222	1.430855	0.641324
O11	O	0.118968	0.818209	0.132921
O12	O	0.618968	1.318209	0.632921
O13	O	0.107114	1.046212	0.149916
O14	O	0.607114	1.546212	0.649916
Cu15	Cu	0.113702	0.931587	0.154510
Cu16	Cu	0.613702	1.431587	0.654510
Cu17	Cu	0.105142	0.939673	-0.015052
Cu18	Cu	0.605142	1.439673	0.484948
O19	O	0.226860	0.933566	0.141512
O20	O	0.726860	1.433566	0.641512
C21	C	0.114759	0.792311	0.059047
C22	C	0.614759	1.292311	0.559047
C23	C	0.112990	0.704954	0.052535
C24	C	0.612990	1.204954	0.552535
C25	C	0.116103	0.660191	0.127634
C26	C	0.616103	1.160191	0.627634
C27	C	0.114429	0.578110	0.121519
C28	C	0.614429	1.078110	0.621519
C29	C	0.109648	0.540794	0.040304
C30	C	0.609648	1.040794	0.540304
C31	C	0.106532	0.585563	-0.034801
C32	C	0.606532	1.085563	0.465199
C33	C	0.108201	0.667643	-0.028684
C34	C	0.608201	1.167643	0.471316
C35	C	0.104407	0.293154	0.017927
C36	C	0.604407	0.793154	0.517927
C37	C	0.102741	0.211069	0.011816
C38	C	0.602741	0.711069	0.511816
C39	C	0.110636	0.203622	0.168136
C40	C	0.610636	0.703622	0.668136
C41	C	0.112309	0.285702	0.174245
C42	C	0.612309	0.785702	0.674245
C43	C	0.109189	0.330465	0.099141
C44	C	0.609189	0.830465	0.599141
C45	C	0.107939	0.456895	0.034051
C46	C	0.607939	0.956895	0.534051
C47	C	0.110893	0.414363	0.105395
C48	C	0.610893	0.914363	0.605395
C49	C	-0.033532	0.931809	0.069451
C50	C	0.466468	1.431809	0.569451
C51	C	-0.120346	0.924455	0.068903
C52	C	0.379654	1.424455	0.568903
C53	C	-0.170268	0.991975	0.073936
C54	C	0.329732	1.491975	0.573936
C55	C	-0.251838	0.985061	0.073413
C56	C	0.248162	1.485061	0.573413
C57	C	-0.283485	0.910625	0.067861
C58	C	0.216515	1.410625	0.567861
C59	C	-0.233557	0.843100	0.062825
C60	C	0.266443	1.343100	0.562825
C61	C	-0.151989	0.850016	0.063342
C62	C	0.348011	1.350016	0.563342
C63	C	-0.529314	0.886195	0.066029
C64	C	-0.029314	1.386195	0.566029
C65	C	-0.610889	0.879284	0.065514
C66	C	-0.110889	1.379284	0.565514
C67	C	-0.629164	1.021246	0.076100
C68	C	-0.129164	1.521246	0.576100
C69	C	-0.547592	1.028155	0.076622
C70	C	-0.047592	1.528155	0.576622
C71	C	-0.497672	0.960630	0.071581
C72	C	0.002328	1.460630	0.571581
C73	C	-0.366863	0.903556	0.067329
C74	C	0.133137	1.403556	0.567329
C75	C	-0.414296	0.967700	0.072108
C76	C	0.085704	1.467700	0.572108
C77	C	0.252376	0.939450	0.070005
C78	C	0.752376	1.439450	0.570005
C79	C	0.339190	0.946805	0.070548
C80	C	0.839190	1.446805	0.570548
C81	C	0.104085	1.078949	0.080409
C82	C	0.604085	1.578949	0.580409
C83	C	0.105854	1.166306	0.086915
C84	C	0.605854	1.666306	0.586915
N85	N	0.119722	0.925905	0.273771
N86	N	0.619722	1.425905	0.773771
N87	N	0.099116	0.945360	-0.134313
N88	N	0.599116	1.445360	0.365687
C89	C	0.069000	0.973656	0.322610
C90	C	0.569000	1.473656	0.822610
C91	C	0.073560	0.969367	0.412863
C92	C	0.573560	1.469367	0.912863
C93	C	0.128846	0.917330	0.454275
C94	C	0.628846	1.417330	0.954275
C95	C	0.179570	0.869573	0.405430
C96	C	0.679570	1.369573	0.905430
C97	C	0.175006	0.873859	0.315178
C98	C	0.675006	1.373859	0.815178
C99	C	0.145276	0.901890	0.726590
C100	C	0.645276	1.401890	1.226590
C101	C	0.149838	0.897609	0.816849
C102	C	0.649838	1.397609	1.316849
C103	C	0.043826	0.997402	0.824275
C104	C	0.543826	1.497402	1.324275
C105	C	0.039270	1.001686	0.734022
C106	C	0.539270	1.501686	1.234022
C107	C	0.089991	0.953927	0.685184
C108	C	0.589991	1.453927	1.185184
C109	C	0.133510	0.912946	0.546528
C110	C	0.633510	1.412946	1.046528
C111	C	0.085323	0.958307	0.592932
C112	C	0.585323	1.458307	1.092932
H113	H	0.098850	0.180689	-0.054322
H114	H	0.598850	0.680689	0.445678
C115	C	-0.645698	0.797396	0.059401
C116	C	-0.145698	1.297396	0.559401
N117	N	-0.671917	0.735721	0.054796
N118	N	-0.171917	1.235721	0.554796
H119	H	0.023983	1.016033	0.288898
H120	H	0.523983	1.516033	0.788898
C121	C	0.114059	0.154377	0.250745
C122	C	0.614059	0.654377	0.750745
N123	N	0.116633	0.117286	0.312970
N124	N	0.616633	0.617286	0.812970
H125	H	-0.292482	1.040043	0.077513
H126	H	0.207518	1.540043	0.577513
H127	H	-0.392639	0.842950	0.062811
H128	H	0.107361	1.342950	0.562811
C129	C	0.230810	0.821336	0.261457
C130	C	0.730810	1.321336	0.761457
N131	N	0.272845	0.781774	0.220994
N132	N	0.772845	1.281774	0.720994
H133	H	-0.111343	0.795033	0.059243
H134	H	0.388657	1.295033	0.559243
H135	H	0.032258	1.008249	0.452627
H136	H	0.532258	1.508249	0.952627
H137	H	-0.388526	1.028306	0.076608
H138	H	0.111474	1.528306	0.576608
H139	H	0.040306	1.000673	0.559211
H140	H	0.540306	1.500673	1.059211
C141	C	-0.268372	0.761219	0.056726
C142	C	0.231628	1.261219	0.556726
N143	N	-0.294593	0.699545	0.052138
N144	N	0.205407	1.199545	0.552138
H145	H	-0.488677	0.831211	0.061924
H146	H	0.011323	1.331211	0.561924
C147	C	0.121362	0.701231	0.216978
C148	C	0.621362	1.201231	0.716978
N149	N	0.125320	0.732140	0.284274
N150	N	0.625320	1.232140	0.784274
C151	C	0.194319	0.855701	0.592091
C152	C	0.694319	1.355701	1.092091
N153	N	0.240116	0.812581	0.626412
N154	N	0.740116	1.312581	1.126412
C155	C	-0.021553	1.058927	0.688474
C156	C	0.478447	1.558927	1.188474
N157	N	-0.067366	1.102041	0.654168
N158	N	0.432634	1.602041	1.154168
H159	H	0.101864	0.329590	-0.043229
H160	H	0.601864	0.829590	0.456771
C161	C	0.101271	0.544513	-0.124138
C162	C	0.601271	1.044513	0.375862
N163	N	0.097310	0.513594	-0.191429
N164	N	0.597310	1.013594	0.308571
C165	C	0.210657	0.840360	0.862400
C166	C	0.710657	1.340360	1.362400
N167	N	0.256465	0.797242	0.896710
N168	N	0.756465	1.297242	1.396710
C169	C	-0.011970	1.049927	0.878003
C170	C	0.488030	1.549927	1.378003
N171	N	-0.054000	1.089488	0.918471
N172	N	0.446000	1.589488	1.418471
C173	C	-0.512787	1.110039	0.082730
C174	C	-0.012787	1.610039	0.582730
N175	N	-0.486572	1.171716	0.087334
N176	N	0.013428	1.671716	0.587334
C177	C	0.240379	0.812324	0.450987
C178	C	0.740379	1.312324	0.950987
N179	N	0.286180	0.769203	0.485299
N180	N	0.786180	1.269203	0.985299
H181	H	0.116950	0.541668	0.182672
H182	H	0.616950	1.041668	0.682672
H183	H	0.116199	0.316080	0.240379
H184	H	0.616199	0.816080	0.740379
H185	H	0.114782	0.444750	0.171520
H186	H	0.614782	0.944750	0.671520
C187	C	0.104778	0.716882	-0.111299
C188	C	0.604778	1.216882	0.388701
N189	N	0.102198	0.753968	-0.173528
N190	N	0.602198	1.253968	0.326472
H191	H	-0.669818	1.076221	0.080203
H192	H	-0.169818	1.576221	0.580203
C193	C	0.102684	0.415838	-0.055284
C194	C	0.602684	0.915838	0.444716
N195	N	0.098724	0.384912	-0.122571
N196	N	0.598724	0.884912	0.377429
H197	H	-0.144507	1.052589	0.078462
H198	H	0.355493	1.552589	0.578462
H199	H	0.186577	0.863004	0.686834
H200	H	0.686577	1.363004	1.186834
