data_functionalizedCrystal
_audit_creation_method	'MofGen! by Chris Wilmer'
_symmetry_space_group_name_H-M	'P1'
_symmetry_Int_Tables_number	1
_symmetry_cell_setting	triclinic
loop_
_symmetry_equiv_pos_as_xyz
  x,y,z
_cell_length_a	17.699097
_cell_length_b	27.732048
_cell_length_c	16.176319
_cell_angle_alpha	89.988239
_cell_angle_beta	89.988988
_cell_angle_gamma	82.965542
loop_
_atom_site_label
_atom_site_type_symbol
_atom_site_fract_x
_atom_site_fract_y
_atom_site_fract_z
O1	O	1.003533	0.061157	-0.068824
O2	O	0.783086	0.069104	-0.068812
O3	O	0.900156	-0.005241	-0.068803
O4	O	0.886463	0.135502	-0.068833
O5	O	0.900140	-0.005246	0.068691
O6	O	0.783070	0.069099	0.068681
O7	O	1.003517	0.061153	0.068669
Cu8	Cu	0.893292	0.065125	0.081229
Cu9	Cu	0.893311	0.065131	-0.081372
O10	O	0.886447	0.135498	0.068660
C11	C	0.754884	0.068815	-0.000064
C12	C	0.670874	0.067958	-0.000058
C13	C	0.899861	-0.023252	-0.000054
C14	C	0.898995	-0.076910	-0.000047
C15	C	0.155211	0.062705	-0.075038
C16	C	0.234148	0.063507	-0.075034
C17	C	0.273601	0.063907	-0.000083
C18	C	0.234115	0.063499	0.074869
C19	C	0.155180	0.062693	0.074864
C20	C	0.552451	0.066748	0.074890
C21	C	0.631391	0.067555	0.074889
C22	C	0.631418	0.067562	-0.075008
C23	C	0.552483	0.066756	-0.075013
C24	C	0.513004	0.066346	-0.000062
C25	C	0.427412	0.065475	-0.000067
C26	C	0.359192	0.064781	-0.000077
C27	C	0.962727	-0.415494	-0.000093
C28	C	0.959516	-0.617165	-0.000104
O29	O	1.017794	-0.648209	-0.000144
N30	N	0.890098	-0.636540	-0.000100
C31	C	0.821478	-0.605495	-0.000098
O32	O	0.762361	-0.626602	-0.000102
C33	C	0.824691	-0.403824	-0.000092
C34	C	0.894113	-0.384452	-0.000088
C35	C	1.032144	-0.396121	-0.000090
C36	C	1.032946	-0.345706	-0.000083
C37	C	0.964331	-0.314664	-0.000078
C38	C	0.894915	-0.334037	-0.000081
C39	C	0.756072	-0.372780	-0.000096
C40	C	0.756881	-0.322359	-0.000097
C41	C	0.826303	-0.302987	-0.000093
C42	C	0.827102	-0.252580	-0.000069
N43	N	0.896520	-0.233205	-0.000074
C44	C	0.965135	-0.264247	-0.000078
C45	C	0.819797	-0.711375	-0.000099
C46	C	0.818994	-0.761792	-0.000099
C47	C	0.957031	-0.773459	-0.000107
C48	C	0.957834	-0.723041	-0.000101
C49	C	0.889215	-0.691999	-0.000103
C50	C	0.966814	-0.158371	-0.000062
C51	C	0.967610	-0.107952	-0.000051
C52	C	0.829573	-0.096289	-0.000048
C53	C	0.828776	-0.146705	-0.000054
C54	C	0.897403	-0.177745	-0.000064
O55	O	0.768855	-0.221508	-0.000039
O56	O	1.024244	-0.243130	-0.000092
C57	C	0.961925	-0.465909	-0.000100
C58	C	0.892509	-0.485282	-0.000103
C59	C	0.823894	-0.454240	-0.000099
C60	C	0.891705	-0.535699	-0.000103
C61	C	0.960320	-0.566741	-0.000107
C62	C	1.029738	-0.547365	-0.000112
C63	C	1.030540	-0.496950	-0.000105
C64	C	0.754476	-0.473615	-0.000094
C65	C	0.753680	-0.524031	-0.000100
C66	C	0.822294	-0.555072	-0.000105
C67	C	1.031720	0.061441	-0.000081
C68	C	1.115730	0.062298	-0.000092
C69	C	0.886743	0.153508	-0.000091
C70	C	0.887608	0.207166	-0.000103
N71	N	0.893285	0.065121	0.195595
N72	N	0.893325	0.065131	-0.195737
C73	C	0.945139	0.032215	0.238863
C74	C	0.945142	0.032214	0.325410
C75	C	0.893295	0.065123	0.368687
C76	C	0.841436	0.098031	0.325413
C77	C	0.841429	0.098029	0.238867
C78	C	0.841462	0.098040	0.674441
C79	C	0.841474	0.098041	0.760993
C80	C	0.945175	0.032225	0.760984
C81	C	0.945168	0.032223	0.674438
C82	C	0.893307	0.065129	0.631171
C83	C	0.893302	0.065129	0.537327
C84	C	0.893303	0.065126	0.462530
H85	H	0.123092	0.062383	-0.136072
O86	O	0.116728	0.062363	0.147614
C87	C	0.062018	0.103748	0.152100
H88	H	0.047186	0.117583	0.087023
H89	H	0.008543	0.093766	0.183818
H90	H	0.086084	0.133359	0.189085
H91	H	0.987365	0.005419	0.360639
O92	O	0.272536	0.063822	0.147623
C93	C	0.327245	0.022437	0.152128
H94	H	0.342104	0.008609	0.087058
H95	H	0.380707	0.032415	0.183850
H96	H	0.303163	-0.007178	0.189120
O97	O	1.035117	-0.089214	-0.000088
C98	C	1.095503	-0.127428	-0.000076
H99	H	1.074696	-0.161652	-0.026109
H100	H	1.144011	-0.116938	-0.039996
H101	H	1.116632	-0.134595	0.065884
H102	H	0.799217	0.124824	0.360654
H103	H	0.987389	0.005428	0.639205
O104	O	0.272378	0.063921	-0.147911
C105	C	0.220631	0.063385	-0.214064
H106	H	0.161049	0.078111	-0.192097
H107	H	0.238373	0.087076	-0.266489
H108	H	0.220629	0.024537	-0.237101
O109	O	0.669840	0.068021	-0.147765
C110	C	0.706426	0.110339	-0.152263
H111	H	0.715219	0.124407	-0.087190
H112	H	0.763976	0.101496	-0.183982
H113	H	0.669668	0.139335	-0.189254
H114	H	0.701001	-0.297087	-0.000100
H115	H	0.697144	-0.539798	-0.000096
O116	O	0.514219	0.066377	0.147768
C117	C	0.565973	0.066893	0.213919
H118	H	0.618931	0.082765	0.191940
H119	H	0.538078	0.090118	0.266332
H120	H	0.582758	0.028216	0.236975
O121	O	0.995620	0.000235	0.802886
C122	C	1.041366	-0.028818	0.746129
H123	H	1.041985	-0.008999	0.684431
H124	H	1.101895	-0.036242	0.771120
H125	H	1.017211	-0.064707	0.736940
H126	H	0.520363	0.066433	-0.136046
H127	H	0.799203	0.124824	0.203639
O128	O	0.791060	0.130053	0.632547
C129	C	0.745292	0.159091	0.689307
H130	H	0.776325	0.159613	0.750987
H131	H	0.733288	0.197703	0.664290
H132	H	0.689257	0.143439	0.698539
O133	O	0.995430	0.000171	0.196883
C134	C	0.983684	-0.047662	0.218099
H135	H	0.923088	-0.047837	0.241896
H136	H	0.992675	-0.071943	0.161209
H137	H	1.025788	-0.061884	0.268347
O138	O	0.669815	0.067875	0.147648
C139	C	0.724523	0.026488	0.152140
H140	H	0.739378	0.012665	0.087066
H141	H	0.777988	0.036464	0.183860
H142	H	0.700444	-0.003129	0.189128
H143	H	1.088021	-0.421391	-0.000097
H144	H	1.022697	-0.183639	-0.000074
H145	H	1.089477	-0.329938	-0.000083
H146	H	1.014364	-0.707271	-0.000099
O147	O	0.688613	-0.391565	-0.000252
C148	C	0.646837	-0.375669	-0.071453
H149	H	0.687459	-0.365223	-0.121218
H150	H	0.614995	-0.406169	-0.095364
H151	H	0.604277	-0.342762	-0.055354
H152	H	0.799251	0.124840	0.796228
H153	H	0.762463	-0.777560	-0.000087
O154	O	1.023665	-0.803637	-0.000264
C155	C	1.027313	-0.833146	-0.071467
H156	H	0.988390	-0.814630	-0.121227
H157	H	1.088345	-0.838880	-0.095384
H158	H	1.008155	-0.869790	-0.055367
H159	H	0.763915	-0.686105	-0.000101
O160	O	0.761274	-0.165446	-0.000091
C161	C	0.700886	-0.127233	-0.000062
H162	H	0.721699	-0.092999	-0.026078
H163	H	0.652391	-0.137709	-0.039987
H164	H	0.679737	-0.120092	0.065902
H165	H	0.773708	-0.071006	-0.000041
H166	H	1.087070	-0.481182	-0.000102
O167	O	1.096371	-0.577544	-0.000265
C168	C	1.100024	-0.607053	-0.071469
H169	H	1.061107	-0.588536	-0.121232
H170	H	1.161058	-0.612788	-0.095379
H171	H	1.080863	-0.643696	-0.055373
H172	H	0.698601	-0.448345	-0.000092
