data_functionalizedCrystal
_audit_creation_method	'MofGen! by Chris Wilmer'
_symmetry_space_group_name_H-M	'P1'
_symmetry_Int_Tables_number	1
_symmetry_cell_setting	triclinic
loop_
_symmetry_equiv_pos_as_xyz
  x,y,z
_cell_length_a	16.992694
_cell_length_b	11.026607
_cell_length_c	16.053802
_cell_angle_alpha	93.134017
_cell_angle_beta	87.249047
_cell_angle_gamma	99.627120
loop_
_atom_site_label
_atom_site_type_symbol
_atom_site_fract_x
_atom_site_fract_y
_atom_site_fract_z
O1	O	1.079834	0.256038	-0.069317
O2	O	0.851145	0.253175	-0.069342
O3	O	0.946536	0.076115	-0.069328
O4	O	0.984443	0.433098	-0.069330
O5	O	0.941279	0.085818	0.069530
O6	O	0.845889	0.262878	0.069516
O7	O	1.074577	0.265741	0.069541
Zn8	Zn	0.959398	0.265850	0.091575
Zn9	Zn	0.966324	0.253066	-0.091376
O10	O	0.979186	0.442801	0.069528
C11	C	0.818785	0.254344	0.000084
C12	C	0.730190	0.243357	0.000075
C13	C	0.694911	0.349355	0.000075
C14	C	0.611666	0.339026	0.000086
C15	C	0.563702	0.222698	0.000092
C16	C	0.598986	0.116693	0.000094
C17	C	0.682229	0.127024	0.000089
C18	C	0.314060	0.179883	0.000114
C19	C	0.230811	0.169561	0.000117
C20	C	0.243497	0.391895	0.000111
C21	C	0.326741	0.402215	0.000100
C22	C	0.362018	0.296210	0.000107
N23	N	0.478612	0.212138	0.000101
N24	N	0.447107	0.306772	0.000104
C25	C	0.936914	0.035078	0.000099
C26	C	0.916068	-0.101658	0.000094
C27	C	0.973629	-0.169881	0.000099
C28	C	0.952085	-0.311205	0.000093
C29	C	1.106937	0.264572	0.000113
C30	C	1.195532	0.275558	0.000117
C31	C	0.988808	0.483838	0.000099
C32	C	1.009655	0.620574	0.000098
N33	N	0.954677	0.274575	0.216435
N34	N	0.971050	0.244332	-0.216236
C35	C	0.995289	0.199266	0.260135
C36	C	0.991996	0.205382	0.347541
C37	C	0.948095	0.286813	0.391246
C38	C	0.907478	0.362124	0.347540
C39	C	0.910767	0.356002	0.260136
C40	C	0.933722	0.313521	0.652654
C41	C	0.930438	0.319641	0.740065
C42	C	1.014955	0.162896	0.740059
C43	C	1.018244	0.156786	0.652653
C44	C	0.977624	0.232093	0.608955
N45	N	0.944729	0.293068	0.480589
N46	N	0.980985	0.225830	0.519613
H47	H	0.582946	0.425341	0.000085
H48	H	1.031042	0.132962	0.224556
H49	H	0.871728	0.428423	0.383130
H50	H	0.850837	-0.147877	0.000081
H51	H	0.877695	0.417324	0.224556
H52	H	0.886850	-0.357419	0.000081
N53	N	0.889927	0.394752	0.605521
H54	H	0.849453	0.341752	0.569267
H55	H	0.861669	0.447262	0.646520
H56	H	0.710952	0.040709	0.000088
H57	H	1.038860	-0.123663	0.000111
H58	H	0.733959	0.444081	0.000069
H59	H	1.074893	-0.333220	0.000043
N60	N	1.035808	0.124167	0.394672
H61	H	1.027062	0.140395	0.456674
H62	H	1.014888	0.034914	0.379401
H63	H	1.053992	0.090478	0.617070
H64	H	0.894687	0.385957	0.775645
N65	N	0.378474	0.527681	0.000079
H66	H	0.343493	0.593265	0.000077
H67	H	0.411355	0.540422	0.051547
N68	N	1.058764	0.081675	0.787190
H69	H	1.050021	0.097906	0.849192
H70	H	1.037837	-0.007576	0.771919
H71	H	0.191760	0.074828	0.000121
N72	N	0.205449	0.506223	0.000105
H73	H	0.145437	0.482033	0.000110
H74	H	0.220829	0.560169	0.051580
H75	H	0.342772	0.093566	0.000121
H76	H	0.559926	0.021977	0.000111
