data_functionalizedCrystal
_audit_creation_method	'MofGen! by Chris Wilmer'
_symmetry_space_group_name_H-M	'P1'
_symmetry_Int_Tables_number	1
_symmetry_cell_setting	triclinic
loop_
_symmetry_equiv_pos_as_xyz
  x,y,z
_cell_length_a	17.639762
_cell_length_b	18.050590
_cell_length_c	17.640968
_cell_angle_alpha	101.233828
_cell_angle_beta	87.859627
_cell_angle_gamma	101.248182
loop_
_atom_site_label
_atom_site_type_symbol
_atom_site_fract_x
_atom_site_fract_y
_atom_site_fract_z
Zn1	Zn	1.247823	-0.021246	0.195069
Zn2	Zn	1.222063	-0.174467	0.068080
Zn3	Zn	1.095153	-0.069566	0.093714
Zn4	Zn	1.120800	-0.164699	0.220663
O5	O	1.171460	-0.107494	0.144381
O6	O	1.350678	-0.025437	0.156784
O7	O	1.183714	-0.184862	-0.034794
O8	O	1.115453	0.040781	0.107175
O9	O	1.331752	-0.138008	0.063486
O10	O	1.227619	0.076281	0.181640
O11	O	1.090474	-0.107791	-0.015961
O12	O	0.992283	-0.098320	0.131993
O13	O	1.159164	-0.121359	0.323542
O14	O	1.011126	-0.168213	0.225262
O15	O	1.252487	-0.015965	0.304738
O16	O	1.208583	-0.277108	0.088304
O17	O	1.134185	-0.269931	0.200406
C18	C	0.974150	-0.137450	0.184187
C19	C	0.889743	-0.150279	0.201234
C20	C	0.780590	-0.204834	0.273738
C21	C	0.859901	-0.192776	0.257714
C22	C	0.840278	-0.119821	0.160759
C23	C	0.760964	-0.131870	0.176778
C24	C	0.731126	-0.174378	0.233267
C25	C	0.711500	-0.101415	0.136307
C26	C	0.632193	-0.113467	0.152322
C27	C	0.602348	-0.155975	0.208807
C28	C	0.651818	-0.186431	0.249282
C29	C	0.741339	-0.058911	0.079814
C30	C	0.691876	-0.028456	0.039343
C31	C	0.612567	-0.040503	0.055362
C32	C	0.582722	-0.083011	0.111847
C33	C	0.563097	-0.010047	0.014887
C34	C	0.483789	-0.022099	0.030902
C35	C	0.503414	-0.095063	0.127862
C36	C	1.171395	-0.300462	0.144363
C37	C	1.171442	-0.382998	0.144366
C38	C	1.212020	-0.586293	0.083454
C39	C	1.244585	-0.616973	0.149026
C40	C	1.171492	-0.534115	0.144388
C41	C	1.139009	-0.650498	0.078832
C42	C	1.171539	-0.680089	0.144402
C43	C	1.204100	-0.563694	0.209988
C44	C	1.098483	-0.597231	0.139754
C45	C	1.131032	-0.627882	0.205379
C46	C	1.171466	-0.450024	0.144378
C47	C	1.171567	-0.764177	0.144420
C48	C	1.369541	-0.077422	0.104420
C49	C	1.453951	-0.064607	0.087391
C50	C	1.211560	-0.062183	0.342466
C51	C	1.228648	-0.042873	0.426878
C52	C	1.171549	0.086234	0.144412
C53	C	1.171586	0.168790	0.144425
C54	C	1.131560	-0.152570	-0.052942
C55	C	1.114619	-0.171647	-0.137383
C56	C	1.041934	-0.253735	0.753443
C57	C	1.058007	-0.235580	0.832758
C58	C	1.155177	-0.125842	0.813168
C59	C	1.139110	-0.143987	0.733851
C60	C	1.082488	-0.207935	0.703995
C61	C	1.179663	-0.098186	0.684403
C62	C	1.163600	-0.116331	0.605092
C63	C	1.106982	-0.180278	0.575229
C64	C	1.066425	-0.226080	0.624684
C65	C	1.236288	-0.034241	0.714259
C66	C	1.276842	0.011560	0.664811
C67	C	1.260775	-0.006582	0.585499
C68	C	1.204158	-0.070529	0.555637
C69	C	1.301333	0.039220	0.536045
C70	C	1.285269	0.021075	0.456734
C71	C	1.188094	-0.088674	0.476326
H72	H	0.805917	-0.049101	0.066776
H73	H	1.024979	-0.272881	0.873017
F74	F	1.089890	-0.199593	0.490818
F75	F	0.620060	-0.231663	0.309413
H76	H	1.020299	-0.278138	0.600378
H77	H	1.322945	0.063624	0.689131
H78	H	1.306349	-0.626132	0.152957
H79	H	0.995809	-0.305793	0.729137
F80	F	1.361598	0.107270	0.567829
F81	F	0.748832	-0.250067	0.333869
H82	H	1.318291	0.058371	0.416471
H83	H	1.096789	-0.646126	0.256964
F84	F	1.215438	-0.057788	0.844951
F85	F	1.253386	-0.014933	0.798670
F86	F	1.017767	-0.585244	0.134587
H87	H	0.479121	-0.129668	0.173869
H88	H	1.111518	-0.688005	0.023387
F89	F	0.517939	-0.168808	0.225847
F90	F	0.912543	-0.225196	0.300792
F91	F	0.872043	-0.074584	0.100640
F92	F	0.723640	0.016782	-0.020776
H93	H	1.141969	-0.140732	0.452020
F94	F	0.594862	0.035184	-0.045237
H95	H	1.231544	-0.526276	0.265495
H96	H	0.443515	0.002706	-0.002049
H97	H	1.246316	-0.567882	0.031967
