data_functionalizedCrystal
_audit_creation_method	'MofGen! by Chris Wilmer'
_symmetry_space_group_name_H-M	'P1'
_symmetry_Int_Tables_number	1
_symmetry_cell_setting	triclinic
loop_
_symmetry_equiv_pos_as_xyz
  x,y,z
_cell_length_a	10.654562
_cell_length_b	10.654551
_cell_length_c	10.065875
_cell_angle_alpha	98.877446
_cell_angle_beta	81.163932
_cell_angle_gamma	84.487733
loop_
_atom_site_label
_atom_site_type_symbol
_atom_site_fract_x
_atom_site_fract_y
_atom_site_fract_z
O1	O	1.686061	0.158161	-0.113576
O2	O	1.320581	0.174954	-0.113558
O3	O	1.511724	-0.016181	-0.113568
O4	O	1.494919	0.349296	-0.113566
O5	O	1.475277	0.020413	0.113423
O6	O	1.284134	0.211548	0.113433
O7	O	1.649614	0.194756	0.113415
Zn8	Zn	1.461087	0.208962	0.149463
Zn9	Zn	1.509108	0.160747	-0.149606
O10	O	1.458472	0.385891	0.113425
C11	C	1.255560	0.192015	-0.000060
C12	C	1.116116	0.188318	-0.000054
C13	C	1.030720	0.206539	0.123668
C14	C	0.899702	0.203070	0.123645
C15	C	0.939488	0.163164	-0.123833
C16	C	1.070505	0.166623	-0.123808
C17	C	1.076331	0.228233	0.247422
C18	C	0.990933	0.246457	0.371154
C19	C	0.859915	0.242989	0.371131
C20	C	0.814294	0.221296	0.247377
C21	C	1.492266	-0.044683	-0.000076
C22	C	1.488575	-0.184127	-0.000085
C23	C	1.506710	-0.269587	-0.123815
C24	C	1.503229	-0.400606	-0.123808
C25	C	1.463482	-0.360694	0.123669
C26	C	1.466954	-0.229677	0.123661
C27	C	1.528331	-0.224038	-0.247561
C28	C	1.546469	-0.309499	-0.371301
C29	C	1.542987	-0.440518	-0.371295
C30	C	1.521368	-0.486077	-0.247548
C31	C	1.714636	0.177694	-0.000086
C32	C	1.854081	0.181390	-0.000101
C33	C	1.477929	0.414392	-0.000070
C34	C	1.481622	0.553835	-0.000070
N35	N	1.428324	0.241867	0.353571
N36	N	1.541881	0.127833	-0.353714
C37	C	1.497700	0.172188	0.421346
C38	C	1.472495	0.197522	0.578515
H39	H	1.183010	0.231064	0.247455
N40	N	0.890274	0.139783	-0.257295
H41	H	0.912280	0.209379	-0.311389
H42	H	0.931273	0.053913	-0.311281
N43	N	1.532078	-0.082727	-0.247584
H44	H	1.447395	-0.033831	-0.199009
H45	H	1.602879	-0.052942	-0.199029
N46	N	1.562618	-0.532705	-0.504747
H47	H	1.576868	-0.483967	-0.583135
H48	H	1.639777	-0.597398	-0.510070
N49	N	1.447406	-0.137506	0.257119
H50	H	1.525678	-0.091759	0.262626
H51	H	1.370204	-0.072835	0.262557
N52	N	1.517595	-0.627388	-0.247536
H53	H	1.532358	-0.674616	-0.344697
H54	H	1.586667	-0.660512	-0.198893
H55	H	1.619938	0.049413	0.587961
N56	N	1.162623	0.146966	-0.257247
H57	H	1.113849	0.132707	-0.335649
H58	H	1.208360	0.225249	-0.262628
H59	H	0.790387	0.257818	0.471880
N60	N	1.569667	-0.260355	-0.504765
H61	H	1.569089	-0.164385	-0.485997
H62	H	1.655434	-0.301444	-0.558878
H63	H	1.028088	0.264109	0.471911
N64	N	1.440188	-0.409828	0.257132
H65	H	1.360150	-0.453805	0.262660
H66	H	1.515653	-0.472741	0.262555
H67	H	0.707609	0.218471	0.247368
N68	N	1.324928	0.345733	0.430825
H69	H	1.282091	0.388751	0.364002
H70	H	1.259384	0.306802	0.490123
N71	N	1.601067	0.068290	0.344097
H72	H	1.604407	0.064906	0.242771
H73	H	1.686396	0.087335	0.368960
H74	H	1.394428	0.275933	0.636840
