data_functionalizedCrystal
_audit_creation_method	'MofGen! by Chris Wilmer'
_symmetry_space_group_name_H-M	'P1'
_symmetry_Int_Tables_number	1
_symmetry_cell_setting	triclinic
loop_
_symmetry_equiv_pos_as_xyz
  x,y,z
_cell_length_a	16.992701
_cell_length_b	16.992695
_cell_length_c	15.455313
_cell_angle_alpha	87.142836
_cell_angle_beta	87.139804
_cell_angle_gamma	89.332304
loop_
_atom_site_label
_atom_site_type_symbol
_atom_site_fract_x
_atom_site_fract_y
_atom_site_fract_z
O1	O	1.047609	-0.170134	0.072139
O2	O	0.819209	-0.168305	0.072140
O3	O	0.932493	-0.055019	0.072133
O4	O	0.934324	-0.283420	0.072146
O5	O	0.938965	-0.048561	-0.072130
O6	O	0.825680	-0.161847	-0.072123
O7	O	1.054080	-0.163676	-0.072123
Cu8	Cu	0.940471	-0.162172	-0.085295
Cu9	Cu	0.932818	-0.169809	0.085312
O10	O	0.940796	-0.276962	-0.072116
C11	C	0.793084	-0.162721	0.000008
C12	C	0.705600	-0.155693	0.000008
C13	C	0.933373	-0.022430	0.000001
C14	C	0.926345	0.065054	0.000002
C15	C	0.213681	-0.108471	0.000009
C16	C	0.295882	-0.115080	0.000004
C17	C	0.332089	-0.189509	0.000012
C18	C	0.286090	-0.257331	0.000017
C19	C	0.203891	-0.250721	0.000015
C20	C	0.577402	-0.216905	0.000011
C21	C	0.659607	-0.223510	0.000015
C22	C	0.669394	-0.081259	0.000001
C23	C	0.587192	-0.074655	0.000005
C24	C	0.541201	-0.142478	0.000005
N25	N	0.416111	-0.196266	0.000010
N26	N	0.457181	-0.135719	0.000001
C27	C	1.080204	-0.169261	0.000010
C28	C	1.167689	-0.176289	0.000016
N29	N	0.927435	-0.175175	0.205308
C30	C	0.939915	-0.309551	0.000017
C31	C	0.946944	-0.397036	0.000022
C32	C	0.994163	0.111046	0.000001
C33	C	0.987553	0.193246	0.000009
C34	C	0.913126	0.229454	0.000012
C35	C	0.845302	0.183456	0.000016
C36	C	0.851912	0.101257	0.000014
C37	C	0.885731	0.474767	0.000024
C38	C	0.879126	0.556973	0.000023
C39	C	1.021377	0.566757	0.000018
C40	C	1.027981	0.484556	0.000011
C41	C	0.960158	0.438566	0.000019
N42	N	0.906368	0.313476	0.000018
N43	N	0.966915	0.354545	0.000020
N44	N	0.945860	-0.156800	-0.205291
C45	C	0.975666	-0.127152	0.250699
C46	C	0.971593	-0.131209	0.341507
C47	C	0.919285	-0.183284	0.386922
C48	C	0.871052	-0.231312	0.341525
C49	C	0.875129	-0.227259	0.250718
C50	C	0.901704	-0.200775	0.658505
C51	C	0.897629	-0.204823	0.749318
C52	C	0.998172	-0.104720	0.749294
C53	C	1.002241	-0.100669	0.658485
C54	C	0.954011	-0.148699	0.613096
N55	N	0.915119	-0.187430	0.479743
N56	N	0.958181	-0.144557	0.520277
H57	H	0.333326	-0.059855	-0.000005
H58	H	0.557719	-0.014048	-0.000002
H59	H	1.054770	0.081573	-0.000007
H60	H	1.076595	0.604211	0.000013
C61	C	0.739172	0.539047	0.000055
C62	C	0.797308	0.596773	0.000041
H63	H	0.688665	0.563620	0.000072
H64	H	0.746953	0.509447	-0.050251
H65	H	0.742463	0.504933	0.050365
H66	H	0.794020	0.630883	-0.050273
H67	H	0.789524	0.626386	0.050352
C68	C	0.831856	-0.365843	0.369520
C69	C	0.813555	-0.288556	0.391445
H70	H	0.796360	-0.401181	0.400343
H71	H	0.827378	-0.370299	0.308951
H72	H	0.884239	-0.378467	0.384412
H73	H	0.761173	-0.275930	0.376547
H74	H	0.818026	-0.284097	0.452029
H75	H	0.855030	-0.247231	0.786291
H76	H	0.706848	-0.026041	-0.000000
H77	H	0.689084	-0.284121	0.000010
H78	H	1.042778	0.230690	0.000006
C79	C	0.807299	0.373345	0.074191
C80	C	0.811177	0.424226	0.000029
H81	H	0.761266	0.342146	0.074195
H82	H	0.852560	0.340015	0.074185
H83	H	0.805427	0.403371	0.124492
H84	H	0.813055	0.394199	-0.050272
H85	H	0.765904	0.457560	0.000027
C86	C	0.725342	0.203737	-0.074134
C87	C	0.763487	0.223249	0.000022
H88	H	0.674830	0.228298	-0.074126
H89	H	0.755735	0.221479	-0.124433
H90	H	0.719581	0.148198	-0.074124
H91	H	0.769253	0.278788	0.000009
H92	H	0.733087	0.205511	0.050335
H93	H	0.539966	-0.272132	0.000016
H94	H	0.166445	-0.305946	0.000018
H95	H	0.835855	-0.266365	0.213762
C96	C	0.407748	-0.330628	0.000030
C97	C	0.325887	-0.339145	0.000025
H98	H	0.432314	-0.381139	0.000041
H99	H	0.425484	-0.300243	-0.050277
H100	H	0.420964	-0.304737	0.050338
H101	H	0.312670	-0.365032	-0.050287
H102	H	0.308145	-0.369543	0.050337
C103	C	0.769508	-0.236888	0.630565
C104	C	0.848684	-0.253567	0.608623
H105	H	0.736775	-0.269479	0.599763
H106	H	0.759603	-0.246749	0.691139
H107	H	0.758447	-0.183123	0.615658
H108	H	0.859747	-0.307330	0.623535
H109	H	0.858594	-0.243711	0.548035
H110	H	0.796687	0.063811	0.000015
H111	H	1.088588	0.455082	0.000008
H112	H	1.037440	-0.065617	0.786258
H113	H	1.018257	-0.084744	0.213728
H114	H	1.044835	-0.058265	0.621510
C115	C	0.231620	0.031473	-0.000013
C116	C	0.173887	-0.026656	-0.000001
H117	H	0.207052	0.081983	-0.000026
H118	H	0.261217	0.023688	0.050292
H119	H	0.265735	0.028178	-0.050323
H120	H	0.139775	-0.023364	0.050312
H121	H	0.144276	-0.018868	-0.050312
H122	H	1.010867	-0.092105	0.378464
