data_functionalizedCrystal
_audit_creation_method	'MofGen! by Chris Wilmer'
_symmetry_space_group_name_H-M	'P1'
_symmetry_Int_Tables_number	1
_symmetry_cell_setting	triclinic
loop_
_symmetry_equiv_pos_as_xyz
  x,y,z
_cell_length_a	10.723022
_cell_length_b	18.266242
_cell_length_c	10.723024
_cell_angle_alpha	89.996690
_cell_angle_beta	84.467548
_cell_angle_gamma	89.994052
loop_
_atom_site_label
_atom_site_type_symbol
_atom_site_fract_x
_atom_site_fract_y
_atom_site_fract_z
O1	O	-1.657192	0.060885	-0.175017
O2	O	-1.157192	0.560885	0.324983
O3	O	-1.294039	0.060885	-0.191773
O4	O	-0.794039	0.560885	0.308227
O5	O	-1.483992	0.060882	-0.001819
O6	O	-0.983992	0.560882	0.498181
O7	O	-1.467239	0.060888	-0.364971
O8	O	-0.967239	0.560888	0.135029
O9	O	-1.483971	-0.060880	-0.001814
O10	O	-0.983971	0.439120	0.498186
O11	O	-1.294018	-0.060877	-0.191768
O12	O	-0.794018	0.439123	0.308232
O13	O	-1.657171	-0.060877	-0.175013
O14	O	-1.157171	0.439123	0.324987
Zn15	Zn	-1.475591	-0.080209	-0.183389
Zn16	Zn	-0.975591	0.419791	0.316611
Zn17	Zn	-1.475619	0.080217	-0.183396
Zn18	Zn	-0.975619	0.580217	0.316604
O19	O	-1.467218	-0.060874	-0.364966
O20	O	-0.967218	0.439126	0.135034
C21	C	-1.247529	0.000004	-0.190551
C22	C	-0.747529	0.500004	0.309449
C23	C	-1.108975	0.000004	-0.186904
C24	C	-0.608975	0.500004	0.313096
N25	N	-1.475582	-0.189696	-0.183385
N26	N	-0.975582	0.310304	0.316615
C27	C	-0.890796	0.000005	-0.289421
C28	C	-0.390796	0.500005	0.210579
C29	C	-1.033999	0.000005	-0.293192
C30	C	-0.533999	0.500005	0.206808
C31	C	-1.559751	-0.771975	-0.099302
C32	C	-1.059751	-0.271975	0.400698
C33	C	-1.559753	-0.695330	-0.099305
C34	C	-1.059753	-0.195330	0.400695
C35	C	-1.475620	-0.657009	-0.183384
C36	C	-0.975620	-0.157009	0.316616
C37	C	-1.391500	-0.695339	-0.267489
C38	C	-0.891500	-0.195339	0.232511
C39	C	-1.391509	-0.771983	-0.267492
C40	C	-0.891509	-0.271983	0.232508
N41	N	-1.365325	-0.536682	-0.198274
N42	N	-0.865325	-0.036682	0.301726
N43	N	-1.365320	-0.463874	-0.198264
N44	N	-0.865320	0.036126	0.301736
C45	C	-1.475589	-0.426087	-0.183382
C46	C	-0.975589	0.073913	0.316618
N47	N	-1.585866	-0.463858	-0.168485
N48	N	-1.085866	0.036142	0.331515
N49	N	-1.585870	-0.536672	-0.168490
N50	N	-1.085870	-0.036672	0.331510
C51	C	-1.475601	-0.573902	-0.183391
C52	C	-0.975601	-0.073902	0.316609
C53	C	-1.559711	-0.304658	-0.099292
C54	C	-1.059711	0.195342	0.400708
C55	C	-1.559714	-0.228012	-0.099303
C56	C	-1.059714	0.271988	0.400697
C57	C	-1.391451	-0.228023	-0.267480
C58	C	-0.891451	0.271977	0.232520
C59	C	-1.391458	-0.304668	-0.267475
C60	C	-0.891458	0.195332	0.232525
C61	C	-1.475587	-0.342981	-0.183374
C62	C	-0.975587	0.157019	0.316626
C63	C	-0.703681	0.000004	-0.176234
C64	C	-0.203681	0.500004	0.323766
C65	C	-0.842235	0.000004	-0.179881
C66	C	-0.342235	0.500004	0.320119
C67	C	-1.482763	0.000002	0.044683
C68	C	-0.982763	0.500002	0.544683
C69	C	-1.479115	0.000005	0.183238
C70	C	-0.979115	0.500005	0.683238
N71	N	-1.475638	0.189704	-0.183391
N72	N	-0.975638	0.689704	0.316609
C73	C	-1.468448	0.000007	-0.411468
C74	C	-0.968448	0.500007	0.088532
C75	C	-1.472095	0.000010	-0.550023
C76	C	-0.972095	0.500010	-0.050023
C77	C	-1.585403	0.000006	0.258221
C78	C	-1.085403	0.500006	0.758221
C79	C	-1.581635	0.000008	0.401424
C80	C	-1.081635	0.500008	0.901424
H81	H	-0.826354	0.000011	-0.380409
H82	H	-0.326354	0.500011	0.119591
Cl83	Cl	-1.285704	-0.352847	-0.373184
Cl84	Cl	-0.785704	0.147153	0.126816
Cl85	Cl	-1.098546	0.000002	-0.438000
Cl86	Cl	-0.598546	0.500002	0.062000
H87	H	-1.628257	-0.803167	-0.030825
H88	H	-1.128257	-0.303167	0.469175
Cl89	Cl	-1.331600	0.000002	0.350511
Cl90	Cl	-0.831600	0.500002	0.850511
H91	H	-1.067171	0.000022	-0.093113
H92	H	-0.567171	0.500022	0.406887
Cl93	Cl	-0.941720	0.000007	-0.039393
Cl94	Cl	-0.441720	0.500007	0.460607
Cl95	Cl	-1.722125	0.000004	0.500898
Cl96	Cl	-1.222125	0.500004	1.000898
Cl97	Cl	-1.665504	-0.647147	0.006417
Cl98	Cl	-1.165504	-0.147147	0.506417
H99	H	-1.322999	-0.664135	-0.335949
H100	H	-0.822999	-0.164135	0.164051
H101	H	-1.679188	0.000001	0.216399
H102	H	-1.179188	0.500001	0.716399
H103	H	-1.323013	-0.803184	-0.335968
H104	H	-0.823013	-0.303184	0.164032
Cl105	Cl	-1.334309	0.000012	0.247795
Cl106	Cl	-0.834309	0.500012	0.747795
Cl107	Cl	-1.665473	-0.179834	0.006409
Cl108	Cl	-1.165473	0.320166	0.506409
Cl109	Cl	-1.665479	-0.352825	0.006428
Cl110	Cl	-1.165479	0.147175	0.506428
H111	H	-1.322953	-0.196823	-0.335944
H112	H	-0.822953	0.303177	0.164056
