data_functionalizedCrystal
_audit_creation_method	'MofGen! by Chris Wilmer'
_symmetry_space_group_name_H-M	'P1'
_symmetry_Int_Tables_number	1
_symmetry_cell_setting	triclinic
loop_
_symmetry_equiv_pos_as_xyz
  x,y,z
_cell_length_a	9.065218
_cell_length_b	9.565339
_cell_length_c	9.065218
_cell_angle_alpha	90.002079
_cell_angle_beta	94.984115
_cell_angle_gamma	90.003684
loop_
_atom_site_label
_atom_site_type_symbol
_atom_site_fract_x
_atom_site_fract_y
_atom_site_fract_z
O1	O	1.960401	0.116257	-0.216346
O2	O	1.531116	0.116259	-0.234093
O3	O	1.754631	0.116255	-0.010577
O4	O	1.736885	0.116261	-0.439862
O5	O	1.754614	-0.116265	-0.010591
O6	O	1.531098	-0.116261	-0.234107
O7	O	1.960383	-0.116263	-0.216360
Zn8	Zn	1.745738	-0.153180	-0.225236
Zn9	Zn	1.745761	0.153176	-0.225217
O10	O	1.736867	-0.116259	-0.439876
C11	C	1.476120	-0.000001	-0.232394
C12	C	1.312277	-0.000000	-0.227294
N13	N	1.745732	-0.362259	-0.225247
C14	C	1.642332	-0.453460	-0.328581
C15	C	1.776053	-0.546639	-0.358994
C16	C	1.612069	-0.546635	-0.194846
C17	C	1.879522	-0.453386	-0.255728
C18	C	1.715449	-0.453374	-0.091521
C19	C	1.849266	-0.546511	-0.121879
C20	C	2.015378	0.000000	-0.218059
C21	C	2.179221	0.000009	-0.223158
C22	C	1.752917	-0.000003	0.044403
C23	C	1.747817	0.000004	0.208245
N24	N	1.745778	0.362255	-0.225194
C25	C	1.738582	0.000002	-0.494855
C26	C	1.743681	0.000004	-0.658698
H27	H	1.554971	-0.412604	-0.416049
C28	C	1.364866	-0.489077	-0.140078
C29	C	1.459453	-0.601925	-0.160140
H30	H	1.270650	-0.523210	-0.118650
H31	H	1.354325	-0.434479	-0.227875
H32	H	1.405468	-0.433024	-0.060083
H33	H	1.418856	-0.657973	-0.240142
H34	H	1.469990	-0.656547	-0.072332
C35	C	1.702237	-0.555001	-0.619698
C36	C	1.810673	-0.601959	-0.511622
H37	H	1.723601	-0.589158	-0.713923
H38	H	1.701585	-0.455713	-0.621083
H39	H	1.607985	-0.588309	-0.597394
H40	H	1.904925	-0.568642	-0.533920
H41	H	1.811340	-0.701268	-0.510241
C42	C	2.030698	-0.251957	-0.290549
C43	C	2.032143	-0.398337	-0.290720
H44	H	2.124904	-0.217974	-0.312199
H45	H	2.009100	-0.219229	-0.195872
H46	H	1.957123	-0.219398	-0.363482
H47	H	2.105712	-0.430897	-0.217779
H48	H	2.053759	-0.431079	-0.385411
C49	C	1.965712	-0.747713	-0.003980
C50	C	1.967452	-0.601335	-0.003869
H51	H	2.038671	-0.781557	0.068878
H52	H	1.986447	-0.781051	-0.098688
H53	H	1.870842	-0.779799	0.017822
H54	H	2.062319	-0.569249	-0.025682
H55	H	1.946727	-0.567983	0.090860
C56	C	1.552866	-0.315412	0.045075
C57	C	1.680777	-0.398008	0.061063
H58	H	1.531456	-0.281224	0.139273
H59	H	1.472102	-0.370075	0.003729
H60	H	1.568305	-0.238907	-0.018604
H61	H	1.665335	-0.474519	0.124733
H62	H	1.761559	-0.343343	0.102430
