data_functionalizedCrystal
_audit_creation_method	'MofGen! by Chris Wilmer'
_symmetry_space_group_name_H-M	'P1'
_symmetry_Int_Tables_number	1
_symmetry_cell_setting	triclinic
loop_
_symmetry_equiv_pos_as_xyz
  x,y,z
_cell_length_a	10.489711
_cell_length_b	10.489716
_cell_length_c	16.176319
_cell_angle_alpha	89.997268
_cell_angle_beta	89.991071
_cell_angle_gamma	84.528072
loop_
_atom_site_label
_atom_site_type_symbol
_atom_site_fract_x
_atom_site_fract_y
_atom_site_fract_z
O1	O	1.694065	0.179792	-0.068768
O2	O	2.194065	0.679792	0.431232
O3	O	1.322863	0.196725	-0.068763
O4	O	1.822863	0.696725	0.431237
O5	O	1.516927	0.002658	-0.068769
O6	O	2.016927	0.502658	0.431231
O7	O	1.500001	0.373860	-0.068762
O8	O	2.000001	0.873860	0.431238
O9	O	1.516900	0.002645	0.068725
O10	O	2.016900	0.502645	0.568725
O11	O	1.322836	0.196712	0.068731
O12	O	1.822836	0.696712	0.568731
O13	O	1.694038	0.179780	0.068725
O14	O	2.194038	0.679780	0.568725
Cu15	Cu	1.508434	0.188245	0.081282
Cu16	Cu	2.008434	0.688245	0.581282
Cu17	Cu	1.508466	0.188260	-0.081320
Cu18	Cu	2.008466	0.688260	0.418680
O19	O	1.499974	0.373847	0.068731
O20	O	1.999974	0.873847	0.568731
C21	C	1.275317	0.195448	-0.000015
C22	C	1.775317	0.695448	0.499985
C23	C	1.133686	0.191646	-0.000014
C24	C	1.633686	0.691646	0.499986
C25	C	0.951289	0.308352	-0.000021
C26	C	1.451289	0.808352	0.499979
C27	C	1.043454	0.250062	-0.067812
C28	C	1.543454	0.750062	0.432188
C29	C	1.043400	0.250018	0.067745
C30	C	1.543400	0.750018	0.567745
C31	C	0.973513	0.126518	-0.067878
C32	C	1.473513	0.626518	0.432122
C33	C	0.973450	0.126491	0.067740
C34	C	1.473450	0.626491	0.567740
C35	C	1.065587	0.068111	-0.000068
C36	C	1.565587	0.568111	0.499932
C37	C	1.515642	-0.044880	-0.000025
C38	C	2.015642	0.455120	0.499975
C39	C	1.511837	-0.186511	-0.000032
C40	C	2.011837	0.313489	0.499968
C41	C	1.630843	-0.284198	-0.000026
C42	C	2.130843	0.215802	0.499974
C43	C	1.567971	-0.361545	-0.067814
C44	C	2.067971	0.138455	0.432186
C45	C	1.567916	-0.361522	0.067743
C46	C	2.067916	0.138478	0.567743
C47	C	1.449014	-0.261993	-0.067876
C48	C	1.949014	0.238007	0.432124
C49	C	1.448978	-0.261964	0.067742
C50	C	1.948978	0.238036	0.567742
C51	C	1.386018	-0.339263	-0.000063
C52	C	1.886018	0.160737	0.499937
C53	C	1.741584	0.181057	-0.000024
C54	C	2.241584	0.681057	0.499976
C55	C	1.883215	0.184859	-0.000031
C56	C	2.383215	0.684859	0.499969
C57	C	1.501259	0.421385	-0.000015
C58	C	2.001259	0.921385	0.499985
C59	C	1.505064	0.563016	-0.000013
C60	C	2.005064	1.063016	0.499987
N61	N	1.508421	0.188234	0.195647
N62	N	2.008421	0.688234	0.695647
N63	N	1.508490	0.188261	-0.195685
N64	N	2.008490	0.688261	0.304315
C65	C	1.594379	0.102336	0.238909
C66	C	2.094379	0.602336	0.738909
C67	C	1.594386	0.102335	0.325456
C68	C	2.094386	0.602335	0.825456
C69	C	1.508439	0.188238	0.368740
C70	C	2.008439	0.688238	0.868740
C71	C	1.422472	0.274139	0.325472
C72	C	1.922472	0.774139	0.825472
C73	C	1.422461	0.274133	0.238927
C74	C	1.922461	0.774133	0.738927
C75	C	1.422516	0.274164	0.674500
C76	C	1.922516	0.774164	1.174500
C77	C	1.422537	0.274166	0.761052
C78	C	1.922537	0.774166	1.261052
C79	C	1.594441	0.102365	0.761030
C80	C	2.094441	0.602365	1.261030
C81	C	1.594429	0.102359	0.674484
C82	C	2.094429	0.602359	1.174484
C83	C	1.508458	0.188256	0.631224
C84	C	2.008458	0.688256	1.131224
C85	C	1.508451	0.188254	0.537380
C86	C	2.008451	0.688254	1.037380
C87	C	1.508452	0.188247	0.462582
C88	C	2.008452	0.688247	0.962582
H89	H	0.942720	0.074319	-0.125258
H90	H	1.442720	0.574319	0.374742
H91	H	1.664419	0.032414	0.639245
H92	H	2.164419	0.532414	1.139245
H93	H	1.664378	0.032390	0.360679
H94	H	2.164378	0.532390	0.860679
H95	H	1.352463	0.344078	0.203704
H96	H	1.852463	0.844078	0.703704
H97	H	1.618219	-0.405040	-0.125127
H98	H	2.118219	0.094960	0.374873
H99	H	1.115053	-0.033485	-0.000104
H100	H	1.615053	0.466515	0.499896
H101	H	1.664440	0.032420	0.796261
H102	H	2.164440	0.532420	1.296261
H103	H	1.734358	-0.259532	-0.000097
H104	H	2.234358	0.240468	0.499903
H105	H	0.901590	0.409854	-0.000087
H106	H	1.401590	0.909854	0.499913
H107	H	1.398773	-0.218446	0.125057
H108	H	1.898773	0.281554	0.625057
H109	H	1.398816	-0.218679	-0.125249
H110	H	1.898816	0.281321	0.374751
H111	H	1.618168	-0.405005	0.125051
H112	H	2.118168	0.094995	0.625051
H113	H	1.074340	0.302287	0.125058
H114	H	1.574340	0.802287	0.625058
H115	H	1.282425	-0.363682	-0.000097
H116	H	1.782425	0.136318	0.499903
H117	H	1.352518	0.344106	0.639285
H118	H	1.852518	0.844106	1.139285
H119	H	1.352544	0.344121	0.796292
H120	H	1.852544	0.844121	1.296292
H121	H	1.664372	0.032390	0.203673
H122	H	2.164372	0.532390	0.703673
H123	H	1.352487	0.344079	0.360719
H124	H	1.852487	0.844079	0.860719
H125	H	0.942421	0.074276	0.125054
H126	H	1.442421	0.574276	0.625054
H127	H	1.074455	0.302323	-0.125121
H128	H	1.574455	0.802323	0.374879
