data_functionalizedCrystal
_audit_creation_method	'MofGen! by Chris Wilmer'
_symmetry_space_group_name_H-M	'P1'
_symmetry_Int_Tables_number	1
_symmetry_cell_setting	triclinic
loop_
_symmetry_equiv_pos_as_xyz
  x,y,z
_cell_length_a	11.026607
_cell_length_b	19.188930
_cell_length_c	9.482900
_cell_angle_alpha	99.297616
_cell_angle_beta	78.636152
_cell_angle_gamma	95.865399
loop_
_atom_site_label
_atom_site_type_symbol
_atom_site_fract_x
_atom_site_fract_y
_atom_site_fract_z
O1	O	1.627581	0.283622	-0.120957
O2	O	1.274451	0.250352	-0.120952
O3	O	1.461202	0.166632	-0.120926
O4	O	1.440830	0.367342	-0.120983
O5	O	1.423268	0.183725	0.120861
O6	O	1.236517	0.267445	0.120835
O7	O	1.589648	0.300715	0.120830
Cu8	Cu	1.409619	0.285641	0.142910
Cu9	Cu	1.454480	0.265426	-0.143032
O10	O	1.402896	0.384435	0.120804
C11	C	1.210306	0.252761	-0.000057
C12	C	1.075688	0.234464	-0.000054
C13	C	1.441575	0.149084	-0.000029
C14	C	1.439592	0.071328	-0.000016
C15	C	1.001617	0.284984	-0.000069
C16	C	0.862482	0.266075	-0.000066
C17	C	1.549173	0.040370	-0.000011
C18	C	1.547315	-0.032693	-0.000034
C19	C	1.435865	-0.074793	-0.000033
C20	C	1.326271	-0.043828	-0.000047
C21	C	1.328134	0.029233	-0.000038
N22	N	1.337766	-0.187838	0.082253
N23	N	1.336003	-0.257242	0.082248
C24	C	1.430246	-0.294921	-0.000063
N25	N	1.526334	-0.260572	-0.082349
N26	N	1.528099	-0.191161	-0.082338
C27	C	1.433833	-0.154016	-0.000044
C28	C	1.537820	-0.405101	-0.000085
C29	C	1.535959	-0.478166	-0.000117
C30	C	1.314910	-0.489299	-0.000115
C31	C	1.316776	-0.416236	-0.000098
C32	C	1.428234	-0.374141	-0.000075
C33	C	1.653793	0.298306	-0.000068
C34	C	1.788412	0.316602	-0.000081
C35	C	1.422524	0.401983	-0.000097
C36	C	1.424509	0.479738	-0.000119
N37	N	1.378075	0.299859	0.344025
N38	N	1.486034	0.251204	-0.344148
C39	C	1.445167	0.269615	0.416234
C40	C	1.418931	0.281452	0.583648
H41	H	1.041206	0.342235	-0.000077
Br42	Br	1.572978	0.211639	0.312711
Br43	Br	0.854370	0.412033	-0.000080
H44	H	1.342057	0.316106	0.645762
H45	H	1.636553	-0.057905	-0.000036
Br46	Br	1.614440	0.193637	0.552339
Br47	Br	1.009714	0.139041	-0.000011
H48	H	1.639931	0.074639	0.000002
H49	H	0.822904	0.208818	-0.000087
H50	H	1.625199	-0.503371	-0.000121
Br51	Br	1.163656	-0.546428	-0.000129
Br52	Br	1.249948	0.357615	0.447549
H53	H	1.235528	-0.078111	-0.000050
H54	H	1.227542	-0.391030	-0.000094
H55	H	1.238897	0.054438	-0.000042
Br56	Br	1.689077	-0.347967	-0.000040
