data_functionalizedCrystal
_audit_creation_method	'MofGen! by Chris Wilmer'
_symmetry_space_group_name_H-M	'P1'
_symmetry_Int_Tables_number	1
_symmetry_cell_setting	triclinic
loop_
_symmetry_equiv_pos_as_xyz
  x,y,z
_cell_length_a	19.288859
_cell_length_b	17.019294
_cell_length_c	17.766277
_cell_angle_alpha	86.114664
_cell_angle_beta	89.989768
_cell_angle_gamma	83.264228
loop_
_atom_site_label
_atom_site_type_symbol
_atom_site_fract_x
_atom_site_fract_y
_atom_site_fract_z
O1	O	0.921530	0.098383	-0.068985
O2	O	1.421530	0.598383	0.431015
O3	O	0.719292	0.111663	-0.069844
O4	O	1.219292	0.611663	0.430156
O5	O	0.826052	-0.009830	-0.061966
O6	O	1.326052	0.490170	0.438034
O7	O	0.814770	0.219876	-0.076862
O8	O	1.314770	0.719876	0.423138
O9	O	0.826033	-0.009836	0.063223
O10	O	1.326033	0.490164	0.563223
O11	O	0.719273	0.111657	0.055345
O12	O	1.219273	0.611657	0.555345
O13	O	0.921511	0.098377	0.056204
O14	O	1.421511	0.598377	0.556204
Cu15	Cu	0.820391	0.105016	0.067205
Cu16	Cu	1.320391	0.605016	0.567205
Cu17	Cu	0.820413	0.105024	-0.080845
Cu18	Cu	1.320413	0.605024	0.419155
O19	O	0.814751	0.219870	0.048327
O20	O	1.314751	0.719870	0.548327
C21	C	0.693405	0.111234	-0.007221
C22	C	1.193405	0.611234	0.492779
C23	C	0.616299	0.109953	-0.007138
C24	C	1.116299	0.609953	0.492862
C25	C	0.052370	0.172579	-0.011200
C26	C	0.552370	0.672579	0.488800
C27	C	0.124818	0.173789	-0.011282
C28	C	0.624818	0.673789	0.488718
C29	C	0.169399	0.102502	-0.006658
C30	C	0.669399	0.602502	0.493342
C31	C	0.141525	0.030000	-0.001970
C32	C	0.641525	0.530000	0.498030
C33	C	0.069078	0.028793	-0.001896
C34	C	0.569078	0.528793	0.498104
C35	C	0.290568	0.049335	0.040652
C36	C	0.790568	0.549335	0.540652
C37	C	0.363014	0.050546	0.040581
C38	C	0.863014	0.550546	0.540581
C39	C	0.392851	0.106225	-0.006892
C40	C	0.892851	0.606225	0.493108
C41	C	0.350232	0.160706	-0.054286
C42	C	0.850232	0.660706	0.445714
C43	C	0.277785	0.159498	-0.054211
C44	C	0.777785	0.659498	0.445789
C45	C	0.247957	0.103804	-0.006739
C46	C	0.747957	0.603804	0.493261
C47	C	0.499273	0.180034	-0.011674
C48	C	0.999273	0.680034	0.488326
C49	C	0.571724	0.181241	-0.011760
C50	C	1.071724	0.681241	0.488240
C51	C	0.588430	0.037450	-0.002441
C52	C	1.088430	0.537450	0.497559
C53	C	0.515981	0.036245	-0.002362
C54	C	1.015981	0.536245	0.497638
C55	C	0.471407	0.107539	-0.006975
C56	C	0.971407	0.607539	0.493025
C57	C	0.825615	-0.039221	0.002532
C58	C	1.325615	0.460779	0.502532
C59	C	0.824331	-0.126787	0.008206
C60	C	1.324331	0.373213	0.508206
C61	C	0.823739	-0.167918	-0.057368
C62	C	1.323739	0.332082	0.442632
C63	C	0.822528	-0.250194	-0.052035
C64	C	1.322528	0.249806	0.447965
C65	C	0.821914	-0.291340	0.018874
C66	C	1.321914	0.208660	0.518874
C67	C	0.822503	-0.250203	0.084453
C68	C	1.322503	0.249797	0.584453
C69	C	0.823709	-0.167927	0.079119
C70	C	1.323709	0.332073	0.579119
C71	C	0.818268	-0.539760	0.038393
C72	C	1.318268	-0.039760	0.538393
C73	C	0.817064	-0.622042	0.043722
C74	C	1.317064	-0.122042	0.543722
C75	C	0.817088	-0.622028	-0.092766
C76	C	1.317088	-0.122028	0.407234
C77	C	0.818298	-0.539751	-0.098094
C78	C	1.318298	-0.039751	0.401906
C79	C	0.818884	-0.498621	-0.032515
C80	C	1.318884	0.001379	0.467485
C81	C	0.820678	-0.375440	0.024327
C82	C	1.320678	0.124560	0.524327
C83	C	0.820114	-0.414521	-0.037969
C84	C	1.320114	0.085479	0.462031
C85	C	0.947398	0.098807	-0.006420
C86	C	1.447398	0.598807	0.493580
C87	C	1.024504	0.100087	-0.006509
C88	C	1.524504	0.600087	0.493491
C89	C	0.815189	0.249261	-0.016173
C90	C	1.315189	0.749261	0.483827
C91	C	0.816473	0.336827	-0.021852
C92	C	1.316473	0.836827	0.478148
N93	N	0.820380	0.105011	0.171336
N94	N	1.320380	0.605011	0.671336
N95	N	0.820429	0.105023	-0.184975
N96	N	1.320429	0.605023	0.315025
C97	C	0.867669	0.051240	0.214209
C98	C	1.367669	0.551240	0.714209
C99	C	0.867673	0.051236	0.293012
C100	C	1.367673	0.551236	0.793012
C101	C	0.820395	0.105017	0.328936
C102	C	1.320395	0.605017	0.828936
C103	C	0.773097	0.158792	0.286053
C104	C	1.273097	0.658792	0.786053
C105	C	0.773090	0.158789	0.207253
C106	C	1.273090	0.658789	0.707253
C107	C	0.811223	0.176893	0.449113
C108	C	1.311223	0.676893	0.949113
C109	C	0.811235	0.176897	0.527912
C110	C	1.311235	0.676897	1.027912
C111	C	0.820413	0.105027	0.571982
C112	C	1.320413	0.605027	1.071982
C113	C	0.829594	0.033149	0.537244
C114	C	1.329594	0.533149	1.037244
C115	C	0.829587	0.033146	0.458444
C116	C	1.329587	0.533146	0.958444
C117	C	0.820397	0.105026	0.414381
C118	C	1.320397	0.605026	0.914381
C119	C	0.867709	0.051247	0.700302
C120	C	1.367709	0.551247	1.200302
C121	C	0.867708	0.051243	0.779105
C122	C	1.367708	0.551243	1.279105
C123	C	0.773136	0.158805	0.772145
C124	C	1.273136	0.658805	1.272145
C125	C	0.773133	0.158803	0.693344
C126	C	1.273133	0.658803	1.193344
C127	C	0.820423	0.105025	0.657427
C128	C	1.320423	0.605025	1.157427
H129	H	0.397709	0.006188	0.079176
H130	H	0.897709	0.506188	0.579176
Cl131	Cl	0.799749	0.267255	0.393719
Cl132	Cl	1.299749	0.767255	0.893719
H133	H	0.837067	-0.025375	0.573125
H134	H	1.337067	0.474625	1.073125
H135	H	0.734581	0.202576	0.172345
H136	H	1.234581	0.702576	0.672345
H137	H	0.243087	0.203857	-0.092802
H138	H	0.743087	0.703857	0.407198
Cl139	Cl	0.824452	-0.116219	0.161559
Cl140	Cl	1.324452	0.383781	0.661559
Cl141	Cl	0.821786	-0.301899	-0.134476
Cl142	Cl	1.321786	0.198101	0.365524
H143	H	0.266282	0.003991	0.079312
H144	H	0.766282	0.503991	0.579312
Cl145	Cl	0.927114	-0.016369	0.169057
Cl146	Cl	1.427114	0.483631	0.669057
Cl147	Cl	0.606755	0.272383	-0.017667
Cl148	Cl	1.106755	0.772383	0.482333
H149	H	0.906213	0.007455	0.671057
H150	H	1.406213	0.507455	1.171057
Cl151	Cl	0.816296	-0.673767	0.132871
Cl152	Cl	1.316296	-0.173767	0.632871
H153	H	0.820180	-0.408950	0.082061
H154	H	1.320180	0.091050	0.582061
Cl155	Cl	0.927157	-0.016365	0.833007
Cl156	Cl	1.427157	0.483635	1.333007
Cl157	Cl	0.818993	-0.488062	0.120837
Cl158	Cl	1.318993	0.011938	0.620837
Cl159	Cl	0.819072	-0.488032	-0.187240
Cl160	Cl	1.319072	0.011968	0.312760
H161	H	0.824243	-0.134424	-0.115110
H162	H	1.324243	0.365576	0.384890
Cl163	Cl	0.927127	-0.016367	0.346918
Cl164	Cl	1.427127	0.483633	0.846918
H165	H	0.821999	-0.283709	0.142188
H166	H	1.321999	0.216291	0.642188
Cl167	Cl	0.820890	-0.362795	-0.127108
Cl168	Cl	1.320890	0.137205	0.372892
H169	H	0.837060	-0.025379	0.430164
H170	H	1.337060	0.474621	0.930164
H171	H	0.177828	-0.028041	0.001793
H172	H	0.677828	0.471959	0.501793
H173	H	0.046391	-0.030241	0.001924
H174	H	0.546391	0.469759	0.501924
Cl175	Cl	0.644467	-0.052169	0.003361
Cl176	Cl	1.144467	0.447831	0.503361
Cl177	Cl	0.799699	0.267256	0.571575
Cl178	Cl	1.299699	0.767256	1.071575
H179	H	0.462979	0.238086	-0.015431
H180	H	0.962979	0.738086	0.484569
Cl181	Cl	0.713695	0.226410	0.817303
Cl182	Cl	1.213695	0.726410	1.317303
H183	H	0.493293	-0.022786	0.001463
H184	H	0.993293	0.477214	0.501463
H185	H	0.816610	-0.655525	-0.146157
H186	H	1.316610	-0.155525	0.353843
H187	H	0.734602	0.202580	0.315307
H188	H	1.234602	0.702580	0.815307
Cl189	Cl	-0.003663	0.262206	-0.017009
Cl190	Cl	0.496337	0.762206	0.482991
Cl191	Cl	0.387731	0.230715	-0.113962
Cl192	Cl	0.887731	0.730715	0.386038
Cl193	Cl	0.159858	0.264929	-0.017178
Cl194	Cl	0.659858	0.764929	0.482822
H195	H	0.734629	0.202591	0.658433
H196	H	1.234629	0.702591	1.158433
