data_functionalizedCrystal
_audit_creation_method	'MofGen! by Chris Wilmer'
_symmetry_space_group_name_H-M	'P1'
_symmetry_Int_Tables_number	1
_symmetry_cell_setting	triclinic
loop_
_symmetry_equiv_pos_as_xyz
  x,y,z
_cell_length_a	18.050591
_cell_length_b	16.625546
_cell_length_c	16.625539
_cell_angle_alpha	89.971468
_cell_angle_beta	89.987293
_cell_angle_gamma	90.021309
loop_
_atom_site_label
_atom_site_type_symbol
_atom_site_fract_x
_atom_site_fract_y
_atom_site_fract_z
Zn1	Zn	1.135338	-0.321040	-0.455804
Zn2	Zn	1.135256	-0.455879	-0.320966
Zn3	Zn	1.011153	-0.321061	-0.320995
Zn4	Zn	1.011118	-0.455832	-0.455766
O5	O	1.073216	-0.388453	-0.388383
O6	O	1.239252	-0.338938	-0.437921
O7	O	1.118774	-0.438023	-0.208138
O8	O	1.027675	-0.208226	-0.338905
O9	O	1.239192	-0.438003	-0.338857
O10	O	1.118913	-0.208210	-0.437949
O11	O	1.027596	-0.338973	-0.208159
O12	O	0.907223	-0.338928	-0.338869
O13	O	1.027615	-0.437923	-0.568604
O14	O	0.907198	-0.437943	-0.437885
O15	O	1.118879	-0.338892	-0.568632
O16	O	1.118740	-0.568705	-0.338820
O17	O	1.027536	-0.568670	-0.437857
C18	C	1.073146	-0.597944	-0.388349
C19	C	1.073184	-0.687565	-0.388362
C20	C	0.880264	-0.388433	-0.388376
C21	C	0.797718	-0.388444	-0.388393
C22	C	1.073313	-1.015740	-0.388446
C23	C	1.073275	-0.924432	-0.388425
C24	C	1.073248	-0.851656	-0.388403
C25	C	1.073211	-0.760341	-0.388383
C26	C	0.548900	-0.442400	-0.442164
C27	C	0.598270	-0.462026	-0.368568
C28	C	0.500598	-0.388469	-0.388391
C29	C	0.598310	-0.368869	-0.461984
C30	C	0.646583	-0.388459	-0.388396
C31	C	0.548880	-0.408134	-0.314756
C32	C	0.548916	-0.314942	-0.408222
C33	C	0.598263	-0.334540	-0.334574
C34	C	0.416500	-0.388478	-0.388390
C35	C	0.730680	-0.388451	-0.388389
C36	C	1.266922	-0.388473	-0.388390
C37	C	1.349468	-0.388482	-0.388393
C38	C	1.073253	-0.388400	-0.598692
C39	C	1.073268	-0.388377	-0.688313
C40	C	1.073307	-0.178144	-0.388434
C41	C	1.073346	-0.088523	-0.388456
C42	C	1.073280	-0.388359	-0.761096
C43	C	1.073298	-0.388329	-0.852404
C44	C	1.073315	-0.388301	-0.925181
C45	C	1.073334	-0.388272	-1.016495
C46	C	1.073223	-0.388448	-0.178892
C47	C	1.073351	-0.388243	-0.089271
H48	H	0.527226	-0.488047	-0.487579
H49	H	0.620023	-0.352295	-0.524219
O50	O	0.522968	-0.428022	-0.240546
C51	C	0.444863	-0.427802	-0.241443
H52	H	0.424428	-0.436850	-0.305681
H53	H	0.423729	-0.367763	-0.217597
C54	C	0.440797	-0.485333	-0.108964
C55	C	0.415699	-0.496452	-0.187861
H56	H	0.422806	-0.527676	-0.075910
H57	H	0.493418	-0.485479	-0.108358
H58	H	0.423183	-0.435298	-0.089104
H59	H	0.433320	-0.546481	-0.207724
H60	H	0.363080	-0.496316	-0.188470
H61	H	0.619948	-0.524202	-0.351790
O62	O	0.623841	-0.280118	-0.280208
C63	C	0.563417	-0.242548	-0.241806
H64	H	0.512587	-0.283047	-0.245957
H65	H	0.551260	-0.182666	-0.272514
C66	C	0.644932	-0.177954	-0.147671
C67	C	0.582503	-0.227698	-0.152764
H68	H	0.656705	-0.168789	-0.092747
H69	H	0.685641	-0.203262	-0.173545
H70	H	0.634793	-0.128057	-0.173266
H71	H	0.592646	-0.277596	-0.127179
H72	H	0.541796	-0.202397	-0.126884
O73	O	0.523060	-0.240814	-0.428400
C74	C	0.548217	-0.220377	-0.506061
H75	H	0.562080	-0.277558	-0.540746
H76	H	0.599888	-0.181249	-0.501043
C77	C	0.470144	-0.103437	-0.508217
C78	C	0.487165	-0.173668	-0.550820
H79	H	0.432487	-0.074622	-0.535826
H80	H	0.453197	-0.117204	-0.455894
H81	H	0.513208	-0.070840	-0.504038
H82	H	0.444104	-0.206269	-0.554989
H83	H	0.504103	-0.159906	-0.603145
