data_functionalizedCrystal
_audit_creation_method	'MofGen! by Chris Wilmer'
_symmetry_space_group_name_H-M	'P1'
_symmetry_Int_Tables_number	1
_symmetry_cell_setting	triclinic
loop_
_symmetry_equiv_pos_as_xyz
  x,y,z
_cell_length_a	6.817900
_cell_length_b	10.943867
_cell_length_c	10.943624
_cell_angle_alpha	91.774148
_cell_angle_beta	108.838799
_cell_angle_gamma	108.843261
loop_
_atom_site_label
_atom_site_type_symbol
_atom_site_fract_x
_atom_site_fract_y
_atom_site_fract_z
V1	V	-4.115528	-0.178599	-0.402537
O2	O	-4.073202	0.008617	-0.394889
O3	O	-4.093511	-0.354166	-0.399769
O4	O	-4.093490	-0.175837	-0.578103
O5	O	-4.073223	-0.170946	-0.215320
V6	V	-4.592321	-0.156208	-0.380146
O7	O	-4.391548	-0.227717	-0.451653
O8	O	-4.766498	-0.107090	-0.331030
O9	O	-4.391132	0.019359	-0.382913
O10	O	-4.752044	-0.343425	-0.387794
O11	O	-4.752023	-0.163861	-0.567362
O12	O	-4.391153	-0.158970	-0.204579
C13	C	-3.944077	-0.396966	-0.393415
C14	C	-4.007537	-0.540494	-0.392323
C15	C	-4.236980	-0.631377	-0.398403
C16	C	-4.234083	-0.730484	-0.501327
C17	C	-4.123503	-0.697130	-0.287478
C18	C	-4.003849	-0.637725	-0.495350
C19	C	-3.893244	-0.604349	-0.281406
C20	C	-3.890203	-0.703417	-0.384352
C21	C	-3.944049	-0.169488	-0.620897
C22	C	-4.007489	-0.168391	-0.764423
C23	C	-3.852317	-0.161004	-0.841571
C24	C	-4.041696	-0.270650	-0.947552
C25	C	-3.931175	-0.056802	-0.914183
C26	C	-4.196078	-0.278140	-0.868528
C27	C	-4.085477	-0.064195	-0.835135
C28	C	-4.274992	-0.173873	-0.941086
C29	C	-4.203909	0.062152	-0.389264
C30	C	-4.119688	0.205678	-0.390364
C31	C	-4.203936	-0.165324	-0.161779
C32	C	-4.119733	-0.166414	-0.018251
H33	H	-3.952800	-0.611364	-0.583305
O34	O	-3.798646	0.054833	-0.939060
C35	C	-3.929058	0.125271	-1.006908
H36	H	-4.106503	0.055741	-1.058663
H37	H	-3.926996	0.203584	-0.934855
C38	C	-3.616659	0.275747	-1.044872
C39	C	-3.834596	0.190347	-1.108448
H40	H	-3.558387	0.315894	-1.107503
H41	H	-3.528794	0.228295	-0.999158
H42	H	-3.614969	0.340996	-0.984830
H43	H	-3.836279	0.125090	-1.168475
H44	H	-3.922459	0.237789	-1.154175
H45	H	-3.744035	-0.735038	-0.378430
O46	O	-4.329237	-0.389907	-0.844250
C47	C	-4.482569	-0.467036	-0.963440
H48	H	-4.504092	-0.402159	-1.042609
H49	H	-4.418874	-0.543664	-0.992369
C50	C	-4.680596	-0.615093	-0.850375
C51	C	-4.707044	-0.535408	-0.947610
H52	H	-4.819060	-0.657274	-0.840610
H53	H	-4.577289	-0.563133	-0.770073
H54	H	-4.627509	-0.678939	-0.874495
H55	H	-4.760103	-0.471554	-0.923481
H56	H	-4.810365	-0.587359	-1.027907
H57	H	-4.023850	-0.357931	-0.996494
H58	H	-4.174768	-0.723670	-0.199626
H59	H	-3.673115	-0.155709	-0.798123
O60	O	-4.489034	-0.180620	-0.992664
C61	C	-4.628559	-0.297369	-0.969836
H62	H	-4.541836	-0.371924	-0.953945
H63	H	-4.667721	-0.276776	-0.879297
C64	C	-4.951731	-0.260438	-1.108185
C65	C	-4.845223	-0.352011	-1.088679
H66	H	-5.085385	-0.294142	-1.181489
H67	H	-4.857732	-0.181779	-1.123561
H68	H	-4.984345	-0.243285	-1.032727
H69	H	-4.812586	-0.369150	-1.164128
H70	H	-4.939222	-0.430674	-1.073318
O71	O	-4.410977	-0.593285	-0.405422
C72	C	-4.352367	-0.502130	-0.294271
H73	H	-4.211221	-0.515073	-0.211508
H74	H	-4.296929	-0.398897	-0.318792
C75	C	-4.727257	-0.508629	-0.353180
C76	C	-4.553910	-0.524533	-0.251526
H77	H	-4.851578	-0.522443	-0.326815
H78	H	-4.766743	-0.570038	-0.428067
H79	H	-4.681029	-0.422601	-0.373605
H80	H	-4.600130	-0.610565	-0.231113
H81	H	-4.514436	-0.463139	-0.176633
O82	O	-4.107022	0.039879	-0.776850
C83	C	-4.328373	0.034094	-0.829466
H84	H	-4.411316	-0.027266	-0.930570
H85	H	-4.421011	-0.012182	-0.762887
C86	C	-4.231110	0.248537	-0.716124
C87	C	-4.332977	0.173182	-0.840307
H88	H	-4.233955	0.334333	-0.722807
H89	H	-4.081983	0.252434	-0.680671
H90	H	-4.308322	0.209959	-0.660655
H91	H	-4.255749	0.211752	-0.895769
H92	H	-4.482093	0.169295	-0.875770
H93	H	-4.378774	-0.785226	-0.594298
H94	H	-3.748608	-0.549581	-0.188434
