data_functionalizedCrystal
_audit_creation_method	'MofGen! by Chris Wilmer'
_symmetry_space_group_name_H-M	'P1'
_symmetry_Int_Tables_number	1
_symmetry_cell_setting	triclinic
loop_
_symmetry_equiv_pos_as_xyz
  x,y,z
_cell_length_a	9.565339
_cell_length_b	10.489689
_cell_length_c	14.519709
_cell_angle_alpha	95.901017
_cell_angle_beta	90.000599
_cell_angle_gamma	90.008184
loop_
_atom_site_label
_atom_site_type_symbol
_atom_site_fract_x
_atom_site_fract_y
_atom_site_fract_z
O1	O	-0.116367	-1.692741	0.129877
O2	O	0.383633	-1.192741	0.629877
O3	O	-0.116347	-1.321409	0.142140
O4	O	0.383653	-0.821409	0.642140
O5	O	-0.116345	-1.516920	0.001822
O6	O	0.383655	-1.016920	0.501822
O7	O	-0.116369	-1.497229	0.270195
O8	O	0.383631	-0.997229	0.770195
O9	O	0.116175	-1.516899	0.001835
O10	O	0.616175	-1.016899	0.501835
O11	O	0.116173	-1.321387	0.142153
O12	O	0.616173	-0.821387	0.642153
O13	O	0.116153	-1.692719	0.129889
O14	O	0.616153	-1.192719	0.629889
Zn15	Zn	0.153080	-1.507050	0.136023
Zn16	Zn	0.653080	-1.007050	0.636023
Zn17	Zn	-0.153275	-1.507078	0.136007
Zn18	Zn	0.346725	-1.007078	0.636007
O19	O	0.116151	-1.497208	0.270207
O20	O	0.616151	-0.997208	0.770207
C21	C	-0.000085	-1.273875	0.141231
C22	C	0.499915	-0.773875	0.641231
C23	C	-0.000077	-1.132271	0.138490
C24	C	0.499923	-0.632271	0.638490
N25	N	0.362160	-1.507040	0.136034
N26	N	0.862160	-1.007040	0.636034
C27	C	-0.000095	-0.949003	0.222877
C28	C	0.499905	-0.449003	0.722877
C29	C	-0.114736	-1.041599	0.180718
C30	C	0.385264	-0.541599	0.680718
C31	C	0.114510	-1.041551	0.180708
C32	C	0.614510	-0.541551	0.680708
C33	C	-0.114835	-0.972578	0.091402
C34	C	0.385165	-0.472578	0.591402
C35	C	0.114515	-0.972521	0.091405
C36	C	0.614515	-0.472521	0.591405
C37	C	-0.000154	-1.065091	0.049181
C38	C	0.499846	-0.565091	0.549181
C39	C	0.453362	-1.416593	0.200906
C40	C	0.953362	-0.916593	0.700906
C41	C	0.546533	-1.531896	0.219553
C42	C	1.046533	-1.031896	0.719553
C43	C	0.546544	-1.391780	0.117400
C44	C	1.046544	-0.891780	0.617400
C45	C	0.453279	-1.622401	0.154723
C46	C	0.953279	-1.122401	0.654723
C47	C	0.453282	-1.482210	0.052533
C48	C	0.953282	-0.982210	0.552533
C49	C	0.546411	-1.597596	0.071144
C50	C	1.046411	-1.097596	0.571144
N51	N	0.637646	-1.507073	0.136005
N52	N	1.137646	-1.007073	0.636005
C53	C	-0.000085	-1.515992	-0.032536
C54	C	0.499915	-1.015992	0.467464
C55	C	-0.000084	-1.513242	-0.134932
C56	C	0.499916	-1.013242	0.365068
C57	C	-0.000105	-0.740251	0.130814
C58	C	0.499895	-0.240251	0.630814
C59	C	-0.000098	-0.881847	0.133598
C60	C	0.499902	-0.381847	0.633598
C61	C	-0.000120	-1.503118	-0.509881
C62	C	0.499880	-1.003118	-0.009881
C63	C	-0.000109	-1.505929	-0.405558
C64	C	0.499891	-1.005929	0.094442
C65	C	-0.000101	-1.508180	-0.322410
C66	C	0.499899	-1.008180	0.177590
C67	C	-0.000093	-1.510992	-0.218080
C68	C	0.499907	-1.010992	0.281920
C69	C	-0.000113	-1.498136	0.304566
C70	C	0.499887	-0.998136	0.804566
C71	C	-0.000123	-1.500886	0.406962
C72	C	0.499877	-1.000886	0.906962
H73	H	-0.000214	-0.898547	0.296264
H74	H	0.499786	-0.398547	0.796264
F75	F	0.241187	-1.081492	0.230110
F76	F	0.741187	-0.581492	0.730110
F77	F	-0.241432	-1.081596	0.230084
F78	F	0.258568	-0.581596	0.730084
H79	H	0.211447	-0.941882	0.053665
H80	H	0.711447	-0.441882	0.553665
H81	H	-0.211865	-0.942172	0.053657
H82	H	0.288135	-0.442172	0.553657
F83	F	0.399699	-1.454681	-0.039722
F84	F	0.899699	-0.954681	0.460278
F85	F	0.399953	-1.316713	0.272674
F86	F	0.899953	-0.816713	0.772674
H87	H	-0.000207	-1.115314	-0.024274
H88	H	0.499793	-0.615314	0.475726
F89	F	0.600071	-1.559381	0.311834
F90	F	1.100071	-1.059381	0.811834
F91	F	0.399963	-1.749855	0.175415
F92	F	0.899963	-1.249855	0.675415
H93	H	0.587010	-1.674182	0.016269
H94	H	1.087010	-1.174182	0.516269
F95	F	0.600095	-1.264359	0.096813
F96	F	1.100095	-0.764359	0.596813
