data_functionalizedCrystal
_audit_creation_method	'MofGen! by Chris Wilmer'
_symmetry_space_group_name_H-M	'P1'
_symmetry_Int_Tables_number	1
_symmetry_cell_setting	triclinic
loop_
_symmetry_equiv_pos_as_xyz
  x,y,z
_cell_length_a	6.817900
_cell_length_b	11.102188
_cell_length_c	16.418042
_cell_angle_alpha	93.889947
_cell_angle_beta	103.389568
_cell_angle_gamma	108.603875
loop_
_atom_site_label
_atom_site_type_symbol
_atom_site_fract_x
_atom_site_fract_y
_atom_site_fract_z
V1	V	-4.051811	-0.176872	-0.261154
O2	O	-4.011991	0.007436	-0.256182
O3	O	-4.028987	-0.349685	-0.259368
O4	O	-4.002551	-0.174618	-0.375052
O5	O	-4.038610	-0.168843	-0.139697
V6	V	-4.532237	-0.154771	-0.246627
O7	O	-4.319865	-0.225351	-0.293020
O8	O	-4.714381	-0.106292	-0.214760
O9	O	-4.331854	0.018042	-0.248413
O10	O	-4.689454	-0.339080	-0.251598
O11	O	-4.662835	-0.162800	-0.368083
O12	O	-4.358290	-0.157026	-0.132728
C13	C	-3.880238	-0.391798	-0.255248
C14	C	-3.942858	-0.533078	-0.254547
C15	C	-3.929645	-0.580999	-0.177514
C16	C	-3.988507	-0.713748	-0.176859
C17	C	-4.073783	-0.750644	-0.330276
C18	C	-4.014937	-0.617898	-0.330930
C19	C	-3.846515	-0.168481	-0.402814
C20	C	-3.887692	-0.167781	-0.495926
C21	C	-4.165414	-0.172509	-0.714412
C22	C	-4.204084	-0.171841	-0.801899
C23	C	-3.837989	-0.159127	-0.793357
C24	C	-3.799318	-0.159787	-0.705870
C25	C	-3.963041	-0.166484	-0.666400
C26	C	-4.040381	-0.165157	-0.841375
C27	C	-4.082307	-0.164432	-0.936232
C28	C	-3.921112	-0.167207	-0.571536
C29	C	-4.143947	0.060148	-0.252530
C30	C	-4.060565	0.201427	-0.253237
C31	C	-4.177670	-0.163166	-0.104962
C32	C	-4.115730	-0.163859	-0.011849
H33	H	-3.977745	-0.752757	-0.114131
N34	N	-4.151494	-0.842114	-0.412662
H35	H	-4.284379	-0.831481	-0.449149
H36	H	-4.186645	-0.933443	-0.400498
H37	H	-4.025711	-0.578883	-0.393664
N38	N	-3.851896	-0.489527	-0.095127
H39	H	-3.967980	-0.508971	-0.064317
H40	H	-3.816575	-0.398192	-0.107288
N41	N	-4.341972	-0.179719	-0.671832
H42	H	-4.467794	-0.261561	-0.697060
H43	H	-4.389479	-0.103139	-0.680795
H44	H	-4.368873	-0.176745	-0.840986
H45	H	-3.704698	-0.153678	-0.825504
N46	N	-3.581024	-0.153291	-0.654087
H47	H	-3.595877	-0.232460	-0.625732
H48	H	-3.517876	-0.074048	-0.609509
