data_functionalizedCrystal
_audit_creation_method	'MofGen! by Chris Wilmer'
_symmetry_space_group_name_H-M	'P1'
_symmetry_Int_Tables_number	1
_symmetry_cell_setting	triclinic
loop_
_symmetry_equiv_pos_as_xyz
  x,y,z
_cell_length_a	19.121102
_cell_length_b	19.121063
_cell_length_c	19.121504
_cell_angle_alpha	94.868905
_cell_angle_beta	85.146587
_cell_angle_gamma	90.126902
loop_
_atom_site_label
_atom_site_type_symbol
_atom_site_fract_x
_atom_site_fract_y
_atom_site_fract_z
Zn1	Zn	1.079009	-0.344575	-0.457756
Zn2	Zn	1.579009	0.155425	0.042244
Zn3	Zn	1.069182	-0.456954	-0.344679
Zn4	Zn	1.569182	0.043046	0.155321
Zn5	Zn	0.956620	-0.334299	-0.334672
Zn6	Zn	1.456620	0.165701	0.165328
Zn7	Zn	0.956714	-0.456745	-0.457284
Zn8	Zn	1.456714	0.043255	0.042716
O9	O	1.015381	-0.398143	-0.398597
O10	O	1.515381	0.101857	0.101403
O11	O	1.175994	-0.363870	-0.447141
O12	O	1.675994	0.136130	0.052859
O13	O	1.050098	-0.436471	-0.244714
O14	O	1.550098	0.063529	0.255286
O15	O	0.976928	-0.237387	-0.347009
O16	O	1.476928	0.262613	0.152991
O17	O	1.168774	-0.446434	-0.364064
O18	O	1.668774	0.053566	0.135936
O19	O	1.066847	-0.244937	-0.437438
O20	O	1.566847	0.255063	0.062562
O21	O	0.967399	-0.346357	-0.237362
O22	O	1.467399	0.153643	0.262638
O23	O	0.858344	-0.346154	-0.346551
O24	O	1.358344	0.153846	0.153449
O25	O	0.977089	-0.446078	-0.555983
O26	O	1.477089	0.053922	-0.055983
O27	O	0.858413	-0.436114	-0.436634
O28	O	1.358413	0.063886	0.063366
O29	O	1.066938	-0.363667	-0.556330
O30	O	1.566938	0.136333	-0.056330
O31	O	1.050190	-0.555201	-0.363606
O32	O	1.550190	-0.055201	0.136394
O33	O	0.967560	-0.555047	-0.446337
O34	O	1.467560	-0.055047	0.053663
C35	C	0.832893	-0.389997	-0.390456
C36	C	1.332893	0.110003	0.109544
C37	C	0.754824	-0.386530	-0.386990
C38	C	1.254824	0.113470	0.113010
C39	C	0.718195	-0.431803	-0.432195
C40	C	1.218195	0.068197	0.067805
C41	C	0.644842	-0.428536	-0.428942
C42	C	1.144842	0.071464	0.071058
C43	C	0.608117	-0.379998	-0.380480
C44	C	1.108117	0.120002	0.119520
C45	C	0.644751	-0.334720	-0.335273
C46	C	1.144751	0.165280	0.164727
C47	C	0.718104	-0.337984	-0.338530
C48	C	1.218104	0.162016	0.161470
C49	C	0.386637	-0.367793	-0.368305
C50	C	0.886637	0.132207	0.131695
C51	C	0.313279	-0.364534	-0.365050
C52	C	0.813279	0.135466	0.134950
C53	C	0.313375	-0.458349	-0.458720
C54	C	0.813375	0.041651	0.041280
C55	C	0.386729	-0.461611	-0.461970
C56	C	0.886729	0.038389	0.038030
C57	C	0.423357	-0.416331	-0.416766
C58	C	0.923357	0.083669	0.083234
C59	C	0.533138	-0.376659	-0.377151
C60	C	1.033138	0.123341	0.122849
C61	C	0.498335	-0.419667	-0.420098
C62	C	0.998335	0.080333	0.079902
C63	C	1.007839	-0.580607	-0.406023
C64	C	1.507839	-0.080607	0.093977
C65	C	1.004677	-0.658670	-0.409226
C66	C	1.504677	-0.158670	0.090774
C67	C	1.046249	-0.695404	-0.367696
C68	C	1.546249	-0.195404	0.132304
C69	C	1.043280	-0.768753	-0.370713
C70	C	1.543280	-0.268753	0.129287
C71	C	0.998735	-0.805366	-0.415256
C72	C	1.498735	-0.305366	0.084744
C73	C	0.957161	-0.768627	-0.456790
C74	C	1.457161	-0.268627	0.043210
C75	C	0.960134	-0.695280	-0.453777
C76	C	1.460134	-0.195280	0.046223
C77	C	0.987607	-1.026824	-0.426511
C78	C	1.487607	-0.526824	0.073489
C79	C	0.984636	-1.100176	-0.429520
C80	C	1.484636	-0.600176	0.070480
C81	C	1.070756	-1.100297	-0.343443
C82	C	1.570756	-0.600297	0.156557
C83	C	1.073722	-1.026948	-0.340430
C84	C	1.573722	-0.526948	0.159570
C85	C	1.032151	-0.990216	-0.381967
C86	C	1.532151	-0.490216	0.118033
C87	C	0.995698	-0.880340	-0.418339
C88	C	1.495698	-0.380340	0.081661
C89	C	1.035193	-0.915243	-0.378887
C90	C	1.535193	-0.415243	0.121113
C91	C	1.198582	-0.406322	-0.406771
C92	C	1.698582	0.093678	0.093229
C93	C	1.276651	-0.409807	-0.410255
C94	C	1.776651	0.090193	0.089745
C95	C	1.023120	-0.405996	-0.582447
C96	C	1.523120	0.094004	-0.082447
C97	C	1.026418	-0.409342	-0.660793
C98	C	1.526418	0.090658	-0.160793
C99	C	1.022973	-0.214968	-0.391160
C100	C	1.522973	0.285032	0.108840
C101	C	1.026208	-0.136910	-0.387990
C102	C	1.526208	0.363090	0.112010
C103	C	1.007715	-0.390272	-0.215463
C104	C	1.507715	0.109728	0.284537
C105	C	1.004561	-0.386734	-0.137116
C106	C	1.504561	0.113266	0.362884
C107	C	1.046471	-0.431674	-0.104101
C108	C	1.546471	0.068326	0.395899
C109	C	1.043497	-0.428354	-0.030485
C110	C	1.543497	0.071646	0.469515
C111	C	0.998617	-0.380090	0.010115
C112	C	1.498617	0.119910	0.510115
C113	C	0.956703	-0.335148	-0.022904
C114	C	1.456703	0.164852	0.477096
C115	C	0.959673	-0.338472	-0.096519
C116	C	1.459673	0.161528	0.403481
C117	C	0.987474	-0.367724	0.232573
C118	C	1.487474	0.132276	0.732573
C119	C	0.984508	-0.364402	0.306193
C120	C	1.484508	0.135598	0.806193
C121	C	1.071302	-0.457609	0.298607
C122	C	1.571302	0.042391	0.798607
C123	C	1.074271	-0.460926	0.224991
C124	C	1.574271	0.039074	0.724991
C125	C	1.032355	-0.415987	0.191978
C126	C	1.532355	0.084013	0.691978
C127	C	0.995578	-0.376693	0.085362
C128	C	1.495578	0.123307	0.585362
C129	C	1.035390	-0.419388	0.116732
C130	C	1.535390	0.080612	0.616732
H131	H	0.416625	-0.501137	-0.501432
H132	H	0.916625	-0.001137	-0.001432
Cl133	Cl	0.907872	-0.649100	-0.505990
Cl134	Cl	1.407872	-0.149100	-0.005990
H135	H	0.283381	-0.325001	-0.325590
H136	H	0.783381	0.174999	0.174410
Cl137	Cl	0.934746	-0.311259	0.191081
Cl138	Cl	1.434746	0.188741	0.691081
H139	H	0.614844	-0.295197	-0.295817
H140	H	1.114844	0.204803	0.204183
Cl141	Cl	1.129735	-0.980926	-0.284441
Cl142	Cl	1.629735	-0.480926	0.215559
H143	H	1.104602	-1.130212	-0.309627
H144	H	1.604602	-0.630212	0.190373
H145	H	1.110817	-0.500228	0.191939
H146	H	1.610817	-0.000228	0.691939
Cl147	Cl	0.267325	-0.515270	-0.515544
Cl148	Cl	0.767325	-0.015270	-0.015544
Cl149	Cl	0.901165	-0.814655	-0.512792
Cl150	Cl	1.401165	-0.314655	-0.012792
H151	H	1.071465	-0.885431	-0.342623
H152	H	1.571465	-0.385431	0.157377
Cl153	Cl	0.544504	-0.480683	-0.481020
Cl154	Cl	1.044504	0.019317	0.018980
H155	H	1.077132	-0.798658	-0.336894
H156	H	1.577132	-0.298658	0.163106
H157	H	0.925547	-0.301877	-0.123398
H158	H	1.425547	0.198123	0.376602
H159	H	0.416450	-0.330927	-0.331491
H160	H	0.916450	0.169073	0.168509
H161	H	0.747926	-0.301115	-0.301723
H162	H	1.247926	0.198885	0.198277
H163	H	0.503229	-0.337141	-0.337692
H164	H	1.003229	0.162859	0.162308
H165	H	1.082520	-0.665598	-0.331421
H166	H	1.582520	-0.165598	0.168579
H167	H	0.959038	-0.337396	0.118427
H168	H	1.459038	0.162604	0.618427
H169	H	0.947963	-0.325095	0.339248
H170	H	1.447963	0.174905	0.839248
Cl171	Cl	0.928622	-1.146202	-0.485512
Cl172	Cl	1.428622	-0.646202	0.014488
H173	H	0.953757	-0.996922	-0.460331
H174	H	1.453757	-0.496922	0.039669
H175	H	0.920158	-0.295854	0.010158
H176	H	1.420158	0.204146	0.510158
Cl177	Cl	0.939699	-0.926374	-0.474334
Cl178	Cl	1.439699	-0.426374	0.025666
Cl179	Cl	1.102898	-0.492348	-0.155135
Cl180	Cl	1.602898	0.007652	0.344865
Cl181	Cl	1.096187	-0.484851	0.011015
Cl182	Cl	1.596187	0.015149	0.511015
Cl183	Cl	1.123992	-0.514102	0.340113
Cl184	Cl	1.623992	-0.014102	0.840113
Cl185	Cl	1.091806	-0.480063	0.065691
Cl186	Cl	1.591806	0.019937	0.565691
Cl187	Cl	0.764356	-0.492828	-0.493119
Cl188	Cl	1.264356	0.007172	0.006881
Cl189	Cl	0.598798	-0.485454	-0.485774
Cl190	Cl	1.098798	0.014546	0.014226
