data_functionalizedCrystal
_audit_creation_method	'MofGen! by Chris Wilmer'
_symmetry_space_group_name_H-M	'P1'
_symmetry_Int_Tables_number	1
_symmetry_cell_setting	triclinic
loop_
_symmetry_equiv_pos_as_xyz
  x,y,z
_cell_length_a	16.959455
_cell_length_b	13.897448
_cell_length_c	13.897441
_cell_angle_alpha	90.029627
_cell_angle_beta	90.018627
_cell_angle_gamma	90.014639
loop_
_atom_site_label
_atom_site_type_symbol
_atom_site_fract_x
_atom_site_fract_y
_atom_site_fract_z
Zn1	Zn	1.208430	-0.384072	0.545382
Zn2	Zn	1.208349	-0.545391	0.384083
Zn3	Zn	1.076249	-0.384103	0.384100
Zn4	Zn	1.076229	-0.545318	0.545336
O5	O	1.142314	-0.464721	0.464725
O6	O	1.319030	-0.405489	0.523998
O7	O	1.190799	-0.524039	0.249104
O8	O	1.093826	-0.249117	0.405521
O9	O	1.318970	-0.524009	0.405492
O10	O	1.190939	-0.249094	0.524014
O11	O	1.093746	-0.405542	0.249116
O12	O	0.965635	-0.405471	0.405476
O13	O	1.093792	-0.523885	0.680324
O14	O	0.965621	-0.523915	0.523935
O15	O	1.190920	-0.405418	0.680358
O16	O	1.190780	-0.680363	0.405447
O17	O	1.093712	-0.680309	0.523919
C18	C	0.936948	-0.464689	0.464703
C19	C	0.849091	-0.464699	0.464717
C20	C	1.142257	-0.715335	0.464697
C21	C	1.142304	-0.822549	0.464718
C22	C	0.477599	-0.402997	0.403172
C23	C	0.477633	-0.526525	0.526333
C24	C	0.560178	-0.526511	0.526327
C25	C	0.601438	-0.464740	0.464742
C26	C	0.560153	-0.402983	0.403163
C27	C	0.601471	-0.588274	0.587899
C28	C	0.684021	-0.588263	0.587895
C29	C	0.725283	-0.526487	0.526313
C30	C	0.683992	-0.464726	0.464732
C31	C	0.725252	-0.402955	0.403147
C32	C	0.683962	-0.341189	0.341570
C33	C	0.601414	-0.341206	0.341581
C34	C	0.807831	-0.526470	0.526302
C35	C	0.807805	-0.402942	0.403137
C36	C	1.142387	-1.018844	0.464778
C37	C	1.142339	-0.909612	0.464747
C38	C	1.348482	-0.464754	0.464748
C39	C	1.436339	-0.464768	0.464758
C40	C	1.142363	-0.464640	0.716318
C41	C	1.142383	-0.464605	0.823532
C42	C	1.142394	-0.213128	0.464774
C43	C	1.142428	-0.105914	0.464795
C44	C	1.142312	-0.464732	0.214111
C45	C	1.142444	-0.464495	0.106898
C46	C	1.142399	-0.464578	0.910602
C47	C	1.142422	-0.464535	1.019835
H48	H	0.841394	-0.352634	0.352992
Br49	Br	0.863864	-0.610296	0.609855
H50	H	0.717567	-0.290900	0.291423
H51	H	0.567789	-0.290921	0.291448
Br52	Br	0.421567	-0.319168	0.319615
H53	H	0.444034	-0.576821	0.576468
Br54	Br	0.545472	-0.672136	0.671437
Br55	Br	0.740050	-0.672085	0.671462
