data_functionalizedCrystal
_audit_creation_method	'MofGen! by Chris Wilmer'
_symmetry_space_group_name_H-M	'P1'
_symmetry_Int_Tables_number	1
_symmetry_cell_setting	triclinic
loop_
_symmetry_equiv_pos_as_xyz
  x,y,z
_cell_length_a	19.288864
_cell_length_b	10.489741
_cell_length_c	18.366186
_cell_angle_alpha	89.995469
_cell_angle_beta	89.976766
_cell_angle_gamma	83.837710
loop_
_atom_site_label
_atom_site_type_symbol
_atom_site_fract_x
_atom_site_fract_y
_atom_site_fract_z
O1	O	0.922420	0.159107	-0.060783
O2	O	0.720304	0.180571	-0.060733
O3	O	0.825961	-0.015863	-0.060755
O4	O	0.816763	0.355541	-0.060761
O5	O	0.825942	-0.015867	0.060344
O6	O	0.720284	0.180566	0.060366
O7	O	0.922401	0.159103	0.060316
Zn8	Zn	0.821340	0.169834	0.079568
Zn9	Zn	0.821365	0.169840	-0.079985
O10	O	0.816744	0.355536	0.060338
C11	C	0.694413	0.179878	-0.000177
C12	C	0.617295	0.177805	-0.000158
C13	C	0.825257	-0.063381	-0.000205
C14	C	0.823178	-0.204964	-0.000206
C15	C	0.573372	0.293063	-0.000171
C16	C	0.500912	0.291115	-0.000179
C17	C	0.472378	0.173903	-0.000189
C18	C	0.516311	0.058629	-0.000171
C19	C	0.588770	0.060580	-0.000156
C20	C	0.363505	0.081762	-0.042638
C21	C	0.291048	0.079816	-0.042658
C22	C	0.248892	0.167880	-0.000233
C23	C	0.279202	0.257913	0.042203
C24	C	0.351661	0.259864	0.042218
C25	C	0.393810	0.171774	-0.000205
C26	C	0.126399	0.281035	-0.000254
C27	C	0.053938	0.279082	-0.000257
C28	C	0.069339	0.046593	-0.000256
C29	C	0.141798	0.048549	-0.000245
C30	C	0.170324	0.165773	-0.000248
C31	C	0.755951	-0.271583	-0.000195
C32	C	0.787699	-0.364426	0.059505
C33	C	0.787734	-0.364397	-0.059889
C34	C	0.854954	-0.295942	0.059543
C35	C	0.854979	-0.295903	-0.059905
C36	C	0.886776	-0.388719	-0.000190
C37	C	0.948292	0.159796	-0.000241
C38	C	1.025409	0.161869	-0.000265
C39	C	0.817448	0.403055	-0.000213
C40	C	0.819526	0.544637	-0.000217
N41	N	0.821327	0.169829	0.188460
C42	C	0.863832	0.246996	0.226541
C43	C	0.863843	0.246994	0.302769
C44	C	0.821336	0.169838	0.340912
C45	C	0.778829	0.092655	0.302821
C46	C	0.778824	0.092651	0.226595
C47	C	0.758702	0.166614	0.461709
C48	C	0.758705	0.166627	0.537934
C49	C	0.821351	0.169845	0.576020
C50	C	0.883994	0.173076	0.537871
C51	C	0.883990	0.173071	0.461645
C52	C	0.821337	0.169834	0.423567
C53	C	0.863871	0.247013	0.696757
C54	C	0.863883	0.247001	0.772986
C55	C	0.778863	0.092670	0.773036
C56	C	0.778857	0.092675	0.696809
C57	C	0.821360	0.169853	0.658673
N58	N	0.821377	0.169843	0.811124
H59	H	0.465143	0.384976	-0.000188
C60	C	0.910590	0.331872	0.184593
H61	H	0.904499	0.320826	0.133741
H62	H	0.957993	0.307954	0.197067
H63	H	0.898115	0.419209	0.197085
H64	H	0.376336	0.333167	0.076773
C65	C	0.190116	-0.078237	-0.000242
H66	H	0.162747	-0.148326	-0.000255
H67	H	0.218680	-0.082314	0.041993
H68	H	0.218724	-0.082302	-0.042473
C69	C	0.232841	0.354796	0.088869
H70	H	0.185347	0.340736	0.082789
H71	H	0.239135	0.439499	0.073949
H72	H	0.245430	0.343905	0.138660
C73	C	0.749310	-0.405380	-0.128072
H74	H	0.779980	-0.462767	-0.156200
H75	H	0.734179	-0.331821	-0.156369
H76	H	0.710065	-0.446859	-0.113706
H77	H	0.898456	0.309836	0.333782
C78	C	0.157780	0.409973	-0.000249
H79	H	0.121240	0.478341	-0.000247
H80	H	0.185748	0.415570	-0.042474
H81	H	0.185704	0.415563	0.041991
C82	C	0.005621	0.405873	-0.000272
H83	H	0.032991	0.475962	-0.000278
H84	H	-0.022989	0.409953	0.041952
H85	H	-0.022941	0.409936	-0.042513
C86	C	0.681287	-0.202810	-0.000098
H87	H	0.657508	-0.226091	0.042387
H88	H	0.657169	-0.227224	-0.042078
H89	H	0.683124	-0.112673	-0.000525
H90	H	0.744253	0.029847	0.804092
C91	C	0.037964	-0.082342	-0.000263
H92	H	0.074505	-0.150709	-0.000250
H93	H	0.010040	-0.087939	-0.042496
H94	H	0.009997	-0.087933	0.041969
C95	C	0.952910	0.176586	0.579755
H96	H	0.943945	0.176103	0.630616
H97	H	0.973204	0.252243	0.567256
H98	H	0.984093	0.103552	0.567243
H99	H	0.898480	0.309855	0.665705
H100	H	0.624533	-0.033280	-0.000145
H101	H	0.744210	0.029811	0.195589
C102	C	0.893335	-0.255178	0.127805
H103	H	0.908052	-0.328746	0.156276
H104	H	0.862789	-0.197241	0.155724
H105	H	0.932854	-0.214412	0.113524
C106	C	0.257709	-0.019204	-0.089337
H107	H	0.208518	-0.007743	-0.083279
H108	H	0.275161	-0.103271	-0.074417
H109	H	0.268873	-0.007667	-0.139123
H110	H	0.883408	-0.265499	-0.110393
C111	C	0.409869	-0.015106	-0.089315
H112	H	0.381441	-0.068987	-0.114600
H113	H	0.441533	-0.065851	-0.058730
H114	H	0.435228	0.029773	-0.123426
C115	C	0.604750	0.422001	-0.000170
H116	H	0.654195	0.406660	-0.000165
H117	H	0.589686	0.469448	0.042054
H118	H	0.589735	0.469434	-0.042411
C119	C	0.732092	0.007806	0.654916
H120	H	0.706773	-0.038139	0.688548
H121	H	0.760257	-0.051029	0.625168
H122	H	0.700384	0.060234	0.625195
C123	C	0.952892	0.176606	0.419684
H124	H	0.990206	0.178513	0.453279
H125	H	0.950043	0.251074	0.389942
H126	H	0.960943	0.102383	0.389953
H127	H	0.898501	0.309836	0.803991
H128	H	0.942099	-0.439394	-0.000170
H129	H	0.707697	0.164004	0.568988
H130	H	0.707685	0.164002	0.430705
C131	C	0.732064	0.007799	0.344772
H132	H	0.706749	-0.038165	0.311171
H133	H	0.700362	0.060226	0.374516
H134	H	0.760234	-0.051039	0.374501
C135	C	0.484928	-0.070301	-0.000186
H136	H	0.435483	-0.054956	-0.000205
H137	H	0.499939	-0.117748	0.042047
H138	H	0.499992	-0.117736	-0.042418
C139	C	0.749265	-0.405463	0.127705
H140	H	0.702786	-0.364949	0.127646
H141	H	0.772694	-0.380876	0.170100
H142	H	0.748589	-0.495885	0.127434
