data_functionalizedCrystal
_audit_creation_method	'MofGen! by Chris Wilmer'
_symmetry_space_group_name_H-M	'P1'
_symmetry_Int_Tables_number	1
_symmetry_cell_setting	triclinic
loop_
_symmetry_equiv_pos_as_xyz
  x,y,z
_cell_length_a	27.732048
_cell_length_b	27.731994
_cell_length_c	15.021413
_cell_angle_alpha	90.011445
_cell_angle_beta	89.997610
_cell_angle_gamma	82.631734
loop_
_atom_site_label
_atom_site_type_symbol
_atom_site_fract_x
_atom_site_fract_y
_atom_site_fract_z
O1	O	0.640919	0.057513	-0.073902
O2	O	0.500124	0.066258	-0.073926
O3	O	0.574908	-0.008513	-0.073927
O4	O	0.566135	0.132284	-0.073901
O5	O	0.574895	-0.008504	0.074137
O6	O	0.500111	0.066268	0.074138
O7	O	0.640907	0.057522	0.074162
Zn8	Zn	0.570507	0.061896	0.097658
Zn9	Zn	0.570524	0.061884	-0.097423
O10	O	0.566123	0.132294	0.074163
C11	C	0.482111	0.066080	0.000102
C12	C	0.428456	0.065527	0.000092
C13	C	0.089633	0.106232	0.000138
C14	C	-0.112026	0.104181	0.000145
O15	O	-0.143289	0.141402	0.000191
N16	N	-0.131141	0.059844	0.000136
C17	C	-0.099838	0.016017	0.000130
O18	O	-0.120724	-0.021740	0.000131
C19	C	0.101820	0.018069	0.000129
C20	C	0.120932	0.062408	0.000130
C21	C	0.108746	0.150567	0.000139
C22	C	0.159158	0.151080	0.000133
C23	C	0.190457	0.107256	0.000124
C24	C	0.171344	0.062920	0.000123
C25	C	0.133122	-0.025757	0.000130
C26	C	0.183539	-0.025240	0.000132
C27	C	0.202652	0.019099	0.000132
C28	C	0.253055	0.019609	0.000108
N29	N	0.272170	0.063946	0.000117
C30	C	0.240871	0.107769	0.000126
C31	C	-0.205712	0.014943	0.000129
C32	C	-0.256126	0.014430	0.000128
C33	C	-0.268311	0.102594	0.000145
C34	C	-0.217896	0.103106	0.000140
C35	C	-0.186597	0.059280	0.000139
C36	C	0.346740	0.108842	0.000111
C37	C	0.397157	0.109350	0.000100
C38	C	0.409337	0.021187	0.000088
C39	C	0.358925	0.020678	0.000094
C40	C	0.327627	0.064510	0.000108
O41	O	0.284346	-0.017592	0.000073
O42	O	0.261766	0.145522	0.000144
C43	C	0.039221	0.105719	0.000145
C44	C	0.020109	0.061384	0.000143
C45	C	0.051408	0.017560	0.000135
C46	C	-0.030306	0.060871	0.000142
C47	C	-0.061605	0.104694	0.000150
C48	C	-0.042490	0.149030	0.000160
C49	C	0.007922	0.149543	0.000153
C50	C	0.032292	-0.026776	0.000125
C51	C	-0.018120	-0.027285	0.000131
C52	C	-0.049419	0.016539	0.000139
C53	C	0.574721	-0.026516	0.000100
C54	C	0.574179	-0.080172	0.000084
C55	C	0.658920	0.057701	0.000132
C56	C	0.712575	0.058254	0.000136
C57	C	0.566309	0.150296	0.000134
C58	C	0.566852	0.203953	0.000144
C59	C	0.570274	0.536666	-0.080604
C60	C	0.572335	0.738324	-0.080617
O61	O	0.572629	0.764392	-0.149258
N62	N	0.572584	0.763544	0.000092
C63	C	0.572321	0.738346	0.080811
O64	O	0.572586	0.764423	0.149459
C65	C	0.570263	0.536688	0.080822
C66	C	0.570009	0.511472	0.000108
C67	C	0.570020	0.511449	-0.161312
C68	C	0.569502	0.461038	-0.161308
C69	C	0.569238	0.435844	-0.080596
C70	C	0.569491	0.461060	0.000112
C71	C	0.570004	0.511491	0.161540
C72	C	0.569491	0.461073	0.161536
C73	C	0.569237	0.435856	0.080821
C74	C	0.568709	0.385455	0.080828
N75	N	0.568460	0.360235	0.000119
C76	C	0.568724	0.385429	-0.080594
C77	C	0.573401	0.844219	0.080799
C78	C	0.573915	0.894634	0.080796
C79	C	0.573929	0.894608	-0.080632
C80	C	0.573412	0.844193	-0.080628
C81	C	0.573152	0.818999	0.000089
C82	C	0.567636	0.279562	-0.080579
C83	C	0.567116	0.229147	-0.080568
C84	C	0.567104	0.229176	0.080860
C85	C	0.567621	0.279588	0.080849
C86	C	0.567889	0.304779	0.000122
O87	O	0.568421	0.359355	0.149433
O88	O	0.568471	0.359341	-0.149231
C89	C	0.570792	0.587077	-0.080608
C90	C	0.571045	0.612294	0.000100
C91	C	0.570781	0.587099	0.080812
C92	C	0.571559	0.662708	0.000097
C93	C	0.571823	0.687903	-0.080615
C94	C	0.571574	0.662683	-0.161324
C95	C	0.571056	0.612271	-0.161320
C96	C	0.571030	0.612319	0.161521
C97	C	0.571547	0.662731	0.161511
C98	C	0.571812	0.687925	0.080799
N99	N	0.570499	0.061904	0.230796
C100	C	0.536199	0.096747	0.529811
C101	C	0.526754	0.053272	0.470442
C102	C	0.570518	0.061887	0.587833
C103	C	0.579930	0.105369	0.470460
C104	C	0.570507	0.061898	0.412409
C105	C	0.561051	0.018391	0.529770
C106	C	0.614246	0.070516	0.529794
C107	C	0.604820	0.027010	0.470451
C108	C	0.570522	0.061881	0.688890
C109	C	0.570503	0.061899	0.311354
N110	N	0.570527	0.061880	0.769440
H111	H	-0.067982	0.184713	0.000163
H112	H	0.566907	0.208618	-0.146298
H113	H	0.633840	-0.002497	0.444553
C114	C	0.476790	0.043415	0.435217
N115	N	0.439156	0.035993	0.408688
H116	H	0.209021	-0.060930	0.000132
C117	C	0.028939	0.198320	0.000164
N118	N	0.044765	0.235061	0.000177
H119	H	0.651219	0.077828	0.555886
H120	H	0.057772	-0.062463	0.000121
C121	C	0.590694	0.155041	0.435267
N122	N	0.598798	0.192455	0.408764
H123	H	0.573189	0.823711	0.146533
H124	H	0.412715	0.145458	0.000100
H125	H	-0.033676	-0.063394	0.000123
H126	H	0.174714	0.187185	0.000133
H127	H	0.570216	0.532013	0.227267
C128	C	0.567927	0.307266	-0.169382
N129	N	0.568142	0.328133	-0.236269
H130	H	0.507162	0.126189	0.555875
H131	H	0.574112	0.915162	0.146522
H132	H	-0.202338	0.139211	0.000145
H133	H	0.574141	0.915130	-0.146351
C134	C	0.569262	0.433301	-0.250102
N135	N	0.569095	0.412410	-0.316986
C136	C	0.550228	-0.031290	0.564816
N137	N	0.542073	-0.068708	0.591215
H138	H	0.321263	0.144533	0.000125
C139	C	0.571868	0.690406	-0.250108
N140	N	0.572093	0.711289	-0.316976
C141	C	-0.302749	0.150800	0.000161
N142	N	-0.328690	0.187106	0.000181
C143	C	-0.277144	-0.034346	0.000121
N144	N	-0.292972	-0.071086	0.000124
C145	C	0.570309	0.539155	-0.250110
N146	N	0.570523	0.560021	-0.316999
C147	C	0.112111	-0.074535	0.000147
N148	N	0.096286	-0.111277	0.000167
C149	C	-0.171289	-0.033272	0.000121
N150	N	-0.145364	-0.069589	0.000111
C151	C	0.569202	0.433363	0.250334
N152	N	0.568982	0.412493	0.317217
C153	C	0.566811	0.201453	0.169639
N154	N	0.566593	0.180570	0.236508
H155	H	0.573204	0.823665	-0.146354
H156	H	0.083267	0.186256	0.000149
H157	H	0.343363	-0.015426	0.000080
C158	C	0.443775	-0.027016	0.000089
N159	N	0.469716	-0.063323	0.000100
H160	H	0.567809	0.300123	0.146573
C161	C	0.571826	0.690463	0.250310
N162	N	0.572040	0.711349	0.317191
H163	H	0.570849	0.591745	-0.227047
H164	H	0.570816	0.591811	0.227248
