data_functionalizedCrystal
_audit_creation_method	'MofGen! by Chris Wilmer'
_symmetry_space_group_name_H-M	'P1'
_symmetry_Int_Tables_number	1
_symmetry_cell_setting	triclinic
loop_
_symmetry_equiv_pos_as_xyz
  x,y,z
_cell_length_a	10.654541
_cell_length_b	11.792254
_cell_length_c	9.130307
_cell_angle_alpha	90.004887
_cell_angle_beta	89.999406
_cell_angle_gamma	84.341263
loop_
_atom_site_label
_atom_site_type_symbol
_atom_site_fract_x
_atom_site_fract_y
_atom_site_fract_z
O1	O	1.667394	0.159407	0.121755
O2	O	1.301873	0.174598	0.121768
O3	O	1.493495	0.001853	0.121751
O4	O	1.475772	0.332151	0.121772
O5	O	1.493492	0.001846	-0.121848
O6	O	1.301870	0.174591	-0.121831
O7	O	1.667391	0.159400	-0.121844
Cu8	Cu	1.484630	0.166995	-0.144080
Cu9	Cu	1.484634	0.167003	0.144004
O10	O	1.475769	0.332145	-0.121827
C11	C	1.255076	0.173480	-0.000030
C12	C	1.115642	0.170144	-0.000025
C13	C	1.492377	-0.040444	-0.000048
C14	C	1.489036	-0.166464	-0.000047
C15	C	1.087097	0.376707	0.000007
C16	C	1.007321	0.478417	0.000028
C17	C	0.876311	0.475276	0.000029
C18	C	0.825077	0.370414	0.000005
C19	C	0.904854	0.268704	-0.000017
C20	C	1.035865	0.271857	-0.000014
C21	C	0.933399	0.062144	-0.000059
C22	C	1.064408	0.065282	-0.000050
C23	C	0.882165	-0.042719	-0.000084
C24	C	0.961942	-0.144431	-0.000095
C25	C	1.092959	-0.141286	-0.000095
C26	C	1.144185	-0.036428	-0.000072
C27	C	1.486320	-0.268807	-0.000041
C28	C	1.482925	-0.397202	-0.000028
C29	C	1.714188	0.160518	-0.000043
C30	C	1.853622	0.163853	-0.000038
C31	C	1.476887	0.374441	-0.000024
C32	C	1.480228	0.500462	-0.000016
N33	N	1.484637	0.167000	0.346627
N34	N	1.484637	0.166989	-0.346703
C35	C	1.654656	0.014322	0.346602
C36	C	1.739660	-0.062025	0.423256
C37	C	1.739660	-0.062038	0.576590
C38	C	1.654648	0.014307	0.653272
C39	C	1.569643	0.090654	0.576618
C40	C	1.569650	0.090657	0.423281
C41	C	1.399632	0.243336	0.576643
C42	C	1.399625	0.243345	0.423310
C43	C	1.314620	0.319681	0.653326
C44	C	1.229607	0.396024	0.576672
C45	C	1.229610	0.396033	0.423329
C46	C	1.314620	0.319692	0.346656
H47	H	1.193771	0.379275	0.000038
H48	H	1.049050	0.563794	0.000045
C49	C	1.137519	0.478963	0.660114
C50	C	1.204742	0.549106	0.748176
C51	C	1.119951	0.625513	0.825084
H52	H	1.086851	0.524542	0.592675
H53	H	1.085080	0.437627	0.720013
H54	H	1.257159	0.590439	0.688282
H55	H	1.255405	0.503559	0.815643
H56	H	1.067512	0.584177	0.884983
H57	H	1.069288	0.671083	0.757634
H58	H	1.165549	0.673107	0.884853
C59	C	0.906245	-0.258237	0.000179
C60	C	0.831881	-0.266088	0.125515
C61	C	0.780561	-0.370916	0.125830
H62	H	0.855650	-0.263865	-0.084676
H63	H	0.972481	-0.318398	0.000254
H64	H	0.765654	-0.205943	0.125427
H65	H	0.882447	-0.260480	0.210390
H66	H	0.846798	-0.431078	0.125905
H67	H	0.729972	-0.376535	0.040970
H68	H	0.730109	-0.376262	0.210875
H69	H	0.718401	0.367866	-0.000012
C70	C	1.832074	-0.144753	0.659914
C71	C	1.909242	-0.083525	0.747949
C72	C	1.994389	-0.159687	0.824718
H73	H	1.786802	-0.192483	0.719828
H74	H	1.882781	-0.190211	0.592348
H75	H	1.858541	-0.038087	0.815507
H76	H	1.954542	-0.035799	0.688071
H77	H	2.045095	-0.205144	0.757152
H78	H	1.949106	-0.207413	0.884624
H79	H	2.046765	-0.118155	0.884449
C80	C	1.179719	-0.251629	0.000111
C81	C	1.255784	-0.255857	0.125420
C82	C	1.335730	-0.357483	0.125651
H83	H	1.130597	-0.314617	0.000170
H84	H	1.231496	-0.254700	-0.084792
H85	H	1.204013	-0.252798	0.210302
H86	H	1.304933	-0.192893	0.125388
H87	H	1.387507	-0.360553	0.040747
H88	H	1.286597	-0.420462	0.125706
H89	H	1.387357	-0.360360	0.210664
C90	C	1.832082	-0.144973	0.340265
C91	C	1.906540	-0.211820	0.440216
C92	C	1.991699	-0.288237	0.363825
H93	H	1.786822	-0.192782	0.280441
H94	H	1.884623	-0.103649	0.280482
H95	H	1.854006	-0.253142	0.499974
H96	H	1.951828	-0.164043	0.500043
H97	H	2.044240	-0.246913	0.304042
H98	H	1.946428	-0.336037	0.304004
H99	H	2.042236	-0.333595	0.431629
C100	C	1.137253	0.478744	0.339920
C101	C	1.060119	0.417508	0.251853
C102	C	0.975035	0.493663	0.174987
H103	H	1.086507	0.524238	0.407384
H104	H	1.182615	0.526440	0.280027
H105	H	1.014761	0.369832	0.311741
H106	H	1.110830	0.372018	0.184362
H107	H	1.020396	0.541359	0.115094
H108	H	0.924297	0.539153	0.242462
H109	H	0.922697	0.452126	0.115215
H110	H	0.811356	0.558098	0.000037
H111	H	0.775489	-0.045269	-0.000091
H112	H	1.314625	0.319688	0.221803
H113	H	1.250858	-0.033857	-0.000054
H114	H	1.654654	0.014315	0.221750
H115	H	1.654663	0.014302	0.778125
H116	H	1.314628	0.319672	0.778178
