data_functionalizedCrystal
_audit_creation_method	'MofGen! by Chris Wilmer'
_symmetry_space_group_name_H-M	'P1'
_symmetry_Int_Tables_number	1
_symmetry_cell_setting	triclinic
loop_
_symmetry_equiv_pos_as_xyz
  x,y,z
_cell_length_a	12.759401
_cell_length_b	13.032721
_cell_length_c	13.034296
_cell_angle_alpha	89.133654
_cell_angle_beta	82.799640
_cell_angle_gamma	82.795696
loop_
_atom_site_label
_atom_site_type_symbol
_atom_site_fract_x
_atom_site_fract_y
_atom_site_fract_z
Zn1	Zn	1.644296	0.335524	-0.633413
Zn2	Zn	2.144296	0.835524	-0.133413
Zn3	Zn	1.600237	0.529374	-0.483273
Zn4	Zn	2.100237	1.029374	0.016727
Zn5	Zn	1.443834	0.357417	-0.461465
Zn6	Zn	1.943834	0.857417	0.038535
Zn7	Zn	1.449398	0.507458	-0.655199
Zn8	Zn	1.949398	1.007458	-0.155199
O9	O	1.534441	0.432443	-0.558338
O10	O	2.034441	0.932443	-0.058338
O11	O	1.785472	0.361248	-0.613506
O12	O	2.285472	0.861248	-0.113506
O13	O	1.558723	0.524898	-0.336468
O14	O	2.058723	1.024898	0.163532
O15	O	1.486536	0.210592	-0.466030
O16	O	1.986536	0.710592	0.033970
O17	O	1.753103	0.503669	-0.503199
O18	O	2.253103	1.003669	-0.003199
O19	O	1.633814	0.194508	-0.592360
O20	O	2.133814	0.694508	-0.092360
O21	O	1.443814	0.398561	-0.320446
O22	O	1.943814	0.898561	0.179554
O23	O	1.297551	0.377310	-0.487155
O24	O	1.797551	0.877310	0.012845
O25	O	1.496018	0.466317	-0.796222
O26	O	1.996018	0.966317	-0.296222
O27	O	1.301639	0.487545	-0.629491
O28	O	1.801639	0.987545	-0.129491
O29	O	1.639209	0.339997	-0.780216
O30	O	2.139209	0.839997	-0.280216
O31	O	1.564118	0.670387	-0.524324
O32	O	2.064118	1.170387	-0.024324
O33	O	1.453297	0.654285	-0.650637
O34	O	1.953297	1.154285	-0.150637
C35	C	1.261474	0.432426	-0.558322
C36	C	1.761474	0.932426	-0.058322
C37	C	1.144698	0.432440	-0.558342
C38	C	1.644698	0.932440	-0.058342
C39	C	1.091964	0.489959	-0.632361
C40	C	1.591964	0.989959	-0.132361
C41	C	0.982241	0.489970	-0.632374
C42	C	1.482241	0.989970	-0.132374
C43	C	0.977992	0.374943	-0.484340
C44	C	1.477992	0.874943	0.015660
C45	C	1.087716	0.374927	-0.484332
C46	C	1.587716	0.874927	0.015668
C47	C	1.148947	0.547472	-0.706370
C48	C	1.648947	1.047472	-0.206370
C49	C	1.096213	0.604997	-0.780394
C50	C	1.596213	1.104997	-0.280394
C51	C	0.986489	0.605008	-0.780407
C52	C	1.486489	1.105008	-0.280407
C53	C	0.929499	0.547496	-0.706396
C54	C	1.429499	1.047496	-0.206396
C55	C	1.504562	0.699650	-0.592234
C56	C	2.004562	1.199650	-0.092234
C57	C	1.491880	0.813958	-0.606769
C58	C	1.991880	1.313958	-0.106769
C59	C	1.573149	0.398270	-0.826577
C60	C	2.073149	0.898270	-0.326577
C61	C	1.589644	0.383708	-0.940885
C62	C	2.089644	0.883708	-0.440885
C63	C	1.808474	0.432461	-0.558355
C64	C	2.308474	0.932461	-0.058355
C65	C	1.925251	0.432469	-0.558362
C66	C	2.425251	0.932469	-0.058362
C67	C	1.564469	0.164190	-0.524332
C68	C	2.064469	0.664190	-0.024332
C69	C	1.577265	0.049876	-0.509841
C70	C	2.077265	0.549876	-0.009841
C71	C	1.541122	0.872846	-0.550798
C72	C	2.041122	1.372846	-0.050798
C73	C	1.528016	0.990990	-0.565820
C74	C	2.028016	1.490990	-0.065820
C75	C	1.526150	0.439716	-0.999766
C76	C	2.026150	0.939716	-0.499766
C77	C	1.543196	0.424666	-1.117909
C78	C	2.043196	0.924666	-0.617909
C79	C	1.495953	0.466409	-0.291133
C80	C	1.995953	0.966409	0.208867
C81	C	1.479694	0.480682	-0.176789
C82	C	1.979694	0.980682	0.323211
H83	H	1.238289	0.547472	-0.706367
H84	H	1.738289	1.047472	-0.206367
H85	H	1.656627	0.324619	-0.977939
H86	H	2.156627	0.824619	-0.477939
H87	H	1.130654	0.328081	-0.424067
H88	H	1.630654	0.828081	0.075933
Cl89	Cl	1.167857	0.677287	-0.873437
Cl90	Cl	1.667857	1.177287	-0.373437
Cl91	Cl	1.411816	0.871148	-0.697929
Cl92	Cl	1.911816	1.371148	-0.197929
H93	H	1.459174	0.498812	-0.962713
H94	H	1.959174	0.998812	-0.462713
Cl95	Cl	1.646622	0.333430	-1.175105
Cl96	Cl	2.146622	0.833430	-0.675105
H97	H	1.412712	0.539782	-1.139741
H98	H	1.912712	1.039782	-0.639741
Cl99	Cl	0.791561	0.547503	-0.706422
Cl100	Cl	1.291561	1.047503	-0.206422
Cl101	Cl	0.906346	0.302651	-0.391302
Cl102	Cl	1.406346	0.802651	0.108698
Cl103	Cl	0.920200	0.677313	-0.873471
Cl104	Cl	1.420200	1.177313	-0.373471
Cl105	Cl	1.621201	0.815655	-0.459650
Cl106	Cl	2.121201	1.315655	0.040350
H107	H	1.476158	1.028033	-0.624867
H108	H	1.976158	1.528033	-0.124867
H109	H	1.629133	1.012833	-0.450802
H110	H	2.129133	1.512833	0.049198
