data_functionalizedCrystal
_audit_creation_method	'MofGen! by Chris Wilmer'
_symmetry_space_group_name_H-M	'P1'
_symmetry_Int_Tables_number	1
_symmetry_cell_setting	triclinic
loop_
_symmetry_equiv_pos_as_xyz
  x,y,z
_cell_length_a	14.853566
_cell_length_b	14.853559
_cell_length_c	13.330367
_cell_angle_alpha	89.997552
_cell_angle_beta	89.995295
_cell_angle_gamma	83.632934
loop_
_atom_site_label
_atom_site_type_symbol
_atom_site_fract_x
_atom_site_fract_y
_atom_site_fract_z
O1	O	1.196366	0.117699	-0.083352
O2	O	0.933906	0.131721	-0.083368
O3	O	1.072151	-0.006520	-0.083359
O4	O	1.058121	0.255940	-0.083362
O5	O	1.072131	-0.006523	0.083488
O6	O	0.933886	0.131718	0.083479
O7	O	1.196346	0.117696	0.083495
Cu8	Cu	1.065114	0.124707	0.098721
Cu9	Cu	1.065138	0.124710	-0.098595
O10	O	1.058101	0.255937	0.083485
C11	C	0.900307	0.131085	0.000053
C12	C	0.800223	0.129181	0.000047
C13	C	0.377050	0.121132	-0.090884
C14	C	0.377049	0.121129	0.091020
C15	C	0.471083	0.122917	0.091016
C16	C	0.518105	0.123813	0.000062
C17	C	0.471092	0.122922	-0.090890
C18	C	0.518102	0.123817	0.181966
C19	C	0.612141	0.125605	0.181967
C20	C	0.659165	0.126496	0.091011
C21	C	0.612147	0.125604	0.000056
C22	C	0.659168	0.126500	-0.090899
C23	C	0.612153	0.125602	-0.181855
C24	C	0.518116	0.123813	-0.181845
C25	C	0.753202	0.128285	0.091002
C26	C	0.753211	0.128290	-0.090904
C27	C	1.071506	-0.040111	0.000063
C28	C	1.069605	-0.140195	0.000057
C29	C	1.061553	-0.563368	-0.090892
C30	C	1.061531	-0.563366	0.091011
C31	C	1.063324	-0.469333	0.091012
C32	C	1.064230	-0.422313	0.000060
C33	C	1.063343	-0.469326	-0.090894
C34	C	1.064202	-0.422312	0.181964
C35	C	1.065994	-0.328273	0.181969
C36	C	1.066907	-0.281251	0.091015
C37	C	1.066021	-0.328270	0.000058
C38	C	1.066928	-0.281250	-0.090894
C39	C	1.066048	-0.328268	-0.181853
C40	C	1.064256	-0.422305	-0.181847
C41	C	1.068699	-0.187215	0.091010
C42	C	1.068718	-0.187208	-0.090896
C43	C	1.229945	0.118332	0.000071
C44	C	1.330028	0.120236	0.000071
C45	C	1.058745	0.289528	0.000062
C46	C	1.060646	0.389612	0.000061
N47	N	1.065104	0.124703	0.237503
N48	N	1.065155	0.124706	-0.237376
C49	C	1.003920	0.185900	0.710122
C50	C	1.126379	0.063514	0.710098
C51	C	1.126369	0.063511	0.605080
C52	C	1.065135	0.124704	0.552577
C53	C	1.003910	0.185900	0.605094
C54	C	1.187599	0.002322	0.552556
C55	C	1.187592	0.002318	0.447531
C56	C	1.126352	0.063507	0.395027
C57	C	1.065124	0.124705	0.447549
C58	C	1.003890	0.185899	0.395047
C59	C	0.942657	0.247093	0.447568
C60	C	0.942670	0.247090	0.552589
C61	C	1.126339	0.063510	0.290005
C62	C	1.003879	0.185900	0.290019
H63	H	0.479809	0.123093	0.256016
C64	C	0.467236	0.122812	-0.280695
C65	C	0.528541	0.123960	-0.360353
C66	C	0.481701	0.123034	-0.451426
H67	H	0.423745	0.174637	-0.284606
H68	H	0.437378	0.069567	-0.284533
H69	H	0.558385	0.177199	-0.356516
H70	H	0.572034	0.072139	-0.356475
H71	H	0.451843	0.069789	-0.455265
H72	H	0.438212	0.174859	-0.455327
H73	H	0.523291	0.123804	-0.505485
C74	C	1.254216	-0.064023	0.609493
C75	C	1.342824	-0.049237	0.583958
C76	C	1.404213	-0.110340	0.636399
H77	H	1.244466	-0.124244	0.592315
H78	H	1.245513	-0.055268	0.679574
H79	H	1.351523	-0.058000	0.513893
H80	H	1.352603	0.010972	0.601139
H81	H	1.395510	-0.101585	0.706479
H82	H	1.394454	-0.170557	0.619217
H83	H	1.464340	-0.100310	0.619088
C84	C	0.876216	0.313431	0.390378
C85	C	0.889309	0.300317	0.287165
C86	C	0.828116	0.361401	0.234447
H87	H	0.886015	0.373660	0.407463
H88	H	0.816020	0.303520	0.407535
H89	H	0.949491	0.310235	0.270015
H90	H	0.879503	0.240101	0.270050
H91	H	0.767919	0.351490	0.251604
H92	H	0.837919	0.421626	0.251540
H93	H	0.836985	0.352507	0.164412
C94	C	0.663027	0.126524	0.280819
C95	C	0.601722	0.125334	0.360472
C96	C	0.648568	0.126163	0.451549
H97	H	0.692910	0.179736	0.284743
H98	H	0.706502	0.074666	0.284652
H99	H	0.558263	0.177186	0.356642
H100	H	0.571837	0.072125	0.356582
H101	H	0.692043	0.074305	0.455382
H102	H	0.678449	0.179377	0.455462
H103	H	0.606981	0.125348	0.505605
C104	C	1.063243	-0.473509	-0.280490
C105	C	1.061452	-0.565921	-0.261018
C106	C	1.060502	-0.613119	-0.351861
H107	H	1.116056	-0.465021	-0.317936
H108	H	1.010987	-0.451332	-0.317870
H109	H	1.113702	-0.588090	-0.223654
H110	H	1.008643	-0.574436	-0.223587
H111	H	1.008246	-0.590943	-0.389241
H112	H	1.113315	-0.604625	-0.389300
H113	H	1.059278	-0.675825	-0.338662
H114	H	1.060840	-0.601655	-0.164948
H115	H	1.060787	-0.601655	0.165061
H116	H	0.791477	0.129025	0.165057
H117	H	0.954063	0.235721	0.752887
C118	C	1.253958	-0.064367	0.390690
C119	C	1.239110	-0.152922	0.416382
C120	C	1.300218	-0.214422	0.364085
H121	H	1.314177	-0.054620	0.407880
H122	H	1.245250	-0.055772	0.320590
H123	H	1.247826	-0.161513	0.486467
H124	H	1.178904	-0.162698	0.399189
H125	H	1.291510	-0.205826	0.293984
H126	H	1.360433	-0.204666	0.381279
H127	H	1.290147	-0.274513	0.381502
C128	C	1.192709	-0.003054	0.233022
C129	C	1.177993	-0.091684	0.258542
C130	C	1.239111	-0.153026	0.206054
H131	H	1.252926	0.006734	0.250170
H132	H	1.183919	0.005658	0.162948
H133	H	1.186790	-0.100393	0.328600
H134	H	1.117788	-0.101501	0.241392
H135	H	1.230322	-0.144313	0.135980
H136	H	1.299324	-0.143229	0.223206
H137	H	1.229129	-0.213167	0.223355
C138	C	0.663378	0.126534	-0.280499
C139	C	0.755795	0.128278	-0.261027
C140	C	0.803016	0.129127	-0.351870
H141	H	0.641267	0.178759	-0.317948
H142	H	0.654843	0.073688	-0.317876
H143	H	0.764325	0.181119	-0.223666
H144	H	0.777932	0.076058	-0.223593
H145	H	0.794481	0.076280	-0.389247
H146	H	0.780898	0.181352	-0.389312
H147	H	0.865727	0.130302	-0.338671
C148	C	0.325937	0.120346	-0.189601
C149	C	0.261914	0.196828	-0.194925
C150	C	0.214819	0.196141	-0.285854
H151	H	0.295985	0.067174	-0.193478
H152	H	0.367375	0.121186	-0.243799
H153	H	0.220481	0.195980	-0.140742
H154	H	0.291842	0.250011	-0.191065
H155	H	0.256258	0.196981	-0.340051
H156	H	0.184873	0.142967	-0.289723
H157	H	0.171380	0.248037	-0.289482
C158	C	1.066982	-0.277369	-0.280704
C159	C	1.065808	-0.338661	-0.360363
C160	C	1.066655	-0.291800	-0.451435
H161	H	1.120195	-0.247485	-0.284619
H162	H	1.015125	-0.233894	-0.284539
H163	H	1.117660	-0.382120	-0.356529
H164	H	1.012599	-0.368547	-0.356481
H165	H	1.014798	-0.248325	-0.455271
H166	H	1.119869	-0.261919	-0.455339
H167	H	1.065850	-0.333379	-0.505494
H168	H	1.063459	-0.460602	0.256013
H169	H	1.176239	0.013696	0.752849
H170	H	1.069395	-0.148934	0.165066
C171	C	0.326157	0.120205	0.189870
C172	C	0.387456	0.121388	0.269519
C173	C	0.340602	0.120546	0.360599
H174	H	0.296277	0.066990	0.193793
H175	H	0.282681	0.172061	0.193709
H176	H	0.430916	0.069537	0.265683
H177	H	0.417339	0.174598	0.265630
H178	H	0.297126	0.172402	0.364438
H179	H	0.310723	0.067331	0.364512
H180	H	0.382185	0.121358	0.414652
H181	H	1.066714	-0.289999	0.256033
C182	C	1.069531	-0.136039	-0.189585
C183	C	0.993054	-0.072008	-0.194879
C184	C	0.993764	-0.024852	-0.285774
H185	H	1.068697	-0.177413	-0.243822
H186	H	1.122724	-0.106096	-0.193404
H187	H	0.939875	-0.101950	-0.191070
H188	H	0.993872	-0.030615	-0.140663
H189	H	1.046957	0.005091	-0.289593
H190	H	0.992932	-0.066233	-0.340004
H191	H	0.941880	0.018604	-0.289374
H192	H	0.954011	0.235728	0.247278
H193	H	0.892818	0.296913	0.595358
H194	H	0.791489	0.129017	-0.164972
