data_functionalizedCrystal
_audit_creation_method	'MofGen! by Chris Wilmer'
_symmetry_space_group_name_H-M	'P1'
_symmetry_Int_Tables_number	1
_symmetry_cell_setting	triclinic
loop_
_symmetry_equiv_pos_as_xyz
  x,y,z
_cell_length_a	11.026607
_cell_length_b	13.101039
_cell_length_c	11.026607
_cell_angle_alpha	94.102764
_cell_angle_beta	71.413983
_cell_angle_gamma	94.097295
loop_
_atom_site_label
_atom_site_type_symbol
_atom_site_fract_x
_atom_site_fract_y
_atom_site_fract_z
O1	O	1.732207	0.085205	-0.528122
O2	O	1.365627	0.085208	-0.467358
O3	O	1.518535	0.085205	-0.314450
O4	O	1.579299	0.085208	-0.681030
O5	O	1.507569	-0.085224	-0.325445
O6	O	1.354661	-0.085222	-0.478353
O7	O	1.721241	-0.085224	-0.539116
Zn8	Zn	1.536210	-0.112282	-0.510480
Zn9	Zn	1.550658	0.112266	-0.495995
O10	O	1.568333	-0.085222	-0.692024
C11	C	1.312484	-0.000007	-0.461646
C12	C	1.170470	-0.000006	-0.428229
N13	N	1.526358	-0.265531	-0.520367
C14	C	1.116821	-0.000004	-0.520498
C15	C	0.970043	-0.000003	-0.485963
C16	C	1.512958	-0.474573	-0.533831
C17	C	1.573914	-0.525450	-0.472640
C18	C	1.566458	-0.641768	-0.480131
C19	C	1.520413	-0.358244	-0.526341
C20	C	1.774383	-0.000008	-0.544829
C21	C	1.916398	-0.000002	-0.578246
C22	C	1.585025	-0.000007	-0.734187
C23	C	1.618442	-0.000006	-0.876201
N24	N	1.560517	0.265514	-0.486100
C25	C	1.526173	-0.000004	-0.929850
C26	C	1.560709	-0.000003	-1.076629
C27	C	1.501842	-0.000008	-0.272288
C28	C	1.468426	-0.000002	-0.130274
H29	H	0.907315	0.000022	-0.381391
N30	N	1.394988	-0.000023	-0.851184
N31	N	1.308221	-0.000032	-0.901549
H32	H	1.215567	-0.000049	-0.845995
H33	H	0.979125	-0.000008	-0.682816
H34	H	1.107739	0.000020	-0.323664
H35	H	1.665281	0.000033	-1.139355
N36	N	1.646400	-0.470495	-0.399864
N37	N	1.652435	-0.374712	-0.393803
H38	H	1.703628	-0.335895	-0.342410
H39	H	1.455177	-0.518369	-0.591841
H40	H	1.363856	0.000003	-1.067546
H41	H	1.723008	0.000031	-0.938932
H42	H	1.179554	-0.000009	-0.625062
