data_functionalizedCrystal
_audit_creation_method	'MofGen! by Chris Wilmer'
_symmetry_space_group_name_H-M	'P1'
_symmetry_Int_Tables_number	1
_symmetry_cell_setting	triclinic
loop_
_symmetry_equiv_pos_as_xyz
  x,y,z
_cell_length_a	17.077404
_cell_length_b	13.032721
_cell_length_c	17.077396
_cell_angle_alpha	97.153695
_cell_angle_beta	89.980499
_cell_angle_gamma	97.204757
loop_
_atom_site_label
_atom_site_type_symbol
_atom_site_fract_x
_atom_site_fract_y
_atom_site_fract_z
Zn1	Zn	1.160375	-0.416035	-0.483523
Zn2	Zn	1.493708	-0.082702	-0.150190
Zn3	Zn	1.827041	0.250631	0.183143
Zn4	Zn	1.143613	-0.590801	-0.368926
Zn5	Zn	1.476947	-0.257468	-0.035593
Zn6	Zn	1.810280	0.075865	0.297741
Zn7	Zn	1.029103	-0.416072	-0.352275
Zn8	Zn	1.362436	-0.082739	-0.018941
Zn9	Zn	1.695770	0.250595	0.314392
Zn10	Zn	1.012412	-0.590739	-0.500144
Zn11	Zn	1.345745	-0.257406	-0.166810
Zn12	Zn	1.679079	0.075927	0.166523
O13	O	1.086376	-0.503412	-0.426217
O14	O	1.419709	-0.170079	-0.092884
O15	O	1.753042	0.163255	0.240450
O16	O	1.267997	-0.439229	-0.468335
O17	O	1.601331	-0.105896	-0.135001
O18	O	1.934664	0.227438	0.198332
O19	O	1.128394	-0.567664	-0.256874
O20	O	1.461727	-0.234331	0.076459
O21	O	1.795061	0.099002	0.409792
O22	O	1.060517	-0.269828	-0.355761
O23	O	1.393850	0.063505	-0.022427
O24	O	1.727183	0.396839	0.310906
O25	O	1.255683	-0.567629	-0.384141
O26	O	1.589016	-0.234296	-0.050807
O27	O	1.922349	0.099038	0.282526
O28	O	1.156961	-0.269801	-0.452188
O29	O	1.490295	0.063532	-0.118855
O30	O	1.823628	0.396865	0.214478
O31	O	1.044264	-0.439292	-0.244641
O32	O	1.377597	-0.105958	0.088693
O33	O	1.710930	0.227375	0.422026
O34	O	0.917043	-0.439231	-0.371877
O35	O	1.250376	-0.105898	-0.038544
O36	O	1.583710	0.227435	0.294790
O37	O	1.032069	-0.567523	-0.607782
O38	O	1.365402	-0.234190	-0.274449
O39	O	1.698736	0.099143	0.058885
O40	O	0.904780	-0.567559	-0.480516
O41	O	1.238113	-0.234225	-0.147182
O42	O	1.571447	0.099108	0.186151
O43	O	1.140777	-0.439169	-0.595571
O44	O	1.474110	-0.105836	-0.262238
O45	O	1.807443	0.227498	0.071096
O46	O	1.112209	-0.737032	-0.400257
O47	O	1.445542	-0.403699	-0.066923
O48	O	1.778876	-0.070366	0.266410
O49	O	1.015816	-0.736987	-0.496662
O50	O	1.349149	-0.403653	-0.163328
O51	O	1.682483	-0.070320	0.170005
C52	C	0.882430	-0.503393	-0.426193
C53	C	1.215763	-0.170060	-0.092860
C54	C	1.549096	0.163274	0.240473
C55	C	0.795178	-0.503410	-0.426204
C56	C	1.128512	-0.170077	-0.092871
C57	C	1.461845	0.163256	0.240462
C58	C	0.747814	-0.570331	-0.482702
C59	C	1.081147	-0.236998	-0.149368
C60	C	1.414480	0.096336	0.183965
C61	C	0.665833	-0.570333	-0.482715
C62	C	0.999166	-0.237000	-0.149381
C63	C	1.332500	0.096333	0.183952
C64	C	0.631218	-0.503419	-0.426226
C65	C	0.964551	-0.170086	-0.092893
C66	C	1.297885	0.163247	0.240441
C67	C	0.678589	-0.436491	-0.369726
C68	C	1.011922	-0.103158	-0.036392
C69	C	1.345256	0.230176	0.296941
C70	C	0.760569	-0.436484	-0.369717
C71	C	1.093902	-0.103151	-0.036384
C72	C	1.427235	0.230182	0.296950
C73	C	0.507717	-0.436512	-0.369747
C74	C	0.841050	-0.103178	-0.036413
C75	C	1.174384	0.230155	0.296920
C76	C	0.425732	-0.436519	-0.369754
C77	C	0.759065	-0.103186	-0.036421
C78	C	1.092398	0.230147	0.296913
C79	C	0.412982	-0.570361	-0.482744
C80	C	0.746315	-0.237027	-0.149411
C81	C	1.079648	0.096306	0.183923
C82	C	0.494961	-0.570354	-0.482735
C83	C	0.828294	-0.237021	-0.149402
C84	C	1.161628	0.096313	0.183931
C85	C	0.542326	-0.503427	-0.426234
C86	C	0.875660	-0.170093	-0.092901
C87	C	1.208993	0.163240	0.240433
C88	C	1.060404	-0.774928	-0.452087
C89	C	1.393737	-0.441594	-0.118753
C90	C	1.727071	-0.108261	0.214580
C91	C	1.049365	-0.891083	-0.463180
C92	C	1.382698	-0.557750	-0.129847
C93	C	1.716031	-0.224416	0.203486
C94	C	1.092179	-0.942857	-0.420462
C95	C	1.425512	-0.609524	-0.087129
C96	C	1.758846	-0.276190	0.246204
C97	C	1.080770	-1.062910	-0.431927
C98	C	1.414104	-0.729576	-0.098594
C99	C	1.747437	-0.396243	0.234740
C100	C	1.291118	-0.503432	-0.426241
C101	C	1.624451	-0.170098	-0.092908
C102	C	1.957785	0.163235	0.240426
C103	C	1.378367	-0.503440	-0.426251
C104	C	1.711700	-0.170107	-0.092918
C105	C	2.045034	0.163226	0.240415
C106	C	1.086431	-0.503335	-0.630954
C107	C	1.419764	-0.170002	-0.297621
C108	C	1.753097	0.163332	0.035713
C109	C	1.086454	-0.503302	-0.718201
C110	C	1.419787	-0.169969	-0.384867
C111	C	1.753121	0.163364	-0.051534
C112	C	1.112470	-0.230836	-0.400263
C113	C	1.445804	0.102497	-0.066930
C114	C	1.779137	0.435830	0.266403
C115	C	1.123590	-0.114681	-0.389203
C116	C	1.456924	0.218653	-0.055870
C117	C	1.790257	0.551986	0.277463
C118	C	1.143060	-0.436463	-0.752833
C119	C	1.476394	-0.103129	-0.419500
C120	C	1.809727	0.230204	-0.086167
C121	C	1.143073	-0.436428	-0.834811
C122	C	1.476406	-0.103095	-0.501477
C123	C	1.809740	0.230239	-0.168144
C124	C	1.086482	-0.503239	-0.882154
C125	C	1.419816	-0.169905	-0.548821
C126	C	1.753149	0.163428	-0.215487
C127	C	1.029870	-0.570081	-0.847516
C128	C	1.363203	-0.236748	-0.514183
C129	C	1.696537	0.096585	-0.180849
C130	C	1.029855	-0.570110	-0.765540
C131	C	1.363188	-0.236777	-0.432206
C132	C	1.696521	0.096557	-0.098873
C133	C	1.029908	-0.570018	-1.018380
C134	C	1.363241	-0.236685	-0.685047
C135	C	1.696574	0.096648	-0.351714
C136	C	1.029924	-0.569991	-1.100362
C137	C	1.363257	-0.236658	-0.767029
C138	C	1.696591	0.096675	-0.433696
C139	C	1.143126	-0.436336	-1.087651
C140	C	1.476460	-0.103003	-0.754318
C141	C	1.809793	0.230330	-0.420984
C142	C	1.143111	-0.436365	-1.005675
C143	C	1.476444	-0.103032	-0.672341
C144	C	1.809777	0.230302	-0.339008
C145	C	1.086499	-0.503209	-0.971042
C146	C	1.419833	-0.169876	-0.637709
C147	C	1.753166	0.163457	-0.304376
C148	C	1.086374	-0.503413	-0.222269
C149	C	1.419707	-0.170080	0.111064
C150	C	1.753040	0.163253	0.444397
C151	C	1.086530	-0.503152	-0.134995
C152	C	1.419864	-0.169818	0.198338
C153	C	1.753197	0.163515	0.531672
H154	H	0.397552	-0.382020	-0.323764
H155	H	0.730885	-0.048686	0.009569
H156	H	1.064219	0.284647	0.342902
Cl157	Cl	1.161818	-0.874079	-0.350896
Cl158	Cl	1.495152	-0.540746	-0.017563
Cl159	Cl	1.828485	-0.207413	0.315771
H160	H	0.546281	-0.382003	-0.323743
H161	H	0.879614	-0.048670	0.009590
H162	H	1.212947	0.284664	0.342923
H163	H	0.983798	-0.624434	-0.990184
H164	H	1.317131	-0.291101	-0.656851
H165	H	1.650464	0.042233	-0.323518
H166	H	1.035670	-1.107459	-0.476993
H167	H	1.369003	-0.774125	-0.143660
H168	H	1.702337	-0.440792	0.189673
H169	H	1.189220	-0.381907	-1.115852
H170	H	1.522554	-0.048574	-0.782519
H171	H	1.855887	0.284759	-0.449185
Cl172	Cl	1.193232	-1.045910	-0.319632
Cl173	Cl	1.526566	-0.712576	0.013702
Cl174	Cl	1.859899	-0.379243	0.347035
Cl175	Cl	0.958772	-0.653972	-1.159878
Cl176	Cl	1.292106	-0.320639	-0.826545
Cl177	Cl	1.625439	0.012695	-0.493212
H178	H	0.650399	-0.382004	-0.323735
H179	H	0.983733	-0.048671	0.009599
H180	H	1.317066	0.284663	0.342932
H181	H	0.799133	-0.381985	-0.323715
H182	H	1.132466	-0.048652	0.009619
H183	H	1.465800	0.284682	0.342952
Cl184	Cl	0.958724	-0.654069	-0.907034
Cl185	Cl	1.292058	-0.320736	-0.573700
Cl186	Cl	1.625391	0.012598	-0.240367
H187	H	1.004267	-0.935636	-0.508243
H188	H	1.337601	-0.602303	-0.174910
H189	H	1.670934	-0.268970	0.158423
H190	H	0.775990	-0.624824	-0.528699
H191	H	1.109324	-0.291491	-0.195366
H192	H	1.442657	0.041843	0.137967
H193	H	1.189145	-0.382061	-0.714292
H194	H	1.522479	-0.048727	-0.380958
H195	H	1.855812	0.284606	-0.047625
Cl196	Cl	1.214269	-0.352443	-0.878349
Cl197	Cl	1.547603	-0.019110	-0.545016
Cl198	Cl	1.880936	0.314224	-0.211683
Cl199	Cl	0.958687	-0.654137	-0.722001
Cl200	Cl	1.292020	-0.320804	-0.388668
Cl201	Cl	1.625354	0.012529	-0.055335
Cl202	Cl	0.538476	-0.654483	-0.553746
Cl203	Cl	0.871809	-0.321150	-0.220413
Cl204	Cl	1.205142	0.012184	0.112921
H205	H	1.189196	-0.381968	-0.967130
H206	H	1.522529	-0.048634	-0.633796
H207	H	1.855863	0.284699	-0.300463
H208	H	0.374413	-0.624852	-0.528751
H209	H	0.707746	-0.291519	-0.195418
H210	H	1.041080	0.041815	0.137915
Cl211	Cl	0.606292	-0.654466	-0.553743
Cl212	Cl	0.939625	-0.321133	-0.220410
Cl213	Cl	1.272959	0.012200	0.112924
