data_functionalizedCrystal
_audit_creation_method	'MofGen! by Chris Wilmer'
_symmetry_space_group_name_H-M	'P1'
_symmetry_Int_Tables_number	1
_symmetry_cell_setting	triclinic
loop_
_symmetry_equiv_pos_as_xyz
  x,y,z
_cell_length_a	13.032831
_cell_length_b	12.594516
_cell_length_c	13.032328
_cell_angle_alpha	97.151354
_cell_angle_beta	90.887223
_cell_angle_gamma	82.821304
loop_
_atom_site_label
_atom_site_type_symbol
_atom_site_fract_x
_atom_site_fract_y
_atom_site_fract_z
Zn1	Zn	1.498491	-0.718806	-0.780867
Zn2	Zn	1.520238	-0.877394	-0.608896
Zn3	Zn	1.348350	-0.674346	-0.587107
Zn4	Zn	1.326485	-0.871636	-0.759020
O5	O	1.423391	-0.785545	-0.683972
O6	O	1.645297	-0.760860	-0.776316
O7	O	1.515688	-0.834262	-0.462089
O8	O	1.368315	-0.531307	-0.612833
O9	O	1.661274	-0.877374	-0.649970
O10	O	1.478623	-0.563972	-0.755188
O11	O	1.389403	-0.685084	-0.446080
O12	O	1.201528	-0.679500	-0.591649
O13	O	1.331050	-0.867560	-0.905834
O14	O	1.185464	-0.824449	-0.717953
O15	O	1.457422	-0.755276	-0.921885
O16	O	1.494487	-1.025567	-0.628786
O17	O	1.352138	-1.021336	-0.739082
C18	C	1.156179	-0.746526	-0.650067
C19	C	1.041862	-0.729862	-0.635586
C20	C	0.982987	-0.794243	-0.691530
C21	C	0.864833	-0.777021	-0.676565
C22	C	1.423325	-1.062076	-0.683954
C23	C	1.423386	-1.180394	-0.683992
C24	C	1.345962	-1.247378	-0.743933
C25	C	1.332828	-1.303996	-0.646915
C26	C	1.436611	-1.334591	-0.781037
C27	C	1.410209	-1.235441	-0.586919
C28	C	1.514028	-1.266042	-0.721110
C29	C	1.500938	-1.322626	-0.624032
C30	C	1.691646	-0.824718	-0.718011
C31	C	1.805960	-0.841411	-0.732516
C32	C	1.389371	-0.815735	-0.952219
C33	C	1.374874	-0.828600	-1.066530
C34	C	1.423482	-0.507942	-0.684017
C35	C	1.423521	-0.389644	-0.684036
C36	C	1.415969	-0.792084	-1.243583
C37	C	1.430947	-0.778778	-1.125436
C38	C	1.457337	-0.755405	-0.416776
C39	C	1.472033	-0.742269	-0.302492
H40	H	0.843021	-0.909280	-0.791500
C41	C	1.617459	-1.242734	-0.763546
N42	N	1.695358	-1.225172	-0.795523
C43	C	1.257384	-1.202805	-0.812276
N44	N	1.190665	-1.169227	-0.863745
H45	H	1.398988	-1.192476	-0.504833
H46	H	0.827770	-0.709144	-0.617591
H47	H	1.490034	-0.726270	-1.088406
H48	H	1.531116	-0.689764	-1.265457
H49	H	1.315772	-0.881091	-1.103557
C50	C	1.336132	-0.862998	-1.293608
N51	N	1.275994	-0.916410	-1.331285
H52	H	1.256236	-1.321238	-0.615552
H53	H	1.447744	-1.377668	-0.863090
C54	C	1.033058	-0.885936	-0.771201
N55	N	1.070770	-0.955003	-0.831209
H56	H	1.004794	-0.661989	-0.576617
H57	H	1.566480	-1.355393	-0.573294
