data_functionalizedCrystal
_audit_creation_method	'MofGen! by Chris Wilmer'
_symmetry_space_group_name_H-M	'P1'
_symmetry_Int_Tables_number	1
_symmetry_cell_setting	triclinic
loop_
_symmetry_equiv_pos_as_xyz
  x,y,z
_cell_length_a	19.805407
_cell_length_b	19.120786
_cell_length_c	19.805399
_cell_angle_alpha	87.531070
_cell_angle_beta	89.982197
_cell_angle_gamma	92.462474
loop_
_atom_site_label
_atom_site_type_symbol
_atom_site_fract_x
_atom_site_fract_y
_atom_site_fract_z
Zn1	Zn	1.023242	-0.279696	-0.371182
Zn2	Zn	1.356575	0.053637	-0.037848
Zn3	Zn	1.689909	0.386971	0.295485
Zn4	Zn	1.018330	-0.397155	-0.253161
Zn5	Zn	1.351663	-0.063821	0.080172
Zn6	Zn	1.684997	0.269512	0.413505
Zn7	Zn	0.910056	-0.279710	-0.258009
Zn8	Zn	1.243389	0.053623	0.075324
Zn9	Zn	1.576723	0.386957	0.408657
Zn10	Zn	0.905195	-0.397112	-0.366313
Zn11	Zn	1.238528	-0.063779	-0.032980
Zn12	Zn	1.571862	0.269555	0.300353
O13	O	0.964206	-0.338418	-0.312166
O14	O	1.297539	-0.005085	0.021167
O15	O	1.630872	0.328249	0.354500
O16	O	1.117306	-0.295289	-0.355535
O17	O	1.450640	0.038044	-0.022201
O18	O	1.783973	0.371377	0.311132
O19	O	1.003946	-0.381599	-0.159087
O20	O	1.337279	-0.048266	0.174246
O21	O	1.670613	0.285068	0.507580
O22	O	0.929160	-0.181418	-0.277088
O23	O	1.262494	0.151915	0.056245
O24	O	1.595827	0.485249	0.389579
O25	O	1.113698	-0.381586	-0.268826
O26	O	1.447031	-0.048252	0.064508
O27	O	1.780364	0.285081	0.397841
O28	O	1.012318	-0.181408	-0.360235
O29	O	1.345651	0.151926	-0.026902
O30	O	1.678984	0.485259	0.306431
O31	O	0.924397	-0.295313	-0.162649
O32	O	1.257731	0.038020	0.170685
O33	O	1.591064	0.371354	0.504018
O34	O	0.814695	-0.295271	-0.272367
O35	O	1.148028	0.038062	0.060966
O36	O	1.481362	0.371395	0.394299
O37	O	0.920876	-0.381513	-0.461677
O38	O	1.254209	-0.048179	-0.128344
O39	O	1.587542	0.285154	0.204990
O40	O	0.811124	-0.381526	-0.351938
O41	O	1.144457	-0.048193	-0.018605
O42	O	1.477790	0.285141	0.314729
O43	O	1.007604	-0.295248	-0.465253
O44	O	1.340937	0.038086	-0.131920
O45	O	1.674271	0.371419	0.201413
O46	O	0.999232	-0.495439	-0.264105
O47	O	1.332566	-0.162106	0.069228
O48	O	1.665899	0.171228	0.402561
O49	O	0.916113	-0.495408	-0.347237
O50	O	1.249446	-0.162074	-0.013904
O51	O	1.582779	0.171259	0.319429
C52	C	0.788351	-0.338396	-0.312151
C53	C	1.121684	-0.005063	0.021182
C54	C	1.455017	0.328271	0.354516
C55	C	0.713118	-0.338404	-0.312160
C56	C	1.046452	-0.005070	0.021174
C57	C	1.379785	0.328263	0.354507
C58	C	0.679651	-0.293549	-0.357372
C59	C	1.012984	0.039785	-0.024038
C60	C	1.346317	0.373118	0.309295
C61	C	0.608962	-0.293552	-0.357374
C62	C	0.942295	0.039781	-0.024041
C63	C	1.275629	0.373114	0.309293
C64	C	0.571742	-0.338415	-0.312167
C65	C	0.905076	-0.005082	0.021166
C66	C	1.238409	0.328252	0.354499
C67	C	0.605215	-0.383272	-0.266951
C68	C	0.938548	-0.049939	0.066383
C69	C	1.271881	0.283395	0.399716
C70	C	0.675902	-0.383264	-0.266945
C71	C	1.009236	-0.049931	0.066388
C72	C	1.342569	0.283402	0.399721
C73	C	0.320140	-0.383304	-0.266970
C74	C	0.653474	-0.049970	0.066363
C75	C	0.986807	0.283363	0.399697
C76	C	0.249448	-0.383309	-0.266980
C77	C	0.582781	-0.049976	0.066353
C78	C	0.916115	0.283357	0.399687
C79	C	0.253200	-0.293592	-0.357399
C80	C	0.586533	0.039742	-0.024065
C81	C	0.919867	0.373075	0.309268
C82	C	0.323887	-0.293584	-0.357393
C83	C	0.657221	0.039750	-0.024060
C84	C	0.990554	0.373083	0.309273
C85	C	0.357354	-0.338438	-0.312175
C86	C	0.690687	-0.005105	0.021159
C87	C	1.024021	0.328229	0.354492
C88	C	0.434003	-0.338432	-0.312172
C89	C	0.767336	-0.005099	0.021162
C90	C	1.100669	0.328234	0.354495
C91	C	0.495095	-0.338425	-0.312173
C92	C	0.828428	-0.005091	0.021160
C93	C	1.161761	0.328242	0.354494
C94	C	0.956630	-0.520909	-0.304632
C95	C	1.289964	-0.187576	0.028702
C96	C	1.623297	0.145758	0.362035
C97	C	0.953452	-0.598979	-0.301431
C98	C	1.286785	-0.265646	0.031902
C99	C	1.620118	0.067688	0.365236
C100	C	0.995221	-0.635591	-0.343253
C101	C	1.328555	-0.302258	-0.009920
C102	C	1.661888	0.031076	0.323414
C103	C	0.992232	-0.708946	-0.340247
C104	C	1.325565	-0.375613	-0.006913
C105	C	1.658898	-0.042280	0.326420
C106	C	0.947475	-0.745688	-0.295415
C107	C	1.280809	-0.412355	0.037919
C108	C	1.614142	-0.079022	0.371252
C109	C	0.905701	-0.709071	-0.253591
C110	C	1.239034	-0.375738	0.079742
C111	C	1.572368	-0.042405	0.413076
C112	C	0.908688	-0.635717	-0.256601
C113	C	1.242021	-0.302384	0.076732
C114	C	1.575354	0.030949	0.410065
C115	C	0.936290	-0.967173	-0.284162
C116	C	1.269623	-0.633840	0.049172
C117	C	1.602957	-0.300507	0.382505
C118	C	0.933308	-1.040533	-0.281153
C119	C	1.266641	-0.707199	0.052180
C120	C	1.599975	-0.373866	0.385513
C121	C	1.019838	-1.040402	-0.367810
C122	C	1.353172	-0.707069	-0.034477
C123	C	1.686505	-0.373736	0.298857
C124	C	1.022824	-0.967047	-0.370813
C125	C	1.356157	-0.633714	-0.037480
C126	C	1.689490	-0.300380	0.295853
C127	C	0.981047	-0.930436	-0.328992
C128	C	1.314380	-0.597103	0.004341
C129	C	1.647714	-0.263770	0.337674
C130	C	0.944420	-0.820669	-0.292339
C131	C	1.277753	-0.487336	0.040994
C132	C	1.611087	-0.154003	0.374327
C133	C	0.984099	-0.855457	-0.332072
C134	C	1.317433	-0.522123	0.001262
C135	C	1.650766	-0.188790	0.334595
C136	C	1.140748	-0.338441	-0.312182
C137	C	1.474081	-0.005107	0.021151
C138	C	1.807414	0.328226	0.354484
C139	C	1.215979	-0.338450	-0.312189
C140	C	1.549312	-0.005117	0.021144
C141	C	1.882646	0.328216	0.354477
C142	C	0.964246	-0.338374	-0.488711
C143	C	1.297579	-0.005041	-0.155378
C144	C	1.630912	0.328293	0.177956
C145	C	0.964262	-0.338355	-0.563944
C146	C	1.297596	-0.005022	-0.230611
C147	C	1.630929	0.328312	0.102723
C148	C	0.971829	-0.155215	-0.319745
C149	C	1.305162	0.178119	0.013588
C150	C	1.638496	0.511452	0.346921
C151	C	0.975078	-0.077144	-0.322975
C152	C	1.308411	0.256189	0.010358
C153	C	1.641744	0.589522	0.343692
C154	C	1.009423	-0.293435	-0.601152
C155	C	1.342756	0.039899	-0.267818
C156	C	1.676090	0.373232	0.065515
C157	C	1.009431	-0.293414	-0.671841
C158	C	1.342764	0.039919	-0.338508
C159	C	1.676098	0.373252	-0.005174
C160	C	0.964281	-0.338318	-0.705321
C161	C	1.297614	-0.004985	-0.371988
C162	C	1.630947	0.328348	-0.038654
C163	C	0.919115	-0.383241	-0.668108
C164	C	1.252449	-0.049907	-0.334775
C165	C	1.585782	0.283426	-0.001442
C166	C	0.919105	-0.383257	-0.597420
C167	C	1.252438	-0.049924	-0.264087
C168	C	1.585771	0.283410	0.069246
C169	C	0.919156	-0.383175	-0.953184
C170	C	1.252490	-0.049842	-0.619851
C171	C	1.585823	0.283491	-0.286518
C172	C	0.919172	-0.383157	-1.023877
C173	C	1.252505	-0.049824	-0.690544
C174	C	1.585838	0.283510	-0.357211
C175	C	1.009482	-0.293332	-1.027605
C176	C	1.342816	0.040001	-0.694272
C177	C	1.676149	0.373334	-0.360938
C178	C	1.009472	-0.293349	-0.956917
C179	C	1.342805	0.039985	-0.623584
C180	C	1.676138	0.373318	-0.290250
C181	C	0.964304	-0.338268	-0.919711
C182	C	1.297638	-0.004935	-0.586377
C183	C	1.630971	0.328398	-0.253044
C184	C	0.964295	-0.338289	-0.843061
C185	C	1.297629	-0.004956	-0.509728
C186	C	1.630962	0.328378	-0.176395
C187	C	0.964292	-0.338302	-0.781969
C188	C	1.297626	-0.004968	-0.448636
C189	C	1.630959	0.328365	-0.115302
C190	C	0.964207	-0.338412	-0.136311
C191	C	1.297540	-0.005078	0.197023
C192	C	1.630874	0.328255	0.530356
C193	C	0.964329	-0.338232	-0.061087
C194	C	1.297663	-0.004899	0.272247
C195	C	1.630996	0.328434	0.605580
H196	H	0.574905	-0.419797	-0.230139
H197	H	0.908238	-0.086463	0.103194
H198	H	1.241572	0.246870	0.436527
F199	F	0.217577	-0.245851	-0.405523
F200	F	0.550910	0.087482	-0.072190
F201	F	0.884244	0.420815	0.261143
F202	F	0.858061	-0.748177	-0.205883
F203	F	1.191395	-0.414844	0.127450
F204	F	1.524728	-0.081510	0.460783
H205	H	0.581716	-0.257028	-0.394191
H206	H	0.915049	0.076305	-0.060858
H207	H	1.248383	0.409639	0.272475
H208	H	0.219145	-0.419844	-0.230165
H209	H	0.552479	-0.086511	0.103169
H210	H	0.885812	0.246823	0.436502
F211	F	1.070459	-0.927949	-0.418530
F212	F	1.403792	-0.594615	-0.085197
F213	F	1.737126	-0.261282	0.248136
F214	F	1.057519	-0.245628	-0.711436
F215	F	1.390853	0.087705	-0.378103
F216	F	1.724186	0.421039	-0.044769
F217	F	1.057529	-0.245558	-0.921289
F218	F	1.390862	0.087775	-0.587955
F219	F	1.724195	0.421108	-0.254622
H220	H	1.046258	-0.256754	-1.057907
H221	H	1.379591	0.076579	-0.724574
H222	H	1.712924	0.409912	-0.391240
H223	H	0.354188	-0.257054	-0.394208
H224	H	0.687522	0.076279	-0.060874
H225	H	1.020855	0.409612	0.272459
H226	H	0.347380	-0.419827	-0.230151
H227	H	0.680713	-0.086494	0.103183
H228	H	1.014047	0.246839	0.436516
F229	F	0.711521	-0.431006	-0.218825
F230	F	1.044854	-0.097672	0.114508
F231	F	1.378187	0.235661	0.447842
F232	F	0.871060	-0.431028	-0.703742
F233	F	1.204394	-0.097695	-0.370409
F234	F	1.537727	0.235638	-0.037076
F235	F	1.042861	-0.596494	-0.390966
F236	F	1.376195	-0.263160	-0.057633
F237	F	1.709528	0.070173	0.275701
F238	F	1.057482	-0.245644	-0.565526
F239	F	1.390815	0.087689	-0.232192
F240	F	1.724149	0.421022	0.101141
F241	F	0.871114	-0.430952	-1.059508
F242	F	1.204447	-0.097619	-0.726175
F243	F	1.537781	0.235715	-0.392841
F244	F	0.871085	-0.430983	-0.913596
F245	F	1.204418	-0.097649	-0.580262
F246	F	1.537752	0.235684	-0.246929
H247	H	1.026250	-0.738753	-0.374297
H248	H	1.359584	-0.405419	-0.040964
H249	H	1.692917	-0.072086	0.292369
H250	H	0.882324	-0.419829	-0.567127
H251	H	1.215657	-0.086495	-0.233794
H252	H	1.548990	0.246838	0.099540
H253	H	0.896859	-1.070446	-0.244645
H254	H	1.230192	-0.737113	0.088688
H255	H	1.563525	-0.403779	0.422022
F256	F	0.719257	-0.245802	-0.405491
F257	F	1.052590	0.087532	-0.072157
F258	F	1.385923	0.420865	0.261176
H259	H	0.902275	-0.937371	-0.250108
H260	H	1.235608	-0.604038	0.083225
H261	H	1.568942	-0.270704	0.416559
F262	F	1.064295	-1.079371	-0.412317
F263	F	1.397628	-0.746038	-0.078984
F264	F	1.730962	-0.412704	0.254349
H265	H	0.907981	-0.850593	-0.255835
H266	H	1.241314	-0.517260	0.077498
H267	H	1.574648	-0.183926	0.410832
H268	H	0.874673	-0.605909	-0.222546
H269	H	1.208007	-0.272575	0.110787
H270	H	1.541340	0.060758	0.444120
F271	F	1.031727	-0.816352	-0.379787
F272	F	1.365061	-0.483018	-0.046454
F273	F	1.698394	-0.149685	0.286880
