data_functionalizedCrystal
_audit_creation_method	'MofGen! by Chris Wilmer'
_symmetry_space_group_name_H-M	'P1'
_symmetry_Int_Tables_number	1
_symmetry_cell_setting	triclinic
loop_
_symmetry_equiv_pos_as_xyz
  x,y,z
_cell_length_a	11.792241
_cell_length_b	11.792241
_cell_length_c	8.140239
_cell_angle_alpha	90.003307
_cell_angle_beta	89.997269
_cell_angle_gamma	84.193416
loop_
_atom_site_label
_atom_site_type_symbol
_atom_site_fract_x
_atom_site_fract_y
_atom_site_fract_z
O1	O	1.506904	0.155566	0.136455
O2	O	1.756904	0.405566	0.386455
O3	O	2.006904	0.655566	0.636455
O4	O	2.256904	0.905566	0.886455
O5	O	1.176563	0.171599	0.136493
O6	O	1.426563	0.421599	0.386493
O7	O	1.676563	0.671599	0.636493
O8	O	1.926563	0.921599	0.886493
O9	O	1.349750	-0.001588	0.136461
O10	O	1.599750	0.248412	0.386461
O11	O	1.849750	0.498412	0.636461
O12	O	2.099750	0.748412	0.886461
O13	O	1.333717	0.328753	0.136486
O14	O	1.583717	0.578753	0.386486
O15	O	1.833717	0.828753	0.636486
O16	O	2.083717	1.078753	0.886486
O17	O	1.349744	-0.001590	-0.136766
O18	O	1.599744	0.248410	0.113234
O19	O	1.849744	0.498410	0.363234
O20	O	2.099744	0.748410	0.613234
O21	O	1.176557	0.171597	-0.136734
O22	O	1.426557	0.421597	0.113266
O23	O	1.676557	0.671597	0.363266
O24	O	1.926557	0.921597	0.613266
O25	O	1.506898	0.155564	-0.136773
O26	O	1.756898	0.405564	0.113227
O27	O	2.006898	0.655564	0.363227
O28	O	2.256898	0.905564	0.613227
Zn29	Zn	1.341727	0.163581	-0.180134
Zn30	Zn	1.591727	0.413581	0.069866
Zn31	Zn	1.841727	0.663581	0.319866
Zn32	Zn	2.091727	0.913581	0.569866
Zn33	Zn	1.341734	0.163582	0.179854
Zn34	Zn	1.591734	0.413582	0.429854
Zn35	Zn	1.841734	0.663582	0.679854
Zn36	Zn	2.091734	0.913582	0.929854
O37	O	1.333711	0.328751	-0.136741
O38	O	1.583711	0.578751	0.113259
O39	O	1.833711	0.828751	0.363259
O40	O	2.083711	1.078751	0.613259
C41	C	1.134269	0.170591	-0.000116
C42	C	1.384269	0.420591	0.249884
C43	C	1.634269	0.670591	0.499884
C44	C	1.884269	0.920591	0.749884
C45	C	1.008255	0.167576	-0.000101
C46	C	1.258255	0.417576	0.249899
C47	C	1.508255	0.667576	0.499899
C48	C	1.758255	0.917576	0.749899
C49	C	1.348740	-0.043880	-0.000152
C50	C	1.598740	0.206120	0.249848
C51	C	1.848740	0.456120	0.499848
C52	C	2.098740	0.706120	0.749848
C53	C	1.345726	-0.169894	-0.000150
C54	C	1.595726	0.080106	0.249850
C55	C	1.845726	0.330106	0.499850
C56	C	2.095726	0.580106	0.749850
C57	C	1.340183	-0.400606	-0.000122
C58	C	1.590183	-0.150606	0.249878
C59	C	1.840183	0.099394	0.499878
C60	C	2.090183	0.349394	0.749878
C61	C	1.343262	-0.272221	-0.000137
C62	C	1.593262	-0.022221	0.249863
C63	C	1.843262	0.227779	0.499863
C64	C	2.093262	0.477779	0.749863
C65	C	0.777543	0.162034	-0.000149
C66	C	1.027543	0.412034	0.249851
C67	C	1.277543	0.662034	0.499851
C68	C	1.527543	0.912034	0.749851
C69	C	0.905928	0.165113	-0.000123
C70	C	1.155928	0.415113	0.249877
C71	C	1.405928	0.665113	0.499877
C72	C	1.655928	0.915113	0.749877
C73	C	1.549192	0.156572	-0.000160
C74	C	1.799192	0.406572	0.249840
C75	C	2.049192	0.656572	0.499840
C76	C	2.299192	0.906572	0.749840
C77	C	1.675206	0.159587	-0.000164
C78	C	1.925206	0.409587	0.249836
C79	C	2.175206	0.659587	0.499836
C80	C	2.425206	0.909587	0.749836
C81	C	1.334721	0.371043	-0.000124
C82	C	1.584721	0.621043	0.249876
C83	C	1.834721	0.871043	0.499876
C84	C	2.084721	1.121043	0.749876
C85	C	1.337736	0.497057	-0.000116
C86	C	1.587736	0.747057	0.249884
C87	C	1.837736	0.997057	0.499884
C88	C	2.087736	1.247057	0.749884
N89	N	1.341730	0.163579	-0.425817
N90	N	1.591730	0.413579	-0.175817
N91	N	1.841730	0.663579	0.074183
N92	N	2.091730	0.913579	0.324183
N93	N	1.341740	0.163575	0.425537
N94	N	1.591740	0.413575	0.675537
N95	N	1.841740	0.663575	0.925537
N96	N	2.091740	0.913575	1.175537
