data_functionalizedCrystal
_audit_creation_method	'MofGen! by Chris Wilmer'
_symmetry_space_group_name_H-M	'P1'
_symmetry_Int_Tables_number	1
_symmetry_cell_setting	triclinic
loop_
_symmetry_equiv_pos_as_xyz
  x,y,z
_cell_length_a	19.805407
_cell_length_b	19.805405
_cell_length_c	12.759393
_cell_angle_alpha	89.962372
_cell_angle_beta	89.979138
_cell_angle_gamma	90.023727
loop_
_atom_site_label
_atom_site_type_symbol
_atom_site_fract_x
_atom_site_fract_y
_atom_site_fract_z
Zn1	Zn	1.034756	-0.269472	-0.594003
Zn2	Zn	1.034665	-0.382677	-0.418305
Zn3	Zn	0.921565	-0.269502	-0.418335
Zn4	Zn	0.921534	-0.382619	-0.593939
O5	O	0.978130	-0.326067	-0.506146
O6	O	1.129461	-0.284500	-0.570711
O7	O	1.019636	-0.367700	-0.271288
O8	O	0.936631	-0.174781	-0.441678
O9	O	1.129394	-0.367671	-0.441626
O10	O	1.019792	-0.174759	-0.570740
O11	O	0.936542	-0.284551	-0.271310
O12	O	0.826844	-0.284495	-0.441616
O13	O	0.936579	-0.367573	-0.740969
O14	O	0.826822	-0.367602	-0.570631
O15	O	1.019762	-0.284444	-0.741016
O16	O	1.019607	-0.477385	-0.441563
O17	O	0.936490	-0.477343	-0.570601
C18	C	0.802274	-0.326046	-0.506120
C19	C	0.727042	-0.326053	-0.506134
C20	C	0.691733	-0.282823	-0.573451
C21	C	0.621045	-0.282826	-0.573455
C22	C	0.585666	-0.326064	-0.506147
C23	C	0.620980	-0.369297	-0.438823
C24	C	0.691667	-0.369289	-0.438814
C25	C	0.335907	-0.369327	-0.438855
C26	C	0.265215	-0.369333	-0.438871
C27	C	0.265284	-0.282864	-0.573496
C28	C	0.335972	-0.282857	-0.573487
C29	C	0.371279	-0.326086	-0.506160
C30	C	0.447927	-0.326081	-0.506155
C31	C	0.509019	-0.326073	-0.506156
C32	C	0.978054	-0.501923	-0.506095
C33	C	0.978083	-0.577155	-0.506108
C34	C	1.021404	-0.612499	-0.438989
C35	C	1.021433	-0.683187	-0.439012
C36	C	0.978137	-0.718531	-0.506150
C37	C	0.934814	-0.683182	-0.573277
C38	C	0.934789	-0.612495	-0.573258
C39	C	0.934914	-0.968255	-0.573355
C40	C	0.934941	-1.038947	-0.573366
C41	C	1.021557	-1.038948	-0.439108
C42	C	1.021533	-0.968261	-0.439090
C43	C	0.978213	-0.932918	-0.506220
C44	C	0.978183	-0.856270	-0.506196
C45	C	0.978163	-0.795178	-0.506170
C46	C	1.154673	-0.326089	-0.506172
C47	C	1.229905	-0.326098	-0.506183
C48	C	0.978177	-0.325999	-0.780179
C49	C	0.978198	-0.325970	-0.896956
C50	C	0.978225	-0.149524	-0.506220
C51	C	0.978265	-0.074292	-0.506251
C52	C	1.021517	-0.282681	-0.951844
C53	C	1.021533	-0.282656	-1.061568
C54	C	0.934908	-0.369216	-1.061506
C55	C	0.934889	-0.369236	-0.951784
C56	C	1.071532	-0.232708	-0.951881
C57	C	1.071548	-0.232683	-1.061605
C58	C	0.978122	-0.326086	-0.233178
C59	C	0.978233	-0.325925	-0.116402
H60	H	0.592300	-0.247625	-0.628273
N61	N	1.068236	-0.930143	-0.366684
H62	H	1.061647	-0.879999	-0.376858
H63	H	1.057736	-0.942544	-0.291636
H64	H	1.121309	-0.251502	-0.917845
N65	N	1.140975	-0.251287	-1.101075
H66	H	1.175012	-0.217318	-1.074736
H67	H	1.153355	-0.297748	-1.074691
H68	H	1.056658	-0.583727	-0.384312
N69	N	0.729889	-0.236191	-0.646055
H70	H	0.696792	-0.208805	-0.688699
H71	H	0.759216	-0.204833	-0.603376
H72	H	0.899514	-0.583719	-0.627915
H73	H	0.899612	-0.404484	-0.907098
N74	N	0.227056	-0.415961	-0.366255
H75	H	0.176919	-0.409406	-0.376481
H76	H	0.239400	-0.464315	-0.382454
N77	N	1.052963	-0.163282	-0.912454
H78	H	1.091099	-0.144759	-0.868489
H79	H	1.044675	-0.132331	-0.974054
N80	N	1.068293	-1.077063	-0.366710
H81	H	1.057798	-1.064808	-0.291627
H82	H	1.061725	-1.127194	-0.376993
N83	N	0.888185	-0.930144	-0.645748
H84	H	0.856825	-0.900862	-0.602998
H85	H	0.915709	-0.900809	-0.694458
H86	H	0.364645	-0.404528	-0.384034
N87	N	0.582826	-0.415926	-0.366214
H88	H	0.532687	-0.409373	-0.376433
H89	H	0.595171	-0.464278	-0.382421
H90	H	0.899565	-0.711964	-0.627947
N91	N	0.374130	-0.236225	-0.646089
H92	H	0.341035	-0.208838	-0.688734
H93	H	0.403456	-0.204868	-0.603406
N94	N	0.227203	-0.236234	-0.646114
H95	H	0.177055	-0.242795	-0.635907
H96	H	0.239572	-0.187880	-0.629901
H97	H	1.056708	-0.711961	-0.384356
H98	H	0.899647	-0.404441	-1.106161
H99	H	0.720414	-0.404492	-0.383997
N100	N	0.888239	-1.077070	-0.645780
H101	H	0.860793	-1.043955	-0.688306
H102	H	0.915786	-1.106355	-0.694440
N103	N	1.046740	-0.166704	-1.106724
H104	H	1.047661	-0.169096	-1.185779
H105	H	0.999017	-0.158116	-1.082224
