data_functionalizedCrystal
_audit_creation_method	'MofGen! by Chris Wilmer'
_symmetry_space_group_name_H-M	'P1'
_symmetry_Int_Tables_number	1
_symmetry_cell_setting	triclinic
loop_
_symmetry_equiv_pos_as_xyz
  x,y,z
_cell_length_a	10.654550
_cell_length_b	10.654550
_cell_length_c	9.730223
_cell_angle_alpha	90.000043
_cell_angle_beta	89.996763
_cell_angle_gamma	95.515083
loop_
_atom_site_label
_atom_site_type_symbol
_atom_site_fract_x
_atom_site_fract_y
_atom_site_fract_z
O1	O	0.176399	-1.667839	-0.114183
O2	O	0.193205	-1.302361	-0.114208
O3	O	0.002062	-1.493503	-0.114190
O4	O	0.367541	-1.476697	-0.114202
O5	O	0.002057	-1.493490	0.114390
O6	O	0.193199	-1.302348	0.114372
O7	O	0.176393	-1.667827	0.114396
Zn8	Zn	0.184796	-1.485085	0.150676
Zn9	Zn	0.184802	-1.485102	-0.150488
O10	O	0.367536	-1.476684	0.114378
C11	C	0.191968	-1.255556	0.000078
C12	C	0.188276	-1.116113	0.000069
C13	C	-0.044738	-1.492263	0.000098
C14	C	-0.184181	-1.488571	0.000093
N15	N	0.184790	-1.485083	0.356212
C16	C	-0.263667	-1.601112	0.000105
C17	C	-0.394688	-1.597636	0.000095
C18	C	-0.366725	-1.369066	0.000067
C19	C	-0.235706	-1.372544	0.000067
C20	C	-0.279813	-1.733075	0.000127
C21	C	-0.410834	-1.729599	0.000117
C22	C	0.414336	-1.477924	0.000087
C23	C	0.553779	-1.481616	0.000083
C24	C	0.177630	-1.714631	0.000107
C25	C	0.181322	-1.854074	0.000107
C26	C	0.300818	-1.036627	0.000069
C27	C	0.297341	-0.905607	0.000093
C28	C	0.068772	-0.933570	0.000111
C29	C	0.072250	-1.064588	0.000097
N30	N	0.184798	-1.485114	-0.356024
C31	C	0.100188	-1.569750	0.428146
C32	C	0.100189	-1.569763	0.572029
C33	C	0.269404	-1.400438	0.572032
C34	C	0.269396	-1.400420	0.428151
H35	H	-0.170993	-1.280902	0.000039
Br36	Br	0.384211	-1.285497	0.330515
H37	H	-0.025693	-0.891602	0.000142
Br38	Br	-0.436660	-1.211609	0.000024
H39	H	-0.250452	-1.784696	-0.095523
H40	H	-0.244188	-1.775092	0.098826
H41	H	0.395294	-1.078574	0.000057
Br42	Br	0.450083	-0.797737	0.000101
Br43	Br	0.384225	-1.285544	0.669668
H44	H	-0.456474	-1.769485	-0.098575
Br45	Br	-0.480452	-1.812458	0.159552
H46	H	-0.019401	-1.129309	0.000100
H47	H	0.031295	-1.638687	0.369577
H48	H	0.031297	-1.638705	0.630594
