data_functionalizedCrystal
_audit_creation_method	'MofGen! by Chris Wilmer'
_symmetry_space_group_name_H-M	'P1'
_symmetry_Int_Tables_number	1
_symmetry_cell_setting	triclinic
loop_
_symmetry_equiv_pos_as_xyz
  x,y,z
_cell_length_a	6.817900
_cell_length_b	16.305550
_cell_length_c	17.284672
_cell_angle_alpha	92.034738
_cell_angle_beta	103.040903
_cell_angle_gamma	103.455250
loop_
_atom_site_label
_atom_site_type_symbol
_atom_site_fract_x
_atom_site_fract_y
_atom_site_fract_z
V1	V	-4.019403	-0.255798	-0.109705
O2	O	-4.014127	-0.258327	0.004587
O3	O	-3.964170	-0.246933	-0.216868
O4	O	-3.970896	-0.370606	-0.108318
O5	O	-4.007355	-0.133797	-0.104715
V6	V	-4.503931	-0.242070	-0.095999
O7	O	-4.278459	-0.285911	-0.139771
O8	O	-4.695072	-0.211957	-0.065933
O9	O	-4.335957	-0.250935	0.011165
O10	O	-4.626603	-0.239541	-0.210291
O11	O	-4.633375	-0.364071	-0.100989
O12	O	-4.329231	-0.127262	-0.097386
C13	C	-3.807512	-0.241062	-0.242983
C14	C	-3.843639	-0.234579	-0.330592
C15	C	-3.900007	-0.308031	-0.383204
C16	C	-3.933929	-0.301932	-0.465521
C17	C	-3.911497	-0.222380	-0.495225
C18	C	-3.855118	-0.148923	-0.442606
C19	C	-3.821183	-0.155023	-0.360291
C20	C	-4.008753	-0.195934	-0.740183
C21	C	-4.042701	-0.189840	-0.822505
C22	C	-4.121505	-0.342849	-0.845413
C23	C	-4.087577	-0.348942	-0.763096
C24	C	-4.031191	-0.275485	-0.710484
N25	N	-3.946177	-0.216144	-0.579365
N26	N	-3.996498	-0.281721	-0.626345
C27	C	-3.816091	-0.398818	-0.104515
C28	C	-3.857669	-0.492628	-0.104090
C29	C	-4.008858	-0.833482	-0.102443
C30	C	-3.773115	-0.792876	-0.097553
C31	C	-3.729874	-0.695331	-0.098321
C32	C	-3.933850	-0.664381	-0.103260
C33	C	-4.096029	-0.709875	-0.181093
C34	C	-4.137919	-0.807454	-0.180653
C35	C	-4.068124	-0.792407	-0.030121
C36	C	-4.020233	-0.694605	-0.029505
C37	C	-3.891471	-0.568812	-0.103724
C38	C	-4.051246	-0.929052	-0.101984
C39	C	-4.155957	-0.256804	0.037275
C40	C	-4.099068	-0.263292	0.124884
C41	C	-4.147379	-0.099045	-0.101191
C42	C	-4.085039	-0.005235	-0.101612
H43	H	-3.670484	-0.808947	-0.041326
H44	H	-3.979827	-0.361744	-0.508354
N45	N	-4.110521	-0.430210	-0.732770
N46	N	-4.160861	-0.495788	-0.779755
H47	H	-4.177078	-0.553185	-0.758339
H48	H	-3.980401	-0.809664	0.028853
H49	H	-4.167412	-0.402654	-0.888258
N50	N	-4.088239	-0.841041	-0.249321
N51	N	-3.951450	-0.881645	-0.241062
H52	H	-3.916350	-0.905362	-0.289559
N53	N	-3.832188	-0.067668	-0.472958
N54	N	-3.862492	-0.062231	-0.546455
H55	H	-3.846299	-0.004844	-0.567890
N56	N	-4.283732	-0.825825	-0.033727
N57	N	-4.337637	-0.864309	0.022283
H58	H	-4.489908	-0.887915	0.019733
H59	H	-3.775275	-0.095210	-0.317454
H60	H	-3.606867	-0.663997	-0.042359
N61	N	-4.022172	-0.684260	-0.249789
N62	N	-3.854911	-0.697637	-0.258560
H63	H	-3.802735	-0.679548	-0.307075
N64	N	-3.922910	-0.389299	-0.352879
N65	N	-3.812448	-0.436788	-0.366635
H66	H	-3.828618	-0.494186	-0.345222
H67	H	-4.024423	-0.125056	-0.846685
N68	N	-3.951165	-0.120893	-0.686460
N69	N	-3.931155	-0.049873	-0.712995
H70	H	-3.890482	0.003130	-0.675051
N71	N	-3.712472	-0.828121	-0.162727
N72	N	-3.727307	-0.905952	-0.171126
H73	H	-3.684487	-0.930849	-0.217156
H74	H	-3.660169	-0.675572	-0.150880
N75	N	-4.355446	-0.842031	-0.189213
N76	N	-4.417827	-0.883252	-0.136100
H77	H	-4.571454	-0.907674	-0.142152
N78	N	-4.287654	-0.685617	-0.189151
N79	N	-4.306875	-0.634404	-0.137496
H80	H	-4.442210	-0.617270	-0.143184
N81	N	-3.872877	-0.656236	0.042712
N82	N	-3.704830	-0.606806	0.039935
H83	H	-3.600756	-0.579698	0.090937
N84	N	-4.205099	-0.667904	-0.028325
N85	N	-4.361553	-0.691435	-0.085259
H86	H	-4.492134	-0.672580	-0.084443
