data_functionalizedCrystal
_audit_creation_method	'MofGen! by Chris Wilmer'
_symmetry_space_group_name_H-M	'P1'
_symmetry_Int_Tables_number	1
_symmetry_cell_setting	triclinic
loop_
_symmetry_equiv_pos_as_xyz
  x,y,z
_cell_length_a	6.817900
_cell_length_b	17.982723
_cell_length_c	11.168136
_cell_angle_alpha	94.265089
_cell_angle_beta	108.508683
_cell_angle_gamma	102.447564
loop_
_atom_site_label
_atom_site_type_symbol
_atom_site_fract_x
_atom_site_fract_y
_atom_site_fract_z
V1	V	-4.079236	-0.105425	-0.394236
V2	V	-3.579236	0.394575	0.105764
O3	O	-4.070936	0.005054	-0.386179
O4	O	-3.570936	0.505054	0.113821
O5	O	-4.025408	-0.209028	-0.392071
O6	O	-3.525408	0.290972	0.107929
O7	O	-4.055997	-0.103808	-0.565934
O8	O	-3.555997	0.396192	-0.065934
O9	O	-4.040135	-0.100894	-0.211113
O10	O	-3.540135	0.399106	0.288887
V11	V	-4.560307	-0.092209	-0.372269
V12	V	-4.060307	0.407791	0.127731
O13	O	-4.345873	-0.134413	-0.442424
O14	O	-3.845873	0.365587	0.057576
O15	O	-4.743868	-0.063221	-0.324081
O16	O	-4.243868	0.436779	0.175919
O17	O	-4.390929	0.011394	-0.374434
O18	O	-3.890929	0.511394	0.125566
O19	O	-4.686005	-0.202688	-0.380326
O20	O	-4.186005	0.297312	0.119674
O21	O	-4.716806	-0.096740	-0.555392
O22	O	-4.216806	0.403260	-0.055392
O23	O	-4.360340	-0.093826	-0.200571
O24	O	-3.860340	0.406174	0.299429
C25	C	-3.868274	-0.234284	-0.385989
C26	C	-3.368274	0.265716	0.114011
C27	C	-3.905717	-0.318981	-0.385363
C28	C	-3.405717	0.181019	0.114637
C29	C	-4.318457	-0.842746	-0.387771
C30	C	-3.818457	-0.342746	0.112229
C31	C	-4.283266	-0.763165	-0.388364
C32	C	-3.783266	-0.263165	0.111636
C33	C	-4.082822	-0.719497	-0.382342
C34	C	-3.582822	-0.219497	0.117658
C35	C	-3.917552	-0.755413	-0.375713
C36	C	-3.417552	-0.255413	0.124287
C37	C	-3.952740	-0.834993	-0.375110
C38	C	-3.452740	-0.334993	0.124890
C39	C	-3.775638	-0.434479	-0.378141
C40	C	-3.275638	0.065521	0.121859
C41	C	-3.740464	-0.354895	-0.378748
C42	C	-3.240464	0.145105	0.121252
C43	C	-4.106164	-0.362651	-0.391395
C44	C	-3.606164	0.137349	0.108605
C45	C	-4.141352	-0.442230	-0.390792
C46	C	-3.641352	0.057770	0.109208
C47	C	-3.976077	-0.478139	-0.384157
C48	C	-3.476077	0.021861	0.115843
C49	C	-4.014236	-0.564430	-0.383511
C50	C	-3.514236	-0.064430	0.116489
C51	C	-4.044666	-0.633208	-0.382997
C52	C	-3.544666	-0.133208	0.117003
C53	C	-3.907292	-0.100065	-0.607766
C54	C	-3.407292	0.399935	-0.107766
C55	C	-3.969538	-0.099429	-0.748134
C56	C	-3.469538	0.400571	-0.248134
C57	C	-4.171079	-0.102759	-0.816842
C58	C	-3.671079	0.397241	-0.316842
C59	C	-4.235418	-0.102101	-0.961919
C60	C	-3.735418	0.397899	-0.461919
C61	C	-4.211405	0.036646	-0.380512
C62	C	-3.711405	0.536646	0.119488
C63	C	-4.153201	0.121342	-0.381146
C64	C	-3.653201	0.621342	0.118854
C65	C	-4.172386	-0.097572	-0.158732
C66	C	-3.672386	0.402428	0.341268
C67	C	-4.089378	-0.098204	-0.018363
C68	C	-3.589378	0.401796	0.481637
H69	H	-3.577232	-0.319342	-0.373843
H70	H	-3.077232	0.180658	0.126157
H71	H	-4.408073	-0.104956	-1.020985
H72	H	-3.908073	0.395044	-0.520985
F73	F	-3.863702	-0.094484	-0.941175
F74	F	-3.363702	0.405516	-0.441175
F75	F	-3.704214	-0.708935	-0.369286
F76	F	-3.204214	-0.208935	0.130714
F77	F	-3.776850	-0.873211	-0.368057
F78	F	-3.276850	-0.373211	0.131943
F79	F	-4.459142	-0.724946	-0.395384
F80	F	-3.959142	-0.224946	0.104616
F81	F	-3.599725	-0.472684	-0.371063
F82	F	-3.099725	0.027316	0.128937
H83	H	-4.295989	-0.106091	-0.768261
H84	H	-3.795989	0.393909	-0.268261
F85	F	-4.354691	-0.488701	-0.397208
F86	F	-3.854691	0.011299	0.102792
H87	H	-4.240733	-0.333404	-0.396792
H88	H	-3.740733	0.166596	0.103208
H89	H	-4.481681	-0.878296	-0.392683
H90	H	-3.981681	-0.378296	0.107317
F91	F	-3.806254	-0.095060	-0.811623
F92	F	-3.306254	0.404940	-0.311623
