data_functionalizedCrystal
_audit_creation_method	'MofGen! by Chris Wilmer'
_symmetry_space_group_name_H-M	'P1'
_symmetry_Int_Tables_number	1
_symmetry_cell_setting	triclinic
loop_
_symmetry_equiv_pos_as_xyz
  x,y,z
_cell_length_a	16.120530
_cell_length_b	16.625546
_cell_length_c	16.625539
_cell_angle_alpha	89.969603
_cell_angle_beta	87.082392
_cell_angle_gamma	87.117901
loop_
_atom_site_label
_atom_site_type_symbol
_atom_site_fract_x
_atom_site_fract_y
_atom_site_fract_z
Zn1	Zn	1.274562	-0.383590	-0.518326
Zn2	Zn	1.774562	0.116410	-0.018326
Zn3	Zn	1.274462	-0.518428	-0.383484
Zn4	Zn	1.774462	-0.018428	0.116516
Zn5	Zn	1.135142	-0.376772	-0.376678
Zn6	Zn	1.635142	0.123228	0.123322
Zn7	Zn	1.135112	-0.511536	-0.511448
Zn8	Zn	1.635112	-0.011536	-0.011448
O9	O	1.204819	-0.447581	-0.447484
O10	O	1.704819	0.052419	0.052516
O11	O	1.391215	-0.407214	-0.506166
O12	O	1.891215	0.092786	-0.006166
O13	O	1.255952	-0.499668	-0.269747
O14	O	1.755952	0.000332	0.230253
O15	O	1.153691	-0.264846	-0.395498
O16	O	1.653691	0.235154	0.104502
O17	O	1.391141	-0.506279	-0.407098
O18	O	1.891141	-0.006279	0.092902
O19	O	1.256122	-0.269856	-0.499567
O20	O	1.756122	0.230144	0.000433
O21	O	1.153594	-0.395593	-0.264747
O22	O	1.653594	0.104407	0.235253
O23	O	1.018472	-0.388911	-0.388829
O24	O	1.518472	0.111089	0.111171
O25	O	1.153639	-0.494533	-0.625194
O26	O	1.653639	0.005467	-0.125194
O27	O	1.018450	-0.487922	-0.487844
O28	O	1.518450	0.012078	0.012156
O29	O	1.256093	-0.400531	-0.630248
O30	O	1.756093	0.099469	-0.130248
O31	O	1.255922	-0.630344	-0.400428
O32	O	1.755922	-0.130344	0.099572
O33	O	1.153542	-0.625280	-0.494443
O34	O	1.653542	-0.125280	0.005557
C35	C	1.204741	-0.657068	-0.447446
C36	C	1.704741	-0.157068	0.052554
C37	C	1.204783	-0.746692	-0.447461
C38	C	1.704783	-0.246692	0.052539
C39	C	0.988211	-0.436929	-0.436852
C40	C	1.488211	0.063071	0.063148
C41	C	0.895545	-0.432391	-0.432323
C42	C	1.395545	0.067609	0.067677
C43	C	1.204929	-1.074874	-0.447552
C44	C	1.704929	-0.574874	0.052448
C45	C	1.204885	-0.983564	-0.447529
C46	C	1.704885	-0.483564	0.052471
C47	C	1.204855	-0.910786	-0.447506
C48	C	1.704855	-0.410786	0.052494
C49	C	1.204813	-0.819470	-0.447484
C50	C	1.704813	-0.319470	0.052516
C51	C	0.725883	-0.424088	-0.424060
C52	C	1.225883	0.075912	0.075940
C53	C	0.684596	-0.471135	-0.470967
C54	C	1.184596	0.028865	0.029033
C55	C	0.590191	-0.466514	-0.466370
C56	C	1.090191	0.033486	0.033630
C57	C	0.820297	-0.428707	-0.428656
C58	C	1.320297	0.071293	0.071344
C59	C	1.422274	-0.458276	-0.458158
C60	C	1.922274	0.041724	0.041842
C61	C	1.514940	-0.462833	-0.462707
C62	C	2.014940	0.037167	0.037293
C63	C	1.204874	-0.447524	-0.657796
C64	C	1.704874	0.052476	-0.157796
C65	C	1.204897	-0.447500	-0.747418
C66	C	1.704897	0.052500	-0.247418
C67	C	1.204921	-0.237278	-0.447541
C68	C	1.704921	0.262722	0.052459
C69	C	1.204965	-0.147659	-0.447565
C70	C	1.704965	0.352341	0.052435
C71	C	1.204935	-0.447411	-1.075596
C72	C	1.704935	0.052589	-0.575596
C73	C	1.204922	-0.447438	-0.984287
C74	C	1.704922	0.052562	-0.484287
C75	C	1.204916	-0.447456	-0.911510
C76	C	1.704916	0.052544	-0.411510
C77	C	1.204903	-0.447482	-0.820195
C78	C	1.704903	0.052518	-0.320195
C79	C	1.204813	-0.447583	-0.237993
C80	C	1.704813	0.052417	0.262007
C81	C	1.204952	-0.447388	-0.148379
C82	C	1.704952	0.052612	0.351621
H83	H	0.720151	-0.514881	-0.514579
H84	H	1.220151	-0.014881	-0.014579
H85	H	0.690331	-0.380344	-0.380452
H86	H	1.190331	0.119656	0.119548
