data_functionalizedCrystal
_audit_creation_method	'MofGen! by Chris Wilmer'
_symmetry_space_group_name_H-M	'P1'
_symmetry_Int_Tables_number	1
_symmetry_cell_setting	triclinic
loop_
_symmetry_equiv_pos_as_xyz
  x,y,z
_cell_length_a	12.759401
_cell_length_b	16.120484
_cell_length_c	16.120256
_cell_angle_alpha	84.383827
_cell_angle_beta	87.118528
_cell_angle_gamma	92.925560
loop_
_atom_site_label
_atom_site_type_symbol
_atom_site_fract_x
_atom_site_fract_y
_atom_site_fract_z
Zn1	Zn	1.552086	-0.356756	0.489390
Zn2	Zn	2.052086	0.143244	0.989390
Zn3	Zn	1.551954	-0.489442	0.356699
Zn4	Zn	2.051954	0.010558	0.856699
Zn5	Zn	1.385776	-0.349689	0.349642
Zn6	Zn	1.885776	0.150311	0.849642
Zn7	Zn	1.366964	-0.496488	0.496431
Zn8	Zn	1.866964	0.003512	0.996431
O9	O	1.464195	-0.423094	0.423040
O10	O	1.964195	0.076906	0.923040
O11	O	1.699088	-0.374366	0.471795
O12	O	2.199088	0.125634	0.971795
O13	O	1.537727	-0.464997	0.238800
O14	O	2.037727	0.035003	0.738800
O15	O	1.415765	-0.233661	0.362280
O16	O	1.915765	0.266339	0.862280
O17	O	1.698991	-0.471850	0.374308
O18	O	2.198991	0.028150	0.874308
O19	O	1.537952	-0.238853	0.464952
O20	O	2.037952	0.261147	0.964952
O21	O	1.415637	-0.362321	0.233615
O22	O	1.915637	0.137679	0.733615
O23	O	1.236260	-0.369153	0.369107
O24	O	1.736260	0.130847	0.869107
O25	O	1.383704	-0.483859	0.612459
O26	O	1.883704	0.016141	1.112459
O27	O	1.222440	-0.477006	0.476952
O28	O	1.722440	0.022994	0.976952
O29	O	1.519712	-0.381199	0.607286
O30	O	2.019712	0.118801	1.107286
O31	O	1.519487	-0.607342	0.381135
O32	O	2.019487	-0.107342	0.881135
O33	O	1.383576	-0.612519	0.483795
O34	O	1.883576	-0.112519	0.983795
C35	C	1.191229	-0.423078	0.423028
C36	C	1.691229	0.076922	0.923028
C37	C	1.074451	-0.423092	0.423044
C38	C	1.574451	0.076908	0.923044
C39	C	1.012420	-0.479332	0.479115
C40	C	1.512420	0.020668	0.979115
C41	C	0.902695	-0.479343	0.479124
C42	C	1.402695	0.020657	0.979124
C43	C	0.917041	-0.366871	0.366985
C44	C	1.417041	0.133129	0.866985
C45	C	1.026764	-0.366857	0.366980
C46	C	1.526764	0.133143	0.866980
C47	C	1.004136	-0.544269	0.543855
C48	C	1.504136	-0.044269	1.043855
C49	C	0.894411	-0.544280	0.543865
C50	C	1.394411	-0.044280	1.043865
C51	C	1.449503	-0.640259	0.434013
C52	C	1.949503	-0.140259	0.934013
C53	C	1.443312	-0.733165	0.438735
C54	C	1.943312	-0.233165	0.938735
C55	C	1.432013	-0.903265	0.447374
C56	C	1.932013	-0.403265	0.947374
C57	C	1.496563	-0.942082	0.398720
C58	C	1.996563	-0.442082	0.898720
C59	C	1.490277	-1.036732	0.403527
C60	C	1.990277	-0.536732	0.903527
C61	C	1.438298	-0.808607	0.442569
C62	C	1.938298	-0.308607	0.942569
C63	C	1.738226	-0.423110	0.423053
C64	C	2.238226	0.076890	0.923053
C65	C	1.855002	-0.423117	0.423058
C66	C	2.355002	0.076883	0.923058
C67	C	1.449624	-0.434103	0.641048
C68	C	1.949624	0.065897	1.141048
C69	C	1.443415	-0.438795	0.733950
C70	C	1.943415	0.061205	1.233950
C71	C	1.478972	-0.205081	0.412043
C72	C	1.978972	0.294919	0.912043
C73	C	1.485269	-0.112177	0.407357
C74	C	1.985269	0.387823	0.907357
C75	C	1.478773	-0.412067	0.205878
C76	C	1.978773	0.087933	0.705878
C77	C	1.485202	-0.407140	0.112964
C78	C	1.985202	0.092860	0.612964
C79	C	1.496575	-0.398606	0.942874
C80	C	1.996575	0.101394	1.442874
C81	C	1.432046	-0.447326	0.904035
C82	C	1.932046	0.052674	1.404035
C83	C	1.438373	-0.442578	0.809391
C84	C	1.938373	0.057422	1.309391
C85	C	1.490248	-0.403353	1.037526
C86	C	1.990248	0.096647	1.537526
H87	H	1.556547	-0.904230	0.353457
H88	H	2.056547	-0.404230	0.853457
H89	H	1.372043	-0.492597	0.941865
H90	H	1.872043	0.007403	1.441865
H91	H	1.035575	-0.604544	0.523668
H92	H	1.535575	-0.104544	1.023668
C93	C	1.093932	-0.305750	0.306019
C94	C	1.593932	0.194250	0.806019
C95	C	1.028682	-0.256522	0.256911
C96	C	1.528682	0.243478	0.756911
C97	C	1.090519	-0.200224	0.200737
C98	C	1.590519	0.299776	0.700737
H99	H	1.137064	-0.270920	0.336123
H100	H	1.637064	0.229080	0.836123
H101	H	1.136999	-0.335791	0.271107
H102	H	1.636999	0.164209	0.771107
H103	H	0.985633	-0.226484	0.291818
H104	H	1.485633	0.273516	0.791818
H105	H	0.985550	-0.291329	0.226788
H106	H	1.485550	0.208671	0.726788
H107	H	1.133586	-0.230265	0.165826
H108	H	1.633586	0.269735	0.665826
H109	H	1.133649	-0.165400	0.230848
H110	H	1.633649	0.334600	0.730848
H111	H	1.046257	-0.166822	0.167405
H112	H	1.546257	0.333178	0.667405
C113	C	0.865066	-0.305920	0.306146
C114	C	1.365066	0.194080	0.806146
C115	C	0.755698	-0.317982	0.318136
C116	C	1.255698	0.182018	0.818136
C117	C	0.707788	-0.261857	0.262096
C118	C	1.207788	0.238143	0.762096
H119	H	0.885894	-0.250361	0.315574
H120	H	1.385894	0.249639	0.815574
H121	H	0.885917	-0.315237	0.250564
H122	H	1.385917	0.184763	0.750564
H123	H	0.734856	-0.308658	0.373705
H124	H	1.234856	0.191342	0.873705
H125	H	0.734840	-0.373529	0.308702
H126	H	1.234840	0.126471	0.808702
H127	H	0.728638	-0.271175	0.206513
H128	H	1.228638	0.228825	0.706513
H129	H	0.728624	-0.206302	0.271528
H130	H	1.228624	0.293698	0.771528
H131	H	0.633577	-0.270039	0.270218
H132	H	1.133577	0.229961	0.770218
C133	C	1.039437	-0.525588	0.629083
C134	C	1.539437	-0.025588	1.129083
C135	C	0.951335	-0.514175	0.681223
C136	C	1.451335	-0.014175	1.181223
C137	C	0.983814	-0.496953	0.759735
C138	C	1.483814	0.003047	1.259735
H139	H	1.076347	-0.570966	0.652863
H140	H	1.576347	-0.070966	1.152863
H141	H	1.084311	-0.476254	0.623193
H142	H	1.584311	0.023746	1.123193
H143	H	0.906477	-0.563503	0.687116
H144	H	1.406477	-0.063503	1.187116
H145	H	0.914414	-0.468794	0.657471
H146	H	1.414414	0.031206	1.157471
H147	H	1.028688	-0.447619	0.753844
H148	H	1.528688	0.052381	1.253844
H149	H	1.020724	-0.542334	0.783506
H150	H	1.520724	-0.042334	1.283506
H151	H	0.924043	-0.489200	0.795119
H152	H	1.424043	0.010800	1.295119
C153	C	0.850627	-0.629429	0.524909
C154	C	1.350627	-0.129429	1.024909
C155	C	0.933541	-0.681502	0.513304
C156	C	1.433541	-0.181502	1.013304
C157	C	0.893249	-0.759940	0.495831
C158	C	1.393249	-0.259940	0.995831
H159	H	0.804880	-0.653355	0.570234
H160	H	1.304880	-0.153355	1.070234
H161	H	0.812811	-0.623388	0.475589
H162	H	1.312811	-0.123388	0.975589
H163	H	0.971339	-0.687546	0.562618
H164	H	1.471339	-0.187546	1.062618
H165	H	0.979295	-0.657604	0.467978
H166	H	1.479295	-0.157604	0.967978
H167	H	0.855433	-0.753899	0.446512
H168	H	1.355433	-0.253899	0.946512
H169	H	0.847502	-0.783857	0.541159
H170	H	1.347502	-0.283857	1.041159
H171	H	0.949499	-0.795279	0.487948
H172	H	1.449499	-0.295279	0.987948
H173	H	0.857835	-0.524305	0.604234
H174	H	1.357835	-0.024305	1.104234
C175	C	1.352063	-0.953875	0.507636
C176	C	1.852063	-0.453875	1.007636
C177	C	1.361623	-1.039049	0.500453
C178	C	1.861623	-0.539049	1.000453
C179	C	1.287979	-1.085705	0.555941
C180	C	1.787979	-0.585705	1.055941
H181	H	1.364471	-0.942526	0.563136
H182	H	1.864471	-0.442526	1.063136
H183	H	1.283207	-0.939103	0.494635
H184	H	1.783207	-0.439103	0.994635
H185	H	1.430463	-1.053816	0.513459
H186	H	1.930463	-0.553816	1.013459
H187	H	1.349205	-1.050423	0.444966
H188	H	1.849205	-0.550423	0.944966
H189	H	1.219123	-1.070933	0.542940
H190	H	1.719123	-0.570933	1.042940
H191	H	1.300393	-1.074350	0.611437
H192	H	1.800393	-0.574350	1.111437
H193	H	1.294449	-1.143500	0.551070
H194	H	1.794449	-0.643500	1.051070
H195	H	1.556568	-0.353334	0.905046
H196	H	2.056568	0.146666	1.405046
