data_functionalizedCrystal
_audit_creation_method	'MofGen! by Chris Wilmer'
_symmetry_space_group_name_H-M	'P1'
_symmetry_Int_Tables_number	1
_symmetry_cell_setting	triclinic
loop_
_symmetry_equiv_pos_as_xyz
  x,y,z
_cell_length_a	12.759401
_cell_length_b	12.759400
_cell_length_c	18.215399
_cell_angle_alpha	89.975454
_cell_angle_beta	89.982873
_cell_angle_gamma	90.014328
loop_
_atom_site_label
_atom_site_type_symbol
_atom_site_fract_x
_atom_site_fract_y
_atom_site_fract_z
Zn1	Zn	1.606235	-0.418287	-0.416080
Zn2	Zn	1.606135	-0.593984	-0.293021
Zn3	Zn	1.430543	-0.418319	-0.293033
Zn4	Zn	1.430525	-0.593923	-0.416052
O5	O	1.518360	-0.506128	-0.354547
O6	O	1.753243	-0.441606	-0.399763
O7	O	1.582808	-0.570721	-0.190038
O8	O	1.453898	-0.271294	-0.309373
O9	O	1.753169	-0.570690	-0.309352
O10	O	1.582978	-0.271270	-0.399775
O11	O	1.453801	-0.441660	-0.190047
O12	O	1.283520	-0.441601	-0.309345
O13	O	1.453868	-0.570586	-0.519040
O14	O	1.283507	-0.570617	-0.399726
O15	O	1.582961	-0.441547	-0.519061
O16	O	1.582791	-0.740997	-0.309325
O17	O	1.453772	-0.740953	-0.399715
C18	C	1.245392	-0.506107	-0.354535
C19	C	1.128616	-0.506123	-0.354547
C20	C	0.964005	-0.438879	-0.307575
C21	C	1.073729	-0.438856	-0.307568
C22	C	1.073773	-0.573408	-0.401541
C23	C	0.964051	-0.573424	-0.401552
C24	C	0.909123	-0.371615	-0.260588
C25	C	0.963958	-0.304328	-0.213595
C26	C	1.073682	-0.304306	-0.213588
C27	C	1.128571	-0.371571	-0.260574
C28	C	1.518297	-0.779096	-0.354531
C29	C	1.518367	-0.895872	-0.354549
C30	C	1.585622	-0.950723	-0.307535
C31	C	1.585686	-1.060447	-0.307558
C32	C	1.451232	-1.060460	-0.401611
C33	C	1.451173	-0.950738	-0.401591
C34	C	1.652815	-0.895857	-0.260493
C35	C	1.720075	-0.950708	-0.213475
C36	C	1.720140	-1.060432	-0.213497
C37	C	1.652944	-1.115305	-0.260539
C38	C	1.792393	-0.506151	-0.354559
C39	C	1.909169	-0.506161	-0.354565
C40	C	1.518424	-0.506056	-0.546500
C41	C	1.518451	-0.506025	-0.628299
C42	C	1.518451	-0.232095	-0.354578
C43	C	1.518490	-0.115319	-0.354592
C44	C	1.585694	-0.438772	-0.816505
C45	C	1.585706	-0.438741	-0.893363
C46	C	1.451282	-0.573116	-0.893330
C47	C	1.451265	-0.573141	-0.816473
C48	C	1.518477	-0.505970	-0.778062
C49	C	1.518506	-0.505915	-0.931778
C50	C	1.518520	-0.505882	-1.015112
C51	C	1.518463	-0.506001	-0.694723
C52	C	1.518356	-0.506125	-0.163340
C53	C	1.518533	-0.505860	-0.081542
H54	H	1.217916	-0.371538	-0.260571
H55	H	1.396522	-0.627861	-0.785172
H56	H	1.774913	-1.105088	-0.175218
Br57	Br	0.889470	-0.213032	-0.149841
H58	H	1.640419	-0.384074	-0.785233
H59	H	0.819780	-0.371628	-0.260588
Br60	Br	1.360075	-0.664276	-0.945464
Br61	Br	1.359902	-0.876291	-0.465401
Br62	Br	1.360043	-1.134931	-0.465447
Br63	Br	1.148264	-0.664696	-0.465300
Br64	Br	1.676941	-0.347547	-0.945533
H65	H	1.653011	-1.204650	-0.260559
H66	H	1.118326	-0.249510	-0.175329
Br67	Br	1.653055	-0.746947	-0.260687
H68	H	0.919403	-0.628208	-0.439816
Br69	Br	1.811277	-0.876240	-0.149646
