data_functionalizedCrystal
_audit_creation_method	'MofGen! by Chris Wilmer'
_symmetry_space_group_name_H-M	'P1'
_symmetry_Int_Tables_number	1
_symmetry_cell_setting	triclinic
loop_
_symmetry_equiv_pos_as_xyz
  x,y,z
_cell_length_a	18.050589
_cell_length_b	12.759395
_cell_length_c	12.759387
_cell_angle_alpha	89.981185
_cell_angle_beta	90.031143
_cell_angle_gamma	89.970242
loop_
_atom_site_label
_atom_site_type_symbol
_atom_site_fract_x
_atom_site_fract_y
_atom_site_fract_z
Zn1	Zn	-0.295581	-1.606152	0.594011
Zn2	Zn	-0.419793	-1.606007	0.418334
Zn3	Zn	-0.295624	-1.430456	0.418348
Zn4	Zn	-0.419737	-1.430402	0.593973
O5	O	-0.357684	-1.518254	0.506166
O6	O	-0.312063	-1.753154	0.570717
O7	O	-0.403363	-1.582681	0.271315
O8	O	-0.191694	-1.453846	0.441672
O9	O	-0.403321	-1.753047	0.441648
O10	O	-0.191662	-1.582930	0.570731
O11	O	-0.312137	-1.453705	0.271325
O12	O	-0.312083	-1.283428	0.441635
O13	O	-0.403227	-1.453754	0.740999
O14	O	-0.403268	-1.283388	0.570666
O15	O	-0.312010	-1.582877	0.741027
O16	O	-0.523710	-1.582629	0.441611
O17	O	-0.523669	-1.453612	0.570652
C18	C	-0.357675	-1.245287	0.506148
C19	C	-0.357689	-1.128510	0.506166
C20	C	-0.550636	-1.518127	0.506149
C21	C	-0.633182	-1.518169	0.506177
C22	C	-0.357607	-1.518325	0.780200
C23	C	-0.357575	-1.518356	0.896977
C24	C	-0.832637	-1.448079	0.576325
C25	C	-0.882087	-1.422466	0.480456
C26	C	-0.784312	-1.518272	0.506190
C27	C	-0.881944	-1.543937	0.602070
C28	C	-0.930297	-1.518370	0.506212
C29	C	-0.832675	-1.492609	0.410271
C30	C	-0.832527	-1.614125	0.531950
C31	C	-0.881955	-1.588548	0.436015
C32	C	-0.700214	-1.518213	0.506179
C33	C	-1.014394	-1.518429	0.506212
C34	C	-0.163978	-1.518410	0.506207
C35	C	-0.081433	-1.518477	0.506224
C36	C	-0.357694	-1.792288	0.506185
C37	C	-0.357698	-1.909064	0.506193
C38	C	-0.452794	-1.128507	0.640308
C39	C	-0.500352	-1.073645	0.707383
C40	C	-0.500361	-0.963923	0.707395
C41	C	-0.452805	-0.909061	0.640329
C42	C	-0.405247	-0.963924	0.573255
C43	C	-0.405245	-1.073648	0.573247
C44	C	-0.310139	-0.963927	0.439119
C45	C	-0.310133	-1.073648	0.439099
C46	C	-0.262583	-0.909065	0.372052
C47	C	-0.215028	-0.963927	0.304971
C48	C	-0.215021	-1.073655	0.304960
C49	C	-0.262575	-1.128510	0.372025
C50	C	-0.357707	-1.518244	0.233199
C51	C	-0.357530	-1.518417	0.116423
C52	C	-0.262575	-1.384061	0.897006
C53	C	-0.215060	-1.316933	0.951882
C54	C	-0.215033	-1.316965	1.061604
C55	C	-0.262528	-1.384129	1.116452
C56	C	-0.310042	-1.451257	1.061577
C57	C	-0.310062	-1.451221	0.951852
C58	C	-0.405045	-1.585545	1.061547
C59	C	-0.405069	-1.585520	0.951825
C60	C	-0.452540	-1.652709	1.116396
C61	C	-0.500052	-1.719844	1.061520
C62	C	-0.500076	-1.719811	0.951792
C63	C	-0.452584	-1.652648	0.896950
H64	H	-0.810982	-1.388631	0.635551
N65	N	-0.166541	-1.248321	0.895877
N66	N	-0.171446	-1.151374	0.908131
H67	H	-0.137178	-1.102915	0.868584
N68	N	-0.548950	-0.907894	0.775907
N69	N	-0.617471	-0.920103	0.768763
H70	H	-0.651788	-0.880533	0.817149
N71	N	-0.166500	-1.248383	1.117647
N72	N	-0.124102	-1.188417	1.068671
H73	H	-0.089825	-1.139979	1.108251
H74	H	-0.262576	-1.217852	0.372019
N75	N	-0.805206	-1.715734	0.559322
N76	N	-0.820935	-1.754818	0.646349
H77	H	-0.801639	-1.826581	0.665692
N78	N	-0.262502	-1.384134	1.228530
N79	N	-0.220082	-1.324185	1.277513
H80	H	-0.220065	-1.324186	1.356669
H81	H	-0.176288	-1.118318	0.250347
N82	N	-0.548623	-1.788381	0.895758
N83	N	-0.591023	-1.848333	0.944746
H84	H	-0.625312	-1.896762	0.905176
N85	N	-0.452590	-1.652613	0.784873
N86	N	-0.410179	-1.592647	0.735919
H87	H	-0.410180	-1.592619	0.656762
H88	H	-0.452797	-1.217848	0.640297
N89	N	-0.909388	-1.320825	0.453133
N90	N	-0.893602	-1.243389	0.508799
H91	H	-0.912880	-1.171602	0.489509
H92	H	-0.539070	-1.118325	0.761988
H93	H	-0.452810	-0.819720	0.640355
N94	N	-0.262594	-0.796987	0.372085
N95	N	-0.305059	-0.748013	0.431975
H96	H	-0.305067	-0.668857	0.431996
N97	N	-0.805656	-1.465290	0.308530
N98	N	-0.850222	-1.445906	0.236047
H99	H	-0.831140	-1.426608	0.164194
N100	N	-0.908945	-1.663063	0.361531
N101	N	-0.893012	-1.653486	0.266687
H102	H	-0.912075	-1.706108	0.214079
H103	H	-0.903587	-1.565606	0.683146
H104	H	-0.176308	-0.919250	0.250376
H105	H	-0.262586	-1.384037	0.807665
N106	N	-0.452434	-1.652713	1.228473
N107	N	-0.394449	-1.674728	1.277365
H108	H	-0.394348	-1.674724	1.356521
N109	N	-0.548563	-1.788428	1.117561
N110	N	-0.548539	-1.788436	1.215526
H111	H	-0.582800	-1.836874	1.255110
