data_functionalizedCrystal
_audit_creation_method	'MofGen! by Chris Wilmer'
_symmetry_space_group_name_H-M	'P1'
_symmetry_Int_Tables_number	1
_symmetry_cell_setting	triclinic
loop_
_symmetry_equiv_pos_as_xyz
  x,y,z
_cell_length_a	10.723024
_cell_length_b	16.098538
_cell_length_c	10.723024
_cell_angle_alpha	87.249955
_cell_angle_beta	84.467869
_cell_angle_gamma	92.764343
loop_
_atom_site_label
_atom_site_type_symbol
_atom_site_fract_x
_atom_site_fract_y
_atom_site_fract_z
O1	O	1.662728	0.069249	0.169499
O2	O	2.162728	0.569249	0.669499
O3	O	1.299576	0.069251	0.186252
O4	O	1.799576	0.569251	0.686252
O5	O	1.489528	0.069247	-0.003701
O6	O	1.989528	0.569247	0.496299
O7	O	1.472775	0.069253	0.359451
O8	O	1.972775	0.569253	0.859451
O9	O	1.478432	-0.069266	0.007352
O10	O	1.978432	0.430734	0.507352
O11	O	1.288479	-0.069261	0.197304
O12	O	1.788479	0.430739	0.697304
O13	O	1.651631	-0.069264	0.180551
O14	O	2.151631	0.430736	0.680551
Zn15	Zn	1.468293	-0.091255	0.190682
Zn16	Zn	1.968293	0.408745	0.690682
Zn17	Zn	1.482914	0.091242	0.176120
Zn18	Zn	1.982914	0.591242	0.676120
O19	O	1.461679	-0.069260	0.370503
O20	O	1.961679	0.430740	0.870503
C21	C	1.247528	-0.000005	0.190559
C22	C	1.747528	0.499995	0.690559
C23	C	1.108974	-0.000004	0.186911
C24	C	1.608974	0.499996	0.686911
N25	N	1.458325	-0.215804	0.200620
N26	N	1.958325	0.284196	0.700620
C27	C	1.033991	-0.000001	0.293198
C28	C	1.533991	0.499999	0.793198
C29	C	0.890788	-0.000000	0.289431
C30	C	1.390788	0.500000	0.789431
C31	C	1.538978	-0.259391	0.120025
C32	C	2.038978	0.240609	0.620025
C33	C	1.532016	-0.346579	0.126989
C34	C	2.032016	0.153421	0.626989
C35	C	1.444406	-0.390180	0.214554
C36	C	1.944406	0.109820	0.714554
C37	C	1.363744	-0.346587	0.295151
C38	C	1.863744	0.153413	0.795151
C39	C	1.370701	-0.259399	0.288181
C40	C	1.870701	0.240601	0.788181
C41	C	1.419187	-0.653429	0.239801
C42	C	1.919187	-0.153429	0.739801
C43	C	1.412239	-0.740622	0.246768
C44	C	1.912239	-0.240622	0.746768
C45	C	1.580510	-0.740609	0.078603
C46	C	2.080510	-0.240609	0.578603
C47	C	1.587464	-0.653420	0.071645
C48	C	2.087464	-0.153420	0.571645
C49	C	1.506798	-0.609835	0.152238
C50	C	2.006798	-0.109835	0.652238
C51	C	1.437291	-0.479301	0.221676
C52	C	1.937291	0.020699	0.721676
C53	C	1.513908	-0.520715	0.145109
C54	C	2.013908	-0.020715	0.645109
C55	C	1.703679	-0.000006	0.176244
C56	C	2.203679	0.499994	0.676244
C57	C	1.842234	-0.000002	0.179891
C58	C	2.342234	0.499998	0.679891
C59	C	1.482761	-0.000009	-0.044674
C60	C	1.982761	0.499991	0.455326
C61	C	1.479113	-0.000006	-0.183229
C62	C	1.979113	0.499994	0.316771
N63	N	1.492892	0.215791	0.166173
N64	N	1.992892	0.715791	0.666173
C65	C	1.585401	-0.000005	-0.258211
C66	C	2.085401	0.499995	0.241789
C67	C	1.581634	-0.000002	-0.401415
C68	C	2.081634	0.499998	0.098585
C69	C	1.468446	-0.000002	0.411477
C70	C	1.968446	0.499998	0.911477
C71	C	1.472094	0.000000	0.550031
C72	C	1.972094	0.500000	1.050031
H73	H	1.075813	-0.000005	0.386985
H74	H	1.575813	0.499995	0.886985
H75	H	0.826356	0.000005	0.380421
H76	H	1.326356	0.500005	0.880421
Br77	Br	0.949611	0.000005	0.028218
Br78	Br	1.449611	0.500005	0.528218
Br79	Br	1.632797	-0.461543	0.026267
Br80	Br	2.132797	0.038457	0.526267
Br81	Br	1.657893	-0.200228	0.001190
Br82	Br	2.157893	0.299772	0.501190
Br83	Br	1.309717	-0.594282	0.349176
Br84	Br	1.809717	-0.094282	0.849176
H85	H	1.679186	-0.000011	-0.216389
H86	H	2.179186	0.499989	0.283611
Br87	Br	1.706369	-0.594247	-0.047188
Br88	Br	2.206369	-0.094247	0.452812
H89	H	1.672624	-0.000006	-0.465847
H90	H	2.172624	0.499994	0.034153
Br91	Br	1.689978	-0.799764	-0.030771
Br92	Br	2.189978	-0.299764	0.469229
H93	H	1.381098	-0.000006	-0.385543
H94	H	1.881098	0.499994	0.114457
H95	H	1.067153	0.000016	0.093124
H96	H	1.567153	0.500016	0.593124
Br97	Br	1.293334	-0.799789	0.365622
Br98	Br	1.793334	-0.299789	0.865622
Br99	Br	1.244832	-0.405755	0.413983
Br100	Br	1.744832	0.094245	0.913983
Br101	Br	1.322789	0.000008	-0.252922
Br102	Br	1.822789	0.500008	0.247078
H103	H	1.597690	-0.382067	0.061362
H104	H	2.097690	0.117933	0.561362
H105	H	1.365959	-0.514807	0.292976
H106	H	1.865959	-0.014807	0.792976
Br107	Br	1.261229	-0.200245	0.397556
Br108	Br	1.761229	0.299755	0.897556
