data_functionalizedCrystal
_audit_creation_method	'MofGen! by Chris Wilmer'
_symmetry_space_group_name_H-M	'P1'
_symmetry_Int_Tables_number	1
_symmetry_cell_setting	triclinic
loop_
_symmetry_equiv_pos_as_xyz
  x,y,z
_cell_length_a	12.477920
_cell_length_b	18.878441
_cell_length_c	18.878441
_cell_angle_alpha	90.000248
_cell_angle_beta	122.958500
_cell_angle_gamma	122.959590
loop_
_atom_site_label
_atom_site_type_symbol
_atom_site_fract_x
_atom_site_fract_y
_atom_site_fract_z
Zr1	Zr	-1.298586	0.603093	-0.172239
O2	O	-1.546082	0.474875	-0.300448
O3	O	-1.051091	0.652877	-0.122461
O4	O	-1.298595	0.637760	-0.285348
O5	O	-1.298571	0.489996	-0.020989
O6	O	-1.298602	0.754327	-0.285352
O7	O	-1.298578	0.489991	-0.137561
O8	O	-0.855862	0.781368	0.006022
O9	O	-1.741311	0.462955	-0.312363
O10	O	-1.152894	0.748442	-0.113890
O11	O	-1.152884	0.661453	-0.026890
O12	O	-1.444289	0.643655	-0.218668
O13	O	-1.444278	0.556666	-0.131668
Zr14	Zr	-1.298586	0.789012	0.013674
Zr15	Zr	-1.298597	0.789004	-0.172246
Zr16	Zr	-1.298575	0.603100	0.013681
Zr17	Zr	-1.609954	0.584083	-0.191242
Zr18	Zr	-0.987219	0.808022	0.032677
O19	O	-1.546082	0.739228	-0.036104
O20	O	-1.546098	0.739217	-0.300458
O21	O	-1.546066	0.474886	-0.036094
O22	O	-1.051091	0.917230	0.141882
O23	O	-1.051106	0.917219	-0.122471
O24	O	-1.051075	0.652888	0.141892
O25	O	-1.298602	0.902108	-0.137576
O26	O	-1.298578	0.754345	0.126783
O27	O	-1.298571	0.637777	0.126787
O28	O	-1.298595	0.902113	-0.021004
O29	O	-1.741320	0.610730	-0.312369
O30	O	-0.855853	0.781375	0.153803
O31	O	-0.855862	0.929149	0.153798
O32	O	-0.855871	0.929143	0.006017
O33	O	-1.741302	0.462961	-0.164582
O34	O	-1.741311	0.610736	-0.164587
O35	O	-1.152884	0.748450	0.060103
O36	O	-1.152894	0.835439	-0.026897
O37	O	-1.444289	0.730652	-0.131675
O38	O	-1.444278	0.643662	-0.044675
C39	C	-0.909113	0.719831	-0.055512
C40	C	-0.776929	0.727901	-0.047444
C41	C	-0.688056	0.672278	-0.103053
C42	C	-0.820230	0.664220	-0.111120
C43	C	-1.298572	0.463505	-0.079274
C44	C	-1.298568	0.384581	-0.079271
C45	C	-1.298600	0.696043	-0.311840
C46	C	-1.298605	0.696039	-0.390767
C47	C	-1.146465	0.402198	-0.024581
C48	C	-1.146470	0.328036	-0.024581
C49	C	-1.298581	0.236259	-0.079276
C50	C	-1.450696	0.218643	-0.133968
C51	C	-1.450688	0.292804	-0.133962
C52	C	-1.450700	0.064073	-0.133977
C53	C	-1.450708	-0.010093	-0.133984
C54	C	-1.146482	0.099305	-0.024595
C55	C	-1.146475	0.173466	-0.024590
C56	C	-1.298590	0.155845	-0.079283
C57	C	-1.298600	0.928599	-0.079291
C58	C	-1.298605	1.007524	-0.079294
C59	C	-1.450708	0.641342	-0.482540
C60	C	-1.450703	0.641350	-0.556698
C61	C	-1.298592	0.696052	-0.539080
C62	C	-1.146477	0.750756	-0.447297
C63	C	-1.146484	0.750752	-0.373142
C64	C	-1.146473	0.750760	-0.601864
C65	C	-1.146465	0.750763	-0.676025
C66	C	-1.450691	0.641358	-0.785420
C67	C	-1.450698	0.641354	-0.711265
C68	C	-1.298582	0.696057	-0.619487
C69	C	-1.298572	0.696062	0.153274
C70	C	-1.298568	0.696065	0.232202
C71	C	-0.909127	0.952378	-0.055521
C72	C	-0.776948	1.039373	-0.047456
C73	C	-0.909099	0.719841	0.177045
C74	C	-0.776911	0.727914	0.264040
C75	C	-0.909113	0.952388	0.177036
C76	C	-0.776929	1.039386	0.264029
C77	C	-1.688060	0.439717	-0.335601
C78	C	-1.820243	0.352719	-0.422594
C79	C	-1.688046	0.439727	-0.103044
C80	C	-1.820225	0.352732	-0.111109
C81	C	-1.688074	0.672264	-0.335610
C82	C	-1.820262	0.664190	-0.422605
C83	C	-0.714875	1.034815	-0.089086
C84	C	-0.590696	1.116548	-0.081527
C85	C	-0.528584	1.202837	-0.032332
C86	C	-0.590669	1.207393	0.009299
C87	C	-0.714854	1.125661	0.001734
C88	C	-0.714834	0.777117	0.350312
C89	C	-0.590646	0.784699	0.432059
C90	C	-0.528529	0.743083	0.427533
C91	C	-0.590618	0.693874	0.341253
C92	C	-0.714812	0.686287	0.259507
C93	C	-0.714860	1.125656	0.259468
C94	C	-0.590677	1.207406	0.341198
C95	C	-0.528556	1.202884	0.427489
C96	C	-0.590638	1.116604	0.432047
C97	C	-0.714828	1.034856	0.350317
C98	C	-1.882328	0.266447	-0.418034
C99	C	-2.006550	0.184695	-0.499767
C100	C	-2.068676	0.189217	-0.586058
C101	C	-2.006587	0.275497	-0.590615
C102	C	-1.882376	0.357247	-0.508884
C103	C	-1.882310	0.357289	-0.069487
C104	C	-2.006524	0.275554	-0.077069
C105	C	-2.068641	0.189264	-0.126267
C106	C	-2.006550	0.184709	-0.167894
C107	C	-1.882347	0.266442	-0.160318
C108	C	-1.882339	0.705818	-0.418050
C109	C	-2.006528	0.698250	-0.499783
C110	C	-2.068645	0.649048	-0.586071
C111	C	-2.006556	0.607420	-0.590625
C112	C	-1.882361	0.614994	-0.508892
H113	H	-1.022598	0.476924	0.019962
Cl114	Cl	-0.792941	0.926346	-0.150942
Cl115	Cl	-0.955238	0.819546	-0.486487
Cl116	Cl	-0.563575	0.821604	0.046248
H117	H	-2.169773	0.642888	-0.652616
Cl118	Cl	-1.641927	0.572582	-0.672070
Cl119	Cl	-0.792861	1.131407	0.054084
H120	H	-2.057082	0.114451	-0.496038
Cl121	Cl	-0.512611	0.846569	0.540514
Cl122	Cl	-2.224827	0.086436	-0.688798
H123	H	-0.765395	0.811008	0.354014
H124	H	-0.427403	0.749267	0.494103
Cl125	Cl	-1.033595	0.570520	-0.204824
Cl126	Cl	-0.792833	0.926406	0.356067
Cl127	Cl	-1.641922	0.572592	-0.900797
Cl128	Cl	-2.084680	0.545559	-0.699111
Cl129	Cl	-0.512665	1.110800	-0.133864
Cl130	Cl	-2.224780	0.086521	-0.135781
Cl131	Cl	-1.804351	0.562645	-0.514636
Cl132	Cl	-2.084650	0.076223	-0.229736
Cl133	Cl	-0.512507	0.641564	0.335579
Cl134	Cl	-0.955237	0.819538	-0.653875
H135	H	-1.831751	0.262749	-0.347779
Cl136	Cl	-1.804301	0.260698	-0.212642
Cl137	Cl	-1.804273	0.767678	-0.309583
H138	H	-1.022612	0.342388	0.019954
H139	H	-1.022626	0.795301	-0.432958
Cl140	Cl	-0.512649	1.315860	0.335447
Cl141	Cl	-0.792827	0.624433	0.151056
Cl142	Cl	-0.955251	0.121458	0.044158
Cl143	Cl	-0.512524	1.110935	0.540535
Cl144	Cl	-0.955261	0.819528	-0.257767
H145	H	-1.574575	0.596791	-0.496897
H146	H	-0.765420	1.129356	0.189214
Cl147	Cl	-0.955247	0.288843	0.044165
Cl148	Cl	-1.641926	0.572562	-0.733415
Cl149	Cl	-0.372427	1.305663	0.530228
H150	H	-2.057186	0.279168	-0.660883
H151	H	-0.540078	1.277661	0.049353
H152	H	-1.574570	-0.084821	-0.178522
Cl153	Cl	-1.641935	0.041919	-0.202733
H154	H	-1.574547	0.143912	-0.178497
Cl155	Cl	-1.641912	0.270655	-0.202715
H156	H	-1.831827	0.427491	-0.512607
Cl157	Cl	-0.372459	1.305579	-0.022828
Cl158	Cl	-1.804255	0.465757	-0.007638
H159	H	-2.057057	0.279281	-0.043166
H160	H	-2.057068	0.732148	-0.496058
