data_functionalizedCrystal
_audit_creation_method	'MofGen! by Chris Wilmer'
_symmetry_space_group_name_H-M	'P1'
_symmetry_Int_Tables_number	1
_symmetry_cell_setting	triclinic
loop_
_symmetry_equiv_pos_as_xyz
  x,y,z
_cell_length_a	19.288856
_cell_length_b	16.992695
_cell_length_c	17.766277
_cell_angle_alpha	89.993690
_cell_angle_beta	90.011354
_cell_angle_gamma	93.099508
loop_
_atom_site_label
_atom_site_type_symbol
_atom_site_fract_x
_atom_site_fract_y
_atom_site_fract_z
O1	O	-0.927054	0.097763	-0.062630
O2	O	-0.725562	0.110963	-0.062624
O3	O	-0.825501	-0.009777	-0.062621
O4	O	-0.827116	0.218503	-0.062633
O5	O	-0.825482	-0.009783	0.062568
O6	O	-0.725543	0.110957	0.062565
O7	O	-0.927035	0.097757	0.062559
Cu8	Cu	-0.826288	0.104356	0.073993
Cu9	Cu	-0.826310	0.104363	-0.074057
O10	O	-0.827097	0.218497	0.062556
C11	C	-0.699652	0.110536	-0.000029
C12	C	-0.622474	0.109264	-0.000026
C13	C	-0.823413	-0.038985	-0.000026
C14	C	-0.817212	-0.126007	-0.000027
C15	C	-0.062060	0.171507	-0.000019
C16	C	-0.134576	0.172708	-0.000024
C17	C	-0.175154	0.101864	-0.000020
C18	C	-0.143210	0.029813	-0.000030
C19	C	-0.070695	0.028613	-0.000032
C20	C	-0.293339	0.049026	0.043842
C21	C	-0.365852	0.050228	0.043849
C22	C	-0.398816	0.105561	-0.000017
C23	C	-0.359256	0.159704	-0.043880
C24	C	-0.286740	0.158505	-0.043882
C25	C	-0.253785	0.103157	-0.000018
C26	C	-0.509382	0.178911	-0.000019
C27	C	-0.581900	0.180109	-0.000029
C28	C	-0.590533	0.037212	-0.000027
C29	C	-0.518016	0.036015	-0.000024
C30	C	-0.477445	0.106867	-0.000017
C31	C	-0.877041	-0.176461	-0.000027
C32	C	-0.871210	-0.258227	-0.000034
C33	C	-0.805551	-0.289537	-0.000035
C34	C	-0.745718	-0.239077	-0.000036
C35	C	-0.751549	-0.157313	-0.000035
C36	C	-0.781384	-0.533049	-0.000045
C37	C	-0.775557	-0.614819	-0.000044
C38	C	-0.901050	-0.633964	-0.000044
C39	C	-0.906875	-0.552197	-0.000037
C40	C	-0.847042	-0.501744	-0.000043
N41	N	-0.799590	-0.373115	-0.000040
N42	N	-0.853004	-0.418168	-0.000043
C43	C	0.047054	0.098186	-0.000033
C44	C	-0.030124	0.099465	-0.000024
C45	C	-0.829185	0.247705	-0.000040
C46	C	-0.835386	0.334727	-0.000045
N47	N	-0.826277	0.104351	0.178123
N48	N	-0.826326	0.104363	-0.178188
C49	C	-0.870546	0.050913	0.217511
C50	C	-0.870550	0.050910	0.296313
C51	C	-0.826292	0.104357	0.335723
C52	C	-0.782014	0.157798	0.296326
C53	C	-0.782006	0.157795	0.217525
C54	C	-0.821156	0.175786	0.460558
C55	C	-0.821168	0.175790	0.539357
C56	C	-0.826311	0.104366	0.578770
C57	C	-0.831456	0.032935	0.539374
C58	C	-0.831448	0.032932	0.460574
C59	C	-0.826295	0.104366	0.421169
C60	C	-0.870587	0.050921	0.703604
C61	C	-0.870586	0.050916	0.782407
C62	C	-0.782053	0.157811	0.782418
C63	C	-0.782050	0.157809	0.703617
C64	C	-0.826321	0.104365	0.664214
H65	H	-0.029031	0.229200	-0.000016
H66	H	-0.919929	-0.299304	-0.000034
Br67	Br	-0.995987	-0.509710	-0.000061
H68	H	-0.623571	-0.020471	-0.000029
H69	H	-0.949762	-0.675051	-0.000041
Br70	Br	-0.670350	-0.088838	-0.000040
H71	H	-0.906592	0.007394	0.185432
H72	H	-0.930507	-0.150975	-0.000022
H73	H	-0.835643	-0.025225	0.571463
Br74	Br	-0.419533	-0.023242	0.103385
H75	H	-0.176253	-0.027869	-0.000028
Br76	Br	-0.454318	0.275064	-0.000009
Br77	Br	-0.721943	0.230329	0.349808
H78	H	-0.722087	-0.640308	-0.000032
Br79	Br	-0.177929	0.270486	-0.000017
H80	H	-0.732663	-0.491979	-0.000049
Br81	Br	-0.814194	0.272731	0.592814
H82	H	-0.692257	-0.264576	-0.000042
Br83	Br	-0.930665	-0.021613	0.650127
H84	H	-0.906601	0.007393	0.328389
H85	H	-0.816956	0.233952	0.428474
H86	H	-0.745956	0.201311	0.185455
Br87	Br	-0.625244	0.277889	-0.000034
H88	H	-0.266507	0.003963	0.079565
H89	H	-0.044693	-0.030054	-0.000036
Br90	Br	-0.930664	-0.021618	0.835867
H91	H	-0.835635	-0.025230	0.428501
Br92	Br	-0.721980	0.230339	0.835898
H93	H	-0.254533	0.202589	-0.079598
Br94	Br	-0.474671	-0.061761	-0.000038
Br95	Br	-0.403981	0.234815	-0.103405
Br96	Br	-0.721970	0.230337	0.650155
