data_functionalizedCrystal
_audit_creation_method	'MofGen! by Chris Wilmer'
_symmetry_space_group_name_H-M	'P1'
_symmetry_Int_Tables_number	1
_symmetry_cell_setting	triclinic
loop_
_symmetry_equiv_pos_as_xyz
  x,y,z
_cell_length_a	16.992694
_cell_length_b	11.792241
_cell_length_c	15.455313
_cell_angle_alpha	92.683265
_cell_angle_beta	87.142206
_cell_angle_gamma	87.430819
loop_
_atom_site_label
_atom_site_type_symbol
_atom_site_fract_x
_atom_site_fract_y
_atom_site_fract_z
O1	O	1.044827	0.236106	-0.072022
O2	O	0.816531	0.233463	-0.072048
O3	O	0.936219	0.070068	-0.072029
O4	O	0.925139	0.399501	-0.072042
O5	O	0.929374	0.079370	0.072232
O6	O	0.809687	0.242766	0.072213
O7	O	1.037982	0.245409	0.072239
Cu8	Cu	0.923210	0.244937	0.085398
Cu9	Cu	0.931304	0.233935	-0.085207
O10	O	0.918295	0.408804	0.072219
C11	C	0.783882	0.234716	0.000079
C12	C	0.696795	0.224578	0.000070
C13	C	0.646971	0.322395	0.000066
C14	C	0.565143	0.312864	0.000079
C15	C	0.533142	0.205513	0.000088
C16	C	0.582973	0.107688	0.000094
C17	C	0.664799	0.117221	0.000088
C18	C	0.289375	0.166002	0.000113
C19	C	0.207543	0.156476	0.000117
C20	C	0.189719	0.361652	0.000103
C21	C	0.271548	0.371176	0.000091
C22	C	0.321371	0.273351	0.000102
N23	N	0.449501	0.195767	0.000098
N24	N	0.405010	0.283098	0.000098
C25	C	0.932101	0.032371	0.000102
C26	C	0.930017	-0.093813	0.000101
C27	C	0.926187	-0.324840	0.000086
C28	C	0.928315	-0.196280	0.000094
C29	C	1.070631	0.244155	0.000109
C30	C	1.157718	0.254293	0.000113
C31	C	0.922413	0.446501	0.000087
C32	C	0.924497	0.572684	0.000082
N33	N	0.917522	0.252674	0.205393
N34	N	0.936998	0.226189	-0.205202
C35	C	0.968388	0.183287	0.250795
C36	C	0.964094	0.189150	0.341602
C37	C	0.908938	0.264406	0.387005
C38	C	0.858067	0.333796	0.341597
C39	C	0.862358	0.327927	0.250791
C40	C	0.890417	0.289710	0.658584
C41	C	0.886132	0.295576	0.749396
C42	C	0.992158	0.150928	0.749395
C43	C	0.996447	0.145070	0.658588
C44	C	0.945574	0.214455	0.613187
N45	N	0.904549	0.270403	0.479825
N46	N	0.949959	0.208452	0.520369
H47	H	0.705366	0.037568	0.000090
H48	H	1.041360	0.083790	0.621622
H49	H	0.181491	0.069054	0.000123
O50	O	0.841121	0.357177	0.614398
C51	C	0.829927	0.504162	0.511919
C52	C	0.885845	0.427793	0.561890
H53	H	0.866063	0.561290	0.469468
H54	H	0.792549	0.448883	0.469357
H55	H	0.789762	0.558907	0.559992
H56	H	0.926058	0.373034	0.513879
H57	H	0.923168	0.483137	0.604465
O58	O	0.812914	0.395449	0.206819
C59	C	0.707267	0.539491	0.216397
C60	C	0.763231	0.463109	0.266302
H61	H	0.667073	0.594197	0.264467
H62	H	0.743336	0.596641	0.173894
H63	H	0.669922	0.484113	0.173874
H64	H	0.800588	0.518399	0.308872
H65	H	0.727115	0.405952	0.308750
H66	H	0.841215	0.356864	0.786359
O67	O	1.013595	0.121716	0.385571
C68	C	1.119199	-0.022392	0.375988
C69	C	1.063193	0.053929	0.326086
H70	H	1.159302	-0.077235	0.327916
H71	H	1.156630	0.032923	0.418461
H72	H	1.083084	-0.079426	0.418540
H73	H	1.099247	0.110974	0.283487
H74	H	1.025760	-0.001454	0.283667
H75	H	0.673020	0.409812	0.000058
O76	O	1.041536	0.083355	0.793405
C77	C	1.085301	-0.108077	0.821247
C78	C	1.029356	-0.031675	0.771336
H79	H	1.075462	-0.201095	0.803436
H80	H	1.149051	-0.088790	0.803369
H81	H	1.072770	-0.090900	0.893941
H82	H	1.041816	-0.048809	0.698629
H83	H	0.965624	-0.050977	0.789285
H84	H	0.329932	0.086346	0.000122
O85	O	0.551858	0.003423	-0.000050
C86	C	0.473318	-0.131207	-0.074751
C87	C	0.508521	-0.013108	-0.074703
H88	H	0.438258	-0.144600	-0.135092
H89	H	0.522957	-0.199536	-0.074804
H90	H	0.432629	-0.136882	-0.014349
H91	H	0.549200	-0.007321	-0.135095
H92	H	0.458842	0.055166	-0.074605
O93	O	0.516858	0.407997	0.000036
C94	C	0.507812	0.612512	0.000071
C95	C	0.562586	0.504861	0.000097
H96	H	0.544760	0.690855	0.000139
H97	H	0.471925	0.609362	-0.060311
H98	H	0.466190	0.617012	0.060435
H99	H	0.604255	0.500293	-0.060226
H100	H	0.598417	0.508056	0.060519
O101	O	0.302499	0.475547	0.000126
C102	C	0.276184	0.678045	0.000065
C103	C	0.241027	0.559917	0.000050
H104	H	0.226502	0.746288	-0.000014
H105	H	0.311163	0.691606	0.060449
H106	H	0.316929	0.683683	-0.060297
H107	H	0.200248	0.554195	0.060371
H108	H	0.206095	0.546406	-0.060374
O109	O	0.804450	0.406747	0.385796
C110	C	0.692561	0.427728	0.488295
C111	C	0.753244	0.344985	0.438311
H112	H	0.651134	0.377824	0.530752
H113	H	0.724612	0.490282	0.530853
H114	H	0.656976	0.476338	0.440230
H115	H	0.788846	0.296297	0.486313
H116	H	0.721146	0.282504	0.395740
H117	H	0.149144	0.441295	0.000096
H118	H	1.013305	0.122010	0.213834
