data_functionalizedCrystal
_audit_creation_method	'MofGen! by Chris Wilmer'
_symmetry_space_group_name_H-M	'P1'
_symmetry_Int_Tables_number	1
_symmetry_cell_setting	triclinic
loop_
_symmetry_equiv_pos_as_xyz
  x,y,z
_cell_length_a	10.654546
_cell_length_b	10.654550
_cell_length_c	7.088929
_cell_angle_alpha	83.717104
_cell_angle_beta	96.263137
_cell_angle_gamma	84.484193
loop_
_atom_site_label
_atom_site_type_symbol
_atom_site_fract_x
_atom_site_fract_y
_atom_site_fract_z
O1	O	1.655061	0.189179	-0.159024
O2	O	1.289582	0.205989	-0.159019
O3	O	1.480725	0.014844	-0.159015
O4	O	1.463918	0.380324	-0.159028
O5	O	1.506269	-0.010758	0.158961
O6	O	1.315126	0.180387	0.158957
O7	O	1.680604	0.163576	0.158951
Cu8	Cu	1.500197	0.169644	0.187988
Cu9	Cu	1.469989	0.199922	-0.188055
O10	O	1.489461	0.354721	0.158947
C11	C	1.255556	0.191955	-0.000030
C12	C	1.116113	0.188264	-0.000028
C13	C	1.036693	0.200475	-0.173365
C14	C	0.905671	0.196999	-0.173380
C15	C	0.933502	0.169095	0.173294
C16	C	1.064520	0.172580	0.173308
C17	C	1.088286	0.216159	-0.346700
C18	C	1.008866	0.228369	-0.520052
C19	C	0.877844	0.224893	-0.520067
C20	C	0.826242	0.209206	-0.346731
C21	C	1.492263	-0.044755	-0.000029
C22	C	1.488570	-0.184197	-0.000036
C23	C	1.601112	-0.263685	-0.000032
C24	C	1.597635	-0.394705	-0.000045
C25	C	1.369064	-0.366737	-0.000058
C26	C	1.372542	-0.235719	-0.000059
C27	C	1.717141	-0.212163	-0.000009
C28	C	1.829692	-0.291652	-0.000003
C29	C	1.826215	-0.422672	-0.000016
C30	C	1.710186	-0.474203	-0.000035
C31	C	1.714630	0.177612	-0.000042
C32	C	1.854072	0.181303	-0.000056
C33	C	1.477923	0.414321	-0.000043
C34	C	1.481615	0.553765	-0.000048
N35	N	1.521454	0.148347	0.452476
N36	N	1.448743	0.221209	-0.452544
H37	H	1.194969	0.218988	-0.346707
H38	H	1.719986	-0.105483	0.000008
F39	F	1.350244	0.319903	0.440738
F40	F	0.686793	0.205522	-0.346756
H41	H	1.050887	0.241151	-0.661175
H42	H	1.917858	-0.487387	-0.000030
H43	H	1.274598	-0.408705	-0.000071
F44	F	1.619970	0.049659	0.559203
H45	H	0.813181	0.234848	-0.661218
H46	H	1.280900	-0.170998	-0.000059
F47	F	0.878579	0.152398	0.357757
H48	H	1.129185	0.162644	0.314454
F49	F	1.953170	-0.236806	-0.000004
H50	H	1.707361	-0.580887	-0.000067
