data_functionalizedCrystal
_audit_creation_method	'MofGen! by Chris Wilmer'
_symmetry_space_group_name_H-M	'P1'
_symmetry_Int_Tables_number	1
_symmetry_cell_setting	triclinic
loop_
_symmetry_equiv_pos_as_xyz
  x,y,z
_cell_length_a	19.188930
_cell_length_b	19.188940
_cell_length_c	18.266242
_cell_angle_alpha	90.011404
_cell_angle_beta	90.015506
_cell_angle_gamma	83.146747
loop_
_atom_site_label
_atom_site_type_symbol
_atom_site_fract_x
_atom_site_fract_y
_atom_site_fract_z
O1	O	0.926144	0.087174	0.061117
O2	O	1.426144	0.587174	0.561117
O3	O	0.722833	0.098908	0.061067
O4	O	1.222833	0.598908	0.561067
O5	O	0.830352	-0.008614	0.061088
O6	O	1.330352	0.491386	0.561088
O7	O	0.818625	0.194696	0.061096
O8	O	1.318625	0.694696	0.561096
O9	O	0.830350	-0.008631	-0.060674
O10	O	1.330350	0.491369	0.439326
O11	O	0.722831	0.098891	-0.060695
O12	O	1.222831	0.598891	0.439305
O13	O	0.926142	0.087157	-0.060645
O14	O	1.426142	0.587157	0.439355
Zn15	Zn	0.824487	0.093022	-0.080002
Zn16	Zn	1.324487	0.593022	0.419998
Zn17	Zn	0.824489	0.093044	0.080424
Zn18	Zn	1.324489	0.593044	0.580424
O19	O	0.818623	0.194679	-0.060666
O20	O	1.318623	0.694679	0.439334
C21	C	0.696821	0.098520	0.000179
C22	C	1.196821	0.598520	0.500179
C23	C	0.619317	0.097379	0.000160
C24	C	1.119317	0.597379	0.500160
C25	C	0.574395	0.160470	0.000174
C26	C	1.074395	0.660470	0.500174
C27	C	0.501571	0.159398	0.000182
C28	C	1.001571	0.659398	0.500182
C29	C	0.473672	0.095232	0.000191
C30	C	0.973672	0.595232	0.500191
C31	C	0.518604	0.032133	0.000173
C32	C	1.018604	0.532133	0.500173
C33	C	0.591426	0.033207	0.000157
C34	C	1.091426	0.533207	0.500157
N35	N	0.365691	0.046191	0.041659
N36	N	0.865691	0.546191	0.541659
N37	N	0.296512	0.045176	0.041675
N38	N	0.796512	0.545176	0.541675
C39	C	0.254264	0.091994	0.000236
C40	C	0.754264	0.591994	0.500236
N41	N	0.283805	0.139877	-0.041212
N42	N	0.783805	0.639877	0.458788
N43	N	0.352990	0.140894	-0.041225
N44	N	0.852990	0.640894	0.458775
C45	C	0.394710	0.094061	0.000207
C46	C	0.894710	0.594061	0.500207
C47	C	0.130377	0.153927	0.000257
C48	C	0.630377	0.653927	0.500257
C49	C	0.057553	0.152853	0.000261
C50	C	0.557553	0.652853	0.500261
C51	C	0.074587	0.025586	0.000259
C52	C	0.574587	0.525586	0.500259
C53	C	0.147410	0.026662	0.000248
C54	C	0.647410	0.526662	0.500248
C55	C	0.175301	0.090835	0.000251
C56	C	0.675301	0.590835	0.500251
C57	C	0.829970	-0.034633	0.000207
C58	C	1.329970	0.465367	0.500207
C59	C	0.828827	-0.112138	0.000207
C60	C	1.328827	0.387862	0.500207
C61	C	0.820691	-0.665406	-0.066150
C62	C	1.320691	-0.165406	0.433850
C63	C	0.821758	-0.592581	-0.066154
C64	C	1.321758	-0.092581	0.433846
C65	C	0.822296	-0.556153	0.000218
C66	C	1.322296	-0.056153	0.500218
C67	C	0.821749	-0.592552	0.066598
C68	C	1.321749	-0.092552	0.566598
C69	C	0.820675	-0.665374	0.066600
C70	C	1.320675	-0.165374	0.566600
N71	N	0.863713	-0.447122	0.049630
N72	N	1.363713	0.052878	0.549630
N73	N	0.864734	-0.377944	0.049623
N74	N	1.364734	0.122056	0.549623
C75	C	0.825530	-0.336744	0.000216
C76	C	1.325530	0.163256	0.500216
N77	N	0.785273	-0.367335	-0.049196
N78	N	1.285273	0.132665	0.450804
N79	N	0.784255	-0.436520	-0.049192
N80	N	1.284255	0.063480	0.450808
C81	C	0.823460	-0.477189	0.000223
C82	C	1.323460	0.022811	0.500223
C83	C	0.827228	-0.221388	-0.066164
C84	C	1.327228	0.278612	0.433836
C85	C	0.828291	-0.148561	-0.066166
C86	C	1.328291	0.351439	0.433834
C87	C	0.828288	-0.148534	0.066589
C88	C	1.328288	0.351466	0.566589
C89	C	0.827219	-0.221358	0.066588
C90	C	1.327219	0.278642	0.566588
C91	C	0.826692	-0.257781	0.000209
C92	C	1.326692	0.242219	0.500209
C93	C	0.952154	0.087546	0.000244
C94	C	1.452154	0.587546	0.500244
C95	C	1.029659	0.088686	0.000268
C96	C	1.529659	0.588686	0.500268
C97	C	0.819005	0.220699	0.000217
C98	C	1.319005	0.720699	0.500217
C99	C	0.820148	0.298203	0.000221
C100	C	1.320148	0.798203	0.500221
N101	N	0.824490	0.093006	-0.189489
N102	N	1.324490	0.593006	0.310511
N103	N	0.824491	0.093054	0.189911
N104	N	1.324491	0.593054	0.689911
C105	C	0.866606	0.135345	0.772219
C106	C	1.366606	0.635345	1.272219
C107	C	0.866611	0.135349	0.695574
C108	C	1.366611	0.635349	1.195574
C109	C	0.824487	0.093021	0.657224
C110	C	1.324487	0.593021	1.157224
C111	C	0.782369	0.050673	0.695525
C112	C	1.282369	0.550673	1.195525
C113	C	0.782370	0.050666	0.772168
C114	C	1.282370	0.550666	1.272168
N115	N	0.763347	0.091191	0.536869
N116	N	1.263347	0.591191	1.036869
N117	N	0.763348	0.091202	0.464061
N118	N	1.263348	0.591202	0.964061
C119	C	0.824482	0.093039	0.426301
C120	C	1.324482	0.593039	0.926301
N121	N	0.885617	0.094880	0.464101
N122	N	1.385617	0.594880	0.964101
N123	N	0.885615	0.094872	0.536915
N124	N	1.385615	0.594872	1.036915
C125	C	0.824482	0.093024	0.574117
C126	C	1.324482	0.593024	1.074117
C127	C	0.866608	0.135384	0.304902
C128	C	1.366608	0.635384	0.804902
C129	C	0.866614	0.135383	0.228256
C130	C	1.366614	0.635383	0.728256
C131	C	0.782365	0.050711	0.228208
C132	C	1.282365	0.550711	0.728208
C133	C	0.782365	0.050709	0.304853
C134	C	1.282365	0.550709	0.804853
C135	C	0.824485	0.093049	0.343196
C136	C	1.324485	0.593049	0.843196
H137	H	0.183987	-0.024713	0.000240
H138	H	0.683987	0.475287	0.500240
O139	O	0.822329	-0.553262	0.138184
O140	O	1.322329	-0.053262	0.638184
H141	H	0.774540	-0.560857	0.169992
H142	H	1.274540	-0.060857	0.669992
H143	H	0.820232	-0.695003	0.120650
H144	H	1.320232	-0.195003	0.620650
O145	O	0.160465	0.223138	0.000244
O146	O	0.660465	0.723138	0.500244
H147	H	0.142419	0.253458	0.049869
H148	H	0.642419	0.753458	0.549869
H149	H	0.748067	0.016235	0.336031
H150	H	1.248067	0.516235	0.836031
H151	H	0.748068	0.016246	0.196984
H152	H	1.248068	0.516246	0.696984
O153	O	0.826648	-0.260679	-0.137753
O154	O	1.326648	0.239321	0.362247
H155	H	0.827192	-0.223134	-0.183908
H156	H	1.327192	0.276866	0.316092
H157	H	0.900905	0.169860	0.336123
H158	H	1.400905	0.669860	0.836123
O159	O	0.912035	0.181015	0.654255
O160	O	1.412035	0.681015	1.154255
H161	H	0.896559	0.236841	0.668970
H162	H	1.396559	0.736841	1.168970
H163	H	0.900915	0.169858	0.197080
H164	H	1.400915	0.669858	0.697080
O165	O	0.820118	-0.704692	-0.137741
O166	O	1.320118	-0.204692	0.362259
H167	H	0.772746	-0.684357	-0.169580
H168	H	1.272746	-0.184357	0.330420
H169	H	0.495884	-0.020111	0.000190
H170	H	0.995884	0.479889	0.500190
H171	H	0.826781	-0.250989	0.120635
H172	H	1.326781	0.249011	0.620635
H173	H	0.900906	0.169819	0.803433
H174	H	1.400906	0.669819	1.303433
O175	O	0.453106	0.227448	0.000194
O176	O	0.953106	0.727448	0.500194
H177	H	0.419539	0.230000	0.049826
H178	H	0.919539	0.730000	0.549826
O179	O	0.828884	-0.109306	-0.137755
O180	O	1.328884	0.390694	0.362245
H181	H	0.828347	-0.146872	-0.183908
H182	H	1.328347	0.353128	0.316092
H183	H	0.597098	0.212724	0.000178
H184	H	1.097098	0.712724	0.500178
H185	H	0.748073	0.016187	0.803345
H186	H	1.248073	0.516187	1.303345
H187	H	0.628002	-0.018171	0.000146
H188	H	1.128002	0.481829	0.500146
H189	H	0.020977	0.204231	0.000268
H190	H	0.520977	0.704231	0.500268
H191	H	0.051873	-0.026659	0.000311
H192	H	0.551873	0.473341	0.500311
O193	O	0.822354	-0.553318	-0.137743
O194	O	1.322354	-0.053318	0.362257
H195	H	0.821813	-0.590881	-0.183898
H196	H	1.321813	-0.090881	0.316102
O197	O	0.828868	-0.109256	0.138179
O198	O	1.328868	0.390744	0.638179
H199	H	0.829710	-0.052504	0.127029
H200	H	1.329710	0.447496	0.627029
O201	O	0.736930	0.005021	0.654168
O202	O	1.236930	0.505021	1.154168
H203	H	0.743998	0.012145	0.594439
H204	H	1.243998	0.512145	1.094439
