data_functionalizedCrystal
_audit_creation_method	'MofGen! by Chris Wilmer'
_symmetry_space_group_name_H-M	'P1'
_symmetry_Int_Tables_number	1
_symmetry_cell_setting	triclinic
loop_
_symmetry_equiv_pos_as_xyz
  x,y,z
_cell_length_a	17.640280
_cell_length_b	17.639054
_cell_length_c	17.639145
_cell_angle_alpha	87.862748
_cell_angle_beta	109.635155
_cell_angle_gamma	87.823438
loop_
_atom_site_label
_atom_site_type_symbol
_atom_site_fract_x
_atom_site_fract_y
_atom_site_fract_z
Zn1	Zn	0.035798	1.065742	0.670080
Zn2	Zn	-0.114452	1.126459	0.519860
Zn3	Zn	-0.014703	0.976242	0.509583
Zn4	Zn	-0.124622	0.976210	0.619506
O5	O	-0.054495	1.036163	0.579757
O6	O	0.041258	1.174133	0.675620
O7	O	-0.118099	1.131955	0.409625
O8	O	0.100878	0.962717	0.547738
O9	O	-0.069130	1.218740	0.565253
O10	O	0.137981	1.028473	0.665654
O11	O	-0.044814	1.021591	0.402075
O12	O	-0.054676	0.875901	0.498698
O13	O	-0.086464	0.962664	0.735086
O14	O	-0.135433	0.875878	0.579458
O15	O	0.031397	1.028443	0.772242
O16	O	-0.224683	1.131925	0.516213
O17	O	-0.232155	1.021538	0.589423
C18	C	-0.101638	0.849874	0.532475
C19	C	-0.121822	0.770179	0.512263
C20	C	-0.207674	0.681074	0.426254
C21	C	-0.188701	0.755957	0.445253
C22	C	-0.073892	0.709516	0.560304
C23	C	-0.092857	0.634628	0.541317
C24	C	-0.159749	0.620413	0.474290
C25	C	-0.044932	0.573967	0.589353
C26	C	-0.063894	0.499085	0.570365
C27	C	-0.130781	0.484864	0.503341
C28	C	-0.178710	0.545531	0.455302
C29	C	0.021962	0.588183	0.656376
C30	C	0.069888	0.527523	0.704413
C31	C	0.050923	0.452639	0.685428
C32	C	-0.015964	0.438418	0.618404
C33	C	0.098853	0.391972	0.733466
C34	C	0.079891	0.317090	0.714478
C35	C	-0.034926	0.363536	0.599415
C36	C	-0.256644	1.083332	0.548467
C37	C	-0.343103	1.103570	0.535124
C38	C	-0.647140	0.882642	0.681482
C39	C	-0.728385	0.901666	0.668920
C40	C	-0.720509	1.016645	0.592802
C41	C	-0.639260	0.997633	0.605361
C42	C	-0.602583	0.930630	0.649701
C43	C	-0.594703	1.045620	0.573580
C44	C	-0.513463	1.026607	0.586135
C45	C	-0.476780	0.959606	0.630471
C46	C	-0.521342	0.911616	0.662256
C47	C	-0.631384	1.112620	0.529235
C48	C	-0.586827	1.160608	0.497454
C49	C	-0.505584	1.141597	0.510014
C50	C	-0.468900	1.074596	0.554350
C51	C	-0.461021	1.189587	0.478229
C52	C	-0.379781	1.170573	0.490784
C53	C	-0.387660	1.055583	0.566905
C54	C	0.148450	0.988826	0.611191
C55	C	0.234934	0.968654	0.624586
C56	C	-0.023035	0.988777	0.782682
C57	C	-0.009628	0.968584	0.869157
C58	C	-0.007168	1.223180	0.627224
C59	C	0.012999	1.302875	0.647452
C60	C	-0.156313	1.189485	1.173195
C61	C	-0.143709	1.170499	1.254450
C62	C	-0.067402	1.055585	1.246588
C63	C	-0.080003	1.074559	1.165329
C64	C	-0.124459	1.141510	1.128640
C65	C	-0.048149	1.026585	1.120774
C66	C	-0.060745	1.045560	1.039523
C67	C	-0.105196	1.112509	1.002829
C68	C	-0.137055	1.160485	1.047390
C69	C	-0.003689	0.959636	1.157466
C70	C	0.028166	0.911662	1.112911
C71	C	0.015565	0.930634	1.031657
C72	C	-0.028886	0.997583	0.994963
C73	C	0.047424	0.882658	0.987097
C74	C	0.034827	0.901633	0.905846
C75	C	-0.041483	1.016558	0.913712
C76	C	-0.085853	1.083365	1.377617
C77	C	-0.099261	1.103564	1.291143
H78	H	-0.146208	0.423889	0.487872
H79	H	-0.262149	0.669500	0.371680
O80	O	0.069184	0.849887	0.857787
H81	H	0.111159	0.881389	0.835056
H82	H	0.083626	0.828150	1.016984
H83	H	-0.192504	1.244008	1.143324
H84	H	0.153320	0.403558	0.788035
H85	H	-0.697535	1.128100	0.519017
H86	H	0.064364	0.857152	1.142795
O87	O	-0.250858	0.530188	0.383010
H88	H	-0.281001	0.584949	0.352792
O89	O	0.142035	0.542859	0.776700
H90	H	0.134424	0.517382	0.832016
H91	H	-0.115449	1.127959	0.936670
H92	H	-0.227733	0.805348	0.406130
O93	O	-0.107072	0.348194	0.527121
H94	H	-0.162465	0.373736	0.534548
H95	H	-0.169651	1.209572	1.290726
O96	O	-0.331712	1.222346	0.456530
H97	H	-0.269059	1.197867	0.472712
H98	H	-0.357794	1.001026	0.603018
O99	O	-0.001749	0.724856	0.632594
H100	H	0.053643	0.699317	0.625160
O101	O	-0.089430	1.088772	0.874133
H102	H	-0.151191	1.087080	0.877149
H103	H	-0.173246	1.215009	1.017518
O104	O	-0.019437	0.983385	1.286166
H105	H	-0.016024	0.978251	1.350152
H106	H	0.006570	0.944192	1.223627
H107	H	0.037401	0.649158	0.671831
H108	H	-0.410631	0.944122	0.640686
O109	O	-0.481771	0.839348	0.710080
H110	H	-0.526402	0.809168	0.730071
O111	O	0.131574	0.251655	0.766288
H112	H	0.181267	0.274120	0.816091
H113	H	-0.617273	0.828085	0.717595
H114	H	-0.764657	0.862590	0.694814
H115	H	-0.750384	1.071198	0.556697
H116	H	-0.490899	1.244137	0.442121
O117	O	-0.626379	1.232888	0.449658
H118	H	-0.690353	1.238056	0.446278
