data_functionalizedCrystal
_audit_creation_method	'MofGen! by Chris Wilmer'
_symmetry_space_group_name_H-M	'P1'
_symmetry_Int_Tables_number	1
_symmetry_cell_setting	triclinic
loop_
_symmetry_equiv_pos_as_xyz
  x,y,z
_cell_length_a	8.559649
_cell_length_b	10.268362
_cell_length_c	8.597278
_cell_angle_alpha	82.299169
_cell_angle_beta	77.625102
_cell_angle_gamma	89.995647
loop_
_atom_site_label
_atom_site_type_symbol
_atom_site_fract_x
_atom_site_fract_y
_atom_site_fract_z
O1	O	2.119299	-0.102316	-0.053152
O2	O	2.619299	0.397684	0.446848
O3	O	1.655360	-0.111399	0.027748
O4	O	2.155360	0.388601	0.527748
O5	O	1.896457	-0.081095	-0.242268
O6	O	2.396457	0.418905	0.257732
O7	O	1.878203	-0.132619	0.216864
O8	O	2.378203	0.367381	0.716864
O9	O	1.896431	0.135504	-0.242254
O10	O	2.396431	0.635504	0.257746
O11	O	1.655335	0.105201	0.027762
O12	O	2.155335	0.605201	0.527762
O13	O	2.119274	0.114284	-0.053138
O14	O	2.619274	0.614284	0.446862
Cu15	Cu	1.887302	0.129519	-0.012687
Cu16	Cu	2.387302	0.629519	0.487313
Cu17	Cu	1.887332	-0.126634	-0.012703
Cu18	Cu	2.387332	0.373366	0.487297
O19	O	1.878177	0.083980	0.216878
O20	O	2.378177	0.583980	0.716878
C21	C	1.595914	-0.003788	0.033886
C22	C	2.095914	0.496212	0.533886
C23	C	1.418819	-0.005838	0.052135
C24	C	1.918819	0.494162	0.552135
N25	N	1.887292	0.309684	-0.012677
N26	N	2.387292	0.809684	0.487323
C27	C	1.887302	0.427526	-0.012676
C28	C	2.387302	0.927526	0.487324
C29	C	1.887321	0.575366	-0.012691
C30	C	2.387321	1.075366	0.487309
C31	C	2.178720	0.006670	-0.059276
C32	C	2.678720	0.506670	0.440724
C33	C	2.355815	0.008711	-0.077525
C34	C	2.855815	0.508711	0.422475
C35	C	1.894482	0.033737	-0.300495
C36	C	2.394482	0.533737	0.199505
C37	C	1.888617	0.053201	-0.474014
C38	C	2.388617	0.553201	0.025986
N39	N	1.887343	0.693201	-0.012713
N40	N	2.387343	1.193201	0.487287
C41	C	1.880152	-0.030855	0.275106
C42	C	2.380152	0.469145	0.775106
C43	C	1.886017	-0.050327	0.448625
C44	C	2.386017	0.449673	0.948625
H45	H	1.437358	0.022729	-0.202493
H46	H	1.937358	0.522729	0.297507
H47	H	1.888263	-0.153865	-0.484848
H48	H	2.388263	0.346135	0.015152
H49	H	1.337267	-0.019869	0.177112
H50	H	1.837267	0.480131	0.677112
F51	F	1.885654	0.188525	-0.560950
F52	F	2.385654	0.688525	-0.060950
