data_functionalizedCrystal
_audit_creation_method	'MofGen! by Chris Wilmer'
_symmetry_space_group_name_H-M	'P1'
_symmetry_Int_Tables_number	1
_symmetry_cell_setting	triclinic
loop_
_symmetry_equiv_pos_as_xyz
  x,y,z
_cell_length_a	10.723024
_cell_length_b	9.198806
_cell_length_c	9.065215
_cell_angle_alpha	90.002221
_cell_angle_beta	95.258717
_cell_angle_gamma	89.995726
loop_
_atom_site_label
_atom_site_type_symbol
_atom_site_fract_x
_atom_site_fract_y
_atom_site_fract_z
O1	O	-1.658027	0.120901	0.206939
O2	O	-1.294954	0.120901	0.226747
O3	O	-1.483997	0.120895	0.002158
O4	O	-1.468984	0.120907	0.431528
O5	O	-1.483982	-0.120890	0.002157
O6	O	-1.294939	-0.120884	0.226746
O7	O	-1.658011	-0.120884	0.206938
Cu8	Cu	-1.476474	-0.142961	0.216842
Cu9	Cu	-1.476492	0.142978	0.216843
O10	O	-1.468969	-0.120878	0.431528
C11	C	-1.248441	0.000008	0.225305
C12	C	-1.109870	0.000008	0.220992
C13	C	-1.035396	0.000012	0.346661
C14	C	-0.892175	0.000012	0.342206
N15	N	-1.476470	-0.344075	0.216841
C16	C	-1.555842	-0.416275	0.122127
C17	C	-1.555862	-0.583687	0.122121
C18	C	-0.704524	0.000008	0.208380
C19	C	-0.843096	0.000008	0.212693
C20	C	-1.482547	0.000004	-0.052821
C21	C	-1.478236	0.000008	-0.216640
N22	N	-1.476505	0.344092	0.216833
C23	C	-1.470418	0.000016	0.486506
C24	C	-1.474730	0.000021	0.650325
H25	H	-0.907085	0.000015	0.105105
O26	O	-1.059659	-0.000057	0.088571
C27	C	-1.099610	0.000032	-0.177377
C28	C	-1.156634	0.000071	-0.027508
H29	H	-1.177988	0.000166	-0.271267
H30	H	-1.039344	-0.101179	-0.185998
H31	H	-1.039268	0.101194	-0.185809
H32	H	-1.217034	-0.101023	-0.018975
H33	H	-1.216828	0.101348	-0.018952
H34	H	-1.623778	-0.354151	0.041035
H35	H	-1.623820	-0.645775	0.041038
H36	H	-0.828178	0.000021	0.449788
O37	O	-1.395384	-0.582083	0.313723
C38	C	-1.229648	-0.597848	0.511389
C39	C	-1.321469	-0.681649	0.401765
H40	H	-1.169846	-0.678311	0.582578
H41	H	-1.284530	-0.526614	0.585519
H42	H	-1.166530	-0.526561	0.447143
H43	H	-1.384609	-0.753015	0.465891
H44	H	-1.266509	-0.752791	0.327636
H45	H	-1.077668	0.000008	0.457548
H46	H	-1.408527	-0.406201	0.297921
