data_functionalizedCrystal
_audit_creation_method	'MofGen! by Chris Wilmer'
_symmetry_space_group_name_H-M	'P1'
_symmetry_Int_Tables_number	1
_symmetry_cell_setting	triclinic
loop_
_symmetry_equiv_pos_as_xyz
  x,y,z
_cell_length_a	11.169417
_cell_length_b	16.959454
_cell_length_c	11.169409
_cell_angle_alpha	89.967057
_cell_angle_beta	89.980176
_cell_angle_gamma	90.020954
loop_
_atom_site_label
_atom_site_type_symbol
_atom_site_fract_x
_atom_site_fract_y
_atom_site_fract_z
Zn1	Zn	1.834881	-0.314599	-0.678538
Zn2	Zn	1.834736	-0.446806	-0.477852
Zn3	Zn	1.634167	-0.314647	-0.477872
Zn4	Zn	1.634140	-0.446741	-0.678497
O5	O	1.734481	-0.380698	-0.578190
O6	O	2.002812	-0.332143	-0.651925
O7	O	1.808081	-0.429322	-0.309905
O8	O	1.660864	-0.204030	-0.504516
O9	O	2.002705	-0.429275	-0.504482
O10	O	1.808328	-0.203995	-0.651944
O11	O	1.660724	-0.332225	-0.309920
O12	O	1.466214	-0.332163	-0.504477
O13	O	1.660819	-0.429165	-0.846452
O14	O	1.466194	-0.429212	-0.651875
O15	O	1.808302	-0.332081	-0.846482
O16	O	1.808055	-0.557408	-0.504443
O17	O	1.660678	-0.557361	-0.651856
C18	C	1.422657	-0.380686	-0.578174
C19	C	1.289257	-0.380700	-0.578196
C20	C	1.734381	-0.586065	-0.578169
C21	C	1.734447	-0.673921	-0.578201
C22	C	1.657853	-1.045402	-0.654940
C23	C	1.811443	-1.045391	-0.501562
C24	C	1.811401	-0.962846	-0.501551
C25	C	1.734583	-0.921574	-0.578234
C26	C	1.657807	-0.962849	-0.654928
C27	C	1.888168	-0.921565	-0.424850
C28	C	1.888128	-0.839014	-0.424835
C29	C	1.811315	-0.797741	-0.501525
C30	C	1.734536	-0.839021	-0.578223
C31	C	1.657718	-0.797749	-0.654906
C32	C	1.580944	-0.839027	-0.731611
C33	C	1.580993	-0.921576	-0.731618
C34	C	1.811266	-0.715193	-0.501518
C35	C	1.657671	-0.715196	-0.654895
C36	C	2.047524	-0.380711	-0.578206
C37	C	2.180924	-0.380716	-0.578213
C38	C	1.734573	-0.380611	-0.891232
C39	C	1.734613	-0.380573	-1.024633
C40	C	1.734615	-0.174530	-0.578237
C41	C	1.734672	-0.086674	-0.578257
C42	C	1.734459	-0.380729	-0.266365
C43	C	1.734652	-0.380543	-0.132966
H44	H	1.518393	-0.805415	-0.794042
C45	C	1.573167	-0.669800	-0.739249
C46	C	1.625090	-0.612980	-0.833510
C47	C	1.540587	-0.567585	-0.917864
C48	C	1.404161	-0.579009	-0.907958
C49	C	1.352231	-0.635831	-0.813693
C50	C	1.436734	-0.681226	-0.729339
H51	H	1.726087	-0.604521	-0.840848
H52	H	1.579030	-0.525521	-0.987646
H53	H	1.341607	-0.545404	-0.970401
H54	H	1.251234	-0.644290	-0.806356
H55	H	1.398291	-0.723290	-0.659558
C56	C	1.496543	-0.966985	-0.815977
C57	C	1.360103	-0.955706	-0.806063
C58	C	1.275651	-1.001120	-0.890417
C59	C	1.327639	-1.057813	-0.984685
C60	C	1.464085	-1.069093	-0.994603
C61	C	1.548537	-1.023680	-0.910250
H62	H	1.321613	-0.913737	-0.736277
H63	H	1.174644	-0.992769	-0.883074
H64	H	1.265122	-1.091431	-1.047129
H65	H	1.502576	-1.111063	-1.064390
H66	H	1.649544	-1.032031	-0.917592
H67	H	1.595350	-1.079014	-0.717394
H68	H	1.873978	-1.078999	-0.439123
H69	H	1.950700	-0.955174	-0.362410
H70	H	1.950642	-0.805410	-0.362380
C71	C	1.895705	-0.669785	-0.417153
C72	C	1.885981	-0.681196	-0.280708
C73	C	1.970426	-0.635788	-0.196340
C74	C	2.064596	-0.578970	-0.248417
C75	C	2.074324	-0.567557	-0.384869
C76	C	1.989878	-0.612964	-0.469237
H77	H	1.816268	-0.723258	-0.242151
H78	H	1.963225	-0.644237	-0.095329
H79	H	2.127107	-0.545356	-0.185963
H80	H	2.144037	-0.525494	-0.423426
H81	H	1.997080	-0.604515	-0.570249
