data_functionalizedCrystal
_audit_creation_method	'MofGen! by Chris Wilmer'
_symmetry_space_group_name_H-M	'P1'
_symmetry_Int_Tables_number	1
_symmetry_cell_setting	triclinic
loop_
_symmetry_equiv_pos_as_xyz
  x,y,z
_cell_length_a	14.519709
_cell_length_b	22.010155
_cell_length_c	23.532407
_cell_angle_alpha	90.000423
_cell_angle_beta	83.264412
_cell_angle_gamma	90.002862
loop_
_atom_site_label
_atom_site_type_symbol
_atom_site_fract_x
_atom_site_fract_y
_atom_site_fract_z
O1	O	1.222991	0.050453	0.074645
O2	O	0.954410	0.050472	0.083436
O3	O	1.096800	0.050450	-0.003854
O4	O	1.080602	0.050474	0.161936
O5	O	1.096774	-0.050600	-0.003841
O6	O	0.954384	-0.050578	0.083449
O7	O	1.222965	-0.050598	0.074658
Cu8	Cu	1.088672	-0.059815	0.079055
Cu9	Cu	1.088703	0.059689	0.079040
O10	O	1.080576	-0.050576	0.161949
C11	C	0.920042	-0.000051	0.083033
C12	C	0.817676	-0.000044	0.081805
N13	N	1.088658	-0.143867	0.079066
C14	C	0.442833	-0.000072	0.077286
C15	C	0.547126	-0.000064	0.078541
C16	C	0.630251	-0.000058	0.079545
C17	C	0.734551	-0.000051	0.080801
C18	C	1.151757	-0.563656	0.040393
C19	C	1.151761	-0.627264	0.040389
O20	O	1.205373	-0.660163	0.007515
N21	N	1.088702	-0.659074	0.079028
C22	C	1.025629	-0.627274	0.117669
O23	O	0.971993	-0.660172	0.150534
C24	C	1.025621	-0.563668	0.117670
C25	C	1.088690	-0.531860	0.079032
C26	C	1.214820	-0.531849	0.001758
C27	C	1.214816	-0.468246	0.001763
C28	C	1.151750	-0.436450	0.040402
C29	C	1.088687	-0.468257	0.079037
C30	C	0.962545	-0.531869	0.156308
C31	C	0.962542	-0.468258	0.156305
C32	C	1.025611	-0.436451	0.117668
C33	C	1.025617	-0.372858	0.117681
N34	N	1.088675	-0.341048	0.079042
C35	C	1.151742	-0.372843	0.040403
C36	C	1.025650	-0.760852	0.117664
C37	C	1.025661	-0.824457	0.117666
C38	C	1.151792	-0.824442	0.040385
C39	C	1.151784	-0.760836	0.040386
C40	C	1.088708	-0.729041	0.079025
C41	C	1.151730	-0.239272	0.040416
C42	C	1.151724	-0.175663	0.040426
C43	C	1.025591	-0.175683	0.117705
C44	C	1.025600	-0.239287	0.117697
C45	C	1.088673	-0.271079	0.079048
O46	O	0.972030	-0.339918	0.150537
O47	O	1.205361	-0.339937	0.007539
C48	C	1.257333	-0.000074	0.075061
C49	C	1.359700	-0.000077	0.076289
C50	C	1.096374	-0.000076	-0.025066
C51	C	1.095134	-0.000081	-0.088288
N52	N	1.088725	0.143741	0.079025
C53	C	1.171619	-0.000053	-0.487046
C54	C	1.170467	-0.000048	-0.546452
O55	O	1.241369	-0.000031	-0.582876
N56	N	1.085816	-0.000043	-0.569460
C57	C	1.002312	-0.000036	-0.533059
O58	O	0.930205	-0.000030	-0.558084
C59	C	1.003465	-0.000036	-0.473655
C60	C	1.088121	-0.000048	-0.450650
C61	C	1.256268	-0.000064	-0.464041
C62	C	1.257420	-0.000070	-0.404640
C63	C	1.173922	-0.000065	-0.368244
C64	C	1.089273	-0.000054	-0.391249
C65	C	0.919962	-0.000024	-0.437255
C66	C	0.921123	-0.000024	-0.377847
C67	C	1.005779	-0.000036	-0.354843
C68	C	1.006927	-0.000054	-0.295451
N69	N	1.091578	-0.000060	-0.272443
C70	C	1.175075	-0.000065	-0.308839
C71	C	0.999897	-0.000034	-0.657813
C72	C	0.998743	-0.000038	-0.717216
C73	C	1.166898	-0.000049	-0.730604
C74	C	1.168051	-0.000050	-0.671200
C75	C	1.084548	-0.000039	-0.634804
C76	C	1.177487	-0.000078	-0.184092
C77	C	1.178632	-0.000086	-0.124685
C78	C	1.010477	-0.000071	-0.111301
C79	C	1.009332	-0.000066	-0.170703
C80	C	1.092845	-0.000067	-0.207098
O81	O	0.936062	-0.000069	-0.258992
O82	O	1.247171	-0.000063	-0.283806
C83	C	1.081001	-0.000048	0.183160
C84	C	1.082241	-0.000040	0.246383
H85	H	1.203090	-0.265150	0.008944
C86	C	1.283326	-0.433827	-0.040257
C87	C	1.338531	-0.475297	-0.074103
C88	C	1.401644	-0.443618	-0.112827
H89	H	1.321617	-0.409008	-0.019789
H90	H	1.250392	-0.409031	-0.064042
H91	H	1.371462	-0.500082	-0.050321
H92	H	1.300265	-0.500117	-0.094583
H93	H	1.368711	-0.418822	-0.136612
H94	H	1.439929	-0.418800	-0.092355
H95	H	1.439103	-0.471750	-0.135800
C96	C	0.919727	-0.000090	-0.071873
C97	C	0.845338	-0.000093	-0.104729
C98	C	0.761725	-0.000112	-0.068427
H99	H	0.916574	0.035139	-0.048410
H100	H	0.916618	-0.035342	-0.048428
H101	H	0.848446	0.035156	-0.128165
H102	H	0.848461	-0.035320	-0.128191
H103	H	0.758616	-0.035364	-0.044982
H104	H	0.758581	0.035118	-0.044966
H105	H	0.711243	-0.000119	-0.090714
H106	H	1.266176	-0.557731	-0.029710
H107	H	0.929808	-0.000039	-0.735940
H108	H	1.326355	-0.000077	-0.385915
C109	C	0.830359	-0.000044	-0.338428
C110	C	0.755983	-0.000048	-0.371295
C111	C	0.672360	-0.000076	-0.335003
H112	H	0.827192	0.035183	-0.314961
H113	H	0.827247	-0.035298	-0.314985
H114	H	0.759094	0.035202	-0.394727
H115	H	0.759120	-0.035273	-0.394760
H116	H	0.669248	-0.035330	-0.311560
H117	H	0.669202	0.035152	-0.311538
H118	H	0.621886	-0.000084	-0.357297
C119	C	0.917491	0.000036	-0.195764
C120	C	0.911943	0.052023	-0.229481
C121	C	0.827357	0.052140	-0.252578
H122	H	0.867847	0.000067	-0.165638
H123	H	0.913529	-0.035180	-0.218696
H124	H	0.915896	0.087230	-0.206549
H125	H	0.961567	0.052003	-0.259615
H126	H	0.823395	0.016924	-0.275510
H127	H	0.777720	0.052169	-0.222448
H128	H	0.823585	0.087409	-0.275461
H129	H	0.911188	-0.557757	0.187770
C130	C	0.893954	-0.433707	0.198168
C131	C	0.837765	-0.397203	0.167757
C132	C	0.774567	-0.365374	0.206302
H133	H	0.926794	-0.408844	0.221940
H134	H	0.856346	-0.461745	0.221168
H135	H	0.875369	-0.369169	0.144767
H136	H	0.804905	-0.422051	0.143987
H137	H	0.736959	-0.393412	0.229302
H138	H	0.807414	-0.340515	0.230072
H139	H	0.736430	-0.340607	0.185674
C140	C	1.220365	-0.858862	-0.001597
C141	C	1.275611	-0.817397	-0.035429
C142	C	1.338794	-0.849083	-0.074100
H143	H	1.187515	-0.883678	-0.025401
H144	H	1.258614	-0.883660	0.018929
H145	H	1.237367	-0.792609	-0.055952
H146	H	1.308481	-0.792579	-0.011640
H147	H	1.377043	-0.873882	-0.053575
H148	H	1.305937	-0.873898	-0.097901
H149	H	1.376292	-0.820954	-0.097056
H150	H	0.974252	-0.265185	0.149165
C151	C	1.268129	0.000042	-0.223628
C152	C	1.272420	0.052040	-0.258111
C153	C	1.355909	0.052171	-0.294533
H154	H	1.271257	-0.035154	-0.247135
H155	H	1.318728	0.000067	-0.201432
H156	H	1.221834	0.052010	-0.280306
H157	H	1.269307	0.087244	-0.234620
H158	H	1.406508	0.052195	-0.272337
H159	H	1.359030	0.016972	-0.318036
H160	H	1.358835	0.087453	-0.317931
H161	H	0.974245	-0.149785	0.149166
H162	H	1.203085	-0.149767	0.008963
H163	H	1.247572	-0.000097	-0.105958
C164	C	1.347031	-0.000104	-0.503456
C165	C	1.421397	-0.000129	-0.470582
C166	C	1.505028	-0.000179	-0.506867
H167	H	1.350232	0.035123	-0.526924
H168	H	1.350120	-0.035359	-0.526898
H169	H	1.418309	0.035122	-0.447151
H170	H	1.418227	-0.035353	-0.447116
H171	H	1.508118	-0.035434	-0.530309
H172	H	1.508219	0.035048	-0.530333
H173	H	1.555495	-0.000202	-0.484568
H174	H	0.931894	-0.000031	-0.628182
C175	C	1.220078	-0.726249	-0.001630
C176	C	1.171232	-0.689753	-0.036551
C177	C	1.234101	-0.657890	-0.075277
H178	H	1.257633	-0.754248	-0.024693
H179	H	1.258295	-0.701381	0.018855
H180	H	1.133031	-0.714619	-0.057035
H181	H	1.133680	-0.661743	-0.013504
H182	H	1.272318	-0.633022	-0.054791
H183	H	1.271653	-0.685894	-0.098335
H184	H	1.200969	-0.633120	-0.098971
H185	H	0.974315	-0.850350	0.149135
H186	H	1.236985	-0.000059	-0.652474
C187	C	0.957131	-0.726445	0.159689
C188	C	0.901933	-0.767923	0.193533
C189	C	0.838812	-0.736253	0.232257
H190	H	0.918835	-0.701631	0.139221
H191	H	0.990058	-0.701644	0.183475
H192	H	0.869008	-0.792713	0.169750
H193	H	0.940203	-0.792737	0.214013
H194	H	0.871739	-0.711452	0.256043
H195	H	0.800523	-0.711441	0.211785
H196	H	0.801358	-0.764391	0.255229
H197	H	1.234886	-0.000051	-0.760249
H198	H	0.851027	-0.000011	-0.455975
