data_functionalizedCrystal
_audit_creation_method	'MofGen! by Chris Wilmer'
_symmetry_space_group_name_H-M	'P1'
_symmetry_Int_Tables_number	1
_symmetry_cell_setting	triclinic
loop_
_symmetry_equiv_pos_as_xyz
  x,y,z
_cell_length_a	16.625548
_cell_length_b	25.639239
_cell_length_c	25.639233
_cell_angle_alpha	89.981253
_cell_angle_beta	89.986620
_cell_angle_gamma	90.039754
loop_
_atom_site_label
_atom_site_type_symbol
_atom_site_fract_x
_atom_site_fract_y
_atom_site_fract_z
Zn1	Zn	1.232532	-0.208200	-0.295620
Zn2	Zn	1.232414	-0.295618	-0.208184
Zn3	Zn	1.097711	-0.208200	-0.208197
Zn4	Zn	1.097626	-0.295607	-0.295587
O5	O	1.165071	-0.251906	-0.251897
O6	O	1.345349	-0.219800	-0.284029
O7	O	1.214532	-0.284027	-0.135021
O8	O	1.115680	-0.135035	-0.219813
O9	O	1.345262	-0.284026	-0.219791
O10	O	1.214733	-0.135034	-0.284042
O11	O	1.115566	-0.219801	-0.135030
O12	O	0.984867	-0.219791	-0.219782
O13	O	1.115536	-0.284008	-0.368757
O14	O	0.984805	-0.284008	-0.283987
O15	O	1.214651	-0.219789	-0.368781
O16	O	1.214450	-0.368782	-0.219759
O17	O	1.115422	-0.368774	-0.283974
C18	C	0.955580	-0.251899	-0.251882
C19	C	0.865959	-0.251908	-0.251889
C20	C	0.537783	-0.251912	-0.251911
C21	C	0.629092	-0.251909	-0.251903
C22	C	0.701868	-0.251910	-0.251899
C23	C	0.793183	-0.251907	-0.251892
C24	C	1.164935	-0.387749	-0.251873
C25	C	1.164951	-0.445863	-0.251880
C26	C	1.216769	-0.806218	-0.218517
C27	C	1.216801	-0.860822	-0.218524
O28	O	1.260718	-0.889052	-0.190132
N29	N	1.165213	-0.888145	-0.251932
C30	C	1.113596	-0.860862	-0.285338
O31	O	1.069720	-0.889116	-0.313755
C32	C	1.113569	-0.806258	-0.285333
C33	C	1.165155	-0.778938	-0.251920
C34	C	1.268352	-0.778897	-0.185107
C35	C	1.268319	-0.724296	-0.185100
C36	C	1.216704	-0.697017	-0.218502
C37	C	1.165122	-0.724337	-0.251912
C38	C	1.061957	-0.778976	-0.318742
C39	C	1.061935	-0.724369	-0.318734
C40	C	1.113521	-0.697048	-0.285321
C41	C	1.113475	-0.642457	-0.285307
N42	N	1.165063	-0.615133	-0.251900
C43	C	1.216678	-0.642413	-0.218498
C44	C	1.113657	-0.975532	-0.285346
C45	C	1.113679	-1.030135	-0.285349
C46	C	1.216885	-1.030091	-0.218535
C47	C	1.216858	-0.975488	-0.218531
C48	C	1.165245	-0.948209	-0.251939
C49	C	1.216605	-0.527748	-0.218484
C50	C	1.216566	-0.473143	-0.218478
C51	C	1.113363	-0.473191	-0.285293
C52	C	1.113399	-0.527792	-0.285297
C53	C	1.165027	-0.555069	-0.251891
O54	O	1.069583	-0.614193	-0.313687
O55	O	1.260554	-0.614152	-0.190091
C56	C	1.375380	-0.251914	-0.251912
C57	C	1.465001	-0.251918	-0.251918
C58	C	1.165097	-0.251897	-0.388270
C59	C	1.165108	-0.251893	-0.446384
C60	C	1.165229	-0.115533	-0.251933
C61	C	1.165297	-0.057419	-0.251948
C62	C	1.216783	-0.218356	-0.806765
C63	C	1.216793	-0.218341	-0.861370
O64	O	1.260663	-0.189888	-0.889622
N65	N	1.165197	-0.251771	-0.888667
C66	C	1.113582	-0.285213	-0.861357
O67	O	1.069697	-0.313646	-0.889589
C68	C	1.113569	-0.285225	-0.806753
C69	C	1.165174	-0.251797	-0.779459
C70	C	1.268383	-0.184930	-0.779471
C71	C	1.268373	-0.184945	-0.724871
C72	C	1.216764	-0.218386	-0.697564
C73	C	1.165165	-0.251812	-0.724859
C74	C	1.061951	-0.318664	-0.779444
C75	C	1.061941	-0.318672	-0.724837
C76	C	1.113546	-0.285244	-0.697543
C77	C	1.113546	-0.285268	-0.642952
N78	N	1.165142	-0.251839	-0.615655
C79	C	1.216751	-0.218398	-0.642961
C80	C	1.113613	-0.285186	-0.976028
C81	C	1.113630	-0.285178	-1.030630
C82	C	1.216840	-0.218305	-1.030639
C83	C	1.216826	-0.218316	-0.976036
C84	C	1.165209	-0.251756	-0.948730
C85	C	1.216728	-0.218432	-0.528296
C86	C	1.216717	-0.218452	-0.473690
C87	C	1.113505	-0.285323	-0.473686
C88	C	1.113519	-0.285305	-0.528287
C89	C	1.165133	-0.251856	-0.555590
O90	O	1.069696	-0.313706	-0.614665
O91	O	1.260622	-0.189965	-0.614722
C92	C	1.165092	-0.251878	-0.116055
C93	C	1.165237	-0.251734	-0.057941
H94	H	1.258647	-0.549951	-0.191283
H95	H	1.071489	-0.312552	-0.451443
H96	H	1.310327	-0.702055	-0.157893
H97	H	1.019906	-0.702161	-0.345941
C98	C	1.102328	-0.914111	-0.355671
C99	C	1.056910	-0.945550	-0.322066
H100	H	1.067295	-0.895607	-0.378342
H101	H	1.133036	-0.890023	-0.335776
H102	H	1.137447	-0.935386	-0.375690
H103	H	1.021794	-0.924275	-0.302044
H104	H	1.026188	-0.969641	-0.341963
H105	H	1.019928	-0.345885	-0.801658
C106	C	1.370405	-0.118840	-0.773981
C107	C	1.325123	-0.148170	-0.809480
H108	H	1.405443	-0.096149	-0.792506
H109	H	1.335290	-0.098844	-0.752688
H110	H	1.401202	-0.141636	-0.752680
H111	H	1.294321	-0.125374	-0.830779
H112	H	1.360243	-0.168167	-0.830782
H113	H	1.019947	-0.801211	-0.345948
C114	C	1.011386	-0.522347	-0.351341
C115	C	1.056696	-0.557826	-0.322025
H116	H	0.976389	-0.540888	-0.374021
H117	H	0.980551	-0.501088	-0.328539
H118	H	1.046492	-0.501011	-0.371353
H119	H	1.021591	-0.579160	-0.302010
H120	H	1.087534	-0.579094	-0.344830
C121	C	1.325300	-0.914017	-0.211321
C122	C	1.273565	-0.945458	-0.181805
H123	H	1.360306	-0.895479	-0.188647
H124	H	1.356123	-0.935290	-0.234117
H125	H	1.294552	-0.889953	-0.231211
H126	H	1.304313	-0.969525	-0.161918
H127	H	1.242739	-0.924184	-0.159000
C128	C	1.067511	-0.389502	-0.314947
C129	C	1.056634	-0.443198	-0.322010
H130	H	1.032495	-0.370986	-0.337620
H131	H	1.055736	-0.380582	-0.279814
H132	H	1.121679	-0.380523	-0.322626
H133	H	1.002467	-0.452178	-0.314328
H134	H	1.068404	-0.452122	-0.357151
C135	C	1.318735	-0.152346	-0.479193
C136	C	1.273441	-0.181703	-0.443689
H137	H	1.353748	-0.129657	-0.460671
H138	H	1.349553	-0.175121	-0.500489
H139	H	1.283620	-0.132343	-0.500489
H140	H	1.308556	-0.201709	-0.422395
H141	H	1.242621	-0.158924	-0.422384
H142	H	1.258846	-0.191095	-0.953816
C143	C	0.959934	-0.384780	-0.730317
C144	C	1.005215	-0.355442	-0.694824
H145	H	0.924923	-0.407484	-0.711788
H146	H	0.929116	-0.361994	-0.751608
H147	H	0.995058	-0.404767	-0.751621
H148	H	0.970091	-0.335452	-0.673523
H149	H	1.036035	-0.378231	-0.673525
H150	H	1.258861	-0.191074	-1.052882
H151	H	1.258915	-1.052312	-0.191339
H152	H	1.071617	-0.312404	-1.052848
C153	C	1.102317	-0.355535	-0.914617
C154	C	1.056883	-0.321953	-0.946013
H155	H	1.067292	-0.378230	-0.896087
H156	H	1.137425	-0.375526	-0.935919
H157	H	1.133036	-0.335623	-0.890545
H158	H	1.026167	-0.341865	-0.970088
H159	H	1.021761	-0.301960	-0.924709
C160	C	1.318589	-0.478593	-0.152437
C161	C	1.273276	-0.443113	-0.181750
H162	H	1.353602	-0.460054	-0.129766
H163	H	1.283491	-0.499922	-0.132420
H164	H	1.349415	-0.499859	-0.175245
H165	H	1.242446	-0.421849	-0.158941
H166	H	1.308378	-0.421775	-0.201767
C167	C	1.370349	-0.773355	-0.119061
C168	C	1.325088	-0.808877	-0.148383
H169	H	1.405370	-0.791861	-0.096384
H170	H	1.401155	-0.752032	-0.141860
H171	H	1.335213	-0.752086	-0.099047
H172	H	1.360224	-0.830143	-0.168400
H173	H	1.294279	-0.830209	-0.125582
C174	C	1.011664	-1.024679	-0.351389
C175	C	1.056969	-1.060162	-0.322074
H176	H	0.976660	-1.043217	-0.374067
H177	H	0.980837	-1.003416	-0.328586
H178	H	1.046773	-1.003347	-0.371403
H179	H	1.021861	-1.081492	-0.302058
H180	H	1.087799	-1.081434	-0.344880
H181	H	1.258755	-0.191193	-0.550520
H182	H	1.071506	-0.312530	-0.550511
C183	C	1.279615	-0.114612	-0.663495
C184	C	1.325078	-0.148181	-0.694880
H185	H	1.314621	-0.091911	-0.644983
H186	H	1.244504	-0.094627	-0.684803
H187	H	1.248898	-0.134534	-0.639407
H188	H	1.355792	-0.128259	-0.718970
H189	H	1.360204	-0.168168	-0.673570
