data_functionalizedCrystal
_audit_creation_method	'MofGen! by Chris Wilmer'
_symmetry_space_group_name_H-M	'P1'
_symmetry_Int_Tables_number	1
_symmetry_cell_setting	triclinic
loop_
_symmetry_equiv_pos_as_xyz
  x,y,z
_cell_length_a	14.044220
_cell_length_b	15.500227
_cell_length_c	14.044220
_cell_angle_alpha	93.086249
_cell_angle_beta	86.811122
_cell_angle_gamma	93.097991
loop_
_atom_site_label
_atom_site_type_symbol
_atom_site_fract_x
_atom_site_fract_y
_atom_site_fract_z
O1	O	1.281229	0.071855	-0.226116
O2	O	1.004559	0.071877	-0.217809
O3	O	1.138741	0.071858	-0.083627
O4	O	1.147047	0.071874	-0.360298
O5	O	1.130595	-0.072030	-0.091735
O6	O	0.996413	-0.072011	-0.225917
O7	O	1.273084	-0.072032	-0.234223
Cu8	Cu	1.134005	-0.085160	-0.230810
Cu9	Cu	1.143638	0.085004	-0.221222
O10	O	1.138902	-0.072013	-0.368405
C11	C	0.964865	-0.000064	-0.218227
C12	C	0.858722	-0.000056	-0.207382
N13	N	1.127236	-0.204844	-0.237554
C14	C	0.664383	-0.000074	-0.187557
C15	C	0.613254	-0.000073	-0.264471
C16	C	0.505117	-0.000084	-0.253440
C17	C	0.772530	-0.000064	-0.198586
C18	C	1.184118	-0.250128	-0.180721
C19	C	1.179008	-0.340700	-0.185831
C20	C	1.117022	-0.385986	-0.247779
C21	C	1.060135	-0.340695	-0.304614
C22	C	1.065240	-0.250125	-0.299499
C23	C	1.098631	-0.659450	-0.266191
C24	C	1.093532	-0.750027	-0.271304
C25	C	1.212405	-0.750026	-0.152519
C26	C	1.217508	-0.659454	-0.147413
C27	C	1.160617	-0.614171	-0.204245
C28	C	1.111800	-0.478565	-0.253006
C29	C	1.165835	-0.521593	-0.199013
C30	C	1.312778	-0.000089	-0.233805
C31	C	1.418921	-0.000092	-0.244650
C32	C	1.131032	-0.000086	-0.052059
C33	C	1.120188	-0.000086	0.054084
N34	N	1.150413	0.204688	-0.214471
C35	C	1.146610	-0.000068	-0.399973
C36	C	1.157455	-0.000062	-0.506116
C37	C	1.100362	-0.000072	0.248422
C38	C	1.177276	-0.000076	0.299552
C39	C	1.166245	-0.000068	0.407688
C40	C	1.111392	-0.000080	0.140276
H41	H	0.650693	-0.000065	-0.338604
H42	H	1.251413	-0.000023	0.262116
H43	H	1.026235	-0.000064	0.285859
H44	H	0.626946	-0.000084	-0.113430
O45	O	1.250970	-0.201285	-0.113901
H46	H	1.289656	-0.247994	-0.075233
O47	O	1.240376	-0.389547	-0.124552
H48	H	1.284351	-0.342841	-0.080632
H49	H	1.267982	-0.622584	-0.096970
H50	H	1.258722	-0.786904	-0.106249
H51	H	1.043053	-0.786895	-0.321754
H52	H	1.052309	-0.622588	-0.312467
O53	O	1.232676	-0.472743	-0.132192
H54	H	1.307154	-0.490104	-0.151663
H55	H	1.018920	-0.213255	-0.345777
O56	O	0.993280	-0.389532	-0.371437
H57	H	0.999294	-0.460120	-0.365456
H58	H	1.061332	-0.515444	-0.303447
