data_functionalizedCrystal
_audit_creation_method	'MofGen! by Chris Wilmer'
_symmetry_space_group_name_H-M	'P1'
_symmetry_Int_Tables_number	1
_symmetry_cell_setting	triclinic
loop_
_symmetry_equiv_pos_as_xyz
  x,y,z
_cell_length_a	16.956995
_cell_length_b	17.038272
_cell_length_c	16.053802
_cell_angle_alpha	92.751609
_cell_angle_beta	87.607939
_cell_angle_gamma	83.583014
loop_
_atom_site_label
_atom_site_type_symbol
_atom_site_fract_x
_atom_site_fract_y
_atom_site_fract_z
O1	O	1.063355	0.028766	-0.069487
O2	O	1.563355	0.528766	0.430513
O3	O	0.833051	0.056094	-0.069477
O4	O	1.333051	0.556094	0.430523
O5	O	0.946834	-0.071297	-0.069475
O6	O	1.446834	0.428703	0.430525
O7	O	0.949572	0.156157	-0.069489
O8	O	1.449572	0.656157	0.430511
O9	O	0.940569	-0.064312	0.069384
O10	O	1.440569	0.435688	0.569384
O11	O	0.826787	0.063079	0.069382
O12	O	1.326787	0.563079	0.569382
O13	O	1.057090	0.035751	0.069372
O14	O	1.557090	0.535751	0.569372
Zn15	Zn	0.940944	0.050524	0.091424
Zn16	Zn	1.440944	0.550524	0.591424
Zn17	Zn	0.949198	0.041321	-0.091529
Zn18	Zn	1.449198	0.541321	0.408471
O19	O	0.943308	0.163142	0.069370
O20	O	1.443308	0.663142	0.569370
C21	C	0.800306	0.060986	-0.000046
C22	C	1.300306	0.560986	0.499954
C23	C	0.712067	0.065146	-0.000042
C24	C	1.212067	0.565146	0.499958
C25	C	0.214880	0.096266	-0.000074
C26	C	0.714880	0.596266	0.499926
C27	C	0.297789	0.092351	-0.000074
C28	C	0.797789	0.592351	0.499926
C29	C	0.343892	0.018868	-0.000063
C30	C	0.843892	0.518868	0.499937
C31	C	0.307082	-0.050704	-0.000062
C32	C	0.807082	0.449296	0.499938
C33	C	0.224174	-0.046789	-0.000069
C34	C	0.724174	0.453211	0.499931
C35	C	0.592349	-0.000511	-0.000047
C36	C	1.092349	0.499489	0.499953
C37	C	0.675262	-0.004421	-0.000038
C38	C	1.175262	0.495579	0.499962
C39	C	0.665964	0.138635	-0.000051
C40	C	1.165964	0.638635	0.499949
C41	C	0.583055	0.142544	-0.000053
C42	C	1.083055	0.642544	0.499947
C43	C	0.546252	0.072971	-0.000056
C44	C	1.046252	0.572971	0.499944
N45	N	0.428639	0.014865	-0.000059
N46	N	0.928639	0.514865	0.499941
N47	N	0.461507	0.076975	-0.000066
N48	N	0.961507	0.576975	0.499934
C49	C	0.941212	-0.096772	-0.000046
C50	C	1.441212	0.403228	0.499954
C51	C	0.933784	-0.183087	-0.000046
C52	C	1.433784	0.316913	0.499954
C53	C	1.001985	-0.237591	-0.000048
C54	C	1.501985	0.262409	0.499952
C55	C	0.995001	-0.318693	-0.000056
C56	C	1.495001	0.181307	0.499944
C57	C	0.919814	-0.345288	-0.000055
C58	C	1.419814	0.154712	0.499945
C59	C	0.851608	-0.290777	-0.000055
C60	C	1.351608	0.209223	0.499945
C61	C	0.858593	-0.209678	-0.000054
C62	C	1.358593	0.290322	0.499946
C63	C	0.895137	-0.589458	-0.000065
C64	C	1.395137	-0.089458	0.499935
C65	C	0.888157	-0.670564	-0.000064
C66	C	1.388157	-0.170564	0.499936
C67	C	1.031551	-0.698474	-0.000066
C68	C	1.531551	-0.198474	0.499934
C69	C	1.038530	-0.617372	-0.000060
C70	C	1.538530	-0.117372	0.499940
C71	C	0.970323	-0.562868	-0.000064
C72	C	1.470323	-0.062868	0.499936
C73	C	0.912673	-0.428186	-0.000060
C74	C	1.412673	0.071814	0.499940
C75	C	0.977465	-0.479972	-0.000065
C76	C	1.477465	0.020028	0.499935
C77	C	1.089836	0.030859	-0.000061
C78	C	1.589836	0.530859	0.499939
C79	C	1.178075	0.026698	-0.000071
C80	C	1.678075	0.526698	0.499929
C81	C	0.948930	0.188617	-0.000061
C82	C	1.448930	0.688617	0.499939
C83	C	0.956359	0.274932	-0.000067
C84	C	1.456359	0.774932	0.499933
N85	N	0.935316	0.056804	0.216284
N86	N	1.435316	0.556804	0.716284
N87	N	0.954831	0.035035	-0.216389
N88	N	1.454831	0.535035	0.283611
C89	C	0.983751	0.002615	0.259979
C90	C	1.483751	0.502615	0.759979
C91	C	0.979823	0.007015	0.347385
C92	C	1.479823	0.507015	0.847385
C93	C	0.927463	0.065607	0.391096
C94	C	1.427463	0.565607	0.891096
C95	C	0.879023	0.119798	0.347395
C96	C	1.379023	0.619798	0.847395
C97	C	0.882948	0.115394	0.259990
C98	C	1.382948	0.615394	0.759990
C99	C	0.910316	0.084822	0.652505
C100	C	1.410316	0.584822	1.152505
C101	C	0.906396	0.089223	0.739917
C102	C	1.406396	0.589223	1.239917
C103	C	1.007196	-0.023562	0.739901
C104	C	1.507196	0.476438	1.239901
C105	C	1.011120	-0.027957	0.652494
C106	C	1.511120	0.472043	1.152494
C107	C	0.962677	0.026231	0.608801
C108	C	1.462677	0.526231	1.108801
N109	N	0.923448	0.070108	0.480440
N110	N	1.423448	0.570108	0.980440
N111	N	0.966688	0.021727	0.519459
N112	N	1.466688	0.521727	1.019459
H113	H	0.344626	-0.110536	-0.000058
H114	H	0.844626	0.389464	0.499942
H115	H	0.826927	-0.692213	-0.000050
H116	H	1.326927	-0.192213	0.499950
H117	H	0.839598	-0.545090	-0.000069
H118	H	1.339598	-0.045090	0.499931
N119	N	1.040221	-0.060578	0.212826
N120	N	1.540221	0.439422	0.712826
H121	H	1.096495	-0.054461	0.228015
H122	H	1.596495	0.445539	0.728015
H123	H	1.026579	-0.114445	0.228066
H124	H	1.526579	0.385555	0.728066
N125	N	1.068563	-0.377476	-0.000051
N126	N	1.568563	0.122524	0.499949
H127	H	1.066533	-0.409162	0.051422
H128	H	1.566533	0.090838	0.551422
H129	H	1.071148	-0.414280	-0.051562
H130	H	1.571148	0.085720	0.448438
H131	H	0.562394	-0.057162	-0.000047
H132	H	1.062394	0.442838	0.499953
H133	H	0.790389	-0.312438	-0.000060
H134	H	1.290389	0.187562	0.499940
N135	N	1.067600	-0.091151	0.605356
N136	N	1.567600	0.408849	1.105356
H137	H	1.106396	-0.065474	0.569083
H138	H	1.606396	0.434526	1.069083
H139	H	1.097632	-0.124787	0.646358
H140	H	1.597632	0.375213	1.146358
N141	N	0.858064	0.143269	0.605396
N142	N	1.358064	0.643269	1.105396
H143	H	0.870269	0.198699	0.620595
H144	H	1.370269	0.698699	1.120595
H145	H	0.868506	0.131527	0.543406
H146	H	1.368506	0.631527	1.043406
N147	N	0.705658	0.213670	-0.000051
N148	N	1.205658	0.713670	0.499949
H149	H	0.765175	0.200043	-0.000046
H150	H	1.265175	0.700043	0.499954
H151	H	0.691464	0.242994	-0.051534
H152	H	1.191464	0.742994	0.448466
H153	H	0.863756	0.136939	0.775502
H154	H	1.363756	0.636939	1.275502
N155	N	0.785039	-0.150879	-0.000048
N156	N	1.285039	0.349121	0.499952
H157	H	0.754800	-0.161473	-0.051521
H158	H	1.254800	0.338527	0.448479
H159	H	0.750215	-0.156327	0.051463
H160	H	1.250215	0.343673	0.551463
H161	H	1.099754	-0.595725	-0.000060
H162	H	1.599754	-0.095725	0.499940
H163	H	0.836386	0.167503	0.382989
H164	H	1.336386	0.667503	0.882989
N165	N	0.830711	0.173846	0.212861
N166	N	1.330711	0.673846	0.712861
H167	H	0.841141	0.162164	0.150858
H168	H	1.341141	0.662164	0.650858
H169	H	0.773096	0.169229	0.228159
H170	H	1.273096	0.669229	0.728159
N171	N	1.105113	-0.757258	-0.000060
N172	N	1.605113	-0.257258	0.499940
H173	H	1.089283	-0.812670	-0.000060
H174	H	1.589283	-0.312670	0.499940
H175	H	1.139966	-0.751763	-0.051537
H176	H	1.639966	-0.251763	0.448463
H177	H	1.019262	-0.037110	0.382961
H178	H	1.519262	0.462890	0.882961
N179	N	0.165148	0.175517	-0.000087
N180	N	0.665148	0.675517	0.499913
H181	H	0.128215	0.182917	0.051387
H182	H	0.628215	0.682917	0.551387
H183	H	0.201093	0.218951	-0.000122
H184	H	0.701093	0.718951	0.499878
N185	N	1.059442	-0.082005	0.787025
N186	N	1.559442	0.417995	1.287025
H187	H	1.049013	-0.070327	0.849029
H188	H	1.549013	0.429673	1.349029
H189	H	1.047213	-0.137411	0.771760
H190	H	1.547213	0.362589	1.271760
H191	H	0.327752	0.149000	-0.000084
H192	H	0.827752	0.649000	0.499916
N193	N	0.724991	-0.083680	-0.000025
N194	N	1.224991	0.416320	0.499975
H195	H	0.689097	-0.127161	-0.000030
H196	H	1.189097	0.372839	0.499970
H197	H	0.761924	-0.091007	-0.051497
H198	H	1.261924	0.408993	0.448503
N199	N	0.831578	-0.456868	-0.000052
N200	N	1.331578	0.043132	0.499948
H201	H	0.827807	-0.492480	-0.051527
H202	H	1.327807	0.007520	0.448473
H203	H	0.823217	-0.487273	0.051457
H204	H	1.323217	0.012727	0.551457
N205	N	0.533326	0.221805	0.000046
N206	N	1.033326	0.721805	0.500046
H207	H	0.569222	0.265285	0.000079
H208	H	1.069222	0.765285	0.500079
H209	H	0.501004	0.224029	-0.051397
H210	H	1.001004	0.724029	0.448603
N211	N	0.184473	-0.121822	-0.000069
N212	N	0.684473	0.378178	0.499931
H213	H	0.226258	-0.168967	-0.000060
H214	H	0.726258	0.331033	0.499940
H215	H	0.147946	-0.120723	0.051404
H216	H	0.647946	0.379277	0.551404
H217	H	1.063210	-0.215945	-0.000043
H218	H	1.563210	0.284055	0.499957
H219	H	1.038682	-0.458315	-0.000084
H220	H	1.538682	0.041685	0.499916
