data_functionalizedCrystal
_audit_creation_method	'MofGen! by Chris Wilmer'
_symmetry_space_group_name_H-M	'P1'
_symmetry_Int_Tables_number	1
_symmetry_cell_setting	triclinic
loop_
_symmetry_equiv_pos_as_xyz
  x,y,z
_cell_length_a	14.560438
_cell_length_b	18.426585
_cell_length_c	14.560438
_cell_angle_alpha	89.999322
_cell_angle_beta	60.005799
_cell_angle_gamma	60.000820
loop_
_atom_site_label
_atom_site_type_symbol
_atom_site_fract_x
_atom_site_fract_y
_atom_site_fract_z
Zr1	Zr	1.005231	0.699142	-0.120401
O2	O	1.196812	0.583272	-0.267018
O3	O	0.813647	0.734659	-0.075475
O4	O	1.005235	0.734665	-0.267051
O5	O	1.005221	0.583266	0.075699
O6	O	1.005242	0.854090	-0.267055
O7	O	1.005224	0.583266	-0.075442
O8	O	0.662526	0.854080	0.075640
O9	O	1.347938	0.583277	-0.266996
O10	O	0.892454	0.838937	-0.056293
O11	O	0.892447	0.749811	0.056504
O12	O	1.118018	0.749818	-0.169052
O13	O	1.118011	0.660692	-0.056255
Zr14	Zr	1.005237	0.889613	0.120645
Zr15	Zr	1.005241	0.889613	-0.120407
Zr16	Zr	1.005227	0.699143	0.120651
Zr17	Zr	1.246259	0.699150	-0.120366
Zr18	Zr	0.764209	0.889605	0.120610
O19	O	1.196821	0.854097	0.075718
O20	O	1.196827	0.854097	-0.267027
O21	O	1.196806	0.583272	0.075727
O22	O	0.813656	1.005483	0.267262
O23	O	0.813662	1.005483	-0.075483
O24	O	0.813641	0.734659	0.267270
O25	O	1.005247	1.005489	-0.075455
O26	O	1.005233	0.854091	0.267295
O27	O	1.005226	0.734665	0.267298
O28	O	1.005244	1.005489	0.075685
O29	O	1.347946	0.734675	-0.267001
O30	O	0.662522	0.854080	0.267244
O31	O	0.662531	1.005479	0.267240
O32	O	0.662534	1.005479	0.075635
O33	O	1.347934	0.583277	-0.075392
O34	O	1.347942	0.734676	-0.075396
O35	O	0.892450	0.838937	0.169296
O36	O	0.892457	0.928063	0.056498
O37	O	1.118021	0.838944	-0.056260
O38	O	1.118014	0.749818	0.056537
C39	C	0.703745	0.794368	0.000078
C40	C	0.601423	0.794365	0.000063
C41	C	0.636547	0.728577	-0.083157
C42	C	0.540358	0.728592	-0.083101
C43	C	0.373921	0.860185	0.083405
C44	C	0.470109	0.860173	0.083343
C45	C	0.732638	0.652601	-0.179285
C46	C	0.636449	0.652615	-0.179229
C47	C	1.005221	0.556128	0.000129
C48	C	1.005217	0.475268	0.000132
C49	C	1.005256	0.179154	0.000112
C50	C	1.005251	0.261540	0.000115
C51	C	1.005237	0.327208	0.000121
C52	C	1.005231	0.409600	0.000126
C53	C	1.306723	0.794387	0.000166
C54	C	1.409045	0.794390	0.000181
C55	C	1.005239	0.794377	-0.301398
C56	C	1.005241	0.794377	-0.403731
C57	C	1.005247	1.032627	0.000114
C58	C	1.005251	1.113487	0.000112
C59	C	1.122981	0.747855	-0.510666
C60	C	1.122974	0.747857	-0.606815
C61	C	0.887478	0.840907	-0.489079
C62	C	0.887486	0.840909	-0.392933
C63	C	1.258943	0.694130	-0.578640
C64	C	1.258936	0.694132	-0.674789
C65	C	1.005229	0.794378	0.301641
C66	C	1.005227	0.794378	0.403974
C67	C	0.703758	1.032618	0.000070
C68	C	0.601440	1.113474	0.000052
C69	C	0.703740	0.794368	0.301597
C70	C	0.601416	0.794365	0.403915
C71	C	0.703753	1.032618	0.301589
C72	C	0.601433	1.113475	0.403905
C73	C	1.306715	0.556137	-0.301346
C74	C	1.409035	0.475281	-0.403661
C75	C	1.306710	0.556138	0.000174
C76	C	1.409028	0.475281	0.000191
C77	C	1.306728	0.794387	-0.301353
C78	C	1.409052	0.794390	-0.403671
C79	C	0.553389	1.104922	-0.058842
C80	C	0.457263	1.180888	-0.058881
C81	C	0.409184	1.265405	-0.000019
C82	C	0.457245	1.273956	0.058878
C83	C	0.553375	1.197990	0.058910
C84	C	0.553386	1.197977	0.393074
C85	C	0.457259	1.273957	0.489201
C86	C	0.409174	1.265434	0.596158
C87	C	0.457230	1.180923	0.606986
C88	C	0.553362	1.104944	0.510860
C89	C	1.457094	0.390779	-0.392830
C90	C	1.553251	0.314798	-0.488957
C91	C	1.601341	0.323322	-0.595914
C92	C	1.553278	0.407833	-0.606743
C93	C	1.457129	0.483811	-0.510617
C94	C	1.457090	0.483833	0.059076
C95	C	1.553242	0.407867	0.059088
C96	C	1.601324	0.323350	0.000222
C97	C	1.553259	0.314800	-0.058670
C98	C	1.457115	0.390765	-0.058688
C99	C	0.553340	0.840888	0.510860
C100	C	0.457201	0.840878	0.606995
C101	C	0.457217	0.747821	0.489225
C102	C	0.553361	0.747827	0.393093
C103	C	0.553326	0.894617	0.578855
C104	C	0.457187	0.894607	0.674990
H105	H	0.636417	0.665889	-0.255687
C106	C	0.605774	1.207163	0.276913
C107	C	0.739554	1.166269	0.218226
C108	C	0.787828	1.174733	0.111225
H109	H	0.563494	1.268346	0.284142
H110	H	0.590071	1.179442	0.236900
H111	H	0.755248	1.193992	0.258229
H112	H	0.781869	1.105083	0.210967
H113	H	0.772124	1.147012	0.071213
H114	H	0.745539	1.235918	0.118466
H115	H	0.878604	1.146981	0.071389
H116	H	1.592422	0.245976	-0.106597
H117	H	0.592514	0.709933	0.306016
C118	C	0.231284	0.931526	0.173762
C119	C	0.154560	0.917446	0.156020
C120	C	0.023158	0.983141	0.239245
H121	H	0.212659	0.988365	0.170369
H122	H	0.212811	0.928790	0.245650
H123	H	0.173025	0.920191	0.084150
H124	H	0.173144	0.860620	0.159424
H125	H	0.004685	0.980405	0.311134
H126	H	0.004547	1.039976	0.235846
H127	H	-0.028915	0.973592	0.227226
C128	C	0.404816	1.365799	0.122770
C129	C	0.310317	1.430485	0.110155
C130	C	0.261970	1.515102	0.169015
H131	H	0.473694	1.372608	0.093781
H132	H	0.367219	1.372514	0.200254
H133	H	0.347915	1.423772	0.032686
H134	H	0.241416	1.423705	0.139150
H135	H	0.224373	1.521818	0.246500
H136	H	0.330856	1.521902	0.140021
H137	H	0.197839	1.559002	0.160473
H138	H	1.679610	0.261502	0.000246
C139	C	0.405231	1.171493	0.723018
C140	C	0.467900	1.081228	0.711946
C141	C	0.420040	1.072510	0.818812
H142	H	0.314473	1.199134	0.763052
H143	H	0.421037	1.199158	0.762980
H144	H	0.452084	1.053575	0.672001
H145	H	0.558656	1.053569	0.671931
H146	H	0.435847	1.100175	0.858774
H147	H	0.329283	1.100155	0.858838
H148	H	0.462562	1.011266	0.811314
H149	H	0.418141	1.342763	0.480364
H150	H	0.592470	1.036142	0.519695
H151	H	1.592445	0.414762	-0.693838
H152	H	0.330897	1.327308	0.674420
H153	H	1.679631	0.261448	-0.674177
C154	C	0.759605	0.891292	-0.276865
C155	C	0.688576	0.857248	-0.264731
C156	C	0.570765	0.903633	-0.157820
H157	H	0.711079	0.952507	-0.268332
H158	H	0.776400	0.884618	-0.221102
H159	H	0.671778	0.863930	-0.320478
H160	H	0.737063	0.796038	-0.273242
H161	H	0.587561	0.896960	-0.102057
H162	H	0.522251	0.964847	-0.149296
H163	H	0.522564	0.880536	-0.149569
H164	H	0.592486	1.204966	0.106875
C165	C	1.328317	0.734173	-0.578610
C166	C	1.263934	0.821518	-0.578604
C167	C	1.327784	0.858446	-0.578569
H168	H	1.415295	0.699915	-0.643828
H169	H	1.328302	0.734246	-0.513353
H170	H	1.263963	0.821440	-0.643854
H171	H	1.176960	0.855798	-0.513391
H172	H	1.327768	0.858518	-0.513312
H173	H	1.414760	0.824181	-0.643789
H174	H	1.284103	0.917715	-0.578555
H175	H	1.417944	0.383822	-0.305750
H176	H	1.417986	0.383789	-0.106636
C177	C	1.404932	0.575642	0.122799
C178	C	1.428286	0.621987	0.047658
C179	C	1.380255	0.706565	0.106320
H180	H	1.447284	0.569967	0.157868
H181	H	1.314140	0.607261	0.178487
H182	H	1.519060	0.590376	-0.008010
H183	H	1.385933	0.627687	0.012586
H184	H	1.289463	0.738183	0.162008
H185	H	1.422612	0.700880	0.141386
H186	H	1.396083	0.738023	0.055347
H187	H	0.441499	0.913751	0.151099
C188	C	1.605190	0.417348	0.123156
C189	C	1.542459	0.507626	0.174737
C190	C	1.590263	0.516396	0.233779
H191	H	1.695944	0.389732	0.072467
H192	H	1.589394	0.389686	0.178926
H193	H	1.558265	0.535277	0.118974
H194	H	1.451707	0.535261	0.225444
H195	H	1.574466	0.488734	0.289548
H196	H	1.681015	0.488776	0.183082
H197	H	1.547698	0.577649	0.268792
H198	H	1.301127	0.729581	-0.725707
H199	H	1.311129	0.622996	-0.726974
H200	H	0.418080	0.709930	0.480428
C201	C	0.816798	0.661280	-0.288742
C202	C	0.912888	0.661221	-0.288528
C203	C	0.990447	0.669205	-0.389342
H204	H	0.764450	0.715339	-0.295760
H205	H	0.856598	0.612662	-0.350260
H206	H	0.873090	0.709835	-0.227028
H207	H	0.965265	0.607168	-0.281528
H208	H	1.030246	0.620587	-0.450860
H209	H	0.938088	0.723264	-0.396352
H210	H	1.055659	0.669158	-0.389215
C211	C	0.337211	0.989449	0.744736
C212	C	0.310265	1.010761	0.851487
C213	C	0.199766	1.098120	0.915761
H214	H	0.265349	0.994695	0.752106
H215	H	0.352408	1.029009	0.708557
H216	H	0.295061	0.971212	0.887659
H217	H	0.382097	1.005535	0.844152
H218	H	0.214963	1.137681	0.879581
H219	H	0.127913	1.103358	0.923121
H220	H	0.181476	1.112594	0.988194
H221	H	0.592534	1.036111	-0.106789
C222	C	0.304758	1.347771	-0.000141
C223	C	0.272950	1.322180	-0.064294
C224	C	0.176743	1.398027	-0.064420
H225	H	0.336132	1.382204	-0.031691
H226	H	0.229684	1.382141	0.074850
H227	H	0.348009	1.287825	-0.139270
H228	H	0.241555	1.287758	-0.032760
H229	H	0.101669	1.432397	0.010570
H230	H	0.208127	1.432455	-0.095969
H231	H	0.155141	1.380674	-0.107939
C232	C	1.605198	0.223129	-0.476950
C233	C	1.542459	0.231937	-0.362705
C234	C	1.590261	0.147514	-0.351598
H235	H	1.695950	0.191480	-0.511888
H236	H	1.589406	0.191539	-0.511961
H237	H	1.558260	0.263513	-0.327709
H238	H	1.451708	0.263570	-0.327744
H239	H	1.574470	0.115924	-0.386609
H240	H	1.681013	0.115871	-0.386541
H241	H	1.547692	0.153478	-0.274084
C242	C	0.505169	0.986273	0.567019
C243	C	0.515784	0.983384	0.465860
C244	C	0.471420	1.067802	0.454922
H245	H	0.556137	1.004103	0.567001
H246	H	0.416888	1.027669	0.628234
H247	H	0.604050	0.942003	0.404661
H248	H	0.464814	0.965570	0.465855
H249	H	0.383139	1.109198	0.516137
H250	H	0.522393	1.085625	0.454908
H251	H	0.478605	1.065855	0.386291
H252	H	0.792307	0.592177	-0.162487
H253	H	0.647259	0.587733	-0.170917
H254	H	0.791607	0.878791	-0.480302
C255	C	1.314943	0.602475	-0.566800
C256	C	1.220755	0.605359	-0.465651
C257	C	1.272289	0.520943	-0.454710
H258	H	1.388444	0.584655	-0.566766
H259	H	1.340272	0.561074	-0.628023
H260	H	1.195444	0.646746	-0.404445
H261	H	1.147248	0.623164	-0.465662
H262	H	1.297618	0.479542	-0.515933
H263	H	1.345790	0.503130	-0.454680
H264	H	1.208387	0.522886	-0.386087
H265	H	0.493312	0.859165	0.725919
H266	H	0.418144	1.173909	-0.106841
H267	H	1.418001	0.552614	-0.519449
H268	H	0.643328	0.864739	0.578887
