data_functionalizedCrystal
_audit_creation_method	'MofGen! by Chris Wilmer'
_symmetry_space_group_name_H-M	'P1'
_symmetry_Int_Tables_number	1
_symmetry_cell_setting	triclinic
loop_
_symmetry_equiv_pos_as_xyz
  x,y,z
_cell_length_a	16.109318
_cell_length_b	15.186229
_cell_length_c	16.109301
_cell_angle_alpha	90.003755
_cell_angle_beta	83.465073
_cell_angle_gamma	89.999776
loop_
_atom_site_label
_atom_site_type_symbol
_atom_site_fract_x
_atom_site_fract_y
_atom_site_fract_z
O1	O	-1.103122	-0.073155	-0.106935
O2	O	-0.861062	-0.073173	-0.120219
O3	O	-0.988741	-0.073158	0.007454
O4	O	-0.975442	-0.073171	-0.234607
O5	O	-0.988733	0.073299	0.007456
O6	O	-0.861053	0.073284	-0.120217
O7	O	-1.103113	0.073302	-0.106933
Zn8	Zn	-0.982082	0.096546	-0.113575
Zn9	Zn	-0.982093	-0.096418	-0.113577
O10	O	-0.975434	0.073287	-0.234606
C11	C	-0.830083	0.000053	-0.119677
C12	C	-0.737788	0.000047	-0.118057
C13	C	-0.988198	0.000070	0.038430
C14	C	-0.986583	0.000069	0.130725
C15	C	-1.134092	0.000074	-0.107474
C16	C	-1.226387	0.000075	-0.109095
C17	C	-0.438719	-0.079772	-0.112823
C18	C	-0.525440	-0.079777	-0.114340
C19	C	-0.525450	0.079899	-0.114327
C20	C	-0.438731	0.079903	-0.112803
C21	C	-0.395367	0.000066	-0.112056
C22	C	-0.568808	0.000056	-0.115096
C23	C	-0.662835	0.000050	-0.116742
C24	C	-0.301335	0.000071	-0.110409
N25	N	-0.982080	0.228239	-0.113573
N26	N	-0.982101	-0.228110	-0.113573
C27	C	-1.038636	0.453969	-0.057058
C28	C	-1.038639	0.546158	-0.057056
C29	C	-0.925540	0.546154	-0.170090
C30	C	-0.925534	0.453966	-0.170087
C31	C	-0.982086	0.407876	-0.113572
C32	C	-0.982095	0.592253	-0.113573
C33	C	-0.982097	0.692209	-0.113571
C34	C	-0.982083	0.307913	-0.113573
C35	C	-0.975977	0.000057	-0.265581
C36	C	-0.977592	0.000052	-0.357877
C37	C	-1.057066	0.000059	0.439719
C38	C	-1.058591	0.000064	0.352999
C39	C	-0.907103	0.000065	0.333135
C40	C	-0.905579	0.000066	0.419854
C41	C	-0.980563	0.000058	0.473144
C42	C	-0.983612	0.000063	0.299705
C43	C	-0.985266	0.000068	0.205678
C44	C	-0.978909	0.000055	0.567176
H45	H	-0.560734	-0.144788	-0.114963
N46	N	-0.391945	-0.165876	-0.111999
H47	H	-0.349212	-0.169437	-0.162875
H48	H	-0.432625	-0.216404	-0.112681
N49	N	-1.141104	0.000070	0.316946
H50	H	-1.188371	0.000067	0.363867
H51	H	-1.145037	-0.054221	0.281393
H52	H	-0.879496	0.583690	-0.216104
N53	N	-0.864531	0.404243	-0.231038
H54	H	-0.828709	0.447428	-0.266843
H55	H	-0.896342	0.365983	-0.267803
N56	N	-0.572216	0.166008	-0.115144
H57	H	-0.614953	0.169568	-0.064271
H58	H	-0.601387	0.169511	-0.167319
H59	H	-1.084685	0.583685	-0.011036
H60	H	-1.118122	0.000053	0.483106
H61	H	-0.846055	0.000069	0.289736
H62	H	-0.843277	0.000069	0.447067
H63	H	-0.403433	0.144920	-0.112178
H64	H	-1.084684	0.416444	-0.011039
