data_functionalizedCrystal
_audit_creation_method	'MofGen! by Chris Wilmer'
_symmetry_space_group_name_H-M	'P1'
_symmetry_Int_Tables_number	1
_symmetry_cell_setting	triclinic
loop_
_symmetry_equiv_pos_as_xyz
  x,y,z
_cell_length_a	17.077404
_cell_length_b	19.077068
_cell_length_c	17.077396
_cell_angle_alpha	92.267122
_cell_angle_beta	89.980499
_cell_angle_gamma	92.327269
loop_
_atom_site_label
_atom_site_type_symbol
_atom_site_fract_x
_atom_site_fract_y
_atom_site_fract_z
Zn1	Zn	1.187475	-0.280197	-0.456376
Zn2	Zn	1.182097	-0.397901	-0.330375
Zn3	Zn	1.056205	-0.280222	-0.325125
Zn4	Zn	1.050892	-0.397859	-0.461596
O5	O	1.119167	-0.339045	-0.393368
O6	O	1.296608	-0.295818	-0.439674
O7	O	1.165371	-0.382318	-0.219833
O8	O	1.078093	-0.181727	-0.338154
O9	O	1.292657	-0.382294	-0.347101
O10	O	1.174536	-0.181709	-0.434583
O11	O	1.072878	-0.295860	-0.215976
O12	O	0.945654	-0.295819	-0.343216
O13	O	1.069036	-0.382223	-0.570750
O14	O	0.941750	-0.382247	-0.443481
O15	O	1.169383	-0.295777	-0.566914
O16	O	1.160218	-0.496386	-0.352163
O17	O	1.063822	-0.496356	-0.448571
C18	C	0.915220	-0.339032	-0.393346
C19	C	0.827970	-0.339043	-0.393356
C20	C	0.784964	-0.384114	-0.445486
C21	C	0.702984	-0.384116	-0.445499
C22	C	0.664010	-0.339050	-0.393376
C23	C	0.707021	-0.293974	-0.341243
C24	C	0.789000	-0.293969	-0.341235
C25	C	0.536151	-0.293988	-0.341263
C26	C	0.454166	-0.293993	-0.341270
C27	C	0.450134	-0.384134	-0.445526
C28	C	0.532113	-0.384130	-0.445518
C29	C	0.575119	-0.339055	-0.393384
C30	C	1.110881	-0.521909	-0.401521
C31	C	1.107408	-0.600139	-0.405035
C32	C	1.156004	-0.636884	-0.356533
C33	C	1.152742	-0.710389	-0.359843
C34	C	1.100880	-0.747148	-0.411651
C35	C	1.052283	-0.710398	-0.460158
C36	C	1.055549	-0.636894	-0.456852
C37	C	1.085729	-0.966982	-0.426921
C38	C	1.082465	-1.040491	-0.430222
C39	C	1.182926	-1.040478	-0.329907
C40	C	1.186184	-0.966973	-0.326602
C41	C	1.137590	-0.930229	-0.375112
N42	N	1.097543	-0.822282	-0.415033
N43	N	1.140931	-0.855096	-0.371733
C44	C	1.323911	-0.339058	-0.393391
C45	C	1.411160	-0.339064	-0.393400
C46	C	1.119217	-0.338993	-0.598110
C47	C	1.119238	-0.338971	-0.685359
C48	C	1.127507	-0.155467	-0.385201
C49	C	1.131061	-0.077237	-0.381720
C50	C	1.171491	-0.293955	-0.724353
C51	C	1.171501	-0.293931	-0.806332
C52	C	1.119262	-0.338928	-0.849316
C53	C	1.067004	-0.383946	-0.810317
C54	C	1.066990	-0.383965	-0.728339
C55	C	1.067038	-0.383904	-0.981185
C56	C	1.067052	-0.383885	-1.063169
C57	C	1.171549	-0.293870	-1.059179
C58	C	1.171535	-0.293889	-0.977201
C59	C	1.119277	-0.338908	-0.938207
C60	C	1.119165	-0.339046	-0.189420
C61	C	1.119305	-0.338869	-0.102163
H62	H	0.571164	-0.257277	-0.298816
H63	H	1.024468	-0.420581	-0.845321
H64	H	0.667972	-0.420818	-0.487948
H65	H	1.198232	-0.606960	-0.314342
H66	H	0.675282	-0.257277	-0.298808
O67	O	1.222313	-0.250343	-0.682570
C68	C	1.328673	-0.240893	-0.589574
C69	C	1.271178	-0.290367	-0.636859
H70	H	1.368184	-0.273231	-0.552593
H71	H	1.366077	-0.208724	-0.631493
H72	H	1.294279	-0.204086	-0.549586
H73	H	1.305509	-0.327217	-0.676850
H74	H	1.233774	-0.322486	-0.594896
O75	O	0.569851	-0.427930	-0.496222
C76	C	0.557204	-0.517368	-0.599599
C77	C	0.514368	-0.467790	-0.542230
H78	H	0.512365	-0.549619	-0.636800
H79	H	0.597042	-0.485132	-0.639313
H80	H	0.593928	-0.554094	-0.565110
H81	H	0.477602	-0.431055	-0.576655
H82	H	0.474578	-0.500070	-0.502516
O83	O	1.016262	-0.427489	-1.105001
C84	C	0.909827	-0.436897	-1.197914
C85	C	0.967320	-0.387441	-1.150601
H86	H	0.870232	-0.404537	-1.234780
H87	H	0.944143	-0.473689	-1.237993
H88	H	0.872507	-0.469082	-1.155943
H89	H	1.004654	-0.355209	-1.192513
H90	H	0.932956	-0.350694	-1.110512
H91	H	0.824015	-0.257264	-0.298789
H92	H	1.214097	-0.257212	-1.090932
H93	H	1.214077	-0.257253	-0.942205
O94	O	0.416253	-0.250301	-0.290588
C95	C	0.324002	-0.240669	-0.184283
C96	C	0.366908	-0.290238	-0.241606
H97	H	0.284085	-0.272937	-0.144678
H98	H	0.368769	-0.208443	-0.146966
H99	H	0.287348	-0.203919	-0.218812
H100	H	0.403561	-0.327030	-0.207140
H101	H	0.322101	-0.322414	-0.278924
H102	H	1.228414	-0.937045	-0.284416
O103	O	1.199976	-0.745974	-0.312646
C104	C	1.299991	-0.738204	-0.212827
C105	C	1.246528	-0.697817	-0.266221
H106	H	1.337654	-0.699287	-0.175291
H107	H	1.262482	-0.772652	-0.173248
H108	H	1.339458	-0.772581	-0.250460
H109	H	1.207051	-0.663402	-0.228650
H110	H	1.284084	-0.663413	-0.305804
O111	O	1.016260	-0.427713	-0.943430
C112	C	0.912617	-0.516996	-0.956034
C113	C	0.970080	-0.467421	-0.998891
H114	H	0.875255	-0.549103	-1.000854
H115	H	0.946958	-0.553850	-0.919331
H116	H	0.873061	-0.484694	-0.916178
H117	H	1.009650	-0.499666	-1.038787
H118	H	0.935691	-0.430565	-1.035544
H119	H	1.040242	-1.070418	-0.472424
O120	O	1.016262	-0.427630	-0.690333
C121	C	0.969960	-0.467581	-0.565808
C122	C	1.027443	-0.418087	-0.608748
H123	H	0.978991	-0.459894	-0.499840
H124	H	0.907212	-0.455212	-0.581307
H125	H	0.981159	-0.524324	-0.584498
H126	H	1.016315	-0.361328	-0.590082
H127	H	1.090172	-0.430517	-0.593248
O128	O	0.822697	-0.427915	-0.496194
C129	C	0.810035	-0.517347	-0.599576
C130	C	0.767207	-0.467769	-0.542200
H131	H	0.765190	-0.549592	-0.636775
H132	H	0.849871	-0.485111	-0.639292
H133	H	0.846758	-0.554077	-0.565093
H134	H	0.730442	-0.431029	-0.576619
H135	H	0.727418	-0.500048	-0.502484
H136	H	1.046160	-0.937071	-0.466418
O137	O	0.408244	-0.427851	-0.496146
C138	C	0.280162	-0.467837	-0.542338
C139	C	0.327510	-0.418280	-0.484990
H140	H	0.214880	-0.460127	-0.533327
H141	H	0.296810	-0.455551	-0.605124
H142	H	0.293751	-0.524565	-0.530982
H143	H	0.313946	-0.361536	-0.496274
H144	H	0.310856	-0.430627	-0.422222
O145	O	1.230248	-1.076092	-0.282828
C146	C	1.362805	-1.098528	-0.245895
C147	C	1.309297	-1.058142	-0.299246
H148	H	1.426728	-1.084042	-0.259162
H149	H	1.349765	-1.084112	-0.181925
H150	H	1.351529	-1.157375	-0.257140
H151	H	1.320543	-0.999287	-0.288071
H152	H	1.322348	-1.072617	-0.363199
O153	O	1.001924	-0.746212	-0.510416
C154	C	0.952397	-0.859452	-0.559998
C155	C	1.009455	-0.818983	-0.503033
H156	H	0.958478	-0.918294	-0.554060
H157	H	0.889730	-0.845106	-0.545508
H158	H	0.966783	-0.844908	-0.622644
H159	H	0.995141	-0.833505	-0.440368
H160	H	1.072105	-0.833332	-0.517591
H161	H	1.214052	-0.257276	-0.838078
H162	H	1.015978	-0.606976	-0.496348
