data_functionalizedCrystal
_audit_creation_method	'MofGen! by Chris Wilmer'
_symmetry_space_group_name_H-M	'P1'
_symmetry_Int_Tables_number	1
_symmetry_cell_setting	triclinic
loop_
_symmetry_equiv_pos_as_xyz
  x,y,z
_cell_length_a	19.077713
_cell_length_b	16.625547
_cell_length_c	19.076919
_cell_angle_alpha	92.276735
_cell_angle_beta	94.658599
_cell_angle_gamma	87.732996
loop_
_atom_site_label
_atom_site_type_symbol
_atom_site_fract_x
_atom_site_fract_y
_atom_site_fract_z
Zn1	Zn	-0.296667	1.227387	-0.409952
Zn2	Zn	0.203333	1.727387	0.090048
Zn3	Zn	-0.409812	1.237695	-0.296806
Zn4	Zn	0.090188	1.737695	0.203194
Zn5	Zn	-0.291951	1.097767	-0.292073
Zn6	Zn	0.208049	1.597767	0.207927
Zn7	Zn	-0.414508	1.097707	-0.414641
Zn8	Zn	0.085492	1.597707	0.085359
O9	O	-0.353234	1.165139	-0.353368
O10	O	0.146766	1.665139	0.146632
O11	O	-0.311684	1.341587	-0.394962
O12	O	0.188316	1.841587	0.105038
O13	O	-0.390239	1.223472	-0.197531
O14	O	0.109761	1.723472	0.302469
O15	O	-0.193934	1.110672	-0.303767
O16	O	0.306066	1.610672	0.196233
O17	O	-0.394811	1.349160	-0.311833
O18	O	0.105189	1.849160	0.188167
O19	O	-0.197399	1.205904	-0.390372
O20	O	0.302601	1.705904	0.109628
O21	O	-0.303646	1.120667	-0.194054
O22	O	0.196354	1.620667	0.305946
O23	O	-0.308200	0.984927	-0.308314
O24	O	0.191800	1.484927	0.191686
O25	O	-0.402815	1.110571	-0.512666
O26	O	0.097185	1.610571	-0.012666
O27	O	-0.398242	0.984883	-0.398363
O28	O	0.101758	1.484883	0.101637
O29	O	-0.316237	1.205846	-0.509221
O30	O	0.183763	1.705846	-0.009221
O31	O	-0.509077	1.223414	-0.316380
O32	O	-0.009077	1.723414	0.183620
O33	O	-0.512527	1.120566	-0.402952
O34	O	-0.012527	1.620566	0.097048
C35	C	-0.353219	0.955649	-0.353334
C36	C	0.146781	1.455649	0.146666
C37	C	-0.353230	0.866028	-0.353337
C38	C	0.146770	1.366028	0.146663
C39	C	-0.353232	0.793246	-0.353346
C40	C	0.146768	1.293246	0.146654
C41	C	-0.353237	0.701937	-0.353364
C42	C	0.146763	1.201937	0.146636
C43	C	-0.353244	0.629160	-0.353382
C44	C	0.146756	1.129160	0.146618
C45	C	-0.353249	0.537845	-0.353399
C46	C	0.146751	1.037845	0.146601
C47	C	-0.536380	1.173123	-0.360704
C48	C	-0.036380	1.673123	0.139296
C49	C	-0.614731	1.176612	-0.363866
C50	C	-0.114731	1.676612	0.136134
C51	C	-1.055954	1.201630	-0.386523
C52	C	-0.555954	1.701630	0.113477
C53	C	-0.982335	1.198344	-0.383545
C54	C	-0.482335	1.698344	0.116455
C55	C	-0.943786	1.147161	-0.336936
C56	C	-0.443786	1.647161	0.163064
C57	C	-0.978861	1.099267	-0.293296
C58	C	-0.478861	1.599267	0.206704
C59	C	-1.052479	1.102558	-0.296270
C60	C	-0.552479	1.602558	0.203730
C61	C	-0.723424	1.132010	-0.323200
C62	C	-0.223424	1.632010	0.176800
C63	C	-0.649801	1.128720	-0.320230
C64	C	-0.149801	1.628720	0.179770
C65	C	-0.653280	1.227798	-0.410479
C66	C	-0.153280	1.727798	0.089521
C67	C	-0.726900	1.231081	-0.413452
C68	C	-0.226900	1.731081	0.086548
C69	C	-0.761968	1.183191	-0.369810
C70	C	-0.261968	1.683191	0.130190
N71	N	-0.868535	1.143798	-0.333893
N72	N	-0.368535	1.643798	0.166107
N73	N	-0.837217	1.186558	-0.372849
N74	N	-0.337217	1.686558	0.127151
C75	C	-0.169374	1.157145	-0.346019
C76	C	0.330626	1.657145	0.153981
C77	C	-0.091024	1.153738	-0.342887
C78	C	0.408976	1.653738	0.157113
C79	C	-0.360576	1.157052	-0.537237
C80	C	0.139424	1.657052	-0.037237
C81	C	-0.363705	1.153606	-0.615591
C82	C	0.136295	1.653606	-0.115591
C83	C	-0.353250	1.375447	-0.353402
C84	C	0.146750	1.875447	0.146598
C85	C	-0.353257	1.465068	-0.353417
C86	C	0.146743	1.965068	0.146583
C87	C	-0.320100	1.201589	-0.650609
C88	C	0.179900	1.701589	-0.150609
C89	C	-0.323037	1.198341	-0.724231
C90	C	0.176963	1.698341	-0.224231
C91	C	-0.369582	1.147114	-0.762833
C92	C	0.130418	1.647114	-0.262833
C93	C	-0.413189	1.099125	-0.727809
C94	C	0.086811	1.599125	-0.227809
C95	C	-0.410248	1.102370	-0.654189
C96	C	0.089752	1.602370	-0.154189
C97	C	-0.383208	1.132088	-0.983207
C98	C	0.116792	1.632088	-0.483207
C99	C	-0.386148	1.128849	-1.056832
C100	C	0.113852	1.628849	-0.556832
C101	C	-0.295995	1.228064	-1.053249
C102	C	0.204005	1.728064	-0.553249
C103	C	-0.293061	1.231308	-0.979627
C104	C	0.206939	1.731308	-0.479627
C105	C	-0.336664	1.183316	-0.944610
C106	C	0.163336	1.683316	-0.444610
N107	N	-0.372587	1.143795	-0.838086
N108	N	0.127413	1.643795	-0.338086
N109	N	-0.333656	1.186632	-0.869358
N110	N	0.166344	1.686632	-0.369358
C111	C	-0.345870	1.173239	-0.170213
C112	C	0.154130	1.673239	0.329787
C113	C	-0.342543	1.176832	-0.091851
C114	C	0.157457	1.676832	0.408149
H115	H	-1.087336	1.243300	-0.424484
H116	H	-0.587336	1.743300	0.075516
H117	H	-0.255160	1.273025	-0.948203
H118	H	0.244840	1.773025	-0.448203
H119	H	-0.282200	1.243307	-0.619185
H120	H	0.217800	1.743307	-0.119185
Br121	Br	-0.442384	1.066955	-0.935692
Br122	Br	0.057616	1.566955	-0.435692
Br123	Br	-1.100074	1.037566	-0.237043
Br124	Br	-0.600074	1.537566	0.262957
H125	H	-0.445748	1.063288	-0.625677
H126	H	0.054252	1.563288	-0.125677
Br127	Br	-0.263890	1.263503	-0.771755
Br128	Br	0.236110	1.763503	-0.271755
Br129	Br	-0.597485	1.059260	-0.256965
Br130	Br	-0.097485	1.559260	0.243035
H131	H	-0.953781	1.237341	-0.419076
H132	H	-0.453781	1.737341	0.080924
Br133	Br	-0.236820	1.293191	-1.100776
Br134	Br	0.263180	1.793191	-0.600776
Br135	Br	-0.449318	1.059319	-1.109221
Br136	Br	0.050682	1.559319	-0.609221
Br137	Br	-0.476354	1.029596	-0.780197
Br138	Br	0.023646	1.529596	-0.280197
H139	H	-0.758281	1.272770	-0.451398
H140	H	-0.258281	1.772770	0.048602
H141	H	-0.751968	1.093014	-0.287663
H142	H	-0.251968	1.593014	0.212337
Br143	Br	-0.926545	1.029809	-0.230035
Br144	Br	-0.426545	1.529809	0.269965
Br145	Br	-0.605684	1.292788	-0.469706
Br146	Br	-0.105684	1.792788	0.030294
