data_functionalizedCrystal
_audit_creation_method	'MofGen! by Chris Wilmer'
_symmetry_space_group_name_H-M	'P1'
_symmetry_Int_Tables_number	1
_symmetry_cell_setting	triclinic
loop_
_symmetry_equiv_pos_as_xyz
  x,y,z
_cell_length_a	15.944551
_cell_length_b	15.944493
_cell_length_c	12.996460
_cell_angle_alpha	89.994981
_cell_angle_beta	89.992903
_cell_angle_gamma	83.486891
loop_
_atom_site_label
_atom_site_type_symbol
_atom_site_fract_x
_atom_site_fract_y
_atom_site_fract_z
O1	O	0.108102	1.114556	-0.085555
O2	O	0.608102	1.614556	0.414445
O3	O	0.121509	0.869999	-0.085561
O4	O	0.621509	1.369999	0.414439
O5	O	-0.007471	0.998956	-0.085549
O6	O	0.492529	1.498956	0.414451
O7	O	0.237081	0.985599	-0.085567
O8	O	0.737081	1.485599	0.414433
O9	O	-0.007478	0.998942	0.085585
O10	O	0.492522	1.498942	0.585585
O11	O	0.121502	0.869986	0.085573
O12	O	0.621502	1.369986	0.585573
O13	O	0.108095	1.114542	0.085578
O14	O	0.608095	1.614542	0.585578
Cu15	Cu	0.114797	0.992263	0.101202
Cu16	Cu	0.614797	1.492263	0.601202
Cu17	Cu	0.114806	0.992279	-0.101184
Cu18	Cu	0.614806	1.492279	0.398816
O19	O	0.237074	0.985586	0.085566
O20	O	0.737074	1.485586	0.585566
C21	C	0.120957	0.838698	0.000006
C22	C	0.620957	1.338698	0.500006
C23	C	0.119314	0.745449	0.000004
C24	C	0.619314	1.245449	0.500004
C25	C	0.195235	0.509689	-0.000003
C26	C	0.695235	1.009689	0.499997
C27	C	0.154290	0.459124	0.084383
C28	C	0.654290	0.959124	0.584383
C29	C	0.116270	0.574728	0.000006
C30	C	0.616270	1.074728	0.500006
C31	C	0.154279	0.459142	-0.084342
C32	C	0.654279	0.959142	0.415658
C33	C	0.113336	0.409819	0.000004
C34	C	0.613336	0.909819	0.500004
C35	C	0.075347	0.525391	0.084461
C36	C	0.575347	1.025391	0.584461
C37	C	0.075347	0.525413	-0.084339
C38	C	0.575347	1.025413	0.415661
C39	C	0.034345	0.474880	0.000067
C40	C	0.534345	0.974880	0.500067
C41	C	0.117963	0.669728	0.000008
C42	C	0.617963	1.169728	0.500008
C43	C	0.111637	0.314821	0.000009
C44	C	0.611637	0.814821	0.500009
C45	C	-0.038768	0.998395	0.000018
C46	C	0.461232	1.498395	0.500018
C47	C	-0.132014	0.996732	0.000019
C48	C	0.367986	1.496732	0.500019
C49	C	-0.346853	0.912826	0.000003
C50	C	0.153147	1.412826	0.500003
C51	C	-0.407882	0.951782	0.084383
C52	C	0.092118	1.451782	0.584383
C53	C	-0.302739	0.993725	0.000011
C54	C	0.197261	1.493725	0.500011
C55	C	-0.407859	0.951815	-0.084341
C56	C	0.092141	1.451815	0.415659
C57	C	-0.467651	0.990814	-0.000001
C58	C	0.032349	1.490814	0.499999
C59	C	-0.362540	1.032704	0.084461
C60	C	0.137460	1.532704	0.584461
C61	C	-0.362510	1.032725	-0.084340
C62	C	0.137490	1.532725	0.415660
C63	C	-0.423521	1.071741	0.000061
C64	C	0.076479	1.571741	0.500061
C65	C	-0.207737	0.995399	0.000019
C66	C	0.292263	1.495399	0.500019
C67	C	-0.562652	0.989146	-0.000002
C68	C	-0.062652	1.489146	0.499998
C69	C	0.268372	0.986147	-0.000003
C70	C	0.768372	1.486147	0.499997
C71	C	0.361617	0.987809	-0.000010
C72	C	0.861617	1.487809	0.499990
C73	C	0.108646	1.145844	0.000010
C74	C	0.608646	1.645844	0.500010
C75	C	0.110289	1.239092	0.000005
C76	C	0.610289	1.739092	0.500005
N77	N	0.114791	0.992258	0.243549
N78	N	0.614791	1.492258	0.743549
N79	N	0.114806	0.992290	-0.243531
N80	N	0.614806	1.492290	0.256469
C81	C	0.114807	0.992278	0.663363
C82	C	0.614807	1.492278	1.163363
C83	C	0.114805	0.992270	0.546558
C84	C	0.614805	1.492270	1.046558
C85	C	0.114800	0.992268	0.453460
C86	C	0.614800	1.492268	0.953460
C87	C	0.114797	0.992259	0.336647
C88	C	0.614797	1.492259	0.836647
H89	H	0.187646	0.430209	-0.155673
H90	H	0.687646	0.930209	0.344327
H91	H	-0.033726	0.459415	0.000121
H92	H	0.466274	0.959415	0.500121
O93	O	-0.335877	1.078068	-0.178813
O94	O	0.164123	1.578068	0.321187
H95	H	-0.266441	1.079440	-0.177554
H96	H	0.233559	1.579440	0.322446
H97	H	-0.342560	1.066887	0.155876
H98	H	0.157440	1.566887	0.655876
H99	H	-0.427925	0.917593	-0.155683
H100	H	0.072075	1.417593	0.344317
O101	O	0.031211	0.563564	0.179066
O102	O	0.531211	1.063564	0.679066
H103	H	0.063790	0.536333	0.248942
H104	H	0.563790	1.036333	0.748942
H105	H	0.042027	0.554364	-0.155678
H106	H	0.542027	1.054364	0.344322
H107	H	-0.456694	1.138950	0.000110
H108	H	0.043306	1.638950	0.500110
O109	O	-0.302702	0.823884	0.000105
O110	O	0.197298	1.323884	0.500105
H111	H	-0.320747	0.790497	0.070256
H112	H	0.179253	1.290497	0.570256
H113	H	0.263254	0.525313	0.000071
H114	H	0.763254	1.025313	0.500071
H115	H	0.187635	0.430181	0.155718
H116	H	0.687635	0.930181	0.655718
H117	H	-0.427986	0.917560	0.155718
H118	H	0.072014	1.417560	0.655718
