data_functionalizedCrystal
_audit_creation_method	'MofGen! by Chris Wilmer'
_symmetry_space_group_name_H-M	'P1'
_symmetry_Int_Tables_number	1
_symmetry_cell_setting	triclinic
loop_
_symmetry_equiv_pos_as_xyz
  x,y,z
_cell_length_a	10.723023
_cell_length_b	10.723024
_cell_length_c	9.198806
_cell_angle_alpha	90.002277
_cell_angle_beta	89.995873
_cell_angle_gamma	95.532291
loop_
_atom_site_label
_atom_site_type_symbol
_atom_site_fract_x
_atom_site_fract_y
_atom_site_fract_z
O1	O	-1.657188	0.175020	0.120895
O2	O	-1.157188	0.675020	0.620895
O3	O	-1.294036	0.191775	0.120896
O4	O	-0.794036	0.691775	0.620896
O5	O	-1.483989	0.001821	0.120890
O6	O	-0.983989	0.501821	0.620890
O7	O	-1.467235	0.364974	0.120901
O8	O	-0.967235	0.864974	0.620901
O9	O	-1.483974	0.001820	-0.120895
O10	O	-0.983974	0.501820	0.379105
O11	O	-1.294021	0.191773	-0.120889
O12	O	-0.794021	0.691773	0.379111
O13	O	-1.657173	0.175019	-0.120890
O14	O	-1.157173	0.675019	0.379110
Cu15	Cu	-1.475596	0.183396	-0.142967
Cu16	Cu	-0.975596	0.683396	0.357033
Cu17	Cu	-1.475613	0.183398	0.142972
Cu18	Cu	-0.975613	0.683398	0.642972
O19	O	-1.467220	0.364972	-0.120884
O20	O	-0.967220	0.864972	0.379116
C21	C	-1.247529	0.190555	0.000004
C22	C	-0.747529	0.690555	0.500004
C23	C	-1.108974	0.186908	0.000004
C24	C	-0.608974	0.686908	0.500004
C25	C	-1.482762	-0.044679	-0.000001
C26	C	-0.982762	0.455321	0.499999
C27	C	-1.479114	-0.183233	0.000004
C28	C	-0.979114	0.316767	0.500004
C29	C	-1.047194	0.185281	-0.125248
C30	C	-0.547194	0.685281	0.374752
C31	C	-0.903991	0.181511	-0.125250
C32	C	-0.403991	0.681511	0.374750
C33	C	-1.585402	-0.258216	0.000006
C34	C	-1.085402	0.241784	0.500006
C35	C	-1.581634	-0.401420	0.000011
C36	C	-1.081634	0.098580	0.500011
C37	C	-0.703680	0.176239	0.000002
C38	C	-0.203680	0.676239	0.500002
C39	C	-0.842235	0.179886	0.000002
C40	C	-0.342235	0.679886	0.500002
C41	C	-1.468447	0.411473	0.000010
C42	C	-0.968447	0.911473	0.500010
C43	C	-1.472095	0.550027	0.000014
C44	C	-0.972095	1.050027	0.500014
N45	N	-1.475592	0.183394	-0.344081
N46	N	-0.975592	0.683394	0.155919
C47	C	-1.548357	0.255755	-0.416277
C48	C	-1.048357	0.755755	0.083723
C49	C	-1.548376	0.255753	-0.583689
C50	C	-1.048376	0.755753	-0.083689
N51	N	-1.475627	0.183390	0.344086
N52	N	-0.975627	0.683390	0.844086
H53	H	-1.100321	0.186672	-0.232478
H54	H	-0.600321	0.686672	0.267522
H55	H	-1.055849	0.185506	0.107234
H56	H	-0.555849	0.685506	0.607234
F57	F	-1.629774	0.336727	-0.335075
F58	F	-1.129774	0.836727	0.164925
F59	F	-0.834551	0.179691	-0.265416
F60	F	-0.334551	0.679691	0.234584
H61	H	-0.895355	0.181292	0.107240
H62	H	-0.395355	0.681292	0.607240
F63	F	-1.707992	-0.203559	0.000014
F64	F	-1.207992	0.296441	0.500014
F65	F	-1.356525	-0.237890	0.000018
F66	F	-0.856525	0.262110	0.500018
H67	H	-1.610666	0.317711	-0.645776
H68	H	-1.110666	0.817711	-0.145776
H69	H	-1.672625	-0.465852	0.000006
H70	H	-1.172625	0.034148	0.500006
F71	F	-1.353154	-0.365766	0.000002
F72	F	-0.853154	0.134234	0.500002
H73	H	-1.413321	0.121442	-0.593836
H74	H	-0.913321	0.621442	-0.093836
H75	H	-1.413313	0.121439	-0.406211
H76	H	-0.913313	0.621439	0.093789
