data_functionalizedCrystal
_audit_creation_method	'MofGen! by Chris Wilmer'
_symmetry_space_group_name_H-M	'P1'
_symmetry_Int_Tables_number	1
_symmetry_cell_setting	triclinic
loop_
_symmetry_equiv_pos_as_xyz
  x,y,z
_cell_length_a	28.938199
_cell_length_b	28.937346
_cell_length_c	28.934044
_cell_angle_alpha	60.005004
_cell_angle_beta	60.009897
_cell_angle_gamma	59.994060
loop_
_atom_site_label
_atom_site_type_symbol
_atom_site_fract_x
_atom_site_fract_y
_atom_site_fract_z
O1	O	0.064043	-0.675186	0.564597
O2	O	0.024124	-0.525682	0.454913
O3	O	0.118795	-0.620275	0.454833
O4	O	-0.030629	-0.580593	0.564678
O5	O	0.150204	-0.588870	0.486157
O6	O	0.055533	-0.494276	0.486238
O7	O	0.095452	-0.643780	0.595921
Cu8	Cu	0.078360	-0.566161	0.543940
Cu9	Cu	0.041215	-0.603301	0.506895
O10	O	0.000780	-0.549187	0.596002
N11	N	0.104487	-0.540042	0.569998
N12	N	0.015094	-0.629425	0.480837
C13	C	0.165467	-0.323909	0.630915
C14	C	0.165587	-0.479117	0.786068
C15	C	0.165481	-0.479095	0.630906
C16	C	0.320696	-0.479083	0.630835
C17	C	0.182557	-0.375118	0.647971
C18	C	0.182626	-0.462038	0.734858
C19	C	0.269485	-0.462018	0.647928
C20	C	0.182566	-0.462025	0.647966
C21	C	0.143714	-0.258726	0.609206
C22	C	0.143738	-0.500820	0.609192
C23	C	0.204309	-0.440300	0.669680
C24	C	0.415481	-0.462740	0.580919
C25	C	0.474732	-0.482485	0.561145
C26	C	0.474757	-0.578356	0.597704
C27	C	0.415508	-0.558609	0.617479
C28	C	0.157989	-0.229089	0.550957
C29	C	0.138212	-0.169834	0.531225
C30	C	0.089890	-0.169857	0.627992
C31	C	0.109667	-0.229112	0.647725
C32	C	0.085482	-0.486515	0.623535
C33	C	0.065722	-0.506265	0.603789
C34	C	0.162467	-0.554625	0.555370
C35	C	0.182230	-0.534875	0.575110
C36	C	0.085661	-0.486557	0.880902
C37	C	0.065952	-0.506323	0.940155
C38	C	0.162734	-0.554693	0.940102
C39	C	0.182441	-0.534928	0.880847
C40	C	0.143904	-0.500859	0.851249
C41	C	0.385871	-0.500801	0.609083
C42	C	-0.110907	-0.668480	0.441278
C43	C	-0.024049	-0.668588	0.441475
C44	C	-0.045729	-0.690282	0.419668
C45	C	-0.062146	-0.785032	0.469507
C46	C	-0.042446	-0.844287	0.489286
C47	C	0.053426	-0.844399	0.452899
C48	C	0.033725	-0.785144	0.433120
C49	C	-0.140617	-0.682751	0.499509
C50	C	-0.199867	-0.662928	0.519152
C51	C	-0.199694	-0.614571	0.422330
C52	C	-0.140443	-0.634393	0.402687
C53	C	-0.038320	-0.610337	0.427144
C54	C	-0.018610	-0.590621	0.446974
C55	C	0.029642	-0.687402	0.495454
C56	C	0.009933	-0.707121	0.475630
C57	C	-0.038148	-0.610347	0.324832
C58	C	-0.018301	-0.590634	0.265579
C59	C	0.030035	-0.687421	0.265643
C60	C	0.010190	-0.707133	0.324897
C61	C	-0.023903	-0.668595	0.354491
C62	C	-0.024062	-0.755463	0.441426
N63	N	0.503527	-0.540005	0.569810
O64	O	0.684453	-0.545211	0.434650
O65	O	0.684643	-0.655237	0.584005
O66	O	0.684567	-0.654986	0.489282
O67	O	0.684529	-0.545462	0.529373
O68	O	0.590438	-0.623674	0.520735
O69	O	0.590513	-0.623924	0.615457
O70	O	0.590323	-0.513899	0.466102
Cu71	Cu	0.581823	-0.566053	0.543652
Cu72	Cu	0.693143	-0.603083	0.506456
O73	O	0.590399	-0.514149	0.560825
N74	N	0.771439	-0.629131	0.480292
N75	N	0.104456	-0.141061	0.570015
O76	O	-0.030629	0.039964	0.564688
O77	O	0.118732	0.039984	0.454661
O78	O	0.023980	0.039958	0.454946
O79	O	0.064123	0.039990	0.564403
O80	O	0.055392	-0.054179	0.486321
O81	O	0.150144	-0.054153	0.486036
O82	O	0.000784	-0.054173	0.596063
Cu83	Cu	0.078332	-0.062759	0.543914
Cu84	Cu	0.041183	0.048570	0.506810
O85	O	0.095535	-0.054147	0.595778
N86	N	0.015053	0.126872	0.480710
N87	N	0.104760	-0.540096	0.968910
O88	O	0.099447	-0.675167	1.149923
O89	O	-0.010552	-0.525757	1.149951
O90	O	-0.010297	-0.620493	1.149918
O91	O	0.099192	-0.580431	1.149956
O92	O	0.021064	-0.589100	1.055785
O93	O	0.020809	-0.494365	1.055818
O94	O	0.130808	-0.643774	1.055790
Cu95	Cu	0.078672	-0.566203	1.047209
Cu96	Cu	0.041584	-0.603328	1.158532
O97	O	0.130553	-0.549038	1.055823
N98	N	0.015495	-0.629442	1.236831
C99	C	0.036087	-0.491140	0.455465
C100	C	0.153325	-0.608283	0.455364
C101	C	0.083488	-0.678322	0.595370
C102	C	-0.033750	-0.561180	0.595470
C103	C	0.637601	-0.654732	0.618548
C104	C	0.637509	-0.654422	0.501245
C105	C	0.637362	-0.514403	0.431560
C106	C	0.637458	-0.514713	0.548862
C107	C	0.153215	-0.006966	0.455158
C108	C	0.035916	-0.007114	0.455550
C109	C	-0.033739	-0.007106	0.595527
C110	C	0.083600	-0.007076	0.595174
C111	C	-0.010020	-0.491238	1.102888
C112	C	-0.009698	-0.608550	1.102828
C113	C	0.130276	-0.678293	1.102853
C114	C	0.129961	-0.560974	1.102892
H115	H	0.018524	-0.494668	0.964293
O116	O	0.637519	-0.473735	0.559135
C117	C	0.686304	-0.493201	0.572402
H118	H	0.702601	-0.541450	0.588634
H119	H	0.675360	-0.476852	0.606461
H120	H	0.720401	-0.477043	0.532839
H121	H	0.196022	-0.006699	0.420530
H122	H	-0.076633	-0.007113	0.630069
O123	O	0.056759	-0.141022	0.665352
C124	C	0.004053	-0.106763	0.656869
H125	H	0.008786	-0.097881	0.611914
H126	H	-0.011118	-0.065097	0.663461
H127	H	-0.028126	-0.129608	0.688373
H128	H	0.027560	-0.448192	0.421017
O129	O	0.171549	-0.729444	1.102819
C130	C	0.220257	-0.729442	1.102845
H131	H	0.219581	-0.684039	1.085037
H132	H	0.259651	-0.754607	1.075510
H133	H	0.220926	-0.749678	1.148007
O134	O	0.025586	-0.007165	0.414600
C135	C	-0.030051	-0.007170	0.435229
H136	H	-0.044926	-0.024974	0.483440
H137	H	-0.030867	-0.034526	0.418021
H138	H	-0.059348	0.037984	0.420906
H139	H	0.092017	-0.721269	0.629819
O140	O	0.093955	-0.007101	0.636150
C141	C	0.149586	-0.007080	0.615516
H142	H	0.176347	-0.024894	0.579178
H143	H	0.168653	-0.034413	0.650954
H144	H	0.148744	0.038084	0.599731
H145	H	-0.044554	-0.448327	1.102896
H146	H	-0.044080	-0.617108	1.102779
H147	H	0.164358	-0.552401	1.102897
H148	H	0.054276	-0.458811	0.856808
O149	O	0.637566	-0.695928	0.669743
C150	C	0.588850	-0.711173	0.694812
H151	H	0.554736	-0.674833	0.676124
H152	H	0.572529	-0.720543	0.742442
H153	H	0.599892	-0.750468	0.686143
O154	O	-0.084971	-0.550992	0.636570
C155	C	-0.120150	-0.495382	0.616107
H156	H	-0.092896	-0.468503	0.579754
H157	H	-0.147261	-0.476430	0.651626
H158	H	-0.148737	-0.496244	0.600393
H159	H	0.194117	-0.582425	0.964198
H160	H	0.637300	-0.479859	0.388668
O161	O	0.239040	-0.548854	0.852130
C162	C	0.268825	-0.583170	0.890963
H163	H	0.240586	-0.575617	0.933209
H164	H	0.308359	-0.572056	0.873827
H165	H	0.281613	-0.629582	0.897253
O166	O	0.637500	-0.695401	0.490929
C167	C	0.637457	-0.674786	0.435299
H168	H	0.619594	-0.626574	0.420426
H169	H	0.610136	-0.692041	0.434499
H170	H	0.682604	-0.689072	0.405988
O171	O	0.095769	-0.257940	0.704300
C172	C	0.065975	-0.292255	0.718650
H173	H	0.045863	-0.274397	0.685290
H174	H	0.031497	-0.292968	0.761693
H175	H	0.096472	-0.337148	0.720573
H176	H	-0.223743	-0.586821	0.390905
O177	O	0.048014	-0.453417	0.656611
C178	C	-0.007641	-0.445034	0.665040
H179	H	-0.007557	-0.451649	0.629322
H180	H	-0.035778	-0.400097	0.665364
H181	H	-0.024591	-0.476578	0.707251
H182	H	0.193817	-0.582360	0.527624
O183	O	0.009146	-0.492474	0.617740
C184	C	-0.005145	-0.542268	0.647571
H185	H	0.033909	-0.579491	0.636859
H186	H	-0.039518	-0.536971	0.634980
H187	H	-0.021381	-0.550609	0.694996
H188	H	0.391402	-0.589605	0.640414
O189	O	0.238839	-0.548834	0.561139
C190	C	0.268575	-0.583110	0.526807
H191	H	0.240323	-0.604664	0.534385
H192	H	0.308142	-0.616626	0.537877
H193	H	0.281305	-0.555758	0.480399
H194	H	0.498841	-0.451490	0.538213
O195	O	0.503458	-0.634530	0.605924
C196	C	0.464618	-0.663890	0.635011
H197	H	0.422388	-0.638046	0.659304
H198	H	0.481765	-0.706620	0.665932
H199	H	0.458295	-0.670747	0.603318
H200	H	0.057785	-0.718806	0.241554
H201	H	0.185713	-0.253197	0.519589
O202	O	0.386753	-0.406561	0.572667
C203	C	0.401188	-0.375987	0.514164
H204	H	0.444202	-0.401875	0.490821
H205	H	0.403210	-0.334215	0.506335
H206	H	0.367825	-0.367148	0.498030
O207	O	0.152148	-0.141128	0.474621
C208	C	0.186429	-0.179973	0.444856
H209	H	0.208000	-0.222213	0.473098
H210	H	0.219927	-0.162838	0.405302
H211	H	0.159081	-0.186280	0.432099
O212	O	-0.032247	-0.534042	0.236801
C213	C	-0.091585	-0.509379	0.251187
H214	H	-0.110699	-0.543086	0.267430
H215	H	-0.102857	-0.474448	0.212179
H216	H	-0.109181	-0.490660	0.285583
O217	O	0.024060	-0.763737	0.353618
C218	C	0.058414	-0.793522	0.314790
H219	H	0.050932	-0.765263	0.272511
H220	H	0.047278	-0.833034	0.331880
H221	H	0.104809	-0.806352	0.308583
O222	O	-0.071346	-0.572830	0.393995
C223	C	-0.079706	-0.517188	0.385593
H224	H	-0.073151	-0.517301	0.421365
H225	H	-0.124615	-0.489013	0.385196
H226	H	-0.048113	-0.500258	0.343425
O227	O	-0.032363	-0.534050	0.433033
C228	C	0.017454	-0.519813	0.403293
H229	H	0.054634	-0.558900	0.414059
H230	H	0.012151	-0.485461	0.415919
H231	H	0.025862	-0.503565	0.355852
H232	H	-0.065911	-0.578960	0.348925
O233	O	0.062711	-0.724889	0.528562
C234	C	0.112430	-0.759186	0.498704
H235	H	0.104544	-0.759757	0.464161
H236	H	0.124864	-0.804120	0.529139
H237	H	0.148085	-0.741417	0.478668
O238	O	0.023770	-0.763716	0.489627
C239	C	0.003407	-0.788313	0.548967
H240	H	-0.002424	-0.760244	0.569749
H241	H	0.035117	-0.831925	0.562860
H242	H	-0.038939	-0.792659	0.562275
H243	H	0.064741	-0.761071	0.410254
H244	H	-0.073458	-0.868361	0.512142
O245	O	0.109582	-0.873148	0.444765
C246	C	0.138972	-0.834343	0.415749
H247	H	0.113180	-0.792089	0.391419
H248	H	0.181722	-0.851509	0.384869
H249	H	0.145781	-0.828052	0.447496
H250	H	-0.109200	-0.760870	0.476275
O251	O	0.204520	-0.618461	0.414229
C252	C	0.214634	-0.664258	0.401150
H253	H	0.188185	-0.691452	0.438579
H254	H	0.261424	-0.690914	0.391965
H255	H	0.202471	-0.647440	0.362330
O256	O	-0.111985	-0.715918	0.537048
C257	C	-0.126514	-0.765582	0.571273
H258	H	-0.169512	-0.757583	0.571767
H259	H	-0.128616	-0.778069	0.616236
H260	H	-0.093162	-0.801250	0.553493
O261	O	-0.228796	-0.676812	0.575708
C262	C	-0.263069	-0.706597	0.589942
H263	H	-0.271867	-0.695902	0.550841
H264	H	-0.304771	-0.693943	0.624247
H265	H	-0.240284	-0.754031	0.606247
H266	H	-0.116252	-0.622767	0.355267
