data_functionalizedCrystal
_audit_creation_method	'MofGen! by Chris Wilmer'
_symmetry_space_group_name_H-M	'P1'
_symmetry_Int_Tables_number	1
_symmetry_cell_setting	triclinic
loop_
_symmetry_equiv_pos_as_xyz
  x,y,z
_cell_length_a	13.897449
_cell_length_b	16.625545
_cell_length_c	13.897441
_cell_angle_alpha	89.968843
_cell_angle_beta	89.976606
_cell_angle_gamma	90.026384
loop_
_atom_site_label
_atom_site_type_symbol
_atom_site_fract_x
_atom_site_fract_y
_atom_site_fract_z
Zn1	Zn	1.474650	-0.320958	-0.545446
Zn2	Zn	1.974650	0.179042	-0.045446
Zn3	Zn	1.474522	-0.455808	-0.384146
Zn4	Zn	1.974522	0.044192	0.115854
Zn5	Zn	1.313339	-0.320995	-0.384157
Zn6	Zn	1.813339	0.179005	0.115843
Zn7	Zn	1.313299	-0.455754	-0.545391
Zn8	Zn	1.813299	0.044246	-0.045391
O9	O	1.393952	-0.388379	-0.464785
O10	O	1.893952	0.111621	0.035215
O11	O	1.609615	-0.338853	-0.524068
O12	O	2.109615	0.161147	-0.024068
O13	O	1.453104	-0.437963	-0.249165
O14	O	1.953104	0.062037	0.250835
O15	O	1.334808	-0.208158	-0.405580
O16	O	1.834808	0.291842	0.094420
O17	O	1.609520	-0.437927	-0.405561
O18	O	2.109520	0.062073	0.094439
O19	O	1.453322	-0.208131	-0.524078
O20	O	1.953322	0.291869	-0.024078
O21	O	1.334684	-0.338917	-0.249174
O22	O	1.834684	0.161083	0.250826
O23	O	1.178352	-0.338865	-0.405526
O24	O	1.678352	0.161135	0.094474
O25	O	1.334739	-0.437835	-0.680380
O26	O	1.834739	0.062165	-0.180380
O27	O	1.178322	-0.437871	-0.523984
O28	O	1.678322	0.062129	-0.023984
O29	O	1.453283	-0.338801	-0.680420
O30	O	1.953283	0.161199	-0.180420
O31	O	1.453065	-0.568634	-0.405508
O32	O	1.953065	-0.068634	0.094492
O33	O	1.334615	-0.568594	-0.523974
O34	O	1.834615	-0.068594	-0.023974
C35	C	1.143338	-0.388367	-0.464751
C36	C	1.643338	0.111633	0.035249
C37	C	1.036124	-0.388381	-0.464760
C38	C	1.536124	0.111619	0.035240
C39	C	0.949054	-0.388383	-0.464776
C40	C	1.449054	0.111617	0.035224
C41	C	0.839822	-0.388389	-0.464805
C42	C	1.339822	0.111611	0.035195
C43	C	1.393848	-0.597870	-0.464754
C44	C	1.893848	-0.097870	0.035246
C45	C	1.393891	-0.687491	-0.464774
C46	C	1.893891	-0.187491	0.035226
C47	C	1.393928	-0.760273	-0.464793
C48	C	1.893928	-0.260273	0.035207
C49	C	1.393985	-0.851582	-0.464814
C50	C	1.893985	-0.351582	0.035186
C51	C	1.394035	-0.924358	-0.464826
C52	C	1.894035	-0.424358	0.035174
C53	C	1.394090	-1.015673	-0.464846
C54	C	1.894090	-0.515673	0.035154
C55	C	1.645545	-0.388392	-0.464819
C56	C	2.145545	0.111608	0.035181
C57	C	1.752759	-0.388398	-0.464834
C58	C	2.252759	0.111602	0.035166
C59	C	1.394021	-0.388308	-0.716378
C60	C	1.894021	0.111692	-0.216378
C61	C	1.394050	-0.388277	-0.823592
C62	C	1.894050	0.111723	-0.323592
C63	C	1.394084	-0.178070	-0.464836
C64	C	1.894084	0.321930	0.035164
C65	C	1.394140	-0.088449	-0.464858
C66	C	1.894140	0.411551	0.035142
C67	C	1.394076	-0.388223	-1.019887
C68	C	1.894076	0.111777	-0.519887
C69	C	1.394059	-0.388255	-0.910655
C70	C	1.894059	0.111745	-0.410655
C71	C	1.393940	-0.388392	-0.214170
C72	C	1.893940	0.111608	0.285830
C73	C	1.394097	-0.388195	-0.106957
C74	C	1.894097	0.111805	0.393043
