data_functionalizedCrystal
_audit_creation_method	'MofGen! by Chris Wilmer'
_symmetry_space_group_name_H-M	'P1'
_symmetry_Int_Tables_number	1
_symmetry_cell_setting	triclinic
loop_
_symmetry_equiv_pos_as_xyz
  x,y,z
_cell_length_a	14.044220
_cell_length_b	13.101018
_cell_length_c	14.044220
_cell_angle_alpha	93.664400
_cell_angle_beta	86.811122
_cell_angle_gamma	93.664297
loop_
_atom_site_label
_atom_site_type_symbol
_atom_site_fract_x
_atom_site_fract_y
_atom_site_fract_z
O1	O	1.281975	0.085109	-0.225353
O2	O	1.005305	0.085135	-0.217046
O3	O	1.139486	0.085113	-0.082864
O4	O	1.147793	0.085132	-0.359534
O5	O	1.129848	-0.085316	-0.092500
O6	O	0.995666	-0.085294	-0.226681
O7	O	1.272336	-0.085319	-0.234988
Zn8	Zn	1.132471	-0.112366	-0.232365
Zn9	Zn	1.145170	0.112182	-0.219669
O10	O	1.138155	-0.085297	-0.369170
C11	C	0.964864	-0.000076	-0.218228
C12	C	0.858722	-0.000066	-0.207383
N13	N	1.123811	-0.265613	-0.241029
C14	C	0.664383	-0.000088	-0.187558
C15	C	0.613253	-0.000087	-0.264472
C16	C	0.505116	-0.000099	-0.253441
C17	C	0.772529	-0.000076	-0.198587
C18	C	1.165614	-0.525530	-0.199206
C19	C	1.112036	-0.474648	-0.252818
C20	C	1.118589	-0.358330	-0.246257
C21	C	1.159063	-0.641858	-0.205766
C22	C	1.312777	-0.000106	-0.233806
C23	C	1.418920	-0.000109	-0.244651
C24	C	1.131031	-0.000102	-0.052060
C25	C	1.120187	-0.000102	0.054083
N26	N	1.153837	0.265429	-0.210998
C27	C	1.146610	-0.000080	-0.399974
C28	C	1.157455	-0.000073	-0.506116
C29	C	1.100362	-0.000086	0.248421
C30	C	1.177276	-0.000090	0.299551
C31	C	1.166245	-0.000080	0.407688
C32	C	1.111391	-0.000095	0.140275
H33	H	0.650693	-0.000077	-0.338605
H34	H	1.026235	-0.000076	0.285859
H35	H	1.061246	-0.518444	-0.303645
F36	F	0.615449	-0.000098	-0.090666
H37	H	1.251413	-0.000028	0.262115
F38	F	1.232000	-0.468290	-0.132778
