data_functionalizedCrystal
_audit_creation_method	'MofGen! by Chris Wilmer'
_symmetry_space_group_name_H-M	'P1'
_symmetry_Int_Tables_number	1
_symmetry_cell_setting	triclinic
loop_
_symmetry_equiv_pos_as_xyz
  x,y,z
_cell_length_a	19.377372
_cell_length_b	23.196402
_cell_length_c	23.196401
_cell_angle_alpha	59.997774
_cell_angle_beta	90.006886
_cell_angle_gamma	72.117595
loop_
_atom_site_label
_atom_site_type_symbol
_atom_site_fract_x
_atom_site_fract_y
_atom_site_fract_z
Zr1	Zr	0.580616	0.802645	-0.161467
O2	O	0.484383	0.894471	-0.239296
O3	O	0.610107	0.691098	-0.137610
O4	O	0.610097	0.811377	-0.257884
O5	O	0.484412	0.774182	-0.024146
O6	O	0.709272	0.840697	-0.272545
O7	O	0.484394	0.774193	-0.119022
O8	O	0.709291	0.625541	-0.057397
O9	O	0.484393	0.989338	-0.239294
O10	O	0.696709	0.766164	-0.138374
O11	O	0.622709	0.744275	-0.056628
O12	O	0.622697	0.885887	-0.198235
O13	O	0.548697	0.863998	-0.116489
Zr14	Zr	0.738818	0.849390	-0.033533
Zr15	Zr	0.738788	0.849408	-0.184849
Zr16	Zr	0.580645	0.802628	-0.010151
Zr17	Zr	0.580632	0.953947	-0.161464
Zr18	Zr	0.738802	0.698088	-0.033536
O19	O	0.709326	0.960937	-0.057390
O20	O	0.709284	0.960962	-0.272542
O21	O	0.484425	0.894447	-0.024143
O22	O	0.835050	0.757564	0.044296
O23	O	0.835008	0.757589	-0.170857
O24	O	0.610149	0.691073	0.077542
O25	O	0.835021	0.877854	-0.170854
O26	O	0.709337	0.840659	0.062884
O27	O	0.610162	0.811338	0.077545
O28	O	0.835039	0.877843	-0.075978
O29	O	0.610119	1.026509	-0.257879
O30	O	0.709314	0.625527	0.062880
O31	O	0.835040	0.662697	0.044294
O32	O	0.835017	0.662711	-0.075982
O33	O	0.484416	0.989325	-0.119017
O34	O	0.610143	1.026495	-0.137603
O35	O	0.696736	0.766148	0.003236
O36	O	0.770736	0.788038	-0.078511
O37	O	0.696724	0.907761	-0.138371
O38	O	0.622724	0.885871	-0.056625
C39	C	0.659697	0.636762	-0.097504
C40	C	0.659690	0.572530	-0.097505
C41	C	0.461867	0.767524	-0.068252
C42	C	0.394718	0.747672	-0.058326
C43	C	0.714337	0.506249	-0.053319
C44	C	0.714342	0.445890	-0.053313
C45	C	0.659705	0.451819	-0.097506
C46	C	0.605049	0.518112	-0.141695
C47	C	0.605041	0.578467	-0.141695
C48	C	0.642681	0.391210	-0.158786
C49	C	0.642694	0.330854	-0.158787
C50	C	0.659725	0.265663	-0.097506
C51	C	0.676759	0.260830	-0.036221
C52	C	0.676752	0.321185	-0.036221
C53	C	0.659708	0.386377	-0.097510
C54	C	0.714381	0.133931	-0.053309
C55	C	0.714381	0.073572	-0.053302
C56	C	0.605091	0.145797	-0.141690
C57	C	0.605088	0.206153	-0.141691
C58	C	0.659737	0.200216	-0.097502
C59	C	-0.019287	0.994845	-0.181914
C60	C	-0.082373	0.976174	-0.172578
C61	C	-0.005101	0.851193	-0.110088
C62	C	0.057993	0.869853	-0.119416
C63	C	0.050893	0.941680	-0.155331
C64	C	0.128173	0.816688	-0.092832
C65	C	0.191262	0.835347	-0.102163
C66	C	0.184169	0.907171	-0.138077
C67	C	0.113981	0.960339	-0.164661
C68	C	0.135271	0.744861	-0.056922
C69	C	0.205452	0.691696	-0.030339
C70	C	0.268542	0.710355	-0.039665
C71	C	0.261449	0.782178	-0.075579
C72	C	0.338730	0.657186	-0.013081
C73	C	0.401818	0.675845	-0.022412
C74	C	0.324538	0.800837	-0.084910
C75	C	0.857567	0.884511	-0.126747
C76	C	0.924715	0.904363	-0.136674
C77	C	0.659680	0.826039	-0.286774
C78	C	0.659668	0.826047	-0.351011
C79	C	0.659737	1.015273	-0.097496
C80	C	0.659743	1.079505	-0.097494
C81	C	0.714306	0.842202	-0.389252
C82	C	0.714322	0.842190	-0.449601
C83	C	0.659689	0.826037	-0.471714
C84	C	0.605046	0.809876	-0.433463
C85	C	0.605035	0.809881	-0.373112
C86	C	0.593017	0.853819	-0.581238
C87	C	0.593027	0.853819	-0.641590
C88	C	0.659721	0.826017	-0.657855
C89	C	0.726410	0.798228	-0.613765
C90	C	0.726399	0.798233	-0.553414
C91	C	0.659695	0.826029	-0.537153
C92	C	0.714382	0.842160	-0.761532
C93	C	0.714399	0.842143	-0.821880
C94	C	0.605117	0.809835	-0.805745
C95	C	0.605106	0.809845	-0.745395
C96	C	0.659738	0.826011	-0.723294
C97	C	0.659753	0.825996	0.091774
C98	C	0.659766	0.825989	0.156012
C99	C	0.857547	0.695255	-0.126751
C100	C	0.924688	0.650875	-0.136679
C101	C	0.659733	0.636740	0.091770
C102	C	0.659739	0.572501	0.156006
C103	C	0.857583	0.695233	0.062522
C104	C	0.924737	0.650846	0.116832
C105	C	0.461850	0.956802	-0.257522
C106	C	0.394696	1.001189	-0.311832
C107	C	0.461887	0.956780	-0.068248
C108	C	0.394745	1.001160	-0.058321
C109	C	0.659700	1.015295	-0.286770
C110	C	0.659694	1.079534	-0.351006
C111	C	0.917577	0.618617	-0.172596
C112	C	0.980658	0.576924	-0.181937
C113	C	1.050849	0.567487	-0.155357
C114	C	1.057958	0.599751	-0.119439
C115	C	0.994878	0.641447	-0.110102
C116	C	0.698383	0.553752	0.217427
C117	C	0.698385	0.493400	0.277790
C118	C	0.659748	0.451796	0.276730
C119	C	0.621099	0.470550	0.215303
C120	C	0.621093	0.530904	0.154942
C121	C	0.994907	0.641430	0.099665
C122	C	1.058012	0.599734	0.150689
C123	C	1.050945	0.567451	0.218879
C124	C	0.980767	0.576871	0.236046
C125	C	0.917664	0.618571	0.185023
C126	C	0.324526	1.010613	-0.294665
C127	C	0.261422	1.052328	-0.345689
C128	C	0.268489	1.084614	-0.413879
C129	C	0.338666	1.075190	-0.431045
C130	C	0.401769	1.033480	-0.380022
C131	C	0.401856	1.033425	-0.022410
C132	C	0.338775	1.075134	-0.013085
C133	C	0.268584	1.084574	-0.039668
C134	C	0.261475	1.052306	-0.075583
C135	C	0.324555	1.010602	-0.084911
C136	C	0.698339	1.121121	-0.349925
C137	C	0.698349	1.181477	-0.410278
C138	C	0.659708	1.200247	-0.471711
C139	C	0.621062	1.158654	-0.472791
C140	C	0.621057	1.098296	-0.412439
H141	H	0.758836	0.501408	-0.017336
C142	C	0.972821	0.541432	-0.221442
N143	N	0.966916	0.514699	-0.251195
H144	H	0.458963	0.632553	-0.000753
C145	C	1.120232	0.521612	-0.165629
N146	N	1.172489	0.487055	-0.173364
H147	H	0.659717	1.249396	-0.520849
C148	C	0.840373	0.628992	-0.201845
N149	N	0.782224	0.636808	-0.223883
H150	H	0.975024	0.550580	0.291572
H151	H	0.758895	0.855295	-0.853015
H152	H	0.729846	0.587620	0.218303
H153	H	0.204317	1.059999	-0.097224
C154	C	0.740860	1.227222	-0.409074
N155	N	0.772879	1.261677	-0.408166
C156	C	0.316730	0.879851	-0.124412
N157	N	0.310851	0.939362	-0.154165
H158	H	0.344578	1.101401	0.016162
C159	C	0.578604	0.424774	0.214148
N160	N	0.546602	0.390291	0.213280
H161	H	1.115147	0.592069	0.136699
C162	C	0.578530	1.052563	-0.413638
N163	N	0.546495	1.018120	-0.414545
H164	H	0.589627	0.546161	0.104933
H165	H	0.560604	0.150626	-0.177672
C166	C	0.184234	1.062684	-0.326790
N167	N	0.126098	1.070483	-0.312554
H168	H	1.115116	0.592061	-0.097800
H169	H	0.459003	1.025743	-0.000757
H170	H	0.458903	1.025808	-0.394008
H171	H	0.217226	1.118534	-0.032067
H172	H	0.538702	0.876449	-0.567997
H173	H	0.318758	0.984324	-0.239145
H174	H	0.758843	0.391913	-0.017330
C175	C	0.519669	0.884381	-0.690080
N176	N	0.464413	0.907397	-0.726599
H177	H	0.860531	0.626229	0.199010
C178	C	0.740855	1.100484	-0.282355
N179	N	0.772884	1.084942	-0.231464
H180	H	0.318755	0.984330	-0.114150
C181	C	1.002699	0.676940	0.024659
N182	N	1.008574	0.703688	-0.031835
C183	C	1.120367	0.521576	0.274998
N184	N	1.172659	0.487021	0.317264
C185	C	0.695492	0.189121	0.031195
N186	N	0.709602	0.135109	0.081970
C187	C	0.578590	1.179291	-0.540379
N188	N	0.546609	1.194831	-0.591290
H189	H	0.344411	1.101483	-0.486571
C190	C	0.695482	0.315868	0.031191
N191	N	0.709586	0.311864	0.081968
C192	C	0.740912	0.472778	0.345351
N193	N	0.772945	0.457245	0.396236
C194	C	-0.027095	1.073859	-0.221417
N195	N	-0.032975	1.133370	-0.251169
C196	C	0.199066	1.130488	-0.469998
N197	N	0.146774	1.165036	-0.512264
H198	H	0.659759	0.402654	0.325885
H199	H	0.758876	0.129095	-0.017324
H200	H	1.000678	0.667708	-0.080852
H201	H	0.108198	1.018828	-0.193886
H202	H	0.000669	0.792711	-0.080848
C203	C	0.774508	0.000659	-0.004700
N204	N	0.819801	-0.054258	0.031905
H205	H	0.560537	0.632438	-0.177676
H206	H	0.560592	0.260125	-0.177677
H207	H	0.083898	0.729672	-0.049331
C208	C	0.623946	0.462919	-0.226205
N209	N	0.609835	0.516928	-0.276984
C210	C	0.544949	0.524633	-0.190308
N211	N	0.499679	0.529546	-0.226923
C212	C	0.623941	0.336181	-0.226200
N213	N	0.609808	0.340197	-0.276977
C214	C	0.774409	0.859975	-0.364940
N215	N	0.819681	0.873358	-0.346625
H216	H	0.235541	0.922361	-0.145675
H217	H	0.211222	0.633215	-0.001099
C218	C	0.774424	0.859973	-0.491677
N219	N	0.819691	0.873371	-0.523370
C220	C	0.346527	0.578179	0.026419
N221	N	0.352401	0.518670	0.056171
C222	C	0.799754	0.767657	-0.504914
N223	N	0.855005	0.744623	-0.468382
H224	H	-0.139519	1.019473	-0.194230
H225	H	0.780718	0.775589	-0.627005
H226	H	0.758869	0.855320	-0.743536
H227	H	0.560636	0.796679	-0.823747
H228	H	0.560564	0.796722	-0.451470
C229	C	0.544954	0.792146	-0.703365
N230	N	0.499631	0.778836	-0.671719
H231	H	0.560542	0.796725	-0.341975
