data_functionalizedCrystal
_audit_creation_method	'MofGen! by Chris Wilmer'
_symmetry_space_group_name_H-M	'P1'
_symmetry_Int_Tables_number	1
_symmetry_cell_setting	triclinic
loop_
_symmetry_equiv_pos_as_xyz
  x,y,z
_cell_length_a	15.711784
_cell_length_b	14.044190
_cell_length_c	14.750779
_cell_angle_alpha	76.178157
_cell_angle_beta	106.501624
_cell_angle_gamma	106.390289
loop_
_atom_site_label
_atom_site_type_symbol
_atom_site_fract_x
_atom_site_fract_y
_atom_site_fract_z
O1	O	1.170465	0.548628	-0.079921
O2	O	0.913085	0.474466	-0.079906
O3	O	1.037913	0.372218	-0.079895
O4	O	1.045637	0.650876	-0.079933
O5	O	1.073200	0.343318	0.079759
O6	O	0.948372	0.445566	0.079747
O7	O	1.205753	0.519729	0.079733
Zn8	Zn	1.082665	0.478059	0.105088
Zn9	Zn	1.036172	0.516135	-0.105262
O10	O	1.080925	0.621976	0.079721
C11	C	0.897591	0.447901	-0.000077
C12	C	0.798849	0.411790	-0.000071
C13	C	1.052174	0.321280	-0.000065
C14	C	1.042085	0.212553	-0.000056
C15	C	0.663420	0.275848	-0.000051
C16	C	0.756203	0.309789	-0.000057
C17	C	0.748720	0.479892	-0.000084
C18	C	0.655934	0.445966	-0.000083
C19	C	0.613292	0.343943	-0.000066
C20	C	0.605805	0.514061	-0.000098
C21	C	0.513028	0.480136	-0.000092
C22	C	0.470380	0.378117	-0.000071
C23	C	0.520515	0.310018	-0.000060
C24	C	0.648450	0.616082	-0.000108
C25	C	0.598321	0.684177	-0.000123
C26	C	0.505541	0.650254	-0.000123
C27	C	0.462893	0.548235	-0.000103
C28	C	0.455406	0.718353	-0.000135
C29	C	0.362629	0.684428	-0.000129
C30	C	0.370116	0.514310	-0.000097
C31	C	1.095196	-0.019306	-0.000096
C32	C	1.023644	0.013509	-0.000086
C33	C	1.033907	0.124268	-0.000069
C34	C	1.084934	-0.130075	-0.000113
C35	C	1.221247	0.546294	-0.000099
C36	C	1.319987	0.582405	-0.000111
C37	C	1.066663	0.672915	-0.000111
C38	C	1.076751	0.781642	-0.000126
N39	N	1.114402	0.452074	0.248647
N40	N	1.004442	0.542115	-0.248821
C41	C	0.915803	0.614642	0.600447
C42	C	0.938049	0.596443	0.700948
C43	C	1.048612	0.505960	0.700921
C44	C	1.026372	0.524148	0.600418
C45	C	0.959968	0.578490	0.550188
C46	C	1.070537	0.487996	0.550159
C47	C	1.048302	0.506187	0.449665
C48	C	0.981902	0.560530	0.399429
C49	C	0.937733	0.596681	0.449694
C50	C	1.136946	0.433659	0.600391
C51	C	1.181111	0.397507	0.550132
C52	C	1.158872	0.415692	0.449636
C53	C	1.092472	0.470035	0.399400
C54	C	1.203042	0.379541	0.399371
C55	C	1.180807	0.397732	0.298876
C56	C	1.070237	0.488226	0.298905
H57	H	0.335392	0.431235	-0.000093
H58	H	0.954679	-0.041579	-0.000087
C59	C	1.188360	0.055098	-0.000081
H60	H	1.231907	0.019948	-0.000093
H61	H	1.207623	0.085528	0.055601
H62	H	1.183026	0.105724	-0.055755
C63	C	0.368327	0.340792	-0.000064
H64	H	0.350115	0.270279	-0.000044
H65	H	0.333648	0.374605	-0.055741
H66	H	0.358265	0.354451	0.055615
C67	C	0.957439	0.580545	0.288887
H68	H	0.911572	0.618093	0.266172
H69	H	0.935457	0.518192	0.266158
H70	H	1.010201	0.617720	0.266134
H71	H	1.102682	0.461717	0.741829
C72	C	0.864686	0.656456	0.394435
H73	H	0.841566	0.675386	0.438759
H74	H	0.816348	0.615672	0.355244
H75	H	0.891092	0.715200	0.355222
H76	H	1.016157	0.532469	0.258007
C77	C	0.307481	0.759331	-0.000156
H78	H	0.346162	0.824952	-0.000179
H79	H	0.283435	0.739561	0.055518
H80	H	0.258830	0.759703	-0.055839
C81	C	1.254147	0.337727	0.605385
H82	H	1.277267	0.318805	0.561057
H83	H	1.227746	0.278992	0.644603
H84	H	1.302498	0.378514	0.644571
H85	H	0.861722	0.658885	0.559548
C86	C	1.276084	0.319769	0.454626
H87	H	1.299207	0.300848	0.410300
H88	H	1.249689	0.261034	0.493848
H89	H	1.324431	0.360564	0.493807
C90	C	0.889419	0.636156	0.756229
H91	H	0.846671	0.671102	0.711918
H92	H	0.933131	0.680700	0.795442
H93	H	0.858426	0.581140	0.795422
H94	H	1.155051	0.418855	0.682220
H95	H	0.633054	0.767245	-0.000133
C96	C	0.750503	0.653404	-0.000113
H97	H	0.768722	0.723914	-0.000112
H98	H	0.760571	0.639747	-0.055785
H99	H	0.785178	0.619585	0.055572
H100	H	0.797014	0.254331	-0.000049
H101	H	0.490141	0.801419	-0.000140
C102	C	1.229376	0.357960	0.243584
H103	H	1.206627	0.376584	0.176540
H104	H	1.218363	0.286627	0.260062
H105	H	1.293111	0.386152	0.260029
C106	C	0.473601	0.197795	-0.000049
H107	H	0.516742	0.162094	-0.000040
H108	H	0.425257	0.191108	-0.055720
H109	H	0.449873	0.170948	0.055637
H110	H	0.628697	0.192773	-0.000047
H111	H	0.783452	0.562959	-0.000095
