data_functionalizedCrystal
_audit_creation_method	'MofGen! by Chris Wilmer'
_symmetry_space_group_name_H-M	'P1'
_symmetry_Int_Tables_number	1
_symmetry_cell_setting	triclinic
loop_
_symmetry_equiv_pos_as_xyz
  x,y,z
_cell_length_a	11.792241
_cell_length_b	10.654541
_cell_length_c	9.130307
_cell_angle_alpha	89.996917
_cell_angle_beta	90.002681
_cell_angle_gamma	84.338672
loop_
_atom_site_label
_atom_site_type_symbol
_atom_site_fract_x
_atom_site_fract_y
_atom_site_fract_z
O1	O	1.507300	0.172134	-0.121656
O2	O	1.177000	0.189874	-0.121691
O3	O	1.349746	-0.001757	-0.121664
O4	O	1.334555	0.363765	-0.121683
O5	O	1.349740	-0.001759	0.121935
O6	O	1.176994	0.189872	0.121908
O7	O	1.507295	0.172132	0.121943
Cu8	Cu	1.342144	0.181002	0.144168
Cu9	Cu	1.342151	0.181004	-0.143916
O10	O	1.334549	0.363763	0.121916
C11	C	1.348628	-0.048553	0.000135
C12	C	1.345293	-0.187987	0.000132
C13	C	1.134704	0.188759	0.000105
C14	C	1.008682	0.185423	0.000092
C15	C	1.551857	-0.216542	0.000172
C16	C	1.653568	-0.296324	0.000195
C17	C	1.650427	-0.427333	0.000190
C18	C	1.545564	-0.478562	0.000158
C19	C	1.443854	-0.398780	0.000135
C20	C	1.447006	-0.267770	0.000144
C21	C	1.237292	-0.370225	0.000085
C22	C	1.240430	-0.239216	0.000100
C23	C	1.132429	-0.421454	0.000053
C24	C	1.030716	-0.341672	0.000040
C25	C	1.033861	-0.210655	0.000047
C26	C	1.138720	-0.159434	0.000077
C27	C	0.777956	0.179290	0.000134
C28	C	0.906349	0.182698	0.000111
C29	C	1.549591	0.173247	0.000144
C30	C	1.675612	0.176582	0.000147
C31	C	1.335667	0.410559	0.000114
C32	C	1.339002	0.549993	0.000107
N33	N	1.342148	0.180999	0.346791
N34	N	1.342156	0.180996	-0.346539
C35	C	1.495177	0.011360	0.346805
C36	C	1.571699	-0.073457	0.423478
C37	C	1.571711	-0.073458	0.576812
C38	C	1.495189	0.011365	0.653475
C39	C	1.418667	0.096181	0.576801
C40	C	1.418666	0.096175	0.423464
C41	C	1.265634	0.265813	0.576788
C42	C	1.265626	0.265822	0.423454
C43	C	1.189113	0.350635	0.653451
C44	C	1.112594	0.435459	0.576777
C45	C	1.112587	0.435457	0.423435
C46	C	1.189104	0.350638	0.346781
H47	H	1.554425	-0.109869	0.000196
O48	O	1.646038	-0.155672	0.348780
C49	C	1.629634	-0.137481	0.197002
H50	H	1.587914	-0.037977	0.176074
H51	H	1.572234	-0.209050	0.153437
C52	C	1.796855	-0.277554	0.144031
C53	C	1.745621	-0.155339	0.118327
H54	H	1.868399	-0.288575	0.095498
H55	H	1.807905	-0.289815	0.246287
H56	H	1.749010	-0.337182	0.107727
H57	H	1.793460	-0.095714	0.154647
H58	H	1.734582	-0.143069	0.016075
H59	H	1.129879	-0.528129	0.000040
O60	O	1.646145	-0.155900	0.651073
C61	C	1.713656	-0.230795	0.550538
H62	H	1.715344	-0.179300	0.441230
H63	H	1.676072	-0.324367	0.534239
C64	C	1.833817	-0.319017	0.744650
C65	C	1.835898	-0.255764	0.610399
H66	H	1.909221	-0.334425	0.781576
H67	H	1.788331	-0.268562	0.812383
H68	H	1.802492	-0.396987	0.731049
H69	H	1.867209	-0.177790	0.624005
H70	H	1.881392	-0.306206	0.542669
O71	O	1.188935	0.350765	0.802398
C72	C	1.105009	0.443837	0.853616
H73	H	1.037564	0.465225	0.765251
H74	H	1.146207	0.533397	0.880811
C75	C	1.131627	0.369359	1.100725
C76	C	1.048785	0.395621	0.992199
H77	H	1.096948	0.339621	1.186213
H78	H	1.188173	0.306658	1.066221
H79	H	1.165952	0.443999	1.123370
H80	H	1.014472	0.320978	0.969543
H81	H	0.992232	0.458308	1.026703
H82	H	1.495194	0.011348	0.778327
H83	H	1.738945	-0.254599	0.000233
H84	H	1.733248	-0.492293	0.000197
H85	H	1.543016	-0.585238	0.000136
H86	H	0.945345	-0.383393	0.000005
H87	H	1.495185	0.011362	0.221952
H88	H	0.951036	-0.145703	0.000022
H89	H	1.050291	0.504510	0.639206
H90	H	1.050269	0.504520	0.361015
H91	H	1.189109	0.350633	0.221928
H92	H	1.141291	-0.052761	0.000091
