data_functionalizedCrystal
_audit_creation_method	'MofGen! by Chris Wilmer'
_symmetry_space_group_name_H-M	'P1'
_symmetry_Int_Tables_number	1
_symmetry_cell_setting	triclinic
loop_
_symmetry_equiv_pos_as_xyz
  x,y,z
_cell_length_a	16.992694
_cell_length_b	12.996460
_cell_length_c	16.992695
_cell_angle_alpha	89.993670
_cell_angle_beta	89.331777
_cell_angle_gamma	89.999814
loop_
_atom_site_label
_atom_site_type_symbol
_atom_site_fract_x
_atom_site_fract_y
_atom_site_fract_z
O1	O	1.050852	0.085439	-0.166918
O2	O	1.550852	0.585439	0.333082
O3	O	0.822452	0.085469	-0.165087
O4	O	1.322452	0.585469	0.334913
O5	O	0.935736	0.085446	-0.051802
O6	O	1.435736	0.585446	0.448198
O7	O	0.937567	0.085462	-0.280203
O8	O	1.437567	0.585462	0.219797
O9	O	0.935723	-0.085688	-0.051795
O10	O	1.435723	0.414312	0.448205
O11	O	0.822439	-0.085665	-0.165079
O12	O	1.322439	0.414335	0.334921
O13	O	1.050839	-0.085695	-0.166911
O14	O	1.550839	0.414305	0.333089
Cu15	Cu	0.936638	-0.101306	-0.165994
Cu16	Cu	1.436638	0.398694	0.334006
Cu17	Cu	0.936653	0.101080	-0.166003
Cu18	Cu	1.436653	0.601080	0.333997
O19	O	0.937554	-0.085672	-0.280195
O20	O	1.437554	0.414328	0.219805
C21	C	0.793085	-0.000094	-0.162727
C22	C	1.293085	0.499906	0.337273
C23	C	0.705600	-0.000083	-0.155699
C24	C	1.205600	0.499917	0.344301
N25	N	0.936632	-0.243653	-0.165988
N26	N	1.436632	0.256347	0.334012
C27	C	0.659610	-0.000079	-0.223517
C28	C	1.159610	0.499921	0.276483
C29	C	0.577409	-0.000093	-0.216908
C30	C	1.077409	0.499907	0.283092
C31	C	0.541201	-0.000105	-0.142480
C32	C	1.041201	0.499895	0.357520
C33	C	0.587198	-0.000112	-0.074657
C34	C	1.087198	0.499888	0.425343
C35	C	0.669397	-0.000104	-0.081267
C36	C	1.169397	0.499896	0.418733
C37	C	0.295886	-0.000134	-0.115086
C38	C	0.795886	0.499866	0.384914
C39	C	0.213681	-0.000138	-0.108481
C40	C	0.713681	0.499862	0.391519
C41	C	0.203898	-0.000122	-0.250732
C42	C	0.703898	0.499878	0.249268
C43	C	0.286099	-0.000108	-0.257335
C44	C	0.786099	0.499892	0.242665
C45	C	0.332089	-0.000121	-0.189512
C46	C	0.832089	0.499879	0.310488
N47	N	0.457178	-0.000116	-0.135723
N48	N	0.957178	0.499884	0.364277
N49	N	0.416110	-0.000116	-0.196270
N50	N	0.916110	0.499884	0.303730
C51	C	0.936652	-0.663467	-0.166004
C52	C	1.436652	-0.163467	0.333996
C53	C	0.936644	-0.546662	-0.166002
C54	C	1.436644	-0.046662	0.333998
C55	C	0.936643	-0.453564	-0.165997
C56	C	1.436643	0.046436	0.334003
C57	C	0.936634	-0.336751	-0.165993
C58	C	1.436634	0.163249	0.334007
C59	C	1.080205	-0.000130	-0.169270
C60	C	1.580205	0.499870	0.330730
C61	C	1.167690	-0.000134	-0.176299
C62	C	1.667690	0.499866	0.323701
C63	C	0.933374	-0.000121	-0.022439
C64	C	1.433374	0.499879	0.477561
C65	C	0.926345	-0.000119	0.065046
C66	C	1.426345	0.499881	0.565046
N67	N	0.936664	0.243427	-0.166004
N68	N	1.436664	0.743427	0.333996
C69	C	0.939917	-0.000103	-0.309559
C70	C	1.439917	0.499897	0.190441
C71	C	0.946945	-0.000097	-0.397044
C72	C	1.446945	0.499903	0.102956
C73	C	0.994163	-0.000129	0.111037
C74	C	1.494163	0.499871	0.611037
C75	C	0.987554	-0.000119	0.193238
C76	C	1.487554	0.499881	0.693238
C77	C	0.913127	-0.000105	0.229446
C78	C	1.413127	0.499895	0.729446
C79	C	0.845303	-0.000092	0.183449
C80	C	1.345303	0.499908	0.683449
C81	C	0.851913	-0.000096	0.101250
C82	C	1.351913	0.499904	0.601250
C83	C	0.885732	-0.000088	0.474760
C84	C	1.385732	0.499912	0.974760
C85	C	0.879127	-0.000087	0.556966
C86	C	1.379127	0.499913	1.056966
C87	C	1.021379	-0.000112	0.566749
C88	C	1.521379	0.499888	1.066749
C89	C	1.027982	-0.000121	0.484547
C90	C	1.527982	0.499879	0.984547
C91	C	0.960159	-0.000103	0.438558
C92	C	1.460159	0.499897	0.938558
N93	N	0.906369	-0.000098	0.313468
N94	N	1.406369	0.499902	0.813468
N95	N	0.966917	-0.000103	0.354537
N96	N	1.466917	0.499897	0.854537
H97	H	0.539966	-0.000089	-0.272133
H98	H	1.039966	0.499911	0.227867
H99	H	0.166444	-0.000114	-0.305950
H100	H	0.666444	0.499886	0.194050
H101	H	0.784703	-0.000075	0.212936
H102	H	1.284703	0.499925	0.712936
H103	H	0.796688	-0.000087	0.063804
H104	H	1.296688	0.499913	0.563804
H105	H	0.689084	-0.000069	-0.284124
H106	H	1.189084	0.499931	0.215876
N107	N	0.323070	-0.000084	-0.333368
N108	N	0.823070	0.499916	0.166632
N109	N	0.281996	-0.000074	-0.393916
N110	N	0.781996	0.499926	0.106084
H111	H	0.308106	-0.000050	-0.447616
H112	H	0.808106	0.499950	0.052384
N113	N	0.176683	-0.000142	-0.032456
N114	N	0.676683	0.499858	0.467544
N115	N	0.131907	0.071994	-0.012902
N116	N	0.631907	0.571994	0.487098
H117	H	0.105776	0.071996	0.040788
H118	H	0.605776	0.571996	0.540788
N119	N	0.342845	-0.000142	-0.045800
N120	N	0.842845	0.499858	0.454200
N121	N	0.310503	-0.000147	0.020646
N122	N	0.810503	0.499853	0.520646
H123	H	0.343670	-0.000150	0.069583
H124	H	0.843670	0.499850	0.569583
N125	N	0.816463	-0.000088	0.427778
N126	N	1.316463	0.499912	0.927778
N127	N	0.822367	-0.000089	0.354387
N128	N	1.322367	0.499911	0.854387
H129	H	0.773443	-0.000091	0.321202
H130	H	1.273443	0.499909	0.821202
H131	H	0.557710	-0.000135	-0.014056
H132	H	1.057710	0.499865	0.485944
H133	H	1.054770	-0.000147	0.081563
H134	H	1.554770	0.499853	0.581563
N135	N	0.716366	-0.000120	-0.011984
N136	N	1.216366	0.499880	0.488016
N137	N	0.684030	-0.000135	0.054465
N138	N	1.184030	0.499865	0.554465
H139	H	0.717201	-0.000152	0.103399
H140	H	1.217201	0.499848	0.603399
N141	N	1.056837	-0.000119	0.240204
N142	N	1.556837	0.499881	0.740204
N143	N	1.123285	-0.000132	0.207866
N144	N	1.623285	0.499868	0.707866
H145	H	1.172220	-0.000129	0.241035
H146	H	1.672220	0.499871	0.741035
H147	H	1.088589	-0.000132	0.455073
H148	H	1.588589	0.499868	0.955073
H149	H	1.076596	-0.000125	0.604202
H150	H	1.576596	0.499875	1.104202
H151	H	0.818516	-0.000093	0.586443
H152	H	1.318516	0.499907	1.086443
