data_functionalizedCrystal
_audit_creation_method	'MofGen! by Chris Wilmer'
_symmetry_space_group_name_H-M	'P1'
_symmetry_Int_Tables_number	1
_symmetry_cell_setting	triclinic
loop_
_symmetry_equiv_pos_as_xyz
  x,y,z
_cell_length_a	10.654558
_cell_length_b	10.489741
_cell_length_c	9.130313
_cell_angle_alpha	89.999004
_cell_angle_beta	90.000369
_cell_angle_gamma	84.513745
loop_
_atom_site_label
_atom_site_type_symbol
_atom_site_fract_x
_atom_site_fract_y
_atom_site_fract_z
O1	O	1.667912	0.179207	-0.121778
O2	O	1.302443	0.196265	-0.121785
O3	O	1.493493	0.002134	-0.121773
O4	O	1.476861	0.373338	-0.121791
O5	O	1.493491	0.002140	0.121826
O6	O	1.302440	0.196270	0.121813
O7	O	1.667910	0.179212	0.121821
Cu8	Cu	1.485175	0.187742	0.144060
Cu9	Cu	1.485178	0.187736	-0.144024
O10	O	1.476859	0.373343	0.121808
C11	C	1.255643	0.195013	0.000013
C12	C	1.116199	0.191259	0.000010
C13	C	0.919659	0.185979	-0.132775
C14	C	1.050683	0.189495	-0.132777
C15	C	1.050685	0.189494	0.132808
C16	C	0.919664	0.185969	0.132808
C17	C	0.854149	0.184229	-0.265571
C18	C	0.919654	0.185991	-0.398369
C19	C	1.050678	0.189507	-0.398371
C20	C	1.116197	0.191260	-0.265574
C21	C	1.492236	-0.045394	0.000026
C22	C	1.488478	-0.187022	0.000023
C23	C	1.366918	-0.255107	0.000010
C24	C	1.424340	-0.347253	0.120118
C25	C	1.424371	-0.347233	-0.120052
C26	C	1.545950	-0.277302	0.120230
C27	C	1.545965	-0.277273	-0.120047
C28	C	1.603475	-0.369391	0.000090
C29	C	1.714709	0.180464	0.000019
C30	C	1.854154	0.184218	0.000012
C31	C	1.478116	0.420871	0.000006
C32	C	1.481874	0.562499	-0.000000
N33	N	1.485182	0.187745	0.346682
N34	N	1.485180	0.187722	-0.346647
C35	C	1.569801	0.101814	0.423340
C36	C	1.569798	0.101798	0.576677
C37	C	1.400552	0.273658	0.576685
C38	C	1.400550	0.273666	0.423351
C39	C	1.654433	0.015893	0.346671
C40	C	1.739060	-0.070044	0.423329
C41	C	1.739056	-0.070060	0.576666
C42	C	1.654426	0.015863	0.653345
H43	H	1.222887	0.194116	-0.265586
H44	H	1.597339	-0.246491	0.221886
H45	H	1.104040	0.190924	0.240925
O46	O	1.247605	-0.196017	0.000211
C47	C	1.160443	-0.289036	0.001563
H48	H	1.207520	-0.382441	0.048287
H49	H	1.127292	-0.305883	-0.114955
C50	C	0.988602	-0.126993	0.039937
C51	C	1.046419	-0.241711	0.097335
H52	H	0.918263	-0.097800	0.099007
H53	H	1.047322	-0.064323	0.039020
H54	H	0.960987	-0.141048	-0.057161
H55	H	1.074047	-0.227652	0.194423
H56	H	0.987700	-0.304378	0.098270
O57	O	0.855867	0.184433	0.261703
C58	C	0.766878	0.292689	0.269658
H59	H	0.742844	0.328925	0.154362
H60	H	0.808112	0.371271	0.335186
C61	C	0.675955	0.211339	0.487183
C62	C	0.646428	0.255838	0.345573
H63	H	0.601657	0.188611	0.534017
H64	H	0.735911	0.138406	0.481828
H65	H	0.710319	0.276832	0.541770
H66	H	0.612080	0.190340	0.290983
H67	H	0.586463	0.328759	0.350921
H68	H	1.331644	0.343638	0.360936
O69	O	1.821308	-0.153630	0.349077
C70	C	1.896013	-0.229460	0.449623
H71	H	1.844508	-0.231401	0.558922
H72	H	1.989677	-0.187155	0.465941
C73	C	1.983928	-0.364436	0.255525
C74	C	1.920663	-0.366828	0.389765
H75	H	1.999139	-0.449170	0.218601
H76	H	1.933601	-0.313346	0.187784
H77	H	2.061973	-0.329176	0.269142
H78	H	1.842613	-0.402073	0.376143
H79	H	1.970977	-0.417928	0.457503
O80	O	1.362828	-0.383993	-0.241151
C81	C	1.238138	-0.325272	-0.240672
H82	H	1.232928	-0.235119	-0.170354
H83	H	1.172382	-0.394565	-0.193799
C84	C	1.204194	-0.400031	-0.484820
C85	C	1.197798	-0.289298	-0.398464
H86	H	1.179307	-0.377845	-0.582154
H87	H	1.288198	-0.439597	-0.485142
H88	H	1.149398	-0.457765	-0.445742
H89	H	1.252605	-0.231573	-0.437532
H90	H	1.113802	-0.249721	-0.398153
O91	O	1.654565	0.015698	0.197722
C92	C	1.747428	-0.078537	0.146486
H93	H	1.768656	-0.154328	0.234840
H94	H	1.837078	-0.032148	0.119290
C95	C	1.673015	-0.048674	-0.100614
C96	C	1.699080	-0.141767	0.007899
H97	H	1.643197	-0.087674	-0.186105
H98	H	1.610455	0.014818	-0.066098
H99	H	1.747730	-0.010023	-0.123260
H100	H	1.624364	-0.180404	0.030556
H101	H	1.761628	-0.205267	-0.026617
H102	H	1.654422	0.015834	0.778202
O103	O	1.318179	0.356993	0.651103
C104	C	1.193673	0.335100	0.613612
H105	H	1.192142	0.232968	0.571452
H106	H	1.157416	0.405461	0.524616
C107	C	1.110597	0.479542	0.801610
C108	C	1.108714	0.354097	0.749840
H109	H	1.058188	0.491265	0.885639
H110	H	1.194479	0.494296	0.826866
H111	H	1.080386	0.538162	0.727434
H112	H	1.138940	0.295481	0.824009
H113	H	1.024836	0.339334	0.724600
H114	H	1.807954	-0.140041	0.639079
O115	O	1.722834	-0.428363	0.000425
C116	C	1.786442	-0.392674	0.127208
H117	H	1.714637	-0.360042	0.215316
H118	H	1.845651	-0.310932	0.099701
C119	C	1.961130	-0.548271	0.075618
C120	C	1.872939	-0.508202	0.183839
H121	H	2.014490	-0.619531	0.110549
H122	H	1.918279	-0.572312	-0.009801
H123	H	2.010458	-0.480142	0.052706
H124	H	1.823603	-0.576326	0.206736
H125	H	1.915783	-0.484175	0.269264
H126	H	0.747462	0.181370	-0.265585
H127	H	1.372905	-0.378239	0.221658
H128	H	0.866301	0.184555	-0.506487
H129	H	1.597357	-0.246253	-0.221593
O130	O	1.114229	0.191439	-0.527400
C131	C	1.068970	0.300844	-0.608196
H132	H	1.023716	0.376953	-0.530496
H133	H	0.995903	0.273872	-0.690992
C134	C	1.234944	0.260500	-0.785001
C135	C	1.179372	0.353982	-0.689566
H136	H	1.303043	0.293275	-0.835200
H137	H	1.265434	0.186788	-0.730571
H138	H	1.174043	0.238031	-0.853984
H139	H	1.240269	0.376438	-0.620574
H140	H	1.148895	0.427699	-0.743986
