data_functionalizedCrystal
_audit_creation_method	'MofGen! by Chris Wilmer'
_symmetry_space_group_name_H-M	'P1'
_symmetry_Int_Tables_number	1
_symmetry_cell_setting	triclinic
loop_
_symmetry_equiv_pos_as_xyz
  x,y,z
_cell_length_a	18.050590
_cell_length_b	18.050589
_cell_length_c	18.101389
_cell_angle_alpha	90.014016
_cell_angle_beta	90.003324
_cell_angle_gamma	90.017386
loop_
_atom_site_label
_atom_site_type_symbol
_atom_site_fract_x
_atom_site_fract_y
_atom_site_fract_z
Zn1	Zn	1.135322	-0.295952	0.418446
Zn2	Zn	1.468656	0.037381	0.751780
Zn3	Zn	1.801989	0.370715	1.085113
Zn4	Zn	1.135224	-0.420126	0.294614
Zn5	Zn	1.468558	-0.086793	0.627948
Zn6	Zn	1.801891	0.246540	0.961281
Zn7	Zn	1.011133	-0.295931	0.294653
Zn8	Zn	1.344466	0.037402	0.627986
Zn9	Zn	1.677799	0.370736	0.961320
Zn10	Zn	1.011090	-0.420081	0.418448
Zn11	Zn	1.344423	-0.086748	0.751782
Zn12	Zn	1.677756	0.246585	1.085115
O13	O	1.073192	-0.358023	0.356540
O14	O	1.406526	-0.024689	0.689874
O15	O	1.739859	0.308644	1.023207
O16	O	1.239234	-0.312452	0.402003
O17	O	1.572567	0.020882	0.735336
O18	O	1.905901	0.354215	1.068669
O19	O	1.118740	-0.403662	0.190987
O20	O	1.452074	-0.070328	0.524320
O21	O	1.785407	0.263005	0.857653
O22	O	1.027666	-0.192009	0.311090
O23	O	1.360999	0.141324	0.644423
O24	O	1.694333	0.474657	0.977756
O25	O	1.239162	-0.403682	0.311024
O26	O	1.572495	-0.070349	0.644357
O27	O	1.905828	0.262985	0.977691
O28	O	1.118907	-0.192025	0.402040
O29	O	1.452241	0.141309	0.735374
O30	O	1.785574	0.474642	1.068707
O31	O	1.027571	-0.312416	0.191015
O32	O	1.360904	0.020917	0.524348
O33	O	1.694237	0.354251	0.857682
O34	O	0.907202	-0.312372	0.311092
O35	O	1.240536	0.020961	0.644425
O36	O	1.573869	0.354294	0.977758
O37	O	1.027592	-0.403605	0.522081
O38	O	1.360926	-0.070272	0.855414
O39	O	1.694259	0.263061	1.188748
O40	O	0.907171	-0.403585	0.402044
O41	O	1.240504	-0.070252	0.735377
O42	O	1.573837	0.263082	1.068710
O43	O	1.118866	-0.312408	0.522080
O44	O	1.452199	0.020925	0.855413
O45	O	1.785532	0.354259	1.188746
O46	O	1.118698	-0.524045	0.311026
O47	O	1.452032	-0.190712	0.644359
O48	O	1.785365	0.142622	0.977693
O49	O	1.027497	-0.524012	0.402006
O50	O	1.360831	-0.190679	0.735340
O51	O	1.694164	0.142655	1.068673
C52	C	0.880240	-0.357972	0.356572
C53	C	1.213573	-0.024639	0.689906
C54	C	1.546907	0.308695	1.023239
C55	C	0.797694	-0.357968	0.356604
C56	C	1.131028	-0.024635	0.689937
C57	C	1.464361	0.308698	1.023270
C58	C	0.598248	-0.407712	0.405946
C59	C	0.931581	-0.074378	0.739279
C60	C	1.264915	0.258955	1.072612
C61	C	0.548856	-0.339998	0.424165
C62	C	0.882190	-0.006665	0.757498
C63	C	1.215523	0.326669	1.090831
C64	C	0.646564	-0.358010	0.356567
C65	C	0.979897	-0.024676	0.689901
C66	C	1.313231	0.308657	1.023234
C67	C	0.548874	-0.425762	0.338348
C68	C	0.882207	-0.092429	0.671681
C69	C	1.215541	0.240905	1.005015
C70	C	0.500579	-0.358056	0.356534
C71	C	0.833912	-0.024722	0.689867
C72	C	1.167246	0.308611	1.023201
C73	C	0.598259	-0.290260	0.374821
C74	C	0.931593	0.043073	0.708155
C75	C	1.264926	0.376407	1.041488
C76	C	0.598282	-0.376070	0.288973
C77	C	0.931615	-0.042736	0.622307
C78	C	1.264948	0.290597	0.955640
C79	C	0.548912	-0.308309	0.307167
C80	C	0.882245	0.025024	0.640500
C81	C	1.215579	0.358357	0.973833
C82	C	0.730662	-0.357984	0.356589
C83	C	1.063996	-0.024651	0.689922
C84	C	1.397329	0.308683	1.023255
C85	C	0.416482	-0.358074	0.356513
C86	C	0.749816	-0.024740	0.689846
C87	C	1.083149	0.308593	1.023179
C88	C	1.073103	-0.550975	0.356528
C89	C	1.406436	-0.217642	0.689862
C90	C	1.739769	0.115692	1.023195
C91	C	1.073132	-0.633521	0.356548
C92	C	1.406466	-0.300187	0.689881
C93	C	1.739799	0.033146	1.023214
C94	C	1.023586	-0.832980	0.406005
C95	C	1.356919	-0.499647	0.739339
C96	C	1.690252	-0.166314	1.072672
C97	C	1.005483	-0.882406	0.338433
C98	C	1.338816	-0.549072	0.671767
C99	C	1.672150	-0.215739	1.005100
C100	C	1.073205	-0.784651	0.356557
C101	C	1.406538	-0.451318	0.689891
C102	C	1.739872	-0.117984	1.023224
C103	C	1.091344	-0.882307	0.424137
C104	C	1.424678	-0.548974	0.757471
C105	C	1.758011	-0.215640	1.090804
C106	C	1.073274	-0.930636	0.356573
C107	C	1.406608	-0.597303	0.689906
C108	C	1.739941	-0.263969	1.023239
C109	C	1.055067	-0.832989	0.288949
C110	C	1.388400	-0.499656	0.622283
C111	C	1.721733	-0.166323	0.955616
C112	C	1.140960	-0.832886	0.374699
C113	C	1.474293	-0.499553	0.708032
C114	C	1.807626	-0.166220	1.041366
C115	C	1.122883	-0.882290	0.307080
C116	C	1.456216	-0.548956	0.640413
C117	C	1.789549	-0.215623	0.973747
C118	C	1.073163	-0.700553	0.356550
C119	C	1.406497	-0.367219	0.689883
C120	C	1.739830	-0.033886	1.023216
C121	C	1.073316	-1.014733	0.356573
C122	C	1.406649	-0.681399	0.689906
C123	C	1.739983	-0.348066	1.023239
C124	C	1.266898	-0.358074	0.356509
C125	C	1.600231	-0.024741	0.689842
C126	C	1.933564	0.308592	1.023176
C127	C	1.349444	-0.358096	0.356495
C128	C	1.682777	-0.024763	0.689829
C129	C	2.016110	0.308571	1.023162
C130	C	1.073235	-0.358004	0.549702
C131	C	1.406568	-0.024671	0.883036
C132	C	1.739902	0.308663	1.216369
C133	C	1.073253	-0.357996	0.632017
C134	C	1.406587	-0.024663	0.965350
C135	C	1.739920	0.308671	1.298683
C136	C	1.073302	-0.164317	0.356569
C137	C	1.406636	0.169016	0.689902
C138	C	1.739969	0.502350	1.023236
C139	C	1.073349	-0.081771	0.356581
C140	C	1.406683	0.251562	0.689914
C141	C	1.740016	0.584895	1.023248
C142	C	1.073192	-0.357988	0.164130
C143	C	1.406526	-0.024655	0.497463
C144	C	1.739859	0.308679	0.830797
C145	C	1.073318	-0.357787	0.081816
C146	C	1.406651	-0.024453	0.415150
C147	C	1.739985	0.308880	0.748483
C148	C	1.073297	-0.357857	0.931108
C149	C	1.406630	-0.024523	1.264441
C150	C	1.739963	0.308810	1.597774
C151	C	1.015672	-0.415053	0.899783
C152	C	1.349006	-0.081720	1.233117
C153	C	1.682339	0.251614	1.566450
C154	C	1.015828	-0.415318	0.814165
C155	C	1.349161	-0.081985	1.147498
C156	C	1.682495	0.251348	1.480832
C157	C	1.073275	-0.357926	0.782725
C158	C	1.406608	-0.024593	1.116058
C159	C	1.739941	0.308741	1.449392
C160	C	1.151521	-0.379184	0.813804
C161	C	1.484854	-0.045851	1.147137
C162	C	1.818187	0.287482	1.480470
C163	C	1.151200	-0.379560	0.899449
C164	C	1.484533	-0.046226	1.232782
C165	C	1.817866	0.287107	1.566116
C166	C	1.053355	-0.279275	0.899533
C167	C	1.386689	0.054058	1.232867
C168	C	1.720022	0.387392	1.566200
C169	C	1.051614	-0.279729	0.813883
C170	C	1.384948	0.053605	1.147216
C171	C	1.718281	0.386938	1.480550
C172	C	1.073267	-0.357964	0.698866
C173	C	1.406600	-0.024630	1.032199
C174	C	1.739934	0.308703	1.365532
C175	C	1.073310	-0.357821	1.014967
C176	C	1.406643	-0.024487	1.348301
C177	C	1.739976	0.308846	1.681634
H178	H	0.948218	-0.904174	0.323103
H179	H	1.281551	-0.570841	0.656436
H180	H	1.614884	-0.237507	0.989770
H181	H	1.028707	-0.472945	0.921309
H182	H	1.362041	-0.139611	1.254642
H183	H	1.695374	0.193722	1.587975
H184	H	1.095326	-0.236661	0.919791
H185	H	1.428660	0.096673	1.253124
H186	H	1.761993	0.430006	1.586457
H187	H	1.195608	-0.338835	0.793439
H188	H	1.528942	-0.005501	1.126772
H189	H	1.862275	0.327832	1.460105
N190	N	1.034688	-0.804419	0.213233
N191	N	1.368021	-0.471086	0.546567
N192	N	1.701355	-0.137752	0.879900
H193	H	1.025509	-0.847609	0.178947
H194	H	1.358842	-0.514276	0.512281
H195	H	1.692176	-0.180943	0.845614
H196	H	1.076590	-0.773193	0.193286
H197	H	1.409923	-0.439860	0.526620
H198	H	1.743257	-0.106527	0.859953
N199	N	0.520393	-0.252596	0.251840
N200	N	0.853726	0.080738	0.585173
N201	N	1.187059	0.414071	0.918507
H202	H	0.464442	-0.253219	0.251822
H203	H	0.797776	0.080114	0.585156
H204	H	1.131109	0.413448	0.918489
H205	H	0.539222	-0.265792	0.200973
H206	H	0.872555	0.067542	0.534307
H207	H	1.205888	0.400875	0.867640
H208	H	0.619913	-0.449669	0.447750
H209	H	0.953246	-0.116336	0.781084
H210	H	1.286579	0.216997	1.114417
H211	H	0.620008	-0.391351	0.231841
H212	H	0.953342	-0.058017	0.565175
H213	H	1.286675	0.275316	0.898508
N214	N	0.520139	-0.501630	0.317946
N215	N	0.853473	-0.168297	0.651279
N216	N	1.186806	0.165037	0.984612
H217	H	0.538088	-0.539113	0.355293
H218	H	0.871421	-0.205779	0.688627
H219	H	1.204755	0.127554	1.021960
H220	H	0.538900	-0.515571	0.267252
H221	H	0.872234	-0.182237	0.600585
H222	H	1.205567	0.151096	0.933918
N223	N	1.178509	-0.910791	0.251642
N224	N	1.511842	-0.577458	0.584975
N225	N	1.845176	-0.244125	0.918308
H226	H	1.164739	-0.892754	0.200645
H227	H	1.498072	-0.559420	0.533978
H228	H	1.831406	-0.226087	0.867311
H229	H	1.178517	-0.966739	0.252315
H230	H	1.511850	-0.633405	0.585649
H231	H	1.845183	-0.300072	0.918982
N232	N	0.520091	-0.319786	0.499861
N233	N	0.853424	0.013547	0.833194
N234	N	1.186757	0.346880	1.166527
H235	H	0.464142	-0.319482	0.499161
H236	H	0.797475	0.013851	0.832494
H237	H	1.130809	0.347184	1.165827
H238	H	0.538879	-0.269005	0.513954
H239	H	0.872212	0.064329	0.847287
H240	H	1.205546	0.397662	1.180620
H241	H	0.994032	-0.263697	0.793571
H242	H	1.327366	0.069636	1.126904
H243	H	1.660699	0.402969	1.460238
N244	N	1.210007	-0.326789	0.926904
N245	N	1.543340	0.006544	1.260238
N246	N	1.876673	0.339878	1.593571
H247	H	1.236025	-0.303388	0.883369
H248	H	1.569359	0.029945	1.216703
H249	H	1.902692	0.363279	1.550036
H250	H	1.247156	-0.354850	0.957836
H251	H	1.580489	-0.021517	1.291169
H252	H	1.913823	0.311817	1.624503
H253	H	0.619861	-0.232965	0.390282
H254	H	0.953195	0.100368	0.723615
H255	H	1.286528	0.433702	1.056949
H256	H	0.981563	-0.811328	0.447763
H257	H	1.314896	-0.477995	0.781096
H258	H	1.648229	-0.144662	1.114430
N259	N	1.173585	-0.455648	0.925930
N260	N	1.506918	-0.122315	1.259264
N261	N	1.840252	0.211018	1.592597
H262	H	1.224876	-0.467664	0.907132
H263	H	1.558209	-0.134331	1.240466
H264	H	1.891542	0.199003	1.573799
H265	H	1.137232	-0.493561	0.906673
H266	H	1.470565	-0.160228	1.240007
H267	H	1.803899	0.173106	1.573340
H268	H	1.168718	-0.436019	0.792360
H269	H	1.502051	-0.102685	1.125693
H270	H	1.835384	0.230648	1.459026
H271	H	1.198212	-0.811120	0.390062
H272	H	1.531545	-0.477787	0.723395
H273	H	1.864879	-0.144453	1.056728
H274	H	1.106659	-0.903970	0.481283
H275	H	1.439992	-0.570637	0.814616
H276	H	1.773326	-0.237303	1.147949
H277	H	0.997290	-0.259910	0.921138
H278	H	1.330623	0.073424	1.254471
H279	H	1.663957	0.406757	1.587805
H280	H	0.957806	-0.402014	0.793153
H281	H	1.291139	-0.068680	1.126486
H282	H	1.624472	0.264653	1.459819
N283	N	0.938576	-0.397603	0.927056
N284	N	1.271910	-0.064270	1.260389
N285	N	1.605243	0.269063	1.593723
H286	H	0.940252	-0.352455	0.959985
H287	H	1.273585	-0.019122	1.293319
H288	H	1.606919	0.314211	1.626652
H289	H	0.918767	-0.441191	0.955925
H290	H	1.252101	-0.107858	1.289258
H291	H	1.585434	0.225475	1.622592
N292	N	1.033263	-0.492472	0.787024
N293	N	1.366596	-0.159138	1.120358
N294	N	1.699929	0.174195	1.453691
H295	H	1.040885	-0.526440	0.830697
H296	H	1.374219	-0.193106	1.164030
H297	H	1.707552	0.140227	1.497363
H298	H	1.079834	-0.491208	0.756128
H299	H	1.413167	-0.157875	1.089461
H300	H	1.746500	0.175458	1.422794
N301	N	1.103149	-0.220277	0.785540
N302	N	1.436483	0.113056	1.118873
N303	N	1.769816	0.446390	1.452206
H304	H	1.141441	-0.243294	0.751952
H305	H	1.474774	0.090039	1.085285
H306	H	1.808107	0.423372	1.418619
H307	H	1.128720	-0.195564	0.828627
H308	H	1.462054	0.137769	1.161961
H309	H	1.795387	0.471102	1.495294
