data_functionalizedCrystal
_audit_creation_method	'MofGen! by Chris Wilmer'
_symmetry_space_group_name_H-M	'P1'
_symmetry_Int_Tables_number	1
_symmetry_cell_setting	triclinic
loop_
_symmetry_equiv_pos_as_xyz
  x,y,z
_cell_length_a	25.639242
_cell_length_b	12.827892
_cell_length_c	12.827885
_cell_angle_alpha	90.029786
_cell_angle_beta	89.969977
_cell_angle_gamma	89.989270
loop_
_atom_site_label
_atom_site_type_symbol
_atom_site_fract_x
_atom_site_fract_y
_atom_site_fract_z
Zn1	Zn	0.799351	0.416107	-0.591148
Zn2	Zn	0.799298	0.590884	-0.416409
Zn3	Zn	0.711915	0.416144	-0.416389
Zn4	Zn	0.711908	0.590793	-0.591076
O5	O	0.755618	0.503482	-0.503756
O6	O	0.872509	0.439314	-0.568007
O7	O	0.787688	0.567759	-0.270170
O8	O	0.723539	0.269903	-0.439594
O9	O	0.872470	0.567722	-0.439627
O10	O	0.787777	0.269876	-0.567988
O11	O	0.723488	0.439378	-0.270156
O12	O	0.638749	0.439289	-0.439523
O13	O	0.723527	0.567567	-0.737322
O14	O	0.638744	0.567603	-0.567865
O15	O	0.787771	0.439226	-0.737375
O16	O	0.787681	0.737108	-0.439556
O17	O	0.723476	0.737041	-0.567884
C18	C	0.619776	0.503441	-0.503685
C19	C	0.561662	0.503449	-0.503679
C20	C	0.755654	0.503382	-0.776326
C21	C	0.755669	0.503339	-0.892479
C22	C	0.755586	0.774992	-0.503737
C23	C	0.755620	0.891145	-0.503764
C24	C	0.201305	0.570407	-0.570520
C25	C	0.146700	0.570413	-0.570536
O26	O	0.118469	0.627292	-0.627306
N27	N	0.119379	0.503511	-0.503824
C28	C	0.146665	0.436590	-0.437098
O29	O	0.118412	0.379685	-0.380356
C30	C	0.201268	0.436580	-0.437088
C31	C	0.228587	0.503494	-0.503797
C32	C	0.228623	0.637315	-0.637224
C33	C	0.283224	0.637309	-0.637206
C34	C	0.310506	0.570396	-0.570483
C35	C	0.283187	0.503488	-0.503779
C36	C	0.228553	0.369655	-0.370368
C37	C	0.283160	0.369649	-0.370364
C38	C	0.310479	0.436563	-0.437073
C39	C	0.365070	0.436570	-0.437038
N40	N	0.392391	0.503472	-0.503750
C41	C	0.365109	0.570385	-0.570473
C42	C	0.031994	0.436617	-0.437126
C43	C	-0.022608	0.436632	-0.437131
C44	C	-0.022569	0.570454	-0.570570
C45	C	0.032035	0.570443	-0.570560
C46	C	0.059316	0.503519	-0.503839
C47	C	0.479774	0.570370	-0.570429
C48	C	0.534380	0.570362	-0.570402
C49	C	0.534336	0.436537	-0.436967
C50	C	0.479735	0.436548	-0.436989
C51	C	0.452456	0.503468	-0.503729
O52	O	0.393336	0.379717	-0.380300
O53	O	0.393369	0.627272	-0.627215
C54	C	0.891991	0.503524	-0.503827
C55	C	0.950105	0.503542	-0.503858
C56	C	0.755665	0.230912	-0.503797
C57	C	0.755685	0.114759	-0.503815
C58	C	0.723877	0.943027	-0.440197
C59	C	0.723912	1.063077	-0.440224
C60	C	0.787462	0.439819	-0.944290
C61	C	0.787479	0.439774	-1.064341
C62	C	0.755613	0.503507	-0.232246
C63	C	0.755699	0.503255	-0.116093
H64	H	0.457570	0.624860	-0.624777
N65	N	0.689753	0.887245	-0.371909
N66	N	0.656438	0.826336	-0.408646
H67	H	0.632337	0.786939	-0.360415
H68	H	0.782861	1.070150	-0.558244
H69	H	0.696733	1.107694	-0.385807
H70	H	0.728480	0.557643	-1.071544
H71	H	0.814700	0.385396	-1.108897
H72	H	-0.044792	0.624935	-0.624903
H73	H	0.728458	0.557680	-0.936999
H74	H	0.782824	0.935604	-0.558202
N75	N	0.821588	0.371635	-0.888436
N76	N	0.821525	0.371765	-0.790994
H77	H	0.845627	0.323608	-0.751547
H78	H	0.556620	0.624855	-0.624726
H79	H	0.305462	0.691796	-0.691530
N80	N	0.059937	0.638773	-0.638722
N81	N	0.090424	0.602080	-0.705378
H82	H	0.110129	0.650339	-0.753523
H83	H	0.206416	0.691804	-0.691564
H84	H	-0.044846	0.382155	-0.382799
N85	N	0.059851	0.368247	-0.368958
N86	N	0.035446	0.308521	-0.309404
H87	H	0.055116	0.260232	-0.261262
H88	H	0.206320	0.315169	-0.316043
N89	N	0.311028	0.301271	-0.302224
N90	N	0.304936	0.204853	-0.309335
H91	H	0.324617	0.156561	-0.261212
N92	N	0.451835	0.368203	-0.368832
N93	N	0.476203	0.308468	-0.309260
H94	H	0.456502	0.260191	-0.261128
H95	H	0.556558	0.382061	-0.382639
