data_functionalizedCrystal
_audit_creation_method	'MofGen! by Chris Wilmer'
_symmetry_space_group_name_H-M	'P1'
_symmetry_Int_Tables_number	1
_symmetry_cell_setting	triclinic
loop_
_symmetry_equiv_pos_as_xyz
  x,y,z
_cell_length_a	12.645331
_cell_length_b	12.645329
_cell_length_c	12.645323
_cell_angle_alpha	90.026248
_cell_angle_beta	90.015738
_cell_angle_gamma	90.017213
loop_
_atom_site_label
_atom_site_type_symbol
_atom_site_fract_x
_atom_site_fract_y
_atom_site_fract_z
Zn1	Zn	1.620729	-0.422053	0.599240
Zn2	Zn	1.620610	-0.599341	0.421976
Zn3	Zn	1.443444	-0.422089	0.422006
Zn4	Zn	1.443425	-0.599272	0.599213
O5	O	1.532052	-0.510689	0.510608
O6	O	1.769060	-0.445584	0.575724
O7	O	1.597066	-0.575872	0.273632
O8	O	1.467019	-0.273737	0.445540
O9	O	1.768973	-0.575836	0.445489
O10	O	1.597270	-0.273710	0.575753
O11	O	1.466903	-0.445646	0.273654
O12	O	1.295094	-0.445580	0.445514
O13	O	1.466986	-0.575720	0.747564
O14	O	1.295080	-0.575755	0.575707
O15	O	1.597251	-0.445517	0.747584
O16	O	1.597048	-0.747679	0.445463
O17	O	1.466871	-0.747629	0.575678
C18	C	1.256622	-0.510665	0.510611
C19	C	1.138792	-0.510680	0.510637
C20	C	0.971255	-0.593022	0.592115
C21	C	1.093815	-0.592757	0.592456
C22	C	1.094315	-0.399025	0.541162
C23	C	0.971716	-0.399528	0.541735
C24	C	0.971546	-0.539093	0.398377
C25	C	1.094152	-0.541535	0.398983
C26	C	1.531973	-0.786118	0.510587
C27	C	1.532036	-0.903948	0.510613
C28	C	1.450103	-0.948843	0.592484
C29	C	1.450443	-1.071403	0.592839
C30	C	1.643960	-1.071717	0.540707
C31	C	1.643387	-0.949119	0.541267
C32	C	1.503229	-0.949238	0.398515
C33	C	1.500862	-1.071847	0.399146
C34	C	1.808557	-0.510714	0.510606
C35	C	1.926387	-0.510724	0.510605
C36	C	1.532130	-0.510607	0.787114
C37	C	1.532163	-0.510572	0.904944
C38	C	1.532160	-0.234183	0.510653
C39	C	1.532206	-0.116353	0.510672
C40	C	1.532035	-0.510694	0.235179
C41	C	1.532207	-0.510430	0.117349
C42	C	1.449961	-0.592096	1.072496
C43	C	1.450176	-0.592500	0.949936
C44	C	1.643863	-0.540892	0.949450
C45	C	1.643412	-0.541403	1.072048
C46	C	1.503722	-0.398272	1.072148
C47	C	1.501230	-0.398944	0.949542
H48	H	0.943142	-0.375465	0.623779
H49	H	1.667772	-0.920445	0.623203
N50	N	1.346267	-0.568720	0.912174
N51	N	1.298114	-0.633894	0.855505
H52	H	1.224723	-0.617105	0.828838
N53	N	1.722592	-0.911831	0.469695
N54	N	1.717966	-0.935963	0.373936
H55	H	1.773906	-0.909628	0.323395
N56	N	1.722822	-0.468659	0.912892
N57	N	1.817060	-0.480354	0.940350
H58	H	1.872826	-0.429340	0.914530
N59	N	1.345745	-0.568510	1.109479
N60	N	1.330867	-0.491240	1.169331
H61	H	1.257263	-0.474581	1.195460
H62	H	0.941763	-0.676095	0.573196
N63	N	1.402669	-0.910610	0.364118
N64	N	1.366448	-0.938252	0.276370
H65	H	1.295423	-0.910972	0.252086
N66	N	1.570879	-0.318580	0.911097
N67	N	1.578398	-0.302099	0.813932
H68	H	1.627596	-0.245347	0.786773
N69	N	1.473320	-0.695747	1.111165
N70	N	1.550278	-0.709733	1.171615
H71	H	1.566779	-0.782936	1.198929
N72	N	1.398136	-0.370210	0.913018
N73	N	1.358619	-0.283636	0.939739
H74	H	1.285814	-0.263336	0.913927
N75	N	1.345763	-0.911983	0.569235
N76	N	1.269777	-0.939555	0.626108
H77	H	1.196084	-0.913515	0.609690
H78	H	0.940624	-0.619123	0.370634
N79	N	1.130609	-0.644607	0.370072
N80	N	1.065558	-0.716980	0.352572
H81	H	1.091313	-0.789772	0.332148
N82	N	0.934491	-0.319990	0.470513
N83	N	0.999058	-0.264282	0.420547
H84	H	0.972773	-0.208103	0.370252
N85	N	1.674665	-0.642667	0.910936
N86	N	1.614547	-0.693046	0.850724
H87	H	1.636296	-0.764927	0.823523
H88	H	1.123447	-0.336041	0.483649
H89	H	1.562898	-0.920193	0.337518
N90	N	1.346490	-1.109263	0.569312
N91	N	1.273181	-1.045141	0.552515
H92	H	1.199757	-1.071874	0.535908
H93	H	1.123164	-0.573982	0.675612
N94	N	1.403329	-0.363587	1.110934
N95	N	1.388918	-0.352884	1.208140
H96	H	1.318012	-0.328396	1.235534
H97	H	1.125040	-0.374524	0.622316
N98	N	1.473802	-0.696803	0.913163
N99	N	1.490192	-0.769525	0.978045
H100	H	1.506881	-0.843194	0.952076
H101	H	0.942530	-0.479147	0.337646
N102	N	1.673710	-0.644258	1.107925
N103	N	1.695039	-0.715166	1.042420
H104	H	1.716439	-0.787811	1.067752
H105	H	1.468964	-0.917965	0.675074
H106	H	1.469617	-1.100657	0.675909
H107	H	1.706769	-0.484504	1.101720
N108	N	1.578878	-0.321952	1.108540
N109	N	1.653126	-0.349897	1.167507
H110	H	1.706209	-0.296004	1.193214
H111	H	1.124769	-0.485941	0.334994
H112	H	1.706722	-1.100825	0.482926
H113	H	1.668815	-1.102342	0.621759
H114	H	1.556202	-1.102460	0.334920
N115	N	1.131531	-0.696630	0.568459
N116	N	1.067307	-0.769829	0.551345
H117	H	1.093938	-0.843196	0.534402
N118	N	0.932627	-0.569766	0.695824
N119	N	0.872197	-0.492843	0.709967
H120	H	0.844914	-0.476414	0.783211
H121	H	1.418617	-1.101035	0.376490
