data_functionalizedCrystal
_audit_creation_method	'MofGen! by Chris Wilmer'
_symmetry_space_group_name_H-M	'P1'
_symmetry_Int_Tables_number	1
_symmetry_cell_setting	triclinic
loop_
_symmetry_equiv_pos_as_xyz
  x,y,z
_cell_length_a	20.919218
_cell_length_b	17.917603
_cell_length_c	17.917559
_cell_angle_alpha	60.135762
_cell_angle_beta	64.994392
_cell_angle_gamma	93.151188
loop_
_atom_site_label
_atom_site_type_symbol
_atom_site_fract_x
_atom_site_fract_y
_atom_site_fract_z
Zr1	Zr	-0.074974	0.646147	0.877559
O2	O	-0.178209	0.674687	0.880150
O3	O	-0.039679	0.534555	0.867384
O4	O	-0.166628	0.519987	1.022069
O5	O	0.044730	0.817734	0.614118
O6	O	-0.161644	0.514943	1.144687
O7	O	-0.051260	0.689255	0.725466
O8	O	0.065446	0.541004	0.867984
O9	O	-0.182360	0.791674	0.890820
O10	O	-0.025314	0.607451	0.965886
O11	O	0.042602	0.707097	0.791280
O12	O	-0.106865	0.689944	0.973401
O13	O	-0.038949	0.789590	0.798795
Zr14	Zr	0.086067	0.843012	0.895533
Zr15	Zr	-0.067025	0.638104	1.073120
Zr16	Zr	0.078117	0.851056	0.699971
Zr17	Zr	-0.081594	0.832728	0.894576
Zr18	Zr	0.092687	0.656432	0.878515
O19	O	0.050771	0.954604	0.905707
O20	O	-0.166906	0.663250	1.158213
O21	O	0.039468	0.966041	0.627644
O22	O	0.189302	0.814472	0.892941
O23	O	-0.028375	0.523119	1.145447
O24	O	0.177998	0.825909	0.614878
O25	O	-0.033637	0.671425	1.158974
O26	O	0.177721	0.969173	0.751022
O27	O	0.172736	0.974216	0.628405
O28	O	0.062352	0.799904	1.047626
O29	O	-0.176041	0.785280	1.046265
O30	O	0.187133	0.703879	0.726826
O31	O	0.193452	0.697485	0.882271
O32	O	0.071765	0.534610	1.023429
O33	O	-0.060672	0.954549	0.749662
O34	O	-0.054353	0.948156	0.905107
O35	O	0.117958	0.799215	0.799690
O36	O	0.050042	0.699569	0.974296
O37	O	-0.031509	0.782063	0.981811
O38	O	0.036407	0.881709	0.807205
C39	C	0.013827	0.511196	0.865260
C40	C	0.016637	0.431987	0.858035
C41	C	0.021769	0.286947	0.844839
C42	C	-0.010674	0.202210	0.928248
C43	C	-0.007819	0.121504	0.920905
C44	C	0.018914	0.367661	0.852180
C45	C	-0.204173	0.731715	0.885349
C46	C	-0.275349	0.727349	0.884943
C47	C	-0.311070	0.789748	0.890636
C48	C	-0.377957	0.785639	0.890277
C49	C	-0.409119	0.719134	0.884217
C50	C	-0.373395	0.656729	0.878527
C51	C	-0.306512	0.660834	0.878893
C52	C	-0.610951	0.703510	0.882824
C53	C	-0.677837	0.699411	0.882455
C54	C	-0.682396	0.828321	0.894208
C55	C	-0.615509	0.832424	0.894567
C56	C	-0.579792	0.770016	0.888882
C57	C	-0.477487	0.714935	0.883847
C58	C	-0.511429	0.774212	0.889259
C59	C	0.215265	0.757444	0.887743
C60	C	0.286442	0.761810	0.888149
C61	C	-0.004398	0.754641	0.641928
C62	C	-0.007772	0.758055	0.558908
C63	C	-0.002734	0.977964	0.907832
C64	C	-0.005544	1.057172	0.915056
C65	C	0.025026	0.724875	0.366186
C66	C	-0.013931	0.764283	0.406910
C67	C	-0.010503	0.760816	0.491489
C68	C	0.021599	0.728340	0.281599
C69	C	0.015490	0.734519	1.131163
C70	C	0.018865	0.731104	1.214184
C71	C	-0.185948	0.488270	1.108680
C72	C	-0.250940	0.401281	1.184070
C73	C	0.023771	0.501135	1.109877
C74	C	0.029956	0.418512	1.185674
C75	C	0.205321	0.767505	0.643125
C76	C	0.273123	0.775286	0.560511
C77	C	-0.012678	0.988025	0.663214
C78	C	-0.018863	1.070648	0.587418
C79	C	0.197041	1.000889	0.664411
C80	C	0.262033	1.087878	0.589021
C81	C	-0.194229	0.721654	1.129966
C82	C	-0.262031	0.713873	1.212581
C83	C	-0.324036	0.403490	1.223406
C84	C	-0.385109	0.321760	1.294255
C85	C	-0.373084	0.237823	1.325762
C86	C	-0.299980	0.235617	1.286424
C87	C	-0.238909	0.317345	1.215581
C88	C	-0.006481	0.331617	1.216886
C89	C	-0.000684	0.253976	1.288115
C90	C	0.041554	0.263231	1.328125
C91	C	0.077991	0.350134	1.296911
C92	C	0.072190	0.427773	1.225688
C93	C	0.344305	0.827034	0.526097
C94	C	0.408017	0.834363	0.448462
C95	C	0.400547	0.789939	0.405248
C96	C	0.329357	0.738189	0.439665
C97	C	0.265646	0.730866	0.517293
C98	C	0.017567	1.157541	0.556214
C99	C	0.011753	1.235181	0.485006
C100	C	-0.030487	1.225925	0.444999
C101	C	-0.066922	1.139022	0.476209
C102	C	-0.061112	1.061384	0.547421
C103	C	0.249984	1.171798	0.557532
C104	C	0.311043	1.253541	0.486684
C105	C	0.384151	1.251362	0.447332
C106	C	0.396198	1.167433	0.478823
C107	C	0.335139	1.085692	0.549665
C108	C	-0.254536	0.758304	1.255776
C109	C	-0.318236	0.750990	1.333411
C110	C	-0.389430	0.699251	1.367845
C111	C	-0.396924	0.654814	1.324646
C112	C	-0.333224	0.662123	1.247017
H113	H	-0.040595	0.190276	1.005170
H114	H	-0.486056	0.828357	0.894198
H115	H	-0.030357	0.183223	1.313517
H116	H	0.051686	0.298880	0.767923
H117	H	-0.285700	0.843908	0.895562
Br118	Br	0.487021	0.799887	0.299894
Br119	Br	0.049419	0.157852	1.424785
Br120	Br	-0.493551	0.584608	1.371382
H121	H	-0.339337	0.625943	1.211851
H122	H	-0.049862	0.800618	0.378258
H123	H	0.323286	0.702022	0.404468
Br124	Br	-0.475874	0.689343	1.473200
Br125	Br	-0.426432	0.870330	0.898001
Br126	Br	-0.455976	0.126914	1.421907
Br127	Br	-0.573216	0.922693	0.902775
H128	H	0.190461	1.173590	0.589564
Br129	Br	-0.730872	0.913013	0.901924
H130	H	-0.703208	0.645251	0.877523
Br131	Br	0.169045	0.660627	0.563991
H132	H	-0.581885	0.652683	0.878212
H133	H	0.344960	1.017364	0.575301
Br134	Br	0.074896	1.170127	0.610497
Br135	Br	-0.415688	0.566466	0.870310
Br136	Br	0.135314	0.362679	1.351218
Br137	Br	-0.157923	0.828529	1.209061
H138	H	-0.502865	0.660789	0.878909
H139	H	-0.277424	0.610028	0.874245
H140	H	0.060949	0.688535	0.394842
Br141	Br	0.061207	1.353108	0.442662
H142	H	-0.035212	1.289151	0.387014
Br143	Br	-0.283674	0.121694	1.329188
Br144	Br	-0.340376	0.517393	1.180672
H145	H	-0.312120	0.787181	1.368570
Br146	Br	0.504622	0.904596	0.401772
H147	H	-0.101314	1.131500	0.443625
H148	H	-0.090776	0.990635	0.572817
Br149	Br	-0.484312	0.324777	1.347625
H150	H	0.301219	1.321871	0.461056
Br151	Br	0.121650	0.545699	1.183333
Br152	Br	-0.063812	0.319031	1.162604
H153	H	0.350402	0.863214	0.561271
Br154	Br	-0.139709	0.314331	1.162192
H155	H	0.433862	1.317927	0.389649
Br156	Br	0.495421	1.164491	0.425408
