data_functionalizedCrystal
_audit_creation_method	'MofGen! by Chris Wilmer'
_symmetry_space_group_name_H-M	'P1'
_symmetry_Int_Tables_number	1
_symmetry_cell_setting	triclinic
loop_
_symmetry_equiv_pos_as_xyz
  x,y,z
_cell_length_a	10.489711
_cell_length_b	10.489716
_cell_length_c	9.798715
_cell_angle_alpha	90.000655
_cell_angle_beta	89.995007
_cell_angle_gamma	84.528072
loop_
_atom_site_label
_atom_site_type_symbol
_atom_site_fract_x
_atom_site_fract_y
_atom_site_fract_z
O1	O	1.694058	0.179787	-0.113527
O2	O	1.322856	0.196719	-0.113518
O3	O	1.516920	0.002652	-0.113527
O4	O	1.499994	0.373854	-0.113517
O5	O	1.516906	0.002651	0.113455
O6	O	1.322843	0.196718	0.113465
O7	O	1.694045	0.179785	0.113455
Zn8	Zn	1.508441	0.188251	0.149498
Zn9	Zn	1.508459	0.188253	-0.149561
O10	O	1.499981	0.373852	0.113465
C11	C	1.275317	0.195448	-0.000026
C12	C	1.133686	0.191646	-0.000023
C13	C	0.951289	0.308352	-0.000035
C14	C	1.043447	0.250056	-0.111949
C15	C	1.043406	0.250023	0.111838
C16	C	0.973507	0.126512	-0.112058
C17	C	0.973457	0.126497	0.111829
C18	C	1.065587	0.068111	-0.000112
C19	C	1.515642	-0.044880	-0.000040
C20	C	1.511837	-0.186511	-0.000053
C21	C	1.630843	-0.284198	-0.000043
C22	C	1.567964	-0.361551	-0.111952
C23	C	1.567923	-0.361516	0.111834
C24	C	1.449008	-0.261999	-0.112054
C25	C	1.448984	-0.261959	0.111833
C26	C	1.386018	-0.339263	-0.000103
C27	C	1.741584	0.181057	-0.000040
C28	C	1.883215	0.184859	-0.000052
C29	C	1.501259	0.421385	-0.000025
C30	C	1.505064	0.563016	-0.000022
N31	N	1.508439	0.188249	0.353598
N32	N	1.508472	0.188245	-0.353660
C33	C	1.590122	0.106589	0.578525
C34	C	1.590105	0.106591	0.421363
H35	H	0.901590	0.409854	-0.000143
H36	H	1.660045	0.036683	0.636816
F37	F	1.633633	-0.418412	-0.235621
H38	H	0.942433	0.074286	0.206446
F39	F	1.766142	-0.251955	-0.000191
F40	F	1.417089	0.279632	0.570153
F41	F	1.417056	0.279626	0.429811
H42	H	1.618180	-0.404995	0.206442
H43	H	0.942708	0.074309	-0.206783
F44	F	1.083948	0.318351	-0.235619
H45	H	1.660005	0.036677	0.363046
H46	H	1.398803	-0.218689	-0.206770
F47	F	1.130255	-0.064677	-0.000191
F48	F	1.083859	0.318347	0.235505
F49	F	1.250616	-0.371185	-0.000175
H50	H	1.398785	-0.218436	0.206452
