data_functionalizedCrystal
_audit_creation_method	'MofGen! by Chris Wilmer'
_symmetry_space_group_name_H-M	'P1'
_symmetry_Int_Tables_number	1
_symmetry_cell_setting	triclinic
loop_
_symmetry_equiv_pos_as_xyz
  x,y,z
_cell_length_a	8.597304
_cell_length_b	8.559649
_cell_length_c	9.130313
_cell_angle_alpha	90.007011
_cell_angle_beta	82.295602
_cell_angle_gamma	102.375816
loop_
_atom_site_label
_atom_site_type_symbol
_atom_site_fract_x
_atom_site_fract_y
_atom_site_fract_z
O1	O	-0.053143	-2.119295	-0.115199
O2	O	0.027758	-1.655356	-0.125386
O3	O	-0.242260	-1.896455	-0.091320
O4	O	0.216875	-1.878196	-0.149265
O5	O	-0.242265	-1.896439	0.152279
O6	O	0.027753	-1.655339	0.118214
O7	O	-0.053148	-2.119279	0.128400
Cu8	Cu	-0.012698	-1.887307	0.145550
Cu9	Cu	-0.012692	-1.887327	-0.142535
O10	O	0.216870	-1.878179	0.094335
C11	C	0.033886	-1.595913	-0.004357
C12	C	0.052135	-1.418818	-0.006652
C13	C	-0.300498	-1.894486	0.037826
C14	C	-0.474018	-1.888622	0.059716
N15	N	-0.012704	-1.887305	0.348173
C16	C	0.275108	-1.880149	-0.034815
C17	C	0.448628	-1.886012	-0.056715
C18	C	-0.059276	-1.178721	0.007381
C19	C	-0.077525	-1.355816	0.009706
N20	N	-0.012700	-1.887342	-0.345157
C21	C	-0.132228	-1.994101	0.439904
C22	C	-0.132230	-1.994116	0.593241
C23	C	0.106831	-1.780534	0.563101
C24	C	0.106824	-1.780513	0.409767
H25	H	-0.484848	-1.888258	-0.173152
H26	H	0.177105	-1.337274	-0.022434
O27	O	-0.226510	-1.453324	0.028576
C28	C	-0.212186	-1.614370	0.026739
H29	H	-0.089871	-1.622511	0.057423
H30	H	-0.311240	-1.688419	0.109965
H31	H	-0.223865	-1.662408	-0.088652
H32	H	-0.540544	-1.886353	0.176161
O33	O	-0.248500	-2.097882	0.380317
C34	C	-0.353972	-2.192169	0.494168
H35	H	-0.347891	-2.126770	0.602717
H36	H	-0.481998	-2.214545	0.466031
H37	H	-0.317318	-2.311434	0.505818
O38	O	-0.248126	-2.097931	0.682483
C39	C	-0.176030	-2.197655	0.762026
H40	H	-0.045831	-2.136043	0.768573
H41	H	-0.244443	-2.221883	0.878482
H42	H	-0.179517	-2.315677	0.703346
H43	H	0.204150	-1.693589	0.613266
H44	H	0.204157	-1.693539	0.335074
