data_functionalizedCrystal
_audit_creation_method	'MofGen! by Chris Wilmer'
_symmetry_space_group_name_H-M	'P1'
_symmetry_Int_Tables_number	1
_symmetry_cell_setting	triclinic
loop_
_symmetry_equiv_pos_as_xyz
  x,y,z
_cell_length_a	21.295418
_cell_length_b	21.295417
_cell_length_c	18.215399
_cell_angle_alpha	89.967848
_cell_angle_beta	89.961117
_cell_angle_gamma	90.046319
loop_
_atom_site_label
_atom_site_type_symbol
_atom_site_fract_x
_atom_site_fract_y
_atom_site_fract_z
Zn1	Zn	0.962326	-0.250350	-0.416469
Zn2	Zn	0.962237	-0.355621	-0.293393
Zn3	Zn	0.857058	-0.250399	-0.293375
Zn4	Zn	0.857018	-0.355614	-0.416377
O5	O	0.909660	-0.302996	-0.354904
O6	O	1.050403	-0.264297	-0.400188
O7	O	0.948264	-0.341686	-0.190407
O8	O	0.871075	-0.162303	-0.309734
O9	O	1.050338	-0.341639	-0.309765
O10	O	0.948415	-0.162267	-0.400171
O11	O	0.870989	-0.264380	-0.190393
O12	O	0.768963	-0.264373	-0.309646
O13	O	0.871008	-0.341627	-0.519374
O14	O	0.768934	-0.341675	-0.400015
O15	O	0.948377	-0.264290	-0.519441
O16	O	0.948226	-0.443710	-0.309677
O17	O	0.870922	-0.443705	-0.400033
C18	C	0.746108	-0.303029	-0.354819
C19	C	0.676140	-0.303058	-0.354800
C20	C	0.643275	-0.343363	-0.401785
C21	C	0.577532	-0.343347	-0.401818
C22	C	0.544657	-0.303034	-0.354853
C23	C	0.577531	-0.262722	-0.307865
C24	C	0.643272	-0.262734	-0.307838
N25	N	0.441386	-0.298117	-0.290486
N26	N	0.378935	-0.298109	-0.290513
C27	C	0.346583	-0.302994	-0.354931
N28	N	0.379042	-0.307899	-0.419322
N29	N	0.441499	-0.307910	-0.419294
C30	C	0.473372	-0.303016	-0.354877
C31	C	0.242432	-0.343283	-0.401956
C32	C	0.176688	-0.343263	-0.401990
C33	C	0.176688	-0.262642	-0.308030
C34	C	0.242430	-0.262658	-0.308003
C35	C	0.275298	-0.302983	-0.354964
C36	C	0.909577	-0.466548	-0.354863
C37	C	0.909599	-0.536516	-0.354870
C38	C	0.949887	-0.569364	-0.307870
C39	C	0.949917	-0.635107	-0.307886
C40	C	0.909647	-0.667998	-0.354895
C41	C	0.869357	-0.635142	-0.401904
C42	C	0.869333	-0.569401	-0.401892
N43	N	0.854580	-0.771279	-0.360477
N44	N	0.854604	-0.833731	-0.360485
C45	C	0.909718	-0.866073	-0.354938
N46	N	0.964807	-0.833604	-0.349368
N47	N	0.964782	-0.771147	-0.349356
C48	C	0.909669	-0.739284	-0.354915
C49	C	0.950041	-0.970207	-0.307953
C50	C	0.950071	-1.035950	-0.307975
C51	C	0.869506	-1.035985	-0.401989
C52	C	0.869481	-0.970242	-0.401971
C53	C	0.909747	-0.937357	-0.354949
C54	C	1.073850	-0.302963	-0.354989
C55	C	1.143818	-0.302949	-0.355025
C56	C	0.909698	-0.302953	-0.546857
C57	C	0.909714	-0.302934	-0.628655
C58	C	0.909760	-0.138806	-0.354961
C59	C	0.909802	-0.068838	-0.354985
C60	C	0.950015	-0.262627	-0.816886
C61	C	0.950022	-0.262609	-0.893744
C62	C	0.869458	-0.343144	-0.893663
C63	C	0.869448	-0.343159	-0.816806
C64	C	0.909730	-0.302901	-0.778419
C65	C	0.909748	-0.302868	-0.932135
C66	C	0.909756	-0.302848	-1.015469
C67	C	0.909721	-0.302920	-0.695080
C68	C	0.909658	-0.302994	-0.163697
C69	C	0.909763	-0.302835	-0.081899
H70	H	0.550760	-0.229898	-0.269627
H71	H	0.982676	-0.542591	-0.269584
O72	O	0.993488	-0.934740	-0.257253
H73	H	1.025481	-0.904732	-0.290244
H74	H	0.982883	-1.062694	-0.269703
O75	O	0.825983	-0.386596	-0.775323
H76	H	0.854123	-0.418626	-0.740301
O77	O	0.993474	-0.219165	-0.935226
H78	H	0.965320	-0.187131	-0.970226
O79	O	0.678723	-0.386845	-0.452446
H80	H	0.666041	-0.436234	-0.439728
H81	H	0.670030	-0.229912	-0.269577
O82	O	0.826021	-0.934811	-0.452662
H83	H	0.832773	-0.883572	-0.444760
O84	O	0.825921	-0.670620	-0.452601
H85	H	0.836687	-0.657962	-0.510375
H86	H	0.982813	-0.229845	-0.785633
O87	O	0.542072	-0.386844	-0.452467
H88	H	0.575972	-0.414895	-0.485105
H89	H	0.836720	-1.062764	-0.440268
O90	O	0.277897	-0.386756	-0.452617
H91	H	0.265222	-0.436149	-0.439910
O92	O	0.141235	-0.386819	-0.452571
H93	H	0.175138	-0.414894	-0.485179
O94	O	0.141241	-0.219164	-0.257366
H95	H	0.090005	-0.225930	-0.265272
H96	H	0.269190	-0.229841	-0.269739
H97	H	0.836664	-0.375922	-0.924927
O98	O	0.993366	-0.670549	-0.257186
H99	H	1.021358	-0.636637	-0.224483
H100	H	0.836525	-0.542655	-0.440166
