data_functionalizedCrystal
_audit_creation_method	'MofGen! by Chris Wilmer'
_symmetry_space_group_name_H-M	'P1'
_symmetry_Int_Tables_number	1
_symmetry_cell_setting	triclinic
loop_
_symmetry_equiv_pos_as_xyz
  x,y,z
_cell_length_a	21.395362
_cell_length_b	18.050590
_cell_length_c	18.050583
_cell_angle_alpha	89.997484
_cell_angle_beta	89.960444
_cell_angle_gamma	89.983387
loop_
_atom_site_label
_atom_site_type_symbol
_atom_site_fract_x
_atom_site_fract_y
_atom_site_fract_z
Zn1	Zn	-0.249614	-1.135292	-0.419528
Zn2	Zn	-0.354409	-1.135197	-0.295331
Zn3	Zn	-0.249625	-1.011109	-0.295392
Zn4	Zn	-0.354334	-1.011056	-0.419520
O5	O	-0.301995	-1.073164	-0.357443
O6	O	-0.263542	-1.239204	-0.403031
O7	O	-0.340545	-1.118719	-0.191415
O8	O	-0.161946	-1.027644	-0.311889
O9	O	-0.340534	-1.239134	-0.311784
O10	O	-0.161938	-1.118881	-0.403091
O11	O	-0.263561	-1.027552	-0.191460
O12	O	-0.263488	-0.907178	-0.311880
O13	O	-0.340407	-1.027554	-0.523446
O14	O	-0.340417	-0.907139	-0.403076
O15	O	-0.263470	-1.118830	-0.523452
O16	O	-0.442077	-1.118668	-0.311776
O17	O	-0.442022	-1.027462	-0.403017
C18	C	-0.301946	-0.880212	-0.357484
C19	C	-0.301940	-0.797666	-0.357520
C20	C	-0.464783	-1.073069	-0.357405
C21	C	-0.534424	-1.073096	-0.357413
C22	C	-0.343887	-0.598216	-0.407004
C23	C	-0.286752	-0.548825	-0.425286
C24	C	-0.301970	-0.646536	-0.357491
C25	C	-0.359132	-0.548845	-0.339216
C26	C	-0.302003	-0.500550	-0.357465
C27	C	-0.244805	-0.598232	-0.375808
C28	C	-0.317223	-0.598256	-0.289707
C29	C	-0.260049	-0.548888	-0.307963
C30	C	-0.301951	-0.730634	-0.357508
C31	C	-0.302016	-0.416454	-0.357448
C32	C	-0.567076	-1.120576	-0.404936
C33	C	-0.632512	-1.120602	-0.404954
C34	C	-0.665293	-1.073156	-0.357436
C35	C	-0.632633	-1.025667	-0.309910
C36	C	-0.567198	-1.025637	-0.309899
C37	C	-0.769010	-1.067385	-0.290541
C38	C	-0.834443	-1.067421	-0.290552
C39	C	-0.867113	-1.073244	-0.357472
C40	C	-0.834342	-1.079048	-0.424385
C41	C	-0.768908	-1.079018	-0.424373
C42	C	-0.736245	-1.073183	-0.357444
C43	C	-0.970718	-1.120755	-0.405019
C44	C	-1.036154	-1.120776	-0.405038
C45	C	-1.036274	-1.025845	-0.309987
C46	C	-0.970839	-1.025820	-0.309975
C47	C	-0.938065	-1.073279	-0.357489
C48	C	-0.138572	-1.073279	-0.357497
C49	C	-0.068931	-1.073329	-0.357521
C50	C	-0.301928	-1.073197	-0.551149
C51	C	-0.301900	-1.073211	-0.633694
C52	C	-0.302037	-0.266869	-0.357414
C53	C	-0.302032	-0.349415	-0.357434
C54	C	-0.260041	-1.122896	-0.833148
C55	C	-0.244694	-1.055163	-0.882566
C56	C	-0.301889	-1.073240	-0.784825
C57	C	-0.317197	-1.141001	-0.882489
C58	C	-0.301878	-1.073275	-0.930810
C59	C	-0.286512	-1.005471	-0.833155
C60	C	-0.359042	-1.091355	-0.833074
C61	C	-0.343716	-1.023575	-0.882469
C62	C	-0.301894	-1.073221	-0.700726
C63	C	-0.301873	-1.073286	-1.014907
C64	C	-0.302017	-1.073174	-0.164491
C65	C	-0.301869	-1.073304	-0.081945
H66	H	-0.379275	-0.619877	-0.448920
H67	H	-0.196356	-1.039852	-0.904306
H68	H	-0.224574	-0.527365	-0.266080
C69	C	-0.732859	-1.085395	-0.497968
H70	H	-0.689211	-1.084547	-0.488373
H71	H	-0.743582	-1.044981	-0.529185
H72	H	-0.743537	-1.130601	-0.521744
H73	H	-0.379101	-0.981549	-0.903988
H74	H	-0.330149	-1.198290	-0.904162
C75	C	-0.179500	-0.627406	-0.396768
H76	H	-0.152254	-0.586774	-0.405481
H77	H	-0.182424	-0.656692	-0.440350
H78	H	-0.163530	-0.656741	-0.357393
C79	C	-0.870489	-1.061028	-0.216955
H80	H	-0.914137	-1.061886	-0.226545
H81	H	-0.859806	-1.015822	-0.193190
H82	H	-0.859765	-1.101441	-0.185730
H83	H	-0.224630	-1.164819	-0.811490
H84	H	-0.407458	-0.527147	-0.323772
C85	C	-0.668686	-0.973476	-0.257642
H86	H	-0.639865	-0.945189	-0.229340
H87	H	-0.694218	-1.001915	-0.225303
H88	H	-0.694209	-0.941110	-0.286042
H89	H	-0.540393	-1.159218	-0.443627
H90	H	-0.273503	-0.948165	-0.811575
C91	C	-0.668437	-1.172839	-0.457224
H92	H	-0.639546	-1.201103	-0.485515
H93	H	-0.693960	-1.144430	-0.489572
H94	H	-0.693960	-1.205225	-0.428823
H95	H	-0.330130	-0.619985	-0.232411
C96	C	-0.424323	-1.112061	-0.803678
H97	H	-0.440348	-1.072408	-0.774729
H98	H	-0.421349	-1.155353	-0.773964
H99	H	-0.451550	-1.121189	-0.844212
C100	C	-0.269345	-0.519474	-0.502703
H101	H	-0.299158	-0.536355	-0.537836
H102	H	-0.229038	-0.537103	-0.516027
H103	H	-0.269117	-0.466850	-0.502009
H104	H	-0.860940	-1.083792	-0.478878
H105	H	-0.944032	-1.159397	-0.443710
C106	C	-0.531280	-0.973412	-0.257617
H107	H	-0.560172	-0.945160	-0.229316
H108	H	-0.505749	-0.941026	-0.285999
H109	H	-0.505764	-1.001837	-0.225267
H110	H	-1.062739	-1.159439	-0.443740
H111	H	-0.944252	-0.987161	-0.271274
C112	C	-1.072325	-0.973651	-0.257723
H113	H	-1.115972	-0.980469	-0.264534
H114	H	-1.061619	-0.923742	-0.268562
H115	H	-1.061633	-0.984549	-0.207825
C116	C	-0.733077	-1.060982	-0.216926
H117	H	-0.689414	-1.061789	-0.226501
H118	H	-0.743800	-1.101407	-0.185715
H119	H	-0.743842	-1.015787	-0.193153
