data_functionalizedCrystal
_audit_creation_method	'MofGen! by Chris Wilmer'
_symmetry_space_group_name_H-M	'P1'
_symmetry_Int_Tables_number	1
_symmetry_cell_setting	triclinic
loop_
_symmetry_equiv_pos_as_xyz
  x,y,z
_cell_length_a	8.559649
_cell_length_b	17.699083
_cell_length_c	16.176319
_cell_angle_alpha	90.001389
_cell_angle_beta	89.994559
_cell_angle_gamma	103.469160
loop_
_atom_site_label
_atom_site_type_symbol
_atom_site_fract_x
_atom_site_fract_y
_atom_site_fract_z
O1	O	0.202110	-0.992507	-0.068628
O2	O	0.228405	-0.770623	-0.068655
O3	O	-0.017421	-0.901113	-0.068638
O4	O	0.447935	-0.862017	-0.068645
O5	O	-0.017436	-0.901098	0.068855
O6	O	0.228389	-0.770608	0.068838
O7	O	0.202094	-0.992492	0.068865
Cu8	Cu	0.215240	-0.881549	0.081406
Cu9	Cu	0.215259	-0.881566	-0.081196
O10	O	0.447920	-0.862002	0.068849
C11	C	0.227455	-0.742473	0.000088
C12	C	0.224628	-0.658616	0.000078
C13	C	-0.076970	-0.904069	0.000107
C14	C	-0.254384	-0.912888	0.000104
C15	C	0.203044	-1.020643	0.000120
C16	C	0.205871	-1.104499	0.000125
C17	C	0.507469	-0.859047	0.000101
C18	C	0.684883	-0.850227	0.000099
N19	N	0.215226	-0.881542	0.195771
C20	C	0.368922	-0.601734	0.000076
C21	C	0.366257	-0.522943	0.000087
C22	C	0.219296	-0.501037	0.000094
C23	C	0.074990	-0.557926	0.000098
C24	C	0.077657	-0.636715	0.000093
C25	C	0.064231	-0.240179	0.000118
C26	C	0.061575	-0.161383	0.000121
C27	C	0.352831	-0.126407	0.000112
C28	C	0.355498	-0.205196	0.000108
C29	C	0.211193	-0.262078	0.000116
C30	C	0.214085	-0.347512	0.000106
C31	C	0.216402	-0.415605	0.000098
N32	N	0.215260	-0.881580	-0.195561
C33	C	0.106419	-0.939336	0.239043
C34	C	0.106417	-0.939340	0.325590
C35	C	0.215232	-0.881552	0.368864
C36	C	0.324044	-0.823752	0.325586
C37	C	0.324037	-0.823746	0.239041
C38	C	0.324074	-0.823776	0.674614
C39	C	0.324076	-0.823789	0.761166
C40	C	0.106455	-0.939370	0.761164
C41	C	0.106447	-0.939364	0.674618
C42	C	0.215253	-0.881562	0.631348
C43	C	0.215252	-0.881558	0.537504
C44	C	0.215242	-0.881559	0.462706
H45	H	-0.338124	-0.973285	0.000118
H46	H	-0.053271	-0.286484	0.000126
O47	O	0.429956	-0.767669	0.197041
C48	C	0.588139	-0.770760	0.218189
H49	H	0.588767	-0.831319	0.241972
H50	H	0.668366	-0.757384	0.161267
H51	H	0.635197	-0.726079	0.268427
O52	O	-0.215010	-0.778233	0.000050
C53	C	-0.054216	-0.785158	0.000066
H54	H	-0.048212	-0.844272	-0.025956
H55	H	0.021581	-0.737295	-0.039861
H56	H	-0.005994	-0.779504	0.066026
H57	H	0.017846	-0.986422	0.639387
O58	O	0.000522	-0.995494	0.803108
C59	C	-0.157657	-0.992375	0.781984
H60	H	-0.157379	-0.963184	0.719148
H61	H	-0.236517	-1.053848	0.779022
H62	H	-0.206981	-0.957573	0.830698
H63	H	0.488595	-0.619562	0.000070
H64	H	0.470330	-0.080083	0.000110
O65	O	0.506572	-0.467787	0.000048
C66	C	0.636854	-0.504018	0.000057
H67	H	0.596060	-0.565307	-0.025979
H68	H	0.737940	-0.469017	-0.039862
H69	H	0.681914	-0.507025	0.066016
H70	H	0.475168	-0.223027	0.000099
O71	O	-0.081332	-0.140236	0.000169
C72	C	-0.208129	-0.207337	0.000157
H73	H	-0.163543	-0.258375	0.026183
H74	H	-0.310746	-0.196799	0.040082
H75	H	-0.252630	-0.221094	-0.065803
O76	O	-0.067630	-0.536515	0.000069
C77	C	-0.039047	-0.454776	0.000091
H78	H	0.085748	-0.428982	-0.025942
H79	H	-0.133065	-0.436002	-0.039823
H80	H	-0.046712	-0.433247	0.066055
O81	O	0.429926	-0.767596	0.632717
C82	C	0.525942	-0.716587	0.689474
H83	H	0.527666	-0.747525	0.751160
H84	H	0.653609	-0.697613	0.664463
H85	H	0.474196	-0.663376	0.698693
O86	O	-0.062658	-0.691874	0.000053
C87	C	-0.192944	-0.655646	0.000079
H88	H	-0.152149	-0.594353	-0.025949
H89	H	-0.294022	-0.690642	-0.039838
H90	H	-0.238013	-0.652647	0.066043
H91	H	0.017817	-0.986396	0.203815
O92	O	0.429556	-0.767628	0.803295
C93	C	0.344071	-0.725910	0.853356
H94	H	0.218935	-0.763339	0.866322
H95	H	0.410809	-0.710063	0.914214
H96	H	0.333346	-0.670595	0.820015
H97	H	0.017818	-0.986399	0.360821
H98	H	0.412637	-0.776697	0.360825
