data_functionalizedCrystal
_audit_creation_method	'MofGen! by Chris Wilmer'
_symmetry_space_group_name_H-M	'P1'
_symmetry_Int_Tables_number	1
_symmetry_cell_setting	triclinic
loop_
_symmetry_equiv_pos_as_xyz
  x,y,z
_cell_length_a	17.038278
_cell_length_b	17.038272
_cell_length_c	8.965430
_cell_angle_alpha	90.000179
_cell_angle_beta	89.995800
_cell_angle_gamma	91.111028
loop_
_atom_site_label
_atom_site_type_symbol
_atom_site_fract_x
_atom_site_fract_y
_atom_site_fract_z
O1	O	1.048753	0.170521	-0.124054
O2	O	0.820942	0.167815	-0.124054
O3	O	0.933494	0.055263	-0.124042
O4	O	0.936202	0.283074	-0.124066
O5	O	0.933484	0.055270	0.124037
O6	O	0.820932	0.167823	0.124025
O7	O	1.048744	0.170529	0.124025
Cu8	Cu	0.934837	0.169176	0.146676
Cu9	Cu	0.934849	0.169168	-0.146706
O10	O	0.936192	0.283081	0.124013
C11	C	0.791645	0.165356	-0.000015
C12	C	0.704361	0.158009	-0.000015
C13	C	0.931026	0.025974	-0.000003
C14	C	0.923678	-0.061310	-0.000003
C15	C	0.210935	0.112872	-0.000016
C16	C	0.292947	0.119781	-0.000007
C17	C	0.329347	0.194155	-0.000022
C18	C	0.283730	0.261623	-0.000029
C19	C	0.201720	0.254713	-0.000027
C20	C	0.576734	0.218567	-0.000020
C21	C	0.658751	0.225473	-0.000027
C22	C	0.667962	0.083630	-0.000002
C23	C	0.585949	0.076726	-0.000009
C24	C	0.540340	0.144194	-0.000008
C25	C	0.413176	0.201219	-0.000018
C26	C	0.456513	0.137129	-0.000001
C27	C	0.991142	-0.106920	-0.000002
C28	C	0.984233	-0.188932	-0.000016
C29	C	0.909859	-0.225332	-0.000021
C30	C	0.842391	-0.179716	-0.000027
C31	C	0.849300	-0.097706	-0.000024
C32	C	0.885449	-0.472720	-0.000042
C33	C	0.878544	-0.554736	-0.000041
C34	C	1.020387	-0.563946	-0.000032
C35	C	1.027290	-0.481934	-0.000020
C36	C	0.959821	-0.436325	-0.000034
C37	C	0.902796	-0.309161	-0.000031
C38	C	0.966886	-0.352497	-0.000035
C39	C	1.078041	0.172988	-0.000018
C40	C	1.165325	0.180335	-0.000028
C41	C	0.938660	0.312370	-0.000030
C42	C	0.946008	0.399654	-0.000039
N43	N	0.934835	0.169182	0.353025
N44	N	0.934857	0.169156	-0.353055
C45	C	0.882765	0.221215	0.450326
C46	C	0.954745	0.241173	0.549738
C47	C	0.862886	0.149233	0.549741
C48	C	1.006853	0.189178	0.450249
C49	C	0.914945	0.097204	0.450243
C50	C	0.986974	0.117135	0.549610
H51	H	0.181305	0.052309	-0.000013
H52	H	1.027440	-0.322857	-0.000063
Br53	Br	0.536555	-0.024213	-0.000054
Br54	Br	1.075795	-0.250828	-0.000014
Br55	Br	0.757739	-0.035805	-0.000038
H56	H	0.539609	0.273505	-0.000027
Br57	Br	0.982813	0.342608	0.622578
Br58	Br	0.741454	-0.229116	-0.000059
H59	H	1.087852	-0.452303	-0.000015
H60	H	0.842240	-0.338808	-0.000032
H61	H	1.031068	0.073122	0.592930
H62	H	0.838777	0.265263	0.406732
Br63	Br	1.111946	-0.625847	-0.000013
H64	H	1.067726	0.206113	0.406730
Br65	Br	0.886847	-0.004205	0.377339
Br66	Br	0.333129	0.362560	-0.000042
H67	H	0.705105	0.028701	-0.000000
H68	H	0.817978	-0.584370	-0.000021
H69	H	0.688384	0.286039	-0.000017
H70	H	0.330080	0.064845	0.000009
H71	H	0.164585	0.309649	-0.000032
Br72	Br	0.407112	0.036197	0.000031
Br73	Br	0.761458	0.121128	0.622591
H74	H	1.051704	-0.077289	0.000012
Br75	Br	0.462582	0.302152	-0.000052
H76	H	0.830511	-0.435595	-0.000053
