data_functionalizedCrystal
_audit_creation_method	'MofGen! by Chris Wilmer'
_symmetry_space_group_name_H-M	'P1'
_symmetry_Int_Tables_number	1
_symmetry_cell_setting	triclinic
loop_
_symmetry_equiv_pos_as_xyz
  x,y,z
_cell_length_a	18.215407
_cell_length_b	18.215405
_cell_length_c	17.077396
_cell_angle_alpha	90.028580
_cell_angle_beta	90.017277
_cell_angle_gamma	90.020175
loop_
_atom_site_label
_atom_site_type_symbol
_atom_site_fract_x
_atom_site_fract_y
_atom_site_fract_z
Zn1	Zn	1.125082	-0.293034	0.443796
Zn2	Zn	1.375082	-0.043034	0.693796
Zn3	Zn	1.625082	0.206966	0.943796
Zn4	Zn	1.875082	0.456966	1.193796
Zn5	Zn	1.124995	-0.416108	0.312529
Zn6	Zn	1.374995	-0.166108	0.562529
Zn7	Zn	1.624995	0.083892	0.812529
Zn8	Zn	1.874995	0.333892	1.062529
Zn9	Zn	1.002015	-0.293054	0.312549
Zn10	Zn	1.252015	-0.043054	0.562549
Zn11	Zn	1.502015	0.206946	0.812549
Zn12	Zn	1.752015	0.456946	1.062549
Zn13	Zn	1.001985	-0.416058	0.443758
Zn14	Zn	1.251985	-0.166058	0.693758
Zn15	Zn	1.501985	0.083942	0.943758
Zn16	Zn	1.751985	0.333942	1.193758
O17	O	1.063520	-0.354564	0.378158
O18	O	1.313520	-0.104564	0.628158
O19	O	1.563520	0.145436	0.878158
O20	O	1.813520	0.395436	1.128158
O21	O	1.228055	-0.309373	0.426390
O22	O	1.478055	-0.059373	0.676390
O23	O	1.728055	0.190627	0.926390
O24	O	1.978055	0.440627	1.176390
O25	O	1.108658	-0.399814	0.202685
O26	O	1.358658	-0.149814	0.452685
O27	O	1.608658	0.100186	0.702685
O28	O	1.858658	0.350186	0.952685
O29	O	1.018389	-0.190067	0.329983
O30	O	1.268389	0.059933	0.579983
O31	O	1.518389	0.309933	0.829983
O32	O	1.768389	0.559933	1.079983
O33	O	1.227991	-0.399794	0.329950
O34	O	1.477991	-0.149794	0.579950
O35	O	1.727991	0.100206	0.829950
O36	O	1.977991	0.350206	1.079950
O37	O	1.108806	-0.190053	0.426409
O38	O	1.358806	0.059947	0.676409
O39	O	1.608806	0.309947	0.926409
O40	O	1.858806	0.559947	1.176409
O41	O	1.018305	-0.309407	0.202699
O42	O	1.268305	-0.059407	0.452699
O43	O	1.518305	0.190593	0.702699
O44	O	1.768305	0.440593	0.952699
O45	O	0.899027	-0.309359	0.329946
O46	O	1.149027	-0.059359	0.579946
O47	O	1.399027	0.190641	0.829946
O48	O	1.649027	0.440641	1.079946
O49	O	1.018338	-0.399710	0.553610
O50	O	1.268338	-0.149710	0.803610
O51	O	1.518338	0.100290	1.053610
O52	O	1.768338	0.350290	1.303610
O53	O	0.899005	-0.399729	0.426345
O54	O	1.149005	-0.149729	0.676345
O55	O	1.399005	0.100271	0.926345
O56	O	1.649005	0.350271	1.176345
O57	O	1.108777	-0.309325	0.553638
O58	O	1.358777	-0.059325	0.803638
O59	O	1.608777	0.190675	1.053638
O60	O	1.858777	0.440675	1.303638
O61	O	1.108629	-0.519086	0.329913
O62	O	1.358629	-0.269086	0.579913
O63	O	1.608629	-0.019086	0.829913
O64	O	1.858629	0.230914	1.079913
O65	O	1.018254	-0.519049	0.426326
O66	O	1.268254	-0.269049	0.676326
O67	O	1.518254	-0.019049	0.926326
O68	O	1.768254	0.230951	1.176326
C69	C	0.872313	-0.354541	0.378144
C70	C	1.122313	-0.104541	0.628144
C71	C	1.372313	0.145459	0.878144
C72	C	1.622313	0.395459	1.128144
C73	C	0.790514	-0.354549	0.378157
C74	C	1.040514	-0.104549	0.628157
C75	C	1.290514	0.145451	0.878157
C76	C	1.540514	0.395451	1.128157
C77	C	0.602353	-0.307564	0.428453
C78	C	0.852353	-0.057564	0.678453
C79	C	1.102353	0.192436	0.928453
C80	C	1.352353	0.442436	1.178453
C81	C	0.525494	-0.307570	0.428456
C82	C	0.775494	-0.057570	0.678456
C83	C	1.025494	0.192430	0.928456
C84	C	1.275494	0.442430	1.178456
C85	C	0.525438	-0.401585	0.327877
C86	C	0.775438	-0.151585	0.577877
C87	C	1.025438	0.098415	0.827877
C88	C	1.275438	0.348415	1.077877
C89	C	0.602296	-0.401574	0.327871
C90	C	0.852296	-0.151574	0.577871
C91	C	1.102296	0.098426	0.827871
C92	C	1.352296	0.348426	1.077871
C93	C	0.640751	-0.354565	0.378163
C94	C	0.890751	-0.104565	0.628163
C95	C	1.140751	0.145435	0.878163
C96	C	1.390751	0.395435	1.128163
C97	C	0.487035	-0.354581	0.378172
C98	C	0.737035	-0.104581	0.628172
C99	C	0.987035	0.145419	0.878172
C100	C	1.237035	0.395419	1.128172
C101	C	0.403701	-0.354589	0.378174
C102	C	0.653701	-0.104589	0.628174
C103	C	0.903701	0.145411	0.878174
C104	C	1.153701	0.395411	1.128174
C105	C	0.724090	-0.354556	0.378160
C106	C	0.974090	-0.104556	0.628160
C107	C	1.224090	0.145444	0.878160
C108	C	1.474090	0.395444	1.128160
C109	C	1.063449	-0.545770	0.378131
C110	C	1.313449	-0.295770	0.628131
C111	C	1.563449	-0.045770	0.878131
C112	C	1.813449	0.204230	1.128131
C113	C	1.063486	-0.627569	0.378146
C114	C	1.313486	-0.377569	0.628146
C115	C	1.563486	-0.127569	0.878146
C116	C	1.813486	0.122431	1.128146
C117	C	1.110589	-0.815694	0.428423
C118	C	1.360589	-0.565694	0.678423
C119	C	1.610589	-0.315694	0.928423
C120	C	1.860589	-0.065694	1.178423
C121	C	1.110615	-0.892553	0.428438
C122	C	1.360615	-0.642553	0.678438
C123	C	1.610615	-0.392553	0.928438
C124	C	1.860615	-0.142553	1.178438
C125	C	1.016541	-0.892681	0.327942
C126	C	1.266541	-0.642681	0.577942
C127	C	1.516541	-0.392681	0.827942
C128	C	1.766541	-0.142681	1.077942
C129	C	1.016512	-0.815824	0.327931
C130	C	1.266512	-0.565824	0.577931
C131	C	1.516512	-0.315824	0.827931
C132	C	1.766512	-0.065824	1.077931
C133	C	1.063539	-0.777332	0.378171
C134	C	1.313539	-0.527332	0.628171
C135	C	1.563539	-0.277332	0.878171
C136	C	1.813539	-0.027332	1.128171
C137	C	1.063596	-0.931048	0.378196
C138	C	1.313596	-0.681048	0.628196
C139	C	1.563596	-0.431048	0.878196
C140	C	1.813596	-0.181048	1.128196
C141	C	1.063625	-1.014382	0.378211
C142	C	1.313625	-0.764382	0.628211
C143	C	1.563625	-0.514382	0.878211
C144	C	1.813625	-0.264382	1.128211
C145	C	1.063510	-0.693993	0.378157
C146	C	1.313510	-0.443993	0.628157
C147	C	1.563510	-0.193993	0.878157
C148	C	1.813510	0.056007	1.128157
C149	C	1.255472	-0.354587	0.378172
C150	C	1.505472	-0.104587	0.628172
C151	C	1.755472	0.145413	0.878172
C152	C	2.005472	0.395413	1.128172
C153	C	1.337271	-0.354597	0.378178
C154	C	1.587271	-0.104597	0.628178
C155	C	1.837271	0.145403	0.878178
C156	C	2.087271	0.395403	1.128178
C157	C	1.063564	-0.354510	0.582902
C158	C	1.313564	-0.104510	0.832902
C159	C	1.563564	0.145490	1.082902
C160	C	1.813564	0.395490	1.332902
C161	C	1.063583	-0.354486	0.670152
C162	C	1.313583	-0.104486	0.920152
C163	C	1.563583	0.145514	1.170152
C164	C	1.813583	0.395514	1.420152
C165	C	1.063610	-0.162611	0.378202
C166	C	1.313610	0.087389	0.628202
C167	C	1.563610	0.337389	0.878202
C168	C	1.813610	0.587389	1.128202
C169	C	1.063649	-0.080812	0.378221
C170	C	1.313649	0.169188	0.628221
C171	C	1.563649	0.419188	0.878221
C172	C	1.813649	0.669188	1.128221
C173	C	1.063518	-0.354565	0.174210
C174	C	1.313518	-0.104565	0.424210
C175	C	1.563518	0.145435	0.674210
C176	C	1.813518	0.395435	0.924210
C177	C	1.063641	-0.354380	0.086961
C178	C	1.313641	-0.104380	0.336961
C179	C	1.563641	0.145620	0.586961
C180	C	1.813641	0.395620	0.836961
C181	C	1.110676	-0.307419	0.711158
C182	C	1.360676	-0.057419	0.961158
C183	C	1.610676	0.192581	1.211158
C184	C	1.860676	0.442581	1.461158
C185	C	1.110685	-0.307395	0.793138
C186	C	1.360685	-0.057395	1.043138
C187	C	1.610685	0.192605	1.293138
C188	C	1.860685	0.442605	1.543138
C189	C	1.063604	-0.354442	0.834112
C190	C	1.313604	-0.104442	1.084112
C191	C	1.563604	0.145558	1.334112
C192	C	1.813604	0.395558	1.584112
C193	C	1.016506	-0.401511	0.793100
C194	C	1.266506	-0.151511	1.043100
C195	C	1.516506	0.098489	1.293100
C196	C	1.766506	0.348489	1.543100
C197	C	1.016494	-0.401531	0.711121
C198	C	1.266494	-0.151531	0.961121
C199	C	1.516494	0.098469	1.211121
C200	C	1.766494	0.348469	1.461121
C201	C	1.016535	-0.401467	0.963970
C202	C	1.266535	-0.151467	1.213970
C203	C	1.516535	0.098533	1.463970
C204	C	1.766535	0.348533	1.713970
C205	C	1.016548	-0.401448	1.045955
C206	C	1.266548	-0.151448	1.295955
C207	C	1.516548	0.098552	1.545955
C208	C	1.766548	0.348552	1.795955
C209	C	1.110727	-0.307330	1.045988
C210	C	1.360727	-0.057330	1.295988
C211	C	1.610727	0.192670	1.545988
C212	C	1.860727	0.442670	1.795988
C213	C	1.110715	-0.307350	0.964009
C214	C	1.360715	-0.057350	1.214009
C215	C	1.610715	0.192650	1.464009
C216	C	1.860715	0.442650	1.714009
C217	C	1.063617	-0.354421	0.923003
C218	C	1.313617	-0.104421	1.173003
C219	C	1.563617	0.145579	1.423003
C220	C	1.813617	0.395579	1.673003
H221	H	0.494119	-0.439859	0.286931
H222	H	0.744119	-0.189859	0.536931
H223	H	0.994119	0.060141	0.786931
H224	H	1.244119	0.310141	1.036931
F225	F	0.966493	-0.933653	0.274477
F226	F	1.216493	-0.683653	0.524477
F227	F	1.466493	-0.433653	0.774477
F228	F	1.716493	-0.183653	1.024477
H229	H	0.633661	-0.269283	0.469402
H230	H	0.883661	-0.019283	0.719402
H231	H	1.133661	0.230717	0.969402
H232	H	1.383661	0.480717	1.219402
F233	F	1.160852	-0.257234	1.089630
F234	F	1.410852	-0.007234	1.339630
F235	F	1.660852	0.242766	1.589630
F236	F	1.910852	0.492766	1.839630
F237	F	0.643164	-0.451596	0.274336
F238	F	0.893164	-0.201596	0.524336
F239	F	1.143164	0.048404	0.774336
F240	F	1.393164	0.298404	1.024336
F241	F	0.966428	-0.774994	0.274448
F242	F	1.216428	-0.524994	0.524448
F243	F	1.466428	-0.274994	0.774448
F244	F	1.716428	-0.024994	1.024448
F245	F	1.160791	-0.257348	0.667558
F246	F	1.410791	-0.007348	0.917558
F247	F	1.660791	0.242652	1.167558
F248	F	1.910791	0.492652	1.417558
H249	H	1.148926	-0.923784	0.469359
H250	H	1.398926	-0.673784	0.719359
H251	H	1.648926	-0.423784	0.969359
H252	H	1.898926	-0.173784	1.219359
F253	F	1.160828	-0.257282	0.920403
F254	F	1.410828	-0.007282	1.170403
F255	F	1.660828	0.242718	1.420403
F256	F	1.910828	0.492718	1.670403
H257	H	1.149035	-0.269069	0.826522
H258	H	1.399035	-0.019069	1.076522
H259	H	1.649035	0.230931	1.326522
H260	H	1.899035	0.480931	1.576522
F261	F	1.160638	-0.774731	0.481894
F262	F	1.410638	-0.524731	0.731894
F263	F	1.660638	-0.274731	0.981894
F264	F	1.910638	-0.024731	1.231894
F265	F	0.966433	-0.451515	1.089560
F266	F	1.216433	-0.201515	1.339560
F267	F	1.466433	0.048485	1.589560
F268	F	1.716433	0.298485	1.839560
F269	F	0.966407	-0.451564	0.920331
F270	F	1.216407	-0.201564	1.170331
F271	F	1.466407	0.048436	1.420331
F272	F	1.716407	0.298436	1.670331
F273	F	0.966395	-0.451580	0.836709
F274	F	1.216395	-0.201580	1.086709
F275	F	1.466395	0.048420	1.336709
F276	F	1.716395	0.298420	1.586709
H277	H	0.494233	-0.269296	0.469405
H278	H	0.744233	-0.019296	0.719405
H279	H	0.994233	0.230704	0.969405
H280	H	1.244233	0.480704	1.219405
F281	F	0.966369	-0.451625	0.667480
F282	F	1.216369	-0.201625	0.917480
F283	F	1.466369	0.048375	1.167480
F284	F	1.716369	0.298375	1.417480
