data_functionalizedCrystal
_audit_creation_method	'MofGen! by Chris Wilmer'
_symmetry_space_group_name_H-M	'P1'
_symmetry_Int_Tables_number	1
_symmetry_cell_setting	triclinic
loop_
_symmetry_equiv_pos_as_xyz
  x,y,z
_cell_length_a	21.295419
_cell_length_b	21.295417
_cell_length_c	21.295411
_cell_angle_alpha	89.978356
_cell_angle_beta	89.975461
_cell_angle_gamma	90.045308
loop_
_atom_site_label
_atom_site_type_symbol
_atom_site_fract_x
_atom_site_fract_y
_atom_site_fract_z
Zn1	Zn	0.962356	-0.250432	-0.355911
Zn2	Zn	1.295689	0.082901	-0.022578
Zn3	Zn	1.629022	0.416234	0.310756
Zn4	Zn	0.962258	-0.355684	-0.250637
Zn5	Zn	1.295591	-0.022351	0.082697
Zn6	Zn	1.628925	0.310982	0.416030
Zn7	Zn	0.857079	-0.250460	-0.250656
Zn8	Zn	1.190412	0.082873	0.082677
Zn9	Zn	1.523745	0.416207	0.416010
Zn10	Zn	0.857048	-0.355695	-0.355868
Zn11	Zn	1.190381	-0.022361	-0.022535
Zn12	Zn	1.523715	0.310972	0.310798
O13	O	0.909685	-0.303068	-0.303268
O14	O	1.243018	0.030266	0.030065
O15	O	1.576352	0.363599	0.363399
O16	O	1.050432	-0.264378	-0.341956
O17	O	1.383765	0.068955	-0.008623
O18	O	1.717099	0.402288	0.324711
O19	O	0.948278	-0.341733	-0.162550
O20	O	1.281611	-0.008400	0.170784
O21	O	1.614944	0.324934	0.504117
O22	O	0.871098	-0.162367	-0.264645
O23	O	1.204431	0.170966	0.068689
O24	O	1.537764	0.504300	0.402022
O25	O	1.050360	-0.341706	-0.264611
O26	O	1.383694	-0.008373	0.068722
O27	O	1.717027	0.324960	0.402056
O28	O	0.948444	-0.162347	-0.341975
O29	O	1.281777	0.170987	-0.008642
O30	O	1.615111	0.504320	0.324692
O31	O	0.871003	-0.264425	-0.162564
O32	O	1.204336	0.068908	0.170769
O33	O	1.537670	0.402241	0.504102
O34	O	0.768985	-0.264436	-0.264603
O35	O	1.102319	0.068898	0.068730
O36	O	1.435652	0.402231	0.402064
O37	O	0.871045	-0.341724	-0.443963
O38	O	1.204379	-0.008391	-0.110630
O39	O	1.537712	0.324942	0.222703
O40	O	0.768963	-0.341751	-0.341902
O41	O	1.102296	-0.008418	-0.008569
O42	O	1.435629	0.324915	0.324765
O43	O	0.948414	-0.264388	-0.443995
O44	O	1.281748	0.068945	-0.110662
O45	O	1.615081	0.402278	0.222672
O46	O	0.948248	-0.443775	-0.264570
O47	O	1.281581	-0.110442	0.068764
O48	O	1.614915	0.222892	0.402097
O49	O	0.870951	-0.443783	-0.341883
O50	O	1.204284	-0.110449	-0.008550
O51	O	1.537617	0.222884	0.324784
C52	C	0.746133	-0.303098	-0.303250
C53	C	1.079467	0.030235	0.030083
C54	C	1.412800	0.363569	0.363416
C55	C	0.676165	-0.303126	-0.303258
C56	C	1.009499	0.030207	0.030076
C57	C	1.342832	0.363541	0.363409
C58	C	0.643358	-0.262927	-0.343593
C59	C	0.976692	0.070406	-0.010260
C60	C	1.310025	0.403739	0.323073
C61	C	0.577616	-0.262910	-0.343596
C62	C	0.910949	0.070423	-0.010263
C63	C	1.244283	0.403756	0.323071
C64	C	0.544683	-0.303104	-0.303269
C65	C	0.878016	0.030230	0.030064
C66	C	1.211349	0.363563	0.363397
C67	C	0.577498	-0.343305	-0.262926
C68	C	0.910831	-0.009972	0.070408
C69	C	1.244164	0.323361	0.403741
C70	C	0.643239	-0.343317	-0.262920
C71	C	0.976572	-0.009983	0.070413
C72	C	1.309906	0.323350	0.403747
N73	N	0.441407	-0.358181	-0.298349
N74	N	0.774741	-0.024847	0.034984
N75	N	1.108074	0.308486	0.368317
N76	N	0.378956	-0.358168	-0.298359
N77	N	0.712289	-0.024835	0.034975
N78	N	1.045623	0.308498	0.368308
C79	C	0.346608	-0.303071	-0.303283
C80	C	0.679941	0.030262	0.030050
C81	C	1.013275	0.363596	0.363384
N82	N	0.379071	-0.247985	-0.308210
N83	N	0.712404	0.085348	0.025123
N84	N	1.045738	0.418681	0.358456
N85	N	0.441528	-0.247999	-0.308205
N86	N	0.774862	0.085335	0.025129
N87	N	1.108195	0.418668	0.358462
C88	C	0.473397	-0.303095	-0.303271
C89	C	0.806731	0.030238	0.030063
C90	C	1.140064	0.363571	0.363396
C91	C	0.242516	-0.262850	-0.343624
C92	C	0.575849	0.070483	-0.010290
C93	C	0.909182	0.403816	0.323043
C94	C	0.176772	-0.262832	-0.343622
C95	C	0.510105	0.070501	-0.010288
C96	C	0.843439	0.403834	0.323045
C97	C	0.176655	-0.343233	-0.262955
C98	C	0.509988	-0.009900	0.070379
C99	C	0.843322	0.323434	0.403712
C100	C	0.242397	-0.343245	-0.262953
C101	C	0.575731	-0.009912	0.070380
C102	C	0.909064	0.323421	0.403713
C103	C	0.275324	-0.303055	-0.303291
C104	C	0.608657	0.030278	0.030042
C105	C	0.941991	0.363612	0.363375
C106	C	0.909603	-0.466619	-0.303233
C107	C	1.242936	-0.133286	0.030100
C108	C	1.576269	0.200047	0.363433
C109	C	0.909625	-0.536588	-0.303239
C110	C	1.242958	-0.203254	0.030094
C111	C	1.576291	0.130079	0.363427
C112	C	0.949909	-0.569429	-0.263024
C113	C	1.283243	-0.236096	0.070310
C114	C	1.616576	0.097237	0.403643
C115	C	0.949939	-0.635172	-0.263038
C116	C	1.283272	-0.301838	0.070296
C117	C	1.616605	0.031495	0.403629
C118	C	0.909673	-0.668070	-0.303261
C119	C	1.243006	-0.334737	0.030072
C120	C	1.576339	-0.001403	0.363406
C121	C	0.869385	-0.635220	-0.343485
C122	C	1.202719	-0.301887	-0.010151
C123	C	1.536052	0.031446	0.323182
C124	C	0.869361	-0.569479	-0.343474
C125	C	1.202695	-0.236146	-0.010140
C126	C	1.536028	0.097187	0.323193
N127	N	0.854606	-0.771351	-0.308054
N128	N	1.187939	-0.438018	0.025279
N129	N	1.521272	-0.104684	0.358613
N130	N	0.854630	-0.833802	-0.308061
N131	N	1.187963	-0.500469	0.025273
N132	N	1.521297	-0.167136	0.358606
C133	C	0.909743	-0.866145	-0.303297
C134	C	1.243076	-0.532811	0.030036
C135	C	1.576410	-0.199478	0.363370
N136	N	0.964832	-0.833676	-0.298514
N137	N	1.298165	-0.500343	0.034819
N138	N	1.631499	-0.167010	0.368152
N139	N	0.964807	-0.771219	-0.298504
N140	N	1.298140	-0.437886	0.034829
N141	N	1.631473	-0.104553	0.368162
C142	C	0.909694	-0.739355	-0.303278
C143	C	1.243028	-0.406022	0.030056
C144	C	1.576361	-0.072689	0.363389
C145	C	0.950063	-0.970272	-0.263095
C146	C	1.283396	-0.636939	0.070239
C147	C	1.616730	-0.303605	0.403572
C148	C	0.950093	-1.036016	-0.263113
C149	C	1.283427	-0.702682	0.070220
C150	C	1.616760	-0.369349	0.403554
C151	C	0.869534	-1.036063	-0.343557
C152	C	1.202868	-0.702730	-0.010223
C153	C	1.536201	-0.369396	0.323110
C154	C	0.869510	-0.970321	-0.343541
C155	C	1.202843	-0.636987	-0.010208
C156	C	1.536176	-0.303654	0.323125
C157	C	0.909773	-0.937429	-0.303307
C158	C	1.243106	-0.604096	0.030026
C159	C	1.576440	-0.270762	0.363360
C160	C	1.073875	-0.303038	-0.303286
C161	C	1.407209	0.030295	0.030047
C162	C	1.740542	0.363629	0.363381
C163	C	1.143843	-0.303025	-0.303294
C164	C	1.477177	0.030308	0.030039
C165	C	1.810510	0.363641	0.363373
C166	C	0.909737	-0.303055	-0.467458
C167	C	1.243071	0.030279	-0.134125
C168	C	1.576404	0.363612	0.199208
C169	C	0.909760	-0.303049	-0.537426
C170	C	1.243093	0.030284	-0.204093
C171	C	1.576426	0.363618	0.129240
C172	C	0.909785	-0.138878	-0.303317
C173	C	1.243118	0.194456	0.030017
C174	C	1.576452	0.527789	0.363350
C175	C	0.909828	-0.068909	-0.303338
C176	C	1.243161	0.264424	0.029996
C177	C	1.576494	0.597757	0.363329
C178	C	0.950044	-0.262778	-0.570311
C179	C	1.283377	0.070555	-0.236977
C180	C	1.616710	0.403888	0.096356
C181	C	0.950043	-0.262751	-0.636053
C182	C	1.283376	0.070582	-0.302720
C183	C	1.616710	0.403916	0.030614
C184	C	0.909764	-0.303006	-0.668909
C185	C	1.243098	0.030328	-0.335576
C186	C	1.576431	0.363661	-0.002242
C187	C	0.869472	-0.343279	-0.636017
C188	C	1.202806	-0.009946	-0.302684
C189	C	1.536139	0.323388	0.030650
C190	C	0.869470	-0.343301	-0.570276
C191	C	1.202803	-0.009967	-0.236942
C192	C	1.536137	0.323366	0.096391
N193	N	0.904908	-0.358075	-0.772124
N194	N	1.238241	-0.024741	-0.438791
N195	N	1.571574	0.308592	-0.105458
N196	N	0.904914	-0.358052	-0.834576
N197	N	1.238247	-0.024719	-0.501243
N198	N	1.571580	0.308615	-0.167909
C199	C	0.909768	-0.302942	-0.866984
C200	C	1.243102	0.030392	-0.533651
C201	C	1.576435	0.363725	-0.200317
N202	N	0.914629	-0.247853	-0.834581
N203	N	1.247963	0.085480	-0.501248
N204	N	1.581296	0.418813	-0.167914
N205	N	0.914626	-0.247876	-0.772124
N206	N	1.247960	0.085457	-0.438791
N207	N	1.581293	0.418790	-0.105457
C208	C	0.909762	-0.302986	-0.740194
C209	C	1.243096	0.030347	-0.406861
C210	C	1.576429	0.363680	-0.073528
C211	C	0.950054	-0.262638	-0.971154
C212	C	1.283387	0.070695	-0.637820
C213	C	1.616721	0.404029	-0.304487
C214	C	0.950049	-0.262610	-1.036897
C215	C	1.283382	0.070724	-0.703564
C216	C	1.616715	0.404057	-0.370231
C217	C	0.869481	-0.343143	-1.036860
C218	C	1.202815	-0.009810	-0.703527
C219	C	1.536148	0.323523	-0.370193
C220	C	0.869483	-0.343166	-0.971118
C221	C	1.202817	-0.009833	-0.637784
C222	C	1.536150	0.323501	-0.304451
C223	C	0.909773	-0.302914	-0.938268
C224	C	1.243106	0.030419	-0.604935
C225	C	1.576440	0.363752	-0.271602
C226	C	0.909669	-0.303036	-0.139716
C227	C	1.243003	0.030298	0.193617
C228	C	1.576336	0.363631	0.526950
C229	C	0.909769	-0.302864	-0.069749
C230	C	1.243102	0.030469	0.263585
C231	C	1.576436	0.363803	0.596918
H232	H	0.269326	-0.230121	-0.376465
H233	H	0.602659	0.103212	-0.043132
H234	H	0.935993	0.436546	0.290202
Cl235	Cl	0.818840	-0.393798	-0.929775
Cl236	Cl	1.152173	-0.060464	-0.596442
Cl237	Cl	1.485506	0.272869	-0.263109
Cl238	Cl	1.000535	-0.528083	-0.212452
Cl239	Cl	1.333869	-0.194750	0.120881
Cl240	Cl	1.667202	0.138583	0.454214
H241	H	0.836752	-1.062848	-0.376310
H242	H	1.170085	-0.729515	-0.042977
H243	H	1.503418	-0.396182	0.290356
Cl244	Cl	0.684484	-0.393855	-0.212206
Cl245	Cl	1.017817	-0.060522	0.121127
Cl246	Cl	1.351151	0.272812	0.454460
H247	H	0.836556	-0.542739	-0.376223
H248	H	1.169890	-0.209406	-0.042890
H249	H	1.503223	0.123928	0.290444
H250	H	0.982857	-0.229859	-0.944406
H251	H	1.316190	0.103474	-0.611073
H252	H	1.649523	0.436807	-0.277740
H253	H	0.982850	-0.943490	-0.230335
H254	H	1.316183	-0.610157	0.102998
H255	H	1.649517	-0.276824	0.436332
H256	H	0.836675	-0.376052	-0.662773
H257	H	1.170009	-0.042719	-0.329439
H258	H	1.503342	0.290614	0.003894
H259	H	0.836663	-0.376093	-0.543502
H260	H	1.169996	-0.042760	-0.210169
H261	H	1.503329	0.290574	0.123165
H262	H	0.982902	-1.062754	-0.230366
H263	H	1.316235	-0.729421	0.102968
H264	H	1.649569	-0.396088	0.436301
H265	H	0.982850	-0.230001	-0.543569
H266	H	1.316183	0.103332	-0.210235
H267	H	1.649517	0.436665	0.123098
H268	H	0.982852	-0.229813	-1.063670
H269	H	1.316185	0.103520	-0.730337
H270	H	1.649519	0.436854	-0.397004
Cl271	Cl	0.818860	-0.929032	-0.394099
Cl272	Cl	1.152194	-0.595698	-0.060765
Cl273	Cl	1.485527	-0.262365	0.272568
Cl274	Cl	1.000677	-0.212108	-0.677402
Cl275	Cl	1.334011	0.121225	-0.344068
Cl276	Cl	1.667344	0.454558	-0.010735
H277	H	0.836679	-0.375913	-1.063611
H278	H	1.170013	-0.042580	-0.730277
H279	H	1.503346	0.290754	-0.396944
H280	H	0.150062	-0.230094	-0.376467
H281	H	0.483395	0.103240	-0.043133
H282	H	0.816728	0.436573	0.290200
H283	H	0.670163	-0.230200	-0.376439
H284	H	1.003496	0.103133	-0.043106
H285	H	1.336830	0.436466	0.290228
H286	H	0.550899	-0.230172	-0.376441
H287	H	0.884233	0.103161	-0.043108
H288	H	1.217566	0.436494	0.290226
H289	H	0.982745	-0.661917	-0.230289
H290	H	1.316079	-0.328583	0.103044
H291	H	1.649412	0.004750	0.436377
H292	H	0.550679	-0.376030	-0.230091
H293	H	0.884013	-0.042697	0.103242
H294	H	1.217346	0.290636	0.436576
Cl295	Cl	0.283643	-0.393781	-0.212240
Cl296	Cl	0.616976	-0.060448	0.121093
Cl297	Cl	0.950309	0.272885	0.454427
Cl298	Cl	0.135259	-0.393758	-0.212253
Cl299	Cl	0.468593	-0.060424	0.121080
Cl300	Cl	0.801926	0.272909	0.454414
Cl301	Cl	0.818768	-0.676577	-0.394054
Cl302	Cl	1.152101	-0.343244	-0.060721
Cl303	Cl	1.485435	-0.009911	0.272613
