data_functionalizedCrystal
_audit_creation_method	'MofGen! by Chris Wilmer'
_symmetry_space_group_name_H-M	'P1'
_symmetry_Int_Tables_number	1
_symmetry_cell_setting	triclinic
loop_
_symmetry_equiv_pos_as_xyz
  x,y,z
_cell_length_a	10.654550
_cell_length_b	23.532407
_cell_length_c	9.730223
_cell_angle_alpha	89.994043
_cell_angle_beta	89.996251
_cell_angle_gamma	83.666790
loop_
_atom_site_label
_atom_site_type_symbol
_atom_site_fract_x
_atom_site_fract_y
_atom_site_fract_z
O1	O	1.665300	0.079982	-0.114418
O2	O	1.299580	0.087603	-0.114398
O3	O	1.493468	0.000933	-0.114384
O4	O	1.471412	0.166652	-0.114433
O5	O	1.493466	0.000935	0.114196
O6	O	1.299578	0.087605	0.114182
O7	O	1.665298	0.079985	0.114161
Zn8	Zn	1.482437	0.083795	0.150464
Zn9	Zn	1.482440	0.083792	-0.150700
O10	O	1.471409	0.166655	0.114147
C11	C	1.252799	0.087044	-0.000105
C12	C	1.113408	0.085370	-0.000096
C13	C	1.032306	0.136400	-0.000131
C14	C	0.901335	0.134824	-0.000154
C15	C	0.932582	0.031183	-0.000113
C16	C	1.063550	0.032760	-0.000080
C17	C	1.082164	0.189010	-0.000147
C18	C	1.001060	0.240045	-0.000184
C19	C	0.870089	0.238468	-0.000207
C20	C	0.820222	0.185858	-0.000194
C21	C	1.492905	-0.020286	-0.000090
C22	C	1.491217	-0.083514	-0.000079
C23	C	1.595364	-0.481938	-0.000161
C24	C	1.593795	-0.541349	-0.000171
O25	O	1.690341	-0.577464	-0.000227
N26	N	1.478529	-0.564726	-0.000164
C27	C	1.364824	-0.528689	-0.000160
O28	O	1.266636	-0.554029	-0.000156
C29	C	1.366394	-0.469280	-0.000159
C30	C	1.481668	-0.445906	-0.000153
C31	C	1.710629	-0.458564	-0.000156
C32	C	1.712197	-0.399158	-0.000143
C33	C	1.598500	-0.363126	-0.000135
C34	C	1.483236	-0.386500	-0.000140
C35	C	1.252690	-0.433244	-0.000165
C36	C	1.254270	-0.373832	-0.000166
C37	C	1.369544	-0.350458	-0.000159
C38	C	1.371107	-0.291061	-0.000119
N39	N	1.486374	-0.267684	-0.000126
C40	C	1.600070	-0.303716	-0.000134
C41	C	1.361535	-0.653453	-0.000163
C42	C	1.359964	-0.712861	-0.000154
C43	C	1.588936	-0.725517	-0.000168
C44	C	1.590506	-0.666108	-0.000167
C45	C	1.476802	-0.630076	-0.000171
C46	C	1.603355	-0.178958	-0.000106
C47	C	1.604913	-0.119546	-0.000087
C48	C	1.375942	-0.106896	-0.000081
C49	C	1.374383	-0.166303	-0.000092
C50	C	1.488100	-0.202333	-0.000109
O51	O	1.274613	-0.254911	-0.000068
O52	O	1.698241	-0.278369	-0.000157
C53	C	1.712079	0.080543	-0.000135
C54	C	1.851469	0.082217	-0.000152
C55	C	1.471972	0.187873	-0.000149
C56	C	1.473661	0.251101	-0.000169
N57	N	1.482444	0.083797	0.356000
N58	N	1.482443	0.083786	-0.356237
C59	C	1.568320	0.045432	0.427932
C60	C	1.568317	0.045425	0.571815
C61	C	1.396559	0.122152	0.571821
C62	C	1.396557	0.122156	0.427941
C63	C	1.654207	0.007073	0.355992
C64	C	1.740090	-0.031294	0.427924
C65	C	1.740087	-0.031301	0.571807
C66	C	1.654201	0.007059	0.643758
H67	H	1.041671	0.282878	-0.000183
N68	N	1.253316	-0.068027	-0.000035
H69	H	1.271812	-0.026846	-0.000022
H70	H	1.203034	-0.075634	-0.084766
N71	N	1.654201	0.007083	0.200806
H72	H	1.739409	0.015734	0.166143
H73	H	1.636376	-0.031692	0.166255
H74	H	0.713576	0.184578	-0.000191
N75	N	1.303933	0.163532	0.350344
H76	H	1.249530	0.187834	0.417748
H77	H	1.351686	0.188912	0.290638
N78	N	1.654206	0.007055	0.798946
H79	H	1.586775	0.037179	0.833607
H80	H	1.636470	-0.031735	0.833502
H81	H	1.810010	-0.062529	0.369335
H82	H	1.188805	0.190300	-0.000134
N83	N	0.782643	0.293518	-0.000227
H84	H	0.727620	0.295183	-0.084968
H85	H	0.727677	0.295149	0.084557
N86	N	1.726000	-0.217817	-0.000102
H87	H	1.730473	-0.242744	-0.084838
H88	H	1.799180	-0.193949	-0.000039
H89	H	0.891969	-0.011650	-0.000125
N90	N	1.832724	-0.072676	0.649391
H91	H	1.818795	-0.113157	0.624354
H92	H	1.921709	-0.065678	0.624301
H93	H	1.129587	-0.008793	-0.000055
N94	N	1.729249	-0.094336	-0.000073
H95	H	1.801034	-0.126181	-0.000083
H96	H	1.734893	-0.069956	-0.084804
H97	H	1.268937	-0.624119	-0.000154
N98	N	1.303930	0.163524	0.649417
H99	H	1.316964	0.157701	0.751480
H100	H	1.317923	0.203986	0.624263
H101	H	1.803219	-0.487896	-0.000167
N102	N	1.836528	-0.373952	-0.000141
H103	H	1.908306	-0.405800	-0.000151
H104	H	1.842173	-0.349575	-0.084878
H105	H	1.681514	-0.754865	-0.000180
N106	N	1.714839	-0.640903	-0.000165
H107	H	1.720606	-0.616533	-0.084898
H108	H	1.720518	-0.616569	0.084627
N109	N	1.235634	-0.738068	-0.000123
H110	H	1.163852	-0.706222	-0.000112
H111	H	1.229981	-0.762437	-0.084861
H112	H	1.158822	-0.452264	-0.000179
N113	N	1.131637	-0.334963	-0.000162
H114	H	1.081314	-0.342528	-0.084897
H115	H	1.081411	-0.342559	0.084629
N116	N	1.250056	-0.191517	-0.000080
H117	H	1.178269	-0.159674	-0.000068
H118	H	1.244420	-0.215881	-0.084828
