data_functionalizedCrystal
_audit_creation_method	'MofGen! by Chris Wilmer'
_symmetry_space_group_name_H-M	'P1'
_symmetry_Int_Tables_number	1
_symmetry_cell_setting	triclinic
loop_
_symmetry_equiv_pos_as_xyz
  x,y,z
_cell_length_a	21.395362
_cell_length_b	10.686285
_cell_length_c	21.395355
_cell_angle_alpha	94.380557
_cell_angle_beta	90.043940
_cell_angle_gamma	85.645931
loop_
_atom_site_label
_atom_site_type_symbol
_atom_site_fract_x
_atom_site_fract_y
_atom_site_fract_z
Zn1	Zn	0.977081	-0.501939	0.335532
Zn2	Zn	0.985062	-0.712908	0.222746
Zn3	Zn	0.872298	-0.501998	0.230731
Zn4	Zn	0.880345	-0.712934	0.327450
O5	O	0.928696	-0.607445	0.279115
O6	O	1.065816	-0.529889	0.320611
O7	O	0.970076	-0.684945	0.136127
O8	O	0.879490	-0.325422	0.251357
O9	O	1.071680	-0.684888	0.237748
O10	O	0.956473	-0.325378	0.328354
O11	O	0.887229	-0.529990	0.141993
O12	O	0.785689	-0.530015	0.243520
O13	O	0.893204	-0.684932	0.416201
O14	O	0.791601	-0.684989	0.314579
O15	O	0.964276	-0.529915	0.422138
O16	O	0.977879	-0.889481	0.229911
O17	O	0.900944	-0.889500	0.306837
C18	C	0.765911	-0.607512	0.279040
C19	C	0.696272	-0.607571	0.279021
C20	C	0.666658	-0.688373	0.315957
C21	C	0.601221	-0.688342	0.315987
C22	C	0.565402	-0.607522	0.279068
C23	C	0.595024	-0.526705	0.242129
C24	C	0.660459	-0.526729	0.242106
C25	C	0.461288	-0.597357	0.223048
C26	C	0.395855	-0.597342	0.223070
C27	C	0.363578	-0.607440	0.279140
C28	C	0.396745	-0.617580	0.335189
C29	C	0.462180	-0.617604	0.335165
C30	C	0.494448	-0.607486	0.279089
C31	C	0.263010	-0.688213	0.316111
C32	C	0.197572	-0.688173	0.316141
C33	C	0.191376	-0.526542	0.242278
C34	C	0.256813	-0.526575	0.242254
C35	C	0.292626	-0.607417	0.279169
C36	C	0.941168	-0.935273	0.266644
C37	C	0.946560	-1.075519	0.261330
C38	C	1.092117	-0.607379	0.279191
C39	C	1.161757	-0.607351	0.279223
C40	C	0.928747	-0.607420	0.442539
C41	C	0.928769	-0.607409	0.512181
C42	C	0.916194	-0.278338	0.291648
C43	C	0.910866	-0.138091	0.296989
C44	C	0.928678	-0.607380	0.116330
C45	C	0.928764	-0.607035	0.046702
C46	C	0.965774	-0.526688	0.547987
C47	C	0.965771	-0.526634	0.613424
C48	C	0.928771	-0.607323	0.643053
C49	C	0.891758	-0.688049	0.607238
C50	C	0.891757	-0.688092	0.541802
C51	C	0.928146	-0.720937	0.742404
C52	C	0.928151	-0.720896	0.807838
C53	C	0.928770	-0.607189	0.844878
C54	C	0.929396	-0.493520	0.816476
C55	C	0.929395	-0.493563	0.751040
C56	C	0.928767	-0.607284	0.714006
C57	C	0.965773	-0.526403	0.951640
C58	C	0.965766	-0.526347	1.017078
C59	C	0.891756	-0.687773	1.010891
C60	C	0.891760	-0.687818	0.945453
C61	C	0.928772	-0.607135	0.915832
H62	H	0.577105	-0.754140	0.346067
N63	N	0.851850	-0.775089	0.639183
H64	H	0.806340	-0.755510	0.628504
H65	H	0.857514	-0.762785	0.686061
N66	N	0.864925	-1.066932	0.342817
H67	H	0.875500	-1.089742	0.386742
H68	H	0.821054	-1.089934	0.332114
N69	N	0.992503	-1.146685	0.215500
H70	H	1.036393	-1.123713	0.226148
H71	H	0.981874	-1.123846	0.171593
N72	N	1.005691	-0.439667	0.516038
H73	H	1.029133	-0.388521	0.548655
H74	H	0.977970	-0.381299	0.491087
H75	H	0.861620	-0.753823	0.512649
N76	N	1.005685	-0.439567	0.652055
H77	H	1.029130	-0.388461	0.623360
H78	H	1.036628	-0.490910	0.677275
N79	N	0.930070	-0.370968	0.720411
H80	H	0.891696	-0.314508	0.733914
H81	H	0.930000	-0.388356	0.673346
N82	N	0.705285	-0.775562	0.355772
H83	H	0.676591	-0.826745	0.379175
H84	H	0.730529	-0.724301	0.386752
N85	N	0.930069	-0.370869	0.856416
H86	H	0.929973	-0.388084	0.902179
H87	H	0.891696	-0.314477	0.847091
H88	H	0.861631	-0.753558	0.916299
N89	N	1.005702	-0.439404	0.919686
H90	H	1.000097	-0.451698	0.872798
H91	H	1.051189	-0.459051	0.930424
H92	H	0.995899	-0.460607	1.046231
N93	N	0.851842	-0.774794	1.042837
H94	H	0.857455	-0.762517	1.089724
H95	H	0.865015	-0.864914	1.027988
N96	N	0.497953	-0.628537	0.395612
H97	H	0.467582	-0.634933	0.431138
H98	H	0.522204	-0.551685	0.404404
N99	N	0.927477	-0.843486	0.838471
H100	H	0.965847	-0.899953	0.824964
H101	H	0.888532	-0.886332	0.825416
N102	N	0.361944	-0.628479	0.395669
H103	H	0.315458	-0.626919	0.387183
H104	H	0.370661	-0.555602	0.426509
H105	H	0.565855	-0.460899	0.212071
N106	N	0.927487	-0.843586	0.702455
H107	H	0.927100	-0.915586	0.730376
H108	H	0.966110	-0.855287	0.674895
H109	H	0.292171	-0.754032	0.346173
H110	H	0.162212	-0.460731	0.212221
N111	N	0.165628	-0.775332	0.355980
H112	H	0.198248	-0.826550	0.379357
H113	H	0.140655	-0.833626	0.328212
H114	H	0.368856	-0.589093	0.177431
N115	N	0.288759	-0.439416	0.202419
H116	H	0.256140	-0.388207	0.179037
H117	H	0.317817	-0.490689	0.171420
H118	H	0.487562	-0.589129	0.177387
N119	N	0.692404	-0.439566	0.202271
H120	H	0.659786	-0.388353	0.178889
H121	H	0.721460	-0.490843	0.171271
