data_functionalizedCrystal
_audit_creation_method	'MofGen! by Chris Wilmer'
_symmetry_space_group_name_H-M	'P1'
_symmetry_Int_Tables_number	1
_symmetry_cell_setting	triclinic
loop_
_symmetry_equiv_pos_as_xyz
  x,y,z
_cell_length_a	15.944499
_cell_length_b	15.944545
_cell_length_c	9.798715
_cell_angle_alpha	90.005236
_cell_angle_beta	90.006028
_cell_angle_gamma	83.486891
loop_
_atom_site_label
_atom_site_type_symbol
_atom_site_fract_x
_atom_site_fract_y
_atom_site_fract_z
O1	O	1.114548	0.108124	0.113579
O2	O	1.614548	0.608124	0.613579
O3	O	0.869992	0.121525	0.113565
O4	O	1.369992	0.621525	0.613565
O5	O	0.998951	-0.007452	0.113556
O6	O	1.498951	0.492548	0.613556
O7	O	0.985589	0.237101	0.113588
O8	O	1.485589	0.737101	0.613588
O9	O	0.998942	-0.007452	-0.113426
O10	O	1.498942	0.492548	0.386574
O11	O	0.869983	0.121525	-0.113417
O12	O	1.369983	0.621525	0.386583
O13	O	1.114539	0.108123	-0.113403
O14	O	1.614539	0.608123	0.386597
Zn15	Zn	0.992259	0.114824	-0.149448
Zn16	Zn	1.492259	0.614824	0.350552
Zn17	Zn	0.992271	0.114825	0.149610
Zn18	Zn	1.492271	0.614825	0.649610
O19	O	0.985580	0.237101	-0.113394
O20	O	1.485580	0.737101	0.386606
C21	C	0.838693	0.120977	0.000072
C22	C	1.338693	0.620977	0.500072
C23	C	0.745444	0.119332	0.000066
C24	C	1.245444	0.619332	0.500066
C25	C	0.453907	0.194264	0.000096
C26	C	0.953907	0.694264	0.500096
C27	C	0.514941	0.155312	0.112007
C28	C	1.014941	0.655312	0.612007
C29	C	0.409808	0.113355	0.000096
C30	C	0.909808	0.613355	0.500096
C31	C	0.514918	0.155290	-0.111779
C32	C	1.014918	0.655290	0.388221
C33	C	0.574717	0.116296	0.000079
C34	C	1.074717	0.616296	0.500079
C35	C	0.469614	0.074381	0.112100
C36	C	0.969614	0.574381	0.612100
C37	C	0.469585	0.074371	-0.111787
C38	C	0.969585	0.574371	0.388213
C39	C	0.530602	0.035360	0.000152
C40	C	1.030602	0.535360	0.500152
C41	C	0.314808	0.111664	0.000108
C42	C	0.814808	0.611664	0.500108
C43	C	0.669716	0.117981	0.000078
C44	C	1.169716	0.617981	0.500078
C45	C	0.998393	-0.038746	0.000064
C46	C	1.498393	0.461254	0.500064
C47	C	0.996732	-0.131992	0.000060
C48	C	1.496732	0.368008	0.500060
C49	C	0.911837	-0.402609	0.000082
C50	C	1.411837	0.097391	0.500082
C51	C	0.952771	-0.352031	0.112000
C52	C	1.452771	0.147969	0.612000
C53	C	0.990811	-0.467635	0.000098
C54	C	1.490811	0.032365	0.500098
C55	C	0.952783	-0.352058	-0.111787
C56	C	1.452783	0.147942	0.388213
C57	C	0.993716	-0.302722	0.000077
C58	C	1.493716	0.197278	0.500077
C59	C	1.031725	-0.418285	0.112108
C60	C	1.531725	0.081715	0.612108
C61	C	1.031725	-0.418316	-0.111779
C62	C	1.531725	0.081684	0.388221
C63	C	1.072718	-0.367771	0.000165
C64	C	1.572718	0.132229	0.500165
C65	C	0.989136	-0.562637	0.000112
C66	C	1.489136	-0.062637	0.500112
C67	C	0.995398	-0.207723	0.000074
C68	C	1.495398	0.292277	0.500074
C69	C	1.145838	0.108672	0.000093
C70	C	1.645838	0.608672	0.500093
C71	C	1.239086	0.110317	0.000108
C72	C	1.739086	0.610317	0.500108
C73	C	0.986138	0.268395	0.000101
C74	C	1.486138	0.768395	0.500101
C75	C	0.987798	0.361641	0.000114
C76	C	1.487798	0.861641	0.500114
N77	N	0.992257	0.114823	-0.353548
N78	N	1.492257	0.614823	0.146452
C79	C	0.943701	0.066538	-0.421367
C80	C	1.443701	0.566538	0.078633
C81	C	0.943713	0.066535	-0.578530
C82	C	1.443713	0.566535	-0.078530
N83	N	0.992280	0.114819	0.353710
N84	N	1.492280	0.614819	0.853710
H85	H	0.563781	-0.031846	0.000203
H86	H	1.063781	0.468154	0.500203
F87	F	0.909167	-0.314256	-0.235454
F88	F	1.409167	0.185744	0.264546
H89	H	0.449465	0.040177	-0.206411
H90	H	0.949465	0.540177	0.293589
F91	F	1.075293	-0.455941	0.235917
F92	F	1.575293	0.044059	0.735917
H93	H	1.033856	0.156157	-0.587976
H94	H	1.533856	0.656157	-0.087976
F95	F	0.541155	0.200037	-0.235438
F96	F	1.041155	0.700037	0.264562
H97	H	0.420575	0.261410	0.000213
H98	H	0.920575	0.761410	0.500213
H99	H	0.535042	0.189536	0.206623
H100	H	1.035042	0.689536	0.706623
F101	F	0.443511	0.029685	0.235898
F102	F	0.943511	0.529685	0.735898
H103	H	0.902144	0.025193	-0.636852
H104	H	1.402144	0.525193	-0.136852
F105	F	1.161684	-0.347535	0.000251
F106	F	1.661684	0.152465	0.500251
F107	F	0.822939	-0.423055	0.000217
F108	F	1.322939	0.076945	0.500217
H109	H	0.919421	-0.323090	0.206614
H110	H	1.419421	0.176910	0.706614
H111	H	1.065046	-0.447272	-0.206397
H112	H	1.565046	0.052728	0.293603
F113	F	0.889347	0.012510	-0.345185
F114	F	1.389347	0.512510	0.154815
H115	H	1.033832	0.156165	-0.411838
H116	H	1.533832	0.656165	0.088162
