data_functionalizedCrystal
_audit_creation_method	'MofGen! by Chris Wilmer'
_symmetry_space_group_name_H-M	'P1'
_symmetry_Int_Tables_number	1
_symmetry_cell_setting	triclinic
loop_
_symmetry_equiv_pos_as_xyz
  x,y,z
_cell_length_a	16.625547
_cell_length_b	12.594516
_cell_length_c	16.625539
_cell_angle_alpha	90.024195
_cell_angle_beta	90.024822
_cell_angle_gamma	90.018110
loop_
_atom_site_label
_atom_site_type_symbol
_atom_site_fract_x
_atom_site_fract_y
_atom_site_fract_z
Zn1	Zn	1.232705	-0.423742	0.456024
Zn2	Zn	1.232618	-0.601743	0.321201
Zn3	Zn	1.097866	-0.423779	0.321194
Zn4	Zn	1.097847	-0.601679	0.455981
O5	O	1.165259	-0.512736	0.388600
O6	O	1.345525	-0.447366	0.438160
O7	O	1.214715	-0.578178	0.208367
O8	O	1.115797	-0.274828	0.339095
O9	O	1.345462	-0.578143	0.339106
O10	O	1.214862	-0.274801	0.438154
O11	O	1.115713	-0.447429	0.208363
O12	O	0.985031	-0.447366	0.339053
O13	O	1.115764	-0.578032	0.568819
O14	O	0.985017	-0.578068	0.438080
O15	O	1.214844	-0.447303	0.568851
O16	O	1.214696	-0.750680	0.339064
O17	O	1.115680	-0.750633	0.438086
C18	C	0.955768	-0.512715	0.388562
C19	C	0.866147	-0.512732	0.388565
C20	C	1.165198	-0.789277	0.388589
C21	C	1.165246	-0.907582	0.388611
C22	C	0.793365	-0.512734	0.388575
C23	C	0.702056	-0.512740	0.388595
C24	C	0.629280	-0.512749	0.388615
C25	C	0.537965	-0.512757	0.388635
C26	C	1.111435	-1.047612	0.442442
C27	C	1.184943	-0.976702	0.462230
C28	C	1.091746	-0.976920	0.368859
C29	C	1.238924	-1.047458	0.408467
C30	C	1.145678	-1.047683	0.315062
C31	C	1.219236	-0.976805	0.334822
C32	C	1.375568	-0.512757	0.388639
C33	C	1.465189	-0.512766	0.388655
C34	C	1.165311	-0.512656	0.598909
C35	C	1.165334	-0.512623	0.688530
C36	C	1.165342	-0.235115	0.388629
C37	C	1.165377	-0.116809	0.388641
C38	C	1.165253	-0.512738	0.179109
C39	C	1.165387	-0.512472	0.089488
C40	C	1.165371	-0.512503	1.016706
C41	C	1.165358	-0.512540	0.925397
C42	C	1.165353	-0.512564	0.852621
C43	C	1.165339	-0.512599	0.761307
H44	H	1.065931	-1.078698	0.487987
C45	C	1.322994	-1.089135	0.431153
H46	H	1.322521	-1.164565	0.431053
H47	H	1.361293	-1.064324	0.393165
H48	H	1.337025	-1.064242	0.483252
H49	H	1.129045	-1.078882	0.252869
C50	C	1.207382	-0.934575	0.546266
H51	H	1.169050	-0.958812	0.584443
H52	H	1.259272	-0.959763	0.560681
H53	H	1.207648	-0.859152	0.545523
C54	C	1.007708	-0.935022	0.346287
H55	H	0.969499	-0.959269	0.384584
H56	H	1.008407	-0.859605	0.345969
H57	H	0.993368	-0.960356	0.294395
C58	C	1.280851	-0.935058	0.273345
H59	H	1.333061	-0.959339	0.287518
H60	H	1.267350	-0.960436	0.221245
H61	H	1.280164	-0.859634	0.273359
