data_functionalizedCrystal
_audit_creation_method	'MofGen! by Chris Wilmer'
_symmetry_space_group_name_H-M	'P1'
_symmetry_Int_Tables_number	1
_symmetry_cell_setting	triclinic
loop_
_symmetry_equiv_pos_as_xyz
  x,y,z
_cell_length_a	18.215407
_cell_length_b	25.639234
_cell_length_c	18.215405
_cell_angle_alpha	90.025422
_cell_angle_beta	89.977671
_cell_angle_gamma	89.981735
loop_
_atom_site_label
_atom_site_type_symbol
_atom_site_fract_x
_atom_site_fract_y
_atom_site_fract_z
Zn1	Zn	1.125078	-0.295586	0.293079
Zn2	Zn	1.458412	0.037748	0.626413
Zn3	Zn	1.791745	0.371081	0.959746
Zn4	Zn	1.124985	-0.208149	0.416140
Zn5	Zn	1.458318	0.125184	0.749473
Zn6	Zn	1.791652	0.458517	1.082806
Zn7	Zn	1.002009	-0.208167	0.293086
Zn8	Zn	1.335342	0.125167	0.626419
Zn9	Zn	1.668676	0.458500	0.959753
Zn10	Zn	1.001977	-0.295556	0.416103
Zn11	Zn	1.335310	0.037777	0.749436
Zn12	Zn	1.668644	0.371111	1.082770
O13	O	1.063512	-0.251864	0.354602
O14	O	1.396846	0.081469	0.687935
O15	O	1.730179	0.414802	1.021269
O16	O	1.228050	-0.283992	0.309416
O17	O	1.561384	0.049341	0.642749
O18	O	1.894717	0.382674	0.976083
O19	O	1.108646	-0.134986	0.399834
O20	O	1.441980	0.198347	0.733168
O21	O	1.775313	0.531680	1.066501
O22	O	1.018387	-0.219783	0.190101
O23	O	1.351720	0.113551	0.523434
O24	O	1.685054	0.446884	0.856767
O25	O	1.227982	-0.219753	0.399828
O26	O	1.561315	0.113580	0.733161
O27	O	1.894648	0.446914	1.066494
O28	O	1.108806	-0.284009	0.190096
O29	O	1.442139	0.049324	0.523429
O30	O	1.775472	0.382658	0.856763
O31	O	1.018296	-0.134999	0.309427
O32	O	1.351630	0.198334	0.642761
O33	O	1.684963	0.531667	0.976094
O34	O	0.899021	-0.219754	0.309392
O35	O	1.232354	0.113579	0.642725
O36	O	1.565687	0.446913	0.976059
O37	O	1.018332	-0.368725	0.399766
O38	O	1.351666	-0.035392	0.733099
O39	O	1.684999	0.297941	1.066432
O40	O	0.898997	-0.283959	0.399772
O41	O	1.232330	0.049375	0.733105
O42	O	1.565664	0.382708	1.066439
O43	O	1.108774	-0.368747	0.309381
O44	O	1.442108	-0.035414	0.642714
O45	O	1.775441	0.297920	0.976047
O46	O	1.108615	-0.219724	0.519119
O47	O	1.441948	0.113609	0.852452
O48	O	1.775282	0.446942	1.185786
O49	O	1.018242	-0.283942	0.519092
O50	O	1.351575	0.049392	0.852426
O51	O	1.684908	0.382725	1.185759
C52	C	0.872306	-0.251855	0.354579
C53	C	1.205639	0.081478	0.687913
C54	C	1.538973	0.414811	1.021246
C55	C	0.790507	-0.251864	0.354587
C56	C	1.123840	0.081470	0.687921
C57	C	1.457174	0.414803	1.021254
C58	C	0.602348	-0.285366	0.307607
C59	C	0.935681	0.047967	0.640940
C60	C	1.269015	0.381301	0.974274
C61	C	0.525489	-0.285368	0.307613
C62	C	0.858823	0.047966	0.640947
C63	C	1.192156	0.381299	0.974280
C64	C	0.525429	-0.218372	0.401618
C65	C	0.858762	0.114961	0.734951
C66	C	1.192095	0.448295	1.068284
C67	C	0.602286	-0.218368	0.401607
C68	C	0.935619	0.114965	0.734940
C69	C	1.268953	0.448299	1.068274
C70	C	0.640744	-0.251868	0.354603
C71	C	0.974077	0.081465	0.687936
C72	C	1.307410	0.414799	1.021270
C73	C	0.487028	-0.251874	0.354620
C74	C	0.820361	0.081460	0.687953
C75	C	1.153694	0.414793	1.021286
C76	C	0.403694	-0.251875	0.354627
C77	C	0.737027	0.081458	0.687960
C78	C	1.070361	0.414791	1.021294
C79	C	0.724083	-0.251866	0.354594
C80	C	1.057416	0.081468	0.687928
C81	C	1.390749	0.414801	1.021261
C82	C	1.063560	-0.388238	0.354568
C83	C	1.396893	-0.054904	0.687902
C84	C	1.730227	0.278429	1.021235
C85	C	1.063581	-0.446352	0.354554
C86	C	1.396914	-0.113018	0.687887
C87	C	1.730247	0.220315	1.021221
C88	C	1.016556	-0.806727	0.307392
C89	C	1.349889	-0.473394	0.640725
C90	C	1.683223	-0.140060	0.974058
C91	C	1.016560	-0.861331	0.307378
C92	C	1.349893	-0.527998	0.640712
C93	C	1.683227	-0.194665	0.974045
O94	O	0.976541	-0.889578	0.267360
O95	O	1.309874	-0.556245	0.600693
O96	O	1.643208	-0.222912	0.934027
N97	N	1.063605	-0.888634	0.354439
N98	N	1.396938	-0.555301	0.687772
N99	N	1.730272	-0.221968	1.021105
C100	C	1.110644	-0.861330	0.401521
C101	C	1.443977	-0.527997	0.734854
C102	C	1.777310	-0.194663	1.068187
O103	O	1.150659	-0.889567	0.441549
O104	O	1.483992	-0.556234	0.774882
O105	O	1.817326	-0.222901	1.108215
C106	C	1.110636	-0.806727	0.401537
C107	C	1.443969	-0.473393	0.734871
C108	C	1.777302	-0.140060	1.068204
C109	C	1.063593	-0.779427	0.354468
C110	C	1.396926	-0.446093	0.687802
C111	C	1.730259	-0.112760	1.021135
C112	C	0.969516	-0.779427	0.260327
C113	C	1.302850	-0.446093	0.593660
C114	C	1.636183	-0.112760	0.926994
C115	C	0.969514	-0.724826	0.260340
C116	C	1.302847	-0.391493	0.593673
C117	C	1.636180	-0.058160	0.927006
C118	C	1.016550	-0.697526	0.307417
C119	C	1.349884	-0.364192	0.640750
C120	C	1.683217	-0.030859	0.974083
C121	C	1.063590	-0.724826	0.354481
C122	C	1.396923	-0.391493	0.687814
C123	C	1.730257	-0.058159	1.021148
C124	C	1.157670	-0.779424	0.448623
C125	C	1.491003	-0.446090	0.781956
C126	C	1.824337	-0.112757	1.115289
C127	C	1.157657	-0.724816	0.448635
C128	C	1.490991	-0.391483	0.781969
C129	C	1.824324	-0.058150	1.115302
C130	C	1.110615	-0.697516	0.401567
C131	C	1.443948	-0.364183	0.734900
C132	C	1.777281	-0.030850	1.068233
C133	C	1.110624	-0.642925	0.401571
C134	C	1.443957	-0.309592	0.734904
C135	C	1.777291	0.023742	1.068237
N136	N	1.063579	-0.615622	0.354510
N137	N	1.396912	-0.282289	0.687843
N138	N	1.730246	0.051045	1.021177
C139	C	1.016542	-0.642922	0.307433
C140	C	1.349875	-0.309589	0.640766
C141	C	1.683209	0.023744	0.974100
C142	C	1.110657	-0.976001	0.401483
C143	C	1.443990	-0.642667	0.734817
C144	C	1.777323	-0.309334	1.068150
C145	C	1.110669	-1.030603	0.401464
C146	C	1.444002	-0.697270	0.734797
C147	C	1.777336	-0.363936	1.068131
C148	C	1.016584	-1.030601	0.307322
C149	C	1.349917	-0.697267	0.640655
C150	C	1.683251	-0.363934	0.973989
C151	C	1.016576	-0.975997	0.307338
C152	C	1.349909	-0.642664	0.640672
C153	C	1.683243	-0.309331	0.974005
C154	C	1.063612	-0.948698	0.354423
C155	C	1.396945	-0.615364	0.687756
C156	C	1.730278	-0.282031	1.021090
C157	C	1.016540	-0.528257	0.307463
C158	C	1.349874	-0.194924	0.640796
C159	C	1.683207	0.138409	0.974129
C160	C	1.016544	-0.473652	0.307477
C161	C	1.349877	-0.140319	0.640811
C162	C	1.683210	0.193015	0.974144
C163	C	1.110626	-0.473659	0.401621
C164	C	1.443959	-0.140326	0.734955
C165	C	1.777292	0.193007	1.068288
C166	C	1.110625	-0.528260	0.401604
C167	C	1.443959	-0.194927	0.734938
C168	C	1.777292	0.138407	1.068271
C169	C	1.063577	-0.555558	0.354523
C170	C	1.396910	-0.222224	0.687856
C171	C	1.730243	0.111109	1.021189
O172	O	1.150620	-0.614643	0.441571
O173	O	1.483954	-0.281310	0.774904
O174	O	1.817287	0.052023	1.108237
O175	O	0.976527	-0.614679	0.267419
O176	O	1.309860	-0.281345	0.600752
O177	O	1.643193	0.051988	0.934085
C178	C	1.255465	-0.251874	0.354625
C179	C	1.588799	0.081459	0.687959
C180	C	1.922132	0.414793	1.021292
C181	C	1.337264	-0.251878	0.354635
C182	C	1.670597	0.081455	0.687968
C183	C	2.003931	0.414789	1.021302
C184	C	1.063435	-0.251839	0.545808
C185	C	1.396768	0.081494	0.879142
C186	C	1.730101	0.414827	1.212475
C187	C	1.063469	-0.251846	0.627607
C188	C	1.396802	0.081487	0.960940
C189	C	1.730135	0.414821	1.294274
C190	C	1.063507	-0.116022	0.354582
C191	C	1.396840	0.217311	0.687916
C192	C	1.730174	0.550645	1.021249
C193	C	1.063629	-0.057908	0.354389
C194	C	1.396963	0.275425	0.687723
C195	C	1.730296	0.608758	1.021056
C196	C	1.063610	-0.251901	0.162649
C197	C	1.396944	0.081432	0.495982
C198	C	1.730277	0.414766	0.829316
C199	C	1.063652	-0.251917	0.080850
C200	C	1.396985	0.081417	0.414183
C201	C	1.730319	0.414750	0.747517
C202	C	1.110637	-0.218470	0.815791
C203	C	1.443970	0.114864	1.149124
C204	C	1.777303	0.448197	1.482457
C205	C	1.110670	-0.218482	0.892649
C206	C	1.444003	0.114851	1.225983
C207	C	1.777336	0.448184	1.559316
C208	C	1.016482	-0.285297	0.892661
C209	C	1.349815	0.048036	1.225995
C210	C	1.683149	0.381370	1.559328
C211	C	1.016453	-0.285287	0.815804
C212	C	1.349787	0.048047	1.149137
C213	C	1.683120	0.381380	1.482471
C214	C	1.063530	-0.251870	0.777371
C215	C	1.396863	0.081463	1.110704
C216	C	1.730196	0.414797	1.444037
C217	C	1.063591	-0.251893	0.931087
C218	C	1.396925	0.081440	1.264420
C219	C	1.730258	0.414774	1.597753
C220	C	1.063627	-0.251907	1.014420
C221	C	1.396960	0.081426	1.347754
C222	C	1.730293	0.414760	1.681087
C223	C	1.063495	-0.251856	0.694032
C224	C	1.396829	0.081477	1.027365
C225	C	1.730162	0.414810	1.360698
H226	H	0.633549	-0.191087	0.439878
H227	H	0.966882	0.142246	0.773211
H228	H	1.300215	0.475579	1.106544
N229	N	1.158786	-0.184370	0.931906
N230	N	1.492119	0.148963	1.265239
N231	N	1.825453	0.482297	1.598573
N232	N	1.205684	-0.202802	0.974740
N233	N	1.539017	0.130531	1.308073
N234	N	1.872350	0.463865	1.641406
H235	H	1.239668	-0.178710	1.002466
H236	H	1.573002	0.154624	1.335800
H237	H	1.906335	0.487957	1.669133
N238	N	1.158716	-0.184339	0.776521
N239	N	1.492049	0.148995	1.109854
N240	N	1.825382	0.482328	1.443187
N241	N	1.132834	-0.150998	0.733684
N242	N	1.466167	0.182335	1.067018
N243	N	1.799501	0.515668	1.400351
H244	H	1.166791	-0.126892	0.705950
H245	H	1.500124	0.206441	1.039284
H246	H	1.833458	0.539774	1.372617
H247	H	0.978153	-0.312503	0.923963
H248	H	1.311487	0.020831	1.257297
H249	H	1.644820	0.354164	1.590630
N250	N	0.968334	-0.319401	0.776543
N251	N	1.301667	0.013932	1.109876
N252	N	1.635001	0.347265	1.443209
N253	N	0.968320	-0.319387	0.707921
N254	N	1.301653	0.013946	1.041254
N255	N	1.634986	0.347279	1.374587
H256	H	0.934340	-0.343481	0.680190
H257	H	1.267673	-0.010148	1.013524
H258	H	1.601007	0.323185	1.346857
H259	H	0.633658	-0.312642	0.269331
H260	H	0.966991	0.020691	0.602664
H261	H	1.300325	0.354025	0.935997
H262	H	0.931210	-0.801649	0.221991
H263	H	1.264543	-0.468316	0.555324
H264	H	1.597876	-0.134982	0.888658
N265	N	0.486281	-0.319586	0.259599
N266	N	0.819614	0.013748	0.592933
N267	N	1.152947	0.347081	0.926266
N268	N	0.520630	-0.349490	0.217635
N269	N	0.853963	-0.016156	0.550968
N270	N	1.187297	0.317177	0.884301
H271	H	0.492940	-0.373657	0.183721
H272	H	0.826273	-0.040324	0.517054
H273	H	1.159606	0.293009	0.850388
H274	H	0.978236	-0.451427	0.269145
H275	H	1.311569	-0.118093	0.602478
H276	H	1.644903	0.215240	0.935811
N277	N	0.486132	-0.184158	0.449624
N278	N	0.819466	0.149175	0.782958
N279	N	1.152799	0.482509	1.116291
N280	N	0.417510	-0.184166	0.449629
N281	N	0.750844	0.149168	0.782962
N282	N	1.084177	0.482501	1.116295
H283	H	0.389757	-0.160002	0.483535
H284	H	0.723090	0.173331	0.816868
H285	H	1.056424	0.506665	1.150202
N286	N	1.158707	-0.948107	0.449571
N287	N	1.492040	-0.614774	0.782904
N288	N	1.825373	-0.281441	1.116237
N289	N	1.132796	-0.917624	0.496475
N290	N	1.466129	-0.584291	0.829808
N291	N	1.799462	-0.250957	1.163142
H292	H	1.166730	-0.897925	0.530436
H293	H	1.500064	-0.564592	0.863769
H294	H	1.833397	-0.231258	1.197102
H295	H	0.978229	-0.550477	0.269123
H296	H	1.311563	-0.217143	0.602457
H297	H	1.644896	0.116190	0.935790
H298	H	0.931204	-0.702603	0.222014
H299	H	1.264537	-0.369270	0.555348
H300	H	1.597870	-0.035937	0.888681
H301	H	1.195977	-0.801642	0.486952
H302	H	1.529310	-0.468309	0.820285
H303	H	1.862643	-0.134975	1.153618
N304	N	0.968523	-0.948121	0.259251
N305	N	1.301856	-0.614788	0.592584
N306	N	1.635189	-0.281455	0.925917
N307	N	0.926537	-0.972510	0.217218
N308	N	1.259870	-0.639176	0.550552
N309	N	1.593204	-0.305843	0.883885
H310	H	0.892597	-0.952825	0.183253
H311	H	1.225931	-0.619492	0.516586
H312	H	1.559264	-0.286159	0.849920
H313	H	0.978284	-1.052838	0.268990
H314	H	1.311617	-0.719505	0.602323
H315	H	1.644950	-0.386172	0.935656
H316	H	1.148984	-1.052826	0.439784
H317	H	1.482318	-0.719493	0.773117
H318	H	1.815651	-0.386160	1.106450
H319	H	1.195965	-0.702592	0.486974
H320	H	1.529298	-0.369259	0.820307
H321	H	1.862632	-0.035925	1.153640
H322	H	1.148939	-0.550489	0.439924
H323	H	1.482273	-0.217155	0.773257
H324	H	1.815606	0.116178	1.106590
H325	H	1.148924	-0.451421	0.439948
H326	H	1.482257	-0.118088	0.773281
H327	H	1.815591	0.215245	1.106615
