data_functionalizedCrystal
_audit_creation_method	'MofGen! by Chris Wilmer'
_symmetry_space_group_name_H-M	'P1'
_symmetry_Int_Tables_number	1
_symmetry_cell_setting	triclinic
loop_
_symmetry_equiv_pos_as_xyz
  x,y,z
_cell_length_a	16.992694
_cell_length_b	14.472310
_cell_length_c	16.956985
_cell_angle_alpha	89.997604
_cell_angle_beta	96.639294
_cell_angle_gamma	90.007614
loop_
_atom_site_label
_atom_site_type_symbol
_atom_site_fract_x
_atom_site_fract_y
_atom_site_fract_z
O1	O	1.029487	0.076728	-0.168381
O2	O	1.529487	0.576728	0.331619
O3	O	0.801321	0.076755	-0.166534
O4	O	1.301321	0.576755	0.333466
O5	O	0.929112	0.076733	-0.052252
O6	O	1.429112	0.576733	0.447748
O7	O	0.901696	0.076751	-0.282663
O8	O	1.401696	0.576751	0.217337
O9	O	0.929081	-0.076949	-0.052257
O10	O	1.429081	0.423051	0.447743
O11	O	0.801290	-0.076927	-0.166539
O12	O	1.301290	0.423073	0.333461
O13	O	1.029456	-0.076954	-0.168386
O14	O	1.529456	0.423046	0.331614
Cu15	Cu	0.915370	-0.090972	-0.167463
Cu16	Cu	1.415370	0.409028	0.332537
Cu17	Cu	0.915407	0.090774	-0.167457
Cu18	Cu	1.415407	0.590774	0.332543
O19	O	0.901665	-0.076931	-0.282668
O20	O	1.401665	0.423069	0.217332
C21	C	0.772247	-0.000082	-0.164160
C22	C	1.272247	0.499918	0.335840
C23	C	0.685663	-0.000072	-0.157069
C24	C	1.185663	0.499928	0.342931
N25	N	0.915350	-0.218803	-0.167467
N26	N	1.415350	0.281197	0.332533
C27	C	0.630987	-0.000067	-0.225484
C28	C	1.130987	0.499933	0.274516
C29	C	0.549633	-0.000081	-0.218817
C30	C	1.049633	0.499919	0.281183
C31	C	0.522955	-0.000092	-0.143734
C32	C	1.022955	0.499908	0.356266
C33	C	0.577637	-0.000099	-0.075314
C34	C	1.077637	0.499901	0.424686
C35	C	0.658990	-0.000093	-0.081982
C36	C	1.158990	0.499907	0.418018
C37	C	0.281149	-0.000119	-0.116099
C38	C	0.781149	0.499881	0.383901
C39	C	0.199790	-0.000123	-0.109436
C40	C	0.699790	0.499877	0.390564
C41	C	0.171791	-0.000106	-0.252940
C42	C	0.671791	0.499894	0.247060
C43	C	0.253146	-0.000094	-0.259601
C44	C	0.753146	0.499906	0.240399
C45	C	0.307821	-0.000106	-0.191181
C46	C	0.807821	0.499894	0.308819
N47	N	0.439798	-0.000103	-0.136918
N48	N	0.939798	0.499897	0.363082
N49	N	0.390976	-0.000102	-0.197998
N50	N	0.890976	0.499898	0.302002
C51	C	0.915406	-0.592895	-0.167454
C52	C	1.415406	-0.092895	0.332546
C53	C	0.846827	-0.553717	-0.228371
C54	C	1.346827	-0.053717	0.271629
C55	C	0.846960	-0.446629	-0.228618
C56	C	1.346960	0.053371	0.271382
C57	C	0.915377	-0.407304	-0.167460
C58	C	1.415377	0.092696	0.332540
C59	C	0.995681	-0.446149	-0.190750
C60	C	1.495681	0.053851	0.309250
C61	C	0.995289	-0.553270	-0.191189
C62	C	1.495289	-0.053270	0.308811
C63	C	0.904421	-0.553428	-0.083100
C64	C	1.404421	-0.053428	0.416900
C65	C	0.902517	-0.446300	-0.083537
C66	C	1.402517	0.053700	0.416463
C67	C	0.915366	-0.302415	-0.167463
C68	C	1.415366	0.197585	0.332537
C69	C	0.915422	-0.697783	-0.167453
C70	C	1.415422	-0.197783	0.332547
C71	C	1.058530	-0.000114	-0.170760
C72	C	1.558530	0.499886	0.329240
C73	C	1.145114	-0.000118	-0.177851
C74	C	1.645114	0.499882	0.322149
C75	C	0.930501	-0.000108	-0.022636
C76	C	1.430501	0.499892	0.477364
C77	C	0.934674	-0.000108	0.065619
C78	C	1.434674	0.499892	0.565619
N79	N	0.915434	0.218605	-0.167447
N80	N	1.415434	0.718605	0.332553
C81	C	0.864889	-0.000096	0.102150
C82	C	1.364889	0.499904	0.602150
C83	C	0.868816	-0.000099	0.185075
C84	C	1.368816	0.499901	0.685075
C85	C	0.942528	-0.000108	0.231467
C86	C	1.442528	0.499892	0.731467
C87	C	1.012319	-0.000123	0.194930
C88	C	1.512319	0.499877	0.694930
C89	C	1.008392	-0.000126	0.112007
C90	C	1.508392	0.499874	0.612007
C91	C	0.961968	-0.000106	0.480001
C92	C	1.461968	0.499894	0.980001
C93	C	0.965890	-0.000100	0.562930
C94	C	1.465890	0.499900	1.062930
C95	C	0.822386	-0.000078	0.553069
C96	C	1.322386	0.499922	1.053069
C97	C	0.818465	-0.000075	0.470144
C98	C	1.318465	0.499925	0.970144
C99	C	0.888256	-0.000095	0.433615
C100	C	1.388256	0.499905	0.933615
N101	N	0.946544	-0.000109	0.316230
N102	N	1.446544	0.499891	0.816230
N103	N	0.884240	-0.000101	0.348853
N104	N	1.384240	0.499899	0.848853
C105	C	0.900277	-0.000090	0.687716
C106	C	1.400277	0.499910	1.187716
C107	C	0.896105	-0.000088	0.599461
C108	C	1.396105	0.499912	1.099461
H109	H	0.652701	-0.000058	-0.286625
H110	H	1.152701	0.499942	0.213375
Br111	Br	0.163585	-0.000157	-0.007531
Br112	Br	0.663585	0.499843	0.492469
Br113	Br	0.355340	-0.000138	-0.023242
Br114	Br	0.855340	0.499862	0.476758
Br115	Br	1.012791	-0.594899	-0.293987
Br116	Br	1.512791	-0.094899	0.206013
H117	H	0.274860	-0.000074	-0.320741
H118	H	0.774860	0.499926	0.179259
Br119	Br	1.082363	-0.596470	-0.120409
Br120	Br	1.582363	-0.096470	0.379591
H121	H	0.811989	-0.000083	0.214815
H122	H	1.311989	0.499917	0.714815
H123	H	0.127266	-0.000098	-0.308643
H124	H	0.627266	0.499902	0.191357
H125	H	1.006572	-0.419309	-0.251757
H126	H	1.506572	0.080691	0.248243
Br127	Br	1.082403	-0.403699	-0.119127
Br128	Br	1.582403	0.096301	0.380873
H129	H	0.847427	-0.580490	-0.061994
H130	H	1.347427	-0.080490	0.438006
Br131	Br	1.103104	-0.000157	0.062428
Br132	Br	1.603104	0.499843	0.562428
Br133	Br	0.727676	-0.000051	0.602649
Br134	Br	1.227676	0.499949	1.102649
Br135	Br	0.475433	-0.000072	-0.311671
Br136	Br	0.975433	0.499928	0.188329
Br137	Br	0.718423	-0.000048	0.407188
Br138	Br	1.218423	0.499952	0.907188
Br139	Br	1.065935	-0.000102	0.625891
Br140	Br	1.565935	0.499898	1.125891
Br141	Br	0.747163	-0.402851	-0.204268
Br142	Br	1.247163	0.097149	0.295732
Br143	Br	1.056684	-0.000100	0.430436
Br144	Br	1.556684	0.499900	0.930436
H145	H	0.843472	-0.420912	-0.065983
H146	H	1.343472	0.079088	0.434017
H147	H	0.555910	-0.000121	-0.014180
H148	H	1.055910	0.499879	0.485820
H149	H	0.949635	-0.419535	-0.035679
H150	H	1.449635	0.080465	0.464321
H151	H	0.954496	-0.578763	-0.037706
H152	H	1.454496	-0.078763	0.462294
Br153	Br	0.764845	-0.000075	0.039197
Br154	Br	1.264845	0.499925	0.539197
H155	H	0.703507	-0.000096	-0.026271
H156	H	1.203507	0.499904	0.473729
Br157	Br	0.746695	-0.596660	-0.204229
Br158	Br	1.246695	-0.096660	0.295771
H159	H	0.853161	-0.580623	-0.290503
H160	H	1.353161	-0.080623	0.209497
Br161	Br	1.112359	-0.000150	0.257890
Br162	Br	1.612359	0.499850	0.757890
H163	H	0.853416	-0.420991	-0.291107
H164	H	1.353416	0.079009	0.208893
