data_functionalizedCrystal
_audit_creation_method	'MofGen! by Chris Wilmer'
_symmetry_space_group_name_H-M	'P1'
_symmetry_Int_Tables_number	1
_symmetry_cell_setting	triclinic
loop_
_symmetry_equiv_pos_as_xyz
  x,y,z
_cell_length_a	12.759395
_cell_length_b	21.295417
_cell_length_c	12.759387
_cell_angle_alpha	89.961355
_cell_angle_beta	89.982262
_cell_angle_gamma	90.029548
loop_
_atom_site_label
_atom_site_type_symbol
_atom_site_fract_x
_atom_site_fract_y
_atom_site_fract_z
Zn1	Zn	1.606142	-0.250571	-0.593926
Zn2	Zn	1.605991	-0.355856	-0.418226
Zn3	Zn	1.430445	-0.250605	-0.418266
Zn4	Zn	1.430386	-0.355806	-0.593868
O5	O	1.518241	-0.303210	-0.506072
O6	O	1.753143	-0.264545	-0.570626
O7	O	1.582667	-0.341929	-0.271210
O8	O	1.453839	-0.162511	-0.441609
O9	O	1.753032	-0.341897	-0.441540
O10	O	1.582923	-0.162486	-0.570665
O11	O	1.453693	-0.264602	-0.271240
O12	O	1.283416	-0.264553	-0.441553
O13	O	1.453739	-0.341812	-0.740897
O14	O	1.283373	-0.341844	-0.570567
O15	O	1.582866	-0.264496	-0.740940
O16	O	1.582610	-0.443939	-0.441484
O17	O	1.453593	-0.443902	-0.570528
C18	C	1.245274	-0.303197	-0.506059
C19	C	1.128497	-0.303207	-0.506078
C20	C	1.128592	-0.222790	-0.640713
C21	C	1.073779	-0.182589	-0.708038
C22	C	0.964058	-0.182601	-0.708051
C23	C	0.909147	-0.222816	-0.640729
C24	C	0.963960	-0.263016	-0.573404
C25	C	1.073684	-0.263002	-0.573400
C26	C	0.963864	-0.343429	-0.438765
C27	C	1.073586	-0.343422	-0.438756
C28	C	0.908953	-0.383644	-0.371443
C29	C	0.963766	-0.423849	-0.304121
C30	C	1.073494	-0.423837	-0.304112
C31	C	1.128399	-0.383623	-0.371430
C32	C	1.518107	-0.466761	-0.506018
C33	C	1.518146	-0.536730	-0.506031
C34	C	1.585321	-0.569526	-0.573279
C35	C	1.585358	-0.635269	-0.573304
C36	C	1.518231	-0.668212	-0.506064
C37	C	1.451043	-0.635407	-0.438811
C38	C	1.451000	-0.569666	-0.438795
N39	N	1.510293	-0.771482	-0.414117
N40	N	1.510340	-0.833933	-0.414136
C41	C	1.518354	-0.866287	-0.506111
N42	N	1.526340	-0.833830	-0.598069
N43	N	1.526299	-0.771372	-0.598049
C44	C	1.518269	-0.739497	-0.506075
C45	C	1.585573	-0.970369	-0.573393
C46	C	1.585603	-1.036113	-0.573421
C47	C	1.451293	-1.036250	-0.438918
C48	C	1.451257	-0.970508	-0.438900
C49	C	1.518403	-0.937571	-0.506136
C50	C	1.792274	-0.303223	-0.506085
C51	C	1.909051	-0.303228	-0.506091
C52	C	1.518312	-0.303145	-0.780105
C53	C	1.518343	-0.303117	-0.896882
C54	C	1.518404	-0.139019	-0.506148
C55	C	1.518474	-0.069051	-0.506181
C56	C	1.384052	-0.222590	-0.896932
C57	C	1.316925	-0.182314	-0.951817
C58	C	1.316957	-0.182291	-1.061539
C59	C	1.384120	-0.222550	-1.116378
C60	C	1.451246	-0.262826	-1.061492
C61	C	1.451209	-0.262843	-0.951768
C62	C	1.585530	-0.343355	-1.061442
C63	C	1.585506	-0.343376	-0.951721
C64	C	1.652693	-0.383614	-1.116281
C65	C	1.719826	-0.423888	-1.061395
C66	C	1.719793	-0.423909	-0.951667
C67	C	1.652632	-0.383652	-0.896835
C68	C	1.518230	-0.303229	-0.233104
C69	C	1.518404	-0.303079	-0.116328
H70	H	1.118117	-0.456571	-0.249283
C71	C	1.377204	-0.671642	-0.364844
C72	C	1.422805	-0.716851	-0.282407
C73	C	1.348960	-0.753085	-0.208441
C74	C	1.229512	-0.744111	-0.216912
C75	C	1.183904	-0.698900	-0.299353
C76	C	1.257750	-0.662666	-0.373319
H77	H	1.511233	-0.723496	-0.276133
H78	H	1.382722	-0.786553	-0.147413
H79	H	1.174847	-0.770934	-0.162158
H80	H	1.095477	-0.692255	-0.305627
H81	H	1.223987	-0.629198	-0.434347
C82	C	1.377108	-0.533586	-0.364812
C83	C	1.303262	-0.569816	-0.290850
C84	C	1.229372	-0.533734	-0.216865
C85	C	1.229327	-0.461422	-0.216842
C86	C	1.303176	-0.425187	-0.290806
C87	C	1.377067	-0.461269	-0.364792
H88	H	1.303293	-0.623350	-0.290865
H89	H	1.174704	-0.560558	-0.162111
H90	H	1.174629	-0.434712	-0.162073
H91	H	1.303146	-0.371653	-0.290792
H92	H	1.431734	-0.434445	-0.419545
H93	H	1.217740	-0.383606	-0.371424
H94	H	1.118500	-0.149846	-0.762849
H95	H	1.396561	-0.943803	-0.384136
C96	C	1.377445	-1.072478	-0.364955
C97	C	1.386070	-1.063493	-0.245523
C98	C	1.312214	-1.099724	-0.171562
C99	C	1.229732	-1.144938	-0.217033
C100	C	1.221103	-1.153925	-0.336470
C101	C	1.294959	-1.117694	-0.410431
H102	H	1.447132	-1.030021	-0.211857
H103	H	1.318603	-1.093071	-0.083146
H104	H	1.175060	-1.171758	-0.162282
H105	H	1.160042	-1.187397	-0.370136
H106	H	1.288571	-1.124347	-0.498847
C107	C	1.793697	-0.468169	-1.121716
C108	C	1.793726	-0.468149	-1.242407
C109	C	1.867600	-0.512430	-1.302732
C110	C	1.941445	-0.556731	-1.242368
C111	C	1.941419	-0.556752	-1.121671
C112	C	1.867545	-0.512471	-1.061345
H113	H	1.739059	-0.435354	-1.287098
H114	H	1.867619	-0.512414	-1.392080
H115	H	1.996131	-0.589510	-1.287025
H116	H	1.996086	-0.589548	-1.076980
H117	H	1.867526	-0.512487	-0.971997
C118	C	1.659503	-1.072194	-0.647394
C119	C	1.613970	-1.117371	-0.729859
C120	C	1.687873	-1.153454	-0.803831
C121	C	1.807307	-1.144360	-0.795338
C122	C	1.852846	-1.099180	-0.712871
C123	C	1.778943	-1.063097	-0.638899
H124	H	1.525552	-1.124106	-0.736148
H125	H	1.654161	-1.186899	-0.864879
H126	H	1.862014	-1.171071	-0.850097
H127	H	1.941264	-1.092446	-0.706581
H128	H	1.812655	-1.029652	-0.577851
C129	C	1.243048	-0.138031	-0.891495
C130	C	1.243006	-0.138051	-0.770805
C131	C	1.169126	-0.093770	-0.710487
C132	C	1.095286	-0.049470	-0.770859
C133	C	1.095324	-0.049449	-0.891556
C134	C	1.169205	-0.093730	-0.951874
H135	H	1.297669	-0.170846	-0.726107
H136	H	1.169098	-0.093786	-0.621138
H137	H	1.040595	-0.016691	-0.726208
H138	H	1.040661	-0.016654	-0.936253
H139	H	1.169233	-0.093714	-1.041222
H140	H	1.217934	-0.222774	-0.640704
C141	C	1.659162	-0.533297	-0.647254
C142	C	1.733045	-0.569378	-0.721239
C143	C	1.806879	-0.533147	-0.795221
C144	C	1.806831	-0.460834	-0.795217
C145	C	1.732946	-0.424749	-0.721229
C146	C	1.659112	-0.460980	-0.647248
H147	H	1.733082	-0.622912	-0.721244
H148	H	1.861574	-0.559861	-0.849991
H149	H	1.861488	-0.434014	-0.849983
H150	H	1.732908	-0.371215	-0.721224
H151	H	1.604417	-0.434266	-0.592477
C152	C	1.659256	-0.671357	-0.647278
C153	C	1.741785	-0.716532	-0.601821
C154	C	1.815681	-0.752620	-0.675793
C155	C	1.807050	-0.743532	-0.795222
C156	C	1.724518	-0.698355	-0.840685
C157	C	1.650621	-0.662267	-0.766713
H158	H	1.748177	-0.723262	-0.513407
H159	H	1.876777	-0.786063	-0.642138
H160	H	1.861752	-0.770246	-0.849980
H161	H	1.718125	-0.691625	-0.929098
H162	H	1.589526	-0.628824	-0.800368
H163	H	0.919429	-0.149862	-0.762868
H164	H	1.384130	-0.222534	-1.205719
H165	H	0.819806	-0.222816	-0.640737
C166	C	1.659425	-0.934133	-0.647354
C167	C	1.733312	-0.970213	-0.721337
C168	C	1.807166	-0.933979	-0.795296
C169	C	1.807133	-0.861667	-0.795271
C170	C	1.733244	-0.825583	-0.721285
C171	C	1.659390	-0.861817	-0.647326
H172	H	1.733339	-1.023747	-0.721358
H173	H	1.861864	-0.960691	-0.850066
H174	H	1.861805	-0.834844	-0.850020
H175	H	1.733217	-0.772049	-0.721264
H176	H	1.604692	-0.835105	-0.592556
H177	H	0.819612	-0.383649	-0.371456
H178	H	0.919049	-0.456586	-0.249309
H179	H	1.774458	-0.456705	-0.906985
H180	H	1.384028	-0.222599	-0.807590
H181	H	1.262295	-0.149496	-1.106227
H182	H	1.652709	-0.383596	-1.205622
H183	H	1.652602	-0.383663	-0.807494
