data_functionalizedCrystal
_audit_creation_method	'MofGen! by Chris Wilmer'
_symmetry_space_group_name_H-M	'P1'
_symmetry_Int_Tables_number	1
_symmetry_cell_setting	triclinic
loop_
_symmetry_equiv_pos_as_xyz
  x,y,z
_cell_length_a	19.805407
_cell_length_b	21.295417
_cell_length_c	21.295411
_cell_angle_alpha	89.978356
_cell_angle_beta	89.974514
_cell_angle_gamma	90.030507
loop_
_atom_site_label
_atom_site_type_symbol
_atom_site_fract_x
_atom_site_fract_y
_atom_site_fract_z
Zn1	Zn	1.034756	-0.250681	-0.355927
Zn2	Zn	1.368089	0.082652	-0.022594
Zn3	Zn	1.701423	0.415986	0.310740
Zn4	Zn	1.034651	-0.355933	-0.250652
Zn5	Zn	1.367984	-0.022599	0.082681
Zn6	Zn	1.701318	0.310734	0.416014
Zn7	Zn	0.921559	-0.250681	-0.250670
Zn8	Zn	1.254892	0.082652	0.082663
Zn9	Zn	1.588226	0.415985	0.415996
Zn10	Zn	0.921526	-0.355916	-0.355882
Zn11	Zn	1.254859	-0.022583	-0.022549
Zn12	Zn	1.588193	0.310750	0.310784
O13	O	0.978123	-0.303303	-0.303283
O14	O	1.311456	0.030031	0.030050
O15	O	1.644790	0.363364	0.363384
O16	O	1.129459	-0.264650	-0.341973
O17	O	1.462792	0.068684	-0.008640
O18	O	1.796125	0.402017	0.324693
O19	O	1.019619	-0.341978	-0.162565
O20	O	1.352952	-0.008645	0.170768
O21	O	1.686286	0.324689	0.504101
O22	O	0.936632	-0.162592	-0.264659
O23	O	1.269966	0.170741	0.068674
O24	O	1.603299	0.504075	0.402008
O25	O	1.129381	-0.341978	-0.264628
O26	O	1.462715	-0.008644	0.068705
O27	O	1.796048	0.324689	0.402038
O28	O	1.019798	-0.162592	-0.341991
O29	O	1.353131	0.170742	-0.008657
O30	O	1.686464	0.504075	0.324676
O31	O	0.936531	-0.264650	-0.162578
O32	O	1.269864	0.068683	0.170755
O33	O	1.603197	0.402016	0.504088
O34	O	0.826838	-0.264634	-0.264616
O35	O	1.160171	0.068699	0.068718
O36	O	1.493505	0.402032	0.402051
O37	O	0.936576	-0.341949	-0.443978
O38	O	1.269910	-0.008616	-0.110644
O39	O	1.603243	0.324717	0.222689
O40	O	0.826814	-0.341950	-0.341915
O41	O	1.160147	-0.008617	-0.008581
O42	O	1.493480	0.324717	0.324752
O43	O	1.019766	-0.264633	-0.444010
O44	O	1.353099	0.068700	-0.110677
O45	O	1.686432	0.402033	0.222656
O46	O	1.019587	-0.444020	-0.264585
O47	O	1.352920	-0.110687	0.068748
O48	O	1.686254	0.222647	0.402081
O49	O	0.936475	-0.444008	-0.341897
O50	O	1.269808	-0.110674	-0.008564
O51	O	1.603141	0.222659	0.324769
C52	C	0.802267	-0.303291	-0.303263
C53	C	1.135600	0.030043	0.030071
C54	C	1.468934	0.363376	0.363404
C55	C	0.727035	-0.303301	-0.303269
C56	C	1.060368	0.030033	0.030064
C57	C	1.393702	0.363366	0.363398
C58	C	0.978034	-0.466854	-0.303248
C59	C	1.311367	-0.133521	0.030085
C60	C	1.644701	0.199812	0.363419
C61	C	0.978058	-0.536823	-0.303254
C62	C	1.311391	-0.203489	0.030079
C63	C	1.644725	0.129844	0.363412
C64	C	0.691696	-0.343620	-0.343453
C65	C	1.025029	-0.010286	-0.010120
C66	C	1.358363	0.323047	0.323213
C67	C	0.621007	-0.343621	-0.343462
C68	C	0.954341	-0.010287	-0.010129
C69	C	1.287674	0.323046	0.323205
C70	C	0.585659	-0.303306	-0.303283
C71	C	0.918993	0.030028	0.030050
C72	C	1.252326	0.363361	0.363384
C73	C	0.621003	-0.262982	-0.263097
C74	C	0.954337	0.070351	0.070236
C75	C	1.287670	0.403684	0.403570
C76	C	0.691690	-0.262979	-0.263092
C77	C	1.025024	0.070355	0.070242
C78	C	1.358357	0.403688	0.403575
C79	C	0.335930	-0.262996	-0.263118
C80	C	0.669263	0.070337	0.070216
C81	C	1.002597	0.403670	0.403549
C82	C	0.265238	-0.263005	-0.263125
C83	C	0.598571	0.070329	0.070209
C84	C	0.931905	0.403662	0.403542
C85	C	0.265247	-0.343638	-0.343488
C86	C	0.598580	-0.010305	-0.010155
C87	C	0.931914	0.323028	0.323179
C88	C	0.335934	-0.343635	-0.343483
C89	C	0.669267	-0.010301	-0.010150
C90	C	1.002601	0.323032	0.323184
C91	C	0.371272	-0.303309	-0.303299
C92	C	0.704605	0.030024	0.030034
C93	C	1.037939	0.363357	0.363367
C94	C	0.447920	-0.303308	-0.303291
C95	C	0.781254	0.030026	0.030042
C96	C	1.114587	0.363359	0.363376
C97	C	0.509012	-0.303310	-0.303288
C98	C	0.842346	0.030023	0.030046
C99	C	1.175679	0.363357	0.363379
C100	C	1.021373	-0.569675	-0.263039
C101	C	1.354707	-0.236341	0.070294
C102	C	1.688040	0.096992	0.403628
C103	C	1.021405	-0.635417	-0.263053
C104	C	1.354738	-0.302084	0.070280
C105	C	1.688072	0.031250	0.403613
C106	C	0.978109	-0.668305	-0.303276
C107	C	1.311443	-0.334972	0.030057
C108	C	1.644776	-0.001638	0.363391
C109	C	0.934791	-0.635445	-0.343499
C110	C	1.268125	-0.302112	-0.010166
C111	C	1.601458	0.031222	0.323168
C112	C	0.934766	-0.569704	-0.343488
C113	C	1.268099	-0.236370	-0.010155
C114	C	1.601432	0.096963	0.323179
N115	N	0.918900	-0.771572	-0.308068
N116	N	1.252233	-0.438238	0.025265
N117	N	1.585566	-0.104905	0.358599
N118	N	0.918926	-0.834023	-0.308075
N119	N	1.252259	-0.500690	0.025259
N120	N	1.585593	-0.167356	0.358592
C121	C	0.978185	-0.866380	-0.303312
C122	C	1.311519	-0.533046	0.030021
C123	C	1.644852	-0.199713	0.363355
N124	N	1.037419	-0.833926	-0.298530
N125	N	1.370752	-0.500592	0.034803
N126	N	1.704085	-0.167259	0.368136
N127	N	1.037392	-0.771468	-0.298520
N128	N	1.370725	-0.438135	0.034813
N129	N	1.704058	-0.104802	0.368146
C130	C	0.978133	-0.739590	-0.303293
C131	C	1.311466	-0.406257	0.030041
C132	C	1.644799	-0.072924	0.363374
C133	C	1.021538	-0.970517	-0.263110
C134	C	1.354872	-0.637184	0.070223
C135	C	1.688205	-0.303851	0.403557
C136	C	1.021571	-1.036261	-0.263129
C137	C	1.354905	-0.702928	0.070205
C138	C	1.688238	-0.369594	0.403538
C139	C	0.934952	-1.036288	-0.343571
C140	C	1.268285	-0.702954	-0.010238
C141	C	1.601618	-0.369621	0.323096
C142	C	0.934925	-0.970545	-0.343556
C143	C	1.268258	-0.637212	-0.010222
C144	C	1.601592	-0.303879	0.323111
C145	C	0.978217	-0.937664	-0.303322
C146	C	1.311551	-0.604331	0.030011
C147	C	1.644884	-0.270997	0.363345
C148	C	1.154666	-0.303315	-0.303304
C149	C	1.487999	0.030018	0.030030
C150	C	1.821332	0.363351	0.363363
C151	C	1.229898	-0.303321	-0.303313
C152	C	1.563231	0.030013	0.030021
C153	C	1.896564	0.363346	0.363354
C154	C	0.978179	-0.303290	-0.467473
C155	C	1.311512	0.030044	-0.134140
C156	C	1.644846	0.363377	0.199193
C157	C	0.978203	-0.303284	-0.537441
C158	C	1.311536	0.030049	-0.204108
C159	C	1.644870	0.363383	0.129225
C160	C	0.978230	-0.139113	-0.303332
C161	C	1.311564	0.194221	0.030002
C162	C	1.644897	0.527554	0.363335
C163	C	0.978276	-0.069144	-0.303353
C164	C	1.311610	0.264189	0.029981
C165	C	1.644943	0.597522	0.363314
C166	C	1.021518	-0.263024	-0.570326
C167	C	1.354851	0.070310	-0.236993
C168	C	1.688185	0.403643	0.096340
C169	C	1.021517	-0.262996	-0.636069
C170	C	1.354850	0.070337	-0.302735
C171	C	1.688184	0.403670	0.030598
C172	C	0.978208	-0.303241	-0.668924
C173	C	1.311542	0.030093	-0.335591
C174	C	1.644875	0.363426	-0.002257
C175	C	0.934885	-0.343504	-0.636031
C176	C	1.268218	-0.010170	-0.302698
C177	C	1.601552	0.323163	0.030635
C178	C	0.934882	-0.343525	-0.570290
C179	C	1.268216	-0.010192	-0.236957
C180	C	1.601549	0.323141	0.096377
N181	N	0.972986	-0.358308	-0.772139
N182	N	1.306320	-0.024975	-0.438806
N183	N	1.639653	0.308358	-0.105473
N184	N	0.972993	-0.358286	-0.834591
N185	N	1.306326	-0.024953	-0.501257
N186	N	1.639659	0.308381	-0.167924
C187	C	0.978213	-0.303177	-0.866999
C188	C	1.311546	0.030157	-0.533666
C189	C	1.644879	0.363490	-0.200332
N190	N	0.983439	-0.248089	-0.834596
N191	N	1.316772	0.085244	-0.501263
N192	N	1.650106	0.418577	-0.167930
N193	N	0.983436	-0.248113	-0.772139
N194	N	1.316769	0.085221	-0.438806
N195	N	1.650103	0.418554	-0.105472
C196	C	0.978206	-0.303221	-0.740209
C197	C	1.311539	0.030112	-0.406876
C198	C	1.644873	0.363445	-0.073543
C199	C	1.021529	-0.262884	-0.971169
C200	C	1.354862	0.070450	-0.637836
C201	C	1.688195	0.403783	-0.304503
C202	C	1.021523	-0.262855	-1.036913
C203	C	1.354856	0.070478	-0.703580
C204	C	1.688190	0.403812	-0.370246
C205	C	0.934895	-0.343368	-1.036874
C206	C	1.268228	-0.010035	-0.703541
C207	C	1.601561	0.323299	-0.370208
C208	C	0.934897	-0.343391	-0.971132
C209	C	1.268230	-0.010057	-0.637798
C210	C	1.601563	0.323276	-0.304465
C211	C	0.978217	-0.303149	-0.938283
C212	C	1.311551	0.030184	-0.604950
C213	C	1.644884	0.363517	-0.271617
C214	C	0.978106	-0.303271	-0.139731
C215	C	1.311439	0.030063	0.193602
C216	C	1.644773	0.363396	0.526935
C217	C	0.978213	-0.303099	-0.069764
C218	C	1.311546	0.030234	0.263570
C219	C	1.644880	0.363568	0.596903
H220	H	0.720471	-0.376451	-0.376170
H221	H	1.053805	-0.043118	-0.042836
H222	H	1.387138	0.290216	0.290497
Br223	Br	1.080136	-0.525053	-0.208445
Br224	Br	1.413470	-0.191719	0.124888
Br225	Br	1.746803	0.141614	0.458221
H226	H	0.899625	-0.376129	-1.063624
H227	H	1.232958	-0.042796	-0.730291
H228	H	1.566292	0.290538	-0.396958
Br229	Br	0.875977	-0.525115	-0.398071
Br230	Br	1.209310	-0.191782	-0.064738
Br231	Br	1.542644	0.141551	0.268596
Br232	Br	1.080323	-0.208221	-1.081544
Br233	Br	1.413657	0.125113	-0.748211
Br234	Br	1.746990	0.458446	-0.414877
Br235	Br	0.876092	-0.398167	-0.525657
Br236	Br	1.209425	-0.064834	-0.192324
Br237	Br	1.542759	0.268499	0.141009
Br238	Br	1.080289	-0.925889	-0.208507
Br239	Br	1.413622	-0.592556	0.124827
Br240	Br	1.746955	-0.259222	0.458160
H241	H	0.592237	-0.376453	-0.376184
H242	H	0.925571	-0.043120	-0.042850
H243	H	1.258904	0.290214	0.290483
Br244	Br	1.080289	-0.208338	-0.680708
Br245	Br	1.413622	0.124995	-0.347375
Br246	Br	1.746956	0.458329	-0.014041
H247	H	0.899629	-0.376179	-0.944357
H248	H	1.232962	-0.042845	-0.611023
H249	H	1.566296	0.290488	-0.277690
H250	H	0.364694	-0.230166	-0.230393
H251	H	0.698027	0.103168	0.102940
H252	H	1.031360	0.436501	0.436274
H253	H	1.056799	-0.230113	-0.944422
H254	H	1.390133	0.103220	-0.611089
H255	H	1.723466	0.436554	-0.277756
H256	H	1.056848	-1.063008	-0.230382
H257	H	1.390181	-0.729675	0.102951
H258	H	1.723515	-0.396341	0.436285
Br259	Br	0.217285	-0.398368	-0.398023
Br260	Br	0.550618	-0.065035	-0.064690
Br261	Br	0.883952	0.268299	0.268644
H262	H	0.899621	-0.376269	-0.662786
H263	H	1.232954	-0.042935	-0.329453
H264	H	1.566287	0.290398	0.003880
H265	H	0.899703	-1.063064	-0.376324
H266	H	1.233036	-0.729731	-0.042991
H267	H	1.566369	-0.396398	0.290343
H268	H	0.364711	-0.376465	-0.376199
H269	H	0.698044	-0.043132	-0.042865
H270	H	1.031378	0.290201	0.290468
H271	H	0.236459	-0.230171	-0.230406
H272	H	0.569793	0.103162	0.102927
H273	H	0.903126	0.436495	0.436261
Br274	Br	1.080194	-0.680012	-0.208472
Br275	Br	1.413528	-0.346679	0.124861
Br276	Br	1.746861	-0.013346	0.458195
H277	H	0.592217	-0.230155	-0.230385
H278	H	0.925551	0.103179	0.102948
H279	H	1.258884	0.436512	0.436282
H280	H	0.899651	-0.943795	-0.376300
H281	H	1.232984	-0.610462	-0.042967
H282	H	1.566317	-0.277129	0.290367
H283	H	0.720463	-0.230144	-0.230373
H284	H	1.053796	0.103190	0.102961
H285	H	1.387129	0.436523	0.436294
H286	H	1.056792	-0.230255	-0.543585
H287	H	1.390126	0.103078	-0.210252
H288	H	1.723459	0.436411	0.123082
H289	H	0.899541	-0.662227	-0.376250
H290	H	1.232874	-0.328893	-0.042916
H291	H	1.566208	0.004440	0.290417
