data_functionalizedCrystal
_audit_creation_method	'MofGen! by Chris Wilmer'
_symmetry_space_group_name_H-M	'P1'
_symmetry_Int_Tables_number	1
_symmetry_cell_setting	triclinic
loop_
_symmetry_equiv_pos_as_xyz
  x,y,z
_cell_length_a	18.101398
_cell_length_b	14.908520
_cell_length_c	14.908308
_cell_angle_alpha	83.639235
_cell_angle_beta	93.272964
_cell_angle_gamma	86.683700
loop_
_atom_site_label
_atom_site_type_symbol
_atom_site_fract_x
_atom_site_fract_y
_atom_site_fract_z
Zn1	Zn	1.088449	0.389993	-0.532704
Zn2	Zn	1.588449	0.889993	-0.032704
Zn3	Zn	1.088365	0.532638	-0.390074
Zn4	Zn	1.588365	1.032638	0.109926
Zn5	Zn	0.972193	0.381283	-0.381347
Zn6	Zn	1.472193	0.881283	0.118653
Zn7	Zn	0.957000	0.541297	-0.541367
Zn8	Zn	1.457000	1.041297	-0.041367
O9	O	1.026502	0.461303	-0.461373
O10	O	1.526502	0.961303	0.038627
O11	O	1.192069	0.408937	-0.513810
O12	O	1.692069	0.908937	-0.013810
O13	O	1.079278	0.505292	-0.262257
O14	O	1.579278	1.005292	0.237743
O15	O	0.994008	0.255774	-0.394147
O16	O	1.494008	0.755774	0.105853
O17	O	1.192007	0.513738	-0.409021
O18	O	1.692007	1.013738	0.090979
O19	O	1.079421	0.262174	-0.505348
O20	O	1.579421	0.762174	-0.005348
O21	O	0.993927	0.394092	-0.255845
O22	O	1.493927	0.894092	0.244155
O23	O	0.866547	0.402487	-0.402547
O24	O	1.366547	0.902487	0.097453
O25	O	0.968114	0.528495	-0.666877
O26	O	1.468114	1.028495	-0.166877
O27	O	0.855385	0.520049	-0.520113
O28	O	1.355385	1.020049	-0.020113
O29	O	1.064689	0.417333	-0.660513
O30	O	1.564689	0.917333	-0.160513
O31	O	1.064546	0.660451	-0.417421
O32	O	1.564546	1.160451	0.082579
O33	O	0.968032	0.666812	-0.528575
O34	O	1.468032	1.166812	-0.028575
C35	C	1.014650	0.696475	-0.474905
C36	C	1.514650	1.196475	0.025095
C37	C	1.009647	0.797085	-0.480724
C38	C	1.509647	1.297085	0.019276
C39	C	0.834095	0.461263	-0.461323
C40	C	1.334095	0.961263	0.038677
C41	C	0.751781	0.461269	-0.461325
C42	C	1.251781	0.961269	0.038675
C43	C	1.014716	0.474851	-0.697455
C44	C	1.514716	0.974851	-0.197455
C45	C	1.009694	0.480625	-0.798059
C46	C	1.509694	0.980625	-0.298059
C47	C	0.452683	0.461330	-0.461404
C48	C	0.952683	0.961330	0.038596
C49	C	0.491007	0.387034	-0.387756
C50	C	0.991007	0.887034	0.112244
C51	C	0.576631	0.387205	-0.387470
C52	C	1.076631	0.887205	0.112530
C53	C	0.601069	0.461299	-0.461365
C54	C	1.101069	0.961299	0.038635
C55	C	0.566492	0.555147	-0.440802
C56	C	1.066492	1.055147	0.059198
C57	C	0.480890	0.554728	-0.440295
C58	C	0.980890	1.054728	0.059705
C59	C	0.480707	0.442618	-0.555827
C60	C	0.980707	0.942618	-0.055827
C61	C	0.566490	0.440465	-0.555182
C62	C	1.066490	0.940465	-0.055182
C63	C	0.684930	0.461288	-0.461345
C64	C	1.184930	0.961288	0.038655
C65	C	0.368822	0.461348	-0.461423
C66	C	0.868822	0.961348	0.038577
C67	C	1.219659	0.461343	-0.461423
C68	C	1.719659	0.961343	0.038577
C69	C	1.301972	0.461360	-0.461444
C70	C	1.801972	0.961360	0.038556
C71	C	1.038419	0.225213	-0.447808
C72	C	1.538419	0.725213	0.052192
C73	C	1.043497	0.124606	-0.442027
C74	C	1.543497	0.624606	0.057973
C75	C	1.100836	0.979461	-0.376008
C76	C	1.600836	1.479461	0.123992
C77	C	1.096137	1.073993	-0.381473
C78	C	1.596137	1.573993	0.118527
C79	C	0.995554	1.080681	-0.497123
C80	C	1.495554	1.580681	0.002877
C81	C	1.000253	0.986150	-0.491658
C82	C	1.500253	1.486150	0.008342
C83	C	1.052895	0.935543	-0.431097
C84	C	1.552895	1.435543	0.068903
C85	C	1.057590	0.841009	-0.425629
C86	C	1.557590	1.341009	0.074371
C87	C	0.957010	0.847700	-0.541282
C88	C	1.457010	1.347700	-0.041282
C89	C	0.952312	0.942232	-0.546747
C90	C	1.452312	1.442232	-0.046747
C91	C	1.100819	0.375700	-0.980477
C92	C	1.600819	0.875700	-0.480477
C93	C	1.096103	0.381122	-1.075004
C94	C	1.596103	0.881122	-0.575004
C95	C	0.995541	0.496885	-1.081639
C96	C	1.495541	0.996885	-0.581639
C97	C	1.000258	0.491463	-0.987113
C98	C	1.500258	0.991463	-0.487113
C99	C	1.052899	0.430870	-0.936535
C100	C	1.552899	0.930870	-0.436535
C101	C	1.057619	0.425453	-0.842007
C102	C	1.557619	0.925453	-0.342007
C103	C	0.957054	0.541211	-0.848644
C104	C	1.457054	1.041211	-0.348644
C105	C	0.952338	0.546633	-0.943170
C106	C	1.452338	1.046633	-0.443170
C107	C	1.038288	0.447742	-0.226206
C108	C	1.538288	0.947742	0.273794
C109	C	1.043466	0.441713	-0.125588
C110	C	1.543466	0.941713	0.374412
H111	H	0.600387	0.317441	-0.399729
H112	H	1.100387	0.817441	0.100271
H113	H	0.909478	0.595965	-0.984363
H114	H	1.409478	1.095965	-0.484363
O115	O	0.905296	0.800318	-0.600691
O116	O	1.405296	1.300318	-0.100691
H117	H	0.847062	0.817626	-0.586126
H118	H	1.347062	1.317626	-0.086126
O119	O	1.147776	0.321609	-1.122407
O120	O	1.647776	0.821609	-0.622407
H121	H	1.181258	0.364589	-1.167822
H122	H	1.681258	0.864589	-0.667822
O123	O	0.905361	0.600720	-0.801252
O124	O	1.405361	1.100720	-0.301252
H125	H	0.917480	0.586769	-0.727024
H126	H	1.417480	1.086769	-0.227024
H127	H	0.599842	0.399134	-0.317392
H128	H	1.099842	0.899134	0.182608
O129	O	1.114391	0.360101	-0.787450
O130	O	1.614391	0.860101	-0.287450
H131	H	1.146914	0.322642	-0.833890
H132	H	1.646914	0.822642	-0.333890
H133	H	0.463362	0.571244	-0.371431
H134	H	0.963362	1.071244	0.128569
O135	O	0.938756	0.562221	-1.136195
O136	O	1.438756	1.062221	-0.636195
H137	H	0.943527	0.556716	-1.209306
H138	H	1.443527	1.056716	-0.709306
H139	H	0.461362	0.375665	-0.575583
H140	H	0.961362	0.875665	-0.075583
O141	O	0.467339	0.294326	-0.403684
O142	O	0.967339	0.794326	0.096316
H143	H	0.428010	0.300206	-0.464263
H144	H	0.928010	0.800206	0.035737
O145	O	0.598073	0.577551	-0.350612
O146	O	1.098073	1.077551	0.149388
H147	H	0.626526	0.641555	-0.360549
H148	H	1.126526	1.141555	0.139451
H149	H	1.143685	0.326367	-0.939296
H150	H	1.643685	0.826367	-0.439296
H151	H	0.455033	0.611663	-0.491897
H152	H	0.955033	1.111663	0.008103
H153	H	0.589356	0.371431	-0.570787
H154	H	1.089356	0.871431	-0.070787
O155	O	0.586643	0.630126	-0.509949
O156	O	1.086643	1.130126	-0.009949
H157	H	0.617830	0.679819	-0.475435
H158	H	1.117830	1.179819	0.024565
O159	O	0.466125	0.402633	-0.295454
O160	O	0.966125	0.902633	0.204546
H161	H	0.426580	0.463071	-0.301804
H162	H	0.926580	0.963071	0.198196
H163	H	0.455293	0.496800	-0.610634
H164	H	0.955293	0.996800	-0.110634
O165	O	0.588044	0.507521	-0.631179
O166	O	1.088044	1.007521	-0.131179
H167	H	0.623898	0.556969	-0.603143
H168	H	1.123898	1.056969	-0.103143
H169	H	1.143695	0.938256	-0.326691
H170	H	1.643695	1.438256	0.173309
O171	O	1.114372	0.786417	-0.360326
O172	O	1.614372	1.286417	0.139674
H173	H	1.104379	0.800519	-0.290319
H174	H	1.604379	1.300519	0.209681
O175	O	1.147842	1.121374	-0.322062
O176	O	1.647842	1.621374	0.177938
H177	H	1.139638	1.099202	-0.249959
H178	H	1.639638	1.599202	0.250041
O179	O	0.938776	1.135281	-0.562425
O180	O	1.438776	1.635281	-0.062425
H181	H	0.967449	1.180953	-0.610999
H182	H	1.467449	1.680953	-0.110999
O183	O	0.895525	0.996814	-0.612052
O184	O	1.395525	1.496814	-0.112052
H185	H	0.900305	1.069926	-0.606591
H186	H	1.400305	1.569926	-0.106591
