data_functionalizedCrystal
_audit_creation_method	'MofGen! by Chris Wilmer'
_symmetry_space_group_name_H-M	'P1'
_symmetry_Int_Tables_number	1
_symmetry_cell_setting	triclinic
loop_
_symmetry_equiv_pos_as_xyz
  x,y,z
_cell_length_a	14.853566
_cell_length_b	14.853559
_cell_length_c	13.930277
_cell_angle_alpha	89.997639
_cell_angle_beta	90.004369
_cell_angle_gamma	96.367066
loop_
_atom_site_label
_atom_site_type_symbol
_atom_site_fract_x
_atom_site_fract_y
_atom_site_fract_z
O1	O	1.196365	-0.117699	0.079763
O2	O	1.696365	0.382301	0.579763
O3	O	0.933905	-0.131721	0.079778
O4	O	1.433905	0.368279	0.579778
O5	O	1.072150	0.006520	0.079769
O6	O	1.572150	0.506520	0.579769
O7	O	1.058121	-0.255940	0.079772
O8	O	1.558121	0.244060	0.579772
O9	O	1.072131	0.006523	-0.079893
O10	O	1.572131	0.506523	0.420107
O11	O	0.933886	-0.131718	-0.079884
O12	O	1.433886	0.368282	0.420116
O13	O	1.196346	-0.117696	-0.079899
O14	O	1.696346	0.382304	0.420101
Zn15	Zn	1.065113	-0.124706	-0.105241
Zn16	Zn	1.565113	0.375294	0.394759
Zn17	Zn	1.065138	-0.124710	0.105120
Zn18	Zn	1.565138	0.375290	0.605120
O19	O	1.058102	-0.255937	-0.079890
O20	O	1.558102	0.244063	0.420110
C21	C	0.900307	-0.131085	-0.000051
C22	C	1.400307	0.368915	0.499949
C23	C	0.800223	-0.129181	-0.000045
C24	C	1.300223	0.370819	0.499955
C25	C	0.377049	-0.121132	0.086970
C26	C	0.877049	0.378868	0.586970
C27	C	0.377050	-0.121129	-0.087100
C28	C	0.877050	0.378871	0.412900
C29	C	0.471084	-0.122917	-0.087097
C30	C	0.971084	0.377083	0.412903
C31	C	0.518105	-0.123813	-0.000059
C32	C	1.018105	0.376187	0.499941
C33	C	0.471092	-0.122922	0.086975
C34	C	0.971092	0.377078	0.586975
C35	C	0.518103	-0.123817	-0.174130
C36	C	1.018103	0.376183	0.325870
C37	C	0.612142	-0.125606	-0.174130
C38	C	1.112142	0.374394	0.325870
C39	C	0.659166	-0.126496	-0.087092
C40	C	1.159166	0.373504	0.412908
C41	C	0.612147	-0.125604	-0.000054
C42	C	1.112147	0.374396	0.499946
C43	C	0.659168	-0.126500	0.086984
C44	C	1.159168	0.373500	0.586984
C45	C	0.612152	-0.125601	0.174023
C46	C	1.112152	0.374399	0.674023
C47	C	0.518115	-0.123812	0.174014
C48	C	1.018115	0.376188	0.674014
C49	C	0.753202	-0.128285	-0.087083
C50	C	1.253202	0.371715	0.412917
C51	C	0.753210	-0.128290	0.086990
C52	C	1.253210	0.371710	0.586990
C53	C	1.071506	0.040111	-0.000060
C54	C	1.571506	0.540111	0.499940
C55	C	1.069605	0.140195	-0.000055
C56	C	1.569605	0.640195	0.499945
C57	C	1.229945	-0.118332	-0.000068
C58	C	1.729945	0.381668	0.499932
C59	C	1.330028	-0.120236	-0.000068
C60	C	1.830028	0.379764	0.499932
C61	C	1.058745	-0.289528	-0.000059
C62	C	1.558745	0.210472	0.499941
C63	C	1.060646	-0.389612	-0.000058
C64	C	1.560646	0.110388	0.499942
C65	C	1.061552	0.563368	0.086978
C66	C	1.561552	1.063368	0.586978
C67	C	1.061531	0.563366	-0.087092
C68	C	1.561531	1.063366	0.412908
C69	C	1.063324	0.469333	-0.087093
C70	C	1.563324	0.969333	0.412907
C71	C	1.064230	0.422313	-0.000057
C72	C	1.564230	0.922313	0.499943
C73	C	1.063343	0.469326	0.086979
C74	C	1.563343	0.969326	0.586979
C75	C	1.064203	0.422312	-0.174128
C76	C	1.564203	0.922312	0.325872
C77	C	1.065995	0.328272	-0.174132
C78	C	1.565995	0.828272	0.325868
C79	C	1.066908	0.281251	-0.087096
C80	C	1.566908	0.781251	0.412904
C81	C	1.066021	0.328270	-0.000056
C82	C	1.566021	0.828270	0.499944
C83	C	1.066927	0.281250	0.086980
C84	C	1.566927	0.781250	0.586980
C85	C	1.066047	0.328268	0.174021
C86	C	1.566047	0.828268	0.674021
C87	C	1.064255	0.422305	0.174016
C88	C	1.564255	0.922305	0.674016
C89	C	1.068700	0.187215	-0.087090
C90	C	1.568700	0.687215	0.412910
C91	C	1.068718	0.187208	0.086982
C92	C	1.568718	0.687208	0.586982
N93	N	1.065102	-0.124703	-0.248807
N94	N	1.565102	0.375297	0.251193
C95	C	1.003921	-0.185900	-0.701073
C96	C	1.503921	0.314100	-0.201073
C97	C	1.126380	-0.063514	-0.701050
C98	C	1.626380	0.436486	-0.201050
C99	C	1.126370	-0.063511	-0.600554
C100	C	1.626370	0.436489	-0.100554
C101	C	1.065135	-0.124704	-0.550313
C102	C	1.565135	0.375296	-0.050313
C103	C	1.003911	-0.185901	-0.600568
C104	C	1.503911	0.314099	-0.100568
C105	C	1.187599	-0.002322	-0.550292
C106	C	1.687599	0.497678	-0.050292
C107	C	1.187591	-0.002318	-0.449790
C108	C	1.687591	0.497682	0.050210
C109	C	1.126351	-0.063507	-0.399547
C110	C	1.626351	0.436493	0.100453
C111	C	1.065124	-0.124705	-0.449808
C112	C	1.565124	0.375295	0.050192
C113	C	1.003889	-0.185898	-0.399567
C114	C	1.503889	0.314102	0.100433
C115	C	0.942657	-0.247093	-0.449826
C116	C	1.442657	0.252907	0.050174
C117	C	0.942670	-0.247090	-0.550325
C118	C	1.442670	0.252910	-0.050325
C119	C	1.126337	-0.063510	-0.299049
C120	C	1.626337	0.436490	0.200951
C121	C	1.003878	-0.185899	-0.299062
C122	C	1.503878	0.314101	0.200938
N123	N	1.065156	-0.124706	0.248686
N124	N	1.565156	0.375294	0.748686
H125	H	0.479810	-0.123093	-0.244991
H126	H	0.979810	0.376907	0.255009
F127	F	1.060624	0.613409	0.179608
F128	F	1.560624	1.113409	0.679608
F129	F	1.066928	0.278240	-0.266768
F130	F	1.566928	0.778240	0.233232
F131	F	1.063322	0.472351	0.266643
F132	F	1.563322	0.972351	0.766643
H133	H	1.069460	0.148931	0.157858
H134	H	1.569460	0.648931	0.657858
F135	F	1.252772	0.062796	-0.603762
F136	F	1.752772	0.562796	-0.103762
F137	F	0.662172	-0.126560	-0.266764
F138	F	1.162172	0.373440	0.233236
H139	H	0.791489	-0.129017	0.157867
H140	H	1.291489	0.370983	0.657867
F141	F	1.191506	0.001608	-0.245566
F142	F	1.691506	0.501608	0.254434
F143	F	0.803235	-0.129247	-0.179709
F144	F	1.303235	0.370753	0.320291
F145	F	1.067013	0.278216	0.266648
F146	F	1.567013	0.778216	0.766648
H147	H	1.069396	0.148934	-0.157958
H148	H	1.569396	0.648934	0.342042
H149	H	0.954010	-0.235727	-0.258162
H150	H	1.454010	0.264273	0.241838
H151	H	1.060788	0.601655	-0.157952
H152	H	1.560788	1.101655	0.342048
H153	H	1.063460	0.460602	-0.244987
H154	H	1.563460	0.960602	0.255013
F155	F	0.877493	-0.312223	-0.396345
F156	F	1.377493	0.187777	0.103655
F157	F	0.877509	-0.312214	-0.603817
F158	F	1.377509	0.187786	-0.103817
F159	F	0.327015	-0.120154	0.179598
F160	F	0.827015	0.379846	0.679598
H161	H	0.954064	-0.235721	-0.741996
H162	H	1.454064	0.264279	-0.241996
F163	F	1.191554	0.001604	-0.754520
F164	F	1.691554	0.501604	-0.254520
F165	F	0.468075	-0.122828	0.266639
F166	F	0.968075	0.377172	0.766639
H167	H	0.650448	-0.126338	0.244889
H168	H	1.150448	0.373662	0.744889
F169	F	0.327003	-0.120185	-0.179726
F170	F	0.827003	0.379815	0.320274
F171	F	1.252757	0.062811	-0.396308
F172	F	1.752757	0.562811	0.103692
