data_functionalizedCrystal
_audit_creation_method	'MofGen! by Chris Wilmer'
_symmetry_space_group_name_H-M	'P1'
_symmetry_Int_Tables_number	1
_symmetry_cell_setting	triclinic
loop_
_symmetry_equiv_pos_as_xyz
  x,y,z
_cell_length_a	19.288864
_cell_length_b	16.109301
_cell_length_c	18.366186
_cell_angle_alpha	89.992337
_cell_angle_beta	89.977106
_cell_angle_gamma	83.298863
loop_
_atom_site_label
_atom_site_type_symbol
_atom_site_fract_x
_atom_site_fract_y
_atom_site_fract_z
O1	O	0.921600	0.103716	-0.060785
O2	O	0.719373	0.117707	-0.060736
O3	O	0.826042	-0.010339	-0.060755
O4	O	0.814931	0.231761	-0.060767
O5	O	0.826024	-0.010345	0.060345
O6	O	0.719355	0.117701	0.060363
O7	O	0.921582	0.103710	0.060314
Zn8	Zn	0.820466	0.110704	0.079566
Zn9	Zn	0.820490	0.110712	-0.079988
O10	O	0.814913	0.231755	0.060333
C11	C	0.693487	0.117254	-0.000180
C12	C	0.616380	0.115902	-0.000161
C13	C	0.825583	-0.041315	-0.000205
C14	C	0.824234	-0.133606	-0.000203
C15	C	0.571863	0.191034	-0.000176
C16	C	0.499413	0.189764	-0.000184
C17	C	0.471483	0.113359	-0.000191
C18	C	0.516009	0.038218	-0.000172
C19	C	0.588458	0.039489	-0.000157
C20	C	0.363084	0.053298	-0.042639
C21	C	0.290636	0.052029	-0.042659
C22	C	0.248028	0.109433	-0.000235
C23	C	0.277874	0.168120	0.042199
C24	C	0.350323	0.169391	0.042214
C25	C	0.392925	0.111971	-0.000207
C26	C	0.124952	0.183193	-0.000258
C27	C	0.052501	0.181920	-0.000262
C28	C	0.069099	0.030372	-0.000257
C29	C	0.141548	0.031647	-0.000246
C30	C	0.169470	0.108060	-0.000250
C31	C	0.884391	-0.356084	-0.000229
C32	C	0.883118	-0.442800	-0.000235
C33	C	0.756559	-0.422493	-0.000201
C34	C	0.757833	-0.335778	-0.000201
C35	C	0.821751	-0.302577	-0.000211
C36	C	0.819204	-0.476007	-0.000217
C37	C	0.817823	-0.570028	-0.000223
C38	C	0.823133	-0.208549	-0.000206
C39	C	0.947469	0.104163	-0.000244
C40	C	1.024576	0.105514	-0.000268
C41	C	0.815372	0.262732	-0.000219
C42	C	0.816722	0.355022	-0.000225
N43	N	0.820455	0.110698	0.188457
N44	N	0.820506	0.110712	-0.188879
C45	C	0.867703	0.054027	0.226549
C46	C	0.867707	0.054023	0.302777
C47	C	0.820470	0.110705	0.340910
C48	C	0.773213	0.167380	0.302808
C49	C	0.773205	0.167377	0.226582
C50	C	0.811353	0.186459	0.461668
C51	C	0.811365	0.186463	0.537893
C52	C	0.820490	0.110715	0.576017
C53	C	0.829616	0.034960	0.537908
C54	C	0.829609	0.034956	0.461681
C55	C	0.820473	0.110715	0.423564
C56	C	0.867746	0.054036	0.696764
C57	C	0.867745	0.054031	0.772993
C58	C	0.773254	0.167395	0.773023
C59	C	0.773251	0.167392	0.696796
C60	C	0.820500	0.110714	0.658671
H61	H	0.594592	0.253255	-0.000181
C62	C	0.954696	-0.319560	-0.000246
H63	H	0.946486	-0.260252	-0.000236
H64	H	0.980493	-0.337936	-0.042484
H65	H	0.980481	-0.337951	0.041982
H66	H	0.837038	-0.026726	0.430655
C67	C	0.839648	-0.048368	0.579834
H68	H	0.838337	-0.037520	0.630689
H69	H	0.883459	-0.078153	0.567327
H70	H	0.803326	-0.080831	0.567361
C71	C	0.686255	-0.459018	-0.000180
H72	H	0.694466	-0.518326	-0.000174
H73	H	0.660465	-0.440631	-0.042401
H74	H	0.660463	-0.440639	0.042065
H75	H	0.706821	-0.292210	-0.000188
C76	C	0.952022	-0.501655	-0.000251
H77	H	0.990269	-0.469458	-0.000251
H78	H	0.954165	-0.535898	-0.042482
H79	H	0.954148	-0.535909	0.041984
H80	H	0.803910	0.248146	0.430633
C81	C	0.038388	-0.053675	-0.000262
H82	H	0.075281	-0.098240	-0.000247
H83	H	0.010492	-0.057322	-0.042495
H84	H	0.010450	-0.057321	0.041970
H85	H	0.906175	0.007874	0.195510
C86	C	0.919710	-0.008315	0.654824
H87	H	0.947844	-0.042077	0.688431
H88	H	0.948613	0.021502	0.625068
H89	H	0.894726	-0.042850	0.625106
C90	C	0.919723	-0.008309	0.814895
H91	H	0.947864	-0.042056	0.781269
H92	H	0.894755	-0.042847	0.844649
H93	H	0.948627	0.021523	0.844611
H94	H	0.803938	0.248148	0.568916
C95	C	0.257807	-0.012516	-0.089337
H96	H	0.208557	-0.005045	-0.083279
H97	H	0.275693	-0.067315	-0.074415
H98	H	0.268912	-0.004994	-0.139123
C99	C	0.409946	-0.009844	-0.089315
H100	H	0.381795	-0.044966	-0.114598
H101	H	0.441871	-0.042923	-0.058728
H102	H	0.435074	0.019411	-0.123426
H103	H	0.624704	-0.021694	-0.000145
C104	C	0.919684	-0.008315	0.344687
H105	H	0.947824	-0.042068	0.311064
H106	H	0.894714	-0.042848	0.374444
H107	H	0.948590	0.021518	0.374401
C108	C	0.721255	0.229730	0.344751
H109	H	0.728031	0.221622	0.395605
H110	H	0.674901	0.220842	0.332287
H111	H	0.728786	0.285198	0.332243
C112	C	0.190522	-0.050997	-0.000240
H113	H	0.237669	-0.039297	-0.000225
H114	H	0.182082	-0.082336	-0.042471
H115	H	0.182035	-0.082340	0.041994
H116	H	0.734789	0.213542	0.804071
H117	H	0.734779	0.213542	0.665779
C118	C	0.003528	0.264567	-0.000279
H119	H	-0.043619	0.252867	-0.000279
H120	H	0.012014	0.295906	-0.042511
H121	H	0.011970	0.295910	0.041955
C122	C	0.721234	0.229723	0.184679
H123	H	0.693103	0.263484	0.218304
H124	H	0.692329	0.199904	0.154959
H125	H	0.746214	0.264259	0.154929
C126	C	0.450432	0.272409	-0.000204
H127	H	0.403286	0.260706	-0.000209
H128	H	0.458920	0.303750	-0.042435
H129	H	0.458869	0.303752	0.042031
H130	H	0.374621	0.217173	0.076768
H131	H	0.243184	0.214863	0.076745
C132	C	0.155669	0.267242	-0.000255
H133	H	0.118777	0.311807	-0.000255
H134	H	0.183608	0.270891	-0.042481
H135	H	0.183564	0.270884	0.041984
H136	H	0.493264	-0.023992	-0.000188
