data_functionalizedCrystal
_audit_creation_method	'MofGen! by Chris Wilmer'
_symmetry_space_group_name_H-M	'P1'
_symmetry_Int_Tables_number	1
_symmetry_cell_setting	triclinic
loop_
_symmetry_equiv_pos_as_xyz
  x,y,z
_cell_length_a	17.699083
_cell_length_b	19.288864
_cell_length_c	17.766277
_cell_angle_alpha	90.023209
_cell_angle_beta	89.992740
_cell_angle_gamma	96.790370
loop_
_atom_site_label
_atom_site_type_symbol
_atom_site_fract_x
_atom_site_fract_y
_atom_site_fract_z
O1	O	0.094417	-0.921465	-0.062837
O2	O	0.107154	-0.719219	-0.062786
O3	O	-0.009412	-0.826056	-0.062806
O4	O	0.210983	-0.814628	-0.062817
O5	O	-0.009417	-0.826037	0.062382
O6	O	0.107148	-0.719201	0.062403
O7	O	0.094411	-0.921446	0.062351
Cu8	Cu	0.100779	-0.820322	0.073808
Cu9	Cu	0.100786	-0.820344	-0.074242
O10	O	0.210977	-0.814609	0.062372
C11	C	0.106741	-0.693333	-0.000185
C12	C	0.105511	-0.616228	-0.000165
C13	C	-0.037611	-0.825637	-0.000212
C14	C	-0.121627	-0.824409	-0.000211
C15	C	0.094824	-0.947332	-0.000251
C16	C	0.096054	-1.024437	-0.000276
C17	C	-0.170336	-0.887120	-0.000226
C18	C	-0.249278	-0.885961	-0.000232
C19	C	-0.279509	-0.822091	-0.000219
C20	C	-0.230794	-0.759375	-0.000206
C21	C	-0.151854	-0.760535	-0.000205
C22	C	-0.549150	-0.754699	-0.000211
C23	C	-0.628097	-0.753545	-0.000210
C24	C	-0.646575	-0.880126	-0.000238
C25	C	-0.567635	-0.881285	-0.000237
C26	C	-0.518926	-0.818570	-0.000229
C27	C	-0.433329	-0.819827	-0.000223
C28	C	-0.365105	-0.820834	-0.000219
C29	C	0.239176	-0.815028	-0.000224
C30	C	0.323193	-0.816257	-0.000230
N31	N	0.100774	-0.820311	0.177938
C32	C	0.173906	-0.571613	-0.000180
C33	C	0.172751	-0.499164	-0.000188
C34	C	0.103196	-0.471334	-0.000197
C35	C	0.034791	-0.515959	-0.000177
C36	C	0.035949	-0.588406	-0.000162
C37	C	0.048520	-0.363014	-0.044079
C38	C	0.047365	-0.290568	-0.044099
C39	C	0.099622	-0.247884	-0.000242
C40	C	0.153047	-0.277654	0.043625
C41	C	0.154204	-0.350101	0.043641
C42	C	0.101932	-0.392779	-0.000213
C43	C	0.166769	-0.124712	-0.000265
C44	C	0.165610	-0.052262	-0.000269
C45	C	0.027649	-0.069059	-0.000265
C46	C	0.028809	-0.141507	-0.000254
C47	C	0.098371	-0.169329	-0.000258
N48	N	0.100786	-0.820360	-0.178372
C49	C	0.049184	-0.867634	0.217316
C50	C	0.049180	-0.867638	0.296118
C51	C	0.100780	-0.820326	0.335539
C52	C	0.152374	-0.772994	0.296151
C53	C	0.152371	-0.772987	0.217351
C54	C	0.169742	-0.811109	0.460375
C55	C	0.169746	-0.811121	0.539174
C56	C	0.100789	-0.820344	0.578585
C57	C	0.031825	-0.829570	0.539188
C58	C	0.031822	-0.829563	0.460388
C59	C	0.100789	-0.820328	0.420984
C60	C	0.049191	-0.867674	0.703409
C61	C	0.049186	-0.867673	0.782212
C62	C	0.152386	-0.773033	0.782244
C63	C	0.152384	-0.773030	0.703442
C64	C	0.100787	-0.820355	0.664029
H65	H	-0.145729	-0.939130	-0.000233
Br66	Br	0.261172	-0.162474	-0.000264
H67	H	-0.288934	-0.937027	-0.000243
H68	H	0.007171	-0.906207	0.814274
Br69	Br	-0.020835	-0.931896	0.649918
Br70	Br	-0.526611	-0.967969	-0.000257
Br71	Br	-0.022409	-0.420936	-0.103602
Br72	Br	0.268311	-0.609368	-0.000184
H73	H	0.228448	-0.462831	-0.000199
Br74	Br	0.226703	-0.390501	0.103175
H75	H	-0.019749	-0.624733	-0.000150
Br76	Br	0.222407	-0.708816	0.835737
Br77	Br	-0.061766	-0.842077	0.406922
H78	H	-0.024326	-0.837081	0.571275
Br79	Br	-0.059606	-0.478193	-0.000181
H80	H	-0.652707	-0.701531	-0.000197
Br81	Br	-0.025130	-0.250173	-0.103643
H82	H	0.007169	-0.906166	0.185228
Br83	Br	0.222405	-0.708806	0.649995
H84	H	-0.112195	-0.709469	-0.000193
Br85	Br	0.223975	-0.219735	0.103148
Br86	Br	0.258441	0.008290	-0.000282
Br87	Br	0.263337	-0.798608	0.592633
Br88	Br	-0.271821	-0.672693	-0.000200
H89	H	-0.686243	-0.931192	-0.000249
H90	H	0.194382	-0.734450	0.185289
Br91	Br	-0.020842	-0.931866	0.349569
H92	H	-0.509501	-0.703632	-0.000204
Br93	Br	0.263336	-0.798660	0.406896
H94	H	0.194386	-0.734471	0.328252
H95	H	-0.026886	-0.177834	-0.000246
Br96	Br	-0.066749	-0.031298	-0.000264
