data_functionalizedCrystal
_audit_creation_method	'MofGen! by Chris Wilmer'
_symmetry_space_group_name_H-M	'P1'
_symmetry_Int_Tables_number	1
_symmetry_cell_setting	triclinic
loop_
_symmetry_equiv_pos_as_xyz
  x,y,z
_cell_length_a	14.971482
_cell_length_b	17.000383
_cell_length_c	14.048226
_cell_angle_alpha	89.994219
_cell_angle_beta	89.994098
_cell_angle_gamma	79.606456
loop_
_atom_site_label
_atom_site_type_symbol
_atom_site_fract_x
_atom_site_fract_y
_atom_site_fract_z
O1	O	1.178669	0.103704	-0.079146
O2	O	0.917277	0.116127	-0.079150
O3	O	1.064202	-0.005935	-0.079144
O4	O	1.031744	0.225767	-0.079152
O5	O	1.064186	-0.005942	0.079177
O6	O	0.917261	0.116120	0.079171
O7	O	1.178653	0.103697	0.079175
Zn8	Zn	1.047954	0.109907	0.104310
Zn9	Zn	1.047975	0.109917	-0.104285
O10	O	1.031728	0.225759	0.079169
C11	C	0.883988	0.115569	0.000010
C12	C	0.784824	0.113905	0.000008
C13	C	0.738233	0.113118	0.086310
C14	C	0.645060	0.111542	0.086311
C15	C	0.598479	0.110760	0.000009
C16	C	0.645077	0.111545	-0.086300
C17	C	0.738249	0.113115	-0.086300
C18	C	0.450876	0.108275	-0.086293
C19	C	0.357697	0.106706	-0.086294
C20	C	0.357687	0.106702	0.086317
C21	C	0.450860	0.108272	0.086317
C22	C	0.497451	0.109059	0.000008
C23	C	1.065937	-0.035591	0.000015
C24	C	1.071121	-0.123944	0.000012
C25	C	1.104592	-0.624130	0.000009
C26	C	1.099715	-0.541111	0.000015
C27	C	1.015053	-0.490196	0.000009
C28	C	0.935264	-0.522303	0.000007
C29	C	0.940142	-0.605320	0.000008
C30	C	0.996210	-0.239068	0.000011
C31	C	0.991338	-0.156046	0.000007
C32	C	1.155789	-0.174860	0.000017
C33	C	1.160660	-0.257878	0.000012
C34	C	1.080871	-0.289977	0.000015
C35	C	1.010065	-0.405338	0.000012
C36	C	1.085860	-0.374834	0.000019
C37	C	1.211942	0.104255	0.000013
C38	C	1.311106	0.105919	0.000008
C39	C	1.029993	0.255415	0.000007
C40	C	1.024809	0.343768	0.000004
N41	N	1.047947	0.109900	0.246671
N42	N	1.047991	0.109918	-0.246646
C43	C	1.113023	0.055873	0.296491
C44	C	1.113029	0.055873	0.396149
C45	C	1.047962	0.109904	0.445984
C46	C	0.982879	0.163933	0.396156
C47	C	0.982870	0.163929	0.296501
C48	C	0.982905	0.163939	0.603871
C49	C	0.982915	0.163944	0.703533
C50	C	1.113063	0.055883	0.703519
C51	C	1.113054	0.055879	0.603863
C52	C	1.047972	0.109910	0.554042
H53	H	0.319773	0.106070	-0.156568
H54	H	0.866330	-0.480841	0.000008
H55	H	0.922392	-0.114592	0.000006
N56	N	0.501132	0.109118	-0.179382
H57	H	0.457486	0.108386	-0.234054
H58	H	0.528658	0.159069	-0.183142
N59	N	0.788469	0.113958	0.179396
H60	H	0.854563	0.115074	0.166304
H61	H	0.761046	0.162981	0.217082
H62	H	0.488783	0.108914	0.156592
H63	H	0.607144	0.110902	-0.156568
H64	H	1.173533	-0.665580	0.000006
H65	H	0.607133	0.110888	0.156587
H66	H	0.776182	0.113757	-0.156576
H67	H	1.164683	-0.514979	0.000020
N68	N	0.307437	0.105857	0.179407
H69	H	0.241103	0.105864	0.166316
H70	H	0.334033	0.056264	0.216521
N71	N	1.183266	-0.002380	0.757258
H72	H	1.246007	0.006899	0.739898
H73	H	1.173313	0.005859	0.827932
H74	H	1.229601	-0.299328	0.000021
H75	H	1.166040	0.011887	0.563288
H76	H	1.154791	-0.416293	0.000029
H77	H	1.220749	-0.148715	0.000007
N78	N	0.910156	-0.273684	0.000028
H79	H	0.855786	-0.228831	0.000025
H80	H	0.908594	-0.307721	-0.058656
N81	N	0.854091	-0.639948	0.000011
H82	H	0.799717	-0.595098	0.000007
H83	H	0.852538	-0.673983	-0.058677
N84	N	0.918762	-0.350408	-0.000001
H85	H	0.883668	-0.360728	-0.058694
H86	H	0.883722	-0.360764	0.058724
H87	H	1.166011	0.011879	0.255922
N88	N	1.183246	-0.002371	0.449886
H89	H	1.224477	-0.036587	0.403193
H90	H	1.220367	0.028191	0.491201
N91	N	0.912746	0.222226	0.757288
H92	H	0.871514	0.256452	0.710607
H93	H	0.875616	0.191703	0.798658
N94	N	0.912707	0.222210	0.550132
H95	H	0.871491	0.256442	0.596822
H96	H	0.944173	0.257443	0.508770
H97	H	0.929897	0.207924	0.436738
H98	H	0.929878	0.207923	0.255937
