data_functionalizedCrystal
_audit_creation_method	'MofGen! by Chris Wilmer'
_symmetry_space_group_name_H-M	'P1'
_symmetry_Int_Tables_number	1
_symmetry_cell_setting	triclinic
loop_
_symmetry_equiv_pos_as_xyz
  x,y,z
_cell_length_a	29.839126
_cell_length_b	17.640112
_cell_length_c	29.839133
_cell_angle_alpha	78.746938
_cell_angle_beta	89.988298
_cell_angle_gamma	78.832058
loop_
_atom_site_label
_atom_site_type_symbol
_atom_site_fract_x
_atom_site_fract_y
_atom_site_fract_z
Zn1	Zn	-0.115399	-1.208346	-0.039882
Zn2	Zn	0.384601	-0.708346	0.460118
Zn3	Zn	-0.040297	-1.208222	-0.115014
Zn4	Zn	0.459703	-0.708222	0.384986
Zn5	Zn	-0.055449	-1.076157	-0.055092
Zn6	Zn	0.444551	-0.576157	0.444908
Zn7	Zn	-0.130555	-1.076125	-0.130197
Zn8	Zn	0.369445	-0.576125	0.369803
O9	O	-0.085425	-1.142213	-0.085046
O10	O	0.414575	-0.642213	0.414954
O11	O	-0.092754	-1.318934	-0.037128
O12	O	0.407246	-0.818934	0.462872
O13	O	0.020556	-1.190665	-0.107076
O14	O	0.520556	-0.690665	0.392924
O15	O	-0.063400	-1.093758	0.009800
O16	O	0.436600	-0.593758	0.509800
O17	O	-0.037576	-1.318843	-0.092327
O18	O	0.462424	-0.818843	0.407673
O19	O	-0.107445	-1.190877	0.020975
O20	O	0.392555	-0.690877	0.520975
O21	O	0.009424	-1.093638	-0.063052
O22	O	0.509424	-0.593638	0.436948
O23	O	-0.078095	-0.965548	-0.077775
O24	O	0.421905	-0.465548	0.422225
O25	O	-0.191407	-1.093702	-0.118205
O26	O	0.308593	-0.593702	0.381795
O27	O	-0.133275	-0.965524	-0.132954
O28	O	0.366725	-0.465524	0.367046
O29	O	-0.180273	-1.190845	-0.051851
O30	O	0.319727	-0.690845	0.448149
O31	O	-0.052271	-1.190634	-0.179902
O32	O	0.447729	-0.690634	0.320098
O33	O	-0.118583	-1.093582	-0.191057
O34	O	0.381417	-0.593582	0.308943
C35	C	-0.085435	-1.142112	-0.201780
C36	C	0.414565	-0.642112	0.298220
C37	C	-0.085446	-1.142142	-0.251711
C38	C	0.414554	-0.642142	0.248289
C39	C	-0.108974	-0.936858	-0.108663
C40	C	0.391026	-0.436858	0.391337
C41	C	-0.119059	-0.849006	-0.118777
C42	C	0.380941	-0.349006	0.381223
C43	C	-0.202595	-1.142283	-0.085025
C44	C	0.297405	-0.642283	0.414975
C45	C	-0.252526	-1.142314	-0.085016
C46	C	0.247474	-0.642314	0.414984
C47	C	-0.603321	-1.192825	-0.107881
C48	C	-0.103321	-0.692825	0.392119
C49	C	-0.415648	-1.192826	-0.107912
C50	C	0.084352	-0.692826	0.392088
O51	O	-0.386460	-1.235765	-0.127424
O52	O	0.113540	-0.735765	0.372576
N53	N	-0.397972	-1.142310	-0.084995
N54	N	0.102028	-0.642310	0.415005
C55	C	-0.427217	-1.091786	-0.062071
C56	C	0.072783	-0.591786	0.437929
O57	O	-0.407877	-1.048813	-0.042583
O58	O	0.092123	-0.548813	0.457417
C59	C	-0.614890	-1.091781	-0.062043
C60	C	-0.114890	-0.591781	0.437957
C61	C	-0.632563	-1.142307	-0.084957
C62	C	-0.132563	-0.642307	0.415043
C63	C	-0.620995	-1.243346	-0.130794
C64	C	-0.120995	-0.743346	0.369206
C65	C	-0.667910	-1.243348	-0.130784
C66	C	-0.167910	-0.743348	0.369216
C67	C	-0.697152	-1.192829	-0.107861
C68	C	-0.197152	-0.692829	0.392139
C69	C	-0.679478	-1.142309	-0.084947
C70	C	-0.179478	-0.642309	0.415053
C71	C	-0.644135	-1.041254	-0.039122
C72	C	-0.144135	-0.541254	0.460878
C73	C	-0.691056	-1.041256	-0.039118
C74	C	-0.191056	-0.541256	0.460882
C75	C	-0.708729	-1.091781	-0.062032
C76	C	-0.208729	-0.591781	0.437968
C77	C	-0.755635	-1.091793	-0.062014
C78	C	-0.255635	-0.591793	0.437986
N79	N	-0.773312	-1.142309	-0.084931
N80	N	-0.273312	-0.642309	0.415069
C81	C	-0.744070	-1.192827	-0.107854
C82	C	-0.244070	-0.692827	0.392146
C83	C	-0.328686	-1.091793	-0.062086
C84	C	0.171314	-0.591793	0.437914
C85	C	-0.281768	-1.091795	-0.062093
C86	C	0.218232	-0.591795	0.437907
C87	C	-0.270202	-1.192835	-0.107935
C88	C	0.229798	-0.692835	0.392065
C89	C	-0.317120	-1.192836	-0.107925
C90	C	0.182880	-0.692836	0.392075
C91	C	-0.346362	-1.142310	-0.085004
C92	C	0.153638	-0.642310	0.414996
C93	C	-0.842596	-1.192829	-0.107831
C94	C	-0.342596	-0.692829	0.392169
C95	C	-0.889515	-1.192829	-0.107817
C96	C	-0.389515	-0.692829	0.392183
C97	C	-0.901077	-1.091787	-0.061978
C98	C	-0.401077	-0.591787	0.438022
C99	C	-0.854162	-1.091789	-0.061989
C100	C	-0.354162	-0.591789	0.438011
C101	C	-0.824922	-1.142313	-0.084919
C102	C	-0.324922	-0.642313	0.415081
O103	O	-0.784851	-1.048870	-0.042517
O104	O	-0.284851	-0.548870	0.457483
O105	O	-0.763421	-1.235782	-0.127348
O106	O	-0.263421	-0.735782	0.372652
C107	C	-0.556406	-1.192823	-0.107891
C108	C	-0.056406	-0.692823	0.392109
C109	C	-0.538733	-1.142302	-0.084978
C110	C	-0.038733	-0.642302	0.415022
C111	C	-0.567974	-1.091784	-0.062054
C112	C	-0.067974	-0.591784	0.437946
C113	C	-0.491815	-1.142304	-0.084984
C114	C	0.008185	-0.642304	0.415016
C115	C	-0.462573	-1.192823	-0.107907
C116	C	0.037427	-0.692823	0.392093
C117	C	-0.480249	-1.243339	-0.130824
C118	C	0.019751	-0.743339	0.369176
C119	C	-0.527164	-1.243341	-0.130814
C120	C	-0.027164	-0.743341	0.369186
C121	C	-0.550298	-1.041268	-0.039137
C122	C	-0.050298	-0.541268	0.460863
C123	C	-0.503382	-1.041270	-0.039149
C124	C	-0.003382	-0.541270	0.460851
C125	C	-0.474141	-1.091789	-0.062072
C126	C	0.025859	-0.591789	0.437928
C127	C	0.031295	-1.142187	-0.085029
C128	C	0.531295	-0.642187	0.414971
C129	C	0.081243	-1.142310	-0.084894
C130	C	0.581243	-0.642310	0.415106
C131	C	-0.061784	-1.348369	-0.061337
C132	C	0.438216	-0.848369	0.438663
C133	C	-0.051710	-1.436221	-0.051234
C134	C	0.448290	-0.936221	0.448766
C135	C	-0.008814	-0.560027	-0.008202
C136	C	0.491186	-0.060027	0.491798
C137	C	-0.018296	-0.477477	-0.017715
C138	C	0.481704	0.022523	0.482285
C139	C	-0.075656	-0.477506	-0.075252
C140	C	0.424344	0.022494	0.424748
C141	C	-0.066180	-0.560057	-0.065743
C142	C	0.433820	-0.060057	0.434257
C143	C	-0.032758	-0.601311	-0.032218
C144	C	0.467242	-0.101311	0.467782
C145	C	-0.090124	-0.601342	-0.089758
C146	C	0.409876	-0.101342	0.410242
C147	C	-0.080647	-0.683886	-0.080251
C148	C	0.419353	-0.183886	0.419749
C149	C	-0.047226	-0.725146	-0.046728
C150	C	0.452774	-0.225146	0.453272
C151	C	-0.023281	-0.683856	-0.022710
C152	C	0.476719	-0.183856	0.477290
C153	C	-0.123544	-0.560087	-0.123285
C154	C	0.376456	-0.060087	0.376715
C155	C	-0.147488	-0.601371	-0.147301
C156	C	0.352512	-0.101371	0.352699
C157	C	-0.138013	-0.683917	-0.137791
C158	C	0.361987	-0.183917	0.362209
C159	C	-0.104592	-0.725177	-0.104269
C160	C	0.395408	-0.225177	0.395731
C161	C	-0.161958	-0.725208	-0.161809
C162	C	0.338042	-0.225208	0.338191
C163	C	-0.152481	-0.807752	-0.152302
C164	C	0.347519	-0.307752	0.347698
C165	C	-0.095115	-0.807721	-0.094761
C166	C	0.404885	-0.307721	0.405239
C167	C	-0.108389	-1.192811	-0.602433
C168	C	0.391611	-0.692811	-0.102433
C169	C	-0.108397	-1.192736	-0.414769
C170	C	0.391603	-0.692736	0.085231
O171	O	-0.127909	-1.235715	-0.385529
O172	O	0.372091	-0.735715	0.114471
N173	N	-0.085438	-1.142204	-0.397149
N174	N	0.414562	-0.642204	0.102851
C175	C	-0.062473	-1.091690	-0.426449
C176	C	0.437527	-0.591690	0.073551
O177	O	-0.042941	-1.048714	-0.407155
O178	O	0.457059	-0.548714	0.092845
C179	C	-0.062462	-1.091770	-0.614112
C180	C	0.437538	-0.591770	-0.114112
C181	C	-0.085427	-1.142300	-0.631729
C182	C	0.414573	-0.642300	-0.131729
C183	C	-0.131351	-1.243337	-0.620051
C184	C	0.368649	-0.743337	-0.120051
C185	C	-0.131351	-1.243353	-0.666965
C186	C	0.368649	-0.743353	-0.166965
C187	C	-0.108389	-1.192841	-0.696260
C188	C	0.391611	-0.692841	-0.196260
C189	C	-0.085427	-1.142315	-0.678643
C190	C	0.414573	-0.642315	-0.178643
C191	C	-0.039494	-1.041261	-0.643410
C192	C	0.460506	-0.541261	-0.143410
C193	C	-0.039493	-1.041287	-0.690328
C194	C	0.460507	-0.541287	-0.190328
C195	C	-0.062457	-1.091817	-0.707945
C196	C	0.437543	-0.591817	-0.207945
C197	C	-0.062464	-1.091819	-0.754852
C198	C	0.437536	-0.591819	-0.254852
N199	N	-0.085423	-1.142351	-0.772472
N200	N	0.414577	-0.642351	-0.272472
C201	C	-0.108386	-1.192862	-0.743176
C202	C	0.391614	-0.692862	-0.243176
C203	C	-0.062481	-1.091651	-0.327923
C204	C	0.437519	-0.591651	0.172077
C205	C	-0.062484	-1.091630	-0.281007
C206	C	0.437516	-0.591630	0.218993
C207	C	-0.108408	-1.192677	-0.269330
C208	C	0.391592	-0.692677	0.230670
C209	C	-0.108407	-1.192694	-0.316247
C210	C	0.391593	-0.692694	0.183753
C211	C	-0.085440	-1.142184	-0.345542
C212	C	0.414560	-0.642184	0.154458
C213	C	-0.108384	-1.192890	-0.841699
C214	C	0.391616	-0.692890	-0.341699
C215	C	-0.108383	-1.192898	-0.888617
C216	C	0.391617	-0.692898	-0.388617
C217	C	-0.062458	-1.091855	-0.900290
C218	C	0.437542	-0.591855	-0.400290
C219	C	-0.062460	-1.091843	-0.853375
C220	C	0.437540	-0.591843	-0.353375
C221	C	-0.085424	-1.142367	-0.824080
C222	C	0.414576	-0.642367	-0.324080
O223	O	-0.042958	-1.048869	-0.784118
O224	O	0.457042	-0.548869	-0.284118
O225	O	-0.127906	-1.235845	-0.762476
O226	O	0.372094	-0.735845	-0.262476
C227	C	-0.108389	-1.192796	-0.555519
C228	C	0.391611	-0.692796	-0.055519
C229	C	-0.085427	-1.142270	-0.537902
C230	C	0.414573	-0.642270	-0.037902
C231	C	-0.062465	-1.091758	-0.567197
C232	C	0.437535	-0.591758	-0.067197
C233	C	-0.085430	-1.142249	-0.490986
C234	C	0.414570	-0.642249	0.009014
C235	C	-0.108393	-1.192760	-0.461690
C236	C	0.391607	-0.692760	0.038310
C237	C	-0.131352	-1.243292	-0.479310
C238	C	0.368648	-0.743292	0.020690
C239	C	-0.131352	-1.243307	-0.526223
C240	C	0.368648	-0.743307	-0.026223
C241	C	-0.039506	-1.041226	-0.549578
C242	C	0.460494	-0.541226	-0.049578
C243	C	-0.039508	-1.041214	-0.502664
C244	C	0.460492	-0.541214	-0.002664
C245	C	-0.062470	-1.091726	-0.473368
C246	C	0.437530	-0.591726	0.026632
C247	C	-0.085422	-1.142335	0.032146
C248	C	0.414578	-0.642335	0.532146
C249	C	-0.085421	-1.142387	0.082087
C250	C	0.414579	-0.642387	0.582087
H251	H	-0.818793	-1.233975	-0.126499
H252	H	-0.318793	-0.733975	0.373501
O253	O	-0.908579	-1.247324	-0.132534
O254	O	-0.408579	-0.747324	0.367466
H255	H	-0.934010	-1.211924	-0.159454
H256	H	-0.434010	-0.711924	0.340546
O257	O	-0.059066	-0.852221	-0.058600
O258	O	0.440934	-0.352221	0.441400
H259	H	-0.074892	-0.889856	-0.031437
H260	H	0.425108	-0.389856	0.468563
H261	H	-0.127087	-1.234044	-0.902959
H262	H	0.372913	-0.734044	-0.402959
O263	O	-0.589463	-1.297848	-0.155518
O264	O	-0.089463	-0.797848	0.344482
H265	H	-0.572137	-1.262467	-0.182457
H266	H	-0.072137	-0.762467	0.317543
O267	O	-0.835100	-1.037298	-0.037270
O268	O	-0.335100	-0.537298	0.462730
H269	H	-0.809673	-1.072692	-0.010344
H270	H	-0.309673	-0.572692	0.489656
H271	H	0.018395	-0.593618	0.019104
H272	H	0.518395	-0.093618	0.519104
O273	O	-0.111702	-0.433027	-0.111416
O274	O	0.388298	0.066973	0.388584
H275	H	-0.138913	-0.395454	-0.095677
H276	H	0.361087	0.104546	0.404323
O277	O	-0.133168	-1.247173	-0.237729
O278	O	0.366832	-0.747173	0.262271
H279	H	-0.160067	-1.211781	-0.220430
H280	H	0.339933	-0.711781	0.279570
H281	H	-0.174699	-0.567771	-0.174598
H282	H	0.325301	-0.067771	0.325402
H283	H	-0.043790	-1.050476	-0.266668
H284	H	0.456210	-0.550476	0.233332
H285	H	-0.127109	-1.233836	-0.330588
H286	H	0.372891	-0.733836	0.169412
H287	H	-0.043763	-1.050728	-0.924151
H288	H	0.456237	-0.550728	-0.424151
H289	H	-0.171979	-0.841367	-0.171857
H290	H	0.328021	-0.341367	0.328143
H291	H	-0.714863	-1.000110	-0.020451
H292	H	-0.214863	-0.500110	0.479549
H293	H	-0.020809	-1.000060	-0.488324
H294	H	0.479191	-0.500060	0.011676
O295	O	-0.262708	-1.037314	-0.037367
O296	O	0.237292	-0.537314	0.462633
H297	H	-0.278813	-0.975273	-0.052208
H298	H	0.221187	-0.475273	0.447792
H299	H	-0.331506	-1.233978	-0.126585
H300	H	0.168494	-0.733978	0.373415
O301	O	-0.686972	-1.297821	-0.155514
O302	O	-0.186972	-0.797821	0.344486
H303	H	-0.658752	-1.332933	-0.171462
H304	H	-0.158752	-0.832933	0.328538
H305	H	-0.352491	-1.050646	-0.043420
H306	H	0.147509	-0.550646	0.456580
O307	O	-0.037712	-1.037163	-0.359519
O308	O	0.462288	-0.537163	0.140481
H309	H	-0.021754	-1.002020	-0.339380
H310	H	0.478246	-0.502020	0.160620
H311	H	-0.020806	-1.000094	-0.573427
H312	H	0.479194	-0.500094	-0.073427
O313	O	-0.037692	-1.037342	-0.834373
O314	O	0.462308	-0.537342	-0.334373
H315	H	-0.062390	-0.997099	-0.817637
H316	H	0.437610	-0.497099	-0.317637
O317	O	-0.156117	-1.297812	-0.545222
O318	O	0.343883	-0.797812	-0.045222
H319	H	-0.172079	-1.332933	-0.516963
H320	H	0.327921	-0.832933	-0.016963
H321	H	-0.020794	-1.000116	-0.629073
H322	H	0.479206	-0.500116	-0.129073
O323	O	-0.238655	-1.247327	-0.132656
O324	O	0.261345	-0.747327	0.367344
H325	H	-0.258823	-1.282463	-0.148590
H326	H	0.241177	-0.782463	0.351410
H327	H	-0.150051	-1.284418	-0.455449
H328	H	0.349949	-0.784418	0.044551
H329	H	-0.629755	-1.000109	-0.020463
H330	H	-0.129755	-0.500109	0.479537
O331	O	-0.014724	-0.986803	-0.721926
O332	O	0.485276	-0.486803	-0.221926
H333	H	0.001239	-0.951662	-0.701791
H334	H	0.501239	-0.451662	-0.201791
H335	H	-0.189167	-0.691606	-0.189109
H336	H	0.310833	-0.191606	0.310891
H337	H	-0.039509	-0.792359	-0.038989
H338	H	0.460491	-0.292359	0.461011
H339	H	-0.150047	-1.284505	-0.681303
H340	H	0.349953	-0.784505	-0.181303
O341	O	-0.932618	-1.037316	-0.037242
O342	O	-0.432618	-0.537316	0.462758
H343	H	-0.968211	-1.045811	-0.041087
H344	H	-0.468211	-0.545811	0.458913
H345	H	-0.541549	-1.284484	-0.149474
H346	H	-0.041549	-0.784484	0.350526
H347	H	0.001202	-0.443866	0.001847
H348	H	0.501202	0.056134	0.501847
O349	O	-0.448706	-1.297826	-0.155552
O350	O	0.051294	-0.797826	0.344448
H351	H	-0.413115	-1.289326	-0.151709
H352	H	0.086885	-0.789326	0.348291
O353	O	-0.133153	-1.247381	-0.810107
O354	O	0.366847	-0.747381	-0.310107
H355	H	-0.108453	-1.287613	-0.784094
H356	H	0.391547	-0.787613	-0.284094
H357	H	-0.488998	-1.000128	-0.020484
H358	H	0.011002	-0.500128	0.479516
H359	H	-0.574103	-1.000127	-0.020471
H360	H	-0.074103	-0.500127	0.479529
O361	O	0.012767	-0.728363	0.013449
O362	O	0.512767	-0.228363	0.513449
H363	H	0.027828	-0.685789	0.028552
H364	H	0.527828	-0.185789	0.528552
H365	H	-0.131259	-0.492873	-0.131025
H366	H	0.368741	0.007127	0.368975
O367	O	-0.156113	-1.297832	-0.588455
O368	O	0.343887	-0.797832	-0.088455
H369	H	-0.172076	-1.332965	-0.608595
H370	H	0.327924	-0.832965	-0.108595
