data_functionalizedCrystal
_audit_creation_method	'MofGen! by Chris Wilmer'
_symmetry_space_group_name_H-M	'P1'
_symmetry_Int_Tables_number	1
_symmetry_cell_setting	triclinic
loop_
_symmetry_equiv_pos_as_xyz
  x,y,z
_cell_length_a	21.295420
_cell_length_b	18.050589
_cell_length_c	18.050582
_cell_angle_alpha	89.981795
_cell_angle_beta	90.015064
_cell_angle_gamma	89.973528
loop_
_atom_site_label
_atom_site_type_symbol
_atom_site_fract_x
_atom_site_fract_y
_atom_site_fract_z
Zn1	Zn	0.962306	0.295741	0.419938
Zn2	Zn	1.462306	0.795741	0.919938
Zn3	Zn	0.962230	0.419925	0.295757
Zn4	Zn	1.462230	0.919925	0.795757
Zn5	Zn	0.857046	0.295749	0.295762
Zn6	Zn	1.357046	0.795749	0.795762
Zn7	Zn	0.857002	0.419890	0.419906
Zn8	Zn	1.357002	0.919890	0.919906
O9	O	0.909646	0.357826	0.357841
O10	O	1.409646	0.857826	0.857841
O11	O	1.050385	0.312226	0.403477
O12	O	1.550385	0.812226	0.903477
O13	O	0.948264	0.403470	0.191833
O14	O	1.448264	0.903470	0.691833
O15	O	0.871059	0.191823	0.312249
O16	O	1.371059	0.691823	0.812249
O17	O	1.050329	0.403463	0.312242
O18	O	1.550329	0.903463	0.812242
O19	O	0.948393	0.191818	0.403481
O20	O	1.448393	0.691818	0.903481
O21	O	0.870986	0.312239	0.191836
O22	O	1.370986	0.812239	0.691836
O23	O	0.768951	0.312206	0.312218
O24	O	1.268951	0.812206	0.812218
O25	O	0.870984	0.403404	0.523834
O26	O	1.370984	0.903404	1.023834
O27	O	0.768919	0.403411	0.403426
O28	O	1.268919	0.903411	0.903426
O29	O	0.948350	0.312192	0.523858
O30	O	1.448350	0.812192	1.023858
O31	O	0.948221	0.523845	0.312210
O32	O	1.448221	1.023845	0.812210
O33	O	0.870911	0.523819	0.403422
O34	O	1.370911	1.023819	0.903422
C35	C	0.746094	0.357806	0.357819
C36	C	1.246094	0.857806	0.857819
C37	C	0.676126	0.357815	0.357828
C38	C	1.176126	0.857815	0.857828
C39	C	0.909570	0.550778	0.357828
C40	C	1.409570	1.050778	0.857828
C41	C	0.909595	0.633324	0.357848
C42	C	1.409595	1.133324	0.857848
C43	C	0.176668	0.405405	0.405287
C44	C	0.676668	0.905405	0.905287
C45	C	0.242411	0.405405	0.405279
C46	C	0.742411	0.905405	0.905279
C47	C	0.275287	0.357843	0.357864
C48	C	0.775287	0.857843	0.857864
C49	C	0.242415	0.310291	0.310440
C50	C	0.742415	0.810291	0.810440
C51	C	0.176674	0.310297	0.310444
C52	C	0.676674	0.810297	0.810444
N53	N	0.378526	0.292818	0.352271
N54	N	0.878526	0.792818	0.852271
N55	N	0.440978	0.292814	0.352272
N56	N	0.940978	0.792814	0.852272
C57	C	0.473362	0.357822	0.357848
C58	C	0.973362	0.857822	0.857848
N59	N	0.440935	0.422836	0.363439
N60	N	0.940935	0.922836	0.863439
N61	N	0.378478	0.422839	0.363442
N62	N	0.878478	0.922839	0.863442
C63	C	0.346572	0.357831	0.357854
C64	C	0.846572	0.857831	0.857854
C65	C	0.577511	0.405375	0.405257
C66	C	1.077511	0.905375	0.905257
C67	C	0.643255	0.405377	0.405244
C68	C	1.143255	0.905377	0.905244
C69	C	0.643258	0.310256	0.310409
C70	C	1.143258	0.810256	0.810409
C71	C	0.577516	0.310261	0.310418
C72	C	1.077516	0.810261	0.810418
C73	C	0.544646	0.357820	0.357846
C74	C	1.044646	0.857820	0.857846
C75	C	0.909671	0.357793	0.551546
C76	C	1.409671	0.857793	1.051546
C77	C	0.909681	0.357779	0.634092
C78	C	1.409681	0.857779	1.134092
C79	C	1.073836	0.357847	0.357862
C80	C	1.573836	0.857847	0.857862
C81	C	1.143804	0.357856	0.357872
C82	C	1.643804	0.857856	0.857872
C83	C	0.909739	0.164121	0.357869
C84	C	1.409739	0.664121	0.857869
C85	C	0.909779	0.081575	0.357881
C86	C	1.409779	0.581575	0.857881
C87	C	0.867595	0.832788	0.407431
C88	C	1.367595	1.332788	0.907431
C89	C	0.852255	0.882221	0.339664
C90	C	1.352255	1.382221	0.839664
C91	C	0.909657	0.784455	0.357858
C92	C	1.409657	1.284455	0.857858
C93	C	0.925028	0.882103	0.425633
C94	C	1.425028	1.382103	0.925633
C95	C	0.909716	0.930440	0.357873
C96	C	1.409716	1.430440	0.857873
C97	C	0.894287	0.832801	0.290054
C98	C	1.394287	1.332801	0.790054
C99	C	0.967086	0.832678	0.376069
C100	C	1.467086	1.332678	0.876069
C101	C	0.951768	0.882089	0.308255
C102	C	1.451768	1.382089	0.808255
C103	C	0.909622	0.700356	0.357850
C104	C	1.409622	1.200356	0.857850
C105	C	0.909751	1.014536	0.357873
C106	C	1.409751	1.514536	0.857873
C107	C	0.909658	0.357806	0.164889
C108	C	1.409658	0.857806	0.664889
C109	C	0.909769	0.357610	0.082343
C110	C	1.409769	0.857610	0.582343
C111	C	0.867642	0.407312	0.833530
C112	C	1.367642	0.907312	1.333530
C113	C	0.925073	0.425468	0.882923
C114	C	1.425073	0.925468	1.382923
C115	C	0.909712	0.357723	0.785223
C116	C	1.409712	0.857723	1.285223
C117	C	0.852313	0.339547	0.882911
C118	C	1.352313	0.839547	1.382911
C119	C	0.909737	0.357669	0.931208
C120	C	1.409737	0.857669	1.431208
C121	C	0.967174	0.375914	0.833528
C122	C	1.467174	0.875914	1.333528
C123	C	0.894374	0.289961	0.833512
C124	C	1.394374	0.789961	1.333512
C125	C	0.951845	0.308090	0.882883
C126	C	1.451845	0.808090	1.382883
C127	C	0.909697	0.357755	0.701124
C128	C	1.409697	0.857755	1.201124
C129	C	0.909759	0.357637	1.015304
C130	C	1.409759	0.857637	1.515304
H131	H	0.149910	0.444133	0.443903
H132	H	0.649910	0.944133	0.943903
O133	O	0.144650	0.264184	0.264398
O134	O	0.644650	0.764184	0.764398
C135	C	0.043373	0.222032	0.222387
C136	C	0.543373	0.722032	0.722387
C137	C	0.079563	0.274298	0.274565
C138	C	0.579563	0.774298	0.774565
H139	H	-0.009256	0.230179	0.230599
H140	H	0.490744	0.730179	0.730599
H141	H	0.056236	0.235010	0.162470
H142	H	0.556236	0.735010	0.662470
H143	H	0.056354	0.162167	0.235501
H144	H	0.556354	0.662167	0.735501
H145	H	0.066602	0.334180	0.261517
H146	H	0.566602	0.834180	0.761517
H147	H	0.066697	0.261256	0.334466
H148	H	0.566697	0.761256	0.834466
O149	O	0.878751	0.807203	0.221611
O150	O	1.378751	1.307203	0.721611
C151	C	0.850253	0.838482	0.096240
C152	C	1.350253	1.338482	0.596240
C153	C	0.867855	0.867572	0.173707
C154	C	1.367855	1.367572	0.673707
H155	H	0.841426	0.887275	0.057492
H156	H	1.341426	1.387275	0.557492
H157	H	0.890337	0.803279	0.073570
H158	H	1.390337	1.303279	0.573570
H159	H	0.805918	0.803345	0.100325
H160	H	1.305918	1.303345	0.600325
H161	H	0.912174	0.902740	0.169685
H162	H	1.412174	1.402740	0.669685
H163	H	0.827735	0.902735	0.196348
H164	H	1.327735	1.402735	0.696348
O165	O	0.825230	0.457458	0.807795
O166	O	1.325230	0.957458	1.307795
C167	C	0.747814	0.549768	0.838823
C168	C	1.247814	1.049768	1.338823
C169	C	0.795830	0.493018	0.868067
C170	C	1.295830	0.993018	1.368067
H171	H	0.724021	0.578523	0.887537
H172	H	1.224021	1.078523	1.387537
H173	H	0.772908	0.592724	0.803234
H174	H	1.272908	1.092724	1.303234
H175	H	0.710933	0.520028	0.804037
H176	H	1.210933	1.020028	1.304037
H177	H	0.832724	0.522695	0.902884
H178	H	1.332724	1.022695	1.402884
H179	H	0.770692	0.450066	0.903615
H180	H	1.270692	0.950066	1.403615
O181	O	0.794423	0.321267	0.908915
O182	O	1.294423	0.821267	1.408915
C183	C	0.729756	0.300036	1.016366
C184	C	1.229756	0.800036	1.516366
C185	C	0.795342	0.320755	0.987020
C186	C	1.295342	0.820755	1.487020
H187	H	0.730481	0.299600	1.079516
H188	H	1.230481	0.799600	1.579516
H189	H	0.693916	0.342403	0.996145
H190	H	1.193916	0.842403	1.496145
H191	H	0.716325	0.242710	0.995152
H192	H	1.216325	0.742710	1.495152
H193	H	0.808832	0.378063	1.008221
H194	H	1.308832	0.878063	1.508221
H195	H	0.831143	0.278340	1.007233
H196	H	1.331143	0.778340	1.507233
H197	H	0.831973	0.811140	0.449295
H198	H	1.331973	1.311140	0.949295
O199	O	0.994224	0.907885	0.258250
O200	O	1.494224	1.407885	0.758250
C201	C	1.042239	1.015108	0.202466
C202	C	1.542239	1.515108	0.702466
C203	C	0.994152	0.985992	0.259137
C204	C	1.494152	1.485992	0.759137
H205	H	1.042187	1.078261	0.203152
H206	H	1.542187	1.578261	0.703152
H207	H	1.091048	0.993910	0.217483
H208	H	1.591048	1.493910	0.717483
H209	H	1.029047	0.994701	0.144763
H210	H	1.529047	1.494701	0.644763
H211	H	1.007285	1.006388	0.316859
H212	H	1.507285	1.506388	0.816859
H213	H	0.945356	1.007185	0.244055
H214	H	1.445356	1.507185	0.744055
H215	H	1.015614	0.810901	0.391491
H216	H	1.515614	1.310901	0.891491
O217	O	0.940441	0.907852	0.494058
O218	O	1.440441	1.407852	0.994058
C219	C	0.913448	0.912038	0.623623
C220	C	1.413448	1.412038	1.123623
C221	C	0.895936	0.882818	0.546175
C222	C	1.395936	1.382818	1.046175
H223	H	0.877468	0.891822	0.665778
H224	H	1.377468	1.391822	1.165778
H225	H	0.962020	0.890787	0.639606
H226	H	1.462020	1.390787	1.139606
H227	H	0.913800	0.975188	0.622806
H228	H	1.413800	1.475188	1.122806
H229	H	0.895548	0.819670	0.546933
H230	H	1.395548	1.319670	1.046933
H231	H	0.847375	0.904125	0.530222
H232	H	1.347375	1.404125	1.030222
H233	H	0.938061	0.482750	0.904626
H234	H	1.438061	0.982750	1.404626
H235	H	0.803716	0.904000	0.324274
H236	H	1.303716	1.404000	0.824274
H237	H	1.015740	0.391330	0.811927
H238	H	1.515740	0.891330	1.311927
H239	H	0.987474	0.266131	0.904416
H240	H	1.487474	0.766131	1.404416
H241	H	0.881370	0.232695	0.811793
H242	H	1.381370	0.732695	1.311793
H243	H	0.550758	0.271539	0.271810
H244	H	1.050758	0.771539	0.771810
O245	O	0.274316	0.451512	0.451450
O246	O	0.774316	0.951512	0.951450
C247	C	0.294430	0.487736	0.577718
C248	C	0.794430	0.987736	1.077718
C249	C	0.258271	0.435465	0.525514
C250	C	0.758271	0.935465	1.025514
H251	H	0.281461	0.474791	0.637609
H252	H	0.781461	0.974791	1.137609
H253	H	0.347070	0.479555	0.569632
H254	H	0.847070	0.979555	1.069632
H255	H	0.281494	0.547602	0.564550
H256	H	0.781494	1.047602	1.064550
H257	H	0.271155	0.375579	0.538650
H258	H	0.771155	0.875579	1.038650
H259	H	0.205640	0.443711	0.533609
H260	H	0.705640	0.943711	1.033609
O261	O	0.274419	0.264193	0.264346
O262	O	0.774419	0.764193	0.764346
C263	C	0.348594	0.254067	0.164065
C264	C	0.848594	0.754067	0.664065
C265	C	0.312401	0.306354	0.216236
C266	C	0.812401	0.806354	0.716236
H267	H	0.379301	0.288133	0.125145
H268	H	0.879301	0.788133	0.625145
H269	H	0.379435	0.215288	0.198183
H270	H	0.879435	0.715288	0.698183
H271	H	0.313799	0.220064	0.130208
H272	H	0.813799	0.720064	0.630208
H273	H	0.347151	0.340404	0.250104
H274	H	0.847151	0.840404	0.750104
H275	H	0.281550	0.345084	0.182076
H276	H	0.781550	0.845084	0.682076
H277	H	0.550747	0.444101	0.443875
H278	H	1.050747	0.944101	0.943875
H279	H	0.670011	0.444102	0.443853
H280	H	1.170011	0.944102	0.943853
H281	H	0.670025	0.271533	0.271800
H282	H	1.170025	0.771533	0.771800
