data_functionalizedCrystal
_audit_creation_method	'MofGen! by Chris Wilmer'
_symmetry_space_group_name_H-M	'P1'
_symmetry_Int_Tables_number	1
_symmetry_cell_setting	triclinic
loop_
_symmetry_equiv_pos_as_xyz
  x,y,z
_cell_length_a	10.967926
_cell_length_b	15.944551
_cell_length_c	10.065875
_cell_angle_alpha	98.788968
_cell_angle_beta	93.120479
_cell_angle_gamma	84.118690
loop_
_atom_site_label
_atom_site_type_symbol
_atom_site_fract_x
_atom_site_fract_y
_atom_site_fract_z
O1	O	1.612902	0.146475	0.265847
O2	O	1.262859	0.148873	0.183516
O3	O	1.447438	0.025699	0.226942
O4	O	1.428323	0.269648	0.222422
O5	O	1.412241	0.049286	0.445650
O6	O	1.227662	0.172459	0.402224
O7	O	1.577706	0.170061	0.484555
Zn8	Zn	1.397096	0.175005	0.478114
Zn9	Zn	1.443469	0.143929	0.189957
O10	O	1.393127	0.293234	0.441130
C11	C	1.200467	0.158709	0.282335
C12	C	1.066996	0.152869	0.250943
C13	C	0.989257	0.162483	0.350244
C14	C	0.851308	0.156447	0.317801
C15	C	1.429045	0.006174	0.336109
C16	C	1.426666	-0.087147	0.335551
C17	C	1.306570	-0.305765	0.307285
C18	C	1.344986	-0.353407	0.428238
C19	C	1.422363	-0.258008	0.334528
C20	C	1.379714	-0.376644	0.212616
C21	C	1.418199	-0.423053	0.333533
C22	C	1.460796	-0.304412	0.455578
C23	C	1.495524	-0.327653	0.239855
C24	C	1.534020	-0.375272	0.360854
C25	C	1.424758	-0.162930	0.335102
C26	C	1.415811	-0.518129	0.332970
C27	C	1.640098	0.160224	0.385734
C28	C	1.773570	0.166063	0.417117
C29	C	1.411519	0.312760	0.331959
C30	C	1.413900	0.406079	0.332509
N31	N	1.365456	0.196213	0.674776
N32	N	1.475118	0.122714	-0.006702
C33	C	1.432453	0.151302	0.758317
C34	C	1.408111	0.167632	0.909758
H35	H	0.815741	0.143744	0.208760
Cl36	Cl	1.158152	-0.258968	0.272540
Cl37	Cl	1.513676	-0.255992	0.614258
H38	H	1.031423	0.140167	0.141909
H39	H	0.809136	0.178761	0.526159
Cl40	Cl	1.246722	-0.371641	0.551210
Cl41	Cl	1.682527	-0.421812	0.395875
H42	H	1.345395	-0.408087	0.109919
Cl43	Cl	1.593730	-0.309385	0.116862
Cl44	Cl	1.548565	0.073076	0.695594
Cl45	Cl	1.291717	0.245660	0.972410
Cl46	Cl	1.591764	0.044867	0.930708
Cl47	Cl	1.249066	0.274239	0.737435
H48	H	1.024831	0.175179	0.459278
