data_functionalizedCrystal
_audit_creation_method	'MofGen! by Chris Wilmer'
_symmetry_space_group_name_H-M	'P1'
_symmetry_Int_Tables_number	1
_symmetry_cell_setting	triclinic
loop_
_symmetry_equiv_pos_as_xyz
  x,y,z
_cell_length_a	15.625020
_cell_length_b	17.699083
_cell_length_c	16.176319
_cell_angle_alpha	90.007696
_cell_angle_beta	71.909127
_cell_angle_gamma	96.219031
loop_
_atom_site_label
_atom_site_type_symbol
_atom_site_fract_x
_atom_site_fract_y
_atom_site_fract_z
O1	O	1.196083	-0.098812	-0.427362
O2	O	1.696083	0.401188	0.072638
O3	O	0.933563	-0.110584	-0.348654
O4	O	1.433563	0.389416	0.151346
O5	O	1.072240	0.005472	-0.390224
O6	O	1.572240	0.505472	0.109776
O7	O	1.057406	-0.214868	-0.385791
O8	O	1.557406	0.285132	0.114209
O9	O	1.072221	0.005479	-0.252725
O10	O	1.572221	0.505479	0.247275
O11	O	0.933544	-0.110577	-0.211155
O12	O	1.433544	0.389423	0.288845
O13	O	1.196064	-0.098805	-0.289863
O14	O	1.696064	0.401195	0.210137
Cu15	Cu	1.064802	-0.104690	-0.237954
Cu16	Cu	1.564802	0.395310	0.262046
Cu17	Cu	1.064825	-0.104699	-0.400563
Cu18	Cu	1.564825	0.395301	0.099437
O19	O	1.057387	-0.214861	-0.248293
O20	O	1.557387	0.285139	0.251707
C21	C	0.899964	-0.110047	-0.269834
C22	C	1.399964	0.389953	0.230166
C23	C	0.799880	-0.108449	-0.239827
C24	C	1.299880	0.391551	0.260173
C25	C	0.658804	-0.106192	-0.122588
C26	C	1.158804	0.393808	0.377412
C27	C	0.752848	-0.107694	-0.150793
C28	C	1.252848	0.392306	0.349207
C29	C	0.752879	-0.107699	-0.300691
C30	C	1.252879	0.392301	0.199309
C31	C	0.658833	-0.106194	-0.272499
C32	C	1.158833	0.393806	0.227501
C33	C	0.611803	-0.105441	-0.183446
C34	C	1.111803	0.394559	0.316554
C35	C	0.611832	-0.105442	-0.333358
C36	C	1.111832	0.394558	0.166642
C37	C	0.517794	-0.103941	-0.305167
C38	C	1.017794	0.396059	0.194833
C39	C	0.470757	-0.103191	-0.216118
C40	C	0.970757	0.396809	0.283882
C41	C	0.517765	-0.103940	-0.155256
C42	C	1.017765	0.396060	0.344744
C43	C	0.658863	-0.106200	-0.422410
C44	C	1.158863	0.393800	0.077590
C45	C	0.611862	-0.105449	-0.483268
C46	C	1.111862	0.394551	0.016732
C47	C	0.517823	-0.103942	-0.455078
C48	C	1.017823	0.396058	0.044922
C49	C	0.470786	-0.103192	-0.366029
C50	C	0.970786	0.396808	0.133971
C51	C	0.470815	-0.103193	-0.515941
C52	C	0.970815	0.396807	-0.015941
C53	C	0.376777	-0.101692	-0.487750
C54	C	0.876777	0.398308	0.012250
C55	C	0.376748	-0.101691	-0.337839
C56	C	0.876748	0.398309	0.162161
C57	C	1.071699	0.033674	-0.321315
C58	C	1.571699	0.533674	0.178685
C59	C	1.070104	0.117696	-0.320837
C60	C	1.570104	0.617696	0.179163
C61	C	1.229662	-0.099341	-0.368685
C62	C	1.729662	0.400659	0.131315
C63	C	1.329747	-0.100939	-0.398697
C64	C	1.829747	0.399061	0.101303
C65	C	1.057928	-0.243063	-0.317203
C66	C	1.557928	0.256937	0.182797
C67	C	1.059523	-0.327085	-0.317687
C68	C	1.559523	0.172915	0.182313
N69	N	1.064793	-0.104683	-0.123586
N70	N	1.564793	0.395317	0.376414
C71	C	1.151505	0.166106	-0.345241
C72	C	1.651505	0.666106	0.154759
C73	C	1.150001	0.245053	-0.344797
C74	C	1.650001	0.745053	0.155203
C75	C	1.067096	0.275589	-0.319944
C76	C	1.567096	0.775589	0.180056
C77	C	0.985689	0.227173	-0.295540
C78	C	1.485689	0.727173	0.204460
C79	C	0.987194	0.148227	-0.295990
C80	C	1.487194	0.648227	0.204010
C81	C	0.979620	0.545552	-0.293727
C82	C	1.479620	1.045552	0.206273
C83	C	0.978121	0.624503	-0.293277
C84	C	1.478121	1.124503	0.206723
C85	C	1.142427	0.642378	-0.342535
C86	C	1.642427	1.142378	0.157465
C87	C	1.143931	0.563432	-0.342984
C88	C	1.643931	1.063432	0.157016
C89	C	1.062525	0.515023	-0.318586
C90	C	1.562525	1.015023	0.181414
C91	C	1.064157	0.429419	-0.319068
C92	C	1.564157	0.929419	0.180932
C93	C	1.065464	0.361191	-0.319455
C94	C	1.565464	0.861191	0.180545
N95	N	1.064841	-0.104699	-0.514933
N96	N	1.564841	0.395301	-0.014933
C97	C	1.126217	-0.053315	-0.098735
C98	C	1.626217	0.446685	0.401265
C99	C	1.126222	-0.053314	-0.012189
C100	C	1.626222	0.446686	0.487811
C101	C	1.064806	-0.104686	0.049503
C102	C	1.564806	0.395314	0.549503
C103	C	1.003375	-0.156057	0.024647
C104	C	1.503375	0.343943	0.524647
C105	C	1.003366	-0.156054	-0.061896
C106	C	1.503366	0.343946	0.438104
C107	C	1.003405	-0.156071	0.373666
C108	C	1.503405	0.343929	0.873666
C109	C	1.003420	-0.156072	0.460213
C110	C	1.503420	0.343928	0.960213
C111	C	1.126261	-0.053332	0.423373
C112	C	1.626261	0.446668	0.923373
C113	C	1.126253	-0.053328	0.336830
C114	C	1.626253	0.446672	0.836830
C115	C	1.064819	-0.104696	0.311983
C116	C	1.564819	0.395304	0.811983
C117	C	1.064814	-0.104696	0.218140
C118	C	1.564814	0.395304	0.718140
C119	C	1.064815	-0.104691	0.143342
C120	C	1.564815	0.395309	0.643342
H121	H	0.479468	-0.103336	-0.082740
H122	H	0.979468	0.396664	0.417260
H123	H	0.953404	-0.197907	0.510444
H124	H	1.453404	0.302093	1.010444
Br125	Br	0.919995	-0.225766	-0.095620
Br126	Br	1.419995	0.274234	0.404380
Br127	Br	1.260478	0.310751	-0.377919
Br128	Br	1.760478	0.810751	0.122081
Br129	Br	0.869140	0.479863	-0.260620
Br130	Br	1.369140	0.979863	0.239380
Br131	Br	1.256449	0.521995	-0.376716
Br132	Br	1.756449	1.021995	0.123284
Br133	Br	0.534651	-0.104225	-0.636793
Br134	Br	1.034651	0.395775	-0.136793
Br135	Br	0.816633	-0.108717	-0.068188
Br136	Br	1.316633	0.391283	0.431812
Br137	Br	1.209580	0.016403	-0.182454
Br138	Br	1.709580	0.516403	0.317546
H139	H	0.918186	0.252041	-0.275309
H140	H	1.418186	0.752041	0.224691
Br141	Br	0.876717	0.082526	-0.262876
Br142	Br	1.376717	0.582526	0.237124
Br143	Br	1.264025	0.124673	-0.378961
Br144	Br	1.764025	0.624673	0.121039
Br145	Br	1.252909	0.708081	-0.375649
Br146	Br	1.752909	1.208081	0.124351
H147	H	1.176238	-0.011485	0.008043
H148	H	1.676238	0.488515	0.508043
Br149	Br	1.209610	0.016389	0.253106
Br150	Br	1.709610	0.516389	0.753106
H151	H	0.338507	-0.101082	-0.537307
H152	H	0.838507	0.398918	-0.037307
H153	H	0.791183	-0.108315	-0.373199
H154	H	1.291183	0.391685	0.126801
H155	H	0.910606	0.649362	-0.273035
H156	H	1.410606	1.149362	0.226965
H157	H	0.650167	-0.106065	-0.555776
H158	H	1.150167	0.393935	-0.055776
H159	H	1.176281	-0.011503	0.443612
H160	H	1.676281	0.488497	0.943612
Br161	Br	0.343130	-0.101161	-0.177855
Br162	Br	0.843130	0.398839	0.322145
H163	H	0.953385	-0.197898	0.353443
H164	H	1.453385	0.302102	0.853443
Br165	Br	0.920015	-0.225773	0.108371
Br166	Br	1.420015	0.274227	0.608371
Br167	Br	0.594972	-0.105145	-0.001730
Br168	Br	1.094972	0.394855	0.498270
H169	H	0.338451	-0.101087	-0.265323
H170	H	0.838451	0.398913	0.234677
H171	H	0.735434	-0.107428	-0.445360
H172	H	1.235434	0.392572	0.054640
