data_functionalizedCrystal
_audit_creation_method	'MofGen! by Chris Wilmer'
_symmetry_space_group_name_H-M	'P1'
_symmetry_Int_Tables_number	1
_symmetry_cell_setting	triclinic
loop_
_symmetry_equiv_pos_as_xyz
  x,y,z
_cell_length_a	12.759394
_cell_length_b	19.805407
_cell_length_c	19.805399
_cell_angle_alpha	89.980427
_cell_angle_beta	89.976033
_cell_angle_gamma	90.014837
loop_
_atom_site_label
_atom_site_type_symbol
_atom_site_fract_x
_atom_site_fract_y
_atom_site_fract_z
Zn1	Zn	-0.418291	1.034790	-0.382737
Zn2	Zn	-0.593984	1.034728	-0.269556
Zn3	Zn	-0.418320	0.921605	-0.269561
Zn4	Zn	-0.593928	0.921591	-0.382702
O5	O	-0.506131	0.978178	-0.326139
O6	O	-0.441608	1.129498	-0.367735
O7	O	-0.570717	1.019701	-0.174840
O8	O	-0.271295	0.936651	-0.284591
O9	O	-0.570689	1.129453	-0.284581
O10	O	-0.271274	1.019808	-0.367740
O11	O	-0.441658	0.936590	-0.174844
O12	O	-0.441603	0.826886	-0.284558
O13	O	-0.570594	0.936628	-0.477423
O14	O	-0.570622	0.826876	-0.367682
O15	O	-0.441554	1.019794	-0.477449
O16	O	-0.740998	1.019688	-0.284548
O17	O	-0.740957	0.936567	-0.367676
C18	C	-0.506111	0.802322	-0.326117
C19	C	-0.506127	0.727090	-0.326124
C20	C	-0.573409	0.691759	-0.369336
C21	C	-0.573411	0.621070	-0.369346
C22	C	-0.506136	0.585715	-0.326139
C23	C	-0.438847	0.621051	-0.282924
C24	C	-0.438841	0.691739	-0.282919
C25	C	-0.438870	0.335978	-0.282947
C26	C	-0.438884	0.265286	-0.282954
C27	C	-0.573440	0.265310	-0.369374
C28	C	-0.573434	0.335997	-0.369368
C29	C	-0.506142	0.371327	-0.326157
C30	C	-0.506139	0.447976	-0.326148
C31	C	-0.506143	0.509068	-0.326144
C32	C	-0.779098	0.978138	-0.326123
C33	C	-0.895875	0.978182	-0.326138
C34	C	-0.895864	1.064801	-0.239641
C35	C	-0.950720	1.108128	-0.196401
C36	C	-1.060441	1.108168	-0.196419
C37	C	-1.115310	1.064877	-0.239684
C38	C	-1.060455	1.021550	-0.282925
C39	C	-0.950730	1.021514	-0.282900
C40	C	-1.060465	0.934936	-0.369424
C41	C	-0.950744	0.934892	-0.369403
C42	C	-1.115334	0.891645	-0.412689
C43	C	-1.060478	0.848314	-0.455927
C44	C	-0.950750	0.848275	-0.455906
C45	C	-0.895888	0.891565	-0.412644
C46	C	-0.232097	0.978238	-0.326170
C47	C	-0.115321	0.978263	-0.326183
C48	C	-0.506065	0.978216	-0.502682
C49	C	-0.506036	0.978233	-0.577914
C50	C	-0.506152	1.154721	-0.326161
C51	C	-0.506161	1.229953	-0.326171
C52	C	-0.438842	1.021539	-0.613272
C53	C	-0.438811	1.021545	-0.683961
C54	C	-0.505982	0.978249	-0.719289
C55	C	-0.573179	0.934939	-0.683926
C56	C	-0.573203	0.934929	-0.613239
C57	C	-0.573081	0.934977	-0.969000
C58	C	-0.573054	0.934992	-1.039692
C59	C	-0.438689	1.021594	-1.039721
C60	C	-0.438713	1.021584	-0.969034
C61	C	-0.505907	0.978271	-0.933677
C62	C	-0.505937	0.978263	-0.857028
C63	C	-0.505957	0.978260	-0.795937
C64	C	-0.506121	0.978180	-0.150283
C65	C	-0.505853	0.978295	-0.075051
H66	H	-0.384094	0.236502	-0.247770
O67	O	-0.638393	0.892943	-0.718347
C68	C	-0.623947	0.902225	-0.788320
H69	H	-0.589545	0.954470	-0.797989
H70	H	-0.702634	0.897619	-0.815173
H71	H	-0.567985	0.862094	-0.808379
O72	O	-0.373471	0.370188	-0.240909
C73	C	-0.314079	0.323821	-0.202789
H74	H	-0.357122	0.273430	-0.200398
H75	H	-0.302749	0.344224	-0.149472
H76	H	-0.234343	0.316318	-0.227670
H77	H	-0.627754	0.899732	-1.068454
O78	O	-0.373306	1.063568	-0.934752
C79	C	-0.268593	1.048805	-0.952055
H80	H	-0.263287	0.994736	-0.971475
H81	H	-0.216696	1.054639	-0.905580
H82	H	-0.241122	1.085102	-0.993100
H83	H	-0.384066	0.592259	-0.247747
O84	O	-0.638436	0.892875	-0.934764
C85	C	-0.697689	0.854649	-0.981107
H86	H	-0.701334	0.882389	-1.031494
H87	H	-0.780465	0.847386	-0.960667
H88	H	-0.659181	0.803263	-0.988633
H89	H	-0.627910	0.899658	-0.584451
H90	H	-0.383973	1.056859	-1.068518
H91	H	-0.628199	0.592306	-0.404534
O92	O	-1.221916	0.891809	-0.412711
C93	C	-1.258476	0.956679	-0.430168
H94	H	-1.195210	0.995649	-0.418624
H95	H	-1.331899	0.968749	-0.399661
H96	H	-1.277882	0.958094	-0.486333
H97	H	-0.628195	0.720540	-0.404519
H98	H	-0.628219	0.364780	-0.404550
H99	H	-0.628229	0.236535	-0.404562
H100	H	-0.384048	0.720505	-0.247734
H101	H	-0.806523	1.064765	-0.239613
O102	O	-0.897258	1.150114	-0.154396
C103	C	-0.788651	1.140803	-0.163660
H104	H	-0.773705	1.088553	-0.185781
H105	H	-0.747002	1.145404	-0.112956
H106	H	-0.757425	1.180923	-0.199731
O107	O	-1.113571	1.150277	-0.154353
C108	C	-1.041622	1.188492	-0.116177
H109	H	-0.963442	1.160746	-0.113792
H110	H	-1.073379	1.195749	-0.062861
H111	H	-1.029866	1.239881	-0.141004
H112	H	-1.204651	1.064919	-0.239701
H113	H	-1.105161	0.813073	-0.491153
O114	O	-0.897629	0.806125	-0.497935
C115	C	-0.969590	0.767944	-0.536136
H116	H	-1.047836	0.765640	-0.508424
H117	H	-0.937950	0.714601	-0.543313
H118	H	-0.981174	0.792715	-0.587562
O119	O	-0.373440	1.063525	-0.578988
C120	C	-0.268723	1.048766	-0.596287
H121	H	-0.263410	0.994697	-0.615707
H122	H	-0.216831	1.054602	-0.549810
H123	H	-0.241252	1.085064	-0.637331
H124	H	-0.806547	0.891533	-0.412618
O125	O	-0.373417	1.063514	-0.718333
C126	C	-0.305551	1.024997	-0.759226
H127	H	-0.299076	0.971686	-0.737914
H128	H	-0.224696	1.049490	-0.760032
H129	H	-0.337999	1.022669	-0.812799
