data_functionalizedCrystal
_audit_creation_method	'MofGen! by Chris Wilmer'
_symmetry_space_group_name_H-M	'P1'
_symmetry_Int_Tables_number	1
_symmetry_cell_setting	triclinic
loop_
_symmetry_equiv_pos_as_xyz
  x,y,z
_cell_length_a	12.827893
_cell_length_b	18.050589
_cell_length_c	12.827885
_cell_angle_alpha	89.970449
_cell_angle_beta	89.980728
_cell_angle_gamma	90.028191
loop_
_atom_site_label
_atom_site_type_symbol
_atom_site_fract_x
_atom_site_fract_y
_atom_site_fract_z
Zn1	Zn	1.597576	-0.295624	-0.590850
Zn2	Zn	1.597431	-0.419832	-0.416111
Zn3	Zn	1.422818	-0.295660	-0.416124
Zn4	Zn	1.422764	-0.419777	-0.590811
O5	O	1.510147	-0.357723	-0.503474
O6	O	1.743793	-0.312109	-0.567682
O7	O	1.574230	-0.403399	-0.269877
O8	O	1.446083	-0.191731	-0.439323
O9	O	1.743687	-0.403364	-0.439302
O10	O	1.574478	-0.191704	-0.567694
O11	O	1.445943	-0.312170	-0.269886
O12	O	1.276575	-0.312117	-0.439286
O13	O	1.445991	-0.403269	-0.737053
O14	O	1.276535	-0.403304	-0.567628
O15	O	1.574425	-0.312055	-0.737081
O16	O	1.574178	-0.523749	-0.439264
O17	O	1.445851	-0.523709	-0.567615
C18	C	1.238638	-0.357709	-0.503454
C19	C	1.122484	-0.357721	-0.503471
C20	C	1.510021	-0.550675	-0.503457
C21	C	1.510063	-0.633221	-0.503484
C22	C	1.070708	-0.402914	-0.566880
C23	C	0.950657	-0.402927	-0.566899
C24	C	1.440347	-0.832677	-0.573257
C25	C	1.414870	-0.882124	-0.477900
C26	C	1.510166	-0.784351	-0.503498
C27	C	1.535694	-0.881986	-0.598866
C28	C	1.510263	-0.930337	-0.503520
C29	C	1.484639	-0.832712	-0.408091
C30	C	1.605506	-0.832569	-0.529120
C31	C	1.580066	-0.881994	-0.433698
C32	C	1.510107	-0.700253	-0.503487
C33	C	1.510322	-1.014433	-0.503520
C34	C	1.782718	-0.357738	-0.503495
C35	C	1.898871	-0.357745	-0.503504
C36	C	1.510219	-0.357652	-0.776045
C37	C	1.510249	-0.357622	-0.892198
C38	C	1.510303	-0.164018	-0.503515
C39	C	1.510369	-0.081472	-0.503532
C40	C	1.573809	-0.312477	-0.943997
C41	C	1.573842	-0.312444	-1.064047
C42	C	1.510137	-0.357741	-0.231964
C43	C	1.510309	-0.357562	-0.115812
H44	H	1.115256	-0.441593	-0.621158
H45	H	1.628197	-0.273848	-0.899467
C46	C	1.437711	-0.409190	-1.056619
C47	C	1.379126	-0.450821	-1.127650
C48	C	1.312252	-0.498397	-1.073153
H49	H	1.392134	-0.380851	-1.014033
H50	H	1.477672	-0.441573	-1.014065
H51	H	1.339168	-0.418442	-1.170187
H52	H	1.424675	-0.479175	-1.170239
H53	H	1.352213	-0.530781	-1.030598
H54	H	1.266682	-0.470053	-1.030568
H55	H	1.272501	-0.526655	-1.121338
C56	C	1.307346	-0.911110	-0.449205
C57	C	1.234511	-0.886143	-0.522487
C58	C	1.135451	-0.912834	-0.496102
H59	H	1.288624	-0.893530	-0.381978
H60	H	1.308277	-0.963738	-0.448843
H61	H	1.233577	-0.833526	-0.522839
H62	H	1.253199	-0.903720	-0.589720
H63	H	1.136381	-0.965462	-0.495739
H64	H	1.116739	-0.895253	-0.428874
H65	H	1.086021	-0.895904	-0.545824
C66	C	0.891107	-0.454440	-0.639251
C67	C	0.783875	-0.444194	-0.624910
C68	C	0.728983	-0.491629	-0.691554
H69	H	0.908787	-0.504365	-0.623919
H70	H	0.908922	-0.443631	-0.709526
H71	H	0.766068	-0.455008	-0.554650
H72	H	0.766164	-0.394279	-0.640249
H73	H	0.746798	-0.480820	-0.761830
H74	H	0.746671	-0.541552	-0.676218
H75	H	0.656221	-0.484679	-0.681840
H76	H	1.628261	-0.273797	-1.108593
H77	H	0.943391	-0.319054	-0.449210
H78	H	1.077936	-0.319036	-0.449201
H79	H	1.381217	-0.811021	-0.632167
H80	H	1.462993	-0.811157	-0.327426
H81	H	1.557247	-0.903630	-0.679509
C82	C	1.658712	-0.910654	-0.354798
C83	C	1.631552	-0.885568	-0.255166
C84	C	1.703963	-0.911964	-0.182454
H85	H	1.726242	-0.892953	-0.372275
H86	H	1.658709	-0.963284	-0.355571
H87	H	1.631565	-0.832949	-0.254396
H88	H	1.564034	-0.903267	-0.237657
H89	H	1.703961	-0.964594	-0.183227
H90	H	1.771489	-0.894261	-0.199940
H91	H	1.685540	-0.894953	-0.114844
C92	C	1.712890	-0.803559	-0.558262
C93	C	1.739166	-0.828464	-0.658220
C94	C	1.838073	-0.801745	-0.685118
H95	H	1.762803	-0.821161	-0.509508
H96	H	1.712241	-0.750931	-0.557473
H97	H	1.739823	-0.881080	-0.659002
H98	H	1.689280	-0.810863	-0.706996
H99	H	1.837424	-0.749117	-0.684329
H100	H	1.887977	-0.819349	-0.636359
H101	H	1.855910	-0.818633	-0.752946
H102	H	1.455850	-0.396243	-0.936728
