data_functionalizedCrystal
_audit_creation_method	'MofGen! by Chris Wilmer'
_symmetry_space_group_name_H-M	'P1'
_symmetry_Int_Tables_number	1
_symmetry_cell_setting	triclinic
loop_
_symmetry_equiv_pos_as_xyz
  x,y,z
_cell_length_a	17.019282
_cell_length_b	19.288859
_cell_length_c	18.366186
_cell_angle_alpha	89.994011
_cell_angle_beta	93.872176
_cell_angle_gamma	83.261635
loop_
_atom_site_label
_atom_site_type_symbol
_atom_site_fract_x
_atom_site_fract_y
_atom_site_fract_z
O1	O	1.046364	0.088442	0.005083
O2	O	1.379697	0.421776	0.338417
O3	O	1.713031	0.755109	0.671750
O4	O	0.816659	0.099737	-0.009326
O5	O	1.149993	0.433071	0.324007
O6	O	1.483326	0.766404	0.657341
O7	O	0.938151	-0.007029	-0.001700
O8	O	1.271485	0.326304	0.331633
O9	O	1.604818	0.659637	0.664966
O10	O	0.924872	0.195209	-0.002542
O11	O	1.258205	0.528542	0.330791
O12	O	1.591538	0.861876	0.664125
O13	O	0.938131	-0.007035	0.119398
O14	O	1.271464	0.326299	0.452731
O15	O	1.604798	0.659632	0.786064
O16	O	0.816639	0.099732	0.111772
O17	O	1.149972	0.433065	0.445105
O18	O	1.483305	0.766399	0.778439
O19	O	1.046343	0.088437	0.126182
O20	O	1.379677	0.421770	0.459515
O21	O	1.713010	0.755104	0.792848
Zn22	Zn	0.931488	0.094084	0.138204
Zn23	Zn	1.264821	0.427417	0.471537
Zn24	Zn	1.598154	0.760750	0.804870
Zn25	Zn	0.931515	0.094091	-0.021348
Zn26	Zn	1.264848	0.427424	0.311985
Zn27	Zn	1.598182	0.760757	0.645318
O28	O	0.924851	0.195204	0.118556
O29	O	1.258184	0.528537	0.451889
O30	O	1.591518	0.861870	0.785223
C31	C	0.937715	-0.032909	0.058821
C32	C	1.271048	0.300424	0.392155
C33	C	1.604381	0.633757	0.725488
C34	C	0.936434	-0.110015	0.058740
C35	C	1.269768	0.223318	0.392073
C36	C	1.603101	0.556651	0.725406
C37	C	0.787262	0.099308	0.049380
C38	C	1.120595	0.432642	0.382713
C39	C	1.453928	0.765975	0.716046
C40	C	0.699696	0.098029	0.043887
C41	C	1.033030	0.431363	0.377220
C42	C	1.366363	0.764696	0.710553
C43	C	0.999060	-0.673949	0.062649
C44	C	1.332393	-0.340615	0.395982
C45	C	1.665727	-0.007282	0.729316
C46	C	1.000270	-0.601500	0.062731
C47	C	1.333603	-0.268167	0.396065
C48	C	1.666936	0.065167	0.729398
C49	C	0.928984	-0.556916	0.058259
C50	C	1.262317	-0.223582	0.391593
C51	C	1.595650	0.109751	0.724926
C52	C	0.856482	-0.584785	0.053723
C53	C	1.189816	-0.251451	0.387057
C54	C	1.523149	0.081882	0.720390
C55	C	0.855274	-0.657232	0.053648
C56	C	1.188608	-0.323899	0.386982
C57	C	1.521941	0.009434	0.720315
C58	C	0.875826	-0.435731	0.012500
C59	C	1.209159	-0.102398	0.345833
C60	C	1.542493	0.230936	0.679166
C61	C	0.877037	-0.363285	0.012570
C62	C	1.210370	-0.029952	0.345904
C63	C	1.543703	0.303381	0.679237
C64	C	0.932706	-0.333463	0.058494
C65	C	1.266039	-0.000130	0.391827
C66	C	1.599373	0.333203	0.725160
C67	C	0.987177	-0.376097	0.104338
C68	C	1.320511	-0.042764	0.437671
C69	C	1.653844	0.290569	0.771004
C70	C	0.985970	-0.448545	0.104263
C71	C	1.319303	-0.115211	0.437596
C72	C	1.652636	0.218122	0.770929
C73	C	0.930285	-0.478358	0.058341
C74	C	1.263619	-0.145024	0.391674
C75	C	1.596952	0.188309	0.725007
C76	C	1.006514	-0.227045	0.063124
C77	C	1.339848	0.106288	0.396457
C78	C	1.673181	0.439621	0.729791
C79	C	1.007721	-0.154595	0.063211
C80	C	1.341055	0.178738	0.396544
C81	C	1.674388	0.512072	0.729877
C82	C	0.863932	-0.137881	0.054195
C83	C	1.197265	0.195452	0.387528
C84	C	1.530598	0.528786	0.720862
C85	C	0.862727	-0.210330	0.054116
C86	C	1.196060	0.123003	0.387449
C87	C	1.529394	0.456337	0.720782
C88	C	0.934021	-0.254908	0.058577
C89	C	1.267354	0.078425	0.391910
C90	C	1.600687	0.411759	0.725244
C91	C	0.658551	0.097424	0.107318
C92	C	0.991885	0.430757	0.440652
C93	C	1.325218	0.764090	0.773985
C94	C	0.576276	0.096211	0.102159
C95	C	0.909610	0.429544	0.435492
C96	C	1.242943	0.762877	0.768826
C97	C	0.535146	0.095608	0.033568
C98	C	0.868480	0.428942	0.366901
C99	C	1.201813	0.762275	0.700234
C100	C	0.576297	0.096212	-0.029869
C101	C	0.909631	0.429545	0.303465
C102	C	1.242964	0.762878	0.636798
C103	C	0.658572	0.097420	-0.024709
C104	C	0.991905	0.430753	0.308624
C105	C	1.325239	0.764086	0.641958
C106	C	0.286732	0.091957	0.014686
C107	C	0.620065	0.425290	0.348019
C108	C	0.953398	0.758623	0.681353
C109	C	0.204451	0.090751	0.009531
C110	C	0.537785	0.424084	0.342864
C111	C	0.871118	0.757417	0.676198
C112	C	0.204436	0.090748	0.141559
C113	C	0.537769	0.424082	0.474893
C114	C	0.871103	0.757415	0.808226
C115	C	0.286711	0.091961	0.146713
C116	C	0.620045	0.425294	0.480046
C117	C	0.953378	0.758627	0.813380
C118	C	0.327856	0.092560	0.083277
C119	C	0.661189	0.425894	0.416610
C120	C	0.994522	0.759227	0.749943
C121	C	0.451048	0.094371	0.028293
C122	C	0.784381	0.427704	0.361626
C123	C	1.117714	0.761037	0.694959
C124	C	0.411954	0.093793	0.088553
C125	C	0.745287	0.427126	0.421886
C126	C	1.078620	0.760460	0.755219
C127	C	1.075741	0.088866	0.067474
C128	C	1.409074	0.422199	0.400808
C129	C	1.742408	0.755533	0.734141
C130	C	1.163306	0.090145	0.072963
C131	C	1.496640	0.423479	0.406296
C132	C	1.829973	0.756812	0.739629
C133	C	0.925288	0.221084	0.058033
C134	C	1.258621	0.554417	0.391366
C135	C	1.591955	0.887750	0.724699
C136	C	0.926568	0.298190	0.058109
C137	C	1.259901	0.631523	0.391443
C138	C	1.593235	0.964856	0.724776
N139	N	0.931475	0.094079	0.247094
N140	N	1.264808	0.427412	0.580427
N141	N	1.598142	0.760745	0.913761
N142	N	0.931534	0.094090	-0.130238
N143	N	1.264867	0.427424	0.203095
N144	N	1.598201	0.760757	0.536428
C145	C	0.985289	0.046825	0.288572
C146	C	1.318623	0.380159	0.621905
C147	C	1.651956	0.713492	0.955239
C148	C	0.985294	0.046822	0.364800
C149	C	1.318628	0.380156	0.698134
C150	C	1.651961	0.713489	1.031467
C151	C	0.931492	0.094084	0.399548
C152	C	1.264826	0.427418	0.732881
C153	C	1.598159	0.760751	1.066215
C154	C	0.877668	0.141341	0.358060
C155	C	1.211001	0.474674	0.691393
C156	C	1.544335	0.808008	1.024727
C157	C	0.877659	0.141338	0.281833
C158	C	1.210993	0.474671	0.615166
C159	C	1.544326	0.808005	0.948500
C160	C	0.920931	0.157354	0.519643
C161	C	1.254264	0.490688	0.852976
C162	C	1.587598	0.824021	1.186310
C163	C	0.920945	0.157358	0.595869
C164	C	1.254279	0.490691	0.929202
C165	C	1.587612	0.824025	1.262536
C166	C	0.931515	0.094093	0.634657
C167	C	1.264848	0.427426	0.967990
C168	C	1.598182	0.760760	1.301323
C169	C	0.942087	0.030822	0.597211
C170	C	1.275420	0.364155	0.930544
C171	C	1.608754	0.697488	1.263877
C172	C	0.942078	0.030819	0.520984
C173	C	1.275412	0.364152	0.854317
C174	C	1.608745	0.697485	1.187650
C175	C	0.931496	0.094092	0.482203
C176	C	1.264829	0.427426	0.815536
C177	C	1.598162	0.760759	1.148869
C178	C	0.985338	0.046833	0.758790
C179	C	1.318671	0.380166	1.092124
C180	C	1.652004	0.713499	1.425457
C181	C	0.985337	0.046829	0.835020
C182	C	1.318670	0.380162	1.168353
C183	C	1.652004	0.713495	1.501686
C184	C	0.877715	0.141353	0.828278
C185	C	1.211048	0.474687	1.161611
C186	C	1.544381	0.808020	1.494945
C187	C	0.877711	0.141351	0.752050
C188	C	1.211045	0.474685	1.085383
C189	C	1.544378	0.808018	1.418717
C190	C	0.931527	0.094092	0.717311
C191	C	1.264860	0.427425	1.050644
C192	C	1.598194	0.760758	1.383978
H193	H	1.057113	-0.710240	0.066286
H194	H	1.390446	-0.376907	0.399619
H195	H	1.723780	-0.043574	0.732952
H196	H	0.832687	-0.328578	-0.024762
H197	H	1.166020	0.004755	0.308571
H198	H	1.499353	0.338088	0.641904
Br199	Br	0.804619	0.205471	0.225536
Br200	Br	1.137953	0.538805	0.558870
Br201	Br	1.471286	0.872138	0.892203
H202	H	0.830483	-0.460004	-0.024892
H203	H	1.163817	-0.126671	0.308441
H204	H	1.497150	0.206662	0.641775
H205	H	0.320194	0.092448	0.202568
H206	H	0.653527	0.425781	0.535901
H207	H	0.986861	0.759114	0.869234
H208	H	1.059303	-0.578811	0.066428
H209	H	1.392636	-0.245477	0.399762
H210	H	1.725970	0.087856	0.733095
Br211	Br	0.804689	0.205488	0.875429
Br212	Br	1.138022	0.538821	1.208762
Br213	Br	1.471356	0.872154	1.542095
Br214	Br	1.058369	-0.017312	0.891316
Br215	Br	1.391703	0.316022	1.224649
Br216	Br	1.725036	0.649355	1.557982
H217	H	1.032504	-0.351818	0.141738
H218	H	1.365837	-0.018485	0.475071
H219	H	1.699170	0.314849	0.808405
Br220	Br	0.520484	0.095364	-0.122958
Br221	Br	0.853817	0.428697	0.210375
Br222	Br	1.187151	0.762030	0.543708
H223	H	1.064566	-0.263343	0.066757
H224	H	1.397899	0.069991	0.400090
H225	H	1.731233	0.403324	0.733424
H226	H	0.692071	0.097914	-0.076362
H227	H	1.025404	0.431247	0.256971
H228	H	1.358737	0.764581	0.590305
H229	H	1.029107	0.008342	0.260290
H230	H	1.362441	0.341676	0.593623
H231	H	1.695774	0.675009	0.926957
Br232	Br	0.767184	-0.077381	0.048139
Br233	Br	1.100517	0.255952	0.381473
Br234	Br	1.433851	0.589286	0.714806
H235	H	0.542782	0.095706	0.153812
H236	H	0.876115	0.429039	0.487146
H237	H	1.209448	0.762373	0.820479
H238	H	1.066755	-0.131913	0.066912
H239	H	1.400088	0.201421	0.400245
H240	H	1.733422	0.534754	0.733579
Br241	Br	0.764340	-0.248145	0.047950
Br242	Br	1.097673	0.085188	0.381283
Br243	Br	1.431006	0.418521	0.714616
Br244	Br	0.759736	-0.524279	0.047661
Br245	Br	1.093069	-0.190946	0.380994
Br246	Br	1.426403	0.142387	0.714327
H247	H	0.796241	-0.679916	0.049953
H248	H	1.129575	-0.346582	0.383286
H249	H	1.462908	-0.013249	0.716620
H250	H	0.170928	0.090259	0.193206
H251	H	0.504261	0.423592	0.526539
H252	H	0.837594	0.756926	0.859872
H253	H	0.912310	0.208876	0.488067
H254	H	1.245644	0.542209	0.821401
H255	H	1.578977	0.875542	1.154734
H256	H	1.030321	-0.483255	0.141592
H257	H	1.363654	-0.149921	0.474925
H258	H	1.696988	0.183412	0.808259
Br259	Br	1.058333	-0.017313	0.421102
Br260	Br	1.391666	0.316020	0.754435
Br261	Br	1.725000	0.649353	1.087768
H262	H	0.833861	0.179821	0.386355
H263	H	1.167194	0.513155	0.719688
H264	H	1.500527	0.846488	1.053022
H265	H	0.950684	-0.020699	0.490498
H266	H	1.284018	0.312634	0.823831
H267	H	1.617351	0.645968	1.157165
Br268	Br	0.467774	0.094606	0.181638
Br269	Br	0.801107	0.427939	0.514972
Br270	Br	1.134441	0.761273	0.848305
H271	H	0.833894	0.179832	0.718276
H272	H	1.167227	0.513165	1.051610
H273	H	1.500561	0.846499	1.384943
Br274	Br	0.714361	0.098248	0.200411
Br275	Br	1.047695	0.431582	0.533745
Br276	Br	1.381028	0.764915	0.867078
Br277	Br	0.148631	0.089938	-0.083564
Br278	Br	0.481965	0.423271	0.249769
Br279	Br	0.815298	0.756605	0.583103
Br280	Br	0.395228	0.093516	-0.064793
Br281	Br	0.728561	0.426849	0.268540
Br282	Br	1.061895	0.760183	0.601873
H283	H	0.950693	-0.020695	0.628790
H284	H	1.284027	0.312638	0.962123
H285	H	1.617360	0.645972	1.295457
Br286	Br	1.058369	-0.017307	0.711642
Br287	Br	1.391703	0.316026	1.044976
Br288	Br	1.725036	0.649360	1.378309
H289	H	0.320222	0.092443	-0.036969
H290	H	0.653555	0.425776	0.296365
H291	H	0.986888	0.759109	0.629698
H292	H	0.912342	0.208877	0.626352
H293	H	1.245675	0.542211	0.959685
H294	H	1.579009	0.875544	1.293019
