data_functionalizedCrystal
_audit_creation_method	'MofGen! by Chris Wilmer'
_symmetry_space_group_name_H-M	'P1'
_symmetry_Int_Tables_number	1
_symmetry_cell_setting	triclinic
loop_
_symmetry_equiv_pos_as_xyz
  x,y,z
_cell_length_a	10.723024
_cell_length_b	10.868271
_cell_length_c	10.723023
_cell_angle_alpha	90.004123
_cell_angle_beta	84.467709
_cell_angle_gamma	90.004005
loop_
_atom_site_label
_atom_site_type_symbol
_atom_site_fract_x
_atom_site_fract_y
_atom_site_fract_z
O1	O	1.657188	0.102311	0.175028
O2	O	1.294035	0.102315	0.191781
O3	O	1.483989	0.102308	0.001828
O4	O	1.467234	0.102318	0.364981
O5	O	1.483973	-0.102336	0.001821
O6	O	1.294019	-0.102329	0.191774
O7	O	1.657172	-0.102333	0.175021
Zn8	Zn	1.475593	-0.134823	0.183396
Zn9	Zn	1.475614	0.134805	0.183406
O10	O	1.467218	-0.102326	0.364973
C11	C	1.247528	-0.000007	0.190558
C12	C	1.108973	-0.000005	0.186911
N13	N	1.475588	-0.318837	0.183388
C14	C	1.033991	-0.000001	0.293198
C15	C	0.890787	0.000000	0.289431
C16	C	1.475607	-0.569843	0.183403
C17	C	1.475593	-0.430166	0.183399
C18	C	1.703679	-0.000009	0.176243
C19	C	1.842234	-0.000002	0.179891
C20	C	1.482762	-0.000013	-0.044675
C21	C	1.479114	-0.000009	-0.183229
N22	N	1.475629	0.318819	0.183404
C23	C	1.477497	0.106005	-0.244991
C24	C	1.473727	0.106012	-0.388194
C25	C	1.468445	-0.000002	0.411477
C26	C	1.472093	0.000002	0.550031
H27	H	1.075812	-0.000006	0.386984
C28	C	1.472115	0.227084	-0.458960
C29	C	1.580132	0.294424	-0.440518
C30	C	1.578691	0.405959	-0.505699
H31	H	1.400112	0.273080	-0.428839
H32	H	1.469891	0.211063	-0.545818
H33	H	1.582345	0.310448	-0.353679
H34	H	1.652152	0.248464	-0.470644
H35	H	1.576467	0.389939	-0.592557
H36	H	1.506684	0.451945	-0.475573
H37	H	1.651984	0.451658	-0.493205
C38	C	1.473993	-0.121162	-0.379398
C39	C	1.471780	-0.218960	-0.464155
C40	C	1.473541	-0.330592	-0.399183
H41	H	1.402703	-0.125904	-0.319714
H42	H	1.548001	-0.125813	-0.337529
H43	H	1.397780	-0.214311	-0.506004
H44	H	1.543064	-0.214259	-0.523841
H45	H	1.547549	-0.335243	-0.357314
H46	H	1.402250	-0.335322	-0.339502
H47	H	1.472051	-0.396961	-0.456682
H48	H	0.826354	0.000009	0.380421
H49	H	0.906659	0.000002	0.088896
H50	H	1.067152	0.000024	0.093125
C51	C	1.479203	0.226931	-0.173956
C52	C	1.374024	0.233351	-0.086055
C53	C	1.375573	0.344722	-0.020583
H54	H	1.477647	0.293555	-0.231115
H55	H	1.553156	0.231488	-0.131988
H56	H	1.300090	0.228806	-0.128020
H57	H	1.375558	0.166752	-0.028870
H58	H	1.449525	0.349279	0.021384
H59	H	1.374020	0.411338	-0.077751
H60	H	1.304217	0.349088	0.039073
H61	H	1.477701	-0.090766	-0.236369
