data_functionalizedCrystal
_audit_creation_method	'MofGen! by Chris Wilmer'
_symmetry_space_group_name_H-M	'P1'
_symmetry_Int_Tables_number	1
_symmetry_cell_setting	triclinic
loop_
_symmetry_equiv_pos_as_xyz
  x,y,z
_cell_length_a	12.837939
_cell_length_b	11.892095
_cell_length_c	12.811434
_cell_angle_alpha	99.326043
_cell_angle_beta	90.588920
_cell_angle_gamma	94.310906
loop_
_atom_site_label
_atom_site_type_symbol
_atom_site_fract_x
_atom_site_fract_y
_atom_site_fract_z
O1	O	-1.381292	-0.066438	0.268695
O2	O	-0.881292	0.433562	0.768695
O3	O	-1.079527	-0.067834	0.255122
O4	O	-0.579527	0.432166	0.755122
O5	O	-1.239109	-0.082823	0.108867
O6	O	-0.739109	0.417177	0.608867
O7	O	-1.221710	-0.051449	0.414949
O8	O	-0.721710	0.448551	0.914949
O9	O	-1.225803	0.106432	0.121041
O10	O	-0.725803	0.606432	0.621041
O11	O	-1.066221	0.121421	0.267295
O12	O	-0.566221	0.621421	0.767295
O13	O	-1.367987	0.122817	0.280869
O14	O	-0.867987	0.622817	0.780869
Zn15	Zn	-1.214991	0.152167	0.276015
Zn16	Zn	-0.714991	0.652167	0.776015
Zn17	Zn	-1.232522	-0.097184	0.259976
Zn18	Zn	-0.732522	0.402816	0.759976
O19	O	-1.208405	0.137806	0.427123
O20	O	-0.708405	0.637806	0.927123
C21	C	-1.034267	0.026322	0.256623
C22	C	-0.534267	0.526322	0.756623
C23	C	-0.919230	0.024918	0.242947
C24	C	-0.419230	0.524918	0.742947
N25	N	-1.203035	0.322343	0.286961
N26	N	-0.703035	0.822343	0.786961
N27	N	-1.244487	-0.267361	0.249022
N28	N	-0.744487	0.232639	0.749022
C29	C	-0.677788	0.041789	0.407362
C30	C	-0.177788	0.541789	0.907362
C31	C	-0.569700	0.040471	0.394517
C32	C	-0.069700	0.540471	0.894517
C33	C	-0.594963	0.020973	0.204414
C34	C	-0.094963	0.520973	0.704414
C35	C	-0.703051	0.022291	0.217259
C36	C	-0.203051	0.522291	0.717259
C37	C	-0.744460	0.032697	0.318736
C38	C	-0.244460	0.532697	0.818736
C39	C	-0.852550	0.034007	0.331579
C40	C	-0.352550	0.534007	0.831579
C41	C	-0.877811	0.014517	0.141477
C42	C	-0.377811	0.514517	0.641477
C43	C	-0.769723	0.013199	0.128633
C44	C	-0.269723	0.513199	0.628633
C45	C	-0.413247	0.028660	0.279368
C46	C	0.086753	0.528660	0.779368
C47	C	-0.528283	0.030062	0.293046
C48	C	-0.028283	0.530062	0.793046
C49	C	-1.231890	0.007758	0.075505
C50	C	-0.731890	0.507758	0.575505
C51	C	-1.230190	-0.004298	-0.042043
C52	C	-0.730190	0.495702	0.457957
C53	C	-1.327687	0.547291	0.172791
C54	C	-0.827687	1.047291	0.672791
C55	C	-1.319337	0.666417	0.180451
C56	C	-0.819337	1.166417	0.680451
C57	C	-1.177980	0.679726	0.309935
C58	C	-0.677980	1.179726	0.809935
C59	C	-1.186330	0.560599	0.302275
C60	C	-0.686330	1.060599	0.802275
C61	C	-1.261187	0.494385	0.233702
C62	C	-0.761187	0.994385	0.733702
C63	C	-1.269542	0.375257	0.226048
C64	C	-0.769542	0.875257	0.726048
C65	C	-1.128181	0.388566	0.355526
C66	C	-0.628181	0.888566	0.855526
C67	C	-1.119831	0.507693	0.363186
C68	C	-0.619831	1.007693	0.863186
C69	C	-1.235041	-0.124436	-0.214355
C70	C	-0.735041	0.375564	0.285645
C71	C	-1.236643	-0.113121	-0.103910
C72	C	-0.736643	0.386879	0.396090
C73	C	-1.222137	0.093217	-0.090629
C74	C	-0.722137	0.593217	0.409371
C75	C	-1.220536	0.081901	-0.201075
C76	C	-0.720536	0.581901	0.298925
C77	C	-1.226986	-0.026929	-0.262934
C78	C	-0.726986	0.473071	0.237066
C79	C	-1.225377	-0.038244	-0.373381
C80	C	-0.725377	0.461756	0.126619
C81	C	-1.210879	0.168093	-0.360099
C82	C	-0.710879	0.668093	0.139901
C83	C	-1.212481	0.179408	-0.249653
C84	C	-0.712481	0.679408	0.250347
C85	C	-1.215624	0.047222	0.460485
C86	C	-0.715624	0.547222	0.960485
C87	C	-1.217324	0.059271	0.578033
C88	C	-0.717324	0.559271	1.078033
H89	H	-0.886263	0.042483	0.414207
H90	H	-0.386263	0.542483	0.914207
Cl91	Cl	-1.363648	0.292019	0.139845
Cl92	Cl	-0.863648	0.792019	0.639845
Cl93	Cl	-1.044584	0.322047	0.432110
Cl94	Cl	-0.544584	0.822047	0.932110
H95	H	-1.117027	0.733651	0.365758
H96	H	-0.617027	1.233651	0.865758
H97	H	-0.735992	0.004740	0.046013
H98	H	-0.235992	0.504740	0.546013
Cl99	Cl	-1.421801	0.464051	0.086598
Cl100	Cl	-0.921801	0.964051	0.586598
H101	H	-1.230622	-0.126858	-0.423746
H102	H	-0.730622	0.373142	0.076254
Cl103	Cl	-1.025727	0.590940	0.449386
Cl104	Cl	-0.525727	1.090940	0.949386
H105	H	-1.240278	-0.213050	-0.264722
H106	H	-0.740278	0.286950	0.235278
H107	H	-1.216897	0.181821	-0.040244
H108	H	-0.716897	0.681821	0.459756
Cl109	Cl	-1.402938	0.732923	0.103871
Cl110	Cl	-0.902938	1.232923	0.603871
Cl111	Cl	-0.729850	0.054855	0.534928
Cl112	Cl	-0.229850	0.554855	1.034928
Cl113	Cl	-1.246773	-0.235707	-0.042843
Cl114	Cl	-0.746773	0.264293	0.457157
Cl115	Cl	-0.485887	0.051904	0.505938
Cl116	Cl	0.014113	0.551904	1.005938
Cl117	Cl	-1.204374	0.316215	-0.171877
Cl118	Cl	-0.704374	0.816215	0.328123
H119	H	-0.561222	0.012594	0.121802
H120	H	-0.061222	0.512594	0.621802
Cl121	Cl	-0.961635	0.003070	0.030054
Cl122	Cl	-0.461635	0.503070	0.530054
H123	H	-1.204313	0.247490	-0.399663
H124	H	-0.704313	0.747490	0.100337
