data_functionalizedCrystal
_audit_creation_method	'MofGen! by Chris Wilmer'
_symmetry_space_group_name_H-M	'P1'
_symmetry_Int_Tables_number	1
_symmetry_cell_setting	triclinic
loop_
_symmetry_equiv_pos_as_xyz
  x,y,z
_cell_length_a	21.295418
_cell_length_b	19.077068
_cell_length_c	19.076919
_cell_angle_alpha	94.470751
_cell_angle_beta	92.261150
_cell_angle_gamma	92.343619
loop_
_atom_site_label
_atom_site_type_symbol
_atom_site_fract_x
_atom_site_fract_y
_atom_site_fract_z
Zn1	Zn	0.936930	-0.296407	-0.410191
Zn2	Zn	1.436930	0.203593	0.089809
Zn3	Zn	0.936852	-0.409561	-0.297035
Zn4	Zn	1.436852	0.090439	0.202965
Zn5	Zn	0.836073	-0.291721	-0.292284
Zn6	Zn	1.336073	0.208279	0.207716
Zn7	Zn	0.827225	-0.414290	-0.414839
Zn8	Zn	1.327225	0.085710	0.085161
O9	O	0.884270	-0.352995	-0.353587
O10	O	1.384270	0.147005	0.146413
O11	O	1.025008	-0.311399	-0.395223
O12	O	1.525008	0.188601	0.104777
O13	O	0.927154	-0.389989	-0.197759
O14	O	1.427154	0.110011	0.302241
O15	O	0.853187	-0.193692	-0.303991
O16	O	1.353187	0.306308	0.196009
O17	O	1.024951	-0.394533	-0.312089
O18	O	1.524951	0.105467	0.187911
O19	O	0.927287	-0.197135	-0.390616
O20	O	1.427287	0.302865	0.109384
O21	O	0.853112	-0.303413	-0.194268
O22	O	1.353112	0.196587	0.305732
O23	O	0.746811	-0.307998	-0.308498
O24	O	1.246811	0.192002	0.191502
O25	O	0.838108	-0.402592	-0.512868
O26	O	1.338108	0.097408	-0.012868
O27	O	0.740311	-0.398049	-0.398538
O28	O	1.240311	0.101951	0.101462
O29	O	0.918708	-0.315985	-0.509453
O30	O	1.418708	0.184015	-0.009453
O31	O	0.918575	-0.508838	-0.316596
O32	O	1.418575	-0.008838	0.183404
O33	O	0.838032	-0.512313	-0.403146
O34	O	1.338032	-0.012313	0.096854
C35	C	0.877352	-0.536155	-0.360906
C36	C	1.377352	-0.036155	0.139094
C37	C	0.874449	-0.614513	-0.364061
C38	C	1.374449	-0.114513	0.135939
C39	C	0.720720	-0.353028	-0.353507
C40	C	1.220720	0.146972	0.146493
C41	C	0.650752	-0.353061	-0.353491
C42	C	1.150752	0.146939	0.146509
C43	C	0.915049	-0.649495	-0.320518
C44	C	1.415049	-0.149495	0.179482
C45	C	0.912322	-0.723120	-0.323490
C46	C	1.412322	-0.223120	0.176510
C47	C	0.868991	-0.761763	-0.370000
C48	C	1.368991	-0.261763	0.130000
C49	C	0.828389	-0.726776	-0.413548
C50	C	1.328389	-0.226776	0.086452
C51	C	0.831120	-0.653152	-0.410579
C52	C	1.331120	-0.153152	0.089421
C53	C	0.856328	-0.982152	-0.383709
C54	C	1.356328	-0.482152	0.116291
C55	C	0.853599	-1.055781	-0.386673
C56	C	1.353599	-0.555781	0.113327
C57	C	0.937533	-1.052121	-0.296615
C58	C	1.437533	-0.552121	0.203385
C59	C	0.940257	-0.978495	-0.293648
C60	C	1.440257	-0.478495	0.206352
C61	C	0.899657	-0.943515	-0.337198
C62	C	1.399657	-0.443515	0.162802
N63	N	0.866201	-0.837020	-0.373037
N64	N	1.366201	-0.337020	0.126963
N65	N	0.902451	-0.868259	-0.334164
N66	N	1.402451	-0.368259	0.165836
C67	C	0.614517	-0.400007	-0.400310
C68	C	1.114517	0.099993	0.099690
C69	C	0.548774	-0.399991	-0.400341
C70	C	1.048774	0.100009	0.099659
C71	C	0.519268	-0.353035	-0.353540
C72	C	1.019268	0.146965	0.146460
C73	C	0.555511	-0.306080	-0.306718
C74	C	1.055511	0.193920	0.193282
C75	C	0.621253	-0.306093	-0.306693
C76	C	1.121253	0.193907	0.193307
N77	N	0.418510	-0.345050	-0.291663
N78	N	0.918510	0.154950	0.208337
N79	N	0.356058	-0.345042	-0.291689
N80	N	0.856058	0.154958	0.208311
C81	C	0.321192	-0.352993	-0.353613
C82	C	0.821192	0.147007	0.146387
N83	N	0.351138	-0.360967	-0.415513
N84	N	0.851138	0.139033	0.084487
N85	N	0.413596	-0.360978	-0.415487
N86	N	0.913596	0.139022	0.084513
C87	C	0.447983	-0.353016	-0.353562
C88	C	0.947983	0.146984	0.146438
C89	C	0.213672	-0.399925	-0.400470
C90	C	0.713672	0.100075	0.099530
C91	C	0.147927	-0.399904	-0.400502
C92	C	0.647927	0.100096	0.099498
C93	C	0.154666	-0.305997	-0.306873
C94	C	0.654666	0.194003	0.193127
C95	C	0.220409	-0.306014	-0.306847
C96	C	0.720409	0.193986	0.193153
C97	C	0.249907	-0.352982	-0.353645
C98	C	0.749907	0.147018	0.146355
C99	C	1.048459	-0.352961	-0.353667
C100	C	1.548459	0.147039	0.146333
C101	C	1.118426	-0.352947	-0.353702
C102	C	1.618426	0.147053	0.146298
C103	C	0.877430	-0.360339	-0.537453
C104	C	1.377430	0.139661	-0.037453
C105	C	0.874514	-0.363469	-0.615806
C106	C	1.374514	0.136531	-0.115806
C107	C	0.891232	-0.169120	-0.346255
C108	C	1.391232	0.330880	0.153745
C109	C	0.894199	-0.090763	-0.343130
C110	C	1.394199	0.409237	0.156870
C111	C	0.915107	-0.319849	-0.650840
C112	C	1.415107	0.180151	-0.150840
C113	C	0.912360	-0.322787	-0.724460
C114	C	1.412360	0.177213	-0.224460
C115	C	0.869024	-0.369349	-0.763046
C116	C	1.369024	0.130651	-0.263046
C117	C	0.828427	-0.412970	-0.728008
C118	C	1.328427	0.087030	-0.228008
C119	C	0.831171	-0.410028	-0.654388
C120	C	1.331171	0.089972	-0.154388
C121	C	0.856314	-0.382979	-0.983416
C122	C	1.356314	0.117021	-0.483416
C123	C	0.853575	-0.385919	-1.057040
C124	C	1.353575	0.114081	-0.557040
C125	C	0.937507	-0.295735	-1.053488
C126	C	1.437507	0.204265	-0.553488
C127	C	0.940250	-0.292800	-0.979867
C128	C	1.440250	0.207200	-0.479867
C129	C	0.899651	-0.336419	-0.944835
C130	C	1.399651	0.163581	-0.444835
N131	N	0.866217	-0.372354	-0.838299
N132	N	1.366217	0.127646	-0.338299
N133	N	0.902456	-0.333409	-0.869584
N134	N	1.402456	0.166591	-0.369584
C135	C	0.891122	-0.345628	-0.170434
C136	C	1.391122	0.154372	0.329566
C137	C	0.894167	-0.342300	-0.092074
C138	C	1.394167	0.157700	0.407926
H139	H	0.950330	-0.618036	-0.282641
H140	H	1.450330	-0.118036	0.217359
H141	H	0.970588	-1.080610	-0.261161
H142	H	1.470588	-0.580610	0.238839
H143	H	0.950398	-0.281936	-0.619428
H144	H	1.450398	0.218064	-0.119428
H145	H	0.823269	-0.953677	-0.419168
H146	H	1.323269	-0.453677	0.080832
C147	C	0.811645	-0.430943	-0.944889
C148	C	1.311645	0.069057	-0.444889
H149	H	0.785444	-0.459094	-0.978415
H150	H	1.285444	0.040906	-0.478415
H151	H	0.786313	-0.402819	-0.915089
H152	H	1.286313	0.097181	-0.415089
H153	H	0.835619	-0.460517	-0.917398
H154	H	1.335619	0.039483	-0.417398
C155	C	0.780725	-0.769280	-0.464707
C156	C	1.280725	-0.269280	0.035293
H157	H	0.784908	-0.818139	-0.460233
H158	H	1.284908	-0.318139	0.039767
H159	H	0.788587	-0.759077	-0.511596
H160	H	1.288587	-0.259077	-0.011596
H161	H	0.739268	-0.756853	-0.453840
H162	H	1.239268	-0.256853	0.046160
C163	C	0.508905	-0.451635	-0.451840
C164	C	1.008905	0.048365	0.048160
H165	H	0.465527	-0.444897	-0.445154
H166	H	0.965527	0.055103	0.054846
H167	H	0.518249	-0.498571	-0.443331
H168	H	1.018249	0.001429	0.056669
H169	H	0.518338	-0.443287	-0.498812
H170	H	1.018338	0.056713	0.001188
H171	H	0.118426	-0.438132	-0.438632
H172	H	0.618426	0.061868	0.061368
C173	C	0.646965	-0.451681	-0.451771
C174	C	1.146965	0.048319	0.048229
H175	H	0.691309	-0.444975	-0.445043
H176	H	1.191309	0.055025	0.054957
H177	H	0.634860	-0.443349	-0.498753
H178	H	1.134860	0.056651	0.001247
H179	H	0.634754	-0.498609	-0.443248
H180	H	1.134754	0.001391	0.056752
H181	H	0.798060	-0.624670	-0.446037
H182	H	1.298060	-0.124670	0.053963
C183	C	0.260269	-0.254381	-0.255336
C184	C	0.760269	0.245619	0.244664
H185	H	0.233282	-0.226417	-0.227463
H186	H	0.733282	0.273583	0.272537
H187	H	0.286103	-0.224790	-0.281113
H188	H	0.786103	0.275210	0.218887
H189	H	0.286005	-0.280084	-0.225642
H190	H	0.786005	0.219916	0.274358
C191	C	0.786521	-0.458008	-0.615848
C192	C	1.286521	0.041992	-0.115848
H193	H	0.794357	-0.449583	-0.566477
H194	H	1.294357	0.050417	-0.066477
H195	H	0.793487	-0.505855	-0.629804
H196	H	1.293487	-0.005855	-0.129804
H197	H	0.744166	-0.448174	-0.627479
H198	H	1.244166	0.051826	-0.127479
C199	C	0.523058	-0.254431	-0.255238
C200	C	1.023058	0.245569	0.244762
H201	H	0.478714	-0.261151	-0.261954
H202	H	0.978714	0.238849	0.238046
H203	H	0.535260	-0.207498	-0.263737
H204	H	1.035260	0.292502	0.236263
H205	H	0.535171	-0.262787	-0.208261
H206	H	1.035171	0.237213	0.291739
C207	C	0.805899	-0.437133	-1.099487
C208	C	1.305899	0.062867	-0.599487
H209	H	0.810086	-0.432641	-1.148349
H210	H	1.310086	0.067359	-0.648349
H211	H	0.764446	-0.426338	-1.086990
H212	H	1.264446	0.073662	-0.586990
H213	H	0.813766	-0.484019	-1.089316
H214	H	1.313766	0.015981	-0.589316
H215	H	0.130643	-0.267761	-0.268770
H216	H	0.630643	0.232239	0.231230
H217	H	0.818321	-1.087243	-0.424560
H218	H	1.318321	-0.587243	0.075440
C219	C	0.957025	-0.274824	-0.762998
C220	C	1.457025	0.225176	-0.262998
H221	H	0.949185	-0.283242	-0.812369
H222	H	1.449185	0.216758	-0.312369
H223	H	0.999373	-0.284668	-0.751362
H224	H	1.499373	0.215332	-0.251362
H225	H	0.950068	-0.226970	-0.749045
H226	H	1.450068	0.273030	-0.249045
H227	H	0.945382	-0.751599	-0.288032
H228	H	1.445382	-0.251599	0.211968
C229	C	0.661112	-0.254453	-0.255186
C230	C	1.161112	0.245547	0.244814
H231	H	0.634127	-0.226487	-0.227314
H232	H	1.134127	0.273513	0.272686
H233	H	0.686947	-0.224866	-0.280965
H234	H	1.186947	0.275134	0.219035
H235	H	0.686849	-0.280155	-0.225490
H236	H	1.186849	0.219845	0.274510
H237	H	0.970560	-0.260222	-1.082019
H238	H	1.470560	0.239778	-0.582019
C239	C	0.246123	-0.451579	-0.451951
C240	C	0.746123	0.048421	0.048049
H241	H	0.215125	-0.479529	-0.479848
H242	H	0.715125	0.020471	0.020152
H243	H	0.271582	-0.481181	-0.426153
H244	H	0.771582	0.018819	0.073847
H245	H	0.271675	-0.425887	-0.481625
H246	H	0.771675	0.074113	0.018375
H247	H	0.975541	-0.254887	-0.948455
H248	H	1.475541	0.245113	-0.448455
C249	C	0.987924	-0.935994	-0.242491
C250	C	1.487924	-0.435994	0.257509
H251	H	1.011718	-0.967373	-0.216988
H252	H	1.511718	-0.467373	0.283012
H253	H	0.966076	-0.906086	-0.210587
H254	H	1.466076	-0.406086	0.289413
H255	H	1.015396	-0.908309	-0.268343
H256	H	1.515396	-0.408309	0.231657
C257	C	0.780759	-0.464187	-0.770450
C258	C	1.280759	0.035813	-0.270450
H259	H	0.784942	-0.459698	-0.819314
H260	H	1.284942	0.040302	-0.319314
H261	H	0.739304	-0.453398	-0.757952
H262	H	1.239304	0.046602	-0.257952
H263	H	0.788632	-0.511071	-0.760276
H264	H	1.288632	-0.011071	-0.260276
