data_functionalizedCrystal
_audit_creation_method	'MofGen! by Chris Wilmer'
_symmetry_space_group_name_H-M	'P1'
_symmetry_Int_Tables_number	1
_symmetry_cell_setting	triclinic
loop_
_symmetry_equiv_pos_as_xyz
  x,y,z
_cell_length_a	27.732064
_cell_length_b	27.732048
_cell_length_c	16.776229
_cell_angle_alpha	89.988391
_cell_angle_beta	90.000484
_cell_angle_gamma	82.646040
loop_
_atom_site_label
_atom_site_type_symbol
_atom_site_fract_x
_atom_site_fract_y
_atom_site_fract_z
O1	O	0.640924	0.057556	-0.066154
O2	O	0.974257	0.390890	0.267179
O3	O	1.307590	0.724223	0.600512
O4	O	0.500131	0.066293	-0.066188
O5	O	0.833465	0.399627	0.267145
O6	O	1.166798	0.732960	0.600478
O7	O	0.574900	-0.008472	-0.066155
O8	O	0.908233	0.324862	0.267178
O9	O	1.241567	0.658195	0.600511
O10	O	0.566155	0.132321	-0.066188
O11	O	0.899488	0.465655	0.267146
O12	O	1.232821	0.798988	0.600479
O13	O	0.574890	-0.008476	0.066421
O14	O	0.908224	0.324857	0.399755
O15	O	1.241557	0.658191	0.733088
O16	O	0.500121	0.066289	0.066388
O17	O	0.833455	0.399622	0.399721
O18	O	1.166788	0.732956	0.733055
O19	O	0.640914	0.057552	0.066422
O20	O	0.974247	0.390885	0.399755
O21	O	1.307580	0.724218	0.733089
Zn22	Zn	0.570516	0.061920	0.087454
Zn23	Zn	0.903849	0.395253	0.420788
Zn24	Zn	1.237183	0.728586	0.754121
Zn25	Zn	0.570529	0.061926	-0.087221
Zn26	Zn	0.903862	0.395259	0.246112
Zn27	Zn	1.237196	0.728592	0.579446
O28	O	0.566145	0.132317	0.066389
O29	O	0.899478	0.465650	0.399722
O30	O	1.232812	0.798983	0.733055
C31	C	0.482120	0.066106	0.000096
C32	C	0.815453	0.399440	0.333429
C33	C	1.148786	0.732773	0.666762
C34	C	0.428465	0.065551	0.000083
C35	C	0.761798	0.398884	0.333417
C36	C	1.095132	0.732217	0.666750
C37	C	0.051392	0.017583	0.000140
C38	C	0.384726	0.350917	0.333473
C39	C	0.718059	0.684250	0.666806
C40	C	0.253053	0.019630	0.000119
C41	C	0.586386	0.352963	0.333452
C42	C	0.919719	0.686296	0.666785
O43	O	0.284305	-0.017591	0.000157
O44	O	0.617639	0.315742	0.333490
O45	O	0.950972	0.649075	0.666824
N46	N	0.272180	0.063964	0.000105
N47	N	0.605513	0.397297	0.333438
N48	N	0.938847	0.730631	0.666771
C49	C	0.240889	0.107790	0.000102
C50	C	0.574222	0.441123	0.333435
C51	C	0.907556	0.774456	0.666768
O52	O	0.261785	0.145546	0.000098
O53	O	0.595119	0.478879	0.333431
O54	O	0.928452	0.812212	0.666764
C55	C	0.039230	0.105743	0.000128
C56	C	0.372563	0.439076	0.333462
C57	C	0.705896	0.772410	0.666795
C58	C	0.020105	0.061406	0.000134
C59	C	0.353439	0.394739	0.333468
C60	C	0.686772	0.728072	0.666801
C61	C	0.032267	-0.026750	0.000146
C62	C	0.365601	0.306583	0.333480
C63	C	0.698934	0.639916	0.666813
C64	C	-0.018145	-0.027261	0.000147
C65	C	0.315189	0.306072	0.333481
C66	C	0.648522	0.639405	0.666814
C67	C	-0.049432	0.016561	0.000142
C68	C	0.283902	0.349895	0.333475
C69	C	0.617235	0.683228	0.666808
C70	C	-0.030307	0.060895	0.000135
C71	C	0.303027	0.394228	0.333468
C72	C	0.636360	0.727561	0.666802
C73	C	0.007940	0.149568	0.000131
C74	C	0.341273	0.482902	0.333464
C75	C	0.674606	0.816235	0.666798
C76	C	-0.042478	0.149053	0.000140
C77	C	0.290855	0.482386	0.333473
C78	C	0.624189	0.815719	0.666806
C79	C	-0.061602	0.104716	0.000145
C80	C	0.271731	0.438049	0.333479
C81	C	0.605064	0.771382	0.666812
C82	C	-0.112006	0.104206	0.000130
C83	C	0.221327	0.437539	0.333464
C84	C	0.554661	0.770873	0.666797
N85	N	-0.131134	0.059872	0.000144
N86	N	0.202200	0.393205	0.333478
N87	N	0.535533	0.726539	0.666811
C88	C	-0.099846	0.016049	0.000150
C89	C	0.233487	0.349383	0.333483
C90	C	0.566820	0.682716	0.666817
C91	C	0.346763	0.108861	0.000086
C92	C	0.680097	0.442194	0.333419
C93	C	1.013430	0.775528	0.666753
C94	C	0.397178	0.109373	0.000078
C95	C	0.730511	0.442706	0.333411
C96	C	1.063845	0.776040	0.666744
C97	C	0.409338	0.021213	0.000096
C98	C	0.742672	0.354546	0.333430
C99	C	1.076005	0.687879	0.666763
C100	C	0.358923	0.020701	0.000099
C101	C	0.692256	0.354035	0.333432
C102	C	1.025589	0.687368	0.666765
C103	C	0.327636	0.064527	0.000100
C104	C	0.660969	0.397860	0.333433
C105	C	0.994303	0.731194	0.666766
C106	C	-0.205716	0.014979	0.000151
C107	C	0.127617	0.348313	0.333485
C108	C	0.460951	0.681646	0.666818
C109	C	-0.256133	0.014472	0.000149
C110	C	0.077200	0.347806	0.333482
C111	C	0.410534	0.681139	0.666816
C112	C	-0.268289	0.102632	0.000135
C113	C	0.065045	0.435966	0.333468
C114	C	0.398378	0.769299	0.666801
C115	C	-0.217876	0.103140	0.000133
C116	C	0.115457	0.436473	0.333466
C117	C	0.448791	0.769806	0.666799
C118	C	-0.186590	0.059309	0.000144
C119	C	0.146743	0.392643	0.333477
C120	C	0.480076	0.725976	0.666810
O121	O	-0.143287	0.141407	0.000101
O122	O	0.190046	0.474741	0.333434
O123	O	0.523380	0.808074	0.666768
O124	O	-0.120752	-0.021701	0.000172
O125	O	0.212581	0.311632	0.333505
O126	O	0.545915	0.644966	0.666838
C127	C	0.101805	0.018094	0.000139
C128	C	0.435138	0.351428	0.333472
C129	C	0.768471	0.684761	0.666806
C130	C	0.120930	0.062428	0.000132
C131	C	0.454263	0.395761	0.333466
C132	C	0.787596	0.729095	0.666799
C133	C	0.089642	0.106250	0.000127
C134	C	0.422976	0.439584	0.333460
C135	C	0.756309	0.772917	0.666793
C136	C	0.171344	0.062940	0.000124
C137	C	0.504677	0.396273	0.333457
C138	C	0.838011	0.729606	0.666791
C139	C	0.202631	0.019117	0.000130
C140	C	0.535965	0.352451	0.333463
C141	C	0.869298	0.685784	0.666796
C142	C	0.183504	-0.025217	0.000144
C143	C	0.516837	0.308116	0.333477
C144	C	0.850170	0.641450	0.666810
C145	C	0.133092	-0.025728	0.000144
C146	C	0.466425	0.307605	0.333478
C147	C	0.799758	0.640939	0.666811
C148	C	0.108770	0.150585	0.000113
C149	C	0.442103	0.483918	0.333446
C150	C	0.775437	0.817251	0.666780
C151	C	0.159183	0.151092	0.000111
C152	C	0.492516	0.484426	0.333444
C153	C	0.825849	0.817759	0.666778
C154	C	0.190470	0.107270	0.000117
C155	C	0.523803	0.440603	0.333450
C156	C	0.857136	0.773936	0.666783
C157	C	0.574712	-0.026481	0.000135
C158	C	0.908045	0.306853	0.333468
C159	C	1.241378	0.640186	0.666802
C160	C	0.574159	-0.080136	0.000142
C161	C	0.907492	0.253198	0.333475
C162	C	1.240826	0.586531	0.666808
C163	C	0.614862	-0.418948	0.000110
C164	C	0.948196	-0.085615	0.333444
C165	C	1.281529	0.247718	0.666777
C166	C	0.612811	-0.620608	0.000099
C167	C	0.946145	-0.287275	0.333432
C168	C	1.279478	0.046059	0.666766
O169	O	0.650032	-0.651862	0.000073
O170	O	0.983365	-0.318528	0.333406
O171	O	1.316698	0.014805	0.666740
N172	N	0.568476	-0.639735	0.000089
N173	N	0.901810	-0.306401	0.333422
N174	N	1.235143	0.026932	0.666756
C175	C	0.524651	-0.608442	0.000077
C176	C	0.857985	-0.275109	0.333410
C177	C	1.191318	0.058224	0.666743
O178	O	0.486895	-0.629338	0.000060
O179	O	0.820228	-0.296004	0.333393
O180	O	1.153561	0.037329	0.666726
C181	C	0.526703	-0.406784	0.000083
C182	C	0.860036	-0.073450	0.333416
C183	C	1.193369	0.259883	0.666749
C184	C	0.571040	-0.387660	0.000101
C185	C	0.904374	-0.054327	0.333434
C186	C	1.237707	0.279006	0.666767
C187	C	0.659196	-0.399824	0.000128
C188	C	0.992530	-0.066491	0.333461
C189	C	1.325863	0.266842	0.666794
C190	C	0.659709	-0.349412	0.000135
C191	C	0.993042	-0.016079	0.333468
C192	C	1.326375	0.317254	0.666802
C193	C	0.615887	-0.318124	0.000125
C194	C	0.949220	0.015209	0.333458
C195	C	1.282554	0.348542	0.666792
C196	C	0.571553	-0.337248	0.000108
C197	C	0.904886	-0.003915	0.333441
C198	C	1.238219	0.329418	0.666774
C199	C	0.482878	-0.375493	0.000065
C200	C	0.816211	-0.042159	0.333398
C201	C	1.149545	0.291174	0.666731
C202	C	0.483395	-0.325075	0.000064
C203	C	0.816728	0.008258	0.333397
C204	C	1.150062	0.341591	0.666731
C205	C	0.527733	-0.305952	0.000082
C206	C	0.861066	0.027381	0.333415
C207	C	1.194399	0.360715	0.666749
C208	C	0.528243	-0.255548	0.000105
C209	C	0.861576	0.077785	0.333439
C210	C	1.194910	0.411118	0.666772
N211	N	0.572578	-0.236422	0.000115
N212	N	0.905911	0.096911	0.333448
N213	N	1.239245	0.430245	0.666782
C214	C	0.616400	-0.267710	0.000125
C215	C	0.949733	0.065623	0.333458
C216	C	1.283067	0.398957	0.666792
C217	C	0.523577	-0.714317	0.000075
C218	C	0.856911	-0.380983	0.333408
C219	C	1.190244	-0.047650	0.666742
C220	C	0.523064	-0.764731	0.000075
C221	C	0.856398	-0.431398	0.333408
C222	C	1.189731	-0.098064	0.666742
C223	C	0.611225	-0.776893	0.000096
C224	C	0.944558	-0.443560	0.333429
C225	C	1.277891	-0.110227	0.666762
C226	C	0.611737	-0.726478	0.000102
C227	C	0.945070	-0.393145	0.333435
C228	C	1.278404	-0.059811	0.666768
C229	C	0.567912	-0.695190	0.000085
C230	C	0.901245	-0.361857	0.333418
C231	C	1.234579	-0.028524	0.666752
C232	C	0.617472	-0.161841	0.000141
C233	C	0.950806	0.171493	0.333474
C234	C	1.284139	0.504826	0.666808
C235	C	0.617981	-0.111424	0.000151
C236	C	0.951314	0.221910	0.333485
C237	C	1.284647	0.555243	0.666818
C238	C	0.529821	-0.099266	0.000127
C239	C	0.863154	0.234067	0.333460
C240	C	1.196487	0.567401	0.666793
C241	C	0.529312	-0.149679	0.000120
C242	C	0.862645	0.183655	0.333454
C243	C	1.195979	0.516988	0.666787
C244	C	0.573142	-0.180965	0.000125
C245	C	0.906475	0.152368	0.333458
C246	C	1.239808	0.485701	0.666791
O247	O	0.491043	-0.224267	0.000122
O248	O	0.824376	0.109067	0.333455
O249	O	1.157709	0.442400	0.666789
O250	O	0.654151	-0.246805	0.000124
O251	O	0.987484	0.086528	0.333458
O252	O	1.320818	0.419861	0.666791
C253	C	0.614350	-0.469360	0.000103
C254	C	0.947683	-0.136027	0.333437
C255	C	1.281017	0.197306	0.666770
C256	C	0.570016	-0.488484	0.000086
C257	C	0.903349	-0.155151	0.333419
C258	C	1.236683	0.178182	0.666753
C259	C	0.526194	-0.457196	0.000076
C260	C	0.859527	-0.123863	0.333410
C261	C	1.192861	0.209470	0.666743
C262	C	0.569503	-0.538899	0.000086
C263	C	0.902836	-0.205565	0.333419
C264	C	1.236170	0.127768	0.666753
C265	C	0.613325	-0.570187	0.000096
C266	C	0.946658	-0.236853	0.333429
C267	C	1.279991	0.096480	0.666763
C268	C	0.657660	-0.551060	0.000106
C269	C	0.990993	-0.217727	0.333439
C270	C	1.324326	0.115606	0.666773
C271	C	0.658172	-0.500648	0.000113
C272	C	0.991505	-0.167315	0.333446
C273	C	1.324839	0.166018	0.666780
C274	C	0.481859	-0.476323	0.000066
C275	C	0.815193	-0.142989	0.333400
C276	C	1.148526	0.190344	0.666733
C277	C	0.481351	-0.526735	0.000060
C278	C	0.814684	-0.193402	0.333393
C279	C	1.148017	0.139932	0.666727
C280	C	0.525172	-0.558023	0.000070
C281	C	0.858506	-0.224690	0.333403
C282	C	1.191839	0.108643	0.666736
C283	C	0.658925	0.057739	0.000136
C284	C	0.992259	0.391072	0.333469
C285	C	1.325592	0.724405	0.666803
C286	C	0.712580	0.058295	0.000143
C287	C	1.045913	0.391628	0.333477
C288	C	1.379247	0.724961	0.666810
C289	C	0.566333	0.150326	0.000097
C290	C	0.899667	0.483659	0.333430
C291	C	1.233000	0.816993	0.666763
C292	C	0.566886	0.203981	0.000085
C293	C	0.900219	0.537314	0.333418
C294	C	1.233553	0.870648	0.666752
N295	N	0.570511	0.061915	0.206666
N296	N	0.903844	0.395249	0.539999
N297	N	1.237177	0.728582	0.873332
N298	N	0.570538	0.061926	-0.206432
N299	N	0.903871	0.395259	0.126901
N300	N	1.237205	0.728593	0.460235
C301	C	0.603628	0.028823	0.248397
C302	C	0.936962	0.362156	0.581731
C303	C	1.270295	0.695489	0.915064
C304	C	0.603631	0.028822	0.331850
C305	C	0.936964	0.362156	0.665183
C306	C	1.270298	0.695489	0.998516
C307	C	0.570518	0.061917	0.373569
C308	C	0.903851	0.395250	0.706902
C309	C	1.237185	0.728584	1.040235
C310	C	0.537397	0.095011	0.331831
C311	C	0.870730	0.428345	0.665164
C312	C	1.204064	0.761678	0.998498
C313	C	0.537392	0.095009	0.248380
C314	C	0.870726	0.428342	0.581714
C315	C	1.204059	0.761676	0.915047
C316	C	0.537414	0.095021	0.668378
C317	C	0.870748	0.428354	1.001711
C318	C	1.204081	0.761687	1.335045
C319	C	0.537422	0.095021	0.751835
C320	C	0.870756	0.428355	1.085168
C321	C	1.204089	0.761688	1.418501
C322	C	0.603653	0.028834	0.751848
C323	C	0.936986	0.362167	1.085181
C324	C	1.270320	0.695501	1.418514
C325	C	0.603648	0.028832	0.668397
C326	C	0.936982	0.362165	1.001730
C327	C	1.270315	0.695498	1.335063
C328	C	0.570526	0.061924	0.626666
C329	C	0.903859	0.395257	0.960000
C330	C	1.237193	0.728591	1.293333
C331	C	0.570523	0.061923	0.536178
C332	C	0.903856	0.395257	0.869511
C333	C	1.237189	0.728590	1.202845
C334	C	0.570523	0.061920	0.464055
C335	C	0.903856	0.395254	0.797389
C336	C	1.237190	0.728587	1.130722
H337	H	0.343355	-0.015402	0.000104
H338	H	0.676689	0.317931	0.333437
H339	H	1.010022	0.651265	0.666771
H340	H	-0.271701	-0.021634	0.000151
H341	H	0.061632	0.311699	0.333485
H342	H	0.394966	0.645033	0.666818
Br343	Br	0.185130	0.211270	0.000095
Br344	Br	0.518463	0.544603	0.333429
Br345	Br	0.851797	0.877937	0.666762
H346	H	0.487888	-0.688846	0.000062
H347	H	0.821221	-0.355513	0.333395
H348	H	1.154554	-0.022179	0.666729
Br349	Br	0.648574	-0.016091	0.191788
Br350	Br	0.981907	0.317242	0.525121
Br351	Br	1.315240	0.650576	0.858454
H352	H	0.446774	-0.391054	0.000045
H353	H	0.780107	-0.057720	0.333378
H354	H	1.113440	0.275613	0.666712
Br355	Br	0.492481	0.139939	0.808453
Br356	Br	0.825814	0.473272	1.141787
Br357	Br	1.159148	0.806606	1.475120
H358	H	0.653163	-0.187309	0.000142
H359	H	0.986496	0.146024	0.333475
H360	H	1.319829	0.479358	0.666808
H361	H	0.023502	0.185672	0.000123
H362	H	0.356835	0.519006	0.333456
H363	H	0.690168	0.852339	0.666789
H364	H	0.510446	0.121966	0.634408
H365	H	0.843779	0.455300	0.967741
H366	H	1.177112	0.788633	1.301074
H367	H	0.510433	0.121956	0.365803
H368	H	0.843767	0.455289	0.699137
H369	H	1.177100	0.788623	1.032470
Br370	Br	0.225975	-0.084690	0.000146
Br371	Br	0.559308	0.248644	0.333479
Br372	Br	0.892641	0.581977	0.666813
Br373	Br	0.648575	-0.016091	0.388488
Br374	Br	0.981908	0.317242	0.721822
Br375	Br	1.315242	0.650575	1.055155
H376	H	0.447706	-0.299603	0.000049
H377	H	0.781040	0.033731	0.333383
H378	H	1.114373	0.367064	0.666716
Br379	Br	0.719885	-0.323468	0.000137
Br380	Br	1.053218	0.009866	0.333470
Br381	Br	1.386551	0.343199	0.666804
H382	H	0.493209	-0.165249	0.000128
H383	H	0.826542	0.168084	0.333461
H384	H	1.159875	0.501417	0.666794
Br385	Br	0.492442	0.139919	0.191744
Br386	Br	0.825775	0.473252	0.525077
Br387	Br	1.159109	0.806586	0.858411
H388	H	0.445243	-0.542300	0.000052
H389	H	0.778576	-0.208967	0.333385
H390	H	1.111909	0.124367	0.666719
Br391	Br	-0.191920	0.163312	0.000112
Br392	Br	0.141413	0.496645	0.333445
Br393	Br	0.474746	0.829978	0.666778
H394	H	0.083300	0.186271	0.000109
H395	H	0.416634	0.519604	0.333443
H396	H	0.749967	0.852938	0.666776
H397	H	0.494142	-0.073782	0.000121
H398	H	0.827476	0.259551	0.333455
H399	H	1.160809	0.592884	0.666788
H400	H	-0.293772	0.138311	0.000126
H401	H	0.039562	0.471645	0.333459
H402	H	0.372895	0.804978	0.666793
Br403	Br	-0.163265	-0.044505	0.000166
Br404	Br	0.170069	0.288828	0.333499
Br405	Br	0.503402	0.622161	0.666833
H406	H	0.486960	-0.780296	0.000074
H407	H	0.820293	-0.446963	0.333408
H408	H	1.153627	-0.113630	0.666741
H409	H	0.630614	0.001884	0.634432
H410	H	0.963947	0.335218	0.967765
H411	H	1.297280	0.668551	1.301099
Br412	Br	0.718677	-0.442278	0.000140
Br413	Br	1.052011	-0.108945	0.333474
Br414	Br	1.385344	0.224388	0.666807
Br415	Br	-0.044091	-0.087436	0.000145
Br416	Br	0.289242	0.245897	0.333478
Br417	Br	0.622576	0.579230	0.666811
Br418	Br	0.451809	-0.038260	0.000101
Br419	Br	0.785142	0.295073	0.333434
Br420	Br	1.118475	0.628406	0.666768
Br421	Br	0.074720	-0.086232	0.000157
Br422	Br	0.408053	0.247101	0.333490
Br423	Br	0.741387	0.580435	0.666824
H424	H	0.647841	-0.710911	0.000116
H425	H	0.981174	-0.377578	0.333449
H426	H	1.314507	-0.044245	0.666782
H427	H	0.694276	-0.485083	0.000128
H428	H	1.027609	-0.151750	0.333461
H429	H	1.360943	0.181583	0.666794
H430	H	0.117526	-0.061832	0.000149
H431	H	0.450859	0.271501	0.333483
H432	H	0.784192	0.604835	0.666816
H433	H	0.412744	0.145477	0.000062
H434	H	0.746078	0.478810	0.333395
H435	H	1.079411	0.812143	0.666729
H436	H	0.321293	0.144551	0.000086
H437	H	0.654627	0.477885	0.333419
H438	H	0.987960	0.811218	0.666752
H439	H	0.630622	0.001887	0.785833
H440	H	0.963955	0.335220	1.119167
H441	H	1.297289	0.668554	1.452500
Br442	Br	0.678157	-0.085474	0.000177
Br443	Br	1.011491	0.247859	0.333510
Br444	Br	1.344824	0.581193	0.666844
H445	H	0.646906	-0.802377	0.000104
H446	H	0.980239	-0.469043	0.333438
H447	H	1.313573	-0.135710	0.666771
H448	H	0.693341	-0.576544	0.000117
H449	H	1.026674	-0.243211	0.333451
H450	H	1.360008	0.090122	0.666784
Br451	Br	-0.084936	0.208534	0.000147
Br452	Br	0.248397	0.541867	0.333480
Br453	Br	0.581731	0.875200	0.666814
Br454	Br	0.422380	-0.433867	0.000049
Br455	Br	0.755714	-0.100534	0.333382
Br456	Br	1.089047	0.232799	0.666715
