data_functionalizedCrystal
_audit_creation_method	'MofGen! by Chris Wilmer'
_symmetry_space_group_name_H-M	'P1'
_symmetry_Int_Tables_number	1
_symmetry_cell_setting	triclinic
loop_
_symmetry_equiv_pos_as_xyz
  x,y,z
_cell_length_a	14.446369
_cell_length_b	21.606444
_cell_length_c	21.606444
_cell_angle_alpha	60.000398
_cell_angle_beta	89.999503
_cell_angle_gamma	59.997435
loop_
_atom_site_label
_atom_site_type_symbol
_atom_site_fract_x
_atom_site_fract_y
_atom_site_fract_z
Zr1	Zr	0.891761	0.677417	-0.081178
O2	O	0.743950	0.806543	-0.180003
O3	O	0.937074	0.548296	-0.050886
O4	O	0.937073	0.677417	-0.180003
O5	O	0.743950	0.677419	0.050967
O6	O	1.089410	0.677412	-0.179999
O7	O	0.743951	0.677421	-0.050886
O8	O	1.089412	0.446437	0.050968
O9	O	0.743949	0.908394	-0.180000
O10	O	1.070085	0.601399	-0.037960
O11	O	0.956397	0.601401	0.038049
O12	O	0.956396	0.753425	-0.113970
O13	O	0.842708	0.753428	-0.037961
Zr14	Zr	1.134719	0.677404	0.081272
Zr15	Zr	1.134721	0.677408	-0.081172
Zr16	Zr	0.891759	0.677413	0.081266
Zr17	Zr	0.891758	0.839857	-0.081173
Zr18	Zr	1.134722	0.514964	0.081267
O19	O	1.089406	0.806525	0.050980
O20	O	1.089408	0.806530	-0.179995
O21	O	0.743948	0.806537	0.050971
O22	O	1.282530	0.548278	0.180097
O23	O	1.282532	0.548283	-0.050877
O24	O	0.937072	0.548291	0.180089
O25	O	1.282530	0.677402	-0.050873
O26	O	1.089407	0.677403	0.180097
O27	O	0.937070	0.677409	0.180093
O28	O	1.282529	0.677399	0.050980
O29	O	0.937070	0.908387	-0.179995
O30	O	1.089411	0.446434	0.180089
O31	O	1.282532	0.446427	0.180094
O32	O	1.282533	0.446430	0.050973
O33	O	0.743948	0.908391	-0.050879
O34	O	0.937068	0.908384	-0.050874
O35	O	1.070084	0.601395	0.114064
O36	O	1.183772	0.601393	0.038055
O37	O	1.070083	0.753419	-0.037955
O38	O	0.956395	0.753422	0.038054
C39	C	1.013243	0.474222	0.000040
C40	C	1.013244	0.405262	0.000038
C41	C	1.072586	0.372863	-0.039639
C42	C	1.072590	0.308063	-0.039634
C43	C	1.013245	0.275668	0.000044
C44	C	0.953902	0.308069	0.039726
C45	C	0.953905	0.372864	0.039725
C46	C	0.953889	0.046760	0.039733
C47	C	0.953887	-0.018037	0.039729
C48	C	1.072573	-0.018040	-0.039626
C49	C	1.072577	0.046754	-0.039628
C50	C	1.013239	0.079147	0.000057
C51	C	1.013237	0.149409	0.000053
C52	C	1.013240	0.205411	0.000045
C53	C	0.709334	0.677422	0.000039
C54	C	0.606191	0.677425	0.000037
C55	C	0.387821	0.773298	-0.047661
C56	C	0.495053	0.773363	-0.047929
C57	C	0.602869	0.629801	-0.034933
C58	C	0.495100	0.630410	-0.035283
C59	C	0.496462	0.628432	0.082766
C60	C	0.602431	0.630239	0.082635
C61	C	1.317146	0.677399	0.000054
C62	C	1.420289	0.677395	0.000057
C63	C	1.013242	0.677415	-0.203146
C64	C	1.013243	0.677417	-0.272107
C65	C	1.013237	0.880598	0.000053
C66	C	1.013236	0.949559	0.000056
C67	C	1.097166	0.677415	-0.304504
C68	C	1.097170	0.677409	-0.369297
C69	C	1.013244	0.677411	-0.401695
C70	C	0.929316	0.677410	-0.369293
C71	C	0.929318	0.677410	-0.304498
C72	C	0.929306	0.677409	-0.630604
C73	C	0.929308	0.677412	-0.695404
C74	C	1.097158	0.677409	-0.695402
C75	C	1.097160	0.677409	-0.630607
C76	C	1.013236	0.677403	-0.598208
C77	C	1.013234	0.677408	-0.527951
C78	C	1.013240	0.677412	-0.471954
C79	C	1.013238	0.677406	0.203240
C80	C	1.013238	0.677404	0.272201
C81	C	1.317149	0.474211	0.000048
C82	C	1.420293	0.405247	0.000048
C83	C	1.013241	0.474218	0.203233
C84	C	1.013242	0.405256	0.272192
C85	C	1.317148	0.474206	0.203240
C86	C	1.420291	0.405241	0.272202
C87	C	0.709333	0.880614	-0.203147
C88	C	0.606189	0.949580	-0.272109
C89	C	0.709331	0.880610	0.000046
C90	C	0.606187	0.949573	0.000046
C91	C	1.013239	0.880603	-0.203139
C92	C	1.013238	0.949565	-0.272099
C93	C	1.409388	0.372864	-0.039637
C94	C	1.506293	0.308074	-0.039652
C95	C	1.614103	0.275664	0.000023
C96	C	1.625007	0.308054	0.039710
C97	C	1.528102	0.372847	0.039720
C98	C	1.072585	0.372867	0.344262
C99	C	1.072582	0.308080	0.409063
C100	C	1.013240	0.275677	0.401793
C101	C	0.953889	0.308071	0.329715
C102	C	0.953887	0.372863	0.264916
C103	C	1.528082	0.372853	0.264912
C104	C	1.625006	0.308061	0.329703
C105	C	1.614135	0.275655	0.401784
C106	C	1.506333	0.308049	0.409073
C107	C	1.409412	0.372844	0.344283
C108	C	0.498398	0.981976	-0.264818
C109	C	0.401474	1.046788	-0.329609
C110	C	0.412345	1.079198	-0.401690
C111	C	0.520148	1.046799	-0.408979
C112	C	0.617069	0.981993	-0.344189
C113	C	0.617093	0.981963	0.039724
C114	C	0.520187	1.046771	0.039721
C115	C	0.412377	1.079184	0.000044
C116	C	0.401473	1.046791	-0.039640
C117	C	0.498378	0.981989	-0.039641
C118	C	1.072591	0.981947	-0.264804
C119	C	1.072613	1.046736	-0.329592
C120	C	1.013274	1.079145	-0.401675
C121	C	0.953920	1.046756	-0.408968
C122	C	0.953905	0.981965	-0.344181
H123	H	1.120906	0.399239	-0.071953
Br124	Br	0.873383	1.090757	-0.506801
H125	H	0.905575	0.281679	0.323807
H126	H	0.905566	0.399225	0.206236
Br127	Br	0.255150	1.090787	-0.093483
Br128	Br	1.153103	0.264113	-0.093501
Br129	Br	0.873367	0.090708	0.093596
Br130	Br	1.263127	0.416788	0.354191
H131	H	1.013295	1.131903	-0.454423
H132	H	0.489525	0.955591	-0.206132
H133	H	1.120896	0.073132	-0.071940
Br134	Br	1.542867	0.416823	0.167096
Br135	Br	0.255186	1.090742	-0.319699
H136	H	1.321612	0.399252	-0.071955
Br137	Br	0.873336	0.938032	-0.354094
Br138	Br	0.280796	1.167150	-0.489613
Br139	Br	0.296177	0.835734	-0.148739
H140	H	1.712775	0.281692	0.323754
H141	H	0.905589	0.281683	0.072037
H142	H	1.165507	0.677407	-0.395673
Br143	Br	0.297885	0.836038	-0.008765
Br144	Br	0.483556	0.938035	-0.093492
H145	H	1.120909	0.399243	0.350197
H146	H	0.446438	0.659116	0.111979
Br147	Br	0.873341	-0.062002	0.093581
H148	H	1.693064	0.222894	0.454534
Br149	Br	1.491599	0.264060	0.506903
H150	H	1.120916	0.281711	0.467745
H151	H	1.120894	-0.044424	-0.071937
H152	H	0.704868	0.955578	0.072040
Br153	Br	1.153132	0.937978	-0.166986
Br154	Br	0.280874	1.167131	0.000053
Br155	Br	1.211059	0.677415	-0.739373
H156	H	0.528985	1.073195	-0.467675
Br157	Br	0.873374	0.416830	0.093579
H158	H	0.521754	0.560047	-0.002775
H159	H	0.860963	0.677412	-0.721782
Br160	Br	1.491469	0.264129	-0.093515
H161	H	1.693000	0.222905	0.000010
Br162	Br	0.763354	0.938030	-0.354097
Br163	Br	0.492365	0.835637	-0.008833
H164	H	0.492607	0.810959	-0.108941
Br165	Br	1.153167	1.090681	-0.319677
H166	H	1.536998	0.399205	0.072041
H167	H	0.444756	0.664256	-0.096146
Br168	Br	0.733317	0.512227	0.020204
H169	H	0.529087	1.073134	0.072040
H170	H	0.605004	0.662882	-0.095218
H171	H	0.601912	0.664964	0.108760
Br172	Br	0.542222	0.510678	0.142300
Br173	Br	0.734348	0.513566	0.146877
H174	H	1.165504	0.677420	-0.278132
Br175	Br	1.211057	0.677413	-0.586643
H176	H	0.860971	0.677406	-0.604231
H177	H	0.860985	0.677405	-0.395673
Br178	Br	1.013254	0.187745	0.489744
H179	H	1.712799	0.281656	0.072012
Br180	Br	0.815423	0.677403	-0.260528
