data_functionalizedCrystal
_audit_creation_method	'MofGen! by Chris Wilmer'
_symmetry_space_group_name_H-M	'P1'
_symmetry_Int_Tables_number	1
_symmetry_cell_setting	triclinic
loop_
_symmetry_equiv_pos_as_xyz
  x,y,z
_cell_length_a	19.288864
_cell_length_b	27.731989
_cell_length_c	17.766277
_cell_angle_alpha	90.012272
_cell_angle_beta	90.023209
_cell_angle_gamma	82.877471
loop_
_atom_site_label
_atom_site_type_symbol
_atom_site_fract_x
_atom_site_fract_y
_atom_site_fract_z
O1	O	-0.920959	-0.060302	-0.062845
O2	O	-0.420959	0.439698	0.437155
O3	O	-0.718645	-0.068436	-0.062795
O4	O	-0.218645	0.431564	0.437205
O5	O	-0.826106	0.006011	-0.062805
O6	O	-0.326106	0.506011	0.437195
O7	O	-0.813497	-0.134749	-0.062835
O8	O	-0.313497	0.365251	0.437165
O9	O	-0.826088	0.006015	0.062383
O10	O	-0.326088	0.506015	0.562383
O11	O	-0.718626	-0.068432	0.062394
O12	O	-0.218626	0.431568	0.562394
O13	O	-0.920940	-0.060298	0.062343
O14	O	-0.420940	0.439702	0.562343
Cu15	Cu	-0.819781	-0.064365	0.073799
Cu16	Cu	-0.319781	0.435635	0.573799
Cu17	Cu	-0.819803	-0.064369	-0.074251
Cu18	Cu	-0.319803	0.435631	0.425749
O19	O	-0.813478	-0.134745	0.062354
O20	O	-0.313478	0.365255	0.562354
C21	C	-0.692761	-0.068172	-0.000194
C22	C	-0.192761	0.431828	0.499806
C23	C	-0.615662	-0.067387	-0.000174
C24	C	-0.115662	0.432613	0.499826
C25	C	-0.825839	0.024021	-0.000209
C26	C	-0.325839	0.524021	0.499791
C27	C	-0.825061	0.077680	-0.000201
C28	C	-0.325061	0.577680	0.499799
C29	C	-0.946824	-0.060561	-0.000259
C30	C	-0.446824	0.439439	0.499741
C31	C	-1.023923	-0.061347	-0.000284
C32	C	-0.523923	0.438653	0.499716
C33	C	-0.570680	-0.111069	-0.000195
C34	C	-0.070680	0.388931	0.499805
C35	C	-0.498238	-0.110331	-0.000203
C36	C	0.001762	0.389669	0.499797
C37	C	-0.470781	-0.065908	-0.000206
C38	C	0.029219	0.434092	0.499794
C39	C	-0.515773	-0.022220	-0.000180
C40	C	-0.015773	0.477780	0.499820
C41	C	-0.588214	-0.022960	-0.000165
C42	C	-0.088214	0.477040	0.499835
C43	C	-0.362754	-0.030988	-0.044083
C44	C	0.137246	0.469012	0.455917
C45	C	-0.290314	-0.030250	-0.044103
C46	C	0.209686	0.469750	0.455897
C47	C	-0.247350	-0.063626	-0.000251
C48	C	0.252650	0.436374	0.499749
C49	C	-0.276833	-0.097746	0.043612
C50	C	0.223167	0.402254	0.543612
C51	C	-0.349274	-0.098486	0.043628
C52	C	0.150726	0.401514	0.543628
C53	C	-0.392232	-0.065101	-0.000222
C54	C	0.107768	0.434899	0.499778
C55	C	-0.123818	-0.106510	-0.000279
C56	C	0.376182	0.393490	0.499721
C57	C	-0.051374	-0.105770	-0.000283
C58	C	0.448626	0.394230	0.499717
C59	C	-0.068911	-0.017658	-0.000268
C60	C	0.431089	0.482342	0.499732
C61	C	-0.141353	-0.018400	-0.000257
C62	C	0.358647	0.481600	0.499743
C63	C	-0.168801	-0.062827	-0.000266
C64	C	0.331199	0.437173	0.499734
N65	N	-0.819771	-0.064361	0.177930
N66	N	-0.319771	0.435639	0.677930
C67	C	-0.820175	0.410410	-0.068477
C68	C	-0.320175	0.910410	0.431523
C69	C	-0.817221	0.612078	-0.068490
C70	C	-0.317221	1.112078	0.431510
O71	O	-0.816818	0.638148	-0.126527
O72	O	-0.316818	1.138148	0.373473
N73	N	-0.816844	0.637298	-0.000251
N74	N	-0.316844	1.137298	0.499749
C75	C	-0.817201	0.612098	0.067997
C76	C	-0.317201	1.112098	0.567997
O77	O	-0.816805	0.638176	0.126039
O78	O	-0.316805	1.138176	0.626039
C79	C	-0.820150	0.410431	0.068009
C80	C	-0.320150	0.910431	0.568009
C81	C	-0.820534	0.385214	-0.000235
C82	C	-0.320534	0.885214	0.499765
C83	C	-0.820559	0.385193	-0.136716
C84	C	-0.320559	0.885193	0.363284
C85	C	-0.821301	0.334779	-0.136712
C86	C	-0.321301	0.834779	0.363288
C87	C	-0.821660	0.309583	-0.068470
C88	C	-0.321660	0.809583	0.431530
C89	C	-0.821277	0.334800	-0.000231
C90	C	-0.321277	0.834800	0.499769
C91	C	-0.820502	0.385231	0.136256
C92	C	-0.320502	0.885231	0.636256
C93	C	-0.821238	0.334811	0.136253
C94	C	-0.321238	0.834811	0.636253
C95	C	-0.821622	0.309594	0.068009
C96	C	-0.321622	0.809594	0.568009
C97	C	-0.822378	0.259190	0.068015
C98	C	-0.322378	0.759190	0.568015
N99	N	-0.822756	0.233970	-0.000224
N100	N	-0.322756	0.733970	0.499776
C101	C	-0.822397	0.259166	-0.068467
C102	C	-0.322397	0.759166	0.431533
C103	C	-0.815653	0.717976	0.067986
C104	C	-0.315653	1.217976	0.567986
C105	C	-0.814917	0.768393	0.067983
C106	C	-0.314917	1.268393	0.567983
C107	C	-0.814936	0.768369	-0.068505
C108	C	-0.314936	1.268369	0.431495
C109	C	-0.815677	0.717952	-0.068501
C110	C	-0.315677	1.217952	0.431499
C111	C	-0.816030	0.692756	-0.000254
C112	C	-0.316030	1.192756	0.499746
C113	C	-0.823956	0.153294	-0.068453
C114	C	-0.323956	0.653294	0.431547
C115	C	-0.824702	0.102876	-0.068443
C116	C	-0.324702	0.602876	0.431557
C117	C	-0.824679	0.102904	0.068044
C118	C	-0.324679	0.602904	0.568044
C119	C	-0.823937	0.153318	0.068034
C120	C	-0.323937	0.653318	0.568034
C121	C	-0.823574	0.178511	-0.000220
C122	C	-0.323574	0.678511	0.499780
O123	O	-0.822774	0.233088	0.126021
O124	O	-0.322774	0.733088	0.626021
O125	O	-0.822777	0.233078	-0.126500
O126	O	-0.322777	0.733078	0.373500
C127	C	-0.819433	0.460823	-0.068481
C128	C	-0.319433	0.960823	0.431519
C129	C	-0.819050	0.486041	-0.000243
C130	C	-0.319050	0.986041	0.499757
C131	C	-0.819409	0.460844	0.068000
C132	C	-0.319409	0.960844	0.568000
C133	C	-0.818313	0.536457	-0.000246
C134	C	-0.318313	1.036457	0.499754
C135	C	-0.817954	0.561654	-0.068488
C136	C	-0.317954	1.061654	0.431512
C137	C	-0.818332	0.536433	-0.136728
C138	C	-0.318332	1.036433	0.363272
C139	C	-0.819074	0.486020	-0.136724
C140	C	-0.319074	0.986020	0.363276
C141	C	-0.819031	0.486065	0.136239
C142	C	-0.319031	0.986065	0.636239
C143	C	-0.818290	0.536478	0.136230
C144	C	-0.318290	1.036478	0.636230
C145	C	-0.817931	0.561675	0.067987
C146	C	-0.317931	1.061675	0.567987
C147	C	-0.813755	0.847246	-0.000245
C148	C	-0.313755	1.347246	0.499755
C149	C	-0.814558	0.793589	-0.000260
C150	C	-0.314558	1.293589	0.499740
N151	N	-0.819820	-0.064369	-0.178381
N152	N	-0.319820	0.435631	0.321619
C153	C	-0.867370	-0.031412	0.217312
C154	C	-0.367370	0.468588	0.717312
C155	C	-0.867374	-0.031410	0.296114
C156	C	-0.367374	0.468590	0.796114
C157	C	-0.819785	-0.064365	0.335530
C158	C	-0.319785	0.435635	0.835530
C159	C	-0.772177	-0.097317	0.296138
C160	C	-0.272177	0.402683	0.796138
C161	C	-0.772170	-0.097315	0.217338
C162	C	-0.272170	0.402685	0.717338
C163	C	-0.810199	-0.108409	0.460360
C164	C	-0.310199	0.391591	0.960360
C165	C	-0.810211	-0.108412	0.539159
C166	C	-0.310211	0.391588	1.039159
C167	C	-0.819804	-0.064371	0.578576
C168	C	-0.319804	0.435629	1.078576
C169	C	-0.829400	-0.020326	0.539185
C170	C	-0.329400	0.479674	1.039185
C171	C	-0.829393	-0.020324	0.460385
C172	C	-0.329393	0.479676	0.960385
C173	C	-0.819788	-0.064371	0.420976
C174	C	-0.319788	0.435629	0.920976
C175	C	-0.867410	-0.031417	0.703405
C176	C	-0.367410	0.468583	1.203405
C177	C	-0.867409	-0.031414	0.782208
C178	C	-0.367409	0.468586	1.282208
C179	C	-0.772216	-0.097325	0.782231
C180	C	-0.272216	0.402675	1.282231
C181	C	-0.772214	-0.097323	0.703429
C182	C	-0.272214	0.402677	1.203429
C183	C	-0.819814	-0.064370	0.664021
C184	C	-0.319814	0.435630	1.164021
H185	H	-0.593024	-0.147245	-0.000204
H186	H	-0.093024	0.352755	0.499796
N187	N	-0.918762	0.004118	0.824689
N188	N	-0.418762	0.504118	1.324689
H189	H	-0.948920	0.024988	0.787763
H190	H	-0.448920	0.524988	1.287763
H191	H	-0.949254	-0.014349	0.857352
H192	H	-0.449254	0.485651	1.357352
N193	N	-0.720874	-0.132861	0.660947
N194	N	-0.220874	0.367139	1.160947
H195	H	-0.690725	-0.153738	0.697872
H196	H	-0.190725	0.346262	1.197872
H197	H	-0.747221	-0.154185	0.628227
H198	H	-0.247221	0.345815	1.128227
H199	H	-0.819386	0.465492	-0.192295
H200	H	-0.319386	0.965492	0.307705
H201	H	-0.821515	0.314298	0.191830
H202	H	-0.321515	0.814298	0.691830
N203	N	-0.814517	0.795587	0.141591
N204	N	-0.314517	1.295587	0.641591
H205	H	-0.771566	0.782802	0.171435
H206	H	-0.271566	1.282802	0.671435
H207	H	-0.814024	0.831344	0.131181
H208	H	-0.314024	1.331344	0.631181
H209	H	-0.733466	-0.124156	0.814323
H210	H	-0.233466	0.375844	1.314323
N211	N	-0.636735	0.024157	-0.000139
N212	N	-0.136735	0.524157	0.499861
H213	H	-0.608352	0.052412	-0.000138
H214	H	-0.108352	0.552412	0.499862
H215	H	-0.667198	0.025769	-0.046541
H216	H	-0.167198	0.525769	0.453459
N217	N	-0.189867	0.028718	-0.000246
N218	N	0.310133	0.528718	0.499754
H219	H	-0.220339	0.030374	-0.046646
H220	H	0.279661	0.530374	0.453354
H221	H	-0.220243	0.030351	0.046199
H222	H	0.279757	0.530351	0.546199
H223	H	-0.837204	0.015539	0.428316
H224	H	-0.337204	0.515539	0.928316
H225	H	-0.802402	-0.144276	0.571226
H226	H	-0.302402	0.355724	1.071226
H227	H	-0.461607	-0.145903	-0.000218
H228	H	0.038393	0.354097	0.499782
H229	H	-0.733408	-0.124146	0.185272
H230	H	-0.233408	0.375854	0.685272
N231	N	-0.799852	-0.155913	0.417849
N232	N	-0.299852	0.344087	0.917849
H233	H	-0.793783	-0.183814	0.454759
H234	H	-0.293783	0.316186	0.954759
H235	H	-0.842015	-0.158657	0.385133
H236	H	-0.342015	0.341343	0.885133
N237	N	-0.839751	0.027180	0.581686
N238	N	-0.339751	0.527180	1.081686
H239	H	-0.838297	0.020497	0.637583
H240	H	-0.338297	0.520497	1.137583
H241	H	-0.801360	0.047243	0.567938
H242	H	-0.301360	0.547243	1.067938
H243	H	-0.823631	0.173851	0.123604
H244	H	-0.323631	0.673851	0.623604
N245	N	-0.825119	0.075678	-0.142052
N246	N	-0.325119	0.575678	0.357948
H247	H	-0.824777	0.099293	-0.185282
H248	H	-0.324777	0.599293	0.314718
H249	H	-0.782352	0.050743	-0.145016
H250	H	-0.282352	0.550743	0.354984
H251	H	-0.241853	-0.124923	0.079322
H252	H	0.258147	0.375077	0.579322
H253	H	-0.266315	-0.002469	-0.079822
H254	H	0.233685	0.497531	0.420178
H255	H	-0.906168	-0.004582	0.671317
H256	H	-0.406168	0.495418	1.171317
H257	H	-0.824974	0.082380	0.123605
H258	H	-0.324974	0.582380	0.623605
N259	N	-0.381074	-0.135278	0.090947
N260	N	0.118926	0.364722	0.590947
H261	H	-0.433484	-0.130679	0.084302
H262	H	0.066516	0.369321	0.584302
H263	H	-0.361661	-0.169146	0.074547
H264	H	0.138339	0.330854	0.574547
N265	N	-0.918704	0.004131	0.174806
N266	N	-0.418704	0.504131	0.674806
H267	H	-0.967938	-0.001351	0.188492
H268	H	-0.467938	0.498649	0.688492
H269	H	-0.911028	0.038409	0.188557
H270	H	-0.411028	0.538409	0.688557
H271	H	-0.733429	-0.124148	0.328235
H272	H	-0.233429	0.375852	0.828235
H273	H	-0.823657	0.173800	-0.124033
H274	H	-0.323657	0.673800	0.375967
N275	N	-0.409088	0.005014	-0.091382
N276	N	0.090912	0.505014	0.408618
H277	H	-0.395617	0.000637	-0.146114
H278	H	0.104383	0.500637	0.353886
H279	H	-0.459436	-0.000649	-0.084654
H280	H	0.040564	0.499351	0.415346
H281	H	-0.815944	0.697467	0.123564
H282	H	-0.315944	1.197467	0.623564
N283	N	-0.486157	0.025691	-0.000177
N284	N	0.013843	0.525691	0.499823
H285	H	-0.456519	0.027962	-0.046591
H286	H	0.043481	0.527962	0.453409
H287	H	-0.525684	0.053226	-0.000131
H288	H	-0.025684	0.553226	0.499869
N289	N	-0.153430	-0.154425	-0.000286
N290	N	0.346570	0.345575	0.499714
H291	H	-0.113939	-0.181987	-0.000294
H292	H	0.386061	0.318013	0.499706
H293	H	-0.183082	-0.156649	0.046127
H294	H	0.316918	0.343351	0.546127
N295	N	-0.817962	0.563618	-0.210332
N296	N	-0.317962	1.063618	0.289668
H297	H	-0.818322	0.539997	-0.253568
H298	H	-0.318322	1.039997	0.246432
H299	H	-0.860738	0.588546	-0.213296
H300	H	-0.360738	1.088546	0.286704
H301	H	-0.817982	0.557006	0.191807
H302	H	-0.317982	1.057006	0.691807
N303	N	-0.821712	0.307584	-0.210318
N304	N	-0.321712	0.807584	0.289682
H305	H	-0.821370	0.331202	-0.253544
H306	H	-0.321370	0.831202	0.246456
H307	H	-0.778942	0.282651	-0.213282
H308	H	-0.278942	0.782651	0.286718
H309	H	-0.820264	0.405702	-0.192290
H310	H	-0.320264	0.905702	0.307710
H311	H	-0.014750	-0.141343	-0.000295
H312	H	0.485250	0.358657	0.499705
N313	N	-0.816092	0.690755	-0.142106
N314	N	-0.316092	1.190755	0.357894
H315	H	-0.815754	0.714372	-0.185334
H316	H	-0.315754	1.214372	0.314666
H317	H	-0.773321	0.665823	-0.145072
H318	H	-0.273321	1.165823	0.354928
H319	H	-0.906136	-0.004578	0.328185
H320	H	-0.406136	0.495422	0.828185
H321	H	-0.814644	0.788893	-0.124071
H322	H	-0.314644	1.288893	0.375929
N323	N	-0.819421	0.458893	0.209847
N324	N	-0.319421	0.958893	0.709847
H325	H	-0.819071	0.482524	0.253071
H326	H	-0.319071	0.982524	0.753071
H327	H	-0.862807	0.441994	0.212811
H328	H	-0.362807	0.941994	0.712811
H329	H	-0.046556	0.018511	-0.000316
H330	H	0.453444	0.518511	0.499684
N331	N	-0.820089	0.412421	0.209863
N332	N	-0.320089	0.912421	0.709863
H333	H	-0.820424	0.388802	0.253088
H334	H	-0.320424	0.888802	0.753088
H335	H	-0.776705	0.429323	0.212846
H336	H	-0.276705	0.929323	0.712846
