data_functionalizedCrystal
_audit_creation_method	'MofGen! by Chris Wilmer'
_symmetry_space_group_name_H-M	'P1'
_symmetry_Int_Tables_number	1
_symmetry_cell_setting	triclinic
loop_
_symmetry_equiv_pos_as_xyz
  x,y,z
_cell_length_a	10.686285
_cell_length_b	18.215407
_cell_length_c	10.686551
_cell_angle_alpha	85.602013
_cell_angle_beta	99.084519
_cell_angle_gamma	94.368569
loop_
_atom_site_label
_atom_site_type_symbol
_atom_site_fract_x
_atom_site_fract_y
_atom_site_fract_z
Zn1	Zn	-0.450163	-1.175717	0.679085
Zn2	Zn	-0.678743	-1.175657	0.450583
Zn3	Zn	-0.466517	-1.043876	0.466838
Zn4	Zn	-0.662361	-1.061418	0.662779
O5	O	-0.564446	-1.114167	0.564821
O6	O	-0.480497	-1.278695	0.648795
O7	O	-0.664291	-1.150810	0.275108
O8	O	-0.286725	-1.054048	0.508620
O9	O	-0.648434	-1.278651	0.480915
O10	O	-0.274710	-1.150912	0.664557
O11	O	-0.508370	-1.053991	0.287051
O12	O	-0.492484	-0.943217	0.492809
O13	O	-0.620512	-1.083946	0.842573
O14	O	-0.636369	-0.956105	0.636765
O15	O	-0.464611	-1.167921	0.854553
O16	O	-0.854193	-1.167820	0.465104
O17	O	-0.842156	-1.083888	0.621003
C18	C	-0.564424	-0.922958	0.564782
C19	C	-0.564444	-0.841160	0.564793
C20	C	-0.894228	-1.127772	0.539548
C21	C	-1.035307	-1.133661	0.528778
C22	C	-0.639497	-0.659697	0.639636
C23	C	-0.639499	-0.582839	0.639650
C24	C	-0.489402	-0.569389	0.490011
C25	C	-0.489394	-0.646246	0.490005
C26	C	-0.564449	-0.691398	0.564815
C27	C	-0.564459	-0.537683	0.564835
C28	C	-0.564460	-0.454350	0.564849
C29	C	-0.564446	-0.774736	0.564802
C30	C	-0.233374	-1.100530	0.590221
C31	C	-0.092291	-1.094719	0.601045
C32	C	-0.538910	-1.127897	0.895908
C33	C	-0.528028	-1.133748	1.036998
C34	C	-0.564465	-0.306122	0.564855
C35	C	-0.564464	-0.387921	0.564856
C36	C	-0.589791	-1.100529	0.235029
C37	C	-0.600316	-1.094806	0.093968
H38	H	-0.700609	-0.696458	0.700555
H39	H	-1.033150	-1.056873	0.671157
H40	H	-0.700609	-0.557032	0.700579
H41	H	-1.094457	-1.171504	0.458654
C42	C	-0.407737	-0.680711	0.408986
C43	C	-0.320913	-0.724458	0.487219
C44	C	-0.245660	-0.756211	0.412640
H45	H	-0.460331	-0.710445	0.349873
H46	H	-0.362968	-0.642834	0.364454
H47	H	-0.365678	-0.762329	0.531730
H48	H	-0.268290	-0.694741	0.546331
H49	H	-0.200891	-0.718335	0.368108
H50	H	-0.298265	-0.785942	0.353530
H51	H	-0.186734	-0.785892	0.465711
C52	C	-0.434236	-1.184046	1.115953
C53	C	-0.347056	-1.142141	1.198273
C54	C	-0.260624	-1.188449	1.271022
H55	H	-0.478693	-1.220247	1.164066
H56	H	-0.390266	-1.207676	1.061340
H57	H	-0.391021	-1.118523	1.252880
H58	H	-0.302569	-1.105942	1.150194
H59	H	-0.216654	-1.212079	1.216408
H60	H	-0.305091	-1.224647	1.319127
H61	H	-0.201455	-1.160022	1.326876
C62	C	-0.694033	-1.044495	1.014911
C63	C	-0.781174	-1.086396	0.932548
C64	C	-0.867512	-1.040076	0.859688
H65	H	-0.738058	-1.020830	1.069411
H66	H	-0.649457	-1.008320	0.966835
H67	H	-0.825745	-1.122558	0.980619
H68	H	-0.737185	-1.110059	0.878022
H69	H	-0.822937	-1.003900	0.811612
H70	H	-0.911528	-1.016413	0.914198
H71	H	-0.926640	-1.068497	0.803788
H72	H	-0.428296	-0.532617	0.429101
