data_functionalizedCrystal
_audit_creation_method	'MofGen! by Chris Wilmer'
_symmetry_space_group_name_H-M	'P1'
_symmetry_Int_Tables_number	1
_symmetry_cell_setting	triclinic
loop_
_symmetry_equiv_pos_as_xyz
  x,y,z
_cell_length_a	14.044220
_cell_length_b	10.723024
_cell_length_c	13.101018
_cell_angle_alpha	93.392007
_cell_angle_beta	86.335703
_cell_angle_gamma	88.828374
loop_
_atom_site_label
_atom_site_type_symbol
_atom_site_fract_x
_atom_site_fract_y
_atom_site_fract_z
O1	O	-1.264837	-0.294756	0.085101
O2	O	-0.988799	-0.283890	0.085127
O3	O	-1.133185	-0.108384	0.085109
O4	O	-1.120451	-0.470262	0.085118
O5	O	-1.122813	-0.120987	-0.085320
O6	O	-0.978427	-0.296493	-0.085302
O7	O	-1.254465	-0.307359	-0.085328
Zn8	Zn	-1.114799	-0.303927	-0.112375
Zn9	Zn	-1.128464	-0.287322	0.112173
O10	O	-1.110079	-0.482865	-0.085311
C11	C	-0.948268	-0.285436	-0.000084
C12	C	-0.842950	-0.271251	-0.000074
C13	C	-1.127072	-0.068093	-0.000104
C14	C	-1.124300	0.070739	-0.000100
C15	C	-1.294996	-0.305813	-0.000115
C16	C	-1.400314	-0.319997	-0.000118
C17	C	-0.650119	-0.245320	-0.000095
C18	C	-0.593140	-0.345922	-0.000097
C19	C	-0.485842	-0.331494	-0.000109
C20	C	-0.757427	-0.259747	-0.000084
C21	C	-1.116192	-0.523156	-0.000095
C22	C	-1.118965	-0.661987	-0.000093
N23	N	-1.105480	-0.315260	-0.265623
C24	C	-1.205091	0.137638	-0.000106
C25	C	-1.202227	0.281128	-0.000102
C26	C	-1.150465	-0.260557	-0.525537
C27	C	-1.092810	-0.330680	-0.474658
C28	C	-1.099862	-0.322098	-0.358340
C29	C	-1.143414	-0.269137	-0.641866
N30	N	-1.137791	-0.275980	0.265421
H31	H	-0.624942	-0.442886	-0.000090
N32	N	-1.289007	0.353245	-0.000120
N33	N	-1.342732	0.336984	-0.071967
H34	H	-1.404024	0.387917	-0.071981
H35	H	-1.038154	-0.397160	-0.518456
H36	H	-1.049797	0.280508	-0.000094
N37	N	-1.034855	0.132118	-0.000104
N38	N	-0.958897	0.069295	-0.000105
H39	H	-0.895722	0.112640	-0.000110
N40	N	-1.218977	-0.177141	-0.470547
N41	N	-1.191843	-0.091984	-0.410653
H42	H	-1.240215	-0.033069	-0.371784
N43	N	-0.610216	-0.123695	-0.000106
N44	N	-0.521844	-0.112002	-0.000114
H45	H	-0.493652	-0.026104	-0.000119
N46	N	-1.294519	0.076219	-0.000104
N47	N	-1.296719	-0.040256	-0.000101
H48	H	-1.359880	-0.083633	-0.000098
