data_functionalizedCrystal
_audit_creation_method	'MofGen! by Chris Wilmer'
_symmetry_space_group_name_H-M	'P1'
_symmetry_Int_Tables_number	1
_symmetry_cell_setting	triclinic
loop_
_symmetry_equiv_pos_as_xyz
  x,y,z
_cell_length_a	19.121063
_cell_length_b	14.908941
_cell_length_c	14.909227
_cell_angle_alpha	89.834600
_cell_angle_beta	89.250810
_cell_angle_gamma	84.378982
loop_
_atom_site_label
_atom_site_type_symbol
_atom_site_fract_x
_atom_site_fract_y
_atom_site_fract_z
Zn1	Zn	-0.197174	-1.393784	-0.440603
Zn2	Zn	-0.321751	-1.378571	-0.297431
Zn3	Zn	-0.210711	-1.234045	-0.299698
Zn4	Zn	-0.320926	-1.237002	-0.456355
O5	O	-0.262640	-1.310851	-0.373522
O6	O	-0.208379	-1.517865	-0.414069
O7	O	-0.313031	-1.351795	-0.172252
O8	O	-0.110654	-1.260363	-0.312746
O9	O	-0.299905	-1.506688	-0.308882
O10	O	-0.100708	-1.377723	-0.416268
O11	O	-0.231450	-1.245612	-0.173918
O12	O	-0.230651	-1.108338	-0.328020
O13	O	-0.298500	-1.265404	-0.579745
O14	O	-0.311626	-1.110511	-0.443115
O15	O	-0.207580	-1.380591	-0.568172
O16	O	-0.419903	-1.354663	-0.324156
O17	O	-0.419297	-1.250653	-0.440917
C18	C	-0.272518	-1.076729	-0.387524
C19	C	-0.276760	-0.976571	-0.393536
C20	C	-0.200269	-0.786065	-0.285138
C21	C	-0.204252	-0.691958	-0.290783
C22	C	-0.288714	-0.694246	-0.410469
C23	C	-0.284730	-0.788354	-0.404823
C24	C	-0.240506	-0.834260	-0.342156
C25	C	-0.236519	-0.928370	-0.336515
C26	C	-0.320984	-0.930656	-0.456196
C27	C	-0.324967	-0.836548	-0.461842
C28	C	-0.445076	-1.301354	-0.384018
C29	C	-0.523118	-1.297375	-0.388533
C30	C	-0.560070	-1.349706	-0.329909
C31	C	-0.633398	-1.345970	-0.334160
C32	C	-0.669773	-1.289897	-0.397033
C33	C	-0.632815	-1.237564	-0.455664
C34	C	-0.559488	-1.241306	-0.451416
C35	C	-0.891158	-1.275893	-0.412903
C36	C	-0.964491	-1.272153	-0.417145
C37	C	-0.965068	-1.380561	-0.295641
C38	C	-0.891740	-1.384293	-0.291395
C39	C	-0.854789	-1.331964	-0.350029
C40	C	-0.744726	-1.286075	-0.401379
C41	C	-0.779836	-1.335792	-0.345687
C42	C	-0.079490	-1.320410	-0.363003
C43	C	-0.001443	-1.324484	-0.358520
C44	C	-0.251438	-1.325025	-0.607403
C45	C	-0.246664	-1.331065	-0.707070
C46	C	-0.252718	-0.545887	-0.359459
C47	C	-0.248472	-0.646045	-0.353448
C48	C	-0.192604	-1.399543	-0.841521
C49	C	-0.197087	-1.393872	-0.747875
C50	C	-0.291765	-1.273925	-0.759917
C51	C	-0.287282	-1.279595	-0.853563
C52	C	-0.237700	-1.342405	-0.894361
C53	C	-0.233214	-1.348071	-0.988009
C54	C	-0.327895	-1.228128	-1.000049
C55	C	-0.332378	-1.222458	-0.906403
C56	C	-0.273746	-1.296786	-0.140544
C57	C	-0.278315	-1.290931	-0.040856
H58	H	-0.171487	-0.652721	-0.244354
H59	H	-0.994104	-1.226504	-0.468359
H60	H	-0.372748	-1.171322	-0.873171
H61	H	-0.324726	-0.656852	-0.461481
O62	O	-0.179725	-1.415799	-1.032013
H63	H	-0.184173	-1.410134	-1.106009
H64	H	-0.774351	-1.240418	-0.452569
H65	H	-0.152225	-1.450676	-0.874740
O66	O	-0.851310	-1.219426	-0.476114
H67	H	-0.888926	-1.179792	-0.520531
H68	H	-0.160365	-1.440400	-0.704856
H69	H	-0.332137	-1.222795	-0.726682
H70	H	-0.364609	-1.181594	-1.043082
O71	O	-0.372676	-0.787053	-0.529430
H72	H	-0.340940	-0.748586	-0.575897
O73	O	-0.188832	-0.977888	-0.268917
H74	H	-0.161531	-0.928560	-0.230208
H75	H	-0.164251	-0.823444	-0.234122
O76	O	-0.672049	-1.177089	-0.523479
H77	H	-0.634032	-1.141335	-0.563538
O78	O	-0.519628	-1.184853	-0.514637
H79	H	-0.557240	-1.145224	-0.559062
O80	O	-0.364386	-0.982634	-0.517702
H81	H	-0.354190	-1.055786	-0.503248
H82	H	-0.530458	-1.395362	-0.278707
O83	O	-0.673256	-1.402406	-0.270925
H84	H	-0.635644	-1.442015	-0.226483
H85	H	-0.995161	-1.423165	-0.247906
O86	O	-0.852505	-1.444780	-0.223590
H87	H	-0.890520	-1.480550	-0.183544
H88	H	-0.750217	-1.381450	-0.294499
