data_functionalizedCrystal
_audit_creation_method	'MofGen! by Chris Wilmer'
_symmetry_space_group_name_H-M	'P1'
_symmetry_Int_Tables_number	1
_symmetry_cell_setting	triclinic
loop_
_symmetry_equiv_pos_as_xyz
  x,y,z
_cell_length_a	23.532361
_cell_length_b	23.532407
_cell_length_c	22.010155
_cell_angle_alpha	89.999577
_cell_angle_beta	89.995873
_cell_angle_gamma	82.839173
loop_
_atom_site_label
_atom_site_type_symbol
_atom_site_fract_x
_atom_site_fract_y
_atom_site_fract_z
O1	O	0.755281	0.069001	-0.050470
O2	O	1.088614	0.402334	0.282863
O3	O	1.421948	0.735667	0.616196
O4	O	0.589414	0.079032	-0.050486
O5	O	0.922747	0.412365	0.282848
O6	O	1.256080	0.745698	0.616181
O7	O	0.677349	-0.008916	-0.050466
O8	O	1.010682	0.324417	0.282867
O9	O	1.344016	0.657750	0.616200
O10	O	0.667346	0.156949	-0.050490
O11	O	1.000679	0.490282	0.282844
O12	O	1.334012	0.823615	0.616177
O13	O	0.677333	-0.008903	0.050584
O14	O	1.010666	0.324430	0.383917
O15	O	1.344000	0.657763	0.717251
O16	O	0.589398	0.079045	0.050565
O17	O	0.922731	0.412378	0.383898
O18	O	1.256064	0.745711	0.717231
O19	O	0.755265	0.069014	0.050580
O20	O	1.088598	0.402347	0.383913
O21	O	1.421932	0.735680	0.717247
Cu22	Cu	0.672330	0.074030	0.059799
Cu23	Cu	1.005663	0.407364	0.393132
Cu24	Cu	1.338997	0.740697	0.726466
Cu25	Cu	0.672349	0.074015	-0.059705
Cu26	Cu	1.005682	0.407348	0.273629
Cu27	Cu	1.339015	0.740682	0.606962
O28	O	0.667330	0.156962	0.050561
O29	O	1.000663	0.490295	0.383894
O30	O	1.333996	0.823628	0.717227
C31	C	0.568189	0.078787	0.000038
C32	C	0.901523	0.412120	0.333371
C33	C	1.234856	0.745454	0.666704
C34	C	0.504971	0.078032	0.000032
C35	C	0.838304	0.411365	0.333366
C36	C	1.171637	0.744698	0.666699
C37	C	0.677086	-0.030126	0.000060
C38	C	1.010420	0.303207	0.333394
C39	C	1.343753	0.636541	0.666727
C40	C	0.676320	-0.093343	0.000065
C41	C	1.009654	0.239991	0.333398
C42	C	1.342987	0.573324	0.666732
C43	C	0.231736	0.074721	-0.055046
C44	C	0.565069	0.408054	0.278287
C45	C	0.898402	0.741388	0.611620
C46	C	0.291136	0.075436	-0.055048
C47	C	0.624469	0.408769	0.278285
C48	C	0.957802	0.742103	0.611619
O49	O	0.321869	0.075780	-0.101892
O50	O	0.655202	0.409113	0.231441
O51	O	0.988535	0.742447	0.564774
N52	N	0.320832	0.075804	0.000035
N53	N	0.654166	0.409138	0.333368
N54	N	0.987499	0.742471	0.666702
C55	C	0.291127	0.075452	0.055123
C56	C	0.624461	0.408785	0.388456
C57	C	0.957794	0.742119	0.721789
O58	O	0.321841	0.075830	0.101975
O59	O	0.655175	0.409164	0.435308
O60	O	0.988508	0.742497	0.768641
C61	C	0.231729	0.074733	0.055124
C62	C	0.565063	0.408066	0.388457
C63	C	0.898396	0.741400	0.721790
C64	C	0.202035	0.074370	0.000037
C65	C	0.535368	0.407704	0.333371
C66	C	0.868701	0.741037	0.666704
C67	C	0.202041	0.074358	-0.110128
C68	C	0.535374	0.407691	0.223205
C69	C	0.868708	0.741025	0.556539
C70	C	0.142645	0.073644	-0.110126
C71	C	0.475979	0.406977	0.223207
C72	C	0.809312	0.740311	0.556540
C73	C	0.112944	0.073293	-0.055043
C74	C	0.446277	0.406627	0.278291
C75	C	0.779611	0.739960	0.611624
C76	C	0.142639	0.073657	0.000039
C77	C	0.475972	0.406990	0.333373
C78	C	0.809305	0.740323	0.666706
C79	C	0.202026	0.074376	0.110211
C80	C	0.535359	0.407710	0.443544
C81	C	0.868693	0.741043	0.776878
C82	C	0.142624	0.073657	0.110207
C83	C	0.475957	0.406990	0.443541
C84	C	0.809290	0.740323	0.776874
C85	C	0.112929	0.073294	0.055121
C86	C	0.446262	0.406628	0.388454
C87	C	0.779596	0.739961	0.721788
C88	C	0.053542	0.072592	0.055125
C89	C	0.386875	0.405925	0.388458
C90	C	0.720209	0.739259	0.721791
N91	N	0.023845	0.072224	0.000042
N92	N	0.357178	0.405557	0.333375
N93	N	0.690512	0.738890	0.666709
C94	C	0.053546	0.072574	-0.055042
C95	C	0.386879	0.405908	0.278292
C96	C	0.720213	0.739241	0.611625
C97	C	0.415868	0.076961	0.055117
C98	C	0.749201	0.410294	0.388450
C99	C	1.082534	0.743628	0.721783
C100	C	0.475264	0.077684	0.055116
C101	C	0.808597	0.411017	0.388450
C102	C	1.141931	0.744351	0.721783
C103	C	0.475268	0.077667	-0.055055
C104	C	0.808602	0.411000	0.278279
C105	C	1.141935	0.744334	0.611612
C106	C	0.415870	0.076948	-0.055054
C107	C	0.749203	0.410281	0.278280
C108	C	1.082537	0.743615	0.611613
C109	C	0.386171	0.076593	0.000034
C110	C	0.719504	0.409926	0.333367
C111	C	1.052837	0.743259	0.666701
C112	C	-0.071190	0.071076	-0.055034
C113	C	0.262144	0.404409	0.278300
C114	C	0.595477	0.737743	0.611633
C115	C	-0.130591	0.070364	-0.055027
C116	C	0.202742	0.403698	0.278306
C117	C	0.536076	0.737031	0.611640
C118	C	-0.130589	0.070378	0.055144
C119	C	0.202744	0.403712	0.388477
C120	C	0.536077	0.737045	0.721810
C121	C	-0.071194	0.071093	0.055137
C122	C	0.262140	0.404426	0.388471
C123	C	0.595473	0.737760	0.721804
C124	C	-0.041495	0.071440	0.000044
C125	C	0.291838	0.404773	0.333377
C126	C	0.625172	0.738106	0.666710
O127	O	0.022771	0.072245	0.101945
O128	O	0.356104	0.405579	0.435279
O129	O	0.689438	0.738912	0.768612
O130	O	0.022826	0.072188	-0.101886
O131	O	0.356159	0.405522	0.231448
O132	O	0.689493	0.738855	0.564781
C133	C	0.723555	-0.492454	0.000036
C134	C	1.056888	-0.159120	0.333369
C135	C	1.390222	0.174213	0.666703
C136	C	0.722844	-0.551854	0.000031
C137	C	1.056177	-0.218521	0.333365
C138	C	1.389510	0.114813	0.666698
O139	O	0.766630	-0.588606	0.000013
O140	O	1.099964	-0.255272	0.333346
O141	O	1.433297	0.078061	0.666680
N142	N	0.670566	-0.574471	0.000027
N143	N	1.003899	-0.241138	0.333360
N144	N	1.337233	0.092195	0.666694
C145	C	0.618997	-0.537685	0.000021
C146	C	0.952330	-0.204352	0.333354
C147	C	1.285663	0.128982	0.666688
O148	O	0.574465	-0.562377	0.000016
O149	O	0.907799	-0.229044	0.333349
O150	O	1.241132	0.104289	0.666683
C151	C	0.619709	-0.478286	0.000021
C152	C	0.953042	-0.144953	0.333355
C153	C	1.286375	0.188381	0.666688
C154	C	0.671990	-0.455672	0.000032
C155	C	1.005323	-0.122339	0.333365
C156	C	1.338656	0.210994	0.666699
C157	C	0.775832	-0.469839	0.000046
C158	C	1.109165	-0.136506	0.333379
C159	C	1.442498	0.196827	0.666713
C160	C	0.776543	-0.410443	0.000052
C161	C	1.109876	-0.077110	0.333385
C162	C	1.443210	0.256223	0.666718
C163	C	0.724977	-0.373662	0.000048
C164	C	1.058311	-0.040328	0.333381
C165	C	1.391644	0.293005	0.666714
C166	C	0.672701	-0.396276	0.000038
C167	C	1.006034	-0.062943	0.333371
C168	C	1.339367	0.270390	0.666704
C169	C	0.568140	-0.441501	0.000011
C170	C	0.901473	-0.108168	0.333344
C171	C	1.234807	0.225166	0.666678
C172	C	0.568857	-0.382099	0.000011
C173	C	0.902190	-0.048765	0.333344
C174	C	1.235523	0.284568	0.666678
C175	C	0.621137	-0.359485	0.000021
C176	C	0.954471	-0.026151	0.333355
C177	C	1.287804	0.307182	0.666688
C178	C	0.621847	-0.300099	0.000039
C179	C	0.955180	0.033235	0.333373
C180	C	1.288513	0.366568	0.666706
N181	N	0.674124	-0.277481	0.000044
N182	N	1.007457	0.055852	0.333377
N183	N	1.340791	0.389185	0.666710
C184	C	0.725690	-0.314263	0.000048
C185	C	1.059023	0.019071	0.333381
C186	C	1.392356	0.352404	0.666715
C187	C	0.617505	-0.662427	0.000019
C188	C	0.950839	-0.329094	0.333352
C189	C	1.284172	0.004239	0.666686
C190	C	0.616793	-0.721825	0.000023
C191	C	0.950126	-0.388492	0.333357
C192	C	1.283459	-0.055158	0.666690
C193	C	0.720640	-0.735990	0.000032
C194	C	1.053973	-0.402657	0.333366
C195	C	1.387306	-0.069323	0.666699
C196	C	0.721352	-0.676591	0.000033
C197	C	1.054685	-0.343258	0.333366
C198	C	1.388018	-0.009924	0.666699
C199	C	0.669783	-0.639810	0.000024
C200	C	1.003116	-0.306477	0.333357
C201	C	1.336449	0.026857	0.666690
C202	C	0.727179	-0.189526	0.000061
C203	C	1.060513	0.143807	0.333394
C204	C	1.393846	0.477140	0.666727
C205	C	0.727886	-0.130124	0.000069
C206	C	1.061219	0.203209	0.333402
C207	C	1.394553	0.536542	0.666736
C208	C	0.624039	-0.115965	0.000057
C209	C	0.957372	0.217369	0.333390
C210	C	1.290706	0.550702	0.666723
C211	C	0.623332	-0.175361	0.000051
C212	C	0.956665	0.157972	0.333385
C213	C	1.289999	0.491305	0.666718
C214	C	0.674907	-0.212141	0.000051
C215	C	1.008240	0.121192	0.333385
C216	C	1.341574	0.454525	0.666718
O217	O	0.578083	-0.263312	0.000055
O218	O	0.911416	0.070021	0.333389
O219	O	1.244749	0.403355	0.666722
O220	O	0.770214	-0.289562	0.000045
O221	O	1.103547	0.043771	0.333378
O222	O	1.436880	0.377104	0.666711
C223	C	0.776489	0.069258	0.000055
C224	C	1.109823	0.402592	0.333389
C225	C	1.443156	0.735925	0.666722
C226	C	0.839708	0.070014	0.000057
C227	C	1.173041	0.403347	0.333390
C228	C	1.506375	0.736680	0.666723
C229	C	0.667592	0.178171	0.000033
C230	C	1.000926	0.511505	0.333366
C231	C	1.334259	0.844838	0.666699
C232	C	0.668358	0.241388	0.000024
C233	C	1.001692	0.574721	0.333357
C234	C	1.335025	0.908055	0.666691
N235	N	0.672321	0.074041	0.143851
N236	N	1.005654	0.407374	0.477185
N237	N	1.338987	0.740708	0.810518
N238	N	0.672362	0.074000	-0.143757
N239	N	1.005696	0.407333	0.189576
N240	N	1.339029	0.740666	0.522909
C241	C	0.711289	0.035077	0.563639
C242	C	1.044622	0.368410	0.896973
C243	C	1.377955	0.701744	1.230306
C244	C	0.711291	0.035073	0.627247
C245	C	1.044625	0.368406	0.960580
C246	C	1.377958	0.701740	1.293914
O247	O	0.744400	0.001952	0.660146
O248	O	1.077734	0.335285	0.993479
O249	O	1.411067	0.668618	1.326812
N250	N	0.672349	0.074003	0.659059
N251	N	1.005682	0.407336	0.992392
N252	N	1.339015	0.740670	1.325725
C253	C	0.633397	0.112935	0.627259
C254	C	0.966730	0.446269	0.960593
C255	C	1.300063	0.779602	1.293926
O256	O	0.600272	0.146048	0.660158
O257	O	0.933606	0.479381	0.993492
O258	O	1.266939	0.812714	1.326825
C259	C	0.633392	0.112936	0.563653
C260	C	0.966725	0.446270	0.896986
C261	C	1.300058	0.779603	1.230319
C262	C	0.672341	0.074008	0.531845
C263	C	1.005674	0.407341	0.865178
C264	C	1.339008	0.740674	1.198511
C265	C	0.750235	-0.003849	0.531831
C266	C	1.083568	0.329484	0.865164
C267	C	1.416901	0.662818	1.198498
C268	C	0.750232	-0.003844	0.468228
C269	C	1.083566	0.329489	0.801561
C270	C	1.416899	0.662823	1.134895
C271	C	0.711285	0.035087	0.436433
C272	C	1.044618	0.368420	0.769766
C273	C	1.377951	0.701753	1.103100
C274	C	0.672339	0.074012	0.468241
C275	C	1.005672	0.407346	0.801575
C276	C	1.339006	0.740679	1.134908
C277	C	0.594437	0.151866	0.531855
C278	C	0.927771	0.485199	0.865188
C279	C	1.261104	0.818532	1.198521
C280	C	0.594436	0.151863	0.468244
C281	C	0.927769	0.485196	0.801577
C282	C	1.261102	0.818529	1.134911
C283	C	0.633385	0.112934	0.436436
C284	C	0.966718	0.446267	0.769769
C285	C	1.300052	0.779601	1.103102
C286	C	0.633389	0.112948	0.372843
C287	C	0.966722	0.446281	0.706177
C288	C	1.300056	0.779614	1.039510
N289	N	0.672332	0.074018	0.341032
N290	N	1.005665	0.407351	0.674365
N291	N	1.338999	0.740685	1.007698
C292	C	0.711280	0.035087	0.372827
C293	C	1.044613	0.368421	0.706160
C294	C	1.377946	0.701754	1.039493
C295	C	0.633409	0.112930	0.760837
C296	C	0.966743	0.446264	1.094170
C297	C	1.300076	0.779597	1.427504
C298	C	0.633416	0.112933	0.824442
C299	C	0.966750	0.446266	1.157776
C300	C	1.300083	0.779599	1.491109
C301	C	0.711311	0.035069	0.824426
C302	C	1.044644	0.368403	1.157759
C303	C	1.377977	0.701736	1.491092
C304	C	0.711306	0.035070	0.760819
C305	C	1.044639	0.368403	1.094153
C306	C	1.377972	0.701737	1.427486
C307	C	0.672352	0.074000	0.729025
C308	C	1.005685	0.407334	1.062359
C309	C	1.339019	0.740667	1.395692
C310	C	0.711273	0.035101	0.239255
C311	C	1.044606	0.368434	0.572589
C312	C	1.377939	0.701767	0.905922
C313	C	0.711269	0.035110	0.175646
C314	C	1.044602	0.368444	0.508980
C315	C	1.377935	0.701777	0.842313
C316	C	0.633373	0.112971	0.175669
C317	C	0.966706	0.446305	0.509002
C318	C	1.300039	0.779638	0.842335
C319	C	0.633378	0.112964	0.239272
C320	C	0.966712	0.446297	0.572605
C321	C	1.300045	0.779631	0.905938
C322	C	0.672331	0.074024	0.271064
C323	C	1.005664	0.407357	0.604397
C324	C	1.338997	0.740690	0.937730
O325	O	0.600295	0.146051	0.339904
O326	O	0.933629	0.479384	0.673237
O327	O	1.266962	0.812717	1.006571
O328	O	0.744393	0.001976	0.339920
O329	O	1.077727	0.335309	0.673253
O330	O	1.411060	0.668642	1.006587
H331	H	-0.154766	0.070071	-0.099887
H332	H	0.178567	0.403404	0.233447
H333	H	0.511901	0.736738	0.566780
H334	H	-0.047017	0.071399	0.099993
H335	H	0.286317	0.404733	0.433326
H336	H	0.619650	0.738066	0.766660
H337	H	0.226218	0.074642	-0.154986
H338	H	0.559551	0.407975	0.178347
H339	H	0.892884	0.741308	0.511680
H340	H	0.601690	0.144637	0.734954
H341	H	0.935023	0.477970	1.068287
H342	H	1.268356	0.811303	1.401620
F343	F	0.591924	0.154404	0.141820
F344	F	0.925257	0.487737	0.475154
F345	F	1.258591	0.821070	0.808487
H346	H	-0.154783	0.070095	0.099991
H347	H	0.178550	0.403428	0.433325
H348	H	0.511883	0.736762	0.766658
H349	H	0.499462	0.077952	-0.099907
H350	H	0.832795	0.411285	0.233427
H351	H	1.166128	0.744619	0.566760
H352	H	0.118445	0.073372	0.155067
H353	H	0.451778	0.406706	0.488401
H354	H	0.785112	0.740039	0.821734
H355	H	0.499435	0.077988	0.099973
H356	H	0.832769	0.411322	0.433306
H357	H	1.166102	0.744655	0.766640
H358	H	0.391689	0.076679	0.099978
H359	H	0.725022	0.410012	0.433312
H360	H	1.058356	0.743345	0.766645
H361	H	0.575509	-0.632483	0.000017
H362	H	0.908842	-0.299149	0.333350
H363	H	1.242175	0.034184	0.666684
H364	H	0.582056	-0.086007	0.000055
H365	H	0.915389	0.247327	0.333389
H366	H	1.248723	0.580660	0.666722
F367	F	-0.039590	0.071445	-0.113670
F368	F	0.293743	0.404778	0.219663
F369	F	0.627076	0.738112	0.552996
H370	H	0.118474	0.073346	-0.154983
H371	H	0.451807	0.406680	0.178350
H372	H	0.785140	0.740013	0.511683
F373	F	0.791685	-0.045279	0.434381
F374	F	1.125018	0.288054	0.767714
F375	F	1.458351	0.621387	1.101048
F376	F	0.552982	0.193298	0.565696
F377	F	0.886315	0.526631	0.899029
F378	F	1.219648	0.859964	1.232363
F379	F	0.552973	0.193298	0.434411
F380	F	0.886306	0.526631	0.767744
F381	F	1.219640	0.859964	1.101078
F382	F	0.782071	-0.228662	0.000060
F383	F	1.115404	0.104671	0.333394
F384	F	1.448738	0.438005	0.666727
H385	H	0.526862	-0.352154	0.000003
H386	H	0.860195	-0.018820	0.333336
H387	H	1.193528	0.314513	0.666669
H388	H	0.391697	0.076653	-0.099910
H389	H	0.725030	0.409986	0.233423
H390	H	1.058363	0.743319	0.566757
H391	H	0.226193	0.074670	0.155068
H392	H	0.559527	0.408003	0.488402
H393	H	0.892860	0.741336	0.821735
F394	F	0.783533	-0.106061	0.000080
F395	F	1.116866	0.227272	0.333413
F396	F	1.450199	0.560606	0.666747
F397	F	0.832188	-0.386384	0.000050
F398	F	1.165521	-0.053050	0.333383
F399	F	1.498854	0.280283	0.666716
H400	H	0.817825	-0.499782	0.000047
H401	H	1.151158	-0.166448	0.333380
H402	H	1.484492	0.166885	0.666714
H403	H	0.742988	0.003410	0.149750
H404	H	1.076321	0.336743	0.483083
H405	H	1.409655	0.670077	0.816417
H406	H	0.601668	0.144669	0.265171
H407	H	0.935001	0.478002	0.598504
H408	H	1.268334	0.811335	0.931837
H409	H	0.763923	-0.658183	0.000041
H410	H	1.097257	-0.324850	0.333374
H411	H	1.430590	0.008483	0.666707
H412	H	0.762627	-0.765949	0.000033
H413	H	1.095960	-0.432615	0.333367
H414	H	1.429294	-0.099282	0.666700
H415	H	0.743023	0.003369	0.850325
H416	H	1.076357	0.336702	1.183658
H417	H	1.409690	0.670036	1.516991
H418	H	0.574220	-0.740232	0.000025
H419	H	0.907554	-0.406898	0.333358
H420	H	1.240887	-0.073565	0.666692
F421	F	0.512495	-0.465555	-0.000003
F422	F	0.845828	-0.132222	0.333330
F423	F	1.179161	0.201112	0.666664
H424	H	0.601706	0.144638	0.850336
H425	H	0.935040	0.477971	1.183670
H426	H	1.268373	0.811304	1.517003
H427	H	0.580761	-0.193774	0.000060
H428	H	0.914094	0.139559	0.333393
H429	H	1.247427	0.472892	0.666726
H430	H	0.781951	-0.035553	0.557713
H431	H	1.115284	0.297780	0.891046
H432	H	1.448617	0.631113	1.224380
F433	F	0.752730	-0.006344	0.273081
F434	F	1.086063	0.326989	0.606414
F435	F	1.419397	0.660323	0.939748
F436	F	0.752760	-0.006363	0.726972
F437	F	1.086093	0.326970	1.060306
F438	F	1.419427	0.660303	1.393639
