data_functionalizedCrystal
_audit_creation_method	'MofGen! by Chris Wilmer'
_symmetry_space_group_name_H-M	'P1'
_symmetry_Int_Tables_number	1
_symmetry_cell_setting	triclinic
loop_
_symmetry_equiv_pos_as_xyz
  x,y,z
_cell_length_a	23.532407
_cell_length_b	10.654550
_cell_length_c	9.730223
_cell_angle_alpha	90.004253
_cell_angle_beta	89.987552
_cell_angle_gamma	96.333162
loop_
_atom_site_label
_atom_site_type_symbol
_atom_site_fract_x
_atom_site_fract_y
_atom_site_fract_z
O1	O	0.756252	-0.152439	-0.114581
O2	O	0.590532	-0.174496	-0.114520
O3	O	0.677202	0.019393	-0.114543
O4	O	0.669582	-0.346327	-0.114558
O5	O	0.677196	0.019398	0.114037
O6	O	0.590526	-0.174490	0.114060
O7	O	0.756246	-0.152434	0.113999
Zn8	Zn	0.673385	-0.163461	0.150322
Zn9	Zn	0.673393	-0.163468	-0.150842
O10	O	0.669576	-0.346322	0.114022
C11	C	0.676640	0.066175	-0.000254
C12	C	0.674966	0.205566	-0.000255
C13	C	0.569310	-0.173931	-0.000222
C14	C	0.506081	-0.172243	-0.000198
C15	C	0.777469	-0.152998	-0.000302
C16	C	0.840697	-0.154687	-0.000334
C17	C	1.107657	-0.276390	-0.000257
C18	C	1.048247	-0.274821	-0.000267
O19	O	1.012131	-0.371367	-0.000227
N20	N	1.024869	-0.159555	-0.000278
C21	C	1.060906	-0.045850	-0.000264
O22	O	1.035567	0.052338	-0.000273
C23	C	1.120315	-0.047420	-0.000245
C24	C	1.143689	-0.162694	-0.000248
C25	C	1.131031	-0.391655	-0.000259
C26	C	1.190438	-0.393223	-0.000252
C27	C	1.226470	-0.279526	-0.000243
C28	C	1.203095	-0.164262	-0.000241
C29	C	1.156351	0.066284	-0.000222
C30	C	1.215764	0.064704	-0.000201
C31	C	1.239137	-0.050570	-0.000204
C32	C	1.298534	-0.052133	-0.000225
N33	N	1.321911	-0.167400	-0.000214
C34	C	1.285879	-0.281096	-0.000223
C35	C	0.936142	-0.042561	-0.000303
C36	C	0.876734	-0.040990	-0.000333
C37	C	0.864078	-0.269962	-0.000333
C38	C	0.923488	-0.271532	-0.000313
C39	C	0.959519	-0.157828	-0.000293
C40	C	1.410637	-0.284381	-0.000209
C41	C	1.470049	-0.285939	-0.000208
C42	C	1.482700	-0.056967	-0.000200
C43	C	1.423293	-0.055409	-0.000209
C44	C	1.387262	-0.169126	-0.000209
O45	O	1.334684	0.044361	-0.000259
O46	O	1.311227	-0.379267	-0.000196
C47	C	0.670138	-0.393105	-0.000270
C48	C	0.671812	-0.532495	-0.000278
N49	N	0.673384	-0.163456	0.355858
C50	C	0.725996	0.286668	-0.000275
C51	C	0.724419	0.417639	-0.000291
C52	C	0.620779	0.386392	-0.000262
C53	C	0.622356	0.255424	-0.000256
N54	N	0.673398	-0.163464	-0.356379
C55	C	0.711775	-0.077638	0.427774
C56	C	0.711781	-0.077638	0.571656
C57	C	0.635003	-0.249286	0.571696
C58	C	0.634995	-0.249278	0.427815
H59	H	1.489077	-0.379813	-0.000211
H60	H	0.765973	0.483668	-0.000309
H61	H	0.743033	-0.007754	0.369189
N62	N	0.975006	0.080081	-0.000311
H63	H	0.999926	0.084549	0.084430
H64	H	0.951139	0.153264	-0.000376
H65	H	0.580798	0.189386	-0.000244
H66	H	0.743041	-0.007756	0.630206
N67	N	0.593600	-0.341848	0.649307
H68	H	0.599430	-0.328834	0.751368
H69	H	0.600524	-0.430860	0.624136
H70	H	0.603730	-0.319162	0.369258
N71	N	0.851524	0.083337	-0.000333
H72	H	0.827167	0.089098	-0.085070
H73	H	0.883401	0.155048	-0.000272
N74	N	0.564037	0.440168	-0.000257
H75	H	0.570780	0.535443	-0.000260
H76	H	0.541682	0.410459	0.084488
H77	H	1.381308	-0.376980	-0.000205
N78	N	1.215641	-0.517557	-0.000222
H79	H	1.258745	-0.501317	-0.000208
H80	H	1.202502	-0.567286	-0.084957
N81	N	1.092188	-0.514315	-0.000213
H82	H	1.099776	-0.564658	-0.084931
H83	H	1.051014	-0.495782	-0.000157
N84	N	0.948696	-0.395861	-0.000321
H85	H	0.916850	-0.467642	-0.000335
H86	H	0.973056	-0.401508	0.084424
N87	N	0.825209	-0.392597	-0.000342
H88	H	0.784028	-0.374101	-0.000349
H89	H	0.832817	-0.442861	0.084399
N90	N	0.782738	0.232896	-0.000280
H91	H	0.785707	0.179239	-0.085008
H92	H	0.785664	0.179329	0.084517
N93	N	1.131150	0.190617	-0.000212
H94	H	1.162999	0.262392	-0.000192
H95	H	1.106769	0.196255	0.084525
N96	N	1.254622	0.187351	-0.000173
H97	H	1.247059	0.237675	-0.084905
H98	H	1.295790	0.168774	-0.000112
N99	N	1.398078	0.068918	-0.000231
H100	H	1.429921	0.140705	-0.000232
H101	H	1.373697	0.074563	0.084507
H102	H	1.512047	0.035601	-0.000198
