data_functionalizedCrystal
_audit_creation_method	'MofGen! by Chris Wilmer'
_symmetry_space_group_name_H-M	'P1'
_symmetry_Int_Tables_number	1
_symmetry_cell_setting	triclinic
loop_
_symmetry_equiv_pos_as_xyz
  x,y,z
_cell_length_a	17.000383
_cell_length_b	17.019294
_cell_length_c	9.016244
_cell_angle_alpha	86.118789
_cell_angle_beta	89.989650
_cell_angle_gamma	79.506204
loop_
_atom_site_label
_atom_site_type_symbol
_atom_site_fract_x
_atom_site_fract_y
_atom_site_fract_z
O1	O	1.056072	0.028433	-0.127073
O2	O	0.824307	0.057063	-0.130709
O3	O	0.946654	-0.072533	-0.114161
O4	O	0.933724	0.158029	-0.143621
O5	O	0.946636	-0.072528	0.132519
O6	O	0.824289	0.057067	0.115971
O7	O	1.056054	0.028437	0.119607
Cu8	Cu	0.940170	0.042753	0.140313
Cu9	Cu	0.940191	0.042748	-0.151415
O10	O	0.933706	0.158033	0.103059
C11	C	0.794643	0.058603	-0.007563
C12	C	0.706279	0.063175	-0.008139
C13	C	0.206029	0.092699	-0.011967
C14	C	0.289057	0.088396	-0.011416
C15	C	0.340136	0.013720	-0.001863
C16	C	0.308184	-0.056658	0.007125
C17	C	0.225157	-0.052355	0.006563
C18	C	0.591300	-0.002900	0.000287
C19	C	0.674332	-0.007198	0.000852
C20	C	0.655199	0.137857	-0.017691
C21	C	0.572172	0.142153	-0.018243
C22	C	0.540227	0.071775	-0.009263
C23	C	0.425004	0.009321	-0.001295
C24	C	0.455360	0.076175	-0.009842
C25	C	0.946155	-0.101886	0.012927
C26	C	0.944684	-0.189354	0.024095
C27	C	0.944004	-0.230444	-0.105123
C28	C	0.942616	-0.312629	-0.094626
C29	C	0.941914	-0.353722	0.045091
C30	C	0.942592	-0.312626	0.174319
C31	C	0.943973	-0.230441	0.163820
C32	C	0.937736	-0.601865	0.083519
C33	C	0.936357	-0.684055	0.094008
C34	C	0.936380	-0.684052	-0.174937
C35	C	0.937767	-0.601868	-0.185424
C36	C	0.938440	-0.560777	-0.056197
C37	C	0.940498	-0.437729	0.055825
C38	C	0.939850	-0.476771	-0.066932
C39	C	1.085718	0.026898	-0.003542
C40	C	1.174082	0.022326	-0.002976
C41	C	0.934206	0.187386	-0.024032
C42	C	0.935677	0.274854	-0.035210
N43	N	0.940161	0.042755	0.345499
N44	N	0.940206	0.042739	-0.356600
C45	C	0.874516	0.111880	0.571705
C46	C	0.874658	0.112109	0.399784
C47	C	1.023198	0.054975	0.406268
C48	C	1.022839	0.055456	0.578151
C49	C	0.923596	-0.038864	0.590473
C50	C	0.921681	-0.038177	0.418432
H51	H	0.199148	-0.109660	0.013882
N52	N	0.944708	-0.186113	0.303183
H53	H	0.895143	-0.190601	0.362549
H54	H	0.993816	-0.210250	0.364935
H55	H	1.073242	0.006774	0.625950
H56	H	0.164445	0.153508	-0.019735
H57	H	1.037489	0.114793	0.610657
H58	H	0.885250	0.172787	0.350883
H59	H	1.038197	0.113601	0.355697
H60	H	0.413768	0.136976	-0.017627
H61	H	0.812932	0.105678	0.358468
H62	H	0.466602	-0.051480	0.006488
N63	N	0.944768	-0.186126	-0.255819
H64	H	0.944126	-0.224630	-0.336084
H65	H	0.896021	-0.142212	-0.267285
N66	N	0.517124	0.222721	-0.028515
H67	H	0.482249	0.227778	-0.120595
H68	H	0.482300	0.227703	0.062365
H69	H	0.939929	-0.471197	0.169583
N70	N	0.792490	0.103621	0.627595
H71	H	0.797112	0.054982	0.699937
H72	H	0.768433	0.153073	0.679237
N73	N	0.941998	-0.356972	-0.233992
H74	H	0.942696	-0.318477	-0.324094
H75	H	0.990785	-0.400848	-0.234092
N76	N	0.888378	0.191816	0.618625
H77	H	0.937021	0.183435	0.686130
H78	H	0.897306	0.226954	0.527657
N79	N	0.689654	0.213761	-0.027382
H80	H	0.750001	0.199707	-0.025579
H81	H	0.670976	0.246177	-0.122979
H82	H	0.966421	-0.091592	0.382277
H83	H	0.935831	-0.717517	-0.280147
H84	H	0.315063	0.145701	-0.018752
N85	N	0.941844	-0.356946	0.325016
H86	H	0.891955	-0.381238	0.334126
H87	H	0.990629	-0.400815	0.336506
N88	N	1.089489	-0.010272	0.360436
H89	H	1.066275	-0.048471	0.299690
H90	H	1.129526	0.014435	0.298950
H91	H	0.938340	-0.568415	-0.299196
H92	H	0.715920	-0.068011	0.008624
N93	N	0.935602	-0.728381	0.244710
H94	H	0.936237	-0.689880	0.324983
H95	H	0.885709	-0.752670	0.253664
H96	H	0.940416	-0.443308	-0.180689
H97	H	0.864370	-0.052046	0.635611
N98	N	0.840744	-0.050615	0.366168
H99	H	0.816147	-0.004028	0.295530
H100	H	0.847144	-0.101875	0.313490
H101	H	0.938300	-0.568422	0.188746
N102	N	0.987040	-0.106940	0.653009
H103	H	1.041327	-0.098393	0.617109
H104	H	0.986174	-0.108790	0.765186
N105	N	0.556849	-0.078804	0.009989
H106	H	0.575498	-0.111267	-0.077298
H107	H	0.575477	-0.111188	0.105642
N108	N	0.363272	-0.137203	0.017422
H109	H	0.420717	-0.129252	0.016420
H110	H	0.352919	-0.168116	0.112821
