data_functionalizedCrystal
_audit_creation_method	'MofGen! by Chris Wilmer'
_symmetry_space_group_name_H-M	'P1'
_symmetry_Int_Tables_number	1
_symmetry_cell_setting	triclinic
loop_
_symmetry_equiv_pos_as_xyz
  x,y,z
_cell_length_a	19.188930
_cell_length_b	19.188924
_cell_length_c	16.776229
_cell_angle_alpha	89.991276
_cell_angle_beta	89.978976
_cell_angle_gamma	83.143372
loop_
_atom_site_label
_atom_site_type_symbol
_atom_site_fract_x
_atom_site_fract_y
_atom_site_fract_z
O1	O	0.926145	0.087170	-0.066548
O2	O	1.259478	0.420503	0.266785
O3	O	1.592812	0.753836	0.600119
O4	O	0.722834	0.098904	-0.066494
O5	O	1.056167	0.432237	0.266839
O6	O	1.389500	0.765571	0.600173
O7	O	0.830359	-0.008619	-0.066513
O8	O	1.163692	0.324714	0.266820
O9	O	1.497026	0.658047	0.600154
O10	O	0.818620	0.194693	-0.066529
O11	O	1.151953	0.528026	0.266805
O12	O	1.485286	0.861359	0.600138
O13	O	0.830345	-0.008626	0.066063
O14	O	1.163678	0.324707	0.399397
O15	O	1.497011	0.658041	0.732730
O16	O	0.722819	0.098897	0.066083
O17	O	1.056153	0.432231	0.399416
O18	O	1.389486	0.765564	0.732749
O19	O	0.926131	0.087163	0.066028
O20	O	1.259464	0.420496	0.399362
O21	O	1.592798	0.753830	0.732695
Zn22	Zn	0.824473	0.093029	0.087105
Zn23	Zn	1.157806	0.426362	0.420438
Zn24	Zn	1.491140	0.759696	0.753772
Zn25	Zn	0.824492	0.093038	-0.087570
Zn26	Zn	1.157825	0.426371	0.245763
Zn27	Zn	1.491158	0.759704	0.579096
O28	O	0.818606	0.194686	0.066048
O29	O	1.151939	0.528019	0.399381
O30	O	1.485272	0.861353	0.732714
C31	C	0.696815	0.098521	-0.000199
C32	C	1.030149	0.431854	0.333135
C33	C	1.363482	0.765187	0.666468
C34	C	0.619311	0.097380	-0.000178
C35	C	0.952644	0.430713	0.333156
C36	C	1.285978	0.764047	0.666489
C37	C	0.574386	0.160471	-0.000195
C38	C	0.907719	0.493804	0.333138
C39	C	1.241052	0.827138	0.666472
C40	C	0.501562	0.159399	-0.000204
C41	C	0.834895	0.492733	0.333130
C42	C	1.168228	0.826066	0.666463
C43	C	0.473667	0.095233	-0.000211
C44	C	0.807000	0.428566	0.333122
C45	C	1.140333	0.761900	0.666456
C46	C	0.518602	0.032134	-0.000189
C47	C	0.851935	0.365467	0.333144
C48	C	1.185269	0.698800	0.666478
C49	C	0.591424	0.033207	-0.000172
C50	C	0.924758	0.366540	0.333161
C51	C	1.258091	0.699874	0.666494
N52	N	0.365693	0.046188	-0.045361
N53	N	0.699026	0.379521	0.287973
N54	N	1.032359	0.712855	0.621306
N55	N	0.296514	0.045173	-0.045378
N56	N	0.629847	0.378506	0.287955
N57	N	0.963181	0.711839	0.621288
C58	C	0.254258	0.091995	-0.000259
C59	C	0.587592	0.425328	0.333074
C60	C	0.920925	0.758661	0.666407
N61	N	0.283793	0.139881	0.044868
N62	N	0.617126	0.473215	0.378201
N63	N	0.950460	0.806548	0.711534
N64	N	0.352978	0.140899	0.044882
N65	N	0.686311	0.474232	0.378215
N66	N	1.019644	0.807566	0.711548
C67	C	0.394704	0.094062	-0.000228
C68	C	0.728038	0.427395	0.333105
C69	C	1.061371	0.760729	0.666438
C70	C	0.130368	0.153928	-0.000285
C71	C	0.463702	0.487262	0.333048
C72	C	0.797035	0.820595	0.666382
C73	C	0.057543	0.152854	-0.000289
C74	C	0.390877	0.486187	0.333044
C75	C	0.724210	0.819521	0.666378
C76	C	0.074585	0.025586	-0.000282
C77	C	0.407919	0.358920	0.333051
C78	C	0.741252	0.692253	0.666384
C79	C	0.147409	0.026663	-0.000271
C80	C	0.480742	0.359996	0.333063
C81	C	0.814075	0.693329	0.666396
C82	C	0.175295	0.090835	-0.000276
C83	C	0.508629	0.424169	0.333058
C84	C	0.841962	0.757502	0.666391
C85	C	0.829973	-0.034634	-0.000224
C86	C	1.163306	0.298700	0.333109
C87	C	1.496639	0.632033	0.666443
C88	C	0.828834	-0.112138	-0.000222
C89	C	1.162167	0.221195	0.333112
C90	C	1.495500	0.554528	0.666445
C91	C	0.828310	-0.148534	-0.072489
C92	C	1.161643	0.184800	0.260844
C93	C	1.494977	0.518133	0.594178
C94	C	0.827230	-0.221356	-0.072495
C95	C	1.160563	0.111977	0.260838
C96	C	1.493897	0.445310	0.594172
C97	C	0.826688	-0.257783	-0.000229
C98	C	1.160021	0.075550	0.333104
C99	C	1.493355	0.408884	0.666438
C100	C	0.827208	-0.221378	0.072048
C101	C	1.160541	0.111955	0.405381
C102	C	1.493875	0.445288	0.738715
C103	C	0.828281	-0.148556	0.072052
C104	C	1.161614	0.184777	0.405385
C105	C	1.494947	0.518111	0.738718
N106	N	0.864730	-0.377449	0.053546
N107	N	1.198063	-0.044115	0.386880
N108	N	1.531397	0.289218	0.720213
N109	N	0.863712	-0.446627	0.053538
N110	N	1.197046	-0.113294	0.386871
N111	N	1.530379	0.220040	0.720205
C112	C	0.823454	-0.477192	-0.000236
C113	C	1.156787	-0.143859	0.333097
C114	C	1.490121	0.189475	0.666431
N115	N	0.784260	-0.435967	-0.054013
N116	N	1.117594	-0.102633	0.279320
N117	N	1.450927	0.230700	0.612654
N118	N	0.785281	-0.366782	-0.054007
N119	N	1.118615	-0.033449	0.279326
N120	N	1.451948	0.299884	0.612660
C121	C	0.825524	-0.336746	-0.000225
C122	C	1.158858	-0.003413	0.333108
C123	C	1.492191	0.329920	0.666442
C124	C	0.821758	-0.592550	-0.072515
C125	C	1.155092	-0.259217	0.260819
C126	C	1.488425	0.074117	0.594152
C127	C	0.820674	-0.665373	-0.072517
C128	C	1.154007	-0.332040	0.260816
C129	C	1.487341	0.001293	0.594149
C130	C	0.820659	-0.665395	0.072028
C131	C	1.153992	-0.332061	0.405361
C132	C	1.487325	0.001272	0.738694
C133	C	0.821736	-0.592572	0.072028
C134	C	1.155069	-0.259238	0.405362
C135	C	1.488403	0.074095	0.738695
C136	C	0.822289	-0.556154	-0.000245
C137	C	1.155622	-0.222821	0.333088
C138	C	1.488956	0.110512	0.666422
C139	C	0.952149	0.087546	-0.000269
C140	C	1.285482	0.420880	0.333065
C141	C	1.618816	0.754213	0.666398
C142	C	1.029654	0.088687	-0.000295
C143	C	1.362987	0.422020	0.333039
C144	C	1.696320	0.755354	0.666372
C145	C	0.818992	0.220700	-0.000243
C146	C	1.152325	0.554034	0.333090
C147	C	1.485659	0.887367	0.666424
C148	C	0.820131	0.298205	-0.000251
C149	C	1.153464	0.631539	0.333083
C150	C	1.486797	0.964872	0.666416
N151	N	0.824465	0.093023	0.206316
N152	N	1.157799	0.426356	0.539650
N153	N	1.491132	0.759689	0.872983
N154	N	0.824505	0.093039	-0.206782
N155	N	1.157838	0.426372	0.126552
N156	N	1.491172	0.759705	0.459885
C157	C	0.872092	0.045431	0.248025
C158	C	1.205425	0.378764	0.581358
C159	C	1.538759	0.712098	0.914691
C160	C	0.872096	0.045430	0.331477
C161	C	1.205429	0.378764	0.664810
C162	C	1.538762	0.712097	0.998144
C163	C	0.824476	0.093025	0.373219
C164	C	1.157809	0.426359	0.706552
C165	C	1.491142	0.759692	1.039886
C166	C	0.776844	0.140620	0.331505
C167	C	1.110177	0.473953	0.664838
C168	C	1.443511	0.807286	0.998171
C169	C	0.776837	0.140616	0.248054
C170	C	1.110171	0.473950	0.581387
C171	C	1.443504	0.807283	0.914721
C172	C	0.776869	0.140633	0.668052
C173	C	1.110203	0.473967	1.001385
C174	C	1.443536	0.807300	1.334719
C175	C	0.776881	0.140634	0.751508
C176	C	1.110214	0.473968	1.084842
C177	C	1.443548	0.807301	1.418175
C178	C	0.872128	0.045447	0.751475
C179	C	1.205461	0.378781	1.084808
C180	C	1.538794	0.712114	1.418141
C181	C	0.872121	0.045444	0.668024
C182	C	1.205454	0.378777	1.001357
C183	C	1.538788	0.712111	1.334691
C184	C	0.824487	0.093035	0.626317
C185	C	1.157820	0.426369	0.959650
C186	C	1.491154	0.759702	1.292984
C187	C	0.824483	0.093034	0.535829
C188	C	1.157816	0.426368	0.869162
C189	C	1.491149	0.759701	1.202495
C190	C	0.824483	0.093030	0.463706
C191	C	1.157816	0.426363	0.797039
C192	C	1.491150	0.759697	1.130373
H193	H	0.020965	0.204232	-0.000298
H194	H	0.354298	0.537566	0.333035
H195	H	0.687632	0.870899	0.666368
H196	H	0.738054	0.179369	0.214096
H197	H	1.071387	0.512703	0.547429
H198	H	1.404721	0.846036	0.880762
H199	H	0.826764	-0.251041	0.130887
H200	H	1.160098	0.082292	0.464221
H201	H	1.493431	0.415626	0.797554
H202	H	0.910912	0.006694	0.785442
H203	H	1.244245	0.340027	1.118775
H204	H	1.577578	0.673360	1.452108
H205	H	0.738085	0.179385	0.634100
H206	H	1.071419	0.512718	0.967434
H207	H	1.404752	0.846052	1.300767
H208	H	0.051874	-0.026659	-0.000338
H209	H	0.385208	0.306674	0.332996
H210	H	0.718541	0.640008	0.666329
H211	H	0.183988	-0.024713	-0.000261
H212	H	0.517322	0.308620	0.333073
H213	H	0.850655	0.641953	0.666406
H214	H	0.738067	0.179370	0.365496
H215	H	1.071401	0.512703	0.698829
H216	H	1.404734	0.846037	1.032163
H217	H	0.820212	-0.695052	0.130868
H218	H	1.153545	-0.361718	0.464201
H219	H	1.486879	-0.028385	0.797535
H220	H	0.597086	0.212725	-0.000201
H221	H	0.930419	0.546059	0.333133
H222	H	1.263752	0.879392	0.666466
H223	H	0.910900	0.006690	0.634040
H224	H	1.244233	0.340023	0.967374
H225	H	1.577566	0.673357	1.300707
H226	H	0.464976	0.210777	-0.000216
H227	H	0.798310	0.544111	0.333118
H228	H	1.131643	0.877444	0.666451
H229	H	0.153075	0.206181	-0.000278
H230	H	0.486408	0.539515	0.333056
H231	H	0.819741	0.872848	0.666389
H232	H	0.738100	0.179393	0.785493
H233	H	1.071434	0.512727	1.118827
H234	H	1.404767	0.846060	1.452160
H235	H	0.628003	-0.018171	-0.000159
H236	H	0.961337	0.315162	0.333175
H237	H	1.294670	0.648496	0.666508
H238	H	0.495885	-0.020111	-0.000206
H239	H	0.829219	0.313222	0.333127
H240	H	1.162552	0.646556	0.666461
H241	H	0.828758	-0.118887	-0.131340
H242	H	1.162092	0.214447	0.201994
H243	H	1.495425	0.547780	0.535327
H244	H	0.826799	-0.250995	-0.131346
H245	H	1.160133	0.082339	0.201988
H246	H	1.493466	0.415672	0.535321
H247	H	0.828704	-0.118923	0.130902
H248	H	1.162038	0.214410	0.464236
H249	H	1.495371	0.547744	0.797569
H250	H	0.822204	-0.562897	-0.131364
H251	H	1.155538	-0.229563	0.201970
H252	H	1.488871	0.103770	0.535303
H253	H	0.820244	-0.695005	-0.131369
H254	H	1.153577	-0.361671	0.201965
H255	H	1.486911	-0.028338	0.535298
H256	H	0.822168	-0.562939	0.130876
H257	H	1.155502	-0.229606	0.464210
H258	H	1.488835	0.103727	0.797543
H259	H	0.910872	0.006676	0.214044
H260	H	1.244206	0.340010	0.547377
H261	H	1.577539	0.673343	0.880710
H262	H	0.910876	0.006677	0.365436
H263	H	1.244210	0.340010	0.698769
H264	H	1.577543	0.673344	1.032102
