data_functionalizedCrystal
_audit_creation_method	'MofGen! by Chris Wilmer'
_symmetry_space_group_name_H-M	'P1'
_symmetry_Int_Tables_number	1
_symmetry_cell_setting	triclinic
loop_
_symmetry_equiv_pos_as_xyz
  x,y,z
_cell_length_a	16.109301
_cell_length_b	13.262508
_cell_length_c	15.186229
_cell_angle_alpha	105.914579
_cell_angle_beta	89.999362
_cell_angle_gamma	83.966579
loop_
_atom_site_label
_atom_site_type_symbol
_atom_site_fract_x
_atom_site_fract_y
_atom_site_fract_z
O1	O	1.103625	0.134909	-0.040859
O2	O	0.861625	0.151698	-0.036852
O3	O	0.988715	-0.009487	-0.075446
O4	O	0.976535	0.296094	-0.002265
O5	O	0.988706	-0.009490	0.071011
O6	O	0.861616	0.151696	0.109605
O7	O	1.103617	0.134906	0.105598
Zn8	Zn	0.982615	0.143301	0.130855
Zn9	Zn	0.982626	0.143304	-0.062109
O10	O	0.976527	0.296092	0.144192
C11	C	0.830643	0.151017	0.036212
C12	C	0.738340	0.148978	0.035718
C13	C	0.516401	0.239881	0.057498
C14	C	0.429673	0.237957	0.057043
C15	C	0.448847	0.046716	0.011241
C16	C	0.535573	0.048641	0.011702
C17	C	0.569347	0.145227	0.034828
C18	C	0.395894	0.141378	0.033911
C19	C	0.301860	0.139291	0.033417
C20	C	0.663387	0.147314	0.035323
C21	C	0.988028	-0.048591	-0.011584
C22	C	0.985986	-0.165106	-0.039494
C23	C	0.980207	-0.493559	0.201179
C24	C	0.982119	-0.384087	0.227402
C25	C	0.983086	-0.329336	0.160681
C26	C	0.982140	-0.384068	0.067731
C27	C	0.980221	-0.493550	0.041506
C28	C	0.983101	-0.329327	0.001007
C29	C	0.982155	-0.384060	-0.091942
C30	C	0.980237	-0.493531	-0.118164
C31	C	0.979270	-0.548281	-0.051442
C32	C	0.985020	-0.219846	0.027233
C33	C	0.985034	-0.219837	-0.132441
C34	C	0.983122	-0.329309	-0.158664
C35	C	1.134598	0.135588	0.032532
C36	C	1.226901	0.137627	0.033020
C37	C	0.977213	0.335196	0.080328
C38	C	0.979255	0.451710	0.108232
N39	N	0.982613	0.143298	0.262547
N40	N	0.982634	0.143298	-0.193803
C41	C	1.038908	0.071949	0.471186
C42	C	1.038911	0.071947	0.563375
C43	C	0.926334	0.214650	0.597553
C44	C	0.926328	0.214647	0.505364
C45	C	0.982620	0.143297	0.442183
C46	C	0.982628	0.143298	0.626561
C47	C	0.982631	0.143296	0.726517
C48	C	0.982616	0.143298	0.342221
H49	H	0.985782	-0.175292	0.102913
Cl50	Cl	1.109672	-0.017751	0.391761
H51	H	0.979459	-0.538090	-0.193849
Cl52	Cl	0.981935	-0.398128	-0.275512
Cl53	Cl	1.109675	-0.017754	0.599831
Cl54	Cl	0.855573	0.304346	0.676984
H55	H	0.979413	-0.538145	0.255494
Cl56	Cl	0.986233	-0.151013	-0.216325
Cl57	Cl	0.976865	-0.685910	-0.084405
H58	H	0.880487	0.272748	0.481750
H59	H	0.543897	0.318527	0.076335
H60	H	0.421337	-0.031921	-0.007582
Cl61	Cl	0.602139	-0.070363	-0.016794
Cl62	Cl	0.363116	0.356957	0.085546
Cl63	Cl	0.985488	-0.191712	0.193649
H64	H	0.982898	-0.339533	0.303081
