data_functionalizedCrystal
_audit_creation_method	'MofGen! by Chris Wilmer'
_symmetry_space_group_name_H-M	'P1'
_symmetry_Int_Tables_number	1
_symmetry_cell_setting	triclinic
loop_
_symmetry_equiv_pos_as_xyz
  x,y,z
_cell_length_a	12.645331
_cell_length_b	18.215404
_cell_length_c	18.215399
_cell_angle_alpha	89.972067
_cell_angle_beta	90.014731
_cell_angle_gamma	89.975766
loop_
_atom_site_label
_atom_site_type_symbol
_atom_site_fract_x
_atom_site_fract_y
_atom_site_fract_z
Zn1	Zn	1.620652	0.292981	0.416027
Zn2	Zn	1.620525	0.416053	0.292962
Zn3	Zn	1.443376	0.293006	0.292985
Zn4	Zn	1.443329	0.416011	0.415997
O5	O	1.531970	0.354513	0.354493
O6	O	1.768982	0.309314	0.399706
O7	O	1.596992	0.399758	0.189981
O8	O	1.466965	0.190018	0.309329
O9	O	1.768889	0.399734	0.309290
O10	O	1.597209	0.190000	0.399728
O11	O	1.466842	0.309356	0.189997
O12	O	1.295023	0.309315	0.309299
O13	O	1.466885	0.399663	0.518985
O14	O	1.294988	0.399687	0.399676
O15	O	1.597163	0.309273	0.519008
O16	O	1.596946	0.519032	0.309261
O17	O	1.466761	0.519001	0.399654
C18	C	1.256541	0.354500	0.354487
C19	C	1.138711	0.354512	0.354502
C20	C	1.093842	0.411462	0.411275
C21	C	0.971282	0.411696	0.411106
C22	C	0.970760	0.375224	0.276848
C23	C	1.093358	0.375627	0.277177
C24	C	1.093575	0.276730	0.374704
C25	C	0.970969	0.277159	0.376414
C26	C	1.531864	0.545719	0.354467
C27	C	1.531915	0.627518	0.354481
C28	C	1.599866	0.815703	0.307510
C29	C	1.599916	0.892562	0.307532
C30	C	1.464237	0.892570	0.401581
C31	C	1.464194	0.815713	0.401562
C32	C	1.532007	0.777281	0.354523
C33	C	1.532100	0.930997	0.354563
C34	C	1.532153	1.014331	0.354587
C35	C	1.531955	0.693942	0.354499
C36	C	1.808476	0.354526	0.354499
C37	C	1.926306	0.354532	0.354502
C38	C	1.532033	0.354460	0.546446
C39	C	1.532059	0.354438	0.628245
C40	C	1.532113	1.162560	0.354548
C41	C	1.532191	1.080761	0.354605
C42	C	1.531969	0.354511	0.163287
C43	C	1.532148	0.354326	0.081488
C44	C	1.599934	0.307309	0.893315
C45	C	1.599922	0.307329	0.816456
C46	C	1.464270	0.401461	0.816423
C47	C	1.464289	0.401444	0.893280
C48	C	1.532119	0.354364	0.931724
C49	C	1.532088	0.354401	0.778008
C50	C	1.532074	0.354423	0.694675
C51	C	1.532135	0.354343	1.015063
H52	H	1.123039	0.335919	0.233426
H53	H	1.655144	0.269012	0.785187
O54	O	1.673080	0.256521	0.934778
H55	H	1.661689	0.264403	0.994675
H56	H	0.940355	0.232490	0.338112
H57	H	1.655175	0.923842	0.269251
H58	H	1.409044	0.439791	0.785112
O59	O	1.391136	0.452194	0.934716
H60	H	1.343953	0.484925	0.895073
O61	O	1.673031	0.774255	0.256791
H62	H	1.661602	0.714355	0.264674
O63	O	0.931456	0.394591	0.487358
H64	H	0.999764	0.386081	0.524688
H65	H	1.409024	0.923870	0.439878
H66	H	1.123358	0.398702	0.469023
H67	H	0.941627	0.335018	0.233386
O68	O	1.390998	0.774269	0.452275
H69	H	1.402371	0.714369	0.444365
O70	O	1.134583	0.487379	0.393732
H71	H	1.222265	0.487452	0.396561
O72	O	0.932368	0.488043	0.393335
H73	H	1.001116	0.524940	0.384822
H74	H	0.940023	0.431454	0.259483
O75	O	1.131200	0.450927	0.254567
H76	H	1.061935	0.486713	0.243505
O77	O	1.134575	0.251674	0.448444
H78	H	1.187584	0.294388	0.471519
H79	H	1.122593	0.234303	0.333358
H80	H	0.941919	0.261549	0.433563
