data_functionalizedCrystal
_audit_creation_method	'MofGen! by Chris Wilmer'
_symmetry_space_group_name_H-M	'P1'
_symmetry_Int_Tables_number	1
_symmetry_cell_setting	triclinic
loop_
_symmetry_equiv_pos_as_xyz
  x,y,z
_cell_length_a	19.121424
_cell_length_b	19.121063
_cell_length_c	12.827885
_cell_angle_alpha	87.596033
_cell_angle_beta	87.587616
_cell_angle_gamma	94.804615
loop_
_atom_site_label
_atom_site_type_symbol
_atom_site_fract_x
_atom_site_fract_y
_atom_site_fract_z
Zn1	Zn	1.063722	-0.234165	0.538428
Zn2	Zn	1.058605	-0.351851	0.371458
Zn3	Zn	0.946053	-0.239223	0.371459
Zn4	Zn	0.941002	-0.356819	0.553906
O5	O	1.002345	-0.295515	0.458813
O6	O	1.161505	-0.245581	0.509801
O7	O	1.043648	-0.336948	0.225226
O8	O	0.965917	-0.140087	0.387131
O9	O	1.157746	-0.332043	0.387129
O10	O	1.052368	-0.136371	0.509802
O11	O	0.960956	-0.254201	0.225227
O12	O	0.846921	-0.259019	0.402139
O13	O	0.957308	-0.340512	0.698085
O14	O	0.843210	-0.345416	0.536182
O15	O	1.047470	-0.250398	0.686713
O16	O	1.038750	-0.450976	0.402137
O17	O	0.952347	-0.454626	0.536181
C18	C	0.819535	-0.303306	0.470841
C19	C	0.741328	-0.306656	0.476013
C20	C	0.298905	-0.327840	0.508840
C21	C	0.372389	-0.324698	0.503962
C22	C	0.411044	-0.278072	0.431840
C23	C	0.376210	-0.234591	0.364585
C24	C	0.302727	-0.237737	0.369459
C25	C	0.633011	-0.266321	0.413632
C26	C	0.706499	-0.263176	0.408765
C27	C	0.702673	-0.353285	0.548141
C28	C	0.629189	-0.356424	0.553013
C29	C	0.594361	-0.312946	0.485755
C30	C	0.486157	-0.274857	0.426854
C31	C	0.519250	-0.316164	0.490737
C32	C	0.994464	-0.478331	0.470860
C33	C	0.991157	-0.556538	0.476045
C34	C	1.034623	-0.591354	0.408744
C35	C	1.031517	-0.664838	0.413626
C36	C	0.984940	-0.703504	0.485804
C37	C	0.941471	-0.668683	0.553112
C38	C	0.944582	-0.595200	0.548234
C39	C	0.973299	-0.925470	0.504025
C40	C	0.970190	-0.998957	0.508896
C41	C	1.060237	-0.995107	0.369410
C42	C	1.063340	-0.921624	0.364535
C43	C	1.019875	-0.886809	0.431846
C44	C	0.981762	-0.778616	0.490794
C45	C	1.023057	-0.811698	0.426861
C46	C	1.185869	-0.287693	0.446738
C47	C	1.264076	-0.284361	0.441592
C48	C	1.002396	-0.295445	0.731375
C49	C	1.002418	-0.295415	0.847525
C50	C	1.010277	-0.111984	0.446740
C51	C	1.013657	-0.033774	0.441595
C52	C	1.002338	-0.295531	0.187304
C53	C	1.002461	-0.295357	0.071133
C54	C	1.047038	-0.250816	0.893682
C55	C	1.047061	-0.250784	1.013729
H56	H	0.597721	-0.394394	0.611741
O57	O	1.073293	-0.769994	0.349018
H58	H	1.103002	-0.806545	0.303037
H59	H	1.072548	-0.559877	0.349964
H60	H	1.085219	-0.212654	0.844324
O61	O	1.097655	-0.200190	1.066322
H62	H	1.089725	-0.208095	1.152358
O63	O	0.951843	-0.345936	1.018555
H64	H	0.981798	-0.380379	0.969099
O65	O	0.951831	-0.345960	0.912895
H66	H	0.961488	-0.400691	0.894847
O67	O	1.078393	-0.702393	0.341033
H68	H	1.111296	-0.663161	0.290013
H69	H	0.604663	-0.230920	0.358861
O70	O	0.257212	-0.378179	0.586559
H71	H	0.293778	-0.407907	0.632468
O72	O	0.265151	-0.190855	0.296916
H73	H	0.233216	-0.156532	0.343628
H74	H	0.903551	-0.700170	0.611886
O75	O	0.477588	-0.366474	0.568523
H76	H	0.445482	-0.336478	0.621942
O77	O	0.409958	-0.371587	0.576501
H78	H	0.370734	-0.404529	0.627482
H79	H	0.737970	-0.225199	0.350042
O80	O	0.740235	-0.400170	0.620695
H81	H	0.797826	-0.390151	0.605194
H82	H	0.407688	-0.196630	0.305857
H83	H	1.101267	-0.890143	0.305762
O84	O	0.527847	-0.224564	0.349068
H85	H	0.562880	-0.187371	0.391357
H86	H	1.095625	-1.023462	0.314611
O87	O	0.919957	-1.040666	0.586756
H88	H	0.890260	-1.004112	0.632751
O89	O	0.926397	-0.887935	0.576603
H90	H	0.937823	-0.901477	0.658779
O91	O	0.897693	-0.557643	0.620810
H92	H	0.864775	-0.596874	0.671811
O93	O	0.931515	-0.820327	0.568621
H94	H	0.961568	-0.852416	0.621969
