data_functionalizedCrystal
_audit_creation_method	'MofGen! by Chris Wilmer'
_symmetry_space_group_name_H-M	'P1'
_symmetry_Int_Tables_number	1
_symmetry_cell_setting	triclinic
loop_
_symmetry_equiv_pos_as_xyz
  x,y,z
_cell_length_a	19.188930
_cell_length_b	19.188924
_cell_length_c	16.776229
_cell_angle_alpha	89.991276
_cell_angle_beta	89.978976
_cell_angle_gamma	83.143372
loop_
_atom_site_label
_atom_site_type_symbol
_atom_site_fract_x
_atom_site_fract_y
_atom_site_fract_z
O1	O	0.926145	0.087170	-0.066548
O2	O	0.722834	0.098904	-0.066494
O3	O	0.830359	-0.008619	-0.066513
O4	O	0.818620	0.194693	-0.066529
O5	O	0.830345	-0.008626	0.066063
O6	O	0.722819	0.098897	0.066083
O7	O	0.926131	0.087163	0.066028
Zn8	Zn	0.824473	0.093029	0.087105
Zn9	Zn	0.824492	0.093038	-0.087570
O10	O	0.818606	0.194686	0.066048
C11	C	0.696815	0.098521	-0.000199
C12	C	0.619311	0.097380	-0.000178
C13	C	0.574386	0.160471	-0.000195
C14	C	0.501562	0.159399	-0.000204
C15	C	0.473667	0.095233	-0.000211
C16	C	0.518602	0.032134	-0.000189
C17	C	0.591424	0.033207	-0.000172
N18	N	0.365693	0.046188	-0.045361
N19	N	0.296514	0.045173	-0.045378
C20	C	0.254258	0.091995	-0.000259
N21	N	0.283793	0.139881	0.044868
N22	N	0.352978	0.140899	0.044882
C23	C	0.394704	0.094062	-0.000228
C24	C	0.130368	0.153928	-0.000285
C25	C	0.057543	0.152854	-0.000289
C26	C	0.074585	0.025586	-0.000282
C27	C	0.147409	0.026663	-0.000271
C28	C	0.175295	0.090835	-0.000276
C29	C	0.829973	-0.034634	-0.000224
C30	C	0.828834	-0.112138	-0.000222
C31	C	0.828310	-0.148534	-0.072489
C32	C	0.827230	-0.221356	-0.072495
C33	C	0.826688	-0.257783	-0.000229
C34	C	0.827208	-0.221378	0.072048
C35	C	0.828281	-0.148556	0.072052
N36	N	0.864730	-0.377449	0.053546
N37	N	0.863712	-0.446627	0.053538
C38	C	0.823454	-0.477192	-0.000236
N39	N	0.784260	-0.435967	-0.054013
N40	N	0.785281	-0.366782	-0.054007
C41	C	0.825524	-0.336746	-0.000225
C42	C	0.821758	-0.592550	-0.072515
C43	C	0.820674	-0.665373	-0.072517
C44	C	0.820659	-0.665395	0.072028
C45	C	0.821736	-0.592572	0.072028
C46	C	0.822289	-0.556154	-0.000245
C47	C	0.952149	0.087546	-0.000269
C48	C	1.029654	0.088687	-0.000295
C49	C	0.818992	0.220700	-0.000243
C50	C	0.820131	0.298205	-0.000251
N51	N	0.824465	0.093023	0.206316
N52	N	0.824505	0.093039	-0.206782
C53	C	0.872092	0.045431	0.248025
C54	C	0.872096	0.045430	0.331477
C55	C	0.824476	0.093025	0.373219
C56	C	0.776844	0.140620	0.331505
C57	C	0.776837	0.140616	0.248054
C58	C	0.776869	0.140633	0.668052
C59	C	0.776881	0.140634	0.751508
C60	C	0.872128	0.045447	0.751475
C61	C	0.872121	0.045444	0.668024
C62	C	0.824487	0.093035	0.626317
C63	C	0.824483	0.093034	0.535829
C64	C	0.824483	0.093030	0.463706
H65	H	0.020965	0.204232	-0.000298
H66	H	0.738054	0.179369	0.214096
H67	H	0.826764	-0.251041	0.130887
H68	H	0.910912	0.006694	0.785442
H69	H	0.738085	0.179385	0.634100
H70	H	0.051874	-0.026659	-0.000338
H71	H	0.183988	-0.024713	-0.000261
H72	H	0.738067	0.179370	0.365496
H73	H	0.820212	-0.695052	0.130868
H74	H	0.597086	0.212725	-0.000201
H75	H	0.910900	0.006690	0.634040
H76	H	0.464976	0.210777	-0.000216
H77	H	0.153075	0.206181	-0.000278
H78	H	0.738100	0.179393	0.785493
H79	H	0.628003	-0.018171	-0.000159
H80	H	0.495885	-0.020111	-0.000206
H81	H	0.828758	-0.118887	-0.131340
H82	H	0.826799	-0.250995	-0.131346
H83	H	0.828704	-0.118923	0.130902
H84	H	0.822204	-0.562897	-0.131364
H85	H	0.820244	-0.695005	-0.131369
H86	H	0.822168	-0.562939	0.130876
H87	H	0.910872	0.006676	0.214044
H88	H	0.910876	0.006677	0.365436
