data_functionalizedCrystal
_audit_creation_method	'MofGen! by Chris Wilmer'
_symmetry_space_group_name_H-M	'P1'
_symmetry_Int_Tables_number	1
_symmetry_cell_setting	triclinic
loop_
_symmetry_equiv_pos_as_xyz
  x,y,z
_cell_length_a	10.654562
_cell_length_b	10.654551
_cell_length_c	7.088929
_cell_angle_alpha	83.718726
_cell_angle_beta	96.261661
_cell_angle_gamma	84.487733
loop_
_atom_site_label
_atom_site_type_symbol
_atom_site_fract_x
_atom_site_fract_y
_atom_site_fract_z
O1	O	1.655044	0.189281	-0.159099
O2	O	1.289569	0.206069	-0.159074
O3	O	1.480709	0.014936	-0.159088
O4	O	1.463904	0.380414	-0.159085
O5	O	1.506252	-0.010665	0.158885
O6	O	1.315113	0.180467	0.158899
O7	O	1.680587	0.163680	0.158874
Cu8	Cu	1.500182	0.169736	0.187920
Cu9	Cu	1.469974	0.200013	-0.188120
O10	O	1.489448	0.354812	0.158888
C11	C	1.255543	0.192032	-0.000085
C12	C	1.116102	0.188333	-0.000076
C13	C	1.064493	0.172654	0.173237
C14	C	0.933469	0.169191	0.173205
C15	C	0.905670	0.197094	-0.173467
C16	C	1.036694	0.200547	-0.173433
C17	C	1.143901	0.160440	0.346594
C18	C	1.092294	0.144761	0.519921
C19	C	0.961269	0.141299	0.519889
C20	C	0.881852	0.153515	0.346530
C21	C	1.492246	-0.044662	-0.000106
C22	C	1.488552	-0.184104	-0.000119
C23	C	1.472897	-0.235661	-0.173442
C24	C	1.469417	-0.366683	-0.173433
C25	C	1.497256	-0.394580	0.173239
C26	C	1.500726	-0.263560	0.173228
C27	C	1.460723	-0.156206	-0.346789
C28	C	1.445068	-0.207762	-0.520126
C29	C	1.441588	-0.338783	-0.520117
C30	C	1.453764	-0.418248	-0.346770
C31	C	1.714612	0.177717	-0.000120
C32	C	1.854053	0.181417	-0.000142
C33	C	1.477910	0.414411	-0.000099
C34	C	1.481602	0.553854	-0.000099
N35	N	1.521438	0.148441	0.452406
N36	N	1.448728	0.221298	-0.452607
H37	H	0.775164	0.150691	0.346518
O38	O	1.516094	-0.213353	0.341479
C39	C	1.627526	-0.151696	0.351889
H40	H	1.652166	-0.124372	0.201400
H41	H	1.611429	-0.062486	0.425251
H42	H	1.709086	-0.218368	0.437432
O43	O	1.086965	0.215946	-0.341660
C44	C	1.148637	0.327372	-0.352023
H45	H	1.175902	0.351973	-0.201522
H46	H	1.237880	0.311284	-0.425342
H47	H	1.082003	0.408959	-0.437585
H48	H	1.463558	-0.049521	-0.346815
O49	O	1.509273	-0.471663	0.341736
C50	C	1.627182	-0.461431	0.447158
H51	H	1.661940	-0.366759	0.397870
H52	H	1.615618	-0.466731	0.605728
H53	H	1.699329	-0.542529	0.423125
H54	H	1.373373	0.296799	0.465753
H55	H	1.596807	0.072943	0.534057
H56	H	1.250589	0.163261	0.346640
O57	O	1.169583	0.132734	0.688189
C58	C	1.259451	0.025305	0.698604
H59	H	1.271434	0.001740	0.548116
H60	H	1.354485	0.046253	0.771987
H61	H	1.225105	-0.058946	0.784129
O62	O	1.450554	-0.545560	-0.346540
C63	C	1.565613	-0.610286	-0.251522
H64	H	1.611958	-0.547376	-0.150296
H65	H	1.545698	-0.701815	-0.166329
H66	H	1.632219	-0.634007	-0.361104
O67	O	1.426200	-0.388699	-0.688607
C68	C	1.309991	-0.334942	-0.794040
H69	H	1.280274	-0.239353	-0.744761
H70	H	1.321799	-0.320684	-0.952608
H71	H	1.233933	-0.401317	-0.770009
O72	O	0.911308	0.125887	0.688371
C73	C	0.965028	0.009654	0.793812
H74	H	1.060627	-0.020066	0.744543
H75	H	0.979249	0.021431	0.952380
H76	H	0.898649	-0.066392	0.769779
H77	H	1.435143	-0.143052	-0.661259
O78	O	0.828633	0.209156	-0.341976
C79	C	0.838911	0.327083	-0.447388
H80	H	0.933579	0.361815	-0.398083
H81	H	0.833653	0.315554	-0.605958
H82	H	0.757816	0.399238	-0.423366
