data_functionalizedCrystal
_audit_creation_method	'MofGen! by Chris Wilmer'
_symmetry_space_group_name_H-M	'P1'
_symmetry_Int_Tables_number	1
_symmetry_cell_setting	triclinic
loop_
_symmetry_equiv_pos_as_xyz
  x,y,z
_cell_length_a	15.995350
_cell_length_b	15.995350
_cell_length_c	14.472310
_cell_angle_alpha	89.998838
_cell_angle_beta	89.990621
_cell_angle_gamma	96.507625
loop_
_atom_site_label
_atom_site_type_symbol
_atom_site_fract_x
_atom_site_fract_y
_atom_site_fract_z
O1	O	1.110997	-0.107921	-0.076758
O2	O	0.867221	-0.121248	-0.076776
O3	O	0.995773	0.007303	-0.076766
O4	O	0.982445	-0.236472	-0.076769
O5	O	0.995740	0.007296	0.076916
O6	O	0.867188	-0.121256	0.076906
O7	O	1.110963	-0.107928	0.076924
Cu8	Cu	0.989073	-0.114593	0.090947
Cu9	Cu	0.989112	-0.114584	-0.090800
O10	O	0.982412	-0.236480	0.076913
C11	C	0.836010	-0.120701	0.000062
C12	C	0.743060	-0.119049	0.000055
C13	C	0.995205	0.038494	0.000073
C14	C	0.993553	0.131444	0.000068
C15	C	0.405312	-0.113117	0.000074
C16	C	0.452746	-0.021565	0.000418
C17	C	0.549436	-0.023217	0.000065
C18	C	0.572873	-0.116060	0.000065
C19	C	0.531804	-0.161212	-0.087692
C20	C	0.435169	-0.158912	-0.087759
C21	C	0.434792	-0.160812	0.087007
C22	C	0.531737	-0.160790	0.088160
C23	C	0.667570	-0.117727	0.000057
C24	C	0.310614	-0.111452	0.000076
C25	C	1.142175	-0.108476	0.000083
C26	C	1.235125	-0.110127	0.000084
C27	C	0.982980	-0.267671	0.000072
C28	C	0.984631	-0.360621	0.000071
N29	N	0.989051	-0.114598	0.218778
C30	C	0.987621	0.469192	0.000071
C31	C	0.896069	0.421758	-0.000281
C32	C	0.897721	0.325068	0.000066
C33	C	0.990564	0.301631	0.000069
C34	C	1.035701	0.342705	0.087831
C35	C	1.033401	0.439340	0.087904
C36	C	1.035330	0.439707	-0.086861
C37	C	1.035309	0.342762	-0.088021
C38	C	0.992231	0.206934	0.000071
C39	C	0.985956	0.563890	0.000075
N40	N	0.989140	-0.114572	-0.218631
C41	C	0.989111	-0.114581	0.592869
C42	C	0.920095	-0.183135	0.553698
C43	C	0.920254	-0.183385	0.446610
C44	C	0.989081	-0.114590	0.407278
C45	C	1.076445	-0.133671	0.446122
C46	C	1.076057	-0.134159	0.553243
C47	C	0.971542	-0.026741	0.553398
C48	C	0.969538	-0.027327	0.446270
C49	C	0.989069	-0.114593	0.302390
C50	C	0.989128	-0.114579	0.697757
H51	H	0.577852	0.012275	0.062973
C52	C	0.935040	-0.270702	0.590050
N53	N	0.946300	-0.336657	0.617432
C54	C	0.935416	-0.271445	0.411975
N55	N	0.946841	-0.337775	0.385890
H56	H	0.859626	0.441349	0.062299
C57	C	1.124204	0.482908	0.093301
N58	N	1.192595	0.515719	0.097372
H59	H	0.545930	-0.229421	-0.090955
C60	C	0.427696	0.027871	0.085437
N61	N	0.408822	0.065108	0.149475
C62	C	0.849430	0.287416	0.085196
N63	N	0.813056	0.259058	0.149322
H64	H	1.091540	-0.198219	0.578220
H65	H	1.016541	0.026079	0.419500
C66	C	0.410453	-0.114412	-0.176376
N67	N	0.391842	-0.080889	-0.243123
C68	C	0.993308	0.304366	0.176059
N69	N	0.961371	0.275490	0.242511
C70	C	0.994909	0.467455	-0.176725
N71	N	0.964454	0.488353	-0.244405
C72	C	0.988888	0.464061	0.176522
N73	N	0.955356	0.482676	0.243269
C74	C	0.426282	0.027658	-0.084122
N75	N	0.406346	0.064732	-0.147797
H76	H	1.103014	0.327400	-0.093317
C77	C	1.126519	0.482619	-0.087659
N78	N	1.195199	0.514946	-0.088254
H79	H	1.103909	0.328579	0.091097
C80	C	1.097857	-0.219234	0.409880
N81	N	1.113978	-0.283684	0.382587
H82	H	0.547101	-0.228494	0.093461
H83	H	0.560193	-0.129845	-0.153002
H84	H	0.855314	-0.172016	0.420349
C85	C	0.990768	0.305906	-0.175734
N86	N	0.957211	0.278149	-0.241798
H87	H	0.854945	-0.171953	0.579481
H88	H	1.129018	-0.086196	0.579154
H89	H	0.909219	-0.008392	0.580461
C90	C	0.391602	-0.249715	-0.093159
N91	N	0.358791	-0.318106	-0.097236
H92	H	0.577308	0.012521	-0.062951
C93	C	1.147487	-0.068013	0.411700
N94	N	1.200995	-0.018558	0.385771
H95	H	0.905272	-0.012845	0.420883
H96	H	0.414242	-0.130885	0.153524
H97	H	0.559040	-0.127830	0.153082
C98	C	0.849779	0.286672	-0.084921
N99	N	0.813663	0.257756	-0.148933
C100	C	0.391881	-0.252001	0.087811
N101	N	0.359555	-0.320681	0.088411
C102	C	0.846645	0.446806	-0.085298
N103	N	0.809417	0.465681	-0.149334
C104	C	1.039530	0.042181	0.587625
N105	N	1.090741	0.094086	0.613411
