data_functionalizedCrystal
_audit_creation_method	'MofGen! by Chris Wilmer'
_symmetry_space_group_name_H-M	'P1'
_symmetry_Int_Tables_number	1
_symmetry_cell_setting	triclinic
loop_
_symmetry_equiv_pos_as_xyz
  x,y,z
_cell_length_a	8.597366
_cell_length_b	14.519709
_cell_length_c	12.996460
_cell_angle_alpha	89.998766
_cell_angle_beta	97.695693
_cell_angle_gamma	84.511450
loop_
_atom_site_label
_atom_site_type_symbol
_atom_site_fract_x
_atom_site_fract_y
_atom_site_fract_z
O1	O	2.082775	0.137647	0.099081
O2	O	2.416108	0.470981	0.432414
O3	O	2.749442	0.804314	0.765748
O4	O	1.625883	0.148207	0.058572
O5	O	1.959216	0.481540	0.391906
O6	O	2.292549	0.814873	0.725239
O7	O	1.866443	0.008786	0.079910
O8	O	2.199776	0.342119	0.413243
O9	O	2.533109	0.675453	0.746577
O10	O	1.842215	0.277068	0.077743
O11	O	2.175548	0.610401	0.411077
O12	O	2.508882	0.943735	0.744410
O13	O	1.866412	0.008794	0.251041
O14	O	2.199745	0.342127	0.584374
O15	O	2.533078	0.675461	0.917708
O16	O	1.625852	0.148215	0.229704
O17	O	1.959185	0.481548	0.563037
O18	O	2.292518	0.814881	0.896370
O19	O	2.082744	0.137655	0.270212
O20	O	2.416077	0.470989	0.603545
O21	O	2.749411	0.804322	0.936879
Cu22	Cu	1.854295	0.142936	0.265583
Cu23	Cu	2.187628	0.476269	0.598917
Cu24	Cu	2.520962	0.809602	0.932250
Cu25	Cu	1.854332	0.142926	0.063201
Cu26	Cu	2.187665	0.476260	0.396534
Cu27	Cu	2.520998	0.809593	0.729868
O28	O	1.842184	0.277076	0.248874
O29	O	2.175517	0.610409	0.582208
O30	O	2.508851	0.943743	0.915541
C31	C	1.567394	0.147077	0.138954
C32	C	1.900727	0.480410	0.472287
C33	C	2.234061	0.813743	0.805620
C34	C	1.393162	0.143686	0.123507
C35	C	1.726496	0.477020	0.456840
C36	C	2.059829	0.810353	0.790173
C37	C	1.865298	-0.025579	0.165376
C38	C	2.198631	0.307755	0.498709
C39	C	2.531965	0.641088	0.832042
C40	C	1.861915	-0.127987	0.165076
C41	C	2.195248	0.205346	0.498409
C42	C	2.528581	0.538679	0.831743
C43	C	1.849458	-0.502983	0.163945
C44	C	2.182792	-0.169650	0.497278
C45	C	2.516125	0.163683	0.830612
C46	C	1.852917	-0.398648	0.164259
C47	C	2.186251	-0.065314	0.497593
C48	C	2.519584	0.268019	0.830926
C49	C	1.855686	-0.315489	0.164512
C50	C	2.189019	0.017845	0.497845
C51	C	2.522353	0.351178	0.831178
C52	C	1.859146	-0.211146	0.164824
C53	C	2.192479	0.122187	0.498157
C54	C	2.525813	0.455520	0.831491
C55	C	2.141233	0.138785	0.189828
C56	C	2.474566	0.472119	0.523162
C57	C	2.807899	0.805452	0.856495
C58	C	2.315465	0.142176	0.205269
C59	C	2.648798	0.475509	0.538602
C60	C	2.982131	0.808843	0.871936
C61	C	1.843329	0.311441	0.163407
C62	C	2.176662	0.644774	0.496740
C63	C	2.509995	0.978108	0.830073
C64	C	1.846712	0.413849	0.163699
C65	C	2.180045	0.747183	0.497033
C66	C	2.513379	1.080516	0.830366
N67	N	1.854281	0.142942	0.407929
N68	N	2.187614	0.476275	0.741263
N69	N	2.520947	0.809609	1.074596
N70	N	1.854358	0.142913	-0.079144
N71	N	2.187692	0.476246	0.254190
N72	N	2.521025	0.809580	0.587523
C73	C	1.854288	0.142944	0.501036
C74	C	2.187621	0.476278	0.834369
C75	C	2.520955	0.809611	1.167702
C76	C	1.854302	0.142938	0.617842
C77	C	2.187636	0.476272	0.951176
C78	C	2.520969	0.809605	1.284509
C79	C	1.854322	0.142928	0.710942
C80	C	2.187655	0.476262	1.044276
C81	C	2.520989	0.809595	1.377609
C82	C	1.854339	0.142923	0.827756
C83	C	2.187672	0.476256	1.161090
C84	C	2.521005	0.809590	1.494423
H85	H	1.326392	0.142378	0.041683
H86	H	1.659725	0.475712	0.375016
H87	H	1.993058	0.809045	0.708349
H88	H	1.382244	0.143477	0.287098
H89	H	1.715578	0.476811	0.620432
H90	H	2.048911	0.810144	0.953765
