data_functionalizedCrystal
_audit_creation_method	'MofGen! by Chris Wilmer'
_symmetry_space_group_name_H-M	'P1'
_symmetry_Int_Tables_number	1
_symmetry_cell_setting	triclinic
loop_
_symmetry_equiv_pos_as_xyz
  x,y,z
_cell_length_a	12.594516
_cell_length_b	16.625548
_cell_length_c	16.625548
_cell_angle_alpha	90.002903
_cell_angle_beta	90.007202
_cell_angle_gamma	90.024258
loop_
_atom_site_label
_atom_site_type_symbol
_atom_site_fract_x
_atom_site_fract_y
_atom_site_fract_z
Zn1	Zn	-0.423746	1.232606	0.455817
Zn2	Zn	-0.173746	1.482606	0.705817
Zn3	Zn	0.076254	1.732606	0.955817
Zn4	Zn	0.326254	1.982606	1.205817
Zn5	Zn	-0.601694	1.232549	0.320994
Zn6	Zn	-0.351694	1.482549	0.570994
Zn7	Zn	-0.101694	1.732549	0.820994
Zn8	Zn	0.148306	1.982549	1.070994
Zn9	Zn	-0.423749	1.097797	0.321011
Zn10	Zn	-0.173749	1.347797	0.571011
Zn11	Zn	0.076251	1.597797	0.821011
Zn12	Zn	0.326251	1.847797	1.071011
Zn13	Zn	-0.601702	1.097749	0.455797
Zn14	Zn	-0.351702	1.347749	0.705797
Zn15	Zn	-0.101702	1.597749	0.955797
Zn16	Zn	0.148298	1.847749	1.205797
O17	O	-0.512723	1.165175	0.388405
O18	O	-0.262723	1.415175	0.638405
O19	O	-0.012723	1.665175	0.888405
O20	O	0.237277	1.915175	1.138405
O21	O	-0.447347	1.345431	0.437935
O22	O	-0.197347	1.595431	0.687935
O23	O	0.052653	1.845431	0.937935
O24	O	0.302653	2.095431	1.187935
O25	O	-0.578088	1.214670	0.208164
O26	O	-0.328088	1.464670	0.458164
O27	O	-0.078088	1.714670	0.708164
O28	O	0.171912	1.964670	0.958164
O29	O	-0.274803	1.115724	0.338908
O30	O	-0.024803	1.365724	0.588908
O31	O	0.225197	1.615724	0.838908
O32	O	0.475197	1.865724	1.088908
O33	O	-0.578085	1.345389	0.338881
O34	O	-0.328085	1.595389	0.588881
O35	O	-0.078085	1.845389	0.838881
O36	O	0.171915	2.095389	1.088881
O37	O	-0.274801	1.214768	0.437950
O38	O	-0.024801	1.464768	0.687950
O39	O	0.225199	1.714768	0.937950
O40	O	0.475199	1.964768	1.187950
O41	O	-0.447352	1.115668	0.208176
O42	O	-0.197352	1.365668	0.458176
O43	O	0.052648	1.615668	0.708176
O44	O	0.302648	1.865668	0.958176
O45	O	-0.447359	0.984958	0.338888
O46	O	-0.197359	1.234958	0.588888
O47	O	0.052641	1.484958	0.838888
O48	O	0.302641	1.734958	1.088888
O49	O	-0.578097	1.115642	0.568632
O50	O	-0.328097	1.365642	0.818632
O51	O	-0.078097	1.615642	1.068632
O52	O	0.171903	1.865642	1.318632
O53	O	-0.578100	0.984923	0.437915
O54	O	-0.328100	1.234923	0.687915
O55	O	-0.078100	1.484923	0.937915
O56	O	0.171900	1.734923	1.187915
O57	O	-0.447354	1.214721	0.568647
O58	O	-0.197354	1.464721	0.818647
O59	O	0.052646	1.714721	1.068647
O60	O	0.302646	1.964721	1.318647
O61	O	-0.750641	1.214623	0.338861
O62	O	-0.500641	1.464623	0.588861
O63	O	-0.250641	1.714623	0.838861
O64	O	-0.000641	1.964623	1.088861
O65	O	-0.750647	1.115586	0.437899
O66	O	-0.500647	1.365586	0.687899
O67	O	-0.250647	1.615586	0.937899
O68	O	-0.000647	1.865586	1.187899
C69	C	-0.512732	0.955684	0.388402
C70	C	-0.262732	1.205684	0.638402
C71	C	-0.012732	1.455684	0.888402
C72	C	0.237268	1.705684	1.138402
C73	C	-0.512761	0.866063	0.388420
C74	C	-0.262761	1.116063	0.638420
C75	C	-0.012761	1.366063	0.888420
C76	C	0.237239	1.616063	1.138420
C77	C	-0.789264	1.165115	0.388394
C78	C	-0.539264	1.415115	0.638394
C79	C	-0.289264	1.665115	0.888394
C80	C	-0.039264	1.915115	1.138394
C81	C	-0.907569	1.165163	0.388416
C82	C	-0.657569	1.415163	0.638416
C83	C	-0.407569	1.665163	0.888416
C84	C	-0.157569	1.915163	1.138416
C85	C	-0.512726	1.165182	0.598714
C86	C	-0.262726	1.415182	0.848714
C87	C	-0.012726	1.665182	1.098714
C88	C	0.237274	1.915182	1.348714
C89	C	-0.512727	1.165185	0.688335
C90	C	-0.262727	1.415185	0.938335
C91	C	-0.012727	1.665185	1.188335
C92	C	0.237273	1.915185	1.438335
C93	C	-1.047628	1.111340	0.442256
C94	C	-0.797628	1.361340	0.692256
C95	C	-0.547628	1.611340	0.942256
C96	C	-0.297628	1.861340	1.192256
C97	C	-0.976715	1.184844	0.462031
C98	C	-0.726715	1.434844	0.712031
C99	C	-0.476715	1.684844	0.962031
C100	C	-0.226715	1.934844	1.212031
C101	C	-0.976910	1.091666	0.368676
C102	C	-0.726910	1.341666	0.618676
C103	C	-0.476910	1.591666	0.868676
C104	C	-0.226910	1.841666	1.118676
C105	C	-1.047442	1.238836	0.408259
C106	C	-0.797442	1.488836	0.658259
C107	C	-0.547442	1.738836	0.908259
C108	C	-0.297442	1.988836	1.158259
C109	C	-1.047644	1.145610	0.314870
C110	C	-0.797644	1.395610	0.564870
C111	C	-0.547644	1.645610	0.814870
C112	C	-0.297644	1.895610	1.064870
C113	C	-0.976763	1.219164	0.334618
C114	C	-0.726763	1.469164	0.584618
C115	C	-0.476763	1.719164	0.834618
C116	C	-0.226763	1.969164	1.084618
C117	C	-0.235102	1.165258	0.388434
C118	C	0.014898	1.415258	0.638434
C119	C	0.264898	1.665258	0.888434
C120	C	0.514898	1.915258	1.138434
C121	C	-0.116797	1.165293	0.388446
C122	C	0.133203	1.415293	0.638446
C123	C	0.383203	1.665293	0.888446
C124	C	0.633203	1.915293	1.138446
C125	C	-0.512715	1.375484	0.388408
C126	C	-0.262715	1.625484	0.638408
C127	C	-0.012715	1.875484	0.888408
C128	C	0.237285	2.125484	1.138408
C129	C	-0.512711	1.465105	0.388410
C130	C	-0.262711	1.715105	0.638410
C131	C	-0.012711	1.965105	0.888410
C132	C	0.237289	2.215105	1.138410
C133	C	-0.512761	1.793281	0.388415
C134	C	-0.262761	2.043281	0.638415
C135	C	-0.012761	2.293281	0.888415
C136	C	0.237239	2.543281	1.138415
C137	C	-0.512750	1.701972	0.388411
C138	C	-0.262750	1.951972	0.638411
C139	C	-0.012750	2.201972	0.888411
C140	C	0.237250	2.451972	1.138411
C141	C	-0.512735	1.629196	0.388412
C142	C	-0.262735	1.879196	0.638412
C143	C	-0.012735	2.129196	0.888412
C144	C	0.237265	2.379196	1.138412
C145	C	-0.512726	1.537882	0.388409
C146	C	-0.262726	1.787882	0.638409
C147	C	-0.012726	2.037882	0.888409
C148	C	0.237274	2.287882	1.138409
C149	C	-0.512737	1.165152	1.016510
C150	C	-0.262737	1.415152	1.266510
C151	C	-0.012737	1.665152	1.516510
C152	C	0.237263	1.915152	1.766510
C153	C	-0.512737	1.165159	0.925202
C154	C	-0.262737	1.415159	1.175202
C155	C	-0.012737	1.665159	1.425202
C156	C	0.237263	1.915159	1.675202
C157	C	-0.512733	1.165169	0.852425
C158	C	-0.262733	1.415169	1.102425
C159	C	-0.012733	1.665169	1.352425
C160	C	0.237267	1.915169	1.602425
C161	C	-0.512732	1.165175	0.761111
C162	C	-0.262732	1.415175	1.011111
C163	C	-0.012732	1.665175	1.261111
C164	C	0.237268	1.915175	1.511111
C165	C	-0.512741	1.165160	1.178914
C166	C	-0.262741	1.415160	1.428914
C167	C	-0.012741	1.665160	1.678914
C168	C	0.237259	1.915160	1.928914
C169	C	-0.512733	1.165152	1.089293
C170	C	-0.262733	1.415152	1.339293
C171	C	-0.012733	1.665152	1.589293
C172	C	0.237267	1.915152	1.839293
H173	H	-1.078738	1.065826	0.487809
H174	H	-0.828738	1.315826	0.737809
H175	H	-0.578738	1.565826	0.987809
H176	H	-0.328738	1.815826	1.237809
F177	F	-0.935995	1.206540	0.543341
F178	F	-0.685995	1.456540	0.793341
F179	F	-0.435995	1.706540	1.043341
F180	F	-0.185995	1.956540	1.293341
F181	F	-0.936348	1.278794	0.275122
F182	F	-0.686348	1.528794	0.525122
F183	F	-0.436348	1.778794	0.775122
F184	F	-0.186348	2.028794	1.025122
F185	F	-1.088397	1.123887	0.233582
F186	F	-0.838397	1.373887	0.483582
F187	F	-0.588397	1.623887	0.733582
F188	F	-0.338397	1.873887	0.983582
H189	H	-1.078298	1.301065	0.425040
H190	H	-0.828298	1.551065	0.675040
H191	H	-0.578298	1.801065	0.925040
H192	H	-0.328298	2.051065	1.175040
F193	F	-0.936407	1.010354	0.346836
F194	F	-0.686407	1.260354	0.596836
F195	F	-0.436407	1.510354	0.846836
F196	F	-0.186407	1.760354	1.096836
