data_functionalizedCrystal
_audit_creation_method	'MofGen! by Chris Wilmer'
_symmetry_space_group_name_H-M	'P1'
_symmetry_Int_Tables_number	1
_symmetry_cell_setting	triclinic
loop_
_symmetry_equiv_pos_as_xyz
  x,y,z
_cell_length_a	6.817900
_cell_length_b	15.301048
_cell_length_c	15.301140
_cell_angle_alpha	94.942016
_cell_angle_beta	104.177739
_cell_angle_gamma	104.176180
loop_
_atom_site_label
_atom_site_type_symbol
_atom_site_fract_x
_atom_site_fract_y
_atom_site_fract_z
V1	V	-4.037900	-0.125370	-0.281424
O2	O	-4.021624	0.005396	-0.275781
O3	O	-3.992782	-0.247984	-0.279775
O4	O	-3.992787	-0.123717	-0.404038
O5	O	-4.021618	-0.119730	-0.150658
V6	V	-4.520677	-0.109696	-0.265750
O7	O	-4.300795	-0.159752	-0.315807
O8	O	-4.707979	-0.075315	-0.231368
O9	O	-4.342589	0.012917	-0.267400
O10	O	-4.654350	-0.240463	-0.271393
O11	O	-4.654356	-0.115336	-0.396517
O12	O	-4.342583	-0.111349	-0.143137
C13	C	-3.838474	-0.277866	-0.275406
C14	C	-3.882893	-0.378106	-0.274874
C15	C	-4.031331	-0.796816	-0.189950
C16	C	-3.989589	-0.702631	-0.190454
C17	C	-4.011588	-0.668597	-0.273314
C18	C	-4.075315	-0.728755	-0.355673
C19	C	-4.117041	-0.822938	-0.355167
C20	C	-3.988345	-0.532446	-0.356722
C21	C	-3.946619	-0.438256	-0.357228
C22	C	-3.860893	-0.412138	-0.192009
C23	C	-3.902619	-0.506322	-0.191503
C24	C	-3.966347	-0.566473	-0.273863
C25	C	-3.838481	-0.119350	-0.433915
C26	C	-3.882901	-0.118810	-0.534154
C27	C	-4.086132	-0.123071	-0.585850
C28	C	-4.127858	-0.122563	-0.680034
C29	C	-3.966353	-0.117801	-0.722522
C30	C	-3.763105	-0.113537	-0.670819
C31	C	-3.721378	-0.114038	-0.576635
C32	C	-3.850089	-0.112494	-0.867128
C33	C	-3.891819	-0.111994	-0.961319
C34	C	-4.256569	-0.121019	-0.970528
C35	C	-4.214842	-0.121520	-0.876344
C36	C	-4.011597	-0.117258	-0.824647
C37	C	-4.160238	0.042795	-0.271766
C38	C	-4.095057	0.143034	-0.272303
C39	C	-4.160232	-0.115719	-0.113255
C40	C	-4.095049	-0.116255	-0.013015
H41	H	-4.093211	-0.701037	-0.423138
H42	H	-3.937707	-0.653659	-0.123394
H43	H	-3.631605	-0.109653	-0.705419
H44	H	-4.293342	-0.126028	-0.722121
H45	H	-3.684571	-0.108990	-0.825034
O46	O	-4.454118	-0.125310	-1.020722
C47	C	-4.819388	-0.211341	-1.069774
C48	C	-4.595770	-0.206605	-1.012909
H49	H	-4.933982	-0.277053	-1.063461
H50	H	-4.821639	-0.210218	-1.144411
H51	H	-4.868109	-0.150213	-1.043496
H52	H	-4.546909	-0.267720	-1.039107
H53	H	-4.593641	-0.207684	-0.938280
O54	O	-4.049905	-0.590904	-0.436694
C55	C	-3.973546	-0.708067	-0.527712
C56	C	-3.903549	-0.641894	-0.437117
H57	H	-3.855277	-0.749323	-0.528076
H58	H	-3.982019	-0.667607	-0.587053
H59	H	-4.135273	-0.756305	-0.535052
H60	H	-3.741799	-0.593640	-0.429689
H61	H	-3.895225	-0.682411	-0.377822
O62	O	-4.179307	-0.881344	-0.435198
C63	C	-4.438607	-0.936830	-0.580559
C64	C	-4.368369	-0.870657	-0.489954
H65	H	-4.591446	-0.928199	-0.624863
H66	H	-4.464808	-1.010013	-0.566021
H67	H	-4.311456	-0.921222	-0.617897
H68	H	-4.495438	-0.886181	-0.452571
H69	H	-4.342101	-0.797494	-0.504554
H70	H	-3.555878	-0.110546	-0.534541
O71	O	-3.735050	-0.107241	-1.002680
C72	C	-3.529729	-0.022892	-1.091229
C73	C	-3.707335	-0.028175	-1.044443
H74	H	-3.507235	0.041038	-1.124990
H75	H	-3.573016	-0.085807	-1.145170
H76	H	-3.377334	-0.019968	-1.038098
H77	H	-3.859798	-0.031069	-1.097507
H78	H	-3.663869	0.034740	-0.990485
H79	H	-3.808997	-0.363158	-0.124948
O80	O	-3.881061	-0.539229	-0.110932
C81	C	-3.791747	-0.503393	0.052887
C82	C	-3.816037	-0.466003	-0.038293
H83	H	-3.739215	-0.444210	0.111638
H84	H	-3.669056	-0.543266	0.060774
H85	H	-3.949153	-0.550402	0.053741
H86	H	-3.658735	-0.418958	-0.039211
H87	H	-3.938825	-0.426183	-0.046143
O88	O	-4.009768	-0.829717	-0.109376
C89	C	-3.920438	-0.793863	0.054442
C90	C	-3.944738	-0.756484	-0.036744
H91	H	-3.867902	-0.734674	0.113188
H92	H	-3.797746	-0.833735	0.062333
H93	H	-4.077842	-0.840869	0.055302
H94	H	-3.787440	-0.709441	-0.037668
H95	H	-4.067528	-0.716665	-0.044598
H96	H	-3.964579	-0.410551	-0.424700
H97	H	-4.217656	-0.126956	-0.551264
H98	H	-4.346360	-0.125405	-0.841754
