data_functionalizedCrystal
_audit_creation_method	'MofGen! by Chris Wilmer'
_symmetry_space_group_name_H-M	'P1'
_symmetry_Int_Tables_number	1
_symmetry_cell_setting	triclinic
loop_
_symmetry_equiv_pos_as_xyz
  x,y,z
_cell_length_a	12.759401
_cell_length_b	16.120484
_cell_length_c	12.759393
_cell_angle_alpha	92.864008
_cell_angle_beta	89.979062
_cell_angle_gamma	92.926992
loop_
_atom_site_label
_atom_site_type_symbol
_atom_site_fract_x
_atom_site_fract_y
_atom_site_fract_z
Zn1	Zn	1.584985	-0.331832	-0.615183
Zn2	Zn	2.084985	0.168168	-0.115183
Zn3	Zn	1.575933	-0.471268	-0.448395
Zn4	Zn	2.075933	0.028732	0.051605
Zn5	Zn	1.409280	-0.331877	-0.439521
Zn6	Zn	1.909280	0.168123	0.060479
Zn7	Zn	1.400336	-0.471209	-0.624029
Zn8	Zn	1.900336	0.028791	-0.124029
O9	O	1.492634	-0.401546	-0.531782
O10	O	1.992634	0.098454	-0.031782
O11	O	1.730804	-0.350334	-0.593070
O12	O	2.230804	0.149666	-0.093070
O13	O	1.553781	-0.452820	-0.300200
O14	O	2.053781	0.047180	0.199800
O15	O	1.440119	-0.215205	-0.455406
O16	O	1.940119	0.284795	0.044594
O17	O	1.724154	-0.452777	-0.470532
O18	O	2.224154	0.047223	0.029468
O19	O	1.569208	-0.215173	-0.584465
O20	O	2.069208	0.284827	-0.084465
O21	O	1.431342	-0.350410	-0.293680
O22	O	1.931342	0.149590	0.206320
O23	O	1.261073	-0.350354	-0.463984
O24	O	1.761073	0.149646	0.036016
O25	O	1.424875	-0.452678	-0.769874
O26	O	1.924875	0.047322	-0.269874
O27	O	1.254502	-0.452721	-0.599541
O28	O	1.754502	0.047279	-0.099541
O29	O	1.560535	-0.350278	-0.763375
O30	O	2.060535	0.149722	-0.263375
O31	O	1.545108	-0.587925	-0.479110
O32	O	2.045108	-0.087925	0.020890
O33	O	1.416098	-0.587883	-0.608147
O34	O	1.916098	-0.087883	-0.108147
C35	C	1.219667	-0.401536	-0.531760
C36	C	1.719667	0.098464	-0.031760
C37	C	1.102889	-0.401552	-0.531777
C38	C	1.602889	0.098448	-0.031777
C39	C	1.044628	-0.454936	-0.602261
C40	C	1.544628	0.045064	-0.102261
C41	C	0.934904	-0.454939	-0.602282
C42	C	1.434904	0.045061	-0.102282
C43	C	0.941712	-0.348172	-0.461326
C44	C	1.441712	0.151828	0.038674
C45	C	1.051434	-0.348166	-0.461311
C46	C	1.551434	0.151834	0.038689
C47	C	1.478679	-0.618154	-0.545574
C48	C	1.978679	-0.118154	-0.045574
C49	C	1.472805	-0.710820	-0.551509
C50	C	1.972805	-0.210820	-0.051509
C51	C	1.462088	-0.880481	-0.562368
C52	C	1.962088	-0.380481	-0.062368
C53	C	1.523367	-0.921772	-0.501213
C54	C	2.023367	-0.421772	-0.001213
C55	C	1.517404	-1.016177	-0.507255
C56	C	2.017404	-0.516177	-0.007255
C57	C	1.468050	-0.786067	-0.556327
C58	C	1.968050	-0.286067	-0.056327
C59	C	1.766666	-0.401557	-0.531804
C60	C	2.266666	0.098443	-0.031804
C61	C	1.883442	-0.401562	-0.531814
C62	C	2.383442	0.098438	-0.031814
C63	C	1.492717	-0.401466	-0.805810
C64	C	1.992717	0.098534	-0.305810
C65	C	1.492753	-0.401432	-0.922585
C66	C	1.992753	0.098568	-0.422585
C67	C	1.506671	-0.184093	-0.517959
C68	C	2.006671	0.315907	-0.017959
C69	C	1.512653	-0.091427	-0.512068
C70	C	2.012653	0.408573	-0.012068
C71	C	1.563397	-0.348104	-0.974064
C72	C	2.063397	0.151896	-0.474064
C73	C	1.563417	-0.348068	-1.083786
C74	C	2.063417	0.151932	-0.583786
C75	C	1.422146	-0.454696	-1.090540
C76	C	1.922146	0.045304	-0.590540
C77	C	1.422122	-0.454727	-0.980820
C78	C	1.922122	0.045273	-0.480820
C79	C	1.492614	-0.401566	-0.258816
C80	C	1.992614	0.098434	0.241184
C81	C	1.492797	-0.401365	-0.142027
C82	C	1.992797	0.098635	0.357973
H83	H	0.887472	-0.498408	-0.659679
H84	H	1.387472	0.001592	-0.159679
O85	O	1.353445	-0.506496	-1.146952
O86	O	1.853445	-0.006496	-0.646952
C87	C	1.213370	-0.612300	-1.142072
C88	C	1.713370	-0.112300	-0.642072
C89	C	1.291099	-0.553661	-1.078061
C90	C	1.791099	-0.053661	-0.578061
H91	H	1.162958	-0.650461	-1.086402
H92	H	1.662958	-0.150461	-0.586402
H93	H	1.160845	-0.574050	-1.190976
H94	H	1.660845	-0.074050	-0.690976
H95	H	1.258825	-0.655845	-1.196242
H96	H	1.758825	-0.155845	-0.696242
H97	H	1.245730	-0.510104	-1.023834
H98	H	1.745730	-0.010104	-0.523834
H99	H	1.343624	-0.591963	-1.029227
H100	H	1.843624	-0.091963	-0.529227
H101	H	1.086519	-0.498404	-0.659642
H102	H	1.586519	0.001596	-0.159642
O103	O	1.394294	-0.922977	-0.630289
O104	O	1.894294	-0.422977	-0.130289
C105	C	1.373989	-1.021308	-0.778319
C106	C	1.873989	-0.521308	-0.278319
C107	C	1.450880	-0.973235	-0.701459
C108	C	1.950880	-0.473235	-0.201459
H109	H	1.419710	-1.061941	-0.835893
H110	H	1.919710	-0.561941	-0.335893
H111	H	1.316572	-1.062203	-0.732646
H112	H	1.816572	-0.562203	-0.232646
H113	H	1.328757	-0.975317	-0.823366
H114	H	1.828757	-0.475317	-0.323366
H115	H	1.496184	-1.019167	-0.656393
H116	H	1.996184	-0.519167	-0.156393
H117	H	1.508228	-0.932328	-0.747192
H118	H	2.008228	-0.432328	-0.247192
O119	O	1.353639	-0.506575	-0.930693
O120	O	1.853639	-0.006575	-0.430693
C121	C	1.332212	-0.619196	-0.814008
C122	C	1.832212	-0.119196	-0.314008
C123	C	1.409881	-0.560525	-0.870696
C124	C	1.909881	-0.060525	-0.370696
H125	H	1.377654	-0.662841	-0.765504
H126	H	1.877654	-0.162841	-0.265504
H127	H	1.279754	-0.580974	-0.760131
H128	H	1.779754	-0.080974	-0.260131
H129	H	1.281719	-0.657248	-0.874493
H130	H	1.781719	-0.157248	-0.374493
H131	H	1.460444	-0.522460	-0.810287
H132	H	1.960444	-0.022460	-0.310287
H133	H	1.462267	-0.598794	-0.924592
H134	H	1.962267	-0.098794	-0.424592
H135	H	0.899804	-0.304708	-0.403953
H136	H	1.399804	0.195292	0.096047
H137	H	1.098873	-0.304689	-0.403914
H138	H	1.598873	0.195311	0.096086
O139	O	1.631894	-0.296210	-0.917534
O140	O	2.131894	0.203790	-0.417534
C141	C	1.692078	-0.154408	-0.875017
C142	C	2.192078	0.345592	-0.375017
C143	C	1.614431	-0.213087	-0.939072
C144	C	2.114431	0.286913	-0.439072
H145	H	1.678001	-0.087191	-0.892424
H146	H	2.178001	0.412809	-0.392424
H147	H	1.679933	-0.163514	-0.787736
H148	H	2.179933	0.336486	-0.287736
H149	H	1.775844	-0.169087	-0.897527
H150	H	2.275844	0.330913	-0.397527
H151	H	1.530634	-0.198444	-0.916652
H152	H	2.030634	0.301556	-0.416652
H153	H	1.626667	-0.203969	-1.026338
H154	H	2.126667	0.296031	-0.526338
O155	O	1.591146	-0.879331	-0.433215
O156	O	2.091146	-0.379331	0.066785
C157	C	1.611426	-0.780942	-0.285242
C158	C	2.111426	-0.280942	0.214758
C159	C	1.534559	-0.828971	-0.362165
C160	C	2.034559	-0.328971	0.137835
H161	H	1.565708	-0.740201	-0.227793
H162	H	2.065708	-0.240201	0.272207
H163	H	1.656606	-0.826887	-0.240066
H164	H	2.156606	-0.326887	0.259934
H165	H	1.668889	-0.740134	-0.330978
H166	H	2.168889	-0.240134	0.169022
H167	H	1.477032	-0.869780	-0.316511
H168	H	1.977032	-0.369780	0.183489
H169	H	1.489455	-0.782981	-0.407343
H170	H	1.989455	-0.282981	0.092657
O171	O	1.631896	-0.296175	-1.133830
O172	O	2.131896	0.203825	-0.633830
C173	C	1.653325	-0.183603	-1.250589
C174	C	2.153325	0.316397	-0.750589
C175	C	1.575656	-0.242314	-1.193960
C176	C	2.075656	0.257686	-0.693960
H177	H	1.607886	-0.140054	-1.299235
H178	H	2.107886	0.359946	-0.799235
H179	H	1.703780	-0.145459	-1.190156
H180	H	2.203780	0.354541	-0.690156
H181	H	1.705820	-0.221880	-1.304359
H182	H	2.205820	0.278120	-0.804359
H183	H	1.523093	-0.204101	-1.140193
H184	H	2.023093	0.295899	-0.640193
H185	H	1.525274	-0.280461	-1.254450
H186	H	2.025274	0.219539	-0.754450
