data_functionalizedCrystal
_audit_creation_method	'MofGen! by Chris Wilmer'
_symmetry_space_group_name_H-M	'P1'
_symmetry_Int_Tables_number	1
_symmetry_cell_setting	triclinic
loop_
_symmetry_equiv_pos_as_xyz
  x,y,z
_cell_length_a	25.639243
_cell_length_b	25.639240
_cell_length_c	12.827885
_cell_angle_alpha	89.968348
_cell_angle_beta	90.023817
_cell_angle_gamma	89.959854
loop_
_atom_site_label
_atom_site_type_symbol
_atom_site_fract_x
_atom_site_fract_y
_atom_site_fract_z
Zn1	Zn	0.799270	0.208087	0.590962
Zn2	Zn	1.299270	0.708087	1.090962
Zn3	Zn	0.799184	0.295533	0.416216
Zn4	Zn	1.299184	0.795533	0.916216
Zn5	Zn	0.711835	0.208117	0.416222
Zn6	Zn	1.211835	0.708117	0.916222
Zn7	Zn	0.711794	0.295498	0.590903
Zn8	Zn	1.211794	0.795498	1.090903
O9	O	0.755521	0.251809	0.503576
O10	O	1.255521	0.751809	1.003576
O11	O	0.872424	0.219689	0.567804
O12	O	1.372424	0.719689	1.067804
O13	O	0.787578	0.283964	0.269981
O14	O	1.287578	0.783964	0.769981
O15	O	0.723486	0.134948	0.439428
O16	O	1.223486	0.634948	0.939428
O17	O	0.872360	0.283935	0.439419
O18	O	1.372360	0.783935	0.939419
O19	O	0.787725	0.134926	0.567809
O20	O	1.287725	0.634926	1.067809
O21	O	0.723403	0.219740	0.269985
O22	O	1.223403	0.719740	0.769985
O23	O	0.638664	0.219706	0.439371
O24	O	1.138664	0.719706	0.939371
O25	O	0.723417	0.283876	0.737147
O26	O	1.223417	0.783876	1.237147
O27	O	0.638634	0.283904	0.567708
O28	O	1.138634	0.783904	1.067708
O29	O	0.787685	0.219656	0.737190
O30	O	1.287685	0.719656	1.237190
O31	O	0.787538	0.368693	0.439362
O32	O	1.287538	0.868693	0.939362
O33	O	0.723333	0.368668	0.567703
O34	O	1.223333	0.868668	1.067703
C35	C	0.619678	0.251805	0.503534
C36	C	1.119678	0.751805	1.003534
C37	C	0.561564	0.251816	0.503541
C38	C	1.061564	0.751816	1.003541
C39	C	0.201228	0.218409	0.570537
C40	C	0.701228	0.718409	1.070537
C41	C	0.146624	0.218408	0.570543
C42	C	0.646624	0.718408	1.070543
O43	O	0.118411	0.189994	0.627454
O44	O	0.618411	0.689994	1.127454
N45	N	0.119281	0.251807	0.503604
N46	N	0.619281	0.751807	1.003604
C47	C	0.146546	0.285205	0.436647
C48	C	0.646546	0.785205	0.936647
O49	O	0.118275	0.313613	0.379710
O50	O	0.618275	0.813613	0.879710
C51	C	0.201149	0.285202	0.436636
C52	C	0.701149	0.785202	0.936636
C53	C	0.228489	0.251805	0.503587
C54	C	0.728489	0.751805	1.003587
C55	C	0.228568	0.185013	0.637482
C56	C	0.728568	0.685013	1.137482
C57	C	0.283169	0.185015	0.637476
C58	C	0.783169	0.685015	1.137476
C59	C	0.310429	0.218411	0.570526
C60	C	0.810429	0.718411	1.070526
C61	C	0.283090	0.251806	0.503582
C62	C	0.783090	0.751806	1.003582
C63	C	0.228413	0.318597	0.369674
C64	C	0.728413	0.818597	0.869674
C65	C	0.283020	0.318592	0.369668
C66	C	0.783020	0.818592	0.869668
C67	C	0.310360	0.285194	0.436619
C68	C	0.810360	0.785194	0.936619
C69	C	0.364951	0.285204	0.436626
C70	C	0.864951	0.785204	0.936626
N71	N	0.392293	0.251805	0.503565
N72	N	0.892293	0.751805	1.003565
C73	C	0.365033	0.218409	0.570515
C74	C	0.865033	0.718409	1.070515
C75	C	0.031875	0.285207	0.436674
C76	C	0.531875	0.785207	0.936674
C77	C	-0.022727	0.285213	0.436689
C78	C	0.477273	0.785213	0.936689
C79	C	-0.022645	0.218415	0.570585
C80	C	0.477355	0.718415	1.070585
C81	C	0.031958	0.218413	0.570574
C82	C	0.531958	0.718413	1.070574
C83	C	0.059218	0.251808	0.503613
C84	C	0.559218	0.751808	1.003613
C85	C	0.479698	0.218414	0.570500
C86	C	0.979698	0.718414	1.070500
C87	C	0.534303	0.218420	0.570491
C88	C	1.034303	0.718420	1.070491
C89	C	0.534217	0.285215	0.436592
C90	C	1.034217	0.785215	0.936592
C91	C	0.479616	0.285212	0.436604
C92	C	0.979616	0.785212	0.936604
C93	C	0.452358	0.251807	0.503561
C94	C	0.952358	0.751807	1.003561
O95	O	0.393199	0.313602	0.379741
O96	O	0.893199	0.813602	0.879741
O97	O	0.393310	0.190000	0.627433
O98	O	0.893310	0.690000	1.127433
C99	C	0.755436	0.387651	0.503548
C100	C	1.255436	0.887651	1.003548
C101	C	0.755447	0.445765	0.503572
C102	C	1.255447	0.945765	1.003572
C103	C	0.788925	0.696896	0.570481
C104	C	1.288925	1.196896	1.070481
C105	C	0.788914	0.642292	0.570475
C106	C	1.288914	1.142292	1.070475
O107	O	0.817341	0.614002	0.627334
O108	O	1.317341	1.114002	1.127334
N109	N	0.755488	0.615039	0.503581
N110	N	1.255488	1.115039	1.003581
C111	C	0.722075	0.642394	0.436681
C112	C	1.222075	1.142394	0.936681
O113	O	0.693643	0.614199	0.379781
O114	O	1.193643	1.114199	0.879781
C115	C	0.722088	0.696997	0.436683
C116	C	1.222088	1.196997	0.936683
C117	C	0.755513	0.724247	0.503589
C118	C	1.255513	1.224247	1.003589
C119	C	0.822347	0.724146	0.637381
C120	C	1.322347	1.224146	1.137381
C121	C	0.822357	0.778747	0.637388
C122	C	1.322357	1.278747	1.137388
C123	C	0.788944	0.806097	0.570497
C124	C	1.288944	1.306097	1.070497
C125	C	0.755522	0.778847	0.503597
C126	C	1.255522	1.278847	1.003597
C127	C	0.688678	0.724351	0.369780
C128	C	1.188678	1.224351	0.869780
C129	C	0.688694	0.778958	0.369787
C130	C	1.188694	1.278958	0.869787
C131	C	0.722119	0.806207	0.436693
C132	C	1.222119	1.306207	0.936693
C133	C	0.722120	0.860799	0.436713
C134	C	1.222120	1.360799	0.936713
N135	N	0.755546	0.888051	0.503607
N136	N	1.255546	1.388051	1.003607
C137	C	0.788958	0.860701	0.570499
C138	C	1.288958	1.360701	1.070499
C139	C	0.722049	0.527723	0.436681
C140	C	1.222049	1.027723	0.936681
C141	C	0.722033	0.473121	0.436683
C142	C	1.222033	0.973121	0.936683
C143	C	0.788873	0.473023	0.570475
C144	C	1.288873	0.973023	1.070475
C145	C	0.788887	0.527626	0.570477
C146	C	1.288887	1.027626	1.070477
C147	C	0.755475	0.554976	0.503575
C148	C	1.255475	1.054976	1.003575
C149	C	0.788976	0.975366	0.570510
C150	C	1.288976	1.475366	1.070510
C151	C	0.788981	1.029971	0.570515
C152	C	1.288981	1.529971	1.070515
C153	C	0.722143	1.030064	0.436720
C154	C	1.222143	1.530064	0.936720
C155	C	0.722135	0.975464	0.436718
C156	C	1.222135	1.475464	0.936718
C157	C	0.755556	0.948116	0.503617
C158	C	1.255556	1.448116	1.003617
O159	O	0.693709	0.889123	0.379879
O160	O	1.193709	1.389123	0.879879
O161	O	0.817390	0.888902	0.627379
O162	O	1.317390	1.388902	1.127379
C163	C	0.891894	0.251813	0.503618
C164	C	1.391894	0.751813	1.003618
C165	C	0.950008	0.251814	0.503636
C166	C	1.450008	0.751814	1.003636
C167	C	0.755556	0.251759	0.776146
C168	C	1.255556	0.751759	1.276146
C169	C	0.755571	0.251737	0.892299
C170	C	1.255571	0.751737	1.392299
C171	C	0.755597	1.115436	0.503620
C172	C	1.255597	1.615436	1.003620
C173	C	0.755569	1.057322	0.503623
C174	C	1.255569	1.557322	1.003623
C175	C	0.755515	0.251821	0.232066
C176	C	1.255515	0.751821	0.732066
C177	C	0.755601	0.251695	0.115913
C178	C	1.255601	0.751695	0.615913
C179	C	0.787377	0.219953	0.944105
C180	C	1.287377	0.719953	1.444105
C181	C	0.787393	0.219930	1.064156
C182	C	1.287393	0.719930	1.564156
H183	H	0.457355	0.312413	0.382099
H184	H	0.957355	0.812413	0.882099
F185	F	0.720010	0.287268	1.057691
F186	F	1.220010	0.787268	1.557691
F187	F	0.719992	0.287281	0.950489
F188	F	1.219992	0.787281	1.450489
F189	F	0.060883	0.320757	0.365405
F190	F	0.560883	0.820757	0.865405
H191	H	0.814593	0.192756	0.899582
H192	H	1.314593	0.692756	1.399582
H193	H	0.694837	0.549988	0.382203
H194	H	1.194837	1.049988	0.882203
F195	F	0.563239	0.320757	0.365345
F196	F	1.063239	0.820757	0.865345
F197	F	0.061050	0.182866	0.641830
F198	F	0.561050	0.682866	1.141830
H199	H	0.816101	0.549809	0.624963
H200	H	1.316101	1.049809	1.124963
H201	H	0.206162	0.345793	0.315154
H202	H	0.706162	0.845793	0.815154
F203	F	0.824436	0.443904	0.641663
F204	F	1.324436	0.943904	1.141663
F205	F	0.312028	0.354138	0.298398
F206	F	0.812028	0.854138	0.798398
H207	H	0.556561	0.191223	0.625014
H208	H	1.056561	0.691223	1.125014
F209	F	0.450696	0.182861	0.641762
F210	F	0.950696	0.682861	1.141762
H211	H	0.305424	0.157818	0.691993
H212	H	0.805424	0.657818	1.191993
F213	F	-0.051668	0.182870	0.641836
F214	F	0.448332	0.682870	1.141836
F215	F	0.199564	0.149465	0.708745
F216	F	0.699564	0.649465	1.208745
H217	H	0.816191	0.953105	0.624984
H218	H	1.316191	1.453105	1.124984
F219	F	0.824555	1.058969	0.641732
F220	F	1.324555	1.558969	1.141732
F221	F	0.857912	0.695046	0.708582
F222	F	1.357912	1.195046	1.208582
H223	H	0.849578	0.800929	0.691862
H224	H	1.349578	1.300929	1.191862
F225	F	-0.051818	0.320764	0.365441
F226	F	0.448182	0.820764	0.865441
F227	F	0.653099	0.695361	0.298574
F228	F	1.153099	1.195361	0.798574
H229	H	0.661487	0.801223	0.315304
H230	H	1.161487	1.301223	0.815304
F231	F	0.686450	0.444125	0.365488
F232	F	1.186450	0.944125	0.865488
F233	F	0.686560	0.946461	0.365514
F234	F	1.186560	1.446461	0.865514
H235	H	0.814625	0.192720	1.108708
H236	H	1.314625	0.692720	1.608708
H237	H	0.694938	1.052343	0.382261
H238	H	1.194938	1.552343	0.882261
