data_functionalizedCrystal
_audit_creation_method	'MofGen! by Chris Wilmer'
_symmetry_space_group_name_H-M	'P1'
_symmetry_Int_Tables_number	1
_symmetry_cell_setting	triclinic
loop_
_symmetry_equiv_pos_as_xyz
  x,y,z
_cell_length_a	19.805407
_cell_length_b	12.645330
_cell_length_c	19.805399
_cell_angle_alpha	89.978279
_cell_angle_beta	89.980427
_cell_angle_gamma	90.017692
loop_
_atom_site_label
_atom_site_type_symbol
_atom_site_fract_x
_atom_site_fract_y
_atom_site_fract_z
Zn1	Zn	1.034777	-0.422064	-0.382747
Zn2	Zn	1.534777	0.077936	0.117253
Zn3	Zn	1.034709	-0.599342	-0.269571
Zn4	Zn	1.534709	-0.099342	0.230429
Zn5	Zn	0.921591	-0.422093	-0.269572
Zn6	Zn	1.421591	0.077907	0.230428
Zn7	Zn	0.921572	-0.599286	-0.382717
Zn8	Zn	1.421572	-0.099286	0.117283
O9	O	0.978162	-0.510696	-0.326152
O10	O	1.478162	-0.010696	0.173848
O11	O	1.129484	-0.445592	-0.367746
O12	O	1.629484	0.054408	0.132254
O13	O	1.019683	-0.575865	-0.174854
O14	O	1.519683	-0.075865	0.325146
O15	O	0.936642	-0.273742	-0.284598
O16	O	1.436642	0.226258	0.215402
O17	O	1.129434	-0.575837	-0.284596
O18	O	1.629434	-0.075837	0.215404
O19	O	1.019799	-0.273721	-0.367747
O20	O	1.519799	0.226279	0.132253
O21	O	0.936576	-0.445641	-0.174855
O22	O	1.436576	0.054359	0.325145
O23	O	0.826872	-0.445587	-0.284569
O24	O	1.326872	0.054413	0.215431
O25	O	0.936609	-0.575741	-0.477438
O26	O	1.436609	-0.075741	0.022562
O27	O	0.826858	-0.575769	-0.367696
O28	O	1.326858	-0.075769	0.132304
O29	O	1.019780	-0.445537	-0.477460
O30	O	1.519780	0.054463	0.022540
O31	O	1.019664	-0.747682	-0.284567
O32	O	1.519664	-0.247682	0.215433
O33	O	0.936543	-0.747641	-0.367695
O34	O	1.436543	-0.247641	0.132305
C35	C	0.802306	-0.510676	-0.326130
C36	C	1.302306	-0.010676	0.173870
C37	C	0.727074	-0.510693	-0.326137
C38	C	1.227074	-0.010693	0.173863
C39	C	0.978113	-0.786126	-0.326142
C40	C	1.478113	-0.286126	0.173858
C41	C	0.978154	-0.903956	-0.326161
C42	C	1.478154	-0.403956	0.173839
C43	C	0.691740	-0.578581	-0.369351
C44	C	1.191740	-0.078581	0.130649
C45	C	0.621052	-0.578583	-0.369361
C46	C	1.121052	-0.078583	0.130639
C47	C	0.585699	-0.510701	-0.326152
C48	C	1.085699	-0.010701	0.173848
C49	C	0.621037	-0.442805	-0.282935
C50	C	1.121037	0.057195	0.217065
C51	C	0.691725	-0.442799	-0.282930
C52	C	1.191725	0.057201	0.217070
C53	C	0.335964	-0.442829	-0.282958
C54	C	0.835964	0.057171	0.217042
C55	C	0.265272	-0.442843	-0.282965
C56	C	0.765272	0.057157	0.217035
C57	C	0.265292	-0.578613	-0.369388
C58	C	0.765292	-0.078613	0.130612
C59	C	0.335979	-0.578606	-0.369383
C60	C	0.835979	-0.078606	0.130617
C61	C	0.371311	-0.510707	-0.326169
C62	C	0.871311	-0.010707	0.173831
C63	C	0.447960	-0.510705	-0.326160
C64	C	0.947960	-0.010705	0.173840
C65	C	0.509051	-0.510708	-0.326157
C66	C	1.009051	-0.010708	0.173843
C67	C	0.926078	-1.071538	-0.378618
C68	C	1.426078	-0.571538	0.121382
C69	C	0.925811	-0.948979	-0.378450
C70	C	1.425811	-0.448979	0.121550
C71	C	0.958847	-0.948544	-0.254828
C72	C	1.458847	-0.448544	0.245172
C73	C	0.958530	-1.071142	-0.255147
C74	C	1.458530	-0.571142	0.244853
C75	C	1.049854	-1.071047	-0.344457
C76	C	1.549854	-0.571047	0.155543
C77	C	1.049415	-0.948440	-0.346017
C78	C	1.549415	-0.448440	0.153983
C79	C	1.154705	-0.510717	-0.326174
C80	C	1.654705	-0.010717	0.173826
C81	C	1.229937	-0.510726	-0.326184
C82	C	1.729937	-0.010726	0.173816
C83	C	0.978200	-0.510629	-0.502695
C84	C	1.478200	-0.010629	-0.002695
C85	C	0.978216	-0.510601	-0.577927
C86	C	1.478216	-0.010601	-0.077927
C87	C	0.978230	-0.234191	-0.326176
C88	C	1.478230	0.265809	0.173824
C89	C	0.978259	-0.116361	-0.326186
C90	C	1.478259	0.383639	0.173814
C91	C	1.021524	-0.442800	-0.613283
C92	C	1.521524	0.057200	-0.113283
C93	C	1.021531	-0.442770	-0.683972
C94	C	1.521531	0.057230	-0.183972
C95	C	0.978233	-0.510546	-0.719302
C96	C	1.478233	-0.010546	-0.219302
C97	C	0.934920	-0.578349	-0.683941
C98	C	1.434920	-0.078349	-0.183941
C99	C	0.934910	-0.578374	-0.613253
C100	C	1.434910	-0.078374	-0.113253
C101	C	0.934958	-0.578250	-0.969014
C102	C	1.434958	-0.078250	-0.469014
C103	C	0.934973	-0.578223	-1.039706
C104	C	1.434973	-0.078223	-0.539706
C105	C	1.021579	-0.442646	-1.039732
C106	C	1.521579	0.057354	-0.539732
C107	C	1.021570	-0.442671	-0.969045
C108	C	1.521570	0.057329	-0.469045
C109	C	0.978255	-0.510470	-0.933690
C110	C	1.478255	-0.010470	-0.433690
C111	C	0.978247	-0.510501	-0.857041
C112	C	1.478247	-0.010501	-0.357041
C113	C	0.978244	-0.510521	-0.795949
C114	C	1.478244	-0.010521	-0.295949
C115	C	0.978163	-0.510686	-0.150296
C116	C	1.478163	-0.010686	0.349704
C117	C	0.978278	-0.510416	-0.075064
C118	C	1.478278	-0.010416	0.424936
H119	H	0.720520	-0.633862	-0.404534
H120	H	1.220520	-0.133862	0.095466
Br121	Br	0.838167	-1.123066	-0.358719
Br122	Br	1.338167	-0.623066	0.141281
Br123	Br	1.073685	-0.899866	-0.433517
Br124	Br	1.573685	-0.399866	0.066483
H125	H	1.056799	-0.387562	-0.712756
H126	H	1.556799	0.112438	-0.212756
H127	H	0.364760	-0.633886	-0.404566
H128	H	0.864760	-0.133886	0.095434
H129	H	1.056830	-0.387484	-0.940283
H130	H	1.556830	0.112516	-0.440283
H131	H	0.899699	-0.633472	-0.940236
H132	H	1.399699	-0.133472	-0.440236
Br133	Br	1.080365	-0.350629	-1.087718
Br134	Br	1.580365	0.149371	-0.587718
Br135	Br	0.573059	-0.350669	-0.224300
Br136	Br	1.073059	0.149331	0.275700
H137	H	1.090340	-0.917787	-0.310610
H138	H	1.590340	-0.417787	0.189390
Br139	Br	0.876153	-0.670326	-0.731888
Br140	Br	1.376153	-0.170326	-0.231888
H141	H	1.067466	-1.101895	-0.395589
H142	H	1.567466	-0.601895	0.104411
H143	H	0.899638	-0.633574	-0.584467
H144	H	1.399638	-0.133574	-0.084467
H145	H	0.236515	-0.633895	-0.404578
H146	H	0.736515	-0.133895	0.095422
Br147	Br	0.573101	-0.670718	-0.428013
Br148	Br	1.073101	-0.170718	0.071987
Br149	Br	1.020185	-0.899946	-0.187933
Br150	Br	1.520185	-0.399946	0.312067
Br151	Br	0.876208	-0.670213	-1.087655
Br152	Br	1.376208	-0.170213	-0.587655
H153	H	0.907057	-0.917931	-0.239071
H154	H	1.407057	-0.417931	0.260929
Br155	Br	0.383907	-0.350674	-0.224315
Br156	Br	0.883907	0.149326	0.275685
H157	H	0.236489	-0.387559	-0.247779
H158	H	0.736489	0.112441	0.252221
Br159	Br	0.739679	-0.350656	-0.224283
Br160	Br	1.239679	0.149344	0.275717
H161	H	1.088731	-1.100032	-0.306269
H162	H	1.588731	-0.600032	0.193731
H163	H	1.056785	-0.387612	-0.584522
H164	H	1.556785	0.112388	-0.084522
H165	H	0.937890	-0.918829	-0.431342
H166	H	1.437890	-0.418829	0.068658
Br167	Br	0.946020	-1.120569	-0.467069
Br168	Br	1.446020	-0.620569	0.032931
H169	H	0.906193	-1.099832	-0.239669
H170	H	1.406193	-0.599832	0.260331
Br171	Br	0.837344	-0.900240	-0.358280
Br172	Br	1.337344	-0.400240	0.141720
H173	H	0.994887	-1.100796	-0.214749
H174	H	1.494887	-0.600796	0.285251
