data_functionalizedCrystal
_audit_creation_method	'MofGen! by Chris Wilmer'
_symmetry_space_group_name_H-M	'P1'
_symmetry_Int_Tables_number	1
_symmetry_cell_setting	triclinic
loop_
_symmetry_equiv_pos_as_xyz
  x,y,z
_cell_length_a	18.215407
_cell_length_b	18.215405
_cell_length_c	18.215399
_cell_angle_alpha	90.030970
_cell_angle_beta	90.019350
_cell_angle_gamma	90.025333
loop_
_atom_site_label
_atom_site_type_symbol
_atom_site_fract_x
_atom_site_fract_y
_atom_site_fract_z
Zn1	Zn	1.125068	-0.292980	0.416103
Zn2	Zn	1.458402	0.040353	0.749436
Zn3	Zn	1.791735	0.373687	1.082769
Zn4	Zn	1.124978	-0.416052	0.293031
Zn5	Zn	1.458311	-0.082719	0.626364
Zn6	Zn	1.791645	0.250615	0.959697
Zn7	Zn	1.002002	-0.293005	0.293050
Zn8	Zn	1.335335	0.040328	0.626383
Zn9	Zn	1.668669	0.373662	0.959717
Zn10	Zn	1.001967	-0.416010	0.416056
Zn11	Zn	1.335300	-0.082677	0.749389
Zn12	Zn	1.668634	0.250656	1.082722
O13	O	1.063504	-0.354512	0.354560
O14	O	1.396837	-0.021179	0.687893
O15	O	1.730170	0.312155	1.021226
O16	O	1.228041	-0.309313	0.399788
O17	O	1.561374	0.024020	0.733122
O18	O	1.894707	0.357354	1.066455
O19	O	1.108642	-0.399758	0.190049
O20	O	1.441975	-0.066424	0.523382
O21	O	1.775308	0.266909	0.856716
O22	O	1.018380	-0.190017	0.309401
O23	O	1.351713	0.143316	0.642734
O24	O	1.685046	0.476649	0.976067
O25	O	1.227974	-0.399733	0.309368
O26	O	1.561307	-0.066400	0.642701
O27	O	1.894641	0.266933	0.976035
O28	O	1.108796	-0.189999	0.399807
O29	O	1.442129	0.143334	0.733140
O30	O	1.775463	0.476668	1.066474
O31	O	1.018292	-0.309355	0.190063
O32	O	1.351625	0.023978	0.523396
O33	O	1.684959	0.357311	0.856730
O34	O	0.899013	-0.309315	0.309355
O35	O	1.232346	0.024019	0.642689
O36	O	1.565680	0.357352	0.976022
O37	O	1.018320	-0.399662	0.519046
O38	O	1.351653	-0.066329	0.852379
O39	O	1.684986	0.267005	1.185713
O40	O	0.898987	-0.399686	0.399727
O41	O	1.232321	-0.066353	0.733060
O42	O	1.565654	0.266980	1.066394
O43	O	1.108762	-0.309272	0.519081
O44	O	1.442095	0.024061	0.852414
O45	O	1.775429	0.357394	1.185747
O46	O	1.108608	-0.519031	0.309322
O47	O	1.441941	-0.185698	0.642656
O48	O	1.775274	0.147636	0.975989
O49	O	1.018232	-0.519000	0.399708
O50	O	1.351565	-0.185667	0.733042
O51	O	1.684899	0.147667	1.066375
C52	C	0.872298	-0.354499	0.354539
C53	C	1.205631	-0.021166	0.687872
C54	C	1.538964	0.312167	1.021205
C55	C	0.790499	-0.354512	0.354547
C56	C	1.123832	-0.021178	0.687880
C57	C	1.457165	0.312155	1.021214
C58	C	0.602311	-0.401642	0.401544
C59	C	0.935644	-0.068309	0.734878
C60	C	1.268977	0.265025	1.068211
C61	C	0.525452	-0.401644	0.401554
C62	C	0.858785	-0.068311	0.734887
C63	C	1.192118	0.265022	1.068220
C64	C	0.525449	-0.307395	0.307591
C65	C	0.858782	0.025938	0.640924
C66	C	1.192116	0.359272	0.974258
C67	C	0.602306	-0.307390	0.307586
C68	C	0.935640	0.025944	0.640919
C69	C	1.268973	0.359277	0.974253
C70	C	0.640735	-0.354517	0.354562
C71	C	0.974068	-0.021184	0.687895
C72	C	1.307402	0.312149	1.021228
C73	C	0.487019	-0.354525	0.354576
C74	C	0.820352	-0.021192	0.687909
C75	C	1.153686	0.312142	1.021242
C76	C	0.403685	-0.354527	0.354585
C77	C	0.737019	-0.021194	0.687919
C78	C	1.070352	0.312140	1.021252
C79	C	0.724074	-0.354514	0.354553
C80	C	1.057407	-0.021181	0.687887
C81	C	1.390741	0.312152	1.021220
C82	C	1.063426	-0.545718	0.354524
C83	C	1.396759	-0.212385	0.687858
C84	C	1.730093	0.120948	1.021191
C85	C	1.063460	-0.627517	0.354534
C86	C	1.396794	-0.294184	0.687867
C87	C	1.730127	0.039150	1.021200
C88	C	1.110629	-0.815702	0.307556
C89	C	1.443963	-0.482369	0.640890
C90	C	1.777296	-0.149036	0.974223
C91	C	1.110662	-0.892561	0.307574
C92	C	1.443996	-0.559228	0.640908
C93	C	1.777329	-0.225895	0.974241
C94	C	1.016473	-0.892569	0.401616
C95	C	1.349806	-0.559236	0.734949
C96	C	1.683139	-0.225902	1.068283
C97	C	1.016444	-0.815712	0.401601
C98	C	1.349777	-0.482378	0.734935
C99	C	1.683111	-0.149045	1.068268
C100	C	1.063521	-0.777280	0.354567
C101	C	1.396854	-0.443947	0.687901
C102	C	1.730188	-0.110614	1.021234
C103	C	1.063583	-0.930997	0.354600
C104	C	1.396916	-0.597663	0.687933
C105	C	1.730249	-0.264330	1.021266
C106	C	1.063618	-1.014330	0.354619
C107	C	1.396951	-0.680997	0.687953
C108	C	1.730285	-0.347664	1.021286
C109	C	1.063487	-0.693942	0.354548
C110	C	1.396820	-0.360608	0.687882
C111	C	1.730154	-0.027275	1.021215
C112	C	1.255457	-0.354525	0.354581
C113	C	1.588790	-0.021192	0.687915
C114	C	1.922123	0.312142	1.021248
C115	C	1.337256	-0.354531	0.354591
C116	C	1.670589	-0.021197	0.687924
C117	C	2.003922	0.312136	1.021257
C118	C	1.063547	-0.354460	0.546513
C119	C	1.396880	-0.021126	0.879846
C120	C	1.730214	0.312207	1.213179
C121	C	1.063565	-0.354437	0.628312
C122	C	1.396899	-0.021104	0.961645
C123	C	1.730232	0.312229	1.294978
C124	C	1.063602	-0.162559	0.354611
C125	C	1.396935	0.170774	0.687945
C126	C	1.730269	0.504108	1.021278
C127	C	1.063644	-0.080760	0.354633
C128	C	1.396977	0.252573	0.687967
C129	C	1.730310	0.585907	1.021300
C130	C	1.063503	-0.354511	0.163353
C131	C	1.396836	-0.021177	0.496687
C132	C	1.730170	0.312156	0.830020
C133	C	1.063627	-0.354326	0.081555
C134	C	1.396961	-0.020992	0.414888
C135	C	1.730294	0.312341	0.748222
C136	C	1.110686	-0.307308	0.893389
C137	C	1.444019	0.026025	1.226722
C138	C	1.777353	0.359359	1.560055
C139	C	1.110677	-0.307328	0.816530
C140	C	1.444011	0.026005	1.149863
C141	C	1.777344	0.359339	1.483196
C142	C	1.016505	-0.401460	0.816483
C143	C	1.349838	-0.068127	1.149817
C144	C	1.683171	0.265206	1.483150
C145	C	1.016518	-0.401444	0.893341
C146	C	1.349851	-0.068110	1.226674
C147	C	1.683184	0.265223	1.560008
C148	C	1.063607	-0.354363	0.931791
C149	C	1.396941	-0.021030	1.265125
C150	C	1.730274	0.312303	1.598458
C151	C	1.063586	-0.354400	0.778075
C152	C	1.396919	-0.021067	1.111409
C153	C	1.730252	0.312267	1.444742
C154	C	1.063576	-0.354422	0.694742
C155	C	1.396909	-0.021088	1.028075
C156	C	1.730242	0.312245	1.361408
C157	C	1.063618	-0.354342	1.015130
C158	C	1.396951	-0.021009	1.348464
C159	C	1.730285	0.312325	1.681797
H160	H	0.633593	-0.269010	0.269327
H161	H	0.966926	0.064323	0.602660
H162	H	1.300259	0.397656	0.935994
N163	N	1.161475	-0.256529	0.934855
N164	N	1.494809	0.076805	1.268188
N165	N	1.828142	0.410138	1.601522
H166	H	1.214050	-0.267962	0.921485
H167	H	1.547383	0.065371	1.254818
H168	H	1.880717	0.398704	1.588152
H169	H	1.154280	-0.263675	0.989359
H170	H	1.487613	0.069658	1.322692
H171	H	1.820946	0.402992	1.656026
N172	N	1.161406	-0.774250	0.256833
N173	N	1.494739	-0.440916	0.590166
N174	N	1.828073	-0.107583	0.923500
H175	H	1.191255	-0.810256	0.227057
H176	H	1.524588	-0.476922	0.560390
H177	H	1.857922	-0.143589	0.893723
H178	H	1.195431	-0.742312	0.286818
H179	H	1.528764	-0.408979	0.620152
H180	H	1.862098	-0.075645	0.953485
N181	N	0.643756	-0.452470	0.452211
N182	N	0.977090	-0.119137	0.785545
N183	N	1.310423	0.214196	1.118878
H184	H	0.630407	-0.441105	0.504814
H185	H	0.963741	-0.107772	0.838148
H186	H	1.297074	0.225561	1.171481
H187	H	0.698263	-0.445297	0.445017
H188	H	1.031596	-0.111964	0.778350
H189	H	1.364930	0.221370	1.111683
N190	N	1.161457	-0.256579	0.775109
N191	N	1.494791	0.076755	1.108442
N192	N	1.828124	0.410088	1.441775
H193	H	1.191289	-0.226754	0.811132
H194	H	1.524622	0.106580	1.144465
H195	H	1.857955	0.439913	1.477798
H196	H	1.131512	-0.222529	0.743223
H197	H	1.464846	0.110804	1.076556
H198	H	1.798179	0.444137	1.409890
N199	N	0.965716	-0.452236	0.775012
N200	N	1.299049	-0.118903	1.108345
N201	N	1.632383	0.214430	1.441678
H202	H	0.972849	-0.445106	0.720495
H203	H	1.306182	-0.111773	1.053829
H204	H	1.639516	0.221561	1.387162
H205	H	0.913164	-0.440779	0.788442
H206	H	1.246498	-0.107445	1.121776
H207	H	1.579831	0.225888	1.455109
N208	N	0.965625	-0.774267	0.452303
N209	N	1.298958	-0.440934	0.785637
N210	N	1.632292	-0.107600	1.118970
H211	H	0.972753	-0.719747	0.445157
H212	H	1.306086	-0.386414	0.778491
H213	H	1.639420	-0.053080	1.111824
H214	H	0.977049	-0.787652	0.504877
H215	H	1.310383	-0.454318	0.838211
H216	H	1.643716	-0.120985	1.171544
H217	H	0.978143	-0.923869	0.439908
H218	H	1.311476	-0.590536	0.773241
H219	H	1.644809	-0.257203	1.106575
N220	N	0.484007	-0.452475	0.452224
N221	N	0.817340	-0.119141	0.785558
N222	N	1.150674	0.214192	1.118891
H223	H	0.520016	-0.482328	0.481979
H224	H	0.853350	-0.148995	0.815312
H225	H	1.186683	0.184339	1.148646
H226	H	0.452094	-0.486494	0.422205
H227	H	0.785428	-0.153160	0.755538
H228	H	1.118761	0.180173	1.088871
N229	N	0.484001	-0.256586	0.256907
N230	N	0.817334	0.076747	0.590240
N231	N	1.150668	0.410081	0.923574
H232	H	0.429481	-0.263747	0.264031
H233	H	0.762814	0.069587	0.597364
H234	H	1.096148	0.402920	0.930697
H235	H	0.497422	-0.267993	0.204333
H236	H	0.830755	0.065341	0.537667
H237	H	1.164088	0.398674	0.871000
N238	N	1.161473	-0.934003	0.256872
N239	N	1.494806	-0.600670	0.590205
N240	N	1.828140	-0.267336	0.923538
H241	H	1.191290	-0.897992	0.227076
H242	H	1.524623	-0.564659	0.560409
H243	H	1.857957	-0.231325	0.893743
H244	H	1.131550	-0.965943	0.222793
H245	H	1.464884	-0.632610	0.556126
H246	H	1.798217	-0.299277	0.889460
H247	H	0.978180	-0.439766	0.924609
H248	H	1.311513	-0.106432	1.257943
H249	H	1.644847	0.226901	1.591276
