data_functionalizedCrystal
_audit_creation_method	'MofGen! by Chris Wilmer'
_symmetry_space_group_name_H-M	'P1'
_symmetry_Int_Tables_number	1
_symmetry_cell_setting	triclinic
loop_
_symmetry_equiv_pos_as_xyz
  x,y,z
_cell_length_a	16.120530
_cell_length_b	29.839131
_cell_length_c	16.120297
_cell_angle_alpha	92.867727
_cell_angle_beta	90.128140
_cell_angle_gamma	87.136742
loop_
_atom_site_label
_atom_site_type_symbol
_atom_site_fract_x
_atom_site_fract_y
_atom_site_fract_z
Zn1	Zn	1.247310	-0.227600	-0.534529
Zn2	Zn	1.254220	-0.299116	-0.395460
Zn3	Zn	1.115305	-0.220008	-0.388448
Zn4	Zn	1.108176	-0.298702	-0.527429
O5	O	1.181253	-0.261356	-0.461466
O6	O	1.364591	-0.240437	-0.521987
O7	O	1.241667	-0.285618	-0.278165
O8	O	1.132907	-0.158152	-0.407863
O9	O	1.369668	-0.292979	-0.419813
O10	O	1.229891	-0.163729	-0.515187
O11	O	1.139607	-0.227498	-0.273013
O12	O	0.997995	-0.227097	-0.400978
O13	O	1.120758	-0.292274	-0.644736
O14	O	0.992758	-0.284913	-0.503087
O15	O	1.222979	-0.240035	-0.649952
O16	O	1.234755	-0.361925	-0.412929
O17	O	1.127458	-0.361621	-0.509886
C18	C	0.965204	-0.255137	-0.450502
C19	C	0.872777	-0.252487	-0.445831
C20	C	1.181105	-0.378074	-0.461418
C21	C	1.181116	-0.428009	-0.461428
C22	C	0.703550	-0.247640	-0.437311
C23	C	0.659793	-0.275108	-0.485683
C24	C	0.565629	-0.272411	-0.480942
C25	C	0.797722	-0.250336	-0.442050
C26	C	1.237215	-0.737807	-0.411063
C27	C	1.237316	-0.925484	-0.411101
O28	O	1.284896	-0.949877	-0.368241
N29	N	1.181422	-0.948805	-0.461538
C30	C	1.125502	-0.925204	-0.511973
O31	O	1.077969	-0.949347	-0.554880
C32	C	1.125406	-0.737528	-0.511940
C33	C	1.181298	-0.714210	-0.461493
C34	C	1.293104	-0.714488	-0.360622
C35	C	1.293075	-0.667572	-0.360609
C36	C	1.237158	-0.643974	-0.411039
C37	C	1.181269	-0.667293	-0.461481
C38	C	1.069491	-0.713929	-0.562379
C39	C	1.069473	-0.667007	-0.562367
C40	C	1.125365	-0.643688	-0.511921
C41	C	1.125323	-0.596779	-0.511898
N42	N	1.181217	-0.573458	-0.461461
C43	C	1.237135	-0.597055	-0.411031
C44	C	1.125556	-1.023737	-0.511986
C45	C	1.125579	-1.070655	-0.511994
C46	C	1.237394	-1.070932	-0.411122
C47	C	1.237366	-1.024012	-0.411111
C48	C	1.181450	-1.000416	-0.461549
C49	C	1.237069	-0.498527	-0.411009
C50	C	1.237033	-0.451606	-0.410999
C51	C	1.125221	-0.451334	-0.511873
C52	C	1.125254	-0.498251	-0.511880
C53	C	1.181185	-0.521846	-0.461446
O54	O	1.077774	-0.572358	-0.554742
O55	O	1.284673	-0.572905	-0.368145
C56	C	1.237244	-0.784724	-0.411076
C57	C	1.181356	-0.808043	-0.461517
C58	C	1.125439	-0.784445	-0.511947
C59	C	1.181379	-0.854961	-0.461525
C60	C	1.237296	-0.878559	-0.411095
C61	C	1.293190	-0.855238	-0.360658
C62	C	1.293161	-0.808322	-0.360646
C63	C	1.069544	-0.807766	-0.562384
C64	C	1.069577	-0.854683	-0.562391
C65	C	1.125494	-0.878280	-0.511962
C66	C	1.398145	-0.267601	-0.472474
C67	C	1.490571	-0.270262	-0.477165
C68	C	1.170302	-0.266955	-0.678360
C69	C	1.165636	-0.269341	-0.770787
C70	C	1.181423	-0.144185	-0.461535
C71	C	1.181496	-0.094253	-0.461564
C72	C	1.157086	-0.273687	-0.940011
C73	C	1.205584	-0.248896	-0.983782
C74	C	1.200826	-0.251314	-1.077944
C75	C	1.161842	-0.271269	-0.845840
C76	C	1.192208	-0.255748	-0.245419
C77	C	1.197036	-0.253240	-0.153001
H78	H	0.670294	-0.222100	-0.392340
N79	N	1.294130	-0.427794	-0.359457
N80	N	1.344051	-0.448873	-0.314436
H81	H	1.384375	-0.432057	-0.278035
N82	N	1.350213	-0.738587	-0.309087
N83	N	1.323686	-0.762579	-0.254588
H84	H	1.364018	-0.779595	-0.218183
H85	H	1.079744	-0.517238	-0.552961
H86	H	1.024056	-0.873665	-0.603470
H87	H	0.693051	-0.300650	-0.530658
N88	N	1.262172	-0.219998	-0.942099
N89	N	1.307779	-0.196693	-0.983200
H90	H	1.347746	-0.176286	-0.953760
N91	N	1.294204	-0.522618	-0.359486
N92	N	1.344094	-0.501784	-0.314453
H93	H	1.384442	-0.518798	-0.278060
N94	N	1.350175	-0.643763	-0.309075
N95	N	1.400094	-0.664846	-0.264058
H96	H	1.440426	-0.648034	-0.227661
N97	N	1.100522	-0.302585	-0.981720
N98	N	1.096695	-0.304531	-1.059262
H99	H	1.056749	-0.324941	-1.088729
N100	N	1.294462	-1.000202	-0.359574
N101	N	1.344377	-1.021282	-0.314550
H102	H	1.384705	-1.004468	-0.278150
N103	N	1.294504	-1.095048	-0.359610
N104	N	1.294510	-1.136939	-0.359631
H105	H	1.334844	-1.153974	-0.323256
N106	N	1.068468	-1.094464	-0.563514
N107	N	1.018548	-1.073384	-0.608534
H108	H	0.978213	-1.090197	-0.644925
H109	H	1.080020	-1.004527	-0.553060
N110	N	1.012431	-0.783668	-0.613912
N111	N	1.014014	-0.791032	-0.690924
H112	H	0.973673	-0.774014	-0.727318
N113	N	1.012391	-0.737734	-0.613914
N114	N	0.962479	-0.716650	-0.658937
H115	H	0.922149	-0.733461	-0.695339
H116	H	1.023940	-0.647797	-0.603443
N117	N	1.068104	-0.427217	-0.563371
N118	N	1.068094	-0.385326	-0.563347
H119	H	1.027757	-0.368292	-0.599720
H120	H	1.338718	-0.874459	-0.319594
N121	N	1.350258	-0.784512	-0.309108
N122	N	1.400175	-0.805595	-0.264089
H123	H	1.440503	-0.788783	-0.227687
