data_functionalizedCrystal
_audit_creation_method	'MofGen! by Chris Wilmer'
_symmetry_space_group_name_H-M	'P1'
_symmetry_Int_Tables_number	1
_symmetry_cell_setting	triclinic
loop_
_symmetry_equiv_pos_as_xyz
  x,y,z
_cell_length_a	27.780903
_cell_length_b	27.780865
_cell_length_c	27.780936
_cell_angle_alpha	59.997462
_cell_angle_beta	89.997230
_cell_angle_gamma	59.999919
loop_
_atom_site_label
_atom_site_type_symbol
_atom_site_fract_x
_atom_site_fract_y
_atom_site_fract_z
O1	O	0.330211	0.424595	-0.014328
O2	O	0.260213	0.326025	0.014245
O3	O	0.260212	0.424592	-0.084324
O4	O	0.330211	0.326029	0.084241
O5	O	0.340272	0.344532	-0.084324
O6	O	0.340273	0.245965	0.014246
O7	O	0.410271	0.344535	-0.014328
Zn8	Zn	0.387983	0.282539	-0.000041
Zn9	Zn	0.282501	0.388022	-0.000041
O10	O	0.410271	0.245968	0.084242
C11	C	0.462876	0.580013	-0.029974
C12	C	0.433171	0.639422	-0.025888
C13	C	0.520806	0.551186	-0.030383
C14	C	0.462878	0.492843	-0.029968
C15	C	0.433175	0.459049	-0.025877
C16	C	0.520808	0.464148	-0.030377
C17	C	0.550042	0.492847	-0.029973
C18	C	0.613537	0.459056	-0.025887
C19	C	0.433774	0.551183	-0.030377
C20	C	0.664834	0.431757	-0.022585
C21	C	0.409173	0.687417	-0.022586
C22	C	0.409179	0.431746	-0.022570
C23	C	0.729189	0.397508	-0.018443
C24	C	0.379067	0.747630	-0.018444
C25	C	0.379075	0.397494	-0.018422
C26	C	0.120429	0.177735	0.029859
C27	C	0.056933	0.211528	0.025770
C28	C	0.149663	0.119398	0.030265
C29	C	0.207597	0.177732	0.029864
C30	C	0.237302	0.211521	0.025779
C31	C	0.236699	0.119395	0.030269
C32	C	0.207595	0.090569	0.029859
C33	C	0.237298	0.031163	0.025769
C34	C	0.149665	0.206429	0.030270
C35	C	0.261295	-0.016830	0.022464
C36	C	0.005635	0.238830	0.022465
C37	C	0.261300	0.238820	0.022478
C38	C	0.291400	-0.077040	0.018318
C39	C	-0.058720	0.273081	0.018320
C40	C	0.291407	0.273068	0.018337
C41	C	0.207601	0.492832	-0.372400
C42	C	0.237305	0.459040	-0.402104
C43	C	0.149670	0.551170	-0.401502
C44	C	0.207601	0.492832	-0.285234
C45	C	0.237305	0.459040	-0.221739
C46	C	0.149671	0.551170	-0.314469
C47	C	0.120435	0.579998	-0.372399
C48	C	0.056941	0.639405	-0.402102
C49	C	0.236704	0.464136	-0.314470
C50	C	0.005643	0.687399	-0.426098
C51	C	0.261301	0.431739	-0.426101
C52	C	0.261302	0.431739	-0.170441
C53	C	-0.058712	0.747610	-0.456203
C54	C	0.291407	0.397490	-0.456207
C55	C	0.291407	0.397489	-0.106086
O56	O	0.919518	0.245977	0.014229
O57	O	0.750952	0.344549	-0.014348
O58	O	0.849507	0.245987	0.084223
O59	O	0.820963	0.344540	-0.084342
O60	O	0.849505	0.326050	0.084218
O61	O	0.750950	0.424613	-0.014354
O62	O	0.919516	0.326041	0.014224
Zn63	Zn	0.835233	0.388039	-0.000066
Zn64	Zn	0.835236	0.282551	-0.000058
O65	O	0.820961	0.424604	-0.084347
O66	O	0.340266	0.905288	0.014229
O67	O	0.410263	0.765297	-0.014348
O68	O	0.410259	0.765284	0.084223
O69	O	0.340270	0.905301	-0.084342
O70	O	0.330196	0.765290	0.084215
O71	O	0.330200	0.765304	-0.014356
O72	O	0.260203	0.905294	0.014221
Zn73	Zn	0.282490	0.835300	-0.000069
Zn74	Zn	0.387976	0.835291	-0.000058
O75	O	0.260207	0.905307	-0.084350
O76	O	-0.249036	0.905278	-0.495000
O77	O	-0.080473	0.765278	-0.425006
O78	O	-0.179035	0.765275	-0.424998
O79	O	-0.150474	0.905282	-0.495008
O80	O	-0.179037	0.765277	-0.505059
O81	O	-0.080475	0.765280	-0.505067
O82	O	-0.249038	0.905280	-0.575061
Zn83	Zn	-0.164757	0.835281	-0.552775
Zn84	Zn	-0.164754	0.835278	-0.447292
O85	O	-0.150476	0.905284	-0.575069
O86	O	0.330216	0.326023	-0.575068
O87	O	0.260213	0.424591	-0.505072
O88	O	0.260215	0.326022	-0.505065
O89	O	0.330214	0.424592	-0.575075
O90	O	0.340274	0.245964	-0.425005
O91	O	0.340271	0.344533	-0.425012
O92	O	0.410275	0.245965	-0.495009
Zn93	Zn	0.387984	0.282538	-0.447299
Zn94	Zn	0.282503	0.388018	-0.552781
O95	O	0.410272	0.344534	-0.495016
C96	C	0.550050	0.090561	0.372316
C97	C	0.613545	0.031154	0.402018
C98	C	0.520815	0.119388	0.401420
C99	C	0.462884	0.177727	0.285152
C100	C	0.433180	0.211519	0.221657
C101	C	0.433781	0.206422	0.314388
C102	C	0.462885	0.177726	0.372318
C103	C	0.433182	0.211517	0.402023
C104	C	0.520814	0.119389	0.314386
C105	C	0.409185	0.238817	0.426020
C106	C	0.664842	-0.016840	0.426014
C107	C	0.409182	0.238820	0.170359
C108	C	0.379080	0.273067	0.456127
C109	C	0.729197	-0.077052	0.456118
C110	C	0.379076	0.273071	0.106004
C111	C	0.865070	0.177791	0.372283
C112	C	0.860976	0.211589	0.401981
C113	C	0.865469	0.119457	0.401387
C114	C	0.865089	0.177777	0.285123
C115	C	0.861016	0.211560	0.221631
C116	C	0.865488	0.119443	0.314360
C117	C	0.865068	0.090624	0.372288
C118	C	0.860972	0.031221	0.401992
C119	C	0.865490	0.206478	0.314355
C120	C	0.857661	-0.016770	0.425989
C121	C	0.857667	0.238895	0.425974
C122	C	0.857723	0.238853	0.170335
C123	C	0.853509	-0.076977	0.456095
C124	C	0.853517	0.273150	0.456075
C125	C	0.853594	0.273094	0.105982
C126	C	0.805397	0.579970	-0.372413
C127	C	0.809489	0.639376	-0.402118
C128	C	0.804999	0.551135	-0.401511
C129	C	0.805379	0.492813	-0.285247
C130	C	0.809453	0.459031	-0.221755
C131	C	0.804982	0.464110	-0.314478
C132	C	0.805402	0.492797	-0.372406
C133	C	0.809500	0.458998	-0.402103
C134	C	0.804976	0.551151	-0.314485
C135	C	0.812812	0.431690	-0.426095
C136	C	0.812796	0.687369	-0.426116
C137	C	0.812745	0.431737	-0.170459
C138	C	0.816966	0.397433	-0.456195
C139	C	0.816944	0.747579	-0.456223
C140	C	0.816874	0.397497	-0.106106
C141	C	0.462852	0.492815	0.372290
C142	C	0.433145	0.459024	0.401989
C143	C	0.520782	0.464115	0.401396
C144	C	0.462858	0.579987	0.285128
C145	C	0.433158	0.639399	0.221634
C146	C	0.520788	0.551153	0.314366
C147	C	0.550021	0.492810	0.372296
C148	C	0.613515	0.459014	0.402003
C149	C	0.433752	0.551158	0.314360
C150	C	0.664813	0.431709	0.426002
C151	C	0.409145	0.431724	0.425983
C152	C	0.409163	0.687398	0.170336
C153	C	0.729167	0.397455	0.456111
C154	C	0.379037	0.397474	0.456085
C155	C	0.379061	0.747615	0.105981
O156	O	0.820834	0.344634	0.574923
O157	O	0.849413	0.246056	0.504936
O158	O	0.750843	0.344636	0.504915
O159	O	0.919404	0.246054	0.574944
O160	O	0.750863	0.424685	0.424858
O161	O	0.849432	0.326105	0.424879
O162	O	0.820854	0.424684	0.494866
Zn163	Zn	0.835146	0.388104	0.447162
Zn164	Zn	0.835121	0.282635	0.552640
O165	O	0.919423	0.326104	0.494887
C166	C	0.120448	1.177781	-0.372424
C167	C	0.056953	1.211578	-0.402131
C168	C	0.149686	1.206477	-0.401523
C169	C	0.207610	1.090605	-0.285255
C170	C	0.237309	1.031192	-0.221761
C171	C	0.236716	1.119432	-0.314486
C172	C	0.207617	1.177776	-0.372416
C173	C	0.237324	1.211566	-0.402115
C174	C	0.149679	1.119438	-0.314494
C175	C	0.261324	1.238866	-0.426109
C176	C	0.005655	1.238883	-0.426130
C177	C	0.261303	0.983193	-0.170463
C178	C	0.291433	1.273115	-0.456210
C179	C	-0.058699	1.273138	-0.456239
C180	C	0.291405	0.922976	-0.106108
H181	H	0.386177	0.575308	-0.031027
H182	H	0.866137	0.253429	0.290880
H183	H	0.544286	0.095251	0.449022
C184	C	0.804231	0.583164	-0.464945
C185	C	0.854402	0.535854	-0.468083
C186	C	0.853710	0.565330	-0.526507
H187	H	0.804084	0.622094	-0.478229
H188	H	0.769878	0.596311	-0.489164
H189	H	0.888745	0.522716	-0.443872
H190	H	0.854560	0.496921	-0.454810
H191	H	0.819358	0.578477	-0.550726
H192	H	0.853561	0.604260	-0.539786
H193	H	0.887747	0.533233	-0.528645
C194	C	0.118287	0.583299	-0.283172
C195	C	0.067852	0.583550	-0.280296
C196	C	0.038925	0.613136	-0.251470
H197	H	0.107196	0.628724	-0.304342
H198	H	0.143967	0.557762	-0.244390
H199	H	0.042177	0.609088	-0.319072
H200	H	0.078926	0.538134	-0.259122
H201	H	0.064605	0.587599	-0.212688
H202	H	0.027838	0.658560	-0.272643
H203	H	0.004705	0.613305	-0.249510
C204	C	0.300174	0.087304	0.031170
C205	C	0.319522	0.125052	0.031445
C206	C	0.377991	0.095506	0.032282
H207	H	0.302492	0.087056	-0.002827
H208	H	0.324398	0.041902	0.065558
H209	H	0.295305	0.170441	-0.002939
H210	H	0.317219	0.125302	0.065441
H211	H	0.402215	0.050104	0.066670
H212	H	0.380304	0.095259	-0.001716
H213	H	0.391128	0.121110	0.032474
H214	H	0.284296	0.417181	-0.290995
C215	C	0.118287	0.087290	0.031192
C216	C	0.061195	0.125033	0.031476
C217	C	0.032287	0.095455	0.032361
H218	H	0.139459	0.041903	0.065584
H219	H	0.116226	0.087023	-0.002801
H220	H	0.063259	0.125293	0.065466
H221	H	0.040008	0.170420	-0.002913
H222	H	0.030226	0.095188	-0.001633
H223	H	0.053463	0.050069	0.066753
H224	H	-0.006455	0.121063	0.032548
C225	C	0.804067	0.401543	-0.283094
C226	C	0.803777	0.382481	-0.226003
C227	C	0.802924	0.324857	-0.197081
H228	H	0.838063	0.365221	-0.281018
H229	H	0.769680	0.411714	-0.304277
H230	H	0.838161	0.372307	-0.204825
H231	H	0.769783	0.418786	-0.228062
H232	H	0.768537	0.335028	-0.218264
H233	H	0.836921	0.288540	-0.195009
H234	H	0.802722	0.311920	-0.158344
H235	H	0.126202	0.575296	-0.449101
H236	H	0.126212	1.253430	-0.449118
C237	C	0.552002	0.087253	0.283031
C238	C	0.520634	0.067925	0.266821
C239	C	0.549338	0.038340	0.237922
H240	H	0.590767	0.048286	0.308686
H241	H	0.553977	0.119273	0.248758
H242	H	0.518665	0.035907	0.301089
H243	H	0.481870	0.106880	0.241159
H244	H	0.551313	0.070359	0.203649
H245	H	0.588102	-0.000626	0.263581
H246	H	0.528056	0.025227	0.226915
H247	H	0.386183	0.253366	0.290915
C248	C	0.804061	0.583447	-0.283302
C249	C	0.803793	0.640815	-0.321326
C250	C	0.802941	0.670586	-0.292624
H251	H	0.838050	0.551521	-0.249050
H252	H	0.769666	0.596666	-0.272300
H253	H	0.838184	0.627594	-0.332320
H254	H	0.769806	0.672755	-0.355579
H255	H	0.768547	0.683805	-0.281622
H256	H	0.836931	0.638655	-0.258372
H257	H	0.802754	0.709516	-0.318421
C258	C	0.118285	0.268995	0.031183
C259	C	0.061189	0.288067	0.031459
C260	C	0.032271	0.345688	0.032312
H261	H	0.116218	0.305314	-0.002808
H262	H	0.139463	0.258818	0.065577
H263	H	0.040016	0.298246	-0.002931
H264	H	0.063239	0.251764	0.065448
H265	H	0.053449	0.335512	0.066706
H266	H	0.030209	0.382003	-0.001680
H267	H	-0.006469	0.358632	0.032505
C268	C	0.300169	1.087388	-0.283276
C269	C	0.319504	1.125158	-0.321295
C270	C	0.377946	1.095671	-0.292562
H271	H	0.324442	1.041984	-0.272231
H272	H	0.302420	1.087180	-0.249041
H273	H	0.317256	1.125359	-0.355518
H274	H	0.295247	1.170561	-0.332341
H275	H	0.380198	1.095463	-0.258328
H276	H	0.402214	1.050267	-0.281519
H277	H	0.391070	1.121297	-0.318352
H278	H	0.544275	0.575317	-0.031040
H279	H	0.866146	0.095315	0.290889
H280	H	0.866118	0.095336	0.448984
C281	C	0.370325	0.583284	0.282990
C282	C	0.367180	0.583550	0.232549
C283	C	0.308764	0.613128	0.203643
H284	H	0.346069	0.628705	0.271907
H285	H	0.357091	0.557736	0.308681
H286	H	0.380406	0.609098	0.206863
H287	H	0.391423	0.538137	0.243615
H288	H	0.295530	0.587580	0.229333
H289	H	0.284513	0.658547	0.192564
H290	H	0.306623	0.613307	0.169418
C291	C	0.552023	0.583433	0.283101
C292	C	0.520660	0.650326	0.266930
C293	C	0.549420	0.680078	0.238143
H294	H	0.554058	0.583750	0.248822
H295	H	0.590772	0.557925	0.308831
H296	H	0.481920	0.675827	0.241202
H297	H	0.518623	0.650028	0.301199
H298	H	0.588170	0.654570	0.263873
H299	H	0.551453	0.680391	0.203866
H300	H	0.528147	0.725465	0.227172
H301	H	0.544249	0.417168	0.448994
C302	C	0.118281	1.087396	-0.283235
C303	C	0.067838	1.134691	-0.280356
C304	C	0.038900	1.105201	-0.251570
H305	H	0.143934	1.048459	-0.244458
H306	H	0.107206	1.074259	-0.304448
H307	H	0.078915	1.147819	-0.259142
H308	H	0.042172	1.173630	-0.319125
H309	H	0.027824	1.092063	-0.272783
H310	H	0.064557	1.066264	-0.212795
H311	H	0.004668	1.137288	-0.249617
C312	C	0.551993	0.401584	-0.031293
C313	C	0.513969	0.382513	-0.031570
C314	C	0.542671	0.324894	-0.032428
H315	H	0.586244	0.365263	0.002697
H316	H	0.562997	0.411763	-0.065688
H317	H	0.502974	0.372330	0.002821
H318	H	0.479718	0.418817	-0.065558
H319	H	0.553675	0.335073	-0.066822
H320	H	0.576921	0.288578	0.001563
H321	H	0.516875	0.311951	-0.032621
