data_functionalizedCrystal
_audit_creation_method	'MofGen! by Chris Wilmer'
_symmetry_space_group_name_H-M	'P1'
_symmetry_Int_Tables_number	1
_symmetry_cell_setting	triclinic
loop_
_symmetry_equiv_pos_as_xyz
  x,y,z
_cell_length_a	12.811457
_cell_length_b	13.262508
_cell_length_c	11.892277
_cell_angle_alpha	69.776627
_cell_angle_beta	80.240024
_cell_angle_gamma	82.749985
loop_
_atom_site_label
_atom_site_type_symbol
_atom_site_fract_x
_atom_site_fract_y
_atom_site_fract_z
O1	O	1.399334	0.147427	-0.094779
O2	O	1.092074	0.161053	-0.067468
O3	O	1.250361	-0.001549	-0.033708
O4	O	1.241047	0.310029	-0.128538
O5	O	1.262692	0.010803	-0.226772
O6	O	1.104405	0.173406	-0.260532
O7	O	1.411666	0.159779	-0.287842
Zn8	Zn	1.259993	0.168554	-0.304840
Zn9	Zn	1.243746	0.152279	-0.050470
O10	O	1.253379	0.322382	-0.321602
C11	C	1.058852	0.166087	-0.159611
C12	C	0.941487	0.162672	-0.146528
C13	C	0.734393	0.169701	-0.332440
C14	C	0.624119	0.166491	-0.320154
C15	C	0.610665	0.153035	-0.109668
C16	C	0.720939	0.156245	-0.121954
C17	C	0.782799	0.164579	-0.233345
C18	C	0.893074	0.167796	-0.245632
C19	C	0.879618	0.154333	-0.035145
C20	C	0.769344	0.151123	-0.022858
C21	C	1.254870	-0.035276	-0.117801
C22	C	1.249922	-0.154174	-0.080735
C23	C	1.262859	-0.462408	-0.397220
C24	C	1.267499	-0.350696	-0.432046
C25	C	1.263106	-0.301560	-0.344222
C26	C	1.254071	-0.364147	-0.221565
C27	C	1.249421	-0.475869	-0.186734
C28	C	1.249668	-0.315021	-0.133736
C29	C	1.240633	-0.377608	-0.011079
C30	C	1.235985	-0.489319	0.023745
C31	C	1.240378	-0.538455	-0.064079
C32	C	1.254317	-0.203299	-0.168566
C33	C	1.240880	-0.216760	0.041920
C34	C	1.236239	-0.328472	0.076746
C35	C	1.444888	0.154745	-0.195697
C36	C	1.562251	0.158160	-0.208772
C37	C	1.248869	0.356108	-0.237507
C38	C	1.253816	0.475006	-0.274565
N39	N	1.271090	0.179660	-0.478441
C40	C	1.155332	0.063817	-0.667659
C41	C	1.163112	0.071587	-0.789184
C42	C	1.294425	0.202977	-0.843019
C43	C	1.286645	0.195206	-0.721494
C44	C	1.217097	0.125623	-0.633817
C45	C	1.209322	0.117847	-0.512289
C46	C	1.340629	0.249242	-0.566127
C47	C	1.348410	0.257012	-0.687652
N48	N	1.232658	0.141164	0.123133
H49	H	0.919041	0.150169	0.045545
H50	H	1.274867	-0.299747	-0.531914
O51	O	0.550495	0.145126	-0.001555
C52	C	0.476545	0.235398	-0.015624
H53	H	0.506793	0.304874	-0.098233
H54	H	0.466058	0.260474	0.068382
H55	H	0.396987	0.213844	-0.028394
H56	H	0.718963	0.144332	0.067834
O57	O	1.266979	-0.510248	-0.482399
C58	C	1.173508	-0.563335	-0.462630
H59	H	1.136577	-0.582196	-0.364063
H60	H	1.193590	-0.641552	-0.483999
H61	H	1.114775	-0.509187	-0.523840
H62	H	0.784760	0.176501	-0.423143
O63	O	1.415847	0.324755	-0.772808
C64	C	1.387311	0.431206	-0.773675
H65	H	1.300204	0.438439	-0.734454
H66	H	1.399859	0.489071	-0.870573
H67	H	1.438792	0.452189	-0.716702
H68	H	0.584712	0.170667	-0.400850
H69	H	1.261664	-0.152350	-0.268433
O70	O	1.103273	0.011495	-0.822183
C71	C	1.170446	-0.056351	-0.876629
H72	H	1.250821	-0.020951	-0.913469
H73	H	1.133149	-0.063310	-0.953888
H74	H	1.181684	-0.139652	-0.806559
H75	H	1.266883	-0.210598	-0.372584
H76	H	1.390924	0.299568	-0.538562
H77	H	1.236606	-0.629420	-0.035730
H78	H	1.228618	-0.540274	0.123621
O79	O	1.141915	0.050138	-0.427044
C80	C	1.200076	-0.026665	-0.340907
H81	H	1.286230	-0.034853	-0.382868
H82	H	1.164266	-0.107806	-0.310951
H83	H	1.196762	0.000558	-0.259251
H84	H	1.237294	-0.176754	0.113436
O85	O	1.361856	0.270724	-0.928178
C86	C	1.333312	0.377173	-0.929041
H87	H	1.246207	0.384397	-0.889810
H88	H	1.345849	0.435040	-1.025939
H89	H	1.384795	0.398161	-0.872074
O90	O	1.227472	-0.389117	0.195944
C91	C	1.224545	-0.321799	0.266004
H92	H	1.263182	-0.244262	0.208177
H93	H	1.269578	-0.365025	0.346371
H94	H	1.138511	-0.301677	0.300118
H95	H	0.943439	0.174589	-0.336334
O96	O	1.087694	-0.003795	-0.582645
C97	C	1.034871	-0.056709	-0.638569
H98	H	1.035312	-0.006914	-0.738282
H99	H	0.949369	-0.066571	-0.592592
H100	H	1.077213	-0.139428	-0.630055
