data_functionalizedCrystal
_audit_creation_method	'MofGen! by Chris Wilmer'
_symmetry_space_group_name_H-M	'P1'
_symmetry_Int_Tables_number	1
_symmetry_cell_setting	triclinic
loop_
_symmetry_equiv_pos_as_xyz
  x,y,z
_cell_length_a	13.635800
_cell_length_b	10.943624
_cell_length_c	19.361213
_cell_angle_alpha	78.913170
_cell_angle_beta	81.491003
_cell_angle_gamma	71.161201
loop_
_atom_site_label
_atom_site_type_symbol
_atom_site_fract_x
_atom_site_fract_y
_atom_site_fract_z
V1	V	1.991322	-0.403158	0.096657
O2	O	2.039807	-0.394859	-0.004664
O3	O	1.914999	-0.401001	0.191673
O4	O	1.981331	-0.578715	0.095162
O5	O	1.973016	-0.215915	0.092515
V6	V	2.238049	-0.380689	0.084539
O7	O	2.111059	-0.452445	0.123239
O8	O	2.343410	-0.331402	0.057957
O9	O	2.202768	-0.382846	-0.010477
O10	O	2.248262	-0.388988	0.185859
O11	O	2.315052	-0.567932	0.088681
O12	O	2.136437	-0.205132	0.086034
V13	V	2.491322	-0.403158	0.096657
O14	O	2.539807	-0.394859	-0.004664
O15	O	2.414999	-0.401001	0.191673
O16	O	2.481331	-0.578715	0.095162
O17	O	2.473016	-0.215915	0.092515
V18	V	2.738049	-0.380689	0.084539
O19	O	2.611059	-0.452445	0.123239
O20	O	2.843410	-0.331402	0.057957
O21	O	2.702768	-0.382846	-0.010477
O22	O	2.748262	-0.388988	0.185859
O23	O	2.815052	-0.567932	0.088681
O24	O	2.636437	-0.205132	0.086034
C25	C	1.908972	-0.621486	0.091726
C26	C	1.941100	-0.765009	0.091132
C27	C	1.866262	-0.842131	0.087134
C28	C	1.920161	-0.948494	0.146474
C29	C	1.944456	-0.914381	0.030741
C30	C	1.994566	-0.869495	0.150528
C31	C	2.018857	-0.835358	0.034742
C32	C	2.072812	-0.941691	0.094099
C33	C	1.824360	-0.394796	0.214836
C34	C	1.802695	-0.394203	0.292512
C35	C	2.125076	-0.389047	-0.033636
C36	C	2.136360	-0.389649	-0.111312
C37	C	2.040464	-0.162354	0.089472
C38	C	1.997958	-0.018830	0.090062
C39	C	2.324360	-0.394796	0.214836
C40	C	2.302695	-0.394203	0.292512
C41	C	2.236384	-0.397626	0.855867
C42	C	2.256748	-0.398174	0.782881
C43	C	2.177087	-0.390772	0.742721
C44	C	2.077047	-0.382787	0.775550
C45	C	2.056683	-0.382225	0.848534
C46	C	2.155151	-0.461755	0.630673
C47	C	2.175520	-0.462325	0.557691
C48	C	2.239889	-0.392497	0.517616
C49	C	2.283908	-0.322118	0.550532
C50	C	2.263545	-0.321557	0.623515
C51	C	2.199157	-0.391379	0.663583
C52	C	2.362000	-0.401068	0.405655
C53	C	2.382359	-0.401608	0.332667
C54	C	2.202658	-0.386233	0.325339
C55	C	2.182299	-0.385680	0.398324
C56	C	2.261976	-0.393104	0.438479
C57	C	1.882119	-0.400381	0.332558
C58	C	1.861765	-0.399837	0.405544
C59	C	1.761979	-0.393088	0.438480
C60	C	1.682548	-0.386917	0.398426
C61	C	1.702906	-0.387475	0.325442
C62	C	1.645846	-0.311222	0.544972
C63	C	1.625490	-0.310657	0.617954
C64	C	1.699185	-0.391375	0.663587
C65	C	1.793251	-0.472643	0.636228
C66	C	1.813610	-0.473200	0.563244
C67	C	1.739894	-0.392484	0.517618
C68	C	1.756546	-0.396965	0.782773
C69	C	1.736190	-0.396428	0.855761
C70	C	1.556967	-0.383496	0.848640
C71	C	1.577328	-0.384045	0.775654
C72	C	1.677117	-0.390774	0.742725
C73	C	2.408972	-0.621486	0.091726
C74	C	2.441100	-0.765009	0.091132
C75	C	2.625076	-0.389047	-0.033636
C76	C	2.636360	-0.389649	-0.111312
C77	C	2.540464	-0.162354	0.089472
C78	C	2.497958	-0.018830	0.090062
C79	C	2.366262	-0.842131	0.087134
C80	C	2.420161	-0.948494	0.146474
C81	C	2.444456	-0.914381	0.030741
C82	C	2.494566	-0.869495	0.150528
C83	C	2.518857	-0.835358	0.034742
C84	C	2.572812	-0.941691	0.094099
H85	H	1.878768	-0.997739	0.193710
O86	O	1.821859	-0.403097	0.898958
H87	H	1.799139	-0.314706	0.924930
H88	H	2.060209	-0.786078	-0.012496
H89	H	2.560209	-0.786078	-0.012496
H90	H	2.426877	-0.407106	0.438350
O91	O	2.128042	-0.538232	0.522195
H92	H	2.190947	-0.613270	0.496576
O93	O	2.416791	-0.941397	-0.036321
H94	H	2.441753	-1.048479	-0.036389
O95	O	1.449341	-0.376227	0.884151
H96	H	1.418049	-0.287208	0.909773
H97	H	2.015428	-0.849269	0.201208
H98	H	1.853181	-0.538549	0.673392
O99	O	2.085727	-0.537081	0.673897
H100	H	2.058555	-0.586131	0.638751
H101	H	1.963375	-0.405869	0.305752
O102	O	1.750188	-0.784533	0.083334
H103	H	1.709155	-0.830283	0.129806
H104	H	2.515428	-0.849269	0.201208
H105	H	2.378768	-0.997739	0.193710
O106	O	2.188867	-0.999123	0.098043
H107	H	2.209661	-0.981589	0.147792
H108	H	2.278631	-0.798665	0.084269
H109	H	1.923564	-0.934825	-0.019872
H110	H	2.660436	-0.984954	0.097058
O111	O	2.322316	-0.405604	0.899170
H112	H	2.386339	-0.497791	0.894346
O113	O	2.364642	-0.406802	0.747469
H114	H	2.416626	-0.411882	0.787653
H115	H	1.512650	-0.379006	0.743048
O116	O	2.310999	-0.245635	0.659020
H117	H	2.359174	-0.197160	0.618896
O118	O	1.915050	-0.560870	0.533738
H119	H	1.980864	-0.534969	0.548127
O120	O	2.353332	-0.246786	0.507319
H121	H	2.360088	-0.258980	0.451038
O122	O	2.490256	-0.410248	0.297264
H123	H	2.542238	-0.415341	0.337452
O124	O	2.116733	-0.378259	0.282034
H125	H	2.104688	-0.289754	0.241174
O126	O	2.074419	-0.377105	0.433735
H127	H	2.022446	-0.372064	0.393551
O128	O	1.991124	-0.374817	0.732243
H129	H	2.022091	-0.376566	0.675980
O130	O	1.948798	-0.373641	0.883943
H131	H	1.896823	-0.368594	0.843760
H132	H	1.926443	-0.404867	0.438156
O133	O	1.864177	-0.404252	0.747250
H134	H	1.915993	-0.408483	0.787364
H135	H	1.548903	-0.244475	0.640223
O136	O	1.566359	-0.224149	0.495754
H137	H	1.497541	-0.167530	0.527036
H138	H	1.601300	-0.381426	0.425247
O139	O	1.617241	-0.380810	0.282242
H140	H	1.552645	-0.289147	0.287082
