data_functionalizedCrystal
_audit_creation_method	'MofGen! by Chris Wilmer'
_symmetry_space_group_name_H-M	'P1'
_symmetry_Int_Tables_number	1
_symmetry_cell_setting	triclinic
loop_
_symmetry_equiv_pos_as_xyz
  x,y,z
_cell_length_a	8.559649
_cell_length_b	8.559649
_cell_length_c	7.681481
_cell_angle_alpha	85.069100
_cell_angle_beta	94.913240
_cell_angle_gamma	69.778664
loop_
_atom_site_label
_atom_site_type_symbol
_atom_site_fract_x
_atom_site_fract_y
_atom_site_fract_z
O1	O	2.109661	-0.037797	-0.146402
O2	O	1.634175	0.045985	-0.146408
O3	O	1.913809	-0.233649	-0.146402
O4	O	1.830027	0.241837	-0.146407
O5	O	1.948236	-0.268136	0.146456
O6	O	1.668602	0.011497	0.146450
O7	O	2.144088	-0.072285	0.146457
Zn8	Zn	1.911811	-0.035869	0.192951
Zn9	Zn	1.866452	0.009570	-0.192902
O10	O	1.864454	0.207349	0.146451
C11	C	1.591080	0.035090	0.000020
C12	C	1.411380	0.053990	0.000017
C13	C	1.937371	-0.311201	0.000024
C14	C	1.956269	-0.490899	0.000014
C15	C	2.187183	-0.061390	0.000025
C16	C	2.366881	-0.080288	0.000016
C17	C	1.840891	0.284902	0.000021
C18	C	1.821992	0.464601	0.000019
N19	N	1.942779	-0.066883	0.456286
N20	N	1.835499	0.040569	-0.456237
H21	H	1.311991	0.183419	0.000006
C22	C	2.090737	-0.215052	0.557864
H23	H	2.154948	-0.279357	0.476677
H24	H	2.048962	-0.283754	0.629800
H25	H	2.159602	-0.173445	0.629765
C26	C	1.501125	-0.255127	0.000023
H27	H	1.608345	-0.245323	0.000038
H28	H	1.476933	-0.301938	-0.102100
H29	H	1.500941	-0.325982	0.102165
C30	C	2.131117	-0.625151	0.000015
H31	H	2.121315	-0.732371	0.000011
H32	H	2.201962	-0.624983	0.102134
H33	H	2.177930	-0.600933	-0.102132
C34	C	1.647149	-0.401161	0.000009
H35	H	1.565444	-0.453173	0.000027
H36	H	1.622057	-0.321727	-0.102119
H37	H	1.646072	-0.345778	0.102146
C38	C	1.687550	0.188733	0.442192
H39	H	1.623350	0.253052	0.523376
H40	H	1.618693	0.147139	0.370280
H41	H	1.729342	0.257438	0.370267
