data_functionalizedCrystal
_audit_creation_method	'MofGen! by Chris Wilmer'
_symmetry_space_group_name_H-M	'P1'
_symmetry_Int_Tables_number	1
_symmetry_cell_setting	triclinic
loop_
_symmetry_equiv_pos_as_xyz
  x,y,z
_cell_length_a	8.597340
_cell_length_b	15.538191
_cell_length_c	7.088929
_cell_angle_alpha	86.254841
_cell_angle_beta	103.954719
_cell_angle_gamma	66.484156
loop_
_atom_site_label
_atom_site_type_symbol
_atom_site_fract_x
_atom_site_fract_y
_atom_site_fract_z
O1	O	2.026385	0.129433	0.174839
O2	O	1.552790	0.144818	0.096822
O3	O	1.881776	-0.000080	0.151008
O4	O	1.697399	0.274330	0.120653
O5	O	1.925767	-0.019488	0.476229
O6	O	1.596781	0.125410	0.422043
O7	O	2.070376	0.110025	0.500060
Cu8	Cu	1.837595	0.115945	0.490747
Cu9	Cu	1.785571	0.138897	0.106136
O10	O	1.741390	0.254922	0.445874
C11	C	1.515653	0.134543	0.249691
C12	C	1.339464	0.132830	0.220666
C13	C	1.923061	-0.044895	0.316790
C14	C	1.980519	-0.149515	0.326236
C15	C	1.409664	-0.436837	0.232238
C16	C	1.463698	-0.535147	0.241144
C17	C	1.767625	-0.557841	0.291210
C18	C	1.713615	-0.459530	0.282299
C19	C	1.534633	-0.399035	0.252815
C20	C	1.838584	-0.421728	0.302876
C21	C	1.784579	-0.323426	0.293976
C22	C	1.605605	-0.262926	0.264499
C23	C	1.480628	-0.300733	0.243915
C24	C	2.017567	-0.482225	0.332374
C25	C	2.142536	-0.444424	0.352950
C26	C	2.088530	-0.346119	0.344036
C27	C	1.909556	-0.285619	0.314560
C28	C	2.213507	-0.308312	0.364620
C29	C	2.159502	-0.210010	0.355720
C30	C	1.855551	-0.187317	0.305660
C31	C	2.107512	0.120300	0.347187
C32	C	2.283700	0.122014	0.376199
C33	C	1.700104	0.299737	0.280088
C34	C	1.642644	0.404358	0.270629
N35	N	1.874198	0.099801	0.761264
N36	N	1.748985	0.155033	-0.164378
H37	H	1.561639	-0.182883	0.257264
C38	C	1.399463	0.111544	0.583472
C39	C	1.308858	0.185800	0.673208
C40	C	1.415445	0.176179	0.864159
H41	H	1.506454	0.114172	0.576384
H42	H	1.426209	0.052020	0.659237
H43	H	1.282136	0.245309	0.597463
H44	H	1.201875	0.183186	0.680348
H45	H	1.442191	0.116654	0.939924
H46	H	1.522431	0.178805	0.857052
H47	H	1.353979	0.226554	0.925076
H48	H	1.334880	-0.251473	0.219892
H49	H	1.252406	0.140780	0.065284
H50	H	1.263917	-0.387577	0.208215
H51	H	2.003981	0.042568	0.864296
H52	H	1.709804	-0.138057	0.281636
C53	C	2.294921	-0.168783	0.378109
C54	C	2.209321	-0.069750	0.364059
C55	C	2.334018	-0.031742	0.384710
H56	H	2.350940	-0.182684	0.276481
H57	H	2.381548	-0.196269	0.503306
H58	H	2.122726	-0.042273	0.238878
H59	H	2.153310	-0.055822	0.465680
H60	H	2.420645	-0.059228	0.509908
H61	H	2.390030	-0.045649	0.283079
H62	H	2.275959	0.035455	0.375198
C63	C	1.576054	0.231496	0.698387
C64	C	1.555222	0.321122	0.743472
C65	C	1.395949	0.391585	0.617064
H66	H	1.479689	0.219552	0.715160
H67	H	1.578525	0.230452	0.565269
H68	H	1.552736	0.322165	0.876558
H69	H	1.651547	0.333097	0.726687
H70	H	1.398420	0.390540	0.483946
H71	H	1.299597	0.379632	0.633847
H72	H	1.381801	0.452405	0.647625
H73	H	2.061530	-0.562268	0.339601
H74	H	1.361924	-0.565922	0.224414
H75	H	1.913354	-0.607109	0.315224
H76	H	2.288265	-0.493692	0.376964
H77	H	2.359237	-0.357582	0.388646
