data_functionalizedCrystal
_audit_creation_method	'MofGen! by Chris Wilmer'
_symmetry_space_group_name_H-M	'P1'
_symmetry_Int_Tables_number	1
_symmetry_cell_setting	triclinic
loop_
_symmetry_equiv_pos_as_xyz
  x,y,z
_cell_length_a	19.288864
_cell_length_b	17.699083
_cell_length_c	17.766277
_cell_angle_alpha	89.992740
_cell_angle_beta	89.976791
_cell_angle_gamma	83.209630
loop_
_atom_site_label
_atom_site_type_symbol
_atom_site_fract_x
_atom_site_fract_y
_atom_site_fract_z
O1	O	0.921465	0.094417	-0.062837
O2	O	1.254798	0.427751	0.270496
O3	O	1.588132	0.761084	0.603830
O4	O	0.719219	0.107154	-0.062786
O5	O	1.052553	0.440487	0.270548
O6	O	1.385886	0.773821	0.603881
O7	O	0.826056	-0.009412	-0.062806
O8	O	1.159389	0.323922	0.270527
O9	O	1.492723	0.657255	0.603860
O10	O	0.814628	0.210983	-0.062817
O11	O	1.147961	0.544316	0.270517
O12	O	1.481295	0.877650	0.603850
O13	O	0.826037	-0.009417	0.062382
O14	O	1.159371	0.323916	0.395716
O15	O	1.492704	0.657249	0.729049
O16	O	0.719201	0.107148	0.062403
O17	O	1.052534	0.440481	0.395736
O18	O	1.385867	0.773815	0.729069
O19	O	0.921446	0.094411	0.062351
O20	O	1.254779	0.427745	0.395685
O21	O	1.588113	0.761078	0.729018
Cu22	Cu	0.820322	0.100779	0.073808
Cu23	Cu	1.153655	0.434113	0.407141
Cu24	Cu	1.486988	0.767446	0.740474
Cu25	Cu	0.820344	0.100786	-0.074242
Cu26	Cu	1.153677	0.434120	0.259091
Cu27	Cu	1.487010	0.767453	0.592425
O28	O	0.814609	0.210977	0.062372
O29	O	1.147943	0.544310	0.395705
O30	O	1.481276	0.877644	0.729039
C31	C	0.693333	0.106741	-0.000185
C32	C	1.026666	0.440075	0.333148
C33	C	1.360000	0.773408	0.666482
C34	C	0.616228	0.105511	-0.000165
C35	C	0.949561	0.438844	0.333168
C36	C	1.282895	0.772178	0.666502
C37	C	0.571613	0.173906	-0.000180
C38	C	0.904946	0.507240	0.333153
C39	C	1.238279	0.840573	0.666486
C40	C	0.499164	0.172751	-0.000188
C41	C	0.832497	0.506084	0.333145
C42	C	1.165831	0.839417	0.666478
C43	C	0.471334	0.103196	-0.000197
C44	C	0.804668	0.436529	0.333137
C45	C	1.138001	0.769862	0.666470
C46	C	0.515959	0.034791	-0.000177
C47	C	0.849293	0.368124	0.333156
C48	C	1.182626	0.701458	0.666489
C49	C	0.588406	0.035949	-0.000162
C50	C	0.921740	0.369282	0.333172
C51	C	1.255073	0.702616	0.666505
C52	C	0.363014	0.048520	-0.044079
C53	C	0.696347	0.381853	0.289255
C54	C	1.029681	0.715186	0.622588
C55	C	0.290568	0.047365	-0.044099
C56	C	0.623902	0.380698	0.289234
C57	C	0.957235	0.714031	0.622568
C58	C	0.247884	0.099622	-0.000242
C59	C	0.581218	0.432955	0.333091
C60	C	0.914551	0.766289	0.666424
C61	C	0.277654	0.153047	0.043625
C62	C	0.610987	0.486380	0.376959
C63	C	0.944321	0.819713	0.710292
C64	C	0.350101	0.154204	0.043641
C65	C	0.683434	0.487538	0.376975
C66	C	1.016767	0.820871	0.710308
C67	C	0.392779	0.101932	-0.000213
C68	C	0.726112	0.435266	0.333120
C69	C	1.059445	0.768599	0.666453
C70	C	0.124712	0.166769	-0.000265
C71	C	0.458045	0.500102	0.333068
C72	C	0.791378	0.833435	0.666402
C73	C	0.052262	0.165610	-0.000269
C74	C	0.385596	0.498943	0.333065
C75	C	0.718929	0.832277	0.666398
C76	C	0.069059	0.027649	-0.000265
C77	C	0.402393	0.360982	0.333068
C78	C	0.735726	0.694315	0.666401
C79	C	0.141507	0.028809	-0.000254
C80	C	0.474840	0.362143	0.333079
C81	C	0.808174	0.695476	0.666413
C82	C	0.169329	0.098371	-0.000258
C83	C	0.502662	0.431705	0.333076
C84	C	0.835995	0.765038	0.666409
C85	C	0.825637	-0.037611	-0.000212
C86	C	1.158970	0.295722	0.333122
C87	C	1.492304	0.629056	0.666455
C88	C	0.824409	-0.121627	-0.000211
C89	C	1.157742	0.211706	0.333122
C90	C	1.491075	0.545039	0.666456
C91	C	0.887120	-0.170336	-0.000226
C92	C	1.220453	0.162997	0.333107
C93	C	1.553786	0.496330	0.666441
C94	C	0.885961	-0.249278	-0.000232
C95	C	1.219295	0.084055	0.333101
C96	C	1.552628	0.417389	0.666434
C97	C	0.822091	-0.279509	-0.000219
C98	C	1.155424	0.053824	0.333115
C99	C	1.488758	0.387158	0.666448
C100	C	0.759375	-0.230794	-0.000206
C101	C	1.092709	0.102540	0.333127
C102	C	1.426042	0.435873	0.666461
C103	C	0.760535	-0.151854	-0.000205
C104	C	1.093868	0.181480	0.333128
C105	C	1.427201	0.514813	0.666462
C106	C	0.754699	-0.549150	-0.000211
C107	C	1.088033	-0.215817	0.333122
C108	C	1.421366	0.117516	0.666456
C109	C	0.753545	-0.628097	-0.000210
C110	C	1.086878	-0.294763	0.333124
C111	C	1.420212	0.038570	0.666457
C112	C	0.880126	-0.646575	-0.000238
C113	C	1.213459	-0.313241	0.333095
C114	C	1.546793	0.020092	0.666428
C115	C	0.881285	-0.567635	-0.000237
C116	C	1.214618	-0.234301	0.333096
C117	C	1.547952	0.099032	0.666429
C118	C	0.818570	-0.518926	-0.000229
C119	C	1.151903	-0.185593	0.333105
C120	C	1.485236	0.147740	0.666438
C121	C	0.819827	-0.433329	-0.000223
C122	C	1.153160	-0.099995	0.333110
C123	C	1.486493	0.233338	0.666443
C124	C	0.820834	-0.365105	-0.000219
C125	C	1.154167	-0.031772	0.333115
C126	C	1.487500	0.301562	0.666448
C127	C	0.947332	0.094824	-0.000251
C128	C	1.280666	0.428158	0.333082
C129	C	1.613999	0.761491	0.666416
C130	C	1.024437	0.096054	-0.000276
C131	C	1.357771	0.429388	0.333058
C132	C	1.691104	0.762721	0.666391
C133	C	0.815028	0.239176	-0.000224
C134	C	1.148362	0.572510	0.333109
C135	C	1.481695	0.905843	0.666442
C136	C	0.816257	0.323193	-0.000230
C137	C	1.149590	0.656526	0.333104
C138	C	1.482923	0.989859	0.666437
N139	N	0.820311	0.100774	0.177938
N140	N	1.153644	0.434107	0.511271
N141	N	1.486978	0.767440	0.844605
N142	N	0.820360	0.100786	-0.178372
N143	N	1.153693	0.434119	0.154961
N144	N	1.487026	0.767452	0.488294
C145	C	0.867634	0.049184	0.217316
C146	C	1.200967	0.382517	0.550649
C147	C	1.534300	0.715851	0.883983
C148	C	0.867638	0.049180	0.296118
C149	C	1.200971	0.382514	0.629451
C150	C	1.534304	0.715847	0.962784
C151	C	0.820326	0.100780	0.335539
C152	C	1.153659	0.434113	0.668872
C153	C	1.486992	0.767447	1.002205
C154	C	0.772994	0.152374	0.296151
C155	C	1.106328	0.485707	0.629485
C156	C	1.439661	0.819040	0.962818
C157	C	0.772987	0.152371	0.217351
C158	C	1.106320	0.485704	0.550684
C159	C	1.439654	0.819037	0.884018
C160	C	0.811109	0.169742	0.460375
C161	C	1.144442	0.503075	0.793708
C162	C	1.477775	0.836408	1.127042
C163	C	0.811121	0.169746	0.539174
C164	C	1.144454	0.503079	0.872507
C165	C	1.477787	0.836412	1.205840
C166	C	0.820344	0.100789	0.578585
C167	C	1.153678	0.434122	0.911918
C168	C	1.487011	0.767456	1.245252
C169	C	0.829570	0.031825	0.539188
C170	C	1.162904	0.365159	0.872521
C171	C	1.496237	0.698492	1.205854
C172	C	0.829563	0.031822	0.460388
C173	C	1.162896	0.365156	0.793721
C174	C	1.496230	0.698489	1.127054
C175	C	0.820328	0.100789	0.420984
C176	C	1.153661	0.434122	0.754318
C177	C	1.486995	0.767455	1.087651
C178	C	0.867674	0.049191	0.703409
C179	C	1.201007	0.382524	1.036742
C180	C	1.534340	0.715858	1.370075
C181	C	0.867673	0.049186	0.782212
C182	C	1.201006	0.382520	1.115545
C183	C	1.534340	0.715853	1.448879
C184	C	0.773033	0.152386	0.782244
C185	C	1.106366	0.485720	1.115577
C186	C	1.439700	0.819053	1.448911
C187	C	0.773030	0.152384	0.703442
C188	C	1.106364	0.485718	1.036776
C189	C	1.439697	0.819051	1.370109
C190	C	0.820355	0.100787	0.664029
C191	C	1.153688	0.434121	0.997363
C192	C	1.487021	0.767454	1.330696
H193	H	0.462831	0.228448	-0.000199
H194	H	0.796165	0.561781	0.333135
H195	H	1.129498	0.895115	0.666468
H196	H	0.734471	0.194386	0.328252
H197	H	1.067804	0.527719	0.661585
H198	H	1.401138	0.861052	0.994918
H199	H	0.803586	0.225898	0.428293
H200	H	1.136919	0.559231	0.761626
H201	H	1.470252	0.892565	1.094959
H202	H	0.734508	0.194397	0.814340
H203	H	1.067841	0.527730	1.147673
H204	H	1.401175	0.861063	1.481007
H205	H	0.837073	-0.024330	0.428314
H206	H	1.170407	0.309003	0.761647
H207	H	1.503740	0.642336	1.094980
H208	H	0.701531	-0.652707	-0.000197
H209	H	1.034865	-0.319374	0.333137
H210	H	1.368198	0.013960	0.666470
H211	H	0.147365	0.223410	-0.000257
H212	H	0.480698	0.556744	0.333076
H213	H	0.814032	0.890077	0.666410
H214	H	0.493296	-0.021841	-0.000195
H215	H	0.826629	0.311492	0.333139
H216	H	1.159962	0.644826	0.666472
H217	H	0.624733	-0.019749	-0.000150
H218	H	0.958066	0.313585	0.333183
H219	H	1.291400	0.646918	0.666517
H220	H	0.939130	-0.145729	-0.000233
H221	H	1.272463	0.187604	0.333101
H222	H	1.605797	0.520938	0.666434
H223	H	0.937027	-0.288934	-0.000243
H224	H	1.270360	0.044399	0.333091
H225	H	1.603693	0.377732	0.666424
H226	H	0.703632	-0.509501	-0.000204
H227	H	1.036966	-0.176167	0.333130
H228	H	1.370299	0.157166	0.666463
H229	H	0.709469	-0.112195	-0.000193
H230	H	1.042802	0.221139	0.333140
H231	H	1.376135	0.554472	0.666474
H232	H	0.734450	0.194382	0.185289
H233	H	1.067784	0.527716	0.518622
H234	H	1.401117	0.861049	0.851956
H235	H	0.594260	0.230549	-0.000184
H236	H	0.927593	0.563883	0.333149
H237	H	1.260927	0.897216	0.666482
H238	H	0.374336	0.197702	0.079362
H239	H	0.707669	0.531036	0.412696
H240	H	1.041003	0.864369	0.746029
H241	H	0.242902	0.195599	0.079339
H242	H	0.576235	0.528932	0.412672
H243	H	0.909568	0.862266	0.746005
H244	H	0.015936	0.221308	-0.000277
H245	H	0.349270	0.554642	0.333057
H246	H	0.682603	0.887975	0.666390
H247	H	0.933295	-0.543025	-0.000245
H248	H	1.266628	-0.209692	0.333088
H249	H	1.599961	0.123641	0.666422
H250	H	0.906175	0.007168	0.328185
H251	H	1.239508	0.340501	0.661518
H252	H	1.572841	0.673835	0.994852
H253	H	0.046401	-0.028984	-0.000319
H254	H	0.379734	0.304349	0.333015
H255	H	0.713068	0.637682	0.666348
H256	H	0.177834	-0.026886	-0.000246
H257	H	0.511167	0.306448	0.333087
H258	H	0.844501	0.639781	0.666421
H259	H	0.266336	0.003866	-0.079822
H260	H	0.599669	0.337199	0.253512
H261	H	0.933002	0.670533	0.586845
H262	H	0.931192	-0.686243	-0.000249
H263	H	1.264525	-0.352910	0.333084
H264	H	1.597859	-0.019576	0.666418
H265	H	0.707371	-0.255414	-0.000199
H266	H	1.040705	0.077919	0.333134
H267	H	1.374038	0.411253	0.666467
H268	H	0.906166	0.007169	0.185228
H269	H	1.239499	0.340502	0.518562
H270	H	1.572833	0.673836	0.851895
H271	H	0.397762	0.005964	-0.079797
H272	H	0.731096	0.339297	0.253537
H273	H	1.064429	0.672631	0.586870
H274	H	0.837081	-0.024326	0.571275
H275	H	1.170414	0.309007	0.904608
H276	H	1.503747	0.642341	1.237941
H277	H	0.906206	0.007175	0.671318
H278	H	1.239539	0.340508	1.004651
H279	H	1.572873	0.673842	1.337984
H280	H	0.906207	0.007171	0.814274
H281	H	1.239540	0.340505	1.147607
H282	H	1.572873	0.673838	1.480941
H283	H	0.734499	0.194397	0.671379
H284	H	1.067832	0.527730	1.004712
H285	H	1.401165	0.861064	1.338045
H286	H	0.803613	0.225900	0.571245
H287	H	1.136946	0.559233	0.904578
H288	H	1.470279	0.892566	1.237911
