data_functionalizedCrystal
_audit_creation_method	'MofGen! by Chris Wilmer'
_symmetry_space_group_name_H-M	'P1'
_symmetry_Int_Tables_number	1
_symmetry_cell_setting	triclinic
loop_
_symmetry_equiv_pos_as_xyz
  x,y,z
_cell_length_a	8.597213
_cell_length_b	10.654545
_cell_length_c	7.088929
_cell_angle_alpha	83.718243
_cell_angle_beta	88.663806
_cell_angle_gamma	84.910080
loop_
_atom_site_label
_atom_site_type_symbol
_atom_site_fract_x
_atom_site_fract_y
_atom_site_fract_z
O1	O	2.034867	0.226983	-0.494159
O2	O	1.585518	0.235445	-0.420145
O3	O	1.820523	0.048666	-0.458852
O4	O	1.799862	0.413761	-0.455452
O5	O	1.851929	0.023647	-0.146050
O6	O	1.616924	0.210426	-0.107343
O7	O	2.066272	0.201964	-0.181357
Cu8	Cu	1.844466	0.203910	-0.115788
Cu9	Cu	1.807325	0.233498	-0.485714
O10	O	1.831268	0.388742	-0.142650
C11	C	1.543684	0.220633	-0.254267
C12	C	1.372241	0.213757	-0.226029
C13	C	1.834708	-0.010669	-0.302205
C14	C	1.830167	-0.150196	-0.301468
C15	C	1.795946	-0.122927	-0.642498
C16	C	1.776709	-0.174842	-0.812662
C17	C	1.772444	-0.305940	-0.811961
C18	C	1.787413	-0.385127	-0.641078
C19	C	1.806650	-0.333212	-0.470914
C20	C	1.810918	-0.202110	-0.471634
C21	C	1.840859	-0.360479	-0.129887
C22	C	1.845136	-0.229383	-0.130585
C23	C	1.855828	-0.439666	0.040997
C24	C	1.875077	-0.387752	0.211163
C25	C	1.879344	-0.256646	0.210455
C26	C	1.864373	-0.177467	0.039579
C27	C	2.108107	0.216776	-0.347239
C28	C	2.279548	0.223652	-0.375490
C29	C	1.817082	0.448078	-0.299301
C30	C	1.821622	0.587606	-0.300050
N31	N	1.870600	0.183099	0.144395
N32	N	1.781203	0.254300	-0.745899
H33	H	1.799436	-0.016180	-0.643088
C34	C	1.302257	0.195203	-0.023968
N35	N	1.249544	0.181225	0.128222
H36	H	1.688554	0.328085	0.187715
H37	H	1.331348	0.237394	-0.525046
C38	C	1.760258	-0.087729	-1.000627
N39	N	1.747871	-0.022119	-1.142203
C40	C	1.751287	-0.363048	-0.999149
N41	N	1.735355	-0.406063	-1.140140
H42	H	1.963266	0.109318	0.210788
C43	C	1.900505	-0.199551	0.397653
N44	N	1.916446	-0.156552	0.538655
C45	C	1.851108	-0.583875	0.041766
N46	N	1.847550	-0.692494	0.042350
C47	C	1.891531	-0.474863	0.399115
N48	N	1.903925	-0.540480	0.540683
C49	C	1.782679	-0.529334	-0.640311
N50	N	1.779106	-0.637952	-0.639731
H51	H	1.867853	-0.070720	0.038985
