data_functionalizedCrystal
_audit_creation_method	'MofGen! by Chris Wilmer'
_symmetry_space_group_name_H-M	'P1'
_symmetry_Int_Tables_number	1
_symmetry_cell_setting	triclinic
loop_
_symmetry_equiv_pos_as_xyz
  x,y,z
_cell_length_a	17.699083
_cell_length_b	19.288865
_cell_length_c	18.366186
_cell_angle_alpha	90.011479
_cell_angle_beta	90.003018
_cell_angle_gamma	83.209632
loop_
_atom_site_label
_atom_site_type_symbol
_atom_site_fract_x
_atom_site_fract_y
_atom_site_fract_z
O1	O	-1.003957	-0.087837	-0.060456
O2	O	-0.503957	0.412163	0.439544
O3	O	-0.783563	-0.099265	-0.060481
O4	O	-0.283563	0.400735	0.439519
O5	O	-0.900128	0.007572	-0.060453
O6	O	-0.400128	0.507572	0.439547
O7	O	-0.887392	-0.194674	-0.060484
O8	O	-0.387392	0.305326	0.439516
O9	O	-0.900109	0.007577	0.060646
O10	O	-0.400109	0.507577	0.560646
O11	O	-0.783543	-0.099260	0.060618
O12	O	-0.283543	0.400740	0.560618
O13	O	-1.003937	-0.087832	0.060643
O14	O	-0.503937	0.412168	0.560643
Zn15	Zn	-0.893737	-0.093545	0.079858
Zn16	Zn	-0.393737	0.406455	0.579858
Zn17	Zn	-0.893763	-0.093552	-0.079696
Zn18	Zn	-0.393763	0.406448	0.420304
O19	O	-0.887372	-0.194668	0.060616
O20	O	-0.387372	0.305332	0.560616
C21	C	-0.755356	-0.098853	0.000066
C22	C	-0.255356	0.401147	0.500066
C23	C	-0.671340	-0.097624	0.000057
C24	C	-0.171340	0.402376	0.500057
C25	C	-0.899709	0.033451	0.000098
C26	C	-0.399709	0.533451	0.500098
C27	C	-0.898478	0.110556	0.000105
C28	C	-0.398478	0.610556	0.500105
C29	C	-1.032144	-0.088244	0.000095
C30	C	-0.532144	0.411756	0.500095
C31	C	-1.116160	-0.089472	0.000099
C32	C	-0.616160	0.410528	0.500099
C33	C	-0.622631	-0.160335	0.000048
C34	C	-0.122631	0.339665	0.500048
C35	C	-0.543689	-0.159177	0.000057
C36	C	-0.043689	0.340823	0.500057
C37	C	-0.513458	-0.095307	0.000071
C38	C	-0.013458	0.404693	0.500071
C39	C	-0.562174	-0.032591	0.000082
C40	C	-0.062174	0.467409	0.500082
C41	C	-0.641114	-0.033750	0.000078
C42	C	-0.141114	0.466250	0.500078
C43	C	-0.243817	-0.027915	0.000101
C44	C	0.256183	0.472085	0.500101
C45	C	-0.164871	-0.026761	0.000103
C46	C	0.335129	0.473239	0.500103
C47	C	-0.146393	-0.153342	0.000080
C48	C	0.353607	0.346658	0.500080
C49	C	-0.225333	-0.154501	0.000076
C50	C	0.274667	0.345499	0.500076
C51	C	-0.274041	-0.091785	0.000091
C52	C	0.225959	0.408215	0.500091
C53	C	-0.359639	-0.093042	0.000082
C54	C	0.140361	0.406958	0.500082
C55	C	-0.427862	-0.094049	0.000075
C56	C	0.072138	0.405951	0.500075
C57	C	-0.887792	-0.220548	0.000062
C58	C	-0.387792	0.279452	0.500062
C59	C	-0.889022	-0.297653	0.000051
C60	C	-0.389022	0.202347	0.500051
N61	N	-0.893725	-0.093540	0.188749
N62	N	-0.393725	0.406460	0.688749
C63	C	-0.966874	0.155172	0.000116
C64	C	-0.466874	0.655172	0.500116
C65	C	-0.965718	0.227620	0.000104
C66	C	-0.465718	0.727620	0.500104
C67	C	-0.896163	0.255450	0.000096
C68	C	-0.396163	0.755450	0.500096
C69	C	-0.827759	0.210825	0.000081
C70	C	-0.327759	0.710825	0.500081
C71	C	-0.828916	0.138378	0.000085
C72	C	-0.328916	0.638378	0.500085
C73	C	-0.841478	0.363804	0.042508
C74	C	-0.341478	0.863804	0.542508
C75	C	-0.840323	0.436250	0.042509
C76	C	-0.340323	0.936250	0.542509
C77	C	-0.892589	0.478900	0.000079
C78	C	-0.392589	0.978900	0.500079
C79	C	-0.946024	0.449097	-0.042341
C80	C	-0.446024	0.949097	0.457659
C81	C	-0.947181	0.376650	-0.042336
C82	C	-0.447181	0.876650	0.457664
C83	C	-0.894900	0.334006	0.000091
C84	C	-0.394900	0.834006	0.500091
C85	C	-0.959736	0.602073	0.000077
C86	C	-0.459736	1.102073	0.500077
C87	C	-0.958578	0.674522	0.000061
C88	C	-0.458578	1.174522	0.500061
C89	C	-0.820616	0.657725	0.000044
C90	C	-0.320616	1.157725	0.500044
C91	C	-0.821777	0.585277	0.000053
C92	C	-0.321777	1.085277	0.500053
C93	C	-0.891339	0.557456	0.000073
C94	C	-0.391339	1.057456	0.500073
N95	N	-0.893781	-0.093551	-0.188587
N96	N	-0.393781	0.406449	0.311413
C97	C	-0.945357	-0.046256	0.226862
C98	C	-0.445357	0.453744	0.726862
C99	C	-0.945362	-0.046253	0.303090
C100	C	-0.445362	0.453747	0.803090
C101	C	-0.893742	-0.093545	0.341202
C102	C	-0.393742	0.406455	0.841202
C103	C	-0.842100	-0.140833	0.303080
C104	C	-0.342100	0.359167	0.803080
C105	C	-0.842092	-0.140830	0.226854
C106	C	-0.342092	0.359170	0.726854
C107	C	-0.883610	-0.156821	0.461952
C108	C	-0.383610	0.343179	0.961952
C109	C	-0.883624	-0.156825	0.538177
C110	C	-0.383624	0.343175	1.038177
C111	C	-0.893763	-0.093554	0.576309
C112	C	-0.393763	0.406446	1.076309
C113	C	-0.903905	-0.030277	0.538207
C114	C	-0.403905	0.469723	1.038207
C115	C	-0.903897	-0.030274	0.461981
C116	C	-0.403897	0.469726	0.961981
C117	C	-0.893745	-0.093554	0.423857
C118	C	-0.393745	0.406446	0.923857
C119	C	-0.945403	-0.046263	0.697077
C120	C	-0.445403	0.453737	1.197077
C121	C	-0.945403	-0.046259	0.773306
C122	C	-0.445403	0.453741	1.273306
C123	C	-0.842145	-0.140845	0.773295
C124	C	-0.342145	0.359155	1.273295
C125	C	-0.842141	-0.140843	0.697067
C126	C	-0.342141	0.359157	1.197067
C127	C	-0.893775	-0.093553	0.658963
C128	C	-0.393775	0.406447	1.158963
H129	H	-0.647238	-0.212346	0.000036
H130	H	-0.147238	0.287654	0.500036
Br131	Br	-0.772080	-0.205022	0.825013
Br132	Br	-0.272080	0.294978	1.325013
Br133	Br	-1.015474	0.017919	0.645362
Br134	Br	-0.515474	0.517919	1.145362
H135	H	-0.800101	-0.179349	0.666034
H136	H	-0.300101	0.320651	1.166034
Br137	Br	-0.869868	-0.242700	0.589879
Br138	Br	-0.369868	0.257300	1.089879
Br139	Br	-1.015474	0.017923	0.825035
Br140	Br	-0.515474	0.517923	1.325035
H141	H	-0.140260	0.025253	0.000115
H142	H	0.359740	0.525253	0.500115
H143	H	-0.773219	0.102051	0.000076
H144	H	-0.273219	0.602051	0.500076
Br145	Br	-0.869924	-0.242699	0.410209
Br146	Br	-0.369924	0.257301	0.910209
H147	H	-0.800069	-0.179339	0.334115
H148	H	-0.300069	0.320661	0.834115
Br149	Br	-0.266357	-0.241184	0.000051
Br150	Br	0.233643	0.258816	0.500051
H151	H	-0.800046	-0.179335	0.195822
H152	H	-0.300046	0.320665	0.695822
H153	H	-0.987398	-0.007747	0.195839
H154	H	-0.487398	0.492253	0.695839
Br155	Br	-0.080284	-0.238457	0.000061
Br156	Br	0.419716	0.261543	0.500061
Br157	Br	-0.733362	0.248592	0.000060
Br158	Br	-0.233362	0.748592	0.500060
H159	H	-0.766082	0.548950	0.000048
H160	H	-0.266082	1.048950	0.500048
H161	H	-0.283467	0.023152	0.000114
H162	H	0.216533	0.523152	0.500114
H163	H	-0.987408	-0.007747	0.334127
H164	H	-0.487408	0.492253	0.834127
H165	H	-1.016378	0.579419	0.000090
H166	H	-0.516378	1.079419	0.500090
Br167	Br	-0.477586	-0.244288	0.000042
Br168	Br	0.022414	0.255712	0.500042
H169	H	-0.537553	0.019413	0.000104
H170	H	-0.037553	0.519413	0.500104
Br171	Br	-0.917653	0.055598	0.410273
Br172	Br	-0.417653	0.555598	0.910273
H173	H	-0.680773	0.017316	0.000085
H174	H	-0.180773	0.517316	0.500085
H175	H	-1.023517	0.132524	0.000130
H176	H	-0.523517	0.632524	0.500130
Br177	Br	-0.917676	0.055597	0.589948
Br178	Br	-0.417676	0.555597	1.089948
Br179	Br	-1.019692	0.336203	-0.099906
Br180	Br	-0.519692	0.836203	0.400094
Br181	Br	-1.058547	0.288181	0.000117
Br182	Br	-0.558547	0.788181	0.500117
Br183	Br	-0.726218	0.695486	0.000026
Br184	Br	-0.226218	1.195486	0.500026
Br185	Br	-0.767811	0.476690	0.100082
Br186	Br	-0.267811	0.976690	0.600082
Br187	Br	-1.016963	0.506970	-0.099927
Br188	Br	-0.516963	1.006970	0.400073
H189	H	-1.014276	0.710848	0.000066
H190	H	-0.514276	1.210848	0.500066
H191	H	-0.798914	0.329083	0.077063
H192	H	-0.298914	0.829083	0.577063
