data_functionalizedCrystal
_audit_creation_method	'MofGen! by Chris Wilmer'
_symmetry_space_group_name_H-M	'P1'
_symmetry_Int_Tables_number	1
_symmetry_cell_setting	triclinic
loop_
_symmetry_equiv_pos_as_xyz
  x,y,z
_cell_length_a	14.446369
_cell_length_b	17.052862
_cell_length_c	17.052863
_cell_angle_alpha	61.493623
_cell_angle_beta	90.001295
_cell_angle_gamma	70.263107
loop_
_atom_site_label
_atom_site_type_symbol
_atom_site_fract_x
_atom_site_fract_y
_atom_site_fract_z
Zr1	Zr	1.072836	0.816645	-0.200429
O2	O	0.970607	0.944543	-0.328560
O3	O	1.081668	0.665923	-0.146238
O4	O	1.131268	0.783724	-0.307049
O5	O	0.907484	0.860669	-0.057861
O6	O	1.283604	0.783718	-0.307044
O7	O	0.921007	0.826742	-0.167749
O8	O	1.194878	0.572993	-0.019382
O9	O	0.996210	1.071394	-0.345523
O10	O	1.226313	0.736366	-0.141139
O11	O	1.102535	0.761690	-0.059135
O12	O	1.160933	0.900385	-0.248469
O13	O	1.037155	0.925709	-0.166465
Zr14	Zr	1.294226	0.870746	-0.025163
Zr15	Zr	1.315794	0.816635	-0.200421
Zr16	Zr	1.051269	0.870755	-0.025171
Zr17	Zr	1.113670	1.018957	-0.227484
Zr18	Zr	1.253393	0.668433	0.001891
O19	O	1.285394	1.021468	-0.079355
O20	O	1.316061	0.944530	-0.328549
O21	O	0.939941	1.021481	-0.079366
O22	O	1.396455	0.742848	0.102967
O23	O	1.427122	0.665910	-0.146226
O24	O	1.051002	0.742860	0.102956
O25	O	1.459579	0.826721	-0.167731
O26	O	1.235794	0.903666	0.081456
O27	O	1.083459	0.903672	0.081451
O28	O	1.446056	0.860649	-0.057844
O29	O	1.189328	1.071387	-0.345517
O30	O	1.177734	0.616004	0.119924
O31	O	1.370853	0.615997	0.119931
O32	O	1.387996	0.572986	-0.019376
O33	O	0.979066	1.114404	-0.206217
O34	O	1.172185	1.114397	-0.206210
O35	O	1.206129	0.787005	0.022877
O36	O	1.329907	0.761681	-0.059127
O37	O	1.264527	0.925701	-0.166458
O38	O	1.140749	0.951025	-0.084454
C39	C	1.132455	0.590633	-0.078955
C40	C	1.115120	0.504746	-0.067470
C41	C	1.324699	0.209774	-0.206328
C42	C	1.340984	0.290472	-0.217125
C43	C	1.284520	0.344044	-0.179712
C44	C	1.211767	0.316911	-0.131500
C45	C	1.195475	0.236209	-0.120708
C46	C	1.155296	0.370479	-0.094092
C47	C	1.082543	0.343346	-0.045881
C48	C	1.066254	0.262652	-0.035090
C49	C	1.122718	0.209080	-0.072503
C50	C	1.171588	0.451181	-0.104884
C51	C	1.042364	0.477616	-0.019265
C52	C	1.026079	0.396918	-0.008468
C53	C	0.879629	0.843707	-0.112806
C54	C	0.776487	0.843710	-0.112810
C55	C	0.588551	0.947225	-0.180241
C56	C	0.695835	0.947217	-0.180541
C57	C	0.765835	0.772747	-0.142605
C58	C	0.658265	0.773389	-0.143083
C59	C	0.643459	0.810252	-0.015394
C60	C	0.749900	0.812459	-0.015835
C61	C	1.487433	0.843684	-0.112786
C62	C	1.590575	0.843680	-0.112783
C63	C	1.210509	0.776012	-0.332017
C64	C	1.219665	0.753040	-0.406418
C65	C	1.234608	1.096757	-0.146637
C66	C	1.251942	1.182645	-0.158123
C67	C	1.258101	0.656628	-0.385342
C68	C	1.266704	0.635042	-0.455243
C69	C	1.236878	0.709867	-0.546229
C70	C	1.198448	0.806282	-0.567307
C71	C	1.189837	0.827869	-0.497398
C72	C	1.168614	0.881109	-0.658286
C73	C	1.130184	0.977523	-0.679364
C74	C	1.121576	0.999107	-0.609460
C75	C	1.151401	0.924282	-0.518475
C76	C	1.177225	0.859521	-0.728194
C77	C	1.108961	1.030763	-0.840251
C78	C	1.100359	1.052348	-0.770349
C79	C	1.156553	0.911379	0.106424
C80	C	1.147397	0.934350	0.180826
C81	C	1.436357	0.590621	-0.078945
C82	C	1.522164	0.504731	-0.067457
C83	C	1.105477	0.658316	0.140265
C84	C	1.078986	0.595401	0.226152
C85	C	1.409379	0.658305	0.140275
C86	C	1.486030	0.595385	0.226166
C87	C	0.957683	1.029085	-0.365868
C88	C	0.881032	1.092005	-0.451758
C89	C	0.930705	1.096769	-0.146647
C90	C	0.844898	1.182660	-0.158136
C91	C	1.261585	1.029074	-0.365858
C92	C	1.288076	1.091990	-0.451745
C93	C	1.508386	0.451179	-0.104878
C94	C	1.589005	0.370481	-0.094101
C95	C	1.683401	0.343333	-0.045897
C96	C	1.697178	0.396893	-0.008475
C97	C	1.616561	0.477593	-0.019258
C98	C	1.120620	0.579071	0.309302
C99	C	1.095726	0.519969	0.390007
C100	C	1.029204	0.477191	0.387561
C101	C	0.987566	0.493525	0.304402
C102	C	1.012454	0.552633	0.223698
C103	C	1.586647	0.552619	0.223695
C104	C	1.658681	0.493508	0.304390
C105	C	1.630095	0.477160	0.387555
C106	C	1.529468	0.519934	0.390022
C107	C	1.457437	0.579049	0.309328
C108	C	0.780417	1.134781	-0.449289
C109	C	0.708388	1.193917	-0.529987
C110	C	0.736975	1.210269	-0.613153
C111	C	0.837601	1.167490	-0.615620
C112	C	0.909629	1.108361	-0.534923
C113	C	0.858679	1.236218	-0.120723
C114	C	0.778067	1.316932	-0.131522
C115	C	0.683672	1.344082	-0.179729
C116	C	0.669893	1.290519	-0.217147
C117	C	0.750507	1.209811	-0.206353
C118	C	1.354601	1.134750	-0.449269
C119	C	1.379512	1.193858	-0.529961
C120	C	1.337890	1.210209	-0.613128
C121	C	1.271361	1.167441	-0.615601
C122	C	1.246457	1.108329	-0.534909
H123	H	0.966842	0.374816	0.030786
H124	H	0.789304	1.360532	-0.101047
Br125	Br	1.214873	1.189651	-0.728480
H126	H	1.129641	0.506677	0.457710
H127	H	0.933401	0.458687	0.302424
H128	H	1.375510	0.613862	0.311352
Br129	Br	0.741593	1.112601	-0.336432
H130	H	1.749036	0.277619	-0.037122
H131	H	1.192284	1.073519	-0.536938
Br132	Br	0.995437	0.396975	0.497098
H133	H	1.230824	0.473265	-0.144139
Br134	Br	1.371697	1.290437	-0.722631
Br135	Br	0.955944	0.574780	0.110856
H136	H	1.090274	1.077615	-0.626629
H137	H	1.774046	0.374777	0.030772
Br138	Br	0.571834	1.251961	-0.526617
Br139	Br	1.248554	0.680571	-0.641097
H140	H	0.996384	0.521237	0.011197
Br141	Br	0.731785	1.137129	-0.257130
Br142	Br	0.703613	1.037801	-0.148735
Br143	Br	0.986778	1.199394	-0.055298
H144	H	1.609941	0.565918	0.155986
Br145	Br	1.318849	0.504199	-0.426636
H146	H	0.540958	1.001876	-0.161331
H147	H	1.431534	0.473277	-0.144141
H148	H	1.208514	0.781019	-0.711023
H149	H	1.740611	0.458685	0.302365
H150	H	1.388500	1.121449	-0.381558
H151	H	1.282374	0.595716	-0.311260
H152	H	1.433681	1.228676	-0.527930
H153	H	1.688757	0.429023	0.453255
H154	H	1.069068	1.130850	-0.787499
Br155	Br	1.306622	0.453564	-0.194364
Br156	Br	1.068475	1.132317	-0.963728
H157	H	1.627792	0.521188	0.011222
Br158	Br	0.876381	1.189690	-0.728495
H159	H	1.577768	0.326881	-0.124576
H160	H	0.618040	1.409802	-0.188512
H161	H	1.400218	0.312561	-0.256379
Br162	Br	1.490689	0.497738	0.502897
Br163	Br	1.210908	0.637111	0.312648
H164	H	0.678315	1.258418	-0.678854
Br165	Br	1.046177	1.050307	-0.538289
H166	H	1.370660	0.166156	-0.236791
Br167	Br	0.541778	1.327376	-0.282566
H168	H	1.007006	0.240570	0.004159
Br169	Br	1.100622	0.099551	-0.057840
H170	H	0.551034	0.973674	-0.251907
Br171	Br	0.721011	0.991405	-0.300695
H172	H	0.624510	0.795268	-0.214385
H173	H	0.821979	0.695914	-0.095162
Br174	Br	0.666009	0.645380	-0.065105
H175	H	0.784289	0.793865	-0.213155
H176	H	0.754642	0.864409	0.006565
Br177	Br	0.566467	0.890155	0.028626
H178	H	0.806347	0.738127	0.037409
Br179	Br	1.139743	0.953574	-0.423601
H180	H	0.648397	0.734165	0.034914
