data_functionalizedCrystal
_audit_creation_method	'MofGen! by Chris Wilmer'
_symmetry_space_group_name_H-M	'P1'
_symmetry_Int_Tables_number	1
_symmetry_cell_setting	triclinic
loop_
_symmetry_equiv_pos_as_xyz
  x,y,z
_cell_length_a	19.076808
_cell_length_b	19.805407
_cell_length_c	19.077579
_cell_angle_alpha	87.685941
_cell_angle_beta	94.529153
_cell_angle_gamma	87.680447
loop_
_atom_site_label
_atom_site_type_symbol
_atom_site_fract_x
_atom_site_fract_y
_atom_site_fract_z
Zn1	Zn	-0.264741	-1.039457	0.387324
Zn2	Zn	-0.387373	-1.029904	0.264694
Zn3	Zn	-0.269489	-0.921540	0.269447
Zn4	Zn	-0.382592	-0.921500	0.382543
O5	O	-0.326049	-0.978100	0.326002
O6	O	-0.281022	-1.132906	0.371068
O7	O	-0.375723	-1.011549	0.166673
O8	O	-0.170202	-0.941197	0.289074
O9	O	-0.371119	-1.125888	0.280972
O10	O	-0.166714	-1.027830	0.375677
O11	O	-0.289114	-0.931934	0.170165
O12	O	-0.284478	-0.826818	0.284438
O13	O	-0.362971	-0.941128	0.481829
O14	O	-0.367575	-0.826789	0.367530
O15	O	-0.276386	-1.027791	0.485341
O16	O	-0.485395	-1.011509	0.276337
O17	O	-0.481883	-0.931865	0.362921
C18	C	-0.326024	-0.802244	0.325982
C19	C	-0.326029	-0.727013	0.325989
C20	C	-0.279192	-0.695323	0.372966
C21	C	-0.279194	-0.624635	0.372967
C22	C	-0.326038	-0.585637	0.325993
C23	C	-0.372877	-0.617331	0.279011
C24	C	-0.372871	-0.688018	0.279007
C25	C	-0.372902	-0.332257	0.279025
C26	C	-0.372906	-0.261565	0.279033
C27	C	-0.279225	-0.268874	0.372984
C28	C	-0.279219	-0.339561	0.372980
C29	C	-0.326056	-0.371249	0.325996
C30	C	-0.326052	-0.447897	0.325994
C31	C	-0.326045	-0.508990	0.325997
C32	C	-0.509219	-0.970665	0.318610
C33	C	-0.587579	-0.967547	0.315471
C34	C	-0.622515	-1.011157	0.359123
C35	C	-0.696142	-1.008225	0.356175
C36	C	-0.734833	-0.961686	0.309571
C37	C	-0.699893	-0.918071	0.265918
C38	C	-0.626266	-0.921001	0.268870
C39	C	-0.955234	-0.948088	0.295906
C40	C	-1.028866	-0.945163	0.292956
C41	C	-1.025110	-1.035316	0.383214
C42	C	-0.951483	-1.038244	0.386159
C43	C	-0.916548	-0.994627	0.342509
N44	N	-0.810093	-0.958689	0.306555
N45	N	-0.841290	-0.997621	0.345529
C46	C	-0.142162	-0.985584	0.333439
C47	C	-0.063801	-0.988772	0.336608
C48	C	-0.318616	-0.985520	0.509880
C49	C	-0.315448	-0.988683	0.588238
C50	C	-0.326069	-0.154643	0.326017
C51	C	-0.326065	-0.229875	0.326008
C52	C	-0.333402	-0.970750	0.142842
C53	C	-0.336371	-0.967727	0.064492
C54	C	-0.292781	-1.011360	1.029506
C55	C	-0.295761	-1.008384	0.955880
C56	C	-0.342327	-0.961773	0.917242
C57	C	-0.385921	-0.918138	0.952234
C58	C	-0.382945	-0.921117	1.025858
C59	C	-0.356066	-0.948027	0.696853
C60	C	-0.359038	-0.945050	0.623224
C61	C	-0.268878	-1.035297	0.626876
C62	C	-0.265902	-1.038269	0.700501
C63	C	-0.309499	-0.994638	0.735486
N64	N	-0.345372	-0.958729	0.841985
N65	N	-0.306457	-0.997685	0.810742
H66	H	-0.241076	-0.371310	0.411233
F67	F	-0.229375	-0.235143	0.422988
F68	F	-0.581343	-1.060694	0.408721
F69	F	-0.422765	-0.220062	0.229034
H70	H	-0.260267	-1.043916	0.927397
H71	H	-1.060366	-0.907262	0.255005
H72	H	-0.919982	-1.076139	0.424107
H73	H	-0.926796	-0.912575	0.260363
F74	F	-0.589086	-0.874585	0.222411
H75	H	-0.391565	-0.912498	0.725329
H76	H	-0.227986	-1.076228	0.731955
F77	F	-0.741072	-0.868535	0.216325
H78	H	-0.241048	-0.727070	0.411219
F79	F	-0.222478	-1.081727	0.589637
H80	H	-0.254858	-1.049312	1.060959
H81	H	-0.724584	-1.043741	0.391715
F82	F	-1.062295	-1.081730	0.429669
F83	F	-0.429340	-0.874679	1.063093
F84	F	-0.422739	-0.365973	0.229008
F85	F	-0.408602	-0.895438	0.582104
F86	F	-0.435482	-0.868532	0.911111
F87	F	-0.422729	-0.575825	0.229015
H88	H	-0.241055	-0.598836	0.411222
F89	F	-0.422723	-0.721744	0.229008
