data_functionalizedCrystal
_audit_creation_method	'MofGen! by Chris Wilmer'
_symmetry_space_group_name_H-M	'P1'
_symmetry_Int_Tables_number	1
_symmetry_cell_setting	triclinic
loop_
_symmetry_equiv_pos_as_xyz
  x,y,z
_cell_length_a	16.974800
_cell_length_b	10.540539
_cell_length_c	16.053934
_cell_angle_alpha	87.401742
_cell_angle_beta	96.214647
_cell_angle_gamma	83.956435
loop_
_atom_site_label
_atom_site_type_symbol
_atom_site_fract_x
_atom_site_fract_y
_atom_site_fract_z
O1	O	1.050135	0.161573	0.001557
O2	O	1.550135	0.661573	0.501557
O3	O	0.819304	0.183401	-0.014047
O4	O	1.319304	0.683401	0.485953
O5	O	0.939986	-0.012333	-0.005888
O6	O	1.439986	0.487667	0.494112
O7	O	0.929453	0.357307	-0.006602
O8	O	1.429453	0.857307	0.493398
O9	O	0.946592	-0.023070	0.133415
O10	O	1.446592	0.476930	0.633415
O11	O	0.825910	0.172665	0.125256
O12	O	1.325910	0.672665	0.625256
O13	O	1.056742	0.150836	0.140860
O14	O	1.556742	0.650836	0.640860
Zn15	Zn	0.942375	0.160046	0.155175
Zn16	Zn	1.442375	0.660046	0.655175
Zn17	Zn	0.933671	0.174191	-0.028362
Zn18	Zn	1.433671	0.674191	0.471638
O19	O	0.936060	0.346570	0.132701
O20	O	1.436060	0.846570	0.632701
C21	C	0.793049	0.177405	0.053606
C22	C	1.293049	0.677405	0.553606
C23	C	0.704977	0.175521	0.047653
C24	C	1.204977	0.675521	0.547653
C25	C	0.667206	0.168780	0.120792
C26	C	1.167206	0.668780	0.620792
C27	C	0.584454	0.166988	0.115200
C28	C	1.084454	0.666988	0.615200
C29	C	0.539473	0.171947	0.036469
C30	C	1.039473	0.671947	0.536469
C31	C	0.577250	0.178685	-0.036676
C32	C	1.077250	0.678685	0.463324
C33	C	0.660001	0.180467	-0.031083
C34	C	1.160001	0.680467	0.468917
C35	C	0.291597	0.167237	0.011601
C36	C	0.791597	0.667237	0.511601
C37	C	0.208840	0.165458	0.006014
C38	C	0.708840	0.665458	0.506014
C39	C	0.216050	0.153759	0.157890
C40	C	0.716050	0.653759	0.657890
C41	C	0.298802	0.155549	0.163475
C42	C	0.798802	0.655549	0.663475
C43	C	0.336572	0.162280	0.090331
C44	C	0.836572	0.662280	0.590331
N45	N	0.454887	0.170121	0.030751
N46	N	0.954887	0.670121	0.530751
N47	N	0.421157	0.164098	0.096049
N48	N	0.921157	0.664098	0.596049
C49	C	0.942499	-0.064987	0.063708
C50	C	1.442499	0.435013	0.563708
C51	C	0.940136	-0.205884	0.063544
C52	C	1.440136	0.294116	0.563544
C53	C	0.849568	-0.387336	0.057110
C54	C	1.349568	0.112664	0.557110
C55	C	0.851979	-0.240794	0.057586
C56	C	1.351979	0.259206	0.557586
C57	C	0.986334	-0.274587	0.145961
C58	C	1.486334	0.225413	0.645961
C59	C	0.983328	-0.421072	0.145824
C60	C	1.483328	0.078928	0.645824
C61	C	0.977609	-0.409419	-0.012468
C62	C	1.477609	0.090581	0.487532
C63	C	0.978371	-0.262374	-0.013465
C64	C	1.478371	0.237626	0.486535
C65	C	1.082996	0.156832	0.073204
C66	C	1.582996	0.656832	0.573204
C67	C	1.171069	0.158717	0.079152
C68	C	1.671069	0.658717	0.579152
C69	C	0.933546	0.399225	0.063102
C70	C	1.433546	0.899225	0.563102
C71	C	0.935910	0.540122	0.063261
C72	C	1.435910	1.040122	0.563261
N73	N	0.948321	0.150391	0.280435
N74	N	1.448321	0.650391	0.780435
N75	N	0.927731	0.183836	-0.153622
N76	N	1.427731	0.683836	0.346378
C77	C	0.896961	0.233645	0.320677
C78	C	1.396961	0.733645	0.820677
C79	C	0.901143	0.226886	0.408365
C80	C	1.401143	0.726886	0.908365
C81	C	0.956683	0.136865	0.455809
C82	C	1.456683	0.636865	0.955809
C83	C	1.008049	0.053607	0.415561
C84	C	1.508049	0.553607	0.915561
C85	C	1.003870	0.060373	0.327875
C86	C	1.503870	0.560373	0.827875
C87	C	0.974918	0.107344	0.718444
C88	C	1.474918	0.607344	1.218444
C89	C	0.979091	0.100582	0.806136
C90	C	1.479091	0.600582	1.306136
C91	C	0.872186	0.273863	0.798934
C92	C	1.372186	0.773863	1.298934
C93	C	0.868008	0.280616	0.711246
C94	C	1.368008	0.780616	1.211246
C95	C	0.919377	0.197363	0.671006
C96	C	1.419377	0.697363	1.171006
N97	N	0.960958	0.129951	0.545440
N98	N	1.460958	0.629951	1.045440
N99	N	0.915105	0.204284	0.581377
N100	N	1.415105	0.704284	1.081377
H101	H	0.553706	0.161478	0.174758
H102	H	1.053706	0.661478	0.674758
Br103	Br	0.792629	0.402783	0.646857
Br104	Br	1.292629	0.902783	1.146857
H105	H	0.830365	0.341646	0.831706
H106	H	1.330365	0.841646	1.331706
H107	H	1.042416	-0.239167	-0.013924
H108	H	1.542416	0.260833	0.486076
H109	H	0.185288	0.148277	0.217440
H110	H	0.685288	0.648277	0.717440
H111	H	0.690752	0.185959	-0.090641
H112	H	1.190752	0.685959	0.409359
H113	H	0.703823	0.164752	0.184903
H114	H	1.203823	0.664752	0.684903
Br115	Br	1.083696	-0.490348	-0.006187
Br116	Br	1.583696	0.009652	0.493813
Br117	Br	1.094474	-0.240041	0.158190
Br118	Br	1.594474	0.259959	0.658190
H119	H	0.821071	-0.202716	0.112432
H120	H	1.321071	0.297284	0.612432
Br121	Br	1.054471	-0.021606	0.870519
Br122	Br	1.554471	0.478394	1.370519
H123	H	0.851731	0.306945	0.282054
H124	H	1.351731	0.806945	0.782054
Br125	Br	0.359840	0.148833	0.270329
Br126	Br	0.859840	0.648833	0.770329
H127	H	0.859322	0.294679	0.441130
H128	H	1.359322	0.794679	0.941130
H129	H	0.172218	0.169500	-0.058102
H130	H	0.672218	0.669500	0.441898
H131	H	0.815892	-0.193076	-0.001694
H132	H	1.315892	0.306924	0.498306
H133	H	0.322339	0.172713	-0.047959
H134	H	0.822339	0.672713	0.452041
Br135	Br	0.925280	-0.453220	-0.116176
Br136	Br	1.425280	0.046780	0.383824
H137	H	1.016743	0.039553	0.685687
H138	H	1.516743	0.539553	1.185687
Br139	Br	0.516210	0.185360	-0.143527
Br140	Br	1.016210	0.685360	0.356473
H141	H	1.053275	-0.019686	0.454195
H142	H	1.553275	0.480314	0.954195
H143	H	0.812038	-0.410789	-0.002289
H144	H	1.312038	0.089211	0.497711
Br145	Br	1.073582	-0.052613	0.273261
Br146	Br	1.573582	0.447387	0.773261
H147	H	0.817576	-0.421169	0.111492
H148	H	1.317576	0.078831	0.611492
H149	H	0.954794	-0.453179	0.203169
H150	H	1.454794	0.046821	0.703169
H151	H	0.944537	-0.216311	-0.074411
H152	H	1.444537	0.283689	0.425589
Br153	Br	0.941896	-0.210138	0.241311
Br154	Br	1.441896	0.289862	0.741311
Br155	Br	1.089283	-0.503770	0.158993
Br156	Br	1.589283	-0.003770	0.658993
