data_functionalizedCrystal
_audit_creation_method	'MofGen! by Chris Wilmer'
_symmetry_space_group_name_H-M	'P1'
_symmetry_Int_Tables_number	1
_symmetry_cell_setting	triclinic
loop_
_symmetry_equiv_pos_as_xyz
  x,y,z
_cell_length_a	17.019282
_cell_length_b	27.731996
_cell_length_c	15.500227
_cell_angle_alpha	92.797931
_cell_angle_beta	91.034464
_cell_angle_gamma	83.006485
loop_
_atom_site_label
_atom_site_type_symbol
_atom_site_fract_x
_atom_site_fract_y
_atom_site_fract_z
O1	O	1.045605	0.061735	0.005972
O2	O	0.816718	0.069063	-0.011090
O3	O	0.938291	-0.004955	-0.002009
O4	O	0.924032	0.135753	-0.003109
O5	O	0.930913	-0.000481	0.141328
O6	O	0.809341	0.073537	0.132248
O7	O	1.038228	0.066209	0.149309
Cu8	Cu	0.923111	0.070282	0.153866
Cu9	Cu	0.931835	0.064991	-0.015647
O10	O	0.916655	0.140227	0.140228
C11	C	0.783756	0.070935	0.058397
C12	C	0.696531	0.069842	0.051896
C13	C	0.651536	0.071766	0.126977
C14	C	0.569580	0.070731	0.120871
C15	C	0.532621	0.067775	0.039683
C16	C	0.577622	0.065850	-0.035404
C17	C	0.659577	0.066881	-0.029297
C18	C	0.285371	0.064536	0.017336
C19	C	0.203410	0.063506	0.011235
C20	C	0.195374	0.068386	0.167510
C21	C	0.277331	0.069420	0.173610
C22	C	0.322325	0.067492	0.098523
C23	C	0.448849	0.066719	0.033440
C24	C	0.406097	0.068545	0.104767
C25	C	0.934309	-0.020727	0.069641
C26	C	0.933426	-0.074388	0.069584
C27	C	0.931898	-0.409579	-0.009005
C28	C	0.928549	-0.611258	-0.009270
O29	O	0.931502	-0.639406	-0.075755
N30	N	0.924111	-0.634039	0.068831
C31	C	0.920506	-0.606397	0.147004
O32	O	0.916647	-0.630401	0.213428
C33	C	0.923850	-0.404718	0.147268
C34	C	0.928296	-0.381940	0.069162
C35	C	0.936343	-0.386801	-0.087105
C36	C	0.937184	-0.336385	-0.087038
C37	C	0.933582	-0.308746	-0.008871
C38	C	0.929137	-0.331524	0.069229
C39	C	0.920239	-0.377076	0.225439
C40	C	0.921073	-0.326653	0.225498
C41	C	0.925519	-0.303875	0.147392
C42	C	0.926376	-0.253469	0.147464
N43	N	0.930814	-0.230688	0.069362
C44	C	0.934416	-0.258326	-0.008805
C45	C	0.918752	-0.712282	0.146860
C46	C	0.917917	-0.762701	0.146795
C47	C	0.925959	-0.767559	-0.009480
C48	C	0.926799	-0.717139	-0.009413
C49	C	0.923189	-0.689501	0.068759
C50	C	0.936184	-0.152448	-0.008658
C51	C	0.937029	-0.102027	-0.008583
C52	C	0.928983	-0.097173	0.147691
C53	C	0.928143	-0.147590	0.147617
C54	C	0.931741	-0.175226	0.069436
O55	O	0.923417	-0.225290	0.213913
O56	O	0.938258	-0.234312	-0.075220
C57	C	0.931057	-0.459996	-0.009073
C58	C	0.926612	-0.482773	0.069027
C59	C	0.923010	-0.455135	0.147194
C60	C	0.925778	-0.533193	0.068961
C61	C	0.929380	-0.560832	-0.009206
C62	C	0.933818	-0.538051	-0.087307
C63	C	0.934659	-0.487634	-0.087240
C64	C	0.918572	-0.477916	0.225296
C65	C	0.917732	-0.528333	0.225222
C66	C	0.921334	-0.555971	0.147055
C67	C	1.071190	0.064337	0.079820
C68	C	1.158415	0.065430	0.086316
C69	C	0.920637	0.155999	0.068576
C70	C	0.921520	0.209660	0.068628
N71	N	0.916980	0.074003	0.273093
N72	N	0.937972	0.061266	-0.134874
C73	C	0.968512	0.042650	0.322219
C74	C	0.963883	0.045469	0.412446
C75	C	0.907725	0.079643	0.453546
C76	C	0.856188	0.110996	0.404413
C77	C	0.860814	0.108175	0.314188
C78	C	0.891060	0.089798	0.725768
C79	C	0.886440	0.092618	0.816000
C80	C	0.994135	0.027090	0.824027
C81	C	0.998759	0.024274	0.733799
C82	C	0.947219	0.055625	0.684675
C83	C	0.902994	0.082525	0.545773
C84	C	0.951947	0.052740	0.592449
H85	H	0.532950	0.072289	0.182010
H86	H	0.681621	0.074176	0.193089
H87	H	0.307418	0.071825	0.239721
H88	H	0.924530	-0.166137	0.211218
H89	H	1.005844	0.019939	0.452444
H90	H	0.696211	0.065315	-0.090436
H91	H	0.418747	0.064313	-0.032664
C92	C	0.446342	0.071678	0.192857
C93	C	0.502535	0.030874	0.201628
C94	C	0.539639	0.033748	0.282760
H95	H	0.407902	0.072656	0.236783
H96	H	0.471849	0.100327	0.198009
H97	H	0.477028	0.002232	0.196484
H98	H	0.540990	0.029887	0.157721
H99	H	0.565146	0.062398	0.287912
H100	H	0.501193	0.034728	0.326680
H101	H	0.577774	0.006066	0.288718
H102	H	1.044487	-0.003553	0.700338
H103	H	0.916620	-0.395613	0.289042
H104	H	0.158731	0.069955	0.228641
H105	H	0.940651	-0.083484	-0.072189
H106	H	0.936755	-0.560563	-0.150954
C107	C	0.914705	-0.448001	0.310263
C108	C	0.910661	-0.478750	0.378639
C109	C	0.907115	-0.451214	0.456930
H110	H	0.869032	-0.424608	0.310257
H111	H	0.960728	-0.431862	0.317000
H112	H	0.864643	-0.494882	0.371903
H113	H	0.956329	-0.502144	0.378673
H114	H	0.953139	-0.435074	0.463667
H115	H	0.861442	-0.427822	0.456915
H116	H	0.904379	-0.472074	0.503333
C117	C	1.050047	-0.007033	0.877253
C118	C	1.039030	-0.055242	0.854406
C119	C	1.090527	-0.086693	0.903412
H120	H	1.039305	-0.000527	0.936891
H121	H	1.103204	-0.002177	0.866340
H122	H	0.985886	-0.060096	0.865325
H123	H	1.049778	-0.061763	0.794776
H124	H	1.143684	-0.081837	0.892499
H125	H	1.079780	-0.080183	0.963047
H126	H	1.083064	-0.119406	0.887912
C127	C	0.940122	-0.182366	-0.093628
C128	C	0.944206	-0.151619	-0.162000
C129	C	0.947842	-0.179162	-0.240285
H130	H	0.894132	-0.198521	-0.100438
H131	H	0.985821	-0.205748	-0.093547
H132	H	0.898512	-0.128245	-0.162082
H133	H	0.990194	-0.135463	-0.155219
H134	H	0.993541	-0.202544	-0.240204
H135	H	0.901851	-0.195316	-0.247086
H136	H	0.950621	-0.158305	-0.286684
C137	C	0.916994	-0.296606	0.310334
C138	C	0.849597	-0.262193	0.309897
C139	C	0.845808	-0.234509	0.388034
H140	H	0.962938	-0.280406	0.317110
H141	H	0.914182	-0.317374	0.356861
H142	H	0.852415	-0.241427	0.263384
H143	H	0.803641	-0.278380	0.303136
H144	H	0.842996	-0.255278	0.434562
H145	H	0.891756	-0.218312	0.394804
H146	H	0.800076	-0.211160	0.387752
C147	C	0.825374	0.129734	0.860462
C148	C	0.781209	0.156576	0.798129
C149	C	0.724944	0.190763	0.839054
H150	H	0.851485	0.151060	0.897728
H151	H	0.791043	0.113387	0.893231
H152	H	0.815536	0.172922	0.765374
H153	H	0.755081	0.135263	0.760860
H154	H	0.690613	0.174416	0.871824
H155	H	0.751062	0.212086	0.876319
H156	H	0.694967	0.208977	0.796768
H157	H	0.810458	0.138819	0.437882
C158	C	0.804822	0.142275	0.261001
C159	C	0.754665	0.172816	0.316304
C160	C	0.703079	0.204239	0.267341
H161	H	0.774059	0.123778	0.223390
H162	H	0.834621	0.161378	0.227891
H163	H	0.724869	0.153715	0.349399
H164	H	0.785407	0.191323	0.353915
H165	H	0.732878	0.223343	0.234231
H166	H	0.672321	0.185738	0.229732
H167	H	0.669046	0.224968	0.304857
C168	C	0.835243	0.123866	0.672345
C169	C	0.879391	0.151909	0.623602
C170	C	0.828000	0.183297	0.574369
H171	H	0.801125	0.144666	0.709652
H172	H	0.804560	0.105331	0.634692
H173	H	0.910061	0.170442	0.661252
H174	H	0.913507	0.131121	0.586279
H175	H	0.797317	0.164762	0.536715
H176	H	0.793885	0.204094	0.611682
H177	H	0.857947	0.202325	0.541285
H178	H	0.173320	0.061101	-0.054882
C179	C	0.334073	0.062464	-0.064286
C180	C	0.284158	0.059668	-0.136691
C181	C	0.328996	0.057764	-0.211899
H182	H	0.372562	0.034607	-0.064794
H183	H	0.359852	0.090932	-0.065686
H184	H	0.258393	0.031203	-0.135291
H185	H	0.245670	0.087522	-0.136211
H186	H	0.354775	0.086232	-0.213299
H187	H	0.367483	0.029907	-0.212398
H188	H	0.295135	0.055871	-0.261034
H189	H	0.997669	0.024914	0.558983
H190	H	0.857270	0.110351	0.579243
H191	H	0.547524	0.063440	-0.101509
C192	C	0.941783	-0.311606	-0.171823
C193	C	0.874828	-0.277491	-0.181336
C194	C	0.878997	-0.254665	-0.259444
H195	H	0.943738	-0.335257	-0.218422
H196	H	0.988072	-0.295605	-0.171748
H197	H	0.828551	-0.293492	-0.181419
H198	H	0.872860	-0.253831	-0.134756
H199	H	0.925286	-0.238664	-0.259369
H200	H	0.880954	-0.278319	-0.306037
H201	H	0.833574	-0.231512	-0.265905
C202	C	0.940305	-0.416723	-0.172068
C203	C	0.944395	-0.385975	-0.240437
C204	C	0.948064	-0.413518	-0.318722
H205	H	0.894326	-0.432886	-0.178895
H206	H	0.986013	-0.440098	-0.171972
H207	H	0.898692	-0.362608	-0.240535
H208	H	0.990372	-0.369810	-0.233640
H209	H	0.993771	-0.436893	-0.318625
H210	H	0.902083	-0.429681	-0.325539
H211	H	0.950846	-0.392661	-0.365119
H212	H	0.930418	-0.698597	-0.073014
C213	C	0.929908	-0.797491	-0.094437
C214	C	0.933987	-0.766757	-0.162830
C215	C	0.937629	-0.794315	-0.241099
H216	H	0.883922	-0.813651	-0.101236
H217	H	0.975611	-0.820869	-0.094343
H218	H	0.888288	-0.743387	-0.162925
H219	H	0.979970	-0.750597	-0.156059
H220	H	0.983332	-0.817693	-0.241004
H221	H	0.891642	-0.810474	-0.247889
H222	H	0.940404	-0.773467	-0.287512
H223	H	0.914309	-0.781243	0.210398
C224	C	0.914880	-0.682366	0.231834
C225	C	0.910842	-0.713117	0.300210
C226	C	0.907292	-0.685580	0.378501
H227	H	0.869204	-0.658976	0.231829
H228	H	0.960900	-0.666224	0.238572
H229	H	0.864826	-0.729251	0.293474
H230	H	0.956513	-0.736508	0.300243
H231	H	0.953312	-0.669438	0.385239
H232	H	0.861616	-0.662191	0.378486
H233	H	0.904559	-0.706441	0.424903
C234	C	0.924926	-0.067203	0.232603
C235	C	0.854663	-0.072676	0.274676
C236	C	0.850890	-0.045076	0.352901
H237	H	0.926010	-0.033901	0.221560
H238	H	0.968944	-0.078080	0.268180
H239	H	0.810656	-0.061797	0.239106
H240	H	0.853564	-0.105973	0.285741
H241	H	0.894908	-0.055953	0.388479
H242	H	0.851976	-0.011775	0.341850
H243	H	0.803220	-0.048789	0.381461
C244	C	0.912770	-0.553108	0.309961
C245	C	0.844421	-0.576578	0.309427
C246	C	0.839816	-0.599406	0.387466
H247	H	0.910694	-0.529468	0.356583
H248	H	0.958085	-0.576321	0.316630
H249	H	0.799118	-0.553367	0.302767
H250	H	0.846482	-0.600224	0.262821
H251	H	0.885131	-0.622619	0.394135
H252	H	0.837743	-0.575763	0.434082
H253	H	0.793446	-0.615336	0.387111
H254	H	1.014245	0.014825	0.288762
H255	H	0.938279	-0.469093	-0.150842
