data_functionalizedCrystal
_audit_creation_method	'MofGen! by Chris Wilmer'
_symmetry_space_group_name_H-M	'P1'
_symmetry_Int_Tables_number	1
_symmetry_cell_setting	triclinic
loop_
_symmetry_equiv_pos_as_xyz
  x,y,z
_cell_length_a	16.992694
_cell_length_b	8.965430
_cell_length_c	16.992700
_cell_angle_alpha	89.994763
_cell_angle_beta	90.667698
_cell_angle_gamma	89.999967
loop_
_atom_site_label
_atom_site_type_symbol
_atom_site_fract_x
_atom_site_fract_y
_atom_site_fract_z
O1	O	1.050850	-0.123892	0.166909
O2	O	1.550850	0.376108	0.666909
O3	O	0.822450	-0.123935	0.165078
O4	O	1.322450	0.376065	0.665078
O5	O	0.935736	-0.123876	0.051793
O6	O	1.435736	0.376124	0.551793
O7	O	0.937565	-0.123951	0.280193
O8	O	1.437565	0.376049	0.780193
O9	O	0.935722	0.124203	0.051804
O10	O	1.435722	0.624203	0.551804
O11	O	0.822437	0.124144	0.165088
O12	O	1.322437	0.624144	0.665088
O13	O	1.050837	0.124187	0.166920
O14	O	1.550837	0.624187	0.666920
Cu15	Cu	0.936636	0.146817	0.166005
Cu16	Cu	1.436636	0.646817	0.666005
Cu17	Cu	0.936652	-0.146565	0.165992
Cu18	Cu	1.436652	0.353435	0.665992
O19	O	0.937552	0.124128	0.280204
O20	O	1.437552	0.624128	0.780204
C21	C	0.793084	0.000099	0.162727
C22	C	1.293084	0.500099	0.662727
C23	C	0.705599	0.000084	0.155699
C24	C	1.205599	0.500084	0.655699
C25	C	0.659608	0.000063	0.223517
C26	C	1.159608	0.500063	0.723517
C27	C	0.577407	0.000086	0.216908
C28	C	1.077407	0.500086	0.716908
C29	C	0.541199	0.000119	0.142480
C30	C	1.041199	0.500119	0.642480
C31	C	0.587197	0.000145	0.074657
C32	C	1.087197	0.500145	0.574657
C33	C	0.669396	0.000133	0.081267
C34	C	1.169396	0.500133	0.581267
C35	C	0.295885	0.000168	0.115086
C36	C	0.795885	0.500168	0.615086
C37	C	0.213680	0.000176	0.108481
C38	C	0.713680	0.500176	0.608481
C39	C	0.203896	0.000119	0.250732
C40	C	0.703896	0.500119	0.750732
C41	C	0.286097	0.000098	0.257335
C42	C	0.786097	0.500098	0.757335
C43	C	0.332087	0.000132	0.189512
C44	C	0.832087	0.500132	0.689512
N45	N	0.457177	0.000138	0.135723
N46	N	0.957177	0.500138	0.635723
N47	N	0.416108	0.000124	0.196270
N48	N	0.916108	0.500124	0.696270
N49	N	0.936631	0.353166	0.166014
N50	N	1.436631	0.853166	0.666014
C51	C	0.884220	0.450444	0.218386
C52	C	1.384220	0.950444	0.718386
C53	C	0.956310	0.549866	0.238120
C54	C	1.456310	1.049866	0.738120
C55	C	0.864567	0.549872	0.146293
C56	C	1.364567	1.049872	0.646293
C57	C	1.008758	0.450398	0.185785
C58	C	1.508758	0.950398	0.685785
C59	C	0.916967	0.450396	0.093925
C60	C	1.416967	0.950396	0.593925
C61	C	0.989106	0.549773	0.113631
C62	C	1.489106	1.049773	0.613631
C63	C	1.080204	0.000149	0.169270
C64	C	1.580204	0.500149	0.669270
C65	C	1.167688	0.000154	0.176299
C66	C	1.667688	0.500154	0.676299
N67	N	0.936648	0.647086	0.165991
N68	N	1.436648	1.147086	0.665991
C69	C	0.933374	0.000170	0.022439
C70	C	1.433374	0.500170	0.522439
C71	C	0.926346	0.000188	-0.065046
C72	C	1.426346	0.500188	0.434954
C73	C	0.879124	0.000043	-0.556965
C74	C	1.379124	0.500043	-0.056965
C75	C	0.885734	0.000059	-0.474764
C76	C	1.385734	0.500059	0.025236
C77	C	0.960162	0.000093	-0.438557
C78	C	1.460162	0.500093	0.061443
C79	C	1.027984	0.000097	-0.484555
C80	C	1.527984	0.500097	0.015445
C81	C	1.021374	0.000070	-0.566754
C82	C	1.521374	0.500070	-0.066754
C83	C	0.987558	0.000165	-0.193243
C84	C	1.487558	0.500165	0.306757
C85	C	0.994163	0.000196	-0.111038
C86	C	1.494163	0.500196	0.388962
C87	C	0.851912	0.000155	-0.101253
C88	C	1.351912	0.500155	0.398747
C89	C	0.845308	0.000137	-0.183454
C90	C	1.345308	0.500137	0.316546
C91	C	0.913131	0.000133	-0.229445
C92	C	1.413131	0.500133	0.270555
N93	N	0.966919	0.000114	-0.354535
N94	N	1.466919	0.500114	0.145465
N95	N	0.906372	0.000102	-0.313465
N96	N	1.406372	0.500102	0.186535
C97	C	0.939914	0.000079	0.309559
C98	C	1.439914	0.500079	0.809559
C99	C	0.946942	0.000051	0.397043
C100	C	1.446942	0.500051	0.897043
H101	H	0.539964	0.000067	0.272132
H102	H	1.039964	0.500067	0.772132
O103	O	0.894889	0.392468	0.013207
O104	O	1.394889	0.892468	0.513207
H105	H	0.937812	0.434002	-0.030388
H106	H	1.437812	0.934002	0.469612
O107	O	0.154286	0.000107	0.323877
O108	O	0.654286	0.500107	0.823877
H109	H	0.167705	-0.101023	0.359246
H110	H	0.667705	0.398977	0.859246
O111	O	0.698658	0.000023	0.303793
O112	O	1.198658	0.500023	0.803793
H113	H	0.735882	0.101124	0.310208
H114	H	1.235882	0.601124	0.810208
H115	H	0.839946	0.406832	0.262720
H116	H	1.339946	0.906832	0.762720
O117	O	0.719007	0.000151	0.008122
O118	O	1.219007	0.500151	0.508122
H119	H	0.680022	0.000163	-0.044744
H120	H	1.180022	0.500163	0.455256
H121	H	1.033487	0.593111	0.069332
H122	H	1.533487	1.093111	0.569332
H123	H	0.184203	0.000201	0.047870
H124	H	0.684203	0.500201	0.547870
O125	O	0.325150	0.000100	0.337611
O126	O	0.825150	0.500100	0.837611
H127	H	0.279359	0.000112	0.383660
H128	H	0.779359	0.500112	0.883660
O129	O	0.548146	0.000195	-0.005620
O130	O	1.048146	0.500195	0.494380
H131	H	0.566272	-0.100897	-0.038467
H132	H	1.066272	0.399103	0.461533
O133	O	0.345485	0.000204	0.041937
O134	O	0.845485	0.500204	0.541937
H135	H	0.306495	0.000216	-0.010925
H136	H	0.806495	0.500216	0.489075
O137	O	0.978336	0.607835	0.318848
O138	O	1.478336	1.107835	0.818848
H139	H	0.934730	0.568095	0.362224
H140	H	1.434730	1.068095	0.862224
H141	H	1.069726	0.406887	0.202528
H142	H	1.569726	0.906887	0.702528
O143	O	0.783835	0.607755	0.124201
O144	O	1.283835	1.107755	0.624201
H145	H	0.740437	0.567957	0.167772
H146	H	1.240437	1.067957	0.667772
H147	H	0.818517	0.000032	-0.586438
H148	H	1.318517	0.500032	-0.086438
H149	H	0.830509	0.000047	-0.437320
H150	H	1.330509	0.500047	0.062680
H151	H	0.784701	0.000092	-0.212927
H152	H	1.284701	0.500092	0.287073
O153	O	1.074442	0.000220	-0.071981
O154	O	1.574442	0.500220	0.428019
H155	H	1.120494	0.000196	-0.117770
H156	H	1.620494	0.500196	0.382230
H157	H	1.088585	0.000127	-0.455069
H158	H	1.588585	0.500127	0.044931
O159	O	0.778762	0.000146	-0.051651
O160	O	1.278762	0.500146	0.448349
H161	H	0.795859	0.000158	0.011591
H162	H	1.295859	0.500158	0.511591
O163	O	1.060713	0.000178	-0.242833
O164	O	1.560713	0.500178	0.257167
H165	H	1.061126	-0.100954	-0.280497
H166	H	1.561126	0.399046	0.219503
H167	H	1.076598	0.000070	-0.604200
H168	H	1.576598	0.500070	-0.104200
