data_functionalizedCrystal
_audit_creation_method	'MofGen! by Chris Wilmer'
_symmetry_space_group_name_H-M	'P1'
_symmetry_Int_Tables_number	1
_symmetry_cell_setting	triclinic
loop_
_symmetry_equiv_pos_as_xyz
  x,y,z
_cell_length_a	15.944499
_cell_length_b	15.944551
_cell_length_c	9.482900
_cell_angle_alpha	99.334197
_cell_angle_beta	80.709219
_cell_angle_gamma	83.488174
loop_
_atom_site_label
_atom_site_type_symbol
_atom_site_fract_x
_atom_site_fract_y
_atom_site_fract_z
O1	O	1.127652	0.094962	-0.120986
O2	O	0.883095	0.108365	-0.120970
O3	O	1.012051	-0.020611	-0.120965
O4	O	0.998697	0.223938	-0.120991
O5	O	0.985857	0.005692	0.120826
O6	O	0.856901	0.134668	0.120821
O7	O	1.101459	0.121265	0.120806
Cu8	Cu	0.976788	0.130368	0.142891
Cu9	Cu	1.007765	0.099262	-0.143056
O10	O	0.972503	0.250241	0.120801
C11	C	0.838703	0.120968	-0.000072
C12	C	0.745454	0.119324	-0.000066
C13	C	0.453921	0.194253	-0.000095
C14	C	0.527865	0.142333	-0.119310
C15	C	0.409821	0.113344	-0.000099
C16	C	0.502026	0.168244	0.119078
C17	C	0.574728	0.116287	-0.000080
C18	C	0.482548	0.061391	-0.119412
C19	C	0.456691	0.087325	0.119083
C20	C	0.530620	0.035342	-0.000161
C21	C	0.314822	0.111651	-0.000111
C22	C	0.669727	0.117973	-0.000079
C23	C	0.998399	-0.038753	-0.000069
C24	C	0.996737	-0.131999	-0.000068
C25	C	0.912832	-0.346842	-0.000083
C26	C	0.938880	-0.394897	0.119132
C27	C	0.993731	-0.302726	-0.000079
C28	C	0.964724	-0.420814	-0.119255
C29	C	0.990822	-0.467640	-0.000096
C30	C	1.019791	-0.349542	0.119234
C31	C	1.045635	-0.375464	-0.119260
C32	C	1.071739	-0.423499	-0.000016
C33	C	0.995404	-0.207722	-0.000068
C34	C	0.989153	-0.562640	-0.000097
C35	C	1.145851	0.108662	-0.000096
C36	C	1.239101	0.110305	-0.000112
C37	C	0.986155	0.268383	-0.000098
C38	C	0.987818	0.361628	-0.000109
N39	N	0.955007	0.152246	0.344010
N40	N	1.029554	0.077377	-0.344175
C41	C	1.001335	0.105710	0.416211
C42	C	0.983218	0.123920	0.583628
H43	H	0.425654	0.064097	0.219880
H44	H	0.420605	0.261386	-0.000218
O45	O	0.936801	-0.457731	-0.239451
C46	C	0.852994	-0.418268	-0.238969
H47	H	0.841406	-0.351276	-0.169174
H48	H	0.804387	-0.458450	-0.192438
C49	C	0.856990	-0.493658	-0.481302
C50	C	0.842761	-0.411374	-0.395589
H51	H	0.850675	-0.489408	-0.577912
H52	H	0.913451	-0.520247	-0.481626
H53	H	0.816483	-0.527133	-0.442509
H54	H	0.883274	-0.377904	-0.434372
H55	H	0.786306	-0.384779	-0.395275
H56	H	0.473499	0.016225	-0.220311
O57	O	1.047485	-0.312471	0.239564
C58	C	1.048700	-0.224330	0.238132
H59	H	1.002432	-0.201809	0.167481
H60	H	1.116412	-0.213602	0.192039
C61	C	1.077884	-0.200622	0.481045
C62	C	1.021052	-0.172960	0.394280
H63	H	1.060834	-0.168934	0.577364
H64	H	1.077069	-0.260005	0.482009
H65	H	1.134307	-0.191681	0.442617
H66	H	0.964634	-0.181911	0.432698
H67	H	1.021857	-0.113577	0.393326
H68	H	0.511183	0.213442	0.219860
O69	O	0.832668	-0.307080	0.000313
C70	C	0.776679	-0.316372	0.126233
H71	H	0.815429	-0.328862	0.213648
H72	H	0.740370	-0.372713	0.099034
C73	C	0.664631	-0.218202	0.075073
C74	C	0.712223	-0.233535	0.182442
H75	H	0.624868	-0.167106	0.109744
H76	H	0.702350	-0.211943	-0.009765
H77	H	0.634381	-0.265158	0.052418
H78	H	0.742480	-0.186584	0.205083
H79	H	0.674508	-0.239784	0.267286
O80	O	0.891737	0.215957	0.417955
C81	C	0.909633	0.295039	0.380885
H82	H	0.953924	0.282897	0.270321
H83	H	0.942308	0.330173	0.466503
C84	C	0.770810	0.365279	0.509886
C85	C	0.825204	0.350366	0.374084
H86	H	0.718731	0.399410	0.505697
H87	H	0.758754	0.312001	0.534867
H88	H	0.798050	0.394554	0.581221
H89	H	0.797968	0.321083	0.302756
H90	H	0.837253	0.403641	0.349091
H91	H	0.930136	0.177243	0.645750
H92	H	0.563803	-0.031870	-0.000217
H93	H	1.082630	0.024048	0.593703
O94	O	1.151933	-0.463117	-0.000231
C95	C	1.178383	-0.527141	-0.126030
H96	H	1.140941	-0.511627	-0.213555
H97	H	1.165637	-0.592119	-0.098702
C98	C	1.321059	-0.549312	-0.074632
C99	C	1.275077	-0.530254	-0.182136
H100	H	1.380704	-0.551236	-0.109238
H101	H	1.303238	-0.506181	0.010125
H102	H	1.310428	-0.603459	-0.051868
H103	H	1.285700	-0.476103	-0.204884
H104	H	1.292901	-0.573376	-0.266898
H105	H	1.090742	-0.366305	-0.220057
O106	O	0.565057	0.169995	-0.239507
C107	C	0.653324	0.170430	-0.238377
H108	H	0.675586	0.123806	-0.168126
H109	H	0.664646	0.237905	-0.191997
C110	C	0.677034	0.200000	-0.480976
C111	C	0.704378	0.142731	-0.394702
H112	H	0.708527	0.182918	-0.577404
H113	H	0.617566	0.199711	-0.481736
H114	H	0.686470	0.256225	-0.442309
H115	H	0.694931	0.086510	-0.433359
H116	H	0.763845	0.143010	-0.393953
H117	H	1.054408	0.052385	0.354085
H118	H	0.893744	-0.404035	0.219924
