data_functionalizedCrystal
_audit_creation_method	'MofGen! by Chris Wilmer'
_symmetry_space_group_name_H-M	'P1'
_symmetry_Int_Tables_number	1
_symmetry_cell_setting	triclinic
loop_
_symmetry_equiv_pos_as_xyz
  x,y,z
_cell_length_a	11.792241
_cell_length_b	10.654554
_cell_length_c	9.130313
_cell_angle_alpha	89.999100
_cell_angle_beta	89.994386
_cell_angle_gamma	84.340129
loop_
_atom_site_label
_atom_site_type_symbol
_atom_site_fract_x
_atom_site_fract_y
_atom_site_fract_z
O1	O	0.159447	1.667380	-0.121806
O2	O	0.174630	1.301859	-0.121808
O3	O	0.001889	1.493490	-0.121797
O4	O	0.332189	1.475749	-0.121817
O5	O	0.001880	1.493487	0.121802
O6	O	0.174621	1.301856	0.121791
O7	O	0.159438	1.667377	0.121793
Cu8	Cu	0.167029	1.484617	0.144034
Cu9	Cu	0.167039	1.484620	-0.144050
O10	O	0.332179	1.475747	0.121781
C11	C	0.173510	1.255063	-0.000009
C12	C	0.170171	1.115630	-0.000009
C13	C	0.062185	0.933373	-0.000015
C14	C	0.065322	1.064386	-0.000004
C15	C	0.271890	1.035853	-0.000009
C16	C	0.268753	0.904843	-0.000009
C17	C	-0.042670	0.882137	-0.000025
C18	C	-0.144391	0.961905	-0.000022
C19	C	-0.141254	1.092918	-0.000011
C20	C	-0.036398	1.144163	-0.000004
C21	C	-0.040409	1.492374	0.000002
C22	C	-0.166431	1.489038	0.000001
C23	C	-0.397157	1.482905	-0.000024
C24	C	-0.268764	1.486313	-0.000010
C25	C	0.374477	1.476862	-0.000021
C26	C	0.500499	1.480198	-0.000029
C27	C	0.160559	1.714173	-0.000010
C28	C	0.163897	1.853607	-0.000019
N29	N	0.167039	1.484623	-0.346672
C30	C	0.090699	1.569635	-0.423319
C31	C	0.090693	1.569639	-0.576656
C32	C	0.243368	1.399607	-0.576685
C33	C	0.243379	1.399610	-0.423351
C34	C	0.014359	1.654648	-0.346640
C35	C	-0.061987	1.739667	-0.423288
C36	C	-0.061994	1.739671	-0.576624
C37	C	0.014345	1.654656	-0.653314
N38	N	0.167020	1.484624	0.346657
H39	H	-0.229761	0.920172	-0.000040
H40	H	0.305519	1.330390	-0.639136
C41	C	-0.144996	1.831762	-0.339951
C42	C	-0.215181	1.764547	-0.251939
C43	C	-0.291673	1.849344	-0.175165
H44	H	-0.103761	1.884250	-0.280021
H45	H	-0.190528	1.882379	-0.407514
H46	H	-0.169655	1.713952	-0.184383
H47	H	-0.256441	1.712064	-0.311832
H48	H	-0.337205	1.899961	-0.242728
H49	H	-0.250428	1.901827	-0.115244
H50	H	-0.339309	1.803751	-0.115450
C51	C	-0.144788	1.831919	-0.660053
C52	C	-0.083689	1.909109	-0.748227
C53	C	-0.159968	1.994021	-0.825144
H54	H	-0.192429	1.786467	-0.719886
H55	H	-0.190328	1.882631	-0.592575
H56	H	-0.038169	1.858403	-0.815697
H57	H	-0.036052	1.954588	-0.688432
H58	H	-0.205508	2.044733	-0.757665
H59	H	-0.207606	1.948559	-0.884967
H60	H	-0.118524	2.046412	-0.884968
H61	H	0.014355	1.654650	-0.221786
H62	H	0.305543	1.330386	-0.360945
H63	H	0.014341	1.654675	-0.778171
C64	C	0.385615	1.091730	-0.000095
C65	C	0.366591	1.223536	-0.000138
C66	C	0.471328	1.275051	-0.000246
H67	H	0.427628	1.064541	0.084825
H68	H	0.427547	1.064467	-0.085083
H69	H	0.324676	1.250788	0.084841
H70	H	0.324595	1.250760	-0.085052
H71	H	0.513261	1.247788	-0.085234
H72	H	0.513334	1.247853	0.084676
H73	H	0.458435	1.364485	-0.000289
H74	H	-0.033853	1.250843	0.000018
H75	H	0.351576	0.839894	-0.000007
H76	H	-0.045236	0.775462	-0.000037
H77	H	-0.224080	1.157862	0.000005
