data_functionalizedCrystal
_audit_creation_method	'MofGen! by Chris Wilmer'
_symmetry_space_group_name_H-M	'P1'
_symmetry_Int_Tables_number	1
_symmetry_cell_setting	triclinic
loop_
_symmetry_equiv_pos_as_xyz
  x,y,z
_cell_length_a	12.837932
_cell_length_b	12.837942
_cell_length_c	11.892095
_cell_angle_alpha	94.302569
_cell_angle_beta	85.688545
_cell_angle_gamma	94.829322
loop_
_atom_site_label
_atom_site_type_symbol
_atom_site_fract_x
_atom_site_fract_y
_atom_site_fract_z
O1	O	1.408370	0.266118	-0.094005
O2	O	1.105236	0.252673	-0.094007
O3	O	1.250081	0.107829	-0.093999
O4	O	1.263525	0.410962	-0.094013
O5	O	1.238002	0.119885	0.094008
O6	O	1.093157	0.264729	0.094000
O7	O	1.396291	0.278175	0.094002
Zn8	Zn	1.242807	0.273366	0.123851
Zn9	Zn	1.258721	0.257481	-0.123856
O10	O	1.251446	0.423018	0.093994
C11	C	1.060128	0.254159	-0.000004
C12	C	0.943712	0.240614	-0.000004
C13	C	1.239500	0.074788	0.000004
C14	C	1.225956	-0.041627	0.000002
C15	C	0.782686	0.127402	0.000003
C16	C	0.892069	0.140122	0.000002
C17	C	0.885965	0.328393	-0.000006
C18	C	0.776583	0.315673	-0.000005
C19	C	0.724947	0.215174	-0.000002
C20	C	0.615563	0.202454	-0.000009
C21	C	0.609461	0.390725	-0.000009
C22	C	0.718844	0.403445	-0.000010
C23	C	1.388787	-0.266502	-0.000021
C24	C	1.376066	-0.375884	-0.000023
C25	C	1.187794	-0.369778	-0.000012
C26	C	1.200515	-0.260395	-0.000010
C27	C	1.301015	-0.208761	-0.000013
C28	C	1.313734	-0.099376	-0.000003
C29	C	1.125464	-0.093271	-0.000000
C30	C	1.112743	-0.202654	-0.000002
C31	C	1.441400	0.276688	-0.000004
C32	C	1.557816	0.290233	-0.000011
C33	C	1.262027	0.456059	-0.000011
C34	C	1.275572	0.572474	-0.000017
N35	N	1.231953	0.284207	0.292904
N36	N	1.269582	0.246633	-0.292910
C37	C	1.345101	0.171137	0.529558
C38	C	1.337523	0.178723	0.647900
C39	C	1.209213	0.306959	0.647931
C40	C	1.216791	0.299373	0.529590
C41	C	1.284739	0.231461	0.470407
C42	C	1.292322	0.223881	0.352064
C43	C	1.164008	0.352110	0.352097
C44	C	1.156429	0.359696	0.470439
H45	H	0.573523	0.120623	-0.000011
H46	H	1.101105	0.414986	0.518638
C47	C	0.546843	0.486054	-0.000248
C48	C	0.577812	0.539718	-0.096991
C49	C	0.520144	0.627529	-0.097263
H50	H	0.559258	0.531136	0.065235
H51	H	0.474295	0.464129	-0.000312
H52	H	0.650344	0.561645	-0.096918
H53	H	0.565395	0.494666	-0.162490
H54	H	0.447596	0.605605	-0.097327
H55	H	0.532563	0.672603	-0.031776
H56	H	0.541142	0.663946	-0.162907
C57	C	0.726764	0.018222	-0.000179
C58	C	0.761444	-0.041678	-0.096894
C59	C	0.709963	-0.142265	-0.097095
H60	H	0.653343	0.023067	-0.000238
H61	H	0.741757	-0.014231	0.065346
H62	H	0.746443	-0.009233	-0.162403
H63	H	0.834858	-0.046553	-0.096856
H64	H	0.724956	-0.174718	-0.031569
H65	H	0.636545	-0.137410	-0.097150
H66	H	0.733493	-0.182923	-0.162708
C67	C	0.941923	0.437544	-0.000172
C68	C	0.919690	0.485068	-0.096882
C69	C	0.971213	0.585622	-0.097062
H70	H	1.015349	0.432679	-0.000223
H71	H	0.918510	0.478392	0.065357
H72	H	0.943108	0.444231	-0.162394
H73	H	0.846274	0.489960	-0.096852
H74	H	0.947801	0.626469	-0.031533
H75	H	1.044636	0.580746	-0.097110
H76	H	0.956128	0.617883	-0.162673
H77	H	1.053993	-0.046246	0.000015
C78	C	1.366110	0.150049	0.288009
C79	C	1.417326	0.098822	0.365147
C80	C	1.485296	0.030786	0.306186
H81	H	1.416455	0.188958	0.241829
H82	H	1.327120	0.099721	0.241879
H83	H	1.456314	0.149143	0.411258
H84	H	1.367008	0.059893	0.411331
H85	H	1.446306	-0.019542	0.260056
H86	H	1.535634	0.069704	0.260007
H87	H	1.520047	-0.003987	0.358515
C88	C	1.098417	0.417736	0.288079
C89	C	1.037313	0.478849	0.365243
C90	C	0.976894	0.539328	0.306311
H91	H	1.053989	0.372907	0.241917
H92	H	1.143317	0.462151	0.241932
H93	H	0.992417	0.434438	0.411370
H94	H	1.081715	0.523698	0.411407
H95	H	1.021795	0.583744	0.260165
H96	H	0.932473	0.494491	0.260151
H97	H	0.935436	0.580808	0.358658
C98	C	1.403184	0.113180	0.711918
C99	C	1.464325	0.052103	0.634754
C100	C	1.524835	-0.008284	0.693685
H101	H	1.358375	0.068736	0.758096
H102	H	1.447585	0.158099	0.758048
H103	H	1.419929	0.007188	0.588643
H104	H	1.509154	0.096519	0.588573
H105	H	1.569235	0.036635	0.739816
H106	H	1.480018	-0.052722	0.739862
H107	H	1.566333	-0.049725	0.641339
H108	H	1.153885	0.362243	0.696133
C109	C	0.774837	0.512594	0.000216
C110	C	0.740192	0.572490	0.096949
C111	C	0.791757	0.673040	0.097200
H112	H	0.759905	0.545113	-0.065274
H113	H	0.848257	0.507651	0.000279
H114	H	0.666790	0.577436	0.096876
H115	H	0.755125	0.540003	0.162454
H116	H	0.865176	0.668097	0.097262
H117	H	0.776821	0.705549	0.031706
H118	H	0.768265	0.713689	0.162836
H119	H	1.395566	-0.057337	-0.000001
H120	H	0.939076	0.068648	0.000007
H121	H	1.470617	-0.224460	-0.000012
H122	H	1.400434	0.115849	0.481371
H123	H	1.447540	-0.422893	-0.000033
H124	H	1.105972	-0.411838	-0.000022
H125	H	1.030919	-0.244710	-0.000005
