data_functionalizedCrystal
_audit_creation_method	'MofGen! by Chris Wilmer'
_symmetry_space_group_name_H-M	'P1'
_symmetry_Int_Tables_number	1
_symmetry_cell_setting	triclinic
loop_
_symmetry_equiv_pos_as_xyz
  x,y,z
_cell_length_a	16.625546
_cell_length_b	12.759401
_cell_length_c	12.759393
_cell_angle_alpha	89.981433
_cell_angle_beta	89.963806
_cell_angle_gamma	90.021512
loop_
_atom_site_label
_atom_site_type_symbol
_atom_site_fract_x
_atom_site_fract_y
_atom_site_fract_z
Zn1	Zn	-0.320975	1.606199	-0.593950
Zn2	Zn	-0.455831	1.606069	-0.418255
Zn3	Zn	-0.321014	1.430501	-0.418289
Zn4	Zn	-0.455767	1.430465	-0.593897
O5	O	-0.388397	1.518308	-0.506098
O6	O	-0.338874	1.753202	-0.570651
O7	O	-0.437991	1.582740	-0.271239
O8	O	-0.208177	1.453876	-0.441627
O9	O	-0.437953	1.753107	-0.441570
O10	O	-0.208147	1.582961	-0.570684
O11	O	-0.338942	1.453751	-0.271263
O12	O	-0.338879	1.283475	-0.441575
O13	O	-0.437843	1.453816	-0.740925
O14	O	-0.437881	1.283449	-0.570594
O15	O	-0.338811	1.582927	-0.740964
O16	O	-0.568655	1.582706	-0.441519
O17	O	-0.568608	1.453691	-0.570561
C18	C	-0.388378	1.245341	-0.506083
C19	C	-0.388389	1.128564	-0.506102
C20	C	-0.597888	1.518209	-0.506054
C21	C	-0.687509	1.518263	-0.506070
C22	C	-0.336896	1.073745	-0.573419
C23	C	-0.336912	0.964021	-0.573425
C24	C	-0.439920	0.963945	-0.438795
C25	C	-0.439900	1.073668	-0.438784
C26	C	-0.285386	1.128642	-0.640736
C27	C	-0.233889	1.073822	-0.708060
C28	C	-0.233905	0.964098	-0.708066
C29	C	-0.285416	0.909194	-0.640750
C30	C	-1.015684	1.518446	-0.506179
C31	C	-0.924376	1.518392	-0.506152
C32	C	-0.851599	1.518353	-0.506124
C33	C	-0.760285	1.518301	-0.506098
C34	C	-0.178088	1.518437	-0.506165
C35	C	-0.088467	1.518492	-0.506193
C36	C	-0.388315	1.518382	-0.780131
C37	C	-0.388281	1.518413	-0.896908
C38	C	-0.388416	1.792342	-0.506113
C39	C	-0.388425	1.909118	-0.506119
C40	C	-0.336710	1.585650	-0.951792
C41	C	-0.336681	1.585675	-1.061516
C42	C	-0.439800	1.451223	-1.061462
C43	C	-0.439824	1.451194	-0.951740
C44	C	-0.285167	1.652870	-0.896959
C45	C	-0.233593	1.720113	-0.951843
C46	C	-0.233564	1.720138	-1.061567
C47	C	-0.285108	1.652920	-1.116408
C48	C	-0.388420	1.518296	-0.233130
C49	C	-0.388227	1.518468	-0.116354
H50	H	-0.285367	1.217985	-0.640738
H51	H	-0.481805	1.396427	-0.907053
H52	H	-0.191945	1.118533	-0.762860
O53	O	-0.183856	0.911008	-0.773555
C54	C	-0.138375	0.982994	-0.832945
H55	H	-0.171393	1.061201	-0.836495
H56	H	-0.077099	0.994662	-0.794619
C57	C	-0.086313	0.844166	-0.940434
C58	C	-0.126870	0.940219	-0.944802
H59	H	-0.079212	0.817779	-1.009431
H60	H	-0.116952	0.795666	-0.900420
H61	H	-0.035254	0.853902	-0.908491
H62	H	-0.177931	0.930479	-0.976731
H63	H	-0.096239	0.988716	-0.984824
H64	H	-0.285408	0.819849	-0.640738
O65	O	-0.183352	1.785399	-1.114765
C66	C	-0.102994	1.762469	-1.087998
H67	H	-0.101341	1.722060	-1.008332
H68	H	-0.075812	1.708490	-1.149758
C69	C	-0.056196	1.914555	-1.180796
C70	C	-0.054166	1.864932	-1.082944
H71	H	-0.026075	1.977757	-1.177683
H72	H	-0.110334	1.930002	-1.198833
H73	H	-0.033546	1.869562	-1.232253
H74	H	-0.076825	1.909919	-1.031493
H75	H	-0.000030	1.849495	-1.064899
O76	O	-0.490047	0.910567	-0.373566
C77	C	-0.542175	0.847099	-0.433269
H78	H	-0.547222	0.880203	-0.515999
H79	H	-0.517263	0.763949	-0.436958
C80	C	-0.619752	0.804715	-0.280137
C81	C	-0.625956	0.845379	-0.381745
H82	H	-0.671431	0.803649	-0.248353
H83	H	-0.584631	0.847471	-0.239912
H84	H	-0.598989	0.735427	-0.283225
H85	H	-0.646709	0.914670	-0.378654
H86	H	-0.661083	0.802634	-0.421968
H87	H	-0.285186	1.652859	-0.807616
H88	H	-0.481830	1.118303	-0.383969
O89	O	-0.285005	1.653110	-1.222994
C90	C	-0.228418	1.726848	-1.259681
H91	H	-0.217143	1.788220	-1.196458
H92	H	-0.169617	1.685231	-1.279176
C93	C	-0.275111	1.705331	-1.436477
C94	C	-0.261269	1.780715	-1.358829
H95	H	-0.295373	1.738556	-1.497639
H96	H	-0.313234	1.655650	-1.411762
H97	H	-0.226107	1.670656	-1.452710
H98	H	-0.310275	1.815379	-1.342588
H99	H	-0.223156	1.830404	-1.383544
O100	O	-0.489847	1.386039	-1.114893
C101	C	-0.478754	1.400467	-1.223506
H102	H	-0.452347	1.481567	-1.238504
H103	H	-0.435807	1.338184	-1.254662
C104	C	-0.592758	1.291204	-1.261380
C105	C	-0.560330	1.390816	-1.279802
H106	H	-0.643076	1.285246	-1.296108
H107	H	-0.600230	1.281480	-1.188206
H108	H	-0.556960	1.239312	-1.287344
H109	H	-0.596123	1.442705	-1.253827
H110	H	-0.552866	1.400549	-1.352974
H111	H	-0.191622	1.774833	-0.907185
