data_functionalizedCrystal
_audit_creation_method	'MofGen! by Chris Wilmer'
_symmetry_space_group_name_H-M	'P1'
_symmetry_Int_Tables_number	1
_symmetry_cell_setting	triclinic
loop_
_symmetry_equiv_pos_as_xyz
  x,y,z
_cell_length_a	16.974800
_cell_length_b	10.723024
_cell_length_c	15.455313
_cell_angle_alpha	92.691723
_cell_angle_beta	90.973911
_cell_angle_gamma	83.927745
loop_
_atom_site_label
_atom_site_type_symbol
_atom_site_fract_x
_atom_site_fract_y
_atom_site_fract_z
O1	O	1.049934	0.159071	0.001601
O2	O	0.820605	0.178127	-0.014504
O3	O	0.940559	-0.013030	-0.006077
O4	O	0.929980	0.350228	-0.006826
O5	O	0.933699	-0.002144	0.137703
O6	O	0.813745	0.189013	0.129276
O7	O	1.043075	0.169957	0.145381
Cu8	Cu	0.927783	0.180479	0.150457
Cu9	Cu	0.935896	0.167605	-0.019580
O10	O	0.923120	0.361114	0.136954
C11	C	0.787810	0.182646	0.055323
C12	C	0.700314	0.179877	0.049178
C13	C	0.655473	0.184507	0.124668
C14	C	0.573262	0.181886	0.118897
C15	C	0.535893	0.174643	0.037635
C16	C	0.580740	0.170009	-0.037860
C17	C	0.662950	0.172621	-0.032088
C18	C	0.290423	0.166185	0.011968
C19	C	0.208206	0.163576	0.006201
C20	C	0.200735	0.175451	0.162959
C21	C	0.282946	0.178071	0.168724
C22	C	0.327786	0.173429	0.093229
N23	N	0.451860	0.171967	0.031734
N24	N	0.411818	0.176096	0.099131
C25	C	0.936359	-0.054079	0.065758
C26	C	0.934056	-0.192611	0.065593
C27	C	1.001176	-0.268267	0.070306
C28	C	0.998797	-0.411447	0.070136
C29	C	1.075869	0.165438	0.075552
C30	C	1.163366	0.168206	0.081691
C31	C	0.927320	0.402163	0.065117
C32	C	0.929624	0.540694	0.065276
N33	N	0.922083	0.189533	0.270052
N34	N	0.941602	0.158541	-0.139174
C35	C	0.973062	0.108353	0.319028
C36	C	0.968759	0.115212	0.409533
C37	C	0.913480	0.203258	0.451062
C38	C	0.862495	0.284442	0.402079
C39	C	0.866795	0.277576	0.311575
C40	C	0.894918	0.232859	0.721339
C41	C	0.890623	0.239721	0.811850
C42	C	0.996886	0.070489	0.819298
C43	C	1.001185	0.063636	0.728792
C44	C	0.950198	0.144815	0.679817
N45	N	0.909081	0.210273	0.543573
N46	N	0.954593	0.137793	0.587307
H47	H	0.164217	0.179227	0.224423
H48	H	0.536758	0.185635	0.180369
F49	F	0.322711	0.185786	0.255214
F50	F	0.168437	0.155870	-0.080293
F51	F	1.078592	-0.214388	0.075738
H52	H	1.018080	0.036662	0.285222
F53	F	0.856642	-0.246491	0.060149
H54	H	1.046197	-0.008058	0.694981
H55	H	0.872160	-0.394304	0.061247
F56	F	1.023015	0.028809	0.461657
H57	H	0.326922	0.162401	-0.049506
F58	F	0.540969	0.162262	-0.124345
F59	F	1.051145	-0.015905	0.871425
H60	H	0.699458	0.168853	-0.093560
F61	F	0.831785	0.333440	0.856041
F62	F	0.812534	0.363976	0.259452
H63	H	1.056257	-0.476457	0.074174
H64	H	0.685892	0.190415	0.190840
F65	F	0.840657	0.319259	0.669224
H66	H	0.817482	0.356127	0.435896
