data_functionalizedCrystal
_audit_creation_method	'MofGen! by Chris Wilmer'
_symmetry_space_group_name_H-M	'P1'
_symmetry_Int_Tables_number	1
_symmetry_cell_setting	triclinic
loop_
_symmetry_equiv_pos_as_xyz
  x,y,z
_cell_length_a	21.395362
_cell_length_b	12.759400
_cell_length_c	21.395356
_cell_angle_alpha	89.976983
_cell_angle_beta	89.957023
_cell_angle_gamma	90.030564
loop_
_atom_site_label
_atom_site_type_symbol
_atom_site_fract_x
_atom_site_fract_y
_atom_site_fract_z
Zn1	Zn	0.957923	-0.417848	-0.354606
Zn2	Zn	1.457923	0.082152	0.145394
Zn3	Zn	0.957857	-0.593540	-0.249837
Zn4	Zn	1.457857	-0.093540	0.250163
Zn5	Zn	0.853140	-0.417925	-0.249807
Zn6	Zn	1.353140	0.082075	0.250193
Zn7	Zn	0.853137	-0.593534	-0.354542
Zn8	Zn	1.353137	-0.093534	0.145458
O9	O	0.905514	-0.505711	-0.302198
O10	O	1.405514	-0.005711	0.197802
O11	O	1.045592	-0.441124	-0.340747
O12	O	1.545592	0.058876	0.159253
O13	O	0.943939	-0.570279	-0.162155
O14	O	1.443939	-0.070279	0.337845
O15	O	0.867069	-0.270893	-0.263723
O16	O	1.367069	0.229107	0.236277
O17	O	1.045544	-0.570205	-0.263774
O18	O	1.545544	-0.070205	0.236226
O19	O	0.944053	-0.270837	-0.340719
O20	O	1.444053	0.229163	0.159281
O21	O	0.867004	-0.441255	-0.162133
O22	O	1.367004	0.058745	0.337867
O23	O	0.765462	-0.441249	-0.263661
O24	O	1.265462	0.058751	0.236339
O25	O	0.867063	-0.570194	-0.442228
O26	O	1.367063	-0.070194	0.057772
O27	O	0.765459	-0.570268	-0.340609
O28	O	1.265459	-0.070268	0.159391
O29	O	0.944050	-0.441118	-0.442275
O30	O	1.444050	0.058882	0.057725
O31	O	0.943936	-0.740560	-0.263712
O32	O	1.443936	-0.240560	0.236288
O33	O	0.866999	-0.740556	-0.340638
O34	O	1.366999	-0.240556	0.159362
C35	C	0.742727	-0.505767	-0.302125
C36	C	1.242727	-0.005767	0.197875
C37	C	0.673085	-0.505816	-0.302109
C38	C	1.173085	-0.005816	0.197891
C39	C	0.640387	-0.573086	-0.342116
C40	C	1.140387	-0.073086	0.157884
C41	C	0.574952	-0.573060	-0.342144
C42	C	1.074952	-0.073060	0.157856
C43	C	0.542217	-0.505776	-0.302154
C44	C	1.042217	-0.005776	0.197846
C45	C	0.574923	-0.438493	-0.262144
C46	C	1.074923	0.061507	0.237856
C47	C	0.640357	-0.438513	-0.262122
C48	C	1.140357	0.061487	0.237878
C49	C	0.438492	-0.497327	-0.245748
C50	C	0.938492	0.002673	0.254252
C51	C	0.373059	-0.497314	-0.245769
C52	C	0.873059	0.002686	0.254231
C53	C	0.340396	-0.505707	-0.302223
C54	C	0.840396	-0.005707	0.197777
C55	C	0.373175	-0.514135	-0.358657
C56	C	0.873175	-0.014135	0.141343
C57	C	0.438609	-0.514155	-0.358635
C58	C	0.938609	-0.014155	0.141365
C59	C	0.471265	-0.505746	-0.302174
C60	C	0.971265	-0.005746	0.197826
C61	C	0.236746	-0.572952	-0.342263
C62	C	0.736746	-0.072952	0.157737
C63	C	0.171309	-0.572919	-0.342292
C64	C	0.671309	-0.072919	0.157708
C65	C	0.171281	-0.438358	-0.262287
C66	C	0.671281	0.061642	0.237713
C67	C	0.236717	-0.438386	-0.262264
C68	C	0.736717	0.061614	0.237736
C69	C	0.269445	-0.505688	-0.302251
C70	C	0.769445	-0.005688	0.197749
C71	C	0.905477	-0.778679	-0.302185
C72	C	1.405477	-0.278679	0.197815
C73	C	0.905518	-0.895455	-0.302200
C74	C	1.405518	-0.395455	0.197800
C75	C	0.945624	-0.950285	-0.262189
C76	C	1.445624	-0.450285	0.237811
C77	C	0.945663	-1.060009	-0.262209
C78	C	1.445663	-0.560009	0.237791
C79	C	0.865484	-1.060064	-0.342252
C80	C	1.365484	-0.560064	0.157748
C81	C	0.865449	-0.950342	-0.342235
C82	C	1.365449	-0.450342	0.157765
C83	C	0.985693	-0.895398	-0.222154
C84	C	1.485693	-0.395398	0.277846
C85	C	1.025802	-0.950228	-0.182139
C86	C	1.525802	-0.450228	0.317861
C87	C	1.025840	-1.059952	-0.182159
C88	C	1.525840	-0.559952	0.317841
C89	C	0.985770	-1.114846	-0.222193
C90	C	1.485770	-0.614846	0.277807
C91	C	1.068938	-0.505656	-0.302271
C92	C	1.568938	-0.005656	0.197729
C93	C	1.138579	-0.505633	-0.302303
C94	C	1.638579	-0.005633	0.197697
C95	C	0.905563	-0.505646	-0.465621
C96	C	1.405563	-0.005646	0.034379
C97	C	0.905584	-0.505619	-0.535263
C98	C	1.405584	-0.005619	-0.035263
C99	C	0.905569	-0.231678	-0.302225
C100	C	1.405569	0.268322	0.197775
C101	C	0.905592	-0.114902	-0.302236
C102	C	1.405592	0.385098	0.197764
C103	C	0.865535	-0.438428	-0.567955
C104	C	1.365535	0.061572	-0.067955
C105	C	0.865533	-0.438409	-0.633390
C106	C	1.365533	0.061591	-0.133390
C107	C	0.905591	-0.505569	-0.666131
C108	C	1.405591	-0.005569	-0.166131
C109	C	0.945644	-0.572772	-0.633431
C110	C	1.445644	-0.072772	-0.133431
C111	C	0.945640	-0.572797	-0.567997
C112	C	1.445640	-0.072797	-0.067997
C113	C	0.962045	-0.513802	-0.769837
C114	C	1.462045	-0.013802	-0.269837
C115	C	0.962049	-0.513770	-0.835270
C116	C	1.462049	-0.013770	-0.335270
C117	C	0.905602	-0.505498	-0.867952
C118	C	1.405602	-0.005498	-0.367952
C119	C	0.849148	-0.497236	-0.835193
C120	C	1.349148	0.002764	-0.335193
C121	C	0.849144	-0.497261	-0.769759
C122	C	1.349144	0.002739	-0.269759
C123	C	0.905599	-0.505549	-0.737083
C124	C	1.405599	-0.005549	-0.237083
C125	C	0.865547	-0.438283	-0.971596
C126	C	1.365547	0.061717	-0.471596
C127	C	0.865543	-0.438270	-1.037033
C128	C	1.365543	0.061730	-0.537033
C129	C	0.945660	-0.572628	-1.037073
C130	C	1.445660	-0.072628	-0.537073
C131	C	0.945657	-0.572646	-0.971638
C132	C	1.445657	-0.072646	-0.471638
C133	C	0.905602	-0.505467	-0.938903
C134	C	1.405602	-0.005467	-0.438903
C135	C	0.905501	-0.505701	-0.139410
C136	C	1.405501	-0.005701	0.360590
C137	C	0.905602	-0.505432	-0.069770
C138	C	1.405602	-0.005432	0.430230
H139	H	0.548324	-0.627838	-0.374725
H140	H	1.048324	-0.127838	0.125275
C141	C	1.024143	-0.522859	-0.871302
C142	C	1.524143	-0.022859	-0.371302
H143	H	1.016062	-0.521647	-0.914952
H144	H	1.516062	-0.021647	-0.414952
H145	H	1.044160	-0.586820	-0.860586
H146	H	1.544160	-0.086820	-0.360586
H147	H	1.050512	-0.465700	-0.860601
H148	H	1.550512	0.034300	-0.360601
C149	C	0.135281	-0.364333	-0.218306
C150	C	0.635281	0.135667	0.281694
H151	H	0.091627	-0.373955	-0.224049
H152	H	0.591627	0.126045	0.275951
H153	H	0.146050	-0.293771	-0.227550
H154	H	0.646050	0.206229	0.272450
H155	H	0.145947	-0.379616	-0.176184
H156	H	0.645947	0.120384	0.323816
H157	H	0.978271	-0.627357	-0.945020
H158	H	1.478271	-0.127357	-0.445020
H159	H	0.832861	-1.104768	-0.374845
H160	H	1.332861	-0.604768	0.125155
H161	H	0.832792	-0.905700	-0.374817
H162	H	1.332792	-0.405700	0.125183
C163	C	0.821473	-0.364540	-0.531950
C164	C	1.321473	0.135460	-0.031950
H165	H	0.797617	-0.324526	-0.560796
H166	H	1.297617	0.175474	-0.060796
H167	H	0.845449	-0.318767	-0.506445
H168	H	1.345449	0.181233	-0.006445
H169	H	0.794159	-0.404751	-0.506402
H170	H	1.294159	0.095249	-0.006402
C171	C	0.474417	-0.488095	-0.183647
C172	C	0.974417	0.011905	0.316353
H173	H	0.518081	-0.489304	-0.191715
H174	H	1.018081	0.010696	0.308285
H175	H	0.463641	-0.545185	-0.157237
H176	H	0.963641	-0.045185	0.342763
H177	H	0.463699	-0.424081	-0.163682
H178	H	0.963699	0.075919	0.336318
H179	H	0.263340	-0.383613	-0.229683
H180	H	0.763340	0.116387	0.270317
H181	H	0.978256	-0.627510	-0.541380
H182	H	1.478256	-0.127510	-0.041380
H183	H	0.465294	-0.521014	-0.404585
H184	H	0.965294	-0.021014	0.095415
H185	H	0.346582	-0.520967	-0.404627
H186	H	0.846582	-0.020967	0.095373
H187	H	1.008015	-0.520530	-0.743233
H188	H	1.508015	-0.020530	-0.243233
H189	H	0.666979	-0.383731	-0.229543
H190	H	1.166979	0.116269	0.270457
H191	H	0.978259	-0.627454	-0.660093
H192	H	1.478259	-0.127454	-0.160093
C193	C	1.069957	-1.120262	-0.138146
C194	C	1.569957	-0.620262	0.361854
H195	H	1.093811	-1.071856	-0.114299
H196	H	1.593811	-0.571856	0.385701
H197	H	1.097261	-1.162989	-0.162151
H198	H	1.597261	-0.662989	0.337849
H199	H	1.046011	-1.163137	-0.110823
H200	H	1.546011	-0.663137	0.389177
H201	H	0.263395	-0.627749	-0.374827
H202	H	0.763395	-0.127749	0.125173
C203	C	0.676385	-0.647104	-0.386107
C204	C	1.176385	-0.147104	0.113893
H205	H	0.647536	-0.687156	-0.409942
H206	H	1.147536	-0.187156	0.090058
H207	H	0.701868	-0.692835	-0.362087
H208	H	1.201868	-0.192835	0.137913
H209	H	0.701954	-0.606973	-0.413443
H210	H	1.201954	-0.106973	0.086557
C211	C	0.135341	-0.646934	-0.386293
C212	C	0.635341	-0.146934	0.113707
H213	H	0.164207	-0.687028	-0.410096
H214	H	0.664207	-0.187028	0.089904
H215	H	0.109859	-0.606816	-0.413649
H216	H	0.609859	-0.106816	0.086351
H217	H	0.109774	-0.692643	-0.362273
H218	H	0.609774	-0.192643	0.137727
H219	H	0.346376	-0.490458	-0.199817
H220	H	0.846376	0.009542	0.300183
C221	C	0.985816	-1.235540	-0.222216
C222	C	1.485816	-0.735540	0.277784
H223	H	1.015440	-1.260336	-0.192652
H224	H	1.515440	-0.760336	0.307348
H225	H	0.996638	-1.260294	-0.262667
H226	H	1.496638	-0.760294	0.237333
H227	H	0.945395	-1.260449	-0.211331
H228	H	1.445395	-0.760449	0.288669
C229	C	0.538917	-0.364483	-0.218156
C230	C	1.038917	0.135517	0.281844
H231	H	0.495264	-0.374112	-0.223895
H232	H	0.995264	0.125888	0.276105
H233	H	0.549680	-0.293916	-0.227395
H234	H	1.049680	0.206084	0.272605
H235	H	0.549589	-0.379774	-0.176037
H236	H	1.049589	0.120226	0.323963
C237	C	0.985655	-0.774706	-0.222133
C238	C	1.485655	-0.274706	0.277867
H239	H	1.015265	-0.749868	-0.192564
H240	H	1.515265	-0.249868	0.307436
H241	H	0.945219	-0.749970	-0.211249
H242	H	1.445219	-0.249970	0.288751
H243	H	0.996469	-0.749821	-0.262577
H244	H	1.496469	-0.249821	0.237423
H245	H	0.832921	-0.383689	-0.660013
H246	H	1.332921	0.116311	-0.160013
H247	H	1.058429	-0.905527	-0.149548
H248	H	1.558429	-0.405527	0.350452
H249	H	0.803178	-0.490536	-0.743089
H250	H	1.303178	0.009464	-0.243089
H251	H	0.832931	-0.383583	-0.944943
H252	H	1.332931	0.116417	-0.444943
C253	C	0.787051	-0.488166	-0.871134
C254	C	1.287051	0.011834	-0.371134
H255	H	0.795134	-0.489355	-0.914796
H256	H	1.295134	0.010645	-0.414796
H257	H	0.767016	-0.424224	-0.860411
H258	H	1.267016	0.075776	-0.360411
H259	H	0.760695	-0.545348	-0.860376
H260	H	1.260695	-0.045348	-0.360376
C261	C	0.821487	-0.364356	-1.072994
C262	C	1.321487	0.135644	-0.572994
H263	H	0.797638	-0.324347	-1.044125
H264	H	1.297638	0.175653	-0.544125
H265	H	0.794178	-0.404539	-1.098496
H266	H	1.294178	0.095461	-0.598496
H267	H	0.845472	-0.318564	-1.098542
H268	H	1.345472	0.181436	-0.598542
H269	H	0.978277	-0.627309	-1.063730
H270	H	1.478277	-0.127309	-0.563730
