data_functionalizedCrystal
_audit_creation_method	'MofGen! by Chris Wilmer'
_symmetry_space_group_name_H-M	'P1'
_symmetry_Int_Tables_number	1
_symmetry_cell_setting	triclinic
loop_
_symmetry_equiv_pos_as_xyz
  x,y,z
_cell_length_a	15.297738
_cell_length_b	10.686220
_cell_length_c	10.686285
_cell_angle_alpha	89.654569
_cell_angle_beta	94.586191
_cell_angle_gamma	96.100065
loop_
_atom_site_label
_atom_site_type_symbol
_atom_site_fract_x
_atom_site_fract_y
_atom_site_fract_z
Zn1	Zn	-0.373827	-2.053001	-0.435145
Zn2	Zn	-0.214806	-2.027807	-0.609603
Zn3	Zn	-0.237191	-1.807838	-0.420943
Zn4	Zn	-0.372082	-1.858874	-0.660579
O5	O	-0.299477	-1.936880	-0.531567
O6	O	-0.344095	-2.222959	-0.442898
O7	O	-0.094773	-1.966725	-0.557300
O8	O	-0.265415	-1.829544	-0.249527
O9	O	-0.227263	-2.204449	-0.571071
O10	O	-0.365800	-2.009664	-0.259961
O11	O	-0.111219	-1.805115	-0.418692
O12	O	-0.263722	-1.641307	-0.468121
O13	O	-0.495316	-1.916528	-0.657952
O14	O	-0.362826	-1.678803	-0.644180
O15	O	-0.496598	-2.059152	-0.492327
O16	O	-0.225571	-2.016212	-0.789665
O17	O	-0.341120	-1.892098	-0.827117
C18	C	-0.315514	-1.615121	-0.560142
C19	C	-0.322394	-1.477478	-0.572400
C20	C	-0.280745	-1.956998	-0.853327
C21	C	-0.272755	-1.965726	-0.990973
C22	C	-0.528742	-1.996343	-0.582410
C23	C	-0.626441	-2.021683	-0.604075
C24	C	-0.663779	-2.117729	-0.686422
C25	C	-0.755573	-2.141543	-0.706767
C26	C	-0.810038	-2.069307	-0.644775
C27	C	-0.772700	-1.973253	-0.562434
C28	C	-0.680897	-1.949443	-0.542079
C29	C	-0.827156	-1.901021	-0.500433
C30	C	-0.789818	-1.804967	-0.418091
C31	C	-0.698024	-1.781161	-0.397741
C32	C	-0.643560	-1.853397	-0.459733
C33	C	-0.918958	-1.924832	-0.520787
C34	C	-0.936076	-1.756546	-0.376445
C35	C	-0.844283	-1.732731	-0.356100
C36	C	-0.071105	-1.877714	-0.480827
C37	C	0.026586	-1.852592	-0.458791
C38	C	-0.283377	-2.259895	-0.502882
C39	C	-0.276516	-2.397545	-0.490659
C40	C	-0.318299	-1.916722	-0.208553
C41	C	-0.326320	-1.908131	-0.070903
H42	H	-0.884780	-2.088703	-0.661345
N43	N	-0.217524	-1.446384	-0.385527
H44	H	-0.237540	-1.421963	-0.302102
H45	H	-0.154712	-1.408811	-0.392773
N46	N	-0.657763	-1.677580	-0.308903
H47	H	-0.677028	-1.594435	-0.339524
H48	H	-0.591354	-1.673565	-0.305434
N49	N	-0.395166	-1.833966	-1.022075
H50	H	-0.391310	-1.838037	-0.927370
H51	H	-0.455706	-1.870859	-1.056795
N52	N	-0.795844	-2.245127	-0.795580
H53	H	-0.834000	-2.309257	-0.748601
H54	H	-0.747365	-2.287174	-0.831745
N55	N	-0.203899	-2.039890	-1.039797
H56	H	-0.143328	-2.003033	-1.005160
H57	H	-0.207828	-2.035801	-1.134501
N58	N	-0.959231	-2.028418	-0.609596
H59	H	-0.939965	-2.111559	-0.578968
H60	H	-0.939048	-2.010445	-0.696217
N61	N	-0.381395	-1.428642	-0.677536
H62	H	-0.444223	-1.466206	-0.670397
H63	H	-0.361305	-1.453074	-0.760908
N64	N	-0.605039	-2.195643	-0.753265
H65	H	-0.541221	-2.165865	-0.728012
H66	H	-0.616979	-2.186197	-0.846984
H67	H	-0.813869	-1.654524	-0.289056
N68	N	-0.994809	-1.678623	-0.309577
H69	H	-1.058627	-1.708276	-0.334971
H70	H	-0.982046	-1.587219	-0.333149
N71	N	-0.544551	-1.827715	-0.437778
H72	H	-0.525347	-1.738445	-0.463180
H73	H	-0.515788	-1.888123	-0.489551
