data_functionalizedCrystal
_audit_creation_method	'MofGen! by Chris Wilmer'
_symmetry_space_group_name_H-M	'P1'
_symmetry_Int_Tables_number	1
_symmetry_cell_setting	triclinic
loop_
_symmetry_equiv_pos_as_xyz
  x,y,z
_cell_length_a	18.215407
_cell_length_b	16.625545
_cell_length_c	18.215399
_cell_angle_alpha	89.972987
_cell_angle_beta	90.019833
_cell_angle_gamma	89.975515
loop_
_atom_site_label
_atom_site_type_symbol
_atom_site_fract_x
_atom_site_fract_y
_atom_site_fract_z
Zn1	Zn	1.125076	0.321000	0.416121
Zn2	Zn	1.458410	0.654334	0.749454
Zn3	Zn	1.791743	0.987667	1.082787
Zn4	Zn	1.124987	0.455841	0.293056
Zn5	Zn	1.458320	0.789174	0.626390
Zn6	Zn	1.791653	1.122507	0.959723
Zn7	Zn	1.002009	0.321027	0.293068
Zn8	Zn	1.335342	0.654360	0.626401
Zn9	Zn	1.668676	0.987693	0.959735
Zn10	Zn	1.001977	0.455796	0.416081
Zn11	Zn	1.335310	0.789129	0.749415
Zn12	Zn	1.668643	1.122462	1.082748
O13	O	1.063512	0.388416	0.354582
O14	O	1.396845	0.721749	0.687915
O15	O	1.730179	1.055082	1.021248
O16	O	1.228049	0.338895	0.399808
O17	O	1.561382	0.672228	0.733141
O18	O	1.894715	1.005562	1.066474
O19	O	1.108649	0.437987	0.190074
O20	O	1.441983	0.771320	0.523407
O21	O	1.775316	1.104654	0.856740
O22	O	1.018385	0.208191	0.309413
O23	O	1.351718	0.541524	0.642746
O24	O	1.685052	0.874857	0.976079
O25	O	1.227983	0.437961	0.309393
O26	O	1.561316	0.771295	0.642726
O27	O	1.894649	1.104628	0.976059
O28	O	1.108802	0.208171	0.399819
O29	O	1.442136	0.541505	0.733152
O30	O	1.775469	0.874838	1.066485
O31	O	1.018298	0.338940	0.190082
O32	O	1.351631	0.672273	0.523415
O33	O	1.684965	1.005606	0.856749
O34	O	0.899020	0.338896	0.309374
O35	O	1.232354	0.672230	0.642708
O36	O	1.565687	1.005563	0.976041
O37	O	1.018330	0.437885	0.519071
O38	O	1.351663	0.771218	0.852404
O39	O	1.684997	1.104552	1.185737
O40	O	0.898997	0.437910	0.399752
O41	O	1.232330	0.771244	0.733085
O42	O	1.565663	1.104577	1.066418
O43	O	1.108771	0.338851	0.519100
O44	O	1.442104	0.672185	0.852433
O45	O	1.775438	1.005518	1.185766
O46	O	1.108618	0.568667	0.309355
O47	O	1.441951	0.902000	0.642688
O48	O	1.775285	1.235334	0.976021
O49	O	1.018243	0.568634	0.399740
O50	O	1.351576	0.901967	0.733074
O51	O	1.684910	1.235301	1.066407
C52	C	0.872306	0.388402	0.354560
C53	C	1.205639	0.721735	0.687894
C54	C	1.538972	1.055069	1.021227
C55	C	0.790507	0.388415	0.354569
C56	C	1.123840	0.721749	0.687902
C57	C	1.457174	1.055082	1.021236
C58	C	1.063437	0.597907	0.354558
C59	C	1.396771	0.931240	0.687891
C60	C	1.730104	1.264573	1.021225
C61	C	1.063472	0.687528	0.354573
C62	C	1.396806	1.020861	0.687906
C63	C	1.730139	1.354194	1.021239
C64	C	0.602320	0.440053	0.401569
C65	C	0.935653	0.773387	0.734903
C66	C	1.268987	1.106720	1.068236
C67	C	0.525461	0.440056	0.401578
C68	C	0.858794	0.773389	0.734912
C69	C	1.192128	1.106722	1.068245
C70	C	0.525456	0.336793	0.307610
C71	C	0.858790	0.670126	0.640943
C72	C	1.192123	1.003460	0.974277
C73	C	0.602314	0.336787	0.307605
C74	C	0.935647	0.670120	0.640938
C75	C	1.268980	1.003454	0.974272
C76	C	0.640743	0.388422	0.354584
C77	C	0.974077	0.721755	0.687917
C78	C	1.307410	1.055088	1.021250
C79	C	0.487027	0.388430	0.354598
C80	C	0.820361	0.721763	0.687931
C81	C	1.153694	1.055097	1.021264
C82	C	0.403694	0.388433	0.354607
C83	C	0.737027	0.721766	0.687941
C84	C	1.070360	1.055099	1.021274
C85	C	0.724082	0.388418	0.354575
C86	C	1.057416	0.721752	0.687909
C87	C	1.390749	1.055085	1.021242
C88	C	1.063593	1.015703	0.354660
C89	C	1.396926	1.349037	0.687994
C90	C	1.730259	1.682370	1.021327
C91	C	1.063557	0.924395	0.354638
C92	C	1.396890	1.257728	0.687971
C93	C	1.730224	1.591062	1.021305
C94	C	1.063532	0.851618	0.354616
C95	C	1.396865	1.184952	0.687949
C96	C	1.730199	1.518285	1.021283
C97	C	1.063497	0.760304	0.354594
C98	C	1.396831	1.093637	0.687928
C99	C	1.730164	1.426971	1.021261
C100	C	1.255465	0.388430	0.354603
C101	C	1.588798	0.721764	0.687937
C102	C	1.922132	1.055097	1.021270
C103	C	1.337264	0.388436	0.354612
C104	C	1.670597	0.721770	0.687946
C105	C	2.003931	1.055103	1.021279
C106	C	1.063557	0.388360	0.546535
C107	C	1.396890	0.721694	0.879868
C108	C	1.730224	1.055027	1.213201
C109	C	1.063576	0.388336	0.628334
C110	C	1.396909	0.721670	0.961667
C111	C	1.730243	1.055003	1.295000
C112	C	1.063601	1.178107	0.354630
C113	C	1.396934	1.511440	0.687963
C114	C	1.730268	1.844773	1.021297
C115	C	1.063623	1.088486	0.354673
C116	C	1.396956	1.421819	0.688006
C117	C	1.730290	1.755152	1.021339
C118	C	1.063510	0.388413	0.163375
C119	C	1.396843	0.721746	0.496709
C120	C	1.730176	1.055080	0.830042
C121	C	1.063633	0.388209	0.081577
C122	C	1.396967	0.721543	0.414910
C123	C	1.730300	1.054876	0.748244
C124	C	1.110685	0.336721	0.816544
C125	C	1.444019	0.670055	1.149877
C126	C	1.777352	1.003388	1.483210
C127	C	1.110694	0.336698	0.893403
C128	C	1.444028	0.670031	1.226736
C129	C	1.777361	1.003365	1.560069
C130	C	1.016519	0.439827	0.893361
C131	C	1.349852	0.773160	1.226695
C132	C	1.683185	1.106493	1.560028
C133	C	1.016507	0.439846	0.816504
C134	C	1.349840	0.773179	1.149837
C135	C	1.683173	1.106512	1.483170
C136	C	1.063594	0.388294	0.778097
C137	C	1.396928	0.721627	1.111430
C138	C	1.730261	1.054961	1.444764
C139	C	1.063615	0.388252	0.931813
C140	C	1.396948	0.721585	1.265147
C141	C	1.730282	1.054918	1.598480
C142	C	1.063624	0.388227	1.015147
C143	C	1.396957	0.721560	1.348480
C144	C	1.730291	1.054893	1.681814
C145	C	1.063584	0.388318	0.694758
C146	C	1.396918	0.721651	1.028091
C147	C	1.730251	1.054985	1.361425
H148	H	0.633607	0.482096	0.439824
H149	H	0.966941	0.815429	0.773157
H150	H	1.300274	1.148762	1.106491
Cl151	Cl	0.957297	0.504681	0.768167
Cl152	Cl	1.290630	0.838014	1.101500
Cl153	Cl	1.623964	1.171347	1.434834
Cl154	Cl	0.477160	0.504966	0.460650
Cl155	Cl	0.810494	0.838299	0.793984
Cl156	Cl	1.143827	1.171632	1.127317
H157	H	1.149039	0.294701	0.924702
H158	H	1.482373	0.628034	1.258036
H159	H	1.815706	0.961368	1.591369
H160	H	1.149025	0.294743	0.785275
H161	H	1.482359	0.628076	1.118609
H162	H	1.815692	0.961409	1.451942
H163	H	0.978183	0.481800	0.924641
H164	H	1.311516	0.815133	1.257975
H165	H	1.644850	1.148467	1.591308
Cl166	Cl	0.650621	0.271868	0.248537
Cl167	Cl	0.983955	0.605201	0.581870
Cl168	Cl	1.317288	0.938535	0.915204
Cl169	Cl	0.477139	0.271886	0.248553
Cl170	Cl	0.810473	0.605220	0.581886
Cl171	Cl	1.143806	0.938553	0.915219
