data_functionalizedCrystal
_audit_creation_method	'MofGen! by Chris Wilmer'
_symmetry_space_group_name_H-M	'P1'
_symmetry_Int_Tables_number	1
_symmetry_cell_setting	triclinic
loop_
_symmetry_equiv_pos_as_xyz
  x,y,z
_cell_length_a	16.704494
_cell_length_b	19.851628
_cell_length_c	16.704495
_cell_angle_alpha	85.840382
_cell_angle_beta	54.477050
_cell_angle_gamma	63.425226
loop_
_atom_site_label
_atom_site_type_symbol
_atom_site_fract_x
_atom_site_fract_y
_atom_site_fract_z
Zr1	Zr	0.878466	0.696124	-0.150439
O2	O	1.045927	0.604151	-0.287232
O3	O	0.711013	0.718937	-0.102529
O4	O	0.878458	0.736929	-0.278595
O5	O	0.878484	0.578089	0.020920
O6	O	0.878443	0.847789	-0.278578
O7	O	0.878482	0.586159	-0.111167
O8	O	0.578913	0.815605	0.036371
O9	O	1.178014	0.610273	-0.294028
O10	O	0.779874	0.817902	-0.089303
O11	O	0.779888	0.729146	0.009260
O12	O	0.977033	0.750329	-0.198034
O13	O	0.977047	0.661573	-0.099472
Zr14	Zr	0.878446	0.860062	0.060251
Zr15	Zr	0.878441	0.872933	-0.150412
Zr16	Zr	0.878470	0.683253	0.060225
Zr17	Zr	1.089129	0.705889	-0.161278
Zr18	Zr	0.667782	0.850298	0.071091
O19	O	1.045899	0.837250	0.012342
O20	O	1.045892	0.855550	-0.287194
O21	O	1.045934	0.585850	0.012304
O22	O	0.710984	0.952036	0.197045
O23	O	0.710978	0.970337	-0.102491
O24	O	0.711019	0.700636	0.197007
O25	O	0.878427	0.978098	-0.111107
O26	O	0.878453	0.819258	0.188407
O27	O	0.878468	0.708398	0.188391
O28	O	0.878430	0.970028	0.020980
O29	O	1.177994	0.750813	-0.294007
O30	O	0.578917	0.805374	0.203820
O31	O	0.578897	0.945914	0.203841
O32	O	0.578894	0.956144	0.036392
O33	O	1.178018	0.600042	-0.126579
O34	O	1.177998	0.740582	-0.126558
O35	O	0.779878	0.805857	0.107847
O36	O	0.779864	0.894613	0.009285
O37	O	0.977024	0.827040	-0.099447
O38	O	0.977037	0.738284	-0.000885
C39	C	0.614948	0.765880	-0.031535
C40	C	0.525516	0.761734	-0.026933
C41	C	0.357433	0.846626	-0.121179
C42	C	0.273404	0.842733	-0.116858
C43	C	0.273420	0.750062	-0.013965
C44	C	0.357450	0.753954	-0.018286
C45	C	0.399454	0.802237	-0.071896
C46	C	0.483491	0.806125	-0.076223
C47	C	0.483500	0.713458	0.026676
C48	C	0.399471	0.709566	0.030997
C49	C	0.878487	0.556932	-0.045127
C50	C	0.878497	0.481872	-0.045139
C51	C	0.985971	0.263680	-0.104389
C52	C	0.932234	0.241208	-0.140574
C53	C	0.878468	0.344462	-0.045109
C54	C	0.932212	0.233195	-0.008943
C55	C	0.878447	0.211728	-0.045081
C56	C	0.824730	0.322982	-0.081347
C57	C	0.824723	0.314965	0.050334
C58	C	0.770907	0.292540	0.014177
C59	C	0.878483	0.420926	-0.045127
C60	C	0.878424	0.135268	-0.045064
C61	C	1.141963	0.790307	-0.058652
C62	C	1.231395	0.794452	-0.063254
C63	C	0.878450	0.794193	-0.308601
C64	C	0.878448	0.799657	-0.398033
C65	C	0.878425	0.999254	-0.045060
C66	C	0.878414	1.074314	-0.045049
C67	C	0.878482	0.687755	-0.566117
C68	C	0.878481	0.692886	-0.650147
C69	C	0.878451	0.815046	-0.650128
C70	C	0.878453	0.809915	-0.566098
C71	C	0.878467	0.746268	-0.524095
C72	C	0.878460	0.741141	-0.440060
C73	C	0.878439	0.863297	-0.440046
C74	C	0.878437	0.868428	-0.524076
C75	C	0.878461	0.761994	0.218414
C76	C	0.878463	0.756530	0.307846
C77	C	0.614917	0.987041	-0.031501
C78	C	0.525474	1.057956	-0.026888
C79	C	0.614954	0.749780	0.231973
C80	C	0.525524	0.740171	0.326006
C81	C	0.614923	0.970941	0.232006
C82	C	0.525482	1.036392	0.326051
C83	C	1.141989	0.585245	-0.322193
C84	C	1.231429	0.519794	-0.416239
C85	C	1.141994	0.569146	-0.058686
C86	C	1.231437	0.498231	-0.063299
C87	C	1.141958	0.806406	-0.322160
C88	C	1.231388	0.816016	-0.416193
C89	C	0.483476	1.051216	-0.076192
C90	C	0.399447	1.117843	-0.071878
C91	C	0.357412	1.191208	-0.018253
C92	C	0.399418	1.197946	0.031052
C93	C	0.483452	1.131321	0.026731
C94	C	0.483521	0.775700	0.421636
C95	C	0.399504	0.766668	0.509998
C96	C	0.357485	0.722111	0.502729
C97	C	0.399495	0.686578	0.407089
C98	C	0.483517	0.695605	0.318728
C99	C	0.483473	1.113466	0.318767
C100	C	0.399445	1.174972	0.407124
C101	C	0.357423	1.159402	0.502764
C102	C	0.399441	1.082320	0.510046
C103	C	0.483472	1.020816	0.421690
C104	C	1.273449	0.442721	-0.408955
C105	C	1.357502	0.381217	-0.497313
C106	C	1.399529	0.396787	-0.592953
C107	C	1.357506	0.473868	-0.600235
C108	C	1.273459	0.535371	-0.511878
C109	C	1.273444	0.504971	-0.014004
C110	C	1.357496	0.438347	-0.018343
C111	C	1.399534	0.364982	-0.071971
C112	C	1.357524	0.358243	-0.121272
C113	C	1.273479	0.424868	-0.116939
C114	C	1.273380	0.860578	-0.408891
C115	C	1.357398	0.869622	-0.497237
C116	C	1.399428	0.834099	-0.592885
C117	C	1.357427	0.789535	-0.600185
C118	C	1.273405	0.780496	-0.511840
H119	H	0.517727	0.677310	0.066802
H120	H	0.365181	1.257689	0.074712
C121	C	0.938351	0.244906	-0.287956
C122	C	0.993566	0.198124	-0.249520
H123	H	0.976226	0.218310	-0.355218
H124	H	0.861993	0.255723	-0.245913
H125	H	0.939408	0.292409	-0.288818
H126	H	0.992502	0.150624	-0.248651
H127	H	1.069944	0.187297	-0.291573
C128	C	0.474941	1.217202	0.128929
C129	C	0.529597	1.138736	0.080946
H130	H	0.503423	1.221781	0.162406
H131	H	0.488728	1.246518	0.079525
H132	H	0.395605	1.236517	0.177409
H133	H	0.608932	1.119422	0.032460
H134	H	0.515819	1.109409	0.130355
H135	H	1.467964	0.346700	-0.664891
C136	C	0.764051	0.445375	-0.122435
C137	C	0.763441	0.375092	-0.122756
H138	H	0.726222	0.477542	-0.148006
H139	H	0.726130	0.471279	-0.054845
H140	H	0.840217	0.434968	-0.164254
H141	H	0.687274	0.385499	-0.080931
H142	H	0.801359	0.349183	-0.190358
C143	C	0.781352	0.978322	-0.565033
C144	C	0.878412	0.938388	-0.570247
H145	H	0.781331	1.021517	-0.593530
H146	H	0.781375	0.944206	-0.602089
H147	H	0.715523	0.996337	-0.495938
H148	H	0.944241	0.920368	-0.639343
H149	H	0.878399	0.972511	-0.533192
C150	C	0.442199	0.561122	0.343073
C151	C	0.353283	0.637611	0.399119
H152	H	0.413657	0.530897	0.338164
H153	H	0.498239	0.561405	0.276762
H154	H	0.474990	0.539185	0.376294
H155	H	0.320497	0.659549	0.365894
H156	H	0.297223	0.637330	0.465442
C157	C	0.475104	0.853928	0.532250
C158	C	0.529715	0.824666	0.429644
H159	H	0.503631	0.884149	0.537197
H160	H	0.395777	0.885662	0.566975
H161	H	0.488885	0.811814	0.562158
H162	H	0.515927	0.866780	0.399738
H163	H	0.609060	0.792930	0.394906
C164	C	0.878493	0.646509	-0.778966
C165	C	0.878495	0.628569	-0.696338
H166	H	0.878510	0.606796	-0.807485
H167	H	0.812651	0.695002	-0.756420
H168	H	0.944330	0.649882	-0.829037
H169	H	0.812653	0.625201	-0.646263
H170	H	0.944343	0.580062	-0.718882
C171	C	0.612286	1.060341	0.137616
C172	C	0.529656	1.130593	0.213646
H173	H	0.640790	1.070921	0.072722
H174	H	0.672606	1.033385	0.141881
H175	H	0.579492	1.029078	0.146676
H176	H	0.562452	1.161854	0.204590
H177	H	0.469326	1.157561	0.209378
C178	C	0.110268	0.942341	-0.099521
C179	C	0.227214	0.891527	-0.171032
H180	H	0.081755	0.972469	-0.132967
H181	H	0.073234	0.913029	-0.066989
H182	H	0.096507	0.975995	-0.050117
H183	H	0.240975	0.857868	-0.220433
H184	H	0.264260	0.920841	-0.203580
H185	H	0.878482	0.635935	-0.531912
C186	C	0.168388	1.301075	0.088118
C187	C	0.265030	1.264440	-0.013499
H188	H	0.111358	1.346285	0.091051
H189	H	0.140870	1.266205	0.117068
H190	H	0.187395	1.315593	0.125147
H191	H	0.246025	1.249917	-0.050526
H192	H	0.292553	1.299317	-0.042462
C193	C	0.440702	0.684556	0.207380
C194	C	0.529667	0.656559	0.213613
H195	H	0.469194	0.660451	0.142485
H196	H	0.384664	0.672801	0.258965
H197	H	0.407927	0.739404	0.216449
H198	H	0.562438	0.601711	0.204552
H199	H	0.585726	0.668307	0.162013
H200	H	1.076871	0.252223	-0.154585
H201	H	0.365243	1.237730	0.401177
H202	H	0.288999	1.209489	0.574701
H203	H	0.878451	0.866861	-0.684344
C204	C	0.144604	0.702959	0.038347
C205	C	0.227236	0.696995	0.044963
H206	H	0.116099	0.670193	0.074723
H207	H	0.084286	0.755423	0.066873
H208	H	0.177398	0.687290	-0.031043
H209	H	0.194441	0.712670	0.114353
H210	H	0.287565	0.644520	0.016441
H211	H	1.467844	0.841465	-0.664813
H212	H	0.977669	0.194490	0.021632
H213	H	1.239248	0.598126	-0.517820
C214	C	1.281938	0.344951	-0.316123
C215	C	1.227281	0.425593	-0.303835
H216	H	1.253450	0.334375	-0.251228
H217	H	1.268162	0.320730	-0.350322
H218	H	1.361273	0.325062	-0.355140
H219	H	1.147947	0.445482	-0.264824
H220	H	1.241049	0.449824	-0.269620
H221	H	1.239173	0.889507	-0.331018
H222	H	0.365309	0.795608	0.587863
C223	C	0.592091	0.354407	0.043771
C224	C	0.648102	0.308205	0.081856
H225	H	0.516280	0.364071	0.085548
H226	H	0.591439	0.402500	0.043692
H227	H	0.630559	0.327976	-0.023752
H228	H	0.609639	0.334638	0.149377
H229	H	0.648748	0.260103	0.081946
C230	C	0.270597	1.135480	0.691184
C231	C	0.353232	1.065214	0.615180
H232	H	0.242060	1.124918	0.756090
H233	H	0.303389	1.166737	0.682123
H234	H	0.210289	1.162432	0.686891
H235	H	0.413544	1.038264	0.619468
H236	H	0.320440	1.033944	0.624244
H237	H	0.289069	0.714766	0.574685
C238	C	0.577936	0.926090	0.478701
C239	C	0.529630	0.936097	0.429711
H240	H	0.606422	0.873789	0.483663
H241	H	0.638272	0.937184	0.440671
H242	H	0.521867	0.960503	0.545002
H243	H	0.585702	0.901687	0.363407
H244	H	0.469288	0.924994	0.467741
H245	H	1.391703	0.318459	-0.491365
C246	C	1.383377	0.455148	-0.755726
C247	C	1.403716	0.490916	-0.705399
H248	H	1.411903	0.465659	-0.820658
H249	H	1.420399	0.400459	-0.763954
H250	H	1.304032	0.475082	-0.716702
H251	H	1.483062	0.470978	-0.744420
H252	H	1.366697	0.545616	-0.697176
C253	C	1.314692	0.478737	0.140230
C254	C	1.403649	0.445766	0.035868
H255	H	1.343184	0.483314	0.173697
H256	H	1.258632	0.528905	0.150473
H257	H	1.281944	0.446343	0.167299
H258	H	1.436392	0.478163	0.008797
H259	H	1.459729	0.395589	0.025618
C260	C	0.442168	0.579189	0.048024
C261	C	0.353262	0.656536	0.090014
H262	H	0.413632	0.546463	0.084490
H263	H	0.474908	0.563474	-0.021332
H264	H	0.498252	0.575172	0.052455
H265	H	0.297182	0.660553	0.085577
H266	H	0.320505	0.672255	0.159387
H267	H	1.239223	0.564702	0.029672
C268	C	0.819912	0.311870	0.196974
C269	C	0.763441	0.358059	0.159253
H270	H	0.782087	0.338476	0.264215
H271	H	0.820059	0.263929	0.197700
H272	H	0.895886	0.301890	0.154595
H273	H	0.687469	0.368034	0.201628
H274	H	0.763282	0.406014	0.158533
C275	C	1.519889	0.313169	-0.022114
C276	C	1.491910	0.291751	-0.076718
H277	H	1.576910	0.267959	-0.025037
H278	H	1.547425	0.348027	-0.051084
H279	H	1.454307	0.338035	0.046815
H280	H	1.557490	0.266889	-0.145650
H281	H	1.464378	0.256879	-0.047752
H282	H	0.878467	0.689318	-0.405859
H283	H	0.878421	0.910944	-0.405820
C284	C	0.475057	0.978750	-0.177511
C285	C	0.529674	0.970579	-0.135147
H286	H	0.503583	0.928969	-0.213916
H287	H	0.395731	1.001400	-0.124738
H288	H	0.488836	1.011413	-0.222624
H289	H	0.515888	0.937920	-0.090028
H290	H	0.609019	0.947917	-0.187926
H291	H	1.391764	0.298501	-0.164935
C292	C	0.236327	1.138922	-0.054564
C293	C	0.353272	1.110424	-0.126066
H294	H	0.207823	1.134343	-0.088018
H295	H	0.222564	1.109602	-0.005165
H296	H	0.199282	1.192153	-0.022028
H297	H	0.390318	1.057191	-0.158597
H298	H	0.367045	1.139743	-0.175483
H299	H	1.239279	0.419368	-0.157078
H300	H	0.391642	0.885933	-0.164839
H301	H	1.391587	0.905908	-0.491274
C302	C	1.486268	0.767826	-0.781318
C303	C	1.403645	0.750481	-0.705328
H304	H	1.514811	0.743708	-0.846230
H305	H	1.453464	0.822667	-0.772246
H306	H	1.546574	0.748851	-0.777024
H307	H	1.343334	0.769461	-0.709618
H308	H	1.436448	0.695628	-0.714404
H309	H	0.517694	0.845436	-0.119878
H310	H	1.239224	0.744206	-0.517800
