data_functionalizedCrystal
_audit_creation_method	'MofGen! by Chris Wilmer'
_symmetry_space_group_name_H-M	'P1'
_symmetry_Int_Tables_number	1
_symmetry_cell_setting	triclinic
loop_
_symmetry_equiv_pos_as_xyz
  x,y,z
_cell_length_a	16.109301
_cell_length_b	17.699083
_cell_length_c	15.186229
_cell_angle_alpha	89.995368
_cell_angle_beta	89.999362
_cell_angle_gamma	83.372248
loop_
_atom_site_label
_atom_site_type_symbol
_atom_site_fract_x
_atom_site_fract_y
_atom_site_fract_z
O1	O	1.102963	0.097285	-0.073175
O2	O	1.602963	0.597285	0.426825
O3	O	0.860880	0.109391	-0.073189
O4	O	1.360880	0.609391	0.426811
O5	O	0.988761	-0.006841	-0.073174
O6	O	1.488761	0.493159	0.426826
O7	O	0.975082	0.213517	-0.073190
O8	O	1.475082	0.713517	0.426810
O9	O	0.988753	-0.006843	0.073284
O10	O	1.488753	0.493157	0.573284
O11	O	0.860872	0.109390	0.073268
O12	O	1.360872	0.609390	0.573268
O13	O	1.102955	0.097283	0.073283
O14	O	1.602955	0.597283	0.573283
Zn15	Zn	0.981912	0.103336	0.096529
Zn16	Zn	1.481912	0.603336	0.596529
Zn17	Zn	0.981923	0.103338	-0.096435
Zn18	Zn	1.481923	0.603338	0.403565
O19	O	0.975074	0.213516	0.073267
O20	O	1.475074	0.713516	0.573267
C21	C	0.829902	0.108900	0.000038
C22	C	1.329902	0.608900	0.500038
C23	C	0.737609	0.107430	0.000033
C24	C	1.237609	0.607430	0.500033
C25	C	0.515224	0.172981	0.000038
C26	C	1.015224	0.672981	0.500038
C27	C	0.428506	0.171594	0.000044
C28	C	0.928506	0.671594	0.500044
C29	C	0.448618	0.033688	0.000050
C30	C	0.948618	0.533688	0.500050
C31	C	0.535334	0.035076	0.000051
C32	C	1.035334	0.535076	0.500051
C33	C	0.568635	0.104725	0.000040
C34	C	1.068635	0.604725	0.500040
C35	C	0.395200	0.101949	0.000046
C36	C	0.895200	0.601949	0.500046
C37	C	0.301177	0.100445	0.000052
C38	C	0.801177	0.600445	0.500052
C39	C	0.662664	0.106230	0.000036
C40	C	1.162664	0.606230	0.500036
C41	C	0.988267	-0.035040	0.000055
C42	C	1.488267	0.464960	0.500055
C43	C	0.986796	-0.119060	0.000055
C44	C	1.486796	0.380940	0.500055
C45	C	1.061860	-0.167574	0.000061
C46	C	1.561860	0.332426	0.500061
C47	C	1.060473	-0.246519	0.000053
C48	C	1.560473	0.253481	0.500053
C49	C	0.984022	-0.276949	0.000046
C50	C	1.484022	0.223051	0.500046
C51	C	0.908953	-0.228429	0.000038
C52	C	1.408953	0.271571	0.500038
C53	C	0.910341	-0.149485	0.000039
C54	C	1.410341	0.350515	0.500039
C55	C	0.903356	-0.546800	0.000030
C56	C	1.403356	-0.046800	0.500030
C57	C	0.901974	-0.625750	0.000031
C58	C	1.401974	-0.125750	0.500031
C59	C	1.053488	-0.643834	0.000044
C60	C	1.553488	-0.143834	0.500044
C61	C	1.054876	-0.564890	0.000046
C62	C	1.554876	-0.064890	0.500046
C63	C	0.979807	-0.516377	0.000033
C64	C	1.479807	-0.016377	0.500033
C65	C	0.981312	-0.430776	0.000040
C66	C	1.481312	0.069224	0.500040
C67	C	0.982517	-0.362549	0.000045
C68	C	1.482517	0.137451	0.500045
C69	C	1.133933	0.097774	0.000054
C70	C	1.633933	0.597774	0.500054
C71	C	1.226226	0.099244	0.000053
C72	C	1.726226	0.599244	0.500053
C73	C	0.975568	0.241714	0.000037
C74	C	1.475568	0.741714	0.500037
C75	C	0.977039	0.325734	0.000031
C76	C	1.477039	0.825734	0.500031
N77	N	0.981910	0.103334	0.228221
N78	N	1.481910	0.603334	0.728221
N79	N	0.981931	0.103334	-0.228128
N80	N	1.481931	0.603334	0.271872
C81	C	1.038555	0.051884	0.453951
C82	C	1.538555	0.551884	0.953951
C83	C	1.038558	0.051882	0.546141
C84	C	1.538558	0.551882	1.046141
C85	C	0.925280	0.154787	0.546136
C86	C	1.425280	0.654787	1.046136
C87	C	0.925274	0.154785	0.453948
C88	C	1.425274	0.654785	0.953948
C89	C	0.981916	0.103334	0.407858
C90	C	1.481916	0.603334	0.907858
C91	C	0.981925	0.103334	0.592236
C92	C	1.481925	0.603334	1.092236
C93	C	0.981927	0.103333	0.692192
C94	C	1.481927	0.603333	1.192192
C95	C	0.981913	0.103334	0.307896
C96	C	1.481913	0.603334	0.807896
H97	H	0.421494	-0.023018	0.000064
H98	H	0.921494	0.476982	0.500064
H99	H	1.084675	0.009988	0.416427
H100	H	1.584675	0.509988	0.916427
H101	H	0.842230	-0.507310	0.000020
H102	H	1.342230	-0.007310	0.500020
C103	C	1.100863	-0.004712	0.596844
C104	C	1.600863	0.495288	1.096844
C105	C	1.163172	-0.061298	0.546145
C106	C	1.663172	0.438702	1.046145
C107	C	1.225479	-0.117895	0.596848
C108	C	1.725479	0.382105	1.096848
C109	C	1.225478	-0.117906	0.698251
C110	C	1.725478	0.382094	1.198251
C111	C	1.163167	-0.061319	0.748957
C112	C	1.663167	0.438681	1.248957
C113	C	1.100860	-0.004722	0.698253
C114	C	1.600860	0.495278	1.198253
H115	H	1.163175	-0.061291	0.471075
H116	H	1.663175	0.438709	0.971075
H117	H	1.271606	-0.159784	0.559312
H118	H	1.771606	0.340216	1.059312
H119	H	1.271602	-0.159803	0.735785
H120	H	1.771602	0.340197	1.235785
H121	H	1.163164	-0.061326	0.824026
H122	H	1.663164	0.438674	1.324026
H123	H	1.054733	0.037168	0.735789
H124	H	1.554733	0.537168	1.235789
H125	H	0.542334	0.229694	0.000036
H126	H	1.042334	0.729694	0.500036
H127	H	1.124115	-0.142805	0.000072
H128	H	1.624115	0.357195	0.500072
C129	C	0.824855	-0.261899	0.000022
C130	C	1.324855	0.238101	0.500022
C131	C	0.823324	-0.348734	0.000020
C132	C	1.323324	0.151266	0.500020
C133	C	0.739224	-0.382202	0.000003
C134	C	1.239224	0.117798	0.500003
C135	C	0.656655	-0.328835	-0.000011
C136	C	1.156655	0.171165	0.499989
C137	C	0.658183	-0.241995	-0.000009
C138	C	1.158183	0.258005	0.499991
C139	C	0.742283	-0.208527	0.000007
C140	C	1.242283	0.291473	0.500007
H141	H	0.884449	-0.388244	0.000030
H142	H	1.384449	0.111756	0.500030
H143	H	0.738093	-0.446486	0.000002
H144	H	1.238093	0.053514	0.500002
H145	H	0.594399	-0.353610	-0.000023
H146	H	1.094399	0.146390	0.499977
H147	H	0.597057	-0.202486	-0.000020
H148	H	1.097057	0.297514	0.499980
H149	H	0.743413	-0.144243	0.000009
H150	H	1.243413	0.355757	0.500009
H151	H	0.839715	-0.650523	0.000027
H152	H	1.339715	-0.150523	0.500027
C153	C	0.862982	0.211388	0.596836
C154	C	1.362982	0.711388	1.096836
C155	C	0.863029	0.211438	0.698239
C156	C	1.363029	0.711438	1.198239
C157	C	0.800731	0.268042	0.748936
C158	C	1.300731	0.768042	1.248936
C159	C	0.738386	0.324596	0.698229
C160	C	1.238386	0.824596	1.198229
C161	C	0.738336	0.324547	0.596820
C162	C	1.238336	0.824547	1.096820
C163	C	0.800634	0.267943	0.546124
C164	C	1.300634	0.767943	1.046124
H165	H	0.909183	0.169572	0.735780
H166	H	1.409183	0.669572	1.235780
H167	H	0.800768	0.268078	0.824005
H168	H	1.300768	0.768078	1.324005
H169	H	0.692269	0.366497	0.735758
H170	H	1.192269	0.866497	1.235758
H171	H	0.692182	0.366413	0.559279
H172	H	1.192182	0.866413	1.059279
H173	H	0.800597	0.267907	0.471054
H174	H	1.300597	0.767907	0.971054
H175	H	1.121597	-0.286017	0.000060
H176	H	1.621597	0.213983	0.500060
H177	H	0.385022	0.227175	0.000044
H178	H	0.885022	0.727175	0.500044
H179	H	0.879148	0.196682	0.416417
H180	H	1.379148	0.696682	0.916417
H181	H	1.117130	-0.540119	0.000056
H182	H	1.617130	-0.040119	0.500056
C183	C	1.136067	-0.697201	0.000047
C184	C	1.636067	-0.197201	0.500047
C185	C	1.155944	-0.753969	0.076096
C186	C	1.655944	-0.253969	0.576096
C187	C	1.238521	-0.807333	0.076103
C188	C	1.738521	-0.307333	0.576103
C189	C	1.301220	-0.803929	0.000060
C190	C	1.801220	-0.303929	0.500060
C191	C	1.281345	-0.747159	-0.075995
C192	C	1.781345	-0.247159	0.424005
C193	C	1.198768	-0.693794	-0.076001
C194	C	1.698768	-0.193794	0.423999
H195	H	1.109529	-0.756491	0.132393
H196	H	1.609529	-0.256491	0.632393
H197	H	1.253233	-0.849359	0.132404
H198	H	1.753233	-0.349359	0.632404
H199	H	1.362348	-0.843433	0.000065
H200	H	1.862348	-0.343433	0.500065
H201	H	1.327760	-0.744637	-0.132291
H202	H	1.827760	-0.244637	0.367709
H203	H	1.184056	-0.651769	-0.132302
H204	H	1.684056	-0.151769	0.367698
H205	H	0.849216	-0.109986	0.000034
H206	H	1.349216	0.390014	0.500034
H207	H	0.578824	-0.020510	0.000055
H208	H	1.078824	0.479490	0.500055
