data_functionalizedCrystal
_audit_creation_method	'MofGen! by Chris Wilmer'
_symmetry_space_group_name_H-M	'P1'
_symmetry_Int_Tables_number	1
_symmetry_cell_setting	triclinic
loop_
_symmetry_equiv_pos_as_xyz
  x,y,z
_cell_length_a	12.594516
_cell_length_b	18.215407
_cell_length_c	18.215399
_cell_angle_alpha	89.982223
_cell_angle_beta	90.022106
_cell_angle_gamma	89.988327
loop_
_atom_site_label
_atom_site_type_symbol
_atom_site_fract_x
_atom_site_fract_y
_atom_site_fract_z
Zn1	Zn	-0.423877	-1.125117	0.416105
Zn2	Zn	-0.090544	-0.791784	0.749439
Zn3	Zn	0.242789	-0.458450	1.082772
Zn4	Zn	-0.601875	-1.125044	0.293052
Zn5	Zn	-0.268542	-0.791711	0.626385
Zn6	Zn	0.064792	-0.458378	0.959718
Zn7	Zn	-0.423897	-1.002050	0.293057
Zn8	Zn	-0.090564	-0.668716	0.626390
Zn9	Zn	0.242769	-0.335383	0.959724
Zn10	Zn	-0.601801	-1.002035	0.416081
Zn11	Zn	-0.268467	-0.668701	0.749414
Zn12	Zn	0.064866	-0.335368	1.082748
O13	O	-0.512863	-1.063561	0.354574
O14	O	-0.179529	-0.730228	0.687907
O15	O	0.153804	-0.396895	1.021240
O16	O	-0.447512	-1.228092	0.399790
O17	O	-0.114179	-0.894758	0.733123
O18	O	0.219155	-0.561425	1.066457
O19	O	-0.578305	-1.108705	0.190068
O20	O	-0.244972	-0.775372	0.523401
O21	O	0.088361	-0.442038	0.856735
O22	O	-0.274949	-1.018412	0.309392
O23	O	0.058384	-0.685078	0.642726
O24	O	0.391718	-0.351745	0.976059
O25	O	-0.578286	-1.228038	0.309383
O26	O	-0.244953	-0.894705	0.642716
O27	O	0.088381	-0.561372	0.976050
O28	O	-0.274934	-1.108829	0.399795
O29	O	0.058399	-0.775495	0.733129
O30	O	0.391732	-0.442162	1.066462
O31	O	-0.447546	-1.018341	0.190072
O32	O	-0.114212	-0.685008	0.523405
O33	O	0.219121	-0.351674	0.856739
O34	O	-0.447474	-0.899063	0.309369
O35	O	-0.114140	-0.565730	0.642702
O36	O	0.219193	-0.232397	0.976035
O37	O	-0.578159	-1.018386	0.519068
O38	O	-0.244826	-0.685052	0.852402
O39	O	0.088507	-0.351719	1.185735
O40	O	-0.578179	-0.899052	0.399754
O41	O	-0.244845	-0.565719	0.733087
O42	O	0.088488	-0.232386	1.066420
O43	O	-0.447440	-1.108814	0.519086
O44	O	-0.114107	-0.775481	0.852420
O45	O	0.219227	-0.442147	1.185753
O46	O	-0.750811	-1.108690	0.309359
O47	O	-0.417478	-0.775357	0.642693
O48	O	-0.084144	-0.442024	0.976026
O49	O	-0.750756	-1.018315	0.399748
O50	O	-0.417423	-0.684982	0.733082
O51	O	-0.084090	-0.351649	1.066415
C52	C	-0.512821	-0.872355	0.354560
C53	C	-0.179488	-0.539022	0.687893
C54	C	0.153846	-0.205689	1.021226
C55	C	-0.512829	-0.790556	0.354571
C56	C	-0.179496	-0.457223	0.687904
C57	C	0.153838	-0.123890	1.021238
C58	C	-0.444866	-0.602389	0.401719
C59	C	-0.111533	-0.269056	0.735052
C60	C	0.221800	0.064278	1.068386
C61	C	-0.444872	-0.525530	0.401721
C62	C	-0.111539	-0.192197	0.735054
C63	C	0.221795	0.141136	1.068387
C64	C	-0.580843	-0.525486	0.307434
C65	C	-0.247509	-0.192152	0.640768
C66	C	0.085824	0.141181	0.974101
C67	C	-0.580831	-0.602343	0.307429
C68	C	-0.247498	-0.269010	0.640763
C69	C	0.085836	0.064324	0.974096
C70	C	-0.512844	-0.640793	0.354576
C71	C	-0.179511	-0.307459	0.687909
C72	C	0.153822	0.025874	1.021242
C73	C	-0.512862	-0.487077	0.354583
C74	C	-0.179528	-0.153743	0.687916
C75	C	0.153805	0.179590	1.021249
C76	C	-0.512868	-0.403743	0.354585
C77	C	-0.179535	-0.070410	0.687918
C78	C	0.153798	0.262924	1.021251
C79	C	-0.512836	-0.724132	0.354573
C80	C	-0.179503	-0.390798	0.687907
C81	C	0.153831	-0.057465	1.021240
C82	C	-0.789404	-1.063513	0.354567
C83	C	-0.456070	-0.730180	0.687900
C84	C	-0.122737	-0.396847	1.021233
C85	C	-0.907709	-1.063560	0.354588
C86	C	-0.574376	-0.730227	0.687921
C87	C	-0.241042	-0.396893	1.021255
C88	C	-0.976971	-1.014400	0.403716
C89	C	-0.643638	-0.681067	0.737049
C90	C	-0.310304	-0.347734	1.070383
C91	C	-1.047828	-0.996471	0.336564
C92	C	-0.714494	-0.663138	0.669897
C93	C	-0.381161	-0.329804	1.003231
C94	C	-1.047652	-1.081556	0.421752
C95	C	-0.714318	-0.748223	0.755085
C96	C	-0.380985	-0.414890	1.088419
C97	C	-0.977007	-1.045595	0.287400
C98	C	-0.643674	-0.712262	0.620734
C99	C	-0.310341	-0.378928	0.954067
C100	C	-0.976825	-1.130712	0.372634
C101	C	-0.643492	-0.797378	0.705967
C102	C	-0.310158	-0.464045	1.039300
C103	C	-1.047649	-1.112808	0.305435
C104	C	-0.714316	-0.779475	0.638768
C105	C	-0.380983	-0.446141	0.972102
C106	C	-0.235242	-1.063630	0.354597
C107	C	0.098092	-0.730297	0.687930
C108	C	0.431425	-0.396963	1.021264
C109	C	-0.116936	-1.063659	0.354607
C110	C	0.216397	-0.730326	0.687940
C111	C	0.549730	-0.396992	1.021274
C112	C	-0.512789	-1.063606	0.546527
C113	C	-0.179456	-0.730273	0.879860
C114	C	0.153877	-0.396940	1.213193
C115	C	-0.512758	-1.063625	0.628326
C116	C	-0.179425	-0.730292	0.961659
C117	C	0.153909	-0.396959	1.294992
C118	C	-0.512893	-0.255514	0.354587
C119	C	-0.179560	0.077819	0.687920
C120	C	0.153773	0.411152	1.021253
C121	C	-0.512877	-0.337313	0.354588
C122	C	-0.179544	-0.003980	0.687921
C123	C	0.153790	0.329353	1.021254
C124	C	-0.512859	-1.063559	0.163368
C125	C	-0.179526	-0.730226	0.496701
C126	C	0.153808	-0.396892	0.830034
C127	C	-0.512590	-1.063683	0.081569
C128	C	-0.179257	-0.730349	0.414902
C129	C	0.154076	-0.397016	0.748236
C130	C	-0.444629	-1.110728	0.816530
C131	C	-0.111295	-0.777395	1.149864
C132	C	0.222038	-0.444062	1.483197
C133	C	-0.444598	-1.110737	0.893389
C134	C	-0.111264	-0.777404	1.226722
C135	C	0.222069	-0.444070	1.560056
C136	C	-0.580723	-1.016574	0.893359
C137	C	-0.247389	-0.683241	1.226692
C138	C	0.085944	-0.349908	1.560026
C139	C	-0.580747	-1.016563	0.816502
C140	C	-0.247414	-0.683229	1.149835
C141	C	0.085919	-0.349896	1.483168
C142	C	-0.512702	-1.063644	0.778089
C143	C	-0.179369	-0.730310	1.111423
C144	C	0.153965	-0.396977	1.444756
C145	C	-0.512646	-1.063664	0.931805
C146	C	-0.179313	-0.730331	1.265139
C147	C	0.154020	-0.396998	1.598472
C148	C	-0.512613	-1.063674	1.015139
C149	C	-0.179280	-0.730340	1.348472
C150	C	0.154054	-0.397007	1.681806
C151	C	-0.512733	-1.063634	0.694750
C152	C	-0.179400	-0.730300	1.028084
C153	C	0.153933	-0.396967	1.361417
H154	H	-0.636196	-0.494171	0.269050
H155	H	-0.302863	-0.160837	0.602384
H156	H	0.030471	0.172496	0.935717
H157	H	-0.636188	-0.633612	0.269036
H158	H	-0.302854	-0.300279	0.602369
H159	H	0.030479	0.033054	0.935703
H160	H	-0.636180	-0.978215	0.785202
H161	H	-0.302847	-0.644882	1.118536
H162	H	0.030486	-0.311549	1.451869
H163	H	-0.389164	-1.149077	0.924684
H164	H	-0.055830	-0.815744	1.258018
H165	H	0.277503	-0.482410	1.591351
H166	H	-0.945936	-0.972753	0.445202
H167	H	-0.612603	-0.639420	0.778535
H168	H	-0.279270	-0.306087	1.111868
H169	H	-0.946104	-1.030348	0.230593
H170	H	-0.612771	-0.697015	0.563926
H171	H	-0.279437	-0.363681	0.897259
H172	H	-0.389504	-0.633693	0.440106
H173	H	-0.056171	-0.300359	0.773439
H174	H	0.277163	0.032974	1.106773
H175	H	-0.389516	-0.494266	0.440108
H176	H	-0.056183	-0.160932	0.773442
H177	H	0.277151	0.172401	1.106775
H178	H	-0.636125	-0.978244	0.924644
H179	H	-0.302792	-0.644911	1.257977
H180	H	0.030542	-0.311578	1.591311
H181	H	-1.079039	-0.939728	0.321316
H182	H	-0.745706	-0.606395	0.654650
H183	H	-0.412372	-0.273061	0.987983
H184	H	-1.078488	-1.154423	0.263849
H185	H	-0.745154	-0.821090	0.597182
H186	H	-0.411821	-0.487756	0.930516
H187	H	-0.945617	-1.187442	0.387913
H188	H	-0.612283	-0.854108	0.721246
H189	H	-0.278950	-0.520775	1.054580
H190	H	-1.078683	-1.096738	0.478544
H191	H	-0.745350	-0.763404	0.811877
H192	H	-0.412016	-0.430071	1.145211
H193	H	-0.389219	-1.149063	0.785257
H194	H	-0.055885	-0.815729	1.118590
H195	H	0.277448	-0.482396	1.451924
