data_functionalizedCrystal
_audit_creation_method	'MofGen! by Chris Wilmer'
_symmetry_space_group_name_H-M	'P1'
_symmetry_Int_Tables_number	1
_symmetry_cell_setting	triclinic
loop_
_symmetry_equiv_pos_as_xyz
  x,y,z
_cell_length_a	11.792241
_cell_length_b	13.101039
_cell_length_c	14.044220
_cell_angle_alpha	93.667477
_cell_angle_beta	91.308853
_cell_angle_gamma	93.376518
loop_
_atom_site_label
_atom_site_type_symbol
_atom_site_fract_x
_atom_site_fract_y
_atom_site_fract_z
O1	O	1.524822	0.085117	-0.124790
O2	O	2.024822	0.585117	0.375210
O3	O	1.195740	0.085141	-0.138185
O4	O	1.695740	0.585141	0.361815
O5	O	1.355341	0.085119	0.006522
O6	O	1.855341	0.585119	0.506522
O7	O	1.365221	0.085139	-0.269497
O8	O	1.865221	0.585139	0.230503
O9	O	1.343891	-0.085309	-0.003878
O10	O	1.843891	0.414691	0.496122
O11	O	1.184291	-0.085287	-0.148585
O12	O	1.684291	0.414713	0.351415
O13	O	1.513372	-0.085311	-0.135190
O14	O	2.013372	0.414689	0.364810
Zn15	Zn	1.347014	-0.112359	-0.143539
Zn16	Zn	1.847014	0.387641	0.356461
Zn17	Zn	1.362099	0.112188	-0.129836
Zn18	Zn	1.862099	0.612188	0.370164
O19	O	1.353772	-0.085290	-0.279897
O20	O	1.853772	0.414710	0.220103
C21	C	1.147646	-0.000070	-0.142543
C22	C	1.647646	0.499930	0.357457
C23	C	1.021396	-0.000061	-0.140024
C24	C	1.521396	0.499939	0.359976
N25	N	1.336727	-0.265606	-0.152889
N26	N	1.836727	0.234394	0.347111
C27	C	0.790247	-0.000091	-0.135394
C28	C	1.290247	0.499909	0.364606
C29	C	0.918875	-0.000075	-0.137967
C30	C	1.418875	0.499925	0.362033
C31	C	1.322732	-0.474646	-0.165620
C32	C	1.822732	0.025354	0.334380
C33	C	1.386386	-0.525531	-0.107750
C34	C	1.886386	-0.025531	0.392250
C35	C	1.378599	-0.641848	-0.114834
C36	C	1.878599	-0.141848	0.385166
C37	C	1.330517	-0.358318	-0.158538
C38	C	1.830517	0.141682	0.341462
C39	C	1.561467	-0.000098	-0.130832
C40	C	2.061467	0.499902	0.369168
C41	C	1.687717	-0.000100	-0.133350
C42	C	2.187717	0.499900	0.366650
C43	C	1.345292	-0.000095	0.036659
C44	C	1.845292	0.499905	0.536659
C45	C	1.332393	-0.000095	0.141951
C46	C	1.832393	0.499905	0.641951
N47	N	1.372394	0.265435	-0.120478
N48	N	1.872394	0.765435	0.379522
C49	C	1.363821	-0.000073	-0.310033
C50	C	1.863821	0.499927	0.189967
C51	C	1.376720	-0.000066	-0.415325
C52	C	1.876720	0.499934	0.084675
C53	C	1.308812	-0.000079	0.334734
C54	C	1.808812	0.499921	0.834734
C55	C	1.400296	-0.000083	0.391897
C56	C	1.900296	0.499917	0.891897
C57	C	1.387176	-0.000073	0.499168
C58	C	1.887176	0.499927	0.999168
C59	C	1.321931	-0.000088	0.227453
C60	C	1.821931	0.499912	0.727453
H61	H	1.446730	-0.481737	-0.052887
H62	H	1.946730	0.018263	0.447113
H63	H	1.262393	-0.518435	-0.220481
H64	H	1.762393	-0.018435	0.279519
N65	N	1.517101	-0.000114	0.350021
N66	N	2.017101	0.499886	0.850021
H67	H	1.564012	0.063058	0.375737
H68	H	2.064012	0.563058	0.875737
H69	H	1.509949	-0.000161	0.278219
H70	H	2.009949	0.499839	0.778219
H71	H	1.220642	-0.000070	0.366357
H72	H	1.720642	0.499930	0.866357
