data_functionalizedCrystal
_audit_creation_method	'MofGen! by Chris Wilmer'
_symmetry_space_group_name_H-M	'P1'
_symmetry_Int_Tables_number	1
_symmetry_cell_setting	triclinic
loop_
_symmetry_equiv_pos_as_xyz
  x,y,z
_cell_length_a	10.654550
_cell_length_b	9.065218
_cell_length_c	9.130313
_cell_angle_alpha	90.000552
_cell_angle_beta	89.996220
_cell_angle_gamma	84.750394
loop_
_atom_site_label
_atom_site_type_symbol
_atom_site_fract_x
_atom_site_fract_y
_atom_site_fract_z
O1	O	1.668655	0.207228	-0.121914
O2	O	1.303255	0.226972	-0.121889
O3	O	1.493507	0.002416	-0.121899
O4	O	1.478402	0.431784	-0.121904
O5	O	1.493505	0.002422	0.121700
O6	O	1.303252	0.226978	0.121709
O7	O	1.668653	0.207234	0.121685
Cu8	Cu	1.485952	0.217107	0.143940
Cu9	Cu	1.485955	0.217100	-0.144144
O10	O	1.478400	0.431790	0.121695
C11	C	1.256450	0.225525	-0.000087
C12	C	1.116989	0.221188	-0.000078
C13	C	1.038027	0.353403	-0.000101
C14	C	0.906990	0.349319	-0.000126
C15	C	0.933890	0.080793	-0.000112
C16	C	1.064925	0.084879	-0.000076
C17	C	1.022496	0.508434	-0.000115
C18	C	0.891459	0.504350	-0.000141
C19	C	1.492055	-0.052559	-0.000102
C20	C	1.487714	-0.216378	-0.000109
C21	C	1.715457	0.208681	-0.000120
C22	C	1.854918	0.213018	-0.000139
C23	C	1.479852	0.486766	-0.000106
C24	C	1.484193	0.650585	-0.000108
N25	N	1.485959	0.217111	0.346563
N26	N	1.485957	0.217084	-0.346767
C27	C	1.570225	0.117712	0.423210
C28	C	1.570222	0.117694	0.576547
C29	C	1.401682	0.316488	0.576575
C30	C	1.401681	0.316497	0.423241
C31	C	1.667534	0.002944	0.423195
C32	C	1.667531	0.002926	0.576532
H33	H	1.058348	0.557796	-0.105288
H34	H	0.845972	0.551205	0.105027
H35	H	1.758860	0.038879	0.375630
O36	O	1.319874	0.413232	0.650900
C37	C	1.341957	0.559523	0.613475
H38	H	1.390371	0.559885	0.502145
H39	H	1.404981	0.605832	0.699779
C40	C	1.156081	0.655836	0.743138
C41	C	1.215535	0.656281	0.606394
H42	H	1.078099	0.715524	0.738776
H43	H	1.141205	0.557277	0.768357
H44	H	1.208614	0.694423	0.815043
H45	H	1.163009	0.617677	0.534495
H46	H	1.230399	0.754836	0.581162
O47	O	1.057825	0.580980	0.121356
C48	C	1.118860	0.705851	0.079084
H49	H	1.088272	0.740490	-0.036486
H50	H	1.225270	0.677094	0.081381
C51	C	1.120676	0.791764	0.327866
C52	C	1.083100	0.834316	0.185925
H53	H	1.098623	0.871006	0.393773
H54	H	1.079560	0.707633	0.356347
H55	H	1.209349	0.767799	0.329759
H56	H	0.994427	0.858262	0.184029
H57	H	1.124200	0.918454	0.157445
O58	O	1.782883	0.032899	0.626016
C59	C	1.875109	-0.076219	0.574431
H60	H	1.838849	-0.130112	0.471860
H61	H	1.896061	-0.164052	0.662624
C62	C	2.041070	0.062227	0.663485
C63	C	1.996538	-0.003956	0.537498
H64	H	2.115975	0.106799	0.640709
H65	H	1.978936	0.135740	0.698244
H66	H	2.058519	-0.010978	0.736967
H67	H	1.979074	0.069252	0.464026
H68	H	2.058672	-0.077455	0.502726
O69	O	1.641184	-0.132287	0.373613
C70	C	1.521693	-0.163346	0.425251
H71	H	1.463252	-0.055167	0.452504
H72	H	1.533538	-0.234891	0.527882
C73	C	1.525888	-0.379626	0.272731
C74	C	1.454106	-0.246758	0.306193
H75	H	1.484199	-0.431085	0.199295
H76	H	1.606394	-0.358705	0.237945
H77	H	1.535754	-0.439229	0.358268
H78	H	1.444255	-0.187150	0.220662
H79	H	1.373597	-0.267671	0.340962
O80	O	0.883104	-0.051484	-0.000183
C81	C	0.750517	-0.026743	-0.000175
H82	H	0.721071	0.088082	-0.046302
H83	H	0.713944	-0.034261	0.116684
C84	C	0.731033	-0.285702	-0.039063
C85	C	0.694866	-0.144676	-0.095728
H86	H	0.696703	-0.358451	-0.097998
H87	H	0.820359	-0.302373	-0.039062
H88	H	0.700553	-0.291946	0.058319
H89	H	0.725359	-0.138428	-0.193100
H90	H	0.605543	-0.128007	-0.095747
O91	O	0.841814	0.573816	-0.121815
C92	C	0.778424	0.473197	-0.205729
H93	H	0.750319	0.380027	-0.132235
H94	H	0.843355	0.424814	-0.296332
C95	C	0.693951	0.668934	-0.364547
C96	C	0.659423	0.554508	-0.274277
H97	H	0.620549	0.719090	-0.406836
H98	H	0.736662	0.736723	-0.308017
H99	H	0.748063	0.628598	-0.440037
H100	H	0.605326	0.594847	-0.198778
H101	H	0.616700	0.486727	-0.330796
H102	H	1.129212	-0.022783	-0.000036
H103	H	1.333054	0.397423	0.360836
H104	H	1.636593	-0.104243	0.624083
