data_functionalizedCrystal
_audit_creation_method	'MofGen! by Chris Wilmer'
_symmetry_space_group_name_H-M	'P1'
_symmetry_Int_Tables_number	1
_symmetry_cell_setting	triclinic
loop_
_symmetry_equiv_pos_as_xyz
  x,y,z
_cell_length_a	16.120484
_cell_length_b	21.395362
_cell_length_c	21.395355
_cell_angle_alpha	90.043940
_cell_angle_beta	92.880721
_cell_angle_gamma	87.057600
loop_
_atom_site_label
_atom_site_type_symbol
_atom_site_fract_x
_atom_site_fract_y
_atom_site_fract_z
Zn1	Zn	-0.331659	-0.945244	-0.367215
Zn2	Zn	0.168341	-0.445244	0.132785
Zn3	Zn	-0.471058	-0.939845	-0.267746
Zn4	Zn	0.028942	-0.439845	0.232254
Zn5	Zn	-0.331698	-0.840458	-0.262418
Zn6	Zn	0.168302	-0.340458	0.237582
Zn7	Zn	-0.471075	-0.835126	-0.372451
Zn8	Zn	0.028925	-0.335126	0.127549
O9	O	-0.401372	-0.890168	-0.317458
O10	O	0.098628	-0.390168	0.182542
O11	O	-0.350127	-1.032207	-0.354059
O12	O	0.149873	-0.532207	0.145941
O13	O	-0.452580	-0.926633	-0.179362
O14	O	0.047420	-0.426633	0.320638
O15	O	-0.215024	-0.858849	-0.271898
O16	O	0.284976	-0.358849	0.228102
O17	O	-0.452543	-1.028240	-0.280979
O18	O	0.047457	-0.528240	0.219021
O19	O	-0.214995	-0.935836	-0.348892
O20	O	0.285005	-0.435836	0.151108
O21	O	-0.350193	-0.853614	-0.175447
O22	O	0.149807	-0.353614	0.324553
O23	O	-0.350210	-0.752072	-0.276976
O24	O	0.149790	-0.252072	0.223024
O25	O	-0.452572	-0.849761	-0.459434
O26	O	0.047428	-0.349761	0.040566
O27	O	-0.452609	-0.748154	-0.357817
O28	O	0.047391	-0.248154	0.142183
O29	O	-0.350144	-0.930665	-0.455587
O30	O	0.149856	-0.430665	0.044413
O31	O	-0.587728	-0.921462	-0.286057
O32	O	-0.087728	-0.421462	0.213943
O33	O	-0.587741	-0.844526	-0.362983
O34	O	-0.087741	-0.344526	0.137017
C35	C	-0.617986	-0.881846	-0.325680
C36	C	-0.117986	-0.381846	0.174320
C37	C	-0.710654	-0.878344	-0.329218
C38	C	-0.210654	-0.378344	0.170782
C39	C	-0.401416	-0.727379	-0.317387
C40	C	0.098584	-0.227379	0.182613
C41	C	-0.401455	-0.657736	-0.317372
C42	C	0.098545	-0.157736	0.182628
C43	C	-0.401328	-1.053593	-0.317529
C44	C	0.098672	-0.553593	0.182471
C45	C	-0.401310	-1.123235	-0.317560
C46	C	0.098690	-0.623235	0.182440
C47	C	-0.880320	-0.871952	-0.335692
C48	C	-0.380320	-0.371952	0.164308
C49	C	-0.921584	-0.908497	-0.299234
C50	C	-0.421584	-0.408497	0.200766
C51	C	-1.015992	-0.904940	-0.302836
C52	C	-0.515992	-0.404940	0.197164
C53	C	-0.785903	-0.875507	-0.332091
C54	C	-0.285903	-0.375507	0.167909
C55	C	-0.183913	-0.898540	-0.309217
C56	C	0.316087	-0.398540	0.190783
C57	C	-0.091245	-0.902107	-0.305705
C58	C	0.408755	-0.402107	0.194295
C59	C	-0.401355	-0.890221	-0.480880
C60	C	0.098645	-0.390221	0.019120
C61	C	-0.401348	-0.890243	-0.550521
C62	C	0.098652	-0.390243	-0.050521
C63	C	-0.454845	-0.622997	-0.359409
C64	C	0.045155	-0.122997	0.140591
C65	C	-0.454825	-0.557562	-0.359436
C66	C	0.045175	-0.057562	0.140564
C67	C	-0.401423	-0.526869	-0.317415
C68	C	0.098577	-0.026869	0.182585
C69	C	-0.348022	-0.561617	-0.275375
C70	C	0.151978	-0.061617	0.224625
C71	C	-0.348039	-0.627050	-0.275354
C72	C	0.151961	-0.127050	0.224646
C73	C	-0.394707	-0.423400	-0.260754
C74	C	0.105293	0.076600	0.239246
C75	C	-0.394696	-0.357967	-0.260775
C76	C	0.105304	0.142033	0.239225
C77	C	-0.401369	-0.325050	-0.317482
C78	C	0.098631	0.174950	0.182518
C79	C	-0.408069	-0.357574	-0.374171
C80	C	0.091931	0.142426	0.125829
C81	C	-0.408085	-0.423007	-0.374149
C82	C	0.091915	0.076993	0.125851
C83	C	-0.401399	-0.455918	-0.317434
C84	C	0.098601	0.044082	0.182566
C85	C	-0.454740	-0.219359	-0.359552
C86	C	0.045260	0.280641	0.140448
C87	C	-0.454713	-0.153924	-0.359580
C88	C	0.045287	0.346076	0.140420
C89	C	-0.347915	-0.157979	-0.275514
C90	C	0.152085	0.342021	0.224486
C91	C	-0.347937	-0.223414	-0.275492
C92	C	0.152063	0.276586	0.224508
C93	C	-0.401354	-0.254100	-0.317510
C94	C	0.098646	0.245900	0.182490
C95	C	-0.348011	-0.932368	-0.581232
C96	C	0.151989	-0.432368	-0.081232
C97	C	-0.347976	-0.932369	-0.646666
C98	C	0.152024	-0.432369	-0.146666
C99	C	-0.401291	-0.890250	-0.681388
C100	C	0.098709	-0.390250	-0.181388
C101	C	-0.454632	-0.848117	-0.650669
C102	C	0.045368	-0.348117	-0.150669
C103	C	-0.454660	-0.848114	-0.585236
C104	C	0.045340	-0.348114	-0.085236
C105	C	-0.476362	-0.882419	-0.787910
C106	C	0.023638	-0.382419	-0.287910
C107	C	-0.476335	-0.882427	-0.853342
C108	C	0.023665	-0.382427	-0.353342
C109	C	-0.401203	-0.890258	-0.883205
C110	C	0.098797	-0.390258	-0.383205
C111	C	-0.326096	-0.898094	-0.847628
C112	C	0.173904	-0.398094	-0.347628
C113	C	-0.326124	-0.898090	-0.782195
C114	C	0.173876	-0.398090	-0.282195
C115	C	-0.401266	-0.890249	-0.752339
C116	C	0.098734	-0.390249	-0.252339
C117	C	-0.347823	-0.932385	-0.984867
C118	C	0.152177	-0.432385	-0.484867
C119	C	-0.347786	-0.932382	-1.050302
C120	C	0.152214	-0.432382	-0.550302
C121	C	-0.454449	-0.848133	-1.054304
C122	C	0.045551	-0.348133	-0.554304
C123	C	-0.454479	-0.848134	-0.988870
C124	C	0.045521	-0.348134	-0.488870
C125	C	-0.401167	-0.890263	-0.954155
C126	C	0.098833	-0.390263	-0.454155
C127	C	-0.401329	-0.890154	-0.154668
C128	C	0.098671	-0.390154	0.345332
C129	C	-0.401101	-0.890262	-0.085019
C130	C	0.098899	-0.390262	0.414981
H131	H	-0.915892	-0.837996	-0.369606
H132	H	-0.415892	-0.337996	0.130394
O133	O	-0.290374	-0.260889	-0.230137
O134	O	0.209626	0.239111	0.269863
H135	H	-0.253245	-0.228554	-0.200914
H136	H	0.246755	0.271446	0.299086
O137	O	-0.874467	-0.953479	-0.254305
O138	O	-0.374467	-0.453479	0.245695
H139	H	-0.891179	-0.942141	-0.205743
H140	H	-0.391179	-0.442141	0.294257
O141	O	-0.512004	-0.802703	-0.955732
O142	O	-0.012004	-0.302703	-0.455732
H143	H	-0.474692	-0.772266	-0.924483
H144	H	0.025308	-0.272266	-0.424483
H145	H	-0.537528	-0.875875	-0.763601
H146	H	-0.037528	-0.375875	-0.263601
H147	H	-0.498340	-0.647977	-0.393624
H148	H	0.001660	-0.147977	0.106376
O149	O	-0.511952	-0.802704	-1.091748
O150	O	-0.011952	-0.302704	-0.591748
H151	H	-0.497663	-0.754080	-1.078611
H152	H	0.002337	-0.254080	-0.578611
H153	H	-0.498301	-0.529272	-0.393669
H154	H	0.001699	-0.029272	0.106331
H155	H	-0.413500	-0.330774	-0.420348
H156	H	0.086500	0.169226	0.079652
H157	H	-0.413538	-0.449485	-0.420307
H158	H	0.086462	0.050515	0.079693
O159	O	-0.512137	-0.802687	-0.688112
O160	O	-0.012137	-0.302687	-0.188112
H161	H	-0.503162	-0.809769	-0.738773
H162	H	-0.003162	-0.309769	-0.238773
H163	H	-0.304430	-0.132990	-0.241303
H164	H	0.195570	0.367010	0.258697
H165	H	-0.389246	-0.331492	-0.214616
H166	H	0.110754	0.168508	0.285384
H167	H	-0.498230	-0.244345	-0.393769
H168	H	0.001770	0.255655	0.106231
O169	O	-0.512411	-0.116445	-0.404843
O170	O	-0.012411	0.383555	0.095157
H171	H	-0.549600	-0.148777	-0.434021
H172	H	-0.049600	0.351223	0.065979
O173	O	-0.290317	-0.977820	-0.947424
O174	O	0.209683	-0.477820	-0.447424
H175	H	-0.327638	-1.008266	-0.919065
H176	H	0.172362	-0.508266	-0.419065
O177	O	-0.290450	-0.977800	-0.679812
O178	O	0.209550	-0.477800	-0.179812
H179	H	-0.304746	-1.026426	-0.667845
H180	H	0.195254	-0.526426	-0.167845
H181	H	-0.264916	-0.904471	-0.871941
H182	H	0.235084	-0.404471	-0.371941
H183	H	-0.389270	-0.450195	-0.214573
H184	H	0.110730	0.049805	0.285427
O185	O	-0.290441	-0.528517	-0.230039
O186	O	0.209559	-0.028517	0.269961
H187	H	-0.299411	-0.477180	-0.237107
H188	H	0.200589	0.022820	0.262893
H189	H	-0.304559	-0.655335	-0.241122
H190	H	0.195441	-0.155335	0.258878
O191	O	-0.290511	-0.977803	-0.543789
O192	O	0.209489	-0.477803	-0.043789
H193	H	-0.253412	-1.007093	-0.576141
H194	H	0.246588	-0.507093	-0.076141
H195	H	-0.264969	-0.904469	-0.753231
H196	H	0.235031	-0.404469	-0.253231
H197	H	-0.304348	-0.966684	-1.075305
H198	H	0.195652	-0.466684	-0.575305
O199	O	-0.557337	-0.873969	-0.891714
O200	O	-0.057337	-0.373969	-0.391714
H201	H	-0.609584	-0.868508	-0.859957
H202	H	-0.109584	-0.368508	-0.359957
O203	O	-0.512171	-0.802665	-0.552105
O204	O	-0.012171	-0.302665	-0.052105
H205	H	-0.549235	-0.773371	-0.587238
H206	H	-0.049235	-0.273371	-0.087238
