data_functionalizedCrystal
_audit_creation_method	'MofGen! by Chris Wilmer'
_symmetry_space_group_name_H-M	'P1'
_symmetry_Int_Tables_number	1
_symmetry_cell_setting	triclinic
loop_
_symmetry_equiv_pos_as_xyz
  x,y,z
_cell_length_a	14.853567
_cell_length_b	14.750779
_cell_length_c	14.853559
_cell_angle_alpha	102.657964
_cell_angle_beta	83.633192
_cell_angle_gamma	77.337139
loop_
_atom_site_label
_atom_site_type_symbol
_atom_site_fract_x
_atom_site_fract_y
_atom_site_fract_z
O1	O	1.176832	0.079755	0.137223
O2	O	1.676832	0.579755	0.637223
O3	O	0.914368	0.079771	0.151248
O4	O	1.414368	0.579771	0.651248
O5	O	1.052615	0.079762	0.013005
O6	O	1.552615	0.579762	0.513005
O7	O	1.038585	0.079765	0.275466
O8	O	1.538585	0.579765	0.775466
O9	O	1.091696	-0.079891	-0.026071
O10	O	1.591696	0.420109	0.473929
O11	O	0.953449	-0.079882	0.112173
O12	O	1.453449	0.420118	0.612173
O13	O	1.215913	-0.079898	0.098147
O14	O	1.715913	0.420102	0.598147
Zn15	Zn	1.090886	-0.105238	0.098956
Zn16	Zn	1.590886	0.394762	0.598956
Zn17	Zn	1.039395	0.105112	0.150440
Zn18	Zn	1.539395	0.605112	0.650440
O19	O	1.077666	-0.079888	0.236391
O20	O	1.577666	0.420112	0.736391
C21	C	0.900320	-0.000053	0.131076
C22	C	1.400320	0.499947	0.631076
C23	C	0.800234	-0.000047	0.129173
C24	C	1.300234	0.499953	0.629173
N25	N	1.126033	-0.248796	0.063819
N26	N	1.626033	0.251204	0.563819
C27	C	0.387709	-0.000069	0.039002
C28	C	0.887709	0.499931	0.539002
C29	C	0.366422	-0.000067	0.203236
C30	C	0.866422	0.499933	0.703236
C31	C	0.460455	-0.000063	0.205027
C32	C	0.960455	0.499937	0.705027
C33	C	0.518119	-0.000062	0.123804
C34	C	1.018119	0.499938	0.623804
C35	C	0.481750	-0.000063	0.040791
C36	C	0.981750	0.499937	0.540791
C37	C	0.496829	-0.000052	0.288041
C38	C	0.996829	0.499948	0.788041
C39	C	0.590867	-0.000048	0.289836
C40	C	1.090867	0.499952	0.789836
C41	C	0.648534	-0.000053	0.208610
C42	C	1.148534	0.499947	0.708610
C43	C	0.612160	-0.000056	0.125593
C44	C	1.112160	0.499944	0.625593
C45	C	0.669824	-0.000054	0.044371
C46	C	1.169824	0.499946	0.544371
C47	C	0.633454	-0.000064	-0.038649
C48	C	1.133454	0.499936	0.461351
C49	C	0.539417	-0.000069	-0.040434
C50	C	1.039417	0.499931	0.459566
C51	C	0.742570	-0.000048	0.210396
C52	C	1.242570	0.499952	0.710396
C53	C	0.763865	-0.000048	0.046160
C54	C	1.263865	0.499952	0.546160
C55	C	0.906093	-0.600599	0.283661
C56	C	1.406093	-0.100599	0.783661
C57	C	0.930729	-0.701100	0.259046
C58	C	1.430729	-0.201100	0.759046
C59	C	1.053172	-0.701071	0.136676
C60	C	1.553172	-0.201071	0.636676
C61	C	1.028543	-0.600568	0.161279
C62	C	1.528543	-0.100568	0.661279
C63	C	0.955004	-0.550340	0.234772
C64	C	1.455004	-0.050340	0.734772
C65	C	1.077454	-0.550309	0.112390
C66	C	1.577454	-0.050309	0.612390
C67	C	1.052830	-0.449815	0.136994
C68	C	1.552830	0.050185	0.636994
C69	C	0.979296	-0.399580	0.210486
C70	C	1.479296	0.100420	0.710486
C71	C	0.930380	-0.449846	0.259376
C72	C	1.430380	0.050154	0.759376
C73	C	1.150997	-0.600539	0.038901
C74	C	1.650997	-0.100539	0.538901
C75	C	1.199908	-0.550280	-0.009988
C76	C	1.699908	-0.050280	0.490012
C77	C	1.175281	-0.449784	0.014611
C78	C	1.675281	0.050216	0.514611
C79	C	1.101746	-0.399549	0.088104
C80	C	1.601746	0.100451	0.588104
C81	C	1.224196	-0.399518	-0.034278
C82	C	1.724196	0.100482	0.465722
C83	C	1.199573	-0.299024	-0.009675
C84	C	1.699573	0.200976	0.490325
C85	C	1.077123	-0.299055	0.112708
C86	C	1.577123	0.200945	0.612708
C87	C	1.229961	-0.000071	0.118320
C88	C	1.729961	0.499929	0.618320
C89	C	1.330045	-0.000071	0.120224
C90	C	1.830045	0.499929	0.620224
C91	C	1.071521	-0.000063	-0.040121
C92	C	1.571521	0.499937	0.459879
C93	C	1.069619	-0.000057	-0.140204
C94	C	1.569619	0.499943	0.359796
N95	N	1.004255	0.248670	0.185569
N96	N	1.504255	0.748670	0.685569
C97	C	1.040252	0.086970	-0.542079
C98	C	1.540252	0.586970	-0.042079
C99	C	1.082859	-0.087090	-0.584675
C100	C	1.582859	0.412910	-0.084675
C101	C	1.084653	-0.087091	-0.490642
C102	C	1.584653	0.412909	0.009358
C103	C	1.064244	-0.000060	-0.422323
C104	C	1.564244	0.499940	0.077677
C105	C	1.042042	0.086972	-0.448036
C106	C	1.542042	0.586972	0.051964
C107	C	1.106845	-0.174121	-0.464920
C108	C	1.606845	0.325879	0.035080
C109	C	1.108639	-0.174125	-0.370882
C110	C	1.608639	0.325875	0.129118
C111	C	1.088237	-0.087093	-0.302561
C112	C	1.588237	0.412907	0.197439
C113	C	1.066035	-0.000058	-0.328280
C114	C	1.566035	0.499942	0.171720
C115	C	1.045626	0.086973	-0.259960
C116	C	1.545626	0.586973	0.240040
C117	C	1.023431	0.174009	-0.285678
C118	C	1.523431	0.674009	0.214322
C119	C	1.021640	0.174004	-0.379715
C120	C	1.521640	0.674004	0.120285
C121	C	1.090027	-0.087088	-0.208523
C122	C	1.590027	0.412912	0.291477
C123	C	1.047417	0.086975	-0.165917
C124	C	1.547417	0.586975	0.334083
C125	C	1.058760	-0.000061	0.289517
C126	C	1.558760	0.499939	0.789517
C127	C	1.060660	-0.000061	0.389602
C128	C	1.560660	0.499939	0.889602
H129	H	0.810811	-0.000051	-0.019983
H130	H	1.310811	0.499949	0.480017
H131	H	0.620471	-0.000040	0.357435
H132	H	1.120471	0.499960	0.857435
H133	H	0.846203	-0.559702	0.343501
H134	H	1.346203	-0.059702	0.843501
H135	H	1.030802	0.157847	-0.110296
H136	H	1.530802	0.657847	0.389704
H137	H	1.239402	-0.258103	-0.049484
H138	H	1.739402	0.241897	0.450516
H139	H	0.772180	-0.000042	0.277989
H140	H	1.272180	0.499958	0.777989
Cl141	Cl	0.837919	-0.386699	0.351762
Cl142	Cl	1.337919	0.113301	0.851762
H143	H	1.006808	0.244869	-0.230039
H144	H	1.506808	0.744869	0.269961
H145	H	1.123456	-0.244976	-0.520551
H146	H	1.623456	0.255024	-0.020551
Cl147	Cl	0.984661	-0.235907	0.205093
Cl148	Cl	1.484661	0.264093	0.705093
Cl149	Cl	0.948344	-0.273243	0.241422
Cl150	Cl	1.448344	0.226757	0.741422
H151	H	1.003569	0.244864	-0.400664
H152	H	1.503569	0.744864	0.099336
H153	H	0.890894	-0.742016	0.298864
H154	H	1.390894	-0.242016	0.798864
H155	H	0.358092	-0.000081	-0.028592
H156	H	0.858092	0.499919	0.471408
Cl157	Cl	1.012360	0.196382	-0.574409
Cl158	Cl	1.512360	0.696382	-0.074409
H159	H	1.108078	-0.157952	-0.187586
H160	H	1.608078	0.342048	0.312414
Cl161	Cl	0.293927	-0.000056	0.305341
Cl162	Cl	0.793927	0.499944	0.805341
Cl163	Cl	0.424331	-0.000038	0.390146
Cl164	Cl	0.924331	0.499962	0.890146
H165	H	1.113051	-0.741978	0.076839
H166	H	1.613051	-0.241978	0.576839
H167	H	0.680414	-0.000056	-0.104778
H168	H	1.180414	0.499944	0.395222
H169	H	1.099469	-0.157946	-0.640305
H170	H	1.599469	0.342054	-0.140305
Cl171	Cl	1.181954	-0.726876	0.007978
Cl172	Cl	1.681954	-0.226876	0.507978
H173	H	1.126715	-0.244995	-0.349952
H174	H	1.626715	0.255005	0.150048
H175	H	1.284079	-0.440427	-0.094112
H176	H	1.784079	0.059573	0.405888
Cl177	Cl	0.493687	-0.000075	-0.144790
Cl178	Cl	0.993687	0.499925	0.355210
H179	H	1.259787	-0.591187	-0.069825
H180	H	1.759787	-0.091187	0.430175
